0:0
     RDKit          3D

 50 53  0  0  0  0  0  0  0  0999 V2000
   54.8220   25.8890   45.6200 N   0  0  0  0  0  0  0  0  0  0  0  0
   55.5250   24.5750   46.4980 S   0  0  0  0  0  0  0  0  0  0  0  0
   56.5330   25.1010   47.4790 O   0  0  0  0  0  0  0  0  0  0  0  0
   54.4290   23.8740   47.2520 O   0  0  0  0  0  0  0  0  0  0  0  0
   56.3090   23.4450   45.3820 C   0  0  0  0  0  0  0  0  0  0  0  0
   55.6740   22.2230   45.1000 C   0  0  0  0  0  0  0  0  0  0  0  0
   56.2360   21.3240   44.1920 C   0  0  0  0  0  0  0  0  0  0  0  0
   57.4350   21.6310   43.5520 C   0  0  0  0  0  0  0  0  0  0  0  0
   58.0850   22.8360   43.8270 C   0  0  0  0  0  0  0  0  0  0  0  0
   57.5410   23.7460   44.7480 C   0  0  0  0  0  0  0  0  0  0  0  0
   58.2840   24.9920   45.0250 C   0  0  0  0  0  0  0  0  0  0  0  0
   58.0600   26.1380   44.2480 C   0  0  0  0  0  0  0  0  0  0  0  0
   58.7660   27.3160   44.5130 C   0  0  0  0  0  0  0  0  0  0  0  0
   59.6870   27.3680   45.5700 C   0  0  0  0  0  0  0  0  0  0  0  0
   60.4760   28.6180   45.8260 C   0  0  0  0  0  0  0  0  0  0  0  0
   60.5670   28.8440   47.2630 N   0  0  0  0  0  0  0  0  0  0  0  0
   60.3020   30.0890   47.9200 C   0  0  0  0  0  0  0  0  0  0  0  0
   61.2600   30.7040   48.4570 O   0  0  0  0  0  0  0  0  0  0  0  0
   58.9260   30.6970   47.9760 C   0  0  0  0  0  0  0  0  0  0  0  0
   58.2670   30.5790   46.6700 N   0  0  0  0  0  0  0  0  0  0  0  0
   57.3880   29.5880   46.4970 N   0  0  0  0  0  0  0  0  0  0  0  0
   56.7420   29.3830   45.3230 C   0  0  0  0  0  0  0  0  0  0  0  0
   55.9210   28.4310   45.2270 O   0  0  0  0  0  0  0  0  0  0  0  0
   56.9970   30.2310   44.2350 C   0  0  0  0  0  0  0  0  0  0  0  0
   56.3530   30.0590   42.9950 C   0  0  0  0  0  0  0  0  0  0  0  0
   56.6340   30.9200   41.9310 C   0  0  0  0  0  0  0  0  0  0  0  0
   57.5560   31.9560   42.0910 C   0  0  0  0  0  0  0  0  0  0  0  0
   58.2020   32.1380   43.3160 C   0  0  0  0  0  0  0  0  0  0  0  0
   57.9310   31.2790   44.3990 C   0  0  0  0  0  0  0  0  0  0  0  0
   58.5660   31.4350   45.6430 C   0  0  0  0  0  0  0  0  0  0  0  0
   59.4110   32.3590   45.8120 O   0  0  0  0  0  0  0  0  0  0  0  0
   59.9080   26.2200   46.3480 C   0  0  0  0  0  0  0  0  0  0  0  0
   59.2020   25.0430   46.0830 C   0  0  0  0  0  0  0  0  0  0  0  0
   54.8590   26.7260   46.2420 H   0  0  0  0  0  0  0  0  0  0  0  0
   54.7261   21.9731   45.5991 H   0  0  0  0  0  0  0  0  0  0  0  0
   55.7306   20.3700   43.9810 H   0  0  0  0  0  0  0  0  0  0  0  0
   57.8696   20.9241   42.8300 H   0  0  0  0  0  0  0  0  0  0  0  0
   59.0307   23.0743   43.3182 H   0  0  0  0  0  0  0  0  0  0  0  0
   57.3272   26.1103   43.4281 H   0  0  0  0  0  0  0  0  0  0  0  0
   58.5982   28.2064   43.8893 H   0  0  0  0  0  0  0  0  0  0  0  0
   61.4869   28.5069   45.4067 H   0  0  0  0  0  0  0  0  0  0  0  0
   59.9757   29.4738   45.3492 H   0  0  0  0  0  0  0  0  0  0  0  0
   58.3270   30.1714   48.7342 H   0  0  0  0  0  0  0  0  0  0  0  0
   59.0140   31.7614   48.2391 H   0  0  0  0  0  0  0  0  0  0  0  0
   55.6261   29.2440   42.8633 H   0  0  0  0  0  0  0  0  0  0  0  0
   56.1273   30.7811   40.9646 H   0  0  0  0  0  0  0  0  0  0  0  0
   57.7743   32.6308   41.2501 H   0  0  0  0  0  0  0  0  0  0  0  0
   58.9266   32.9569   43.4357 H   0  0  0  0  0  0  0  0  0  0  0  0
   60.6395   26.2471   47.1691 H   0  0  0  0  0  0  0  0  0  0  0  0
   59.3676   24.1528   46.7076 H   0  0  0  0  0  0  0  0  0  0  0  0
  1  2  1  0
  2  3  2  0
  2  4  2  0
  2  5  1  0
  5  6  2  0
  6  7  1  0
  7  8  2  0
  8  9  1  0
  9 10  2  0
 10 11  1  0
 11 12  2  0
 12 13  1  0
 13 14  2  0
 14 15  1  0
 15 16  1  0
 16 17  1  0
 17 18  2  0
 17 19  1  0
 19 20  1  0
 20 21  1  0
 21 22  1  0
 22 23  2  0
 22 24  1  0
 24 25  2  0
 25 26  1  0
 26 27  2  0
 27 28  1  0
 28 29  2  0
 29 30  1  0
 30 31  2  0
 14 32  1  0
 32 33  2  0
 10  5  1  0
 33 11  1  0
 30 20  1  0
 29 24  1  0
  1 34  1  0
  6 35  1  0
  7 36  1  0
  8 37  1  0
  9 38  1  0
 12 39  1  0
 13 40  1  0
 15 41  1  0
 15 42  1  0
 19 43  1  0
 19 44  1  0
 25 45  1  0
 26 46  1  0
 27 47  1  0
 28 48  1  0
 32 49  1  0
 33 50  1  0
M  CHG  3   1  -1  16  -1  21  -1
M  END
>  <UniqueID>  (1) 
1

>  <SMILES>  (1) 
[NH-]S(=O)(=O)c1ccccc1-c1ccc(C[N-]C(=O)Cn2[n-]c(=O)c3ccccc3c2=O)cc1

>  <Energy>  (1) 
67.56374956024416

>  <Genealogy>  (1) 
[NH-]S(=O)(=O)c1ccccc1-c1ccc(C[N-]C(=O)Cn2[n-]c(=O)c3ccccc3c2=O)cc1 (protonated)
[NH-]S(=O)(=O)c1ccccc1-c1ccc(C[N-]C(=O)Cn2[n-]c(=O)c3ccccc3c2=O)cc1 (3D coordinates assigned)
[NH-]S(=O)(=O)c1ccccc1-c1ccc(C[N-]C(=O)Cn2[n-]c(=O)c3ccccc3c2=O)cc1 (optimized conformer: 67.56374956024416 kcal/mol)

>  <smiles>  (1) 
NS(=O)(=O)c1ccccc1-c1ccc(CNC(=O)Cn2[nH]c(=O)c3ccccc3c2=O)cc1

>  <score_type>  (1) 
oracle

>  <origin>  (1) 
adg

>  <m_score__min__energy>  (1) 
-14.050000000000001

>  <m_primary>  (1) 
energy

$$$$
1:0
     RDKit          3D

 73 77  0  0  0  0  0  0  0  0999 V2000
   59.0030   29.8070   47.7160 H   0  0  0  0  0  0  0  0  0  0  0  0
   58.1510   30.1820   47.3190 O   0  0  0  0  0  0  0  0  0  0  0  0
   58.1680   31.0310   46.2140 C   0  0  0  0  0  0  0  0  0  0  0  0
   58.5330   32.3620   46.2490 C   0  0  0  0  0  0  0  0  0  0  0  0
   58.4500   32.8280   44.9610 C   0  0  0  0  0  0  0  0  0  0  0  0
   58.0360   31.7650   44.1830 C   0  0  0  0  0  0  0  0  0  0  0  0
   57.8500   31.8030   42.8060 O   0  0  0  0  0  0  0  0  0  0  0  0
   57.8480   30.6670   44.9480 N   0  0  0  0  0  0  0  0  0  0  0  0
   57.4870   29.3290   44.4720 C   0  0  0  0  0  0  0  0  0  0  0  0
   58.2436   28.6092   44.8176 H   0  0  0  0  0  0  0  0  0  0  0  0
   57.4447   29.3504   43.3730 H   0  0  0  0  0  0  0  0  0  0  0  0
   56.1360   28.9100   44.9930 C   0  0  0  0  0  0  0  0  0  0  0  0
   55.1450   29.6760   44.8580 O   0  0  0  0  0  0  0  0  0  0  0  0
   55.9380   27.6380   45.6260 N   0  0  0  0  0  0  0  0  0  0  0  0
   56.7530   26.4460   45.4100 C   0  0  0  0  0  0  0  0  0  0  0  0
   56.7628   26.2037   44.3371 H   0  0  0  0  0  0  0  0  0  0  0  0
   56.3223   25.6117   45.9831 H   0  0  0  0  0  0  0  0  0  0  0  0
   58.1890   26.6850   45.8860 C   0  0  0  0  0  0  0  0  0  0  0  0
   58.6062   27.5511   45.3514 H   0  0  0  0  0  0  0  0  0  0  0  0
   58.7829   25.7827   45.6783 H   0  0  0  0  0  0  0  0  0  0  0  0
   58.2270   26.9600   47.3940 C   0  0  0  0  0  0  0  0  0  0  0  0
   57.3446   26.5027   47.8655 H   0  0  0  0  0  0  0  0  0  0  0  0
   58.2274   28.0486   47.5520 H   0  0  0  0  0  0  0  0  0  0  0  0
   59.4980   26.3720   48.0290 C   0  0  0  0  0  0  0  0  0  0  0  0
   59.7739   25.4565   47.4851 H   0  0  0  0  0  0  0  0  0  0  0  0
   59.2789   26.1614   49.0862 H   0  0  0  0  0  0  0  0  0  0  0  0
   60.6810   27.3500   47.9810 C   0  0  0  0  0  0  0  0  0  0  0  0
   60.6373   27.9110   47.0358 H   0  0  0  0  0  0  0  0  0  0  0  0
   61.6065   26.7604   48.0578 H   0  0  0  0  0  0  0  0  0  0  0  0
   60.6640   28.3500   49.1500 C   0  0  0  0  0  0  0  0  0  0  0  0
   61.5217   28.1477   49.8084 H   0  0  0  0  0  0  0  0  0  0  0  0
   59.7185   28.2297   49.6991 H   0  0  0  0  0  0  0  0  0  0  0  0
   60.7480   29.7260   48.6660 N   0  0  0  0  0  0  0  0  0  0  0  0
   60.6150   30.9240   49.1930 C   0  0  0  0  0  0  0  0  0  0  0  0
   61.5890   31.8780   48.7870 C   0  0  0  0  0  0  0  0  0  0  0  0
   61.5600   33.1820   49.3250 C   0  0  0  0  0  0  0  0  0  0  0  0
   60.6340   33.5070   50.2540 N   0  0  0  0  0  0  0  0  0  0  0  0
   59.6760   32.6460   50.6680 C   0  0  0  0  0  0  0  0  0  0  0  0
   58.7510   33.0980   51.6140 C   0  0  0  0  0  0  0  0  0  0  0  0
   58.8425   34.1150   52.0232 H   0  0  0  0  0  0  0  0  0  0  0  0
   57.7170   32.2740   52.0420 C   0  0  0  0  0  0  0  0  0  0  0  0
   57.0013   32.6358   52.7949 H   0  0  0  0  0  0  0  0  0  0  0  0
   57.5860   30.9830   51.5150 C   0  0  0  0  0  0  0  0  0  0  0  0
   56.5480   30.1190   51.9020 O   0  0  0  0  0  0  0  0  0  0  0  0
   55.1890   30.5160   52.0580 C   0  0  0  0  0  0  0  0  0  0  0  0
   54.9482   30.5863   53.1290 H   0  0  0  0  0  0  0  0  0  0  0  0
   55.0365   31.4962   51.5827 H   0  0  0  0  0  0  0  0  0  0  0  0
   54.5328   29.7720   51.5827 H   0  0  0  0  0  0  0  0  0  0  0  0
   58.5130   30.5280   50.5690 C   0  0  0  0  0  0  0  0  0  0  0  0
   58.3914   29.5200   50.1458 H   0  0  0  0  0  0  0  0  0  0  0  0
   59.6030   31.3260   50.1400 C   0  0  0  0  0  0  0  0  0  0  0  0
   62.6000   34.2170   48.9830 C   0  0  0  0  0  0  0  0  0  0  0  0
   63.3649   34.2239   49.7735 H   0  0  0  0  0  0  0  0  0  0  0  0
   62.0924   35.1898   48.9051 H   0  0  0  0  0  0  0  0  0  0  0  0
   63.2800   33.9380   47.6450 C   0  0  0  0  0  0  0  0  0  0  0  0
   64.1319   34.6223   47.5185 H   0  0  0  0  0  0  0  0  0  0  0  0
   62.5568   34.0924   46.8306 H   0  0  0  0  0  0  0  0  0  0  0  0
   63.7780   32.4980   47.6100 C   0  0  0  0  0  0  0  0  0  0  0  0
   64.4594   32.3304   48.4572 H   0  0  0  0  0  0  0  0  0  0  0  0
   64.3041   32.3277   46.6591 H   0  0  0  0  0  0  0  0  0  0  0  0
   62.6040   31.5190   47.7070 C   0  0  0  0  0  0  0  0  0  0  0  0
   63.0045   30.5183   47.9267 H   0  0  0  0  0  0  0  0  0  0  0  0
   62.0739   31.5590   46.7440 H   0  0  0  0  0  0  0  0  0  0  0  0
   58.7970   34.2220   44.5500 C   0  0  0  0  0  0  0  0  0  0  0  0
   57.9097   34.6924   44.1012 H   0  0  0  0  0  0  0  0  0  0  0  0
   59.6244   34.1699   43.8271 H   0  0  0  0  0  0  0  0  0  0  0  0
   59.2530   35.0590   45.7300 C   0  0  0  0  0  0  0  0  0  0  0  0
   59.5391   36.1041   45.5406 H   0  0  0  0  0  0  0  0  0  0  0  0
   59.3300   34.6010   47.0010 C   0  0  0  0  0  0  0  0  0  0  0  0
   59.6868   35.2923   47.7787 H   0  0  0  0  0  0  0  0  0  0  0  0
   58.9540   33.1920   47.4180 C   0  0  0  0  0  0  0  0  0  0  0  0
   58.1226   33.2430   48.1365 H   0  0  0  0  0  0  0  0  0  0  0  0
   59.8391   32.7214   47.8709 H   0  0  0  0  0  0  0  0  0  0  0  0
  1  2  1  0
  2  3  1  0
  3  4  2  0
  4  5  1  0
  5  6  2  0
  6  7  1  0
  6  8  1  0
  8  9  1  0
  9 10  1  0
  9 11  1  0
  9 12  1  0
 12 13  2  0
 12 14  1  0
 14 15  1  0
 15 16  1  0
 15 17  1  0
 15 18  1  0
 18 19  1  0
 18 20  1  0
 18 21  1  0
 21 22  1  0
 21 23  1  0
 21 24  1  0
 24 25  1  0
 24 26  1  0
 24 27  1  0
 27 28  1  0
 27 29  1  0
 27 30  1  0
 30 31  1  0
 30 32  1  0
 30 33  1  0
 33 34  2  0
 34 35  1  0
 35 36  2  0
 36 37  1  0
 37 38  1  0
 38 39  2  0
 39 40  1  0
 39 41  1  0
 41 42  1  0
 41 43  2  0
 43 44  1  0
 44 45  1  0
 45 46  1  0
 45 47  1  0
 45 48  1  0
 43 49  1  0
 49 50  1  0
 49 51  2  0
 36 52  1  0
 52 53  1  0
 52 54  1  0
 52 55  1  0
 55 56  1  0
 55 57  1  0
 55 58  1  0
 58 59  1  0
 58 60  1  0
 58 61  1  0
 61 62  1  0
 61 63  1  0
  5 64  1  0
 64 65  1  0
 64 66  1  0
 64 67  1  0
 67 68  1  0
 67 69  2  0
 69 70  1  0
 69 71  1  0
 71 72  1  0
 71 73  1  0
  8  3  1  0
 51 34  1  0
 71  4  1  0
 61 35  1  0
 51 38  1  0
M  CHG  3   7  -1  14  -1  37  -1
M  END
>  <UniqueID>  (2) 
2

>  <SMILES>  (2) 
COc1ccc2[n-]c3c(/c(=N/CCCCCC[N-]C(=O)Cn4c([O-])c5c(c4O)CC=CC5)c2c1)CCCC3

>  <Energy>  (2) 
119.15267557875308

>  <Genealogy>  (2) 
COc1ccc2[n-]c3c(c(=NCCCCCC[N-]C(=O)Cn4c([O-])c5c(c4O)CC=CC5)c2c1)CCCC3 (protonated)
COc1ccc2[n-]c3c(/c(=N/CCCCCC[N-]C(=O)Cn4c([O-])c5c(c4O)CC=CC5)c2c1)CCCC3 (cis-trans isomerization)
COc1ccc2[n-]c3c(/c(=N/CCCCCC[N-]C(=O)Cn4c([O-])c5c(c4O)CC=CC5)c2c1)CCCC3 (3D coordinates assigned)
COc1ccc2[n-]c3c(/c(=N/CCCCCC[N-]C(=O)Cn4c([O-])c5c(c4O)CC=CC5)c2c1)CCCC3 (nonaromatic ring conformer: 119.15267557875308 kcal/mol)

>  <smiles>  (2) 
COc1ccc2[nH]c3c(c(=NCCCCCCNC(=O)Cn4c(O)c5c(c4O)CC=CC5)c2c1)CCCC3

>  <score_type>  (2) 
oracle

>  <origin>  (2) 
adg

>  <m_score__min__energy>  (2) 
-15.92

>  <m_primary>  (2) 
energy

$$$$
2:0
     RDKit          3D

 35 36  0  0  0  0  0  0  0  0999 V2000
   58.7110   28.9310   45.3490 C   0  0  0  0  0  0  0  0  0  0  0  0
   57.7810   29.1250   44.1540 C   0  0  0  0  0  0  0  0  0  0  0  0
   56.4910   29.7840   44.5650 C   0  0  0  0  0  0  0  0  0  0  0  0
   55.5140   29.0680   44.9120 O   0  0  0  0  0  0  0  0  0  0  0  0
   56.3260   31.2080   44.5360 N   0  0  0  0  0  0  0  0  0  0  0  0
   57.2890   32.1860   44.9530 C   0  0  0  0  0  0  0  0  0  0  0  0
   57.7820   33.1570   44.0660 C   0  0  0  0  0  0  0  0  0  0  0  0
   58.7370   34.0800   44.4960 C   0  0  0  0  0  0  0  0  0  0  0  0
   59.2260   34.0270   45.8030 C   0  0  0  0  0  0  0  0  0  0  0  0
   58.7770   33.0330   46.6910 C   0  0  0  0  0  0  0  0  0  0  0  0
   59.2840   32.9690   48.0840 C   0  0  0  0  0  0  0  0  0  0  0  0
   58.4780   32.6790   49.0100 O   0  0  0  0  0  0  0  0  0  0  0  0
   60.7030   33.2320   48.4260 C   0  0  0  0  0  0  0  0  0  0  0  0
   61.0450   34.0030   49.5510 C   0  0  0  0  0  0  0  0  0  0  0  0
   62.3850   34.2590   49.8520 C   0  0  0  0  0  0  0  0  0  0  0  0
   63.3970   33.7600   49.0290 C   0  0  0  0  0  0  0  0  0  0  0  0
   63.0730   33.0040   47.8950 C   0  0  0  0  0  0  0  0  0  0  0  0
   64.1090   32.4980   47.0490 N   0  0  0  0  0  0  0  0  0  0  0  0
   61.7270   32.7480   47.5930 C   0  0  0  0  0  0  0  0  0  0  0  0
   57.8030   32.1190   46.2540 C   0  0  0  0  0  0  0  0  0  0  0  0
   58.1397   29.0502   46.2814 H   0  0  0  0  0  0  0  0  0  0  0  0
   59.1483   27.9223   45.3133 H   0  0  0  0  0  0  0  0  0  0  0  0
   59.5151   29.6807   45.3133 H   0  0  0  0  0  0  0  0  0  0  0  0
   58.2841   29.7571   43.4075 H   0  0  0  0  0  0  0  0  0  0  0  0
   57.5466   28.1362   43.7328 H   0  0  0  0  0  0  0  0  0  0  0  0
   57.4146   33.1903   43.0297 H   0  0  0  0  0  0  0  0  0  0  0  0
   59.1053   34.8511   43.8034 H   0  0  0  0  0  0  0  0  0  0  0  0
   59.9668   34.7671   46.1400 H   0  0  0  0  0  0  0  0  0  0  0  0
   60.2526   34.4071   50.1981 H   0  0  0  0  0  0  0  0  0  0  0  0
   62.6437   34.8551   50.7395 H   0  0  0  0  0  0  0  0  0  0  0  0
   64.4509   33.9610   49.2718 H   0  0  0  0  0  0  0  0  0  0  0  0
   64.8800   33.1190   46.7160 H   0  0  0  0  0  0  0  0  0  0  0  0
   64.1150   31.4970   46.7490 H   0  0  0  0  0  0  0  0  0  0  0  0
   61.4707   32.1637   46.6969 H   0  0  0  0  0  0  0  0  0  0  0  0
   57.4399   31.3415   46.9422 H   0  0  0  0  0  0  0  0  0  0  0  0
  1  2  1  0
  2  3  1  0
  3  4  2  0
  3  5  1  0
  5  6  1  0
  6  7  2  0
  7  8  1  0
  8  9  2  0
  9 10  1  0
 10 11  1  0
 11 12  2  0
 11 13  1  0
 13 14  2  0
 14 15  1  0
 15 16  2  0
 16 17  1  0
 17 18  1  0
 17 19  2  0
 10 20  2  0
 20  6  1  0
 19 13  1  0
  1 21  1  0
  1 22  1  0
  1 23  1  0
  2 24  1  0
  2 25  1  0
  7 26  1  0
  8 27  1  0
  9 28  1  0
 14 29  1  0
 15 30  1  0
 16 31  1  0
 18 32  1  0
 18 33  1  0
 19 34  1  0
 20 35  1  0
M  CHG  1   5  -1
M  END
>  <UniqueID>  (3) 
3

>  <SMILES>  (3) 
CCC(=O)[N-]c1cccc(C(=O)c2cccc(N)c2)c1

>  <Energy>  (3) 
42.43005087549344

>  <Genealogy>  (3) 
CCC(=O)[N-]c1cccc(C(=O)c2cccc(N)c2)c1 (protonated)
CCC(=O)[N-]c1cccc(C(=O)c2cccc(N)c2)c1 (3D coordinates assigned)
CCC(=O)[N-]c1cccc(C(=O)c2cccc(N)c2)c1 (optimized conformer: 42.43005087549344 kcal/mol)

>  <smiles>  (3) 
CCC(=O)Nc1cccc(C(=O)c2cccc(N)c2)c1

>  <score_type>  (3) 
oracle

>  <origin>  (3) 
adg

>  <m_score__min__energy>  (3) 
-9.6999999999999993

>  <m_primary>  (3) 
energy

$$$$
3:0
     RDKit          3D

 55 57  0  0  0  0  0  0  0  0999 V2000
   64.2660   33.1500   48.9090 N   0  0  0  0  0  0  0  0  0  0  0  0
   63.3540   32.7030   47.5100 S   0  0  0  0  0  0  0  0  0  0  0  0
   63.1360   31.2170   47.5070 O   0  0  0  0  0  0  0  0  0  0  0  0
   64.1290   33.0900   46.2810 O   0  0  0  0  0  0  0  0  0  0  0  0
   61.7980   33.5260   47.5370 C   0  0  0  0  0  0  0  0  0  0  0  0
   61.2130   33.8670   48.7630 C   0  0  0  0  0  0  0  0  0  0  0  0
   59.9840   34.5300   48.7960 C   0  0  0  0  0  0  0  0  0  0  0  0
   59.3310   34.8580   47.6040 C   0  0  0  0  0  0  0  0  0  0  0  0
   59.9030   34.5150   46.3720 C   0  0  0  0  0  0  0  0  0  0  0  0
   59.0770   34.9510   44.8770 S   0  0  0  0  0  0  0  0  0  0  0  0
   59.6620   34.1540   43.7460 O   0  0  0  0  0  0  0  0  0  0  0  0
   59.2740   36.4120   44.5810 O   0  0  0  0  0  0  0  0  0  0  0  0
   57.3790   34.5930   45.0090 N   0  0  0  0  0  0  0  0  0  0  0  0
   57.1570   33.1670   45.2880 C   0  0  0  0  0  0  0  0  0  0  0  0
   57.4890   32.3140   44.0590 C   0  0  0  0  0  0  0  0  0  0  0  0
   57.4630   30.8430   44.3870 C   0  0  0  0  0  0  0  0  0  0  0  0
   56.2390   30.1630   44.4800 C   0  0  0  0  0  0  0  0  0  0  0  0
   56.2110   28.8090   44.8270 C   0  0  0  0  0  0  0  0  0  0  0  0
   57.4030   28.1220   45.0900 C   0  0  0  0  0  0  0  0  0  0  0  0
   57.3550   26.4220   45.5400 S   0  0  0  0  0  0  0  0  0  0  0  0
   57.1240   25.5920   44.3090 O   0  0  0  0  0  0  0  0  0  0  0  0
   56.2430   26.1680   46.5190 O   0  0  0  0  0  0  0  0  0  0  0  0
   58.8590   25.9640   46.2640 N   0  0  0  0  0  0  0  0  0  0  0  0
   59.5320   26.7850   47.2200 C   0  0  0  0  0  0  0  0  0  0  0  0
   60.7540   26.5960   47.4650 O   0  0  0  0  0  0  0  0  0  0  0  0
   58.7930   27.7910   47.9240 N   0  0  0  0  0  0  0  0  0  0  0  0
   59.3930   28.8210   48.7300 C   0  0  0  0  0  0  0  0  0  0  0  0
   58.9760   30.1510   48.5680 C   0  0  0  0  0  0  0  0  0  0  0  0
   59.5700   31.1760   49.3150 C   0  0  0  0  0  0  0  0  0  0  0  0
   60.5930   30.8820   50.2190 C   0  0  0  0  0  0  0  0  0  0  0  0
   61.0290   29.5630   50.3740 C   0  0  0  0  0  0  0  0  0  0  0  0
   60.4380   28.5360   49.6290 C   0  0  0  0  0  0  0  0  0  0  0  0
   58.6250   28.8020   45.0100 C   0  0  0  0  0  0  0  0  0  0  0  0
   58.6550   30.1560   44.6630 C   0  0  0  0  0  0  0  0  0  0  0  0
   61.1370   33.8460   46.3410 C   0  0  0  0  0  0  0  0  0  0  0  0
   65.2760   33.0850   48.6490 H   0  0  0  0  0  0  0  0  0  0  0  0
   61.7233   33.6117   49.7034 H   0  0  0  0  0  0  0  0  0  0  0  0
   59.5289   34.7946   49.7619 H   0  0  0  0  0  0  0  0  0  0  0  0
   58.3666   35.3862   47.6336 H   0  0  0  0  0  0  0  0  0  0  0  0
   56.9560   34.8130   44.0770 H   0  0  0  0  0  0  0  0  0  0  0  0
   57.8004   32.8589   46.1253 H   0  0  0  0  0  0  0  0  0  0  0  0
   56.0977   33.0186   45.5445 H   0  0  0  0  0  0  0  0  0  0  0  0
   56.7489   32.5181   43.2712 H   0  0  0  0  0  0  0  0  0  0  0  0
   58.5023   32.5752   43.7199 H   0  0  0  0  0  0  0  0  0  0  0  0
   55.2985   30.6970   44.2792 H   0  0  0  0  0  0  0  0  0  0  0  0
   55.2485   28.2807   44.8938 H   0  0  0  0  0  0  0  0  0  0  0  0
   57.7500   27.7170   47.9120 H   0  0  0  0  0  0  0  0  0  0  0  0
   58.1777   30.3900   47.8499 H   0  0  0  0  0  0  0  0  0  0  0  0
   59.2301   32.2146   49.1894 H   0  0  0  0  0  0  0  0  0  0  0  0
   61.0552   31.6875   50.8085 H   0  0  0  0  0  0  0  0  0  0  0  0
   61.8379   29.3318   51.0826 H   0  0  0  0  0  0  0  0  0  0  0  0
   60.7919   27.5011   49.7466 H   0  0  0  0  0  0  0  0  0  0  0  0
   59.5639   28.2691   45.2208 H   0  0  0  0  0  0  0  0  0  0  0  0
   59.6176   30.6853   44.6061 H   0  0  0  0  0  0  0  0  0  0  0  0
   61.5874   33.5716   45.3757 H   0  0  0  0  0  0  0  0  0  0  0  0
  1  2  1  0
  2  3  2  0
  2  4  2  0
  2  5  1  0
  5  6  2  0
  6  7  1  0
  7  8  2  0
  8  9  1  0
  9 10  1  0
 10 11  2  0
 10 12  2  0
 10 13  1  0
 13 14  1  0
 14 15  1  0
 15 16  1  0
 16 17  2  0
 17 18  1  0
 18 19  2  0
 19 20  1  0
 20 21  2  0
 20 22  2  0
 20 23  1  0
 23 24  1  0
 24 25  2  0
 24 26  1  0
 26 27  1  0
 27 28  2  0
 28 29  1  0
 29 30  2  0
 30 31  1  0
 31 32  2  0
 19 33  1  0
 33 34  2  0
  9 35  2  0
 35  5  1  0
 34 16  1  0
 32 27  1  0
  1 36  1  0
  6 37  1  0
  7 38  1  0
  8 39  1  0
 13 40  1  0
 14 41  1  0
 14 42  1  0
 15 43  1  0
 15 44  1  0
 17 45  1  0
 18 46  1  0
 26 47  1  0
 28 48  1  0
 29 49  1  0
 30 50  1  0
 31 51  1  0
 32 52  1  0
 33 53  1  0
 34 54  1  0
 35 55  1  0
M  CHG  2   1  -1  23  -1
M  END
>  <UniqueID>  (4) 
4

>  <SMILES>  (4) 
[NH-]S(=O)(=O)c1cccc(S(=O)(=O)NCCc2ccc(S(=O)(=O)[N-]C(=O)Nc3ccccc3)cc2)c1

>  <Energy>  (4) 
58.717340958633194

>  <Genealogy>  (4) 
[NH-]S(=O)(=O)c1cccc(S(=O)(=O)NCCc2ccc(S(=O)(=O)[N-]C(=O)Nc3ccccc3)cc2)c1 (protonated)
[NH-]S(=O)(=O)c1cccc(S(=O)(=O)NCCc2ccc(S(=O)(=O)[N-]C(=O)Nc3ccccc3)cc2)c1 (3D coordinates assigned)
[NH-]S(=O)(=O)c1cccc(S(=O)(=O)NCCc2ccc(S(=O)(=O)[N-]C(=O)Nc3ccccc3)cc2)c1 (optimized conformer: 58.717340958633194 kcal/mol)

>  <smiles>  (4) 
NS(=O)(=O)c1cccc(S(=O)(=O)NCCc2ccc(S(=O)(=O)NC(=O)Nc3ccccc3)cc2)c1

>  <score_type>  (4) 
oracle

>  <origin>  (4) 
adg

>  <m_score__min__energy>  (4) 
-14.84

>  <m_primary>  (4) 
energy

$$$$
4:0
     RDKit          3D

 46 48  0  0  0  0  0  0  0  0999 V2000
   54.9150   26.3280   46.0050 N   0  0  0  0  0  0  0  0  0  0  0  0
   56.2310   26.3130   46.5570 C   0  0  0  0  0  0  0  0  0  0  0  0
   56.6120   25.3040   47.2100 O   0  0  0  0  0  0  0  0  0  0  0  0
   57.1480   27.4610   46.3710 C   0  0  0  0  0  0  0  0  0  0  0  0
   58.4170   27.4430   46.9810 C   0  0  0  0  0  0  0  0  0  0  0  0
   59.2860   28.5440   46.8630 C   0  0  0  0  0  0  0  0  0  0  0  0
   60.5630   28.5700   47.4470 O   0  0  0  0  0  0  0  0  0  0  0  0
   60.8920   29.0100   48.7410 C   0  0  0  0  0  0  0  0  0  0  0  0
   60.6420   28.2130   49.8750 C   0  0  0  0  0  0  0  0  0  0  0  0
   60.9480   28.6850   51.1540 C   0  0  0  0  0  0  0  0  0  0  0  0
   60.7130   27.8820   52.2630 O   0  0  0  0  0  0  0  0  0  0  0  0
   61.4780   29.9660   51.3180 C   0  0  0  0  0  0  0  0  0  0  0  0
   61.6960   30.7800   50.2060 C   0  0  0  0  0  0  0  0  0  0  0  0
   61.4230   30.3100   48.9090 C   0  0  0  0  0  0  0  0  0  0  0  0
   61.6430   31.2160   47.7160 C   0  0  0  0  0  0  0  0  0  0  0  0
   62.8640   32.0070   47.8500 N   0  0  0  0  0  0  0  0  0  0  0  0
   62.9310   33.4120   47.5960 C   0  0  0  0  0  0  0  0  0  0  0  0
   63.6390   33.8340   46.6430 O   0  0  0  0  0  0  0  0  0  0  0  0
   62.1710   34.3260   48.3910 N   0  0  0  0  0  0  0  0  0  0  0  0
   60.8580   34.0150   48.9370 C   0  0  0  0  0  0  0  0  0  0  0  0
   59.8580   33.9440   47.8190 C   0  0  0  0  0  0  0  0  0  0  0  0
   60.0270   34.7490   46.6790 C   0  0  0  0  0  0  0  0  0  0  0  0
   59.0820   34.7230   45.6510 C   0  0  0  0  0  0  0  0  0  0  0  0
   57.9550   33.9030   45.7560 C   0  0  0  0  0  0  0  0  0  0  0  0
   57.0290   33.8910   44.7660 F   0  0  0  0  0  0  0  0  0  0  0  0
   57.7850   33.0890   46.8820 C   0  0  0  0  0  0  0  0  0  0  0  0
   58.7330   33.1060   47.9100 C   0  0  0  0  0  0  0  0  0  0  0  0
   58.8980   29.6410   46.0900 C   0  0  0  0  0  0  0  0  0  0  0  0
   57.6510   29.6640   45.4670 C   0  0  0  0  0  0  0  0  0  0  0  0
   56.7720   28.5880   45.6090 C   0  0  0  0  0  0  0  0  0  0  0  0
   55.5220   28.6620   45.0030 O   0  0  0  0  0  0  0  0  0  0  0  0
   54.7390   26.7100   45.0490 H   0  0  0  0  0  0  0  0  0  0  0  0
   58.7324   26.5596   47.5555 H   0  0  0  0  0  0  0  0  0  0  0  0
   60.2028   27.2119   49.7529 H   0  0  0  0  0  0  0  0  0  0  0  0
   61.7240   30.3340   52.3250 H   0  0  0  0  0  0  0  0  0  0  0  0
   62.0852   31.7994   50.3452 H   0  0  0  0  0  0  0  0  0  0  0  0
   61.7175   30.5979   46.8091 H   0  0  0  0  0  0  0  0  0  0  0  0
   60.7922   31.9105   47.6541 H   0  0  0  0  0  0  0  0  0  0  0  0
   60.8966   33.0465   49.4571 H   0  0  0  0  0  0  0  0  0  0  0  0
   60.5599   34.7998   49.6478 H   0  0  0  0  0  0  0  0  0  0  0  0
   60.9079   35.4026   46.5962 H   0  0  0  0  0  0  0  0  0  0  0  0
   59.2248   35.3486   44.7576 H   0  0  0  0  0  0  0  0  0  0  0  0
   56.9041   32.4347   46.9584 H   0  0  0  0  0  0  0  0  0  0  0  0
   58.5981   32.4622   48.7917 H   0  0  0  0  0  0  0  0  0  0  0  0
   59.5823   30.4941   45.9718 H   0  0  0  0  0  0  0  0  0  0  0  0
   57.3580   30.5338   44.8607 H   0  0  0  0  0  0  0  0  0  0  0  0
  1  2  1  0
  2  3  2  0
  2  4  1  0
  4  5  2  0
  5  6  1  0
  6  7  1  0
  7  8  1  0
  8  9  2  0
  9 10  1  0
 10 11  1  0
 10 12  2  0
 12 13  1  0
 13 14  2  0
 14 15  1  0
 15 16  1  0
 16 17  1  0
 17 18  2  0
 17 19  1  0
 19 20  1  0
 20 21  1  0
 21 22  2  0
 22 23  1  0
 23 24  2  0
 24 25  1  0
 24 26  1  0
 26 27  2  0
  6 28  2  0
 28 29  1  0
 29 30  2  0
 30 31  1  0
 30  4  1  0
 14  8  1  0
 27 21  1  0
  1 32  1  0
  5 33  1  0
  9 34  1  0
 12 35  1  0
 13 36  1  0
 15 37  1  0
 15 38  1  0
 20 39  1  0
 20 40  1  0
 22 41  1  0
 23 42  1  0
 26 43  1  0
 27 44  1  0
 28 45  1  0
 29 46  1  0
M  CHG  5   1  -1  11  -1  16  -1  19  -1  31  -1
M  END
>  <UniqueID>  (5) 
5

>  <SMILES>  (5) 
[NH-]C(=O)c1cc(Oc2cc([O-])ccc2C[N-]C(=O)[N-]Cc2ccc(F)cc2)ccc1[O-]

>  <Energy>  (5) 
50.84316505045017

>  <Genealogy>  (5) 
[NH-]C(=O)c1cc(Oc2cc([O-])ccc2C[N-]C(=O)[N-]Cc2ccc(F)cc2)ccc1[O-] (protonated)
[NH-]C(=O)c1cc(Oc2cc([O-])ccc2C[N-]C(=O)[N-]Cc2ccc(F)cc2)ccc1[O-] (3D coordinates assigned)
[NH-]C(=O)c1cc(Oc2cc([O-])ccc2C[N-]C(=O)[N-]Cc2ccc(F)cc2)ccc1[O-] (optimized conformer: 50.84316505045017 kcal/mol)

>  <smiles>  (5) 
NC(=O)c1cc(Oc2cc(O)ccc2CNC(=O)NCc2ccc(F)cc2)ccc1O

>  <score_type>  (5) 
oracle

>  <origin>  (5) 
adg

>  <m_score__min__energy>  (5) 
-16.890000000000001

>  <m_primary>  (5) 
energy

$$$$
5:0
     RDKit          3D

 20 21  0  0  0  0  0  0  0  0999 V2000
   56.2660   21.3080   42.8660 O   0  0  0  0  0  0  0  0  0  0  0  0
   56.7840   22.1410   43.6540 C   0  0  0  0  0  0  0  0  0  0  0  0
   58.0850   21.9530   44.1920 N   0  0  0  0  0  0  0  0  0  0  0  0
   58.4080   23.0040   45.0810 C   0  0  0  0  0  0  0  0  0  0  0  0
   59.5480   23.0960   45.6110 O   0  0  0  0  0  0  0  0  0  0  0  0
   57.3260   23.9810   45.2530 C   0  0  0  0  0  0  0  0  0  0  0  0
   57.3200   25.0480   46.0670 C   0  0  0  0  0  0  0  0  0  0  0  0
   57.2100   26.4500   45.6180 C   0  0  0  0  0  0  0  0  0  0  0  0
   58.3550   27.1900   45.2820 C   0  0  0  0  0  0  0  0  0  0  0  0
   58.2370   28.5310   44.9110 C   0  0  0  0  0  0  0  0  0  0  0  0
   56.9750   29.1300   44.9040 C   0  0  0  0  0  0  0  0  0  0  0  0
   56.8500   30.3380   44.5720 O   0  0  0  0  0  0  0  0  0  0  0  0
   55.8790   28.4090   45.2600 N   0  0  0  0  0  0  0  0  0  0  0  0
   55.9650   27.1010   45.6210 C   0  0  0  0  0  0  0  0  0  0  0  0
   54.8110   26.4170   45.9840 O   0  0  0  0  0  0  0  0  0  0  0  0
   55.9290   23.6320   44.1710 S   0  0  0  0  0  0  0  0  0  0  0  0
   58.7170   21.1560   43.9540 H   0  0  0  0  0  0  0  0  0  0  0  0
   57.4032   24.8644   47.1484 H   0  0  0  0  0  0  0  0  0  0  0  0
   59.3458   26.7130   45.3111 H   0  0  0  0  0  0  0  0  0  0  0  0
   59.1284   29.1096   44.6272 H   0  0  0  0  0  0  0  0  0  0  0  0
  1  2  2  0
  2  3  1  0
  3  4  1  0
  4  5  2  0
  4  6  1  0
  6  7  2  3
  7  8  1  0
  8  9  1  0
  9 10  2  0
 10 11  1  0
 11 12  2  0
 11 13  1  0
 13 14  1  0
 14 15  1  0
  6 16  1  0
 16  2  1  0
 14  8  2  0
  3 17  1  0
  7 18  1  0
  9 19  1  0
 10 20  1  0
M  CHG  2  13  -1  15  -1
M  END
>  <UniqueID>  (6) 
6

>  <SMILES>  (6) 
O=C1NC(=O)C(=Cc2ccc(=O)[n-]c2[O-])S1

>  <Energy>  (6) 
48.50818091518819

>  <Genealogy>  (6) 
O=C1NC(=O)C(=Cc2ccc(=O)[n-]c2[O-])S1 (protonated)
O=C1NC(=O)C(=Cc2ccc(=O)[n-]c2[O-])S1 (3D coordinates assigned)
O=C1NC(=O)C(=Cc2ccc(=O)[n-]c2[O-])S1 (nonaromatic ring conformer: 48.50818091518819 kcal/mol)

>  <smiles>  (6) 
O=C1NC(=O)C(=Cc2ccc(=O)[nH]c2O)S1

>  <score_type>  (6) 
oracle

>  <origin>  (6) 
adg

>  <m_score__min__energy>  (6) 
-12.960000000000001

>  <m_primary>  (6) 
energy

$$$$
6:0
     RDKit          3D

 45 47  0  0  0  0  0  0  0  0999 V2000
   62.7610   32.3690   47.4550 C   0  0  0  0  0  0  0  0  0  0  0  0
   61.3650   32.4820   48.0610 C   0  0  0  0  0  0  0  0  0  0  0  0
   60.3590   31.8800   47.1710 N   0  0  0  0  0  0  0  0  0  0  0  0
   59.4900   32.7320   46.3940 C   0  0  0  0  0  0  0  0  0  0  0  0
   58.2040   32.3030   46.0230 C   0  0  0  0  0  0  0  0  0  0  0  0
   57.3710   33.1370   45.2690 C   0  0  0  0  0  0  0  0  0  0  0  0
   57.8150   34.4030   44.8810 C   0  0  0  0  0  0  0  0  0  0  0  0
   59.0900   34.8400   45.2480 C   0  0  0  0  0  0  0  0  0  0  0  0
   59.9250   34.0100   46.0010 C   0  0  0  0  0  0  0  0  0  0  0  0
   60.1800   30.4460   47.1250 C   0  0  0  0  0  0  0  0  0  0  0  0
   60.4670   29.7380   45.9450 C   0  0  0  0  0  0  0  0  0  0  0  0
   60.2940   28.3520   45.8870 C   0  0  0  0  0  0  0  0  0  0  0  0
   59.8260   27.6490   47.0070 C   0  0  0  0  0  0  0  0  0  0  0  0
   59.6640   26.1550   46.9430 C   0  0  0  0  0  0  0  0  0  0  0  0
   58.2760   25.8080   46.6460 N   0  0  0  0  0  0  0  0  0  0  0  0
   57.9220   24.6880   45.8190 C   0  0  0  0  0  0  0  0  0  0  0  0
   58.8270   24.0080   45.2610 O   0  0  0  0  0  0  0  0  0  0  0  0
   56.5390   24.3540   45.5920 N   0  0  0  0  0  0  0  0  0  0  0  0
   56.2270   23.1240   45.0870 C   0  0  0  0  0  0  0  0  0  0  0  0
   54.9340   22.7860   44.8530 N   0  0  0  0  0  0  0  0  0  0  0  0
   53.9400   23.6630   45.1280 C   0  0  0  0  0  0  0  0  0  0  0  0
   52.7420   23.3480   44.9060 O   0  0  0  0  0  0  0  0  0  0  0  0
   54.2370   24.8790   45.6460 N   0  0  0  0  0  0  0  0  0  0  0  0
   55.5260   25.2280   45.8860 C   0  0  0  0  0  0  0  0  0  0  0  0
   55.7690   26.3520   46.4020 O   0  0  0  0  0  0  0  0  0  0  0  0
   59.5400   28.3500   48.1880 C   0  0  0  0  0  0  0  0  0  0  0  0
   59.7130   29.7370   48.2460 C   0  0  0  0  0  0  0  0  0  0  0  0
   63.5069   32.3086   48.2612 H   0  0  0  0  0  0  0  0  0  0  0  0
   62.8187   31.4632   46.8335 H   0  0  0  0  0  0  0  0  0  0  0  0
   62.9636   33.2537   46.8335 H   0  0  0  0  0  0  0  0  0  0  0  0
   61.3487   31.9600   49.0291 H   0  0  0  0  0  0  0  0  0  0  0  0
   61.1243   33.5468   48.1963 H   0  0  0  0  0  0  0  0  0  0  0  0
   57.8506   31.3066   46.3269 H   0  0  0  0  0  0  0  0  0  0  0  0
   56.3657   32.7952   44.9817 H   0  0  0  0  0  0  0  0  0  0  0  0
   57.1602   35.0565   44.2859 H   0  0  0  0  0  0  0  0  0  0  0  0
   59.4372   35.8385   44.9440 H   0  0  0  0  0  0  0  0  0  0  0  0
   60.9281   34.3585   46.2878 H   0  0  0  0  0  0  0  0  0  0  0  0
   60.8310   30.2794   45.0593 H   0  0  0  0  0  0  0  0  0  0  0  0
   60.5260   27.8100   44.9584 H   0  0  0  0  0  0  0  0  0  0  0  0
   60.3156   25.7528   46.1533 H   0  0  0  0  0  0  0  0  0  0  0  0
   59.9407   25.7229   47.9160 H   0  0  0  0  0  0  0  0  0  0  0  0
   57.5240   26.4360   47.0060 H   0  0  0  0  0  0  0  0  0  0  0  0
   57.0287   22.4031   44.8687 H   0  0  0  0  0  0  0  0  0  0  0  0
   59.1779   27.8063   49.0730 H   0  0  0  0  0  0  0  0  0  0  0  0
   59.4819   30.2773   49.1759 H   0  0  0  0  0  0  0  0  0  0  0  0
  1  2  1  0
  2  3  1  0
  3  4  1  0
  4  5  2  0
  5  6  1  0
  6  7  2  0
  7  8  1  0
  8  9  2  0
  3 10  1  0
 10 11  2  0
 11 12  1  0
 12 13  2  0
 13 14  1  0
 14 15  1  0
 15 16  1  0
 16 17  2  0
 16 18  1  0
 18 19  1  0
 19 20  2  0
 20 21  1  0
 21 22  2  0
 21 23  1  0
 23 24  1  0
 24 25  2  0
 13 26  1  0
 26 27  2  0
  9  4  1  0
 27 10  1  0
 24 18  1  0
  1 28  1  0
  1 29  1  0
  1 30  1  0
  2 31  1  0
  2 32  1  0
  5 33  1  0
  6 34  1  0
  7 35  1  0
  8 36  1  0
  9 37  1  0
 11 38  1  0
 12 39  1  0
 14 40  1  0
 14 41  1  0
 15 42  1  0
 19 43  1  0
 26 44  1  0
 27 45  1  0
M  CHG  1  23  -1
M  END
>  <UniqueID>  (7) 
7

>  <SMILES>  (7) 
CCN(c1ccccc1)c1ccc(CNC(=O)n2cnc(=O)[n-]c2=O)cc1

>  <Energy>  (7) 
58.055405452037235

>  <Genealogy>  (7) 
CCN(c1ccccc1)c1ccc(CNC(=O)n2cnc(=O)[n-]c2=O)cc1 (protonated)
CCN(c1ccccc1)c1ccc(CNC(=O)n2cnc(=O)[n-]c2=O)cc1 (3D coordinates assigned)
CCN(c1ccccc1)c1ccc(CNC(=O)n2cnc(=O)[n-]c2=O)cc1 (optimized conformer: 58.055405452037235 kcal/mol)

>  <smiles>  (7) 
CCN(c1ccccc1)c1ccc(CNC(=O)n2cnc(=O)[nH]c2=O)cc1

>  <score_type>  (7) 
oracle

>  <origin>  (7) 
adg

>  <m_score__min__energy>  (7) 
-11.02

>  <m_primary>  (7) 
energy

$$$$
7:0
     RDKit          3D

 30 32  0  0  0  0  0  0  0  0999 V2000
   60.2900   33.7140   47.9430 H   0  0  0  0  0  0  0  0  0  0  0  0
   59.6050   34.1700   47.3520 O   0  0  0  0  0  0  0  0  0  0  0  0
   58.9800   33.5110   46.2910 C   0  0  0  0  0  0  0  0  0  0  0  0
   58.0770   34.2190   45.4920 C   0  0  0  0  0  0  0  0  0  0  0  0
   57.8688   35.2780   45.7048 H   0  0  0  0  0  0  0  0  0  0  0  0
   57.4400   33.5850   44.4260 C   0  0  0  0  0  0  0  0  0  0  0  0
   56.7286   34.1378   43.7948 H   0  0  0  0  0  0  0  0  0  0  0  0
   57.7150   32.2420   44.1690 C   0  0  0  0  0  0  0  0  0  0  0  0
   57.2192   31.7299   43.3312 H   0  0  0  0  0  0  0  0  0  0  0  0
   58.5950   31.5660   44.9530 N   0  0  0  0  0  0  0  0  0  0  0  0
   59.2350   32.1570   46.0030 C   0  0  0  0  0  0  0  0  0  0  0  0
   60.0740   31.4870   46.7410 N   0  0  0  0  0  0  0  0  0  0  0  0
   60.6420   30.1940   46.4620 C   0  0  0  0  0  0  0  0  0  0  0  0
   61.8270   30.0920   46.0400 O   0  0  0  0  0  0  0  0  0  0  0  0
   59.8290   28.9720   46.6710 C   0  0  0  0  0  0  0  0  0  0  0  0
   60.3550   27.8760   47.3800 C   0  0  0  0  0  0  0  0  0  0  0  0
   61.3779   27.9272   47.7814 H   0  0  0  0  0  0  0  0  0  0  0  0
   59.5910   26.7240   47.5790 C   0  0  0  0  0  0  0  0  0  0  0  0
   60.0146   25.8749   48.1355 H   0  0  0  0  0  0  0  0  0  0  0  0
   58.2910   26.6460   47.0740 C   0  0  0  0  0  0  0  0  0  0  0  0
   57.5520   25.5250   47.2690 N   0  0  0  0  0  0  0  0  0  0  0  0
   56.2860   25.4240   46.7890 C   0  0  0  0  0  0  0  0  0  0  0  0
   55.6300   24.3690   46.9900 O   0  0  0  0  0  0  0  0  0  0  0  0
   55.7310   26.4590   46.0960 N   0  0  0  0  0  0  0  0  0  0  0  0
   54.4440   26.3410   45.6150 O   0  0  0  0  0  0  0  0  0  0  0  0
   56.4330   27.6070   45.8730 C   0  0  0  0  0  0  0  0  0  0  0  0
   55.8970   28.5510   45.2290 O   0  0  0  0  0  0  0  0  0  0  0  0
   57.7450   27.7320   46.3610 C   0  0  0  0  0  0  0  0  0  0  0  0
   58.5180   28.8910   46.1630 C   0  0  0  0  0  0  0  0  0  0  0  0
   58.0949   29.7406   45.6070 H   0  0  0  0  0  0  0  0  0  0  0  0
  1  2  1  0
  2  3  1  0
  3  4  2  0
  4  5  1  0
  4  6  1  0
  6  7  1  0
  6  8  2  0
  8  9  1  0
  8 10  1  0
 10 11  1  0
 11 12  2  0
 12 13  1  0
 13 14  2  0
 13 15  1  0
 15 16  2  0
 16 17  1  0
 16 18  1  0
 18 19  1  0
 18 20  2  0
 20 21  1  0
 21 22  1  0
 22 23  2  0
 22 24  1  0
 24 25  1  0
 24 26  1  0
 26 27  2  0
 26 28  1  0
 28 29  2  0
 29 30  1  0
 11  3  1  0
 29 15  1  0
 28 20  1  0
M  CHG  3  10  -1  21  -1  25  -1
M  END
>  <UniqueID>  (8) 
8

>  <SMILES>  (8) 
O=C(/N=c1\[n-]cccc1O)c1ccc2[n-]c(=O)n([O-])c(=O)c2c1

>  <Energy>  (8) 
43.40248652167823

>  <Genealogy>  (8) 
O=C(N=c1[n-]cccc1O)c1ccc2[n-]c(=O)n([O-])c(=O)c2c1 (protonated)
O=C(/N=c1\[n-]cccc1O)c1ccc2[n-]c(=O)n([O-])c(=O)c2c1 (cis-trans isomerization)
O=C(/N=c1\[n-]cccc1O)c1ccc2[n-]c(=O)n([O-])c(=O)c2c1 (3D coordinates assigned)
O=C(/N=c1\[n-]cccc1O)c1ccc2[n-]c(=O)n([O-])c(=O)c2c1 (optimized conformer: 43.40248652167823 kcal/mol)

>  <smiles>  (8) 
O=C(N=c1[nH]cccc1O)c1ccc2[nH]c(=O)n(O)c(=O)c2c1

>  <score_type>  (8) 
oracle

>  <origin>  (8) 
adg

>  <m_score__min__energy>  (8) 
-12.720000000000001

>  <m_primary>  (8) 
energy

$$$$
8:0
     RDKit          3D

 41 43  0  0  0  0  0  0  0  0999 V2000
   55.4730   29.4220   44.8270 O   0  0  0  0  0  0  0  0  0  0  0  0
   56.5560   30.0620   44.8570 C   0  0  0  0  0  0  0  0  0  0  0  0
   57.8310   29.3300   45.1900 C   0  0  0  0  0  0  0  0  0  0  0  0
   57.7080   27.8880   44.9050 N   0  0  0  0  0  0  0  0  0  0  0  0
   57.8690   27.4570   43.6190 C   0  0  0  0  0  0  0  0  0  0  0  0
   57.7620   26.1030   43.3100 C   0  0  0  0  0  0  0  0  0  0  0  0
   57.5030   25.1930   44.2920 N   0  0  0  0  0  0  0  0  0  0  0  0
   57.3800   23.7990   43.9400 C   0  0  0  0  0  0  0  0  0  0  0  0
   56.3970   23.3830   43.0240 C   0  0  0  0  0  0  0  0  0  0  0  0
   56.2730   22.0310   42.6900 C   0  0  0  0  0  0  0  0  0  0  0  0
   57.1230   21.0840   43.2690 C   0  0  0  0  0  0  0  0  0  0  0  0
   58.0980   21.4880   44.1850 C   0  0  0  0  0  0  0  0  0  0  0  0
   58.2270   22.8400   44.5220 C   0  0  0  0  0  0  0  0  0  0  0  0
   57.3720   25.6090   45.5910 C   0  0  0  0  0  0  0  0  0  0  0  0
   57.1700   24.7740   46.5160 O   0  0  0  0  0  0  0  0  0  0  0  0
   57.4790   26.9740   45.9020 C   0  0  0  0  0  0  0  0  0  0  0  0
   57.3630   27.3440   47.1040 O   0  0  0  0  0  0  0  0  0  0  0  0
   56.5340   31.4680   44.5860 N   0  0  0  0  0  0  0  0  0  0  0  0
   57.6570   32.2300   44.0570 C   0  0  0  0  0  0  0  0  0  0  0  0
   58.2570   33.0570   45.1570 C   0  0  0  0  0  0  0  0  0  0  0  0
   59.0430   34.1810   44.8520 C   0  0  0  0  0  0  0  0  0  0  0  0
   59.5730   34.9680   45.8790 C   0  0  0  0  0  0  0  0  0  0  0  0
   59.3140   34.6470   47.2140 C   0  0  0  0  0  0  0  0  0  0  0  0
   58.5200   33.5390   47.5250 C   0  0  0  0  0  0  0  0  0  0  0  0
   57.9870   32.7490   46.5010 C   0  0  0  0  0  0  0  0  0  0  0  0
   58.6516   29.7462   44.5872 H   0  0  0  0  0  0  0  0  0  0  0  0
   58.0354   29.4568   46.2634 H   0  0  0  0  0  0  0  0  0  0  0  0
   58.0846   28.1839   42.8221 H   0  0  0  0  0  0  0  0  0  0  0  0
   57.8869   25.7666   42.2702 H   0  0  0  0  0  0  0  0  0  0  0  0
   55.7234   24.1240   42.5688 H   0  0  0  0  0  0  0  0  0  0  0  0
   55.5050   21.7117   41.9701 H   0  0  0  0  0  0  0  0  0  0  0  0
   57.0243   20.0211   43.0036 H   0  0  0  0  0  0  0  0  0  0  0  0
   58.7651   20.7421   44.6418 H   0  0  0  0  0  0  0  0  0  0  0  0
   58.9942   23.1535   45.2452 H   0  0  0  0  0  0  0  0  0  0  0  0
   58.4158   31.5392   43.6608 H   0  0  0  0  0  0  0  0  0  0  0  0
   57.3072   32.8893   43.2490 H   0  0  0  0  0  0  0  0  0  0  0  0
   59.2420   34.4426   43.8022 H   0  0  0  0  0  0  0  0  0  0  0  0
   60.1952   35.8418   45.6354 H   0  0  0  0  0  0  0  0  0  0  0  0
   59.7347   35.2659   48.0202 H   0  0  0  0  0  0  0  0  0  0  0  0
   58.3142   33.2882   48.5761 H   0  0  0  0  0  0  0  0  0  0  0  0
   57.3544   31.8839   46.7488 H   0  0  0  0  0  0  0  0  0  0  0  0
  1  2  2  0
  2  3  1  0
  3  4  1  0
  4  5  1  0
  5  6  2  0
  6  7  1  0
  7  8  1  0
  8  9  2  0
  9 10  1  0
 10 11  2  0
 11 12  1  0
 12 13  2  0
  7 14  1  0
 14 15  2  0
 14 16  1  0
 16 17  2  0
  2 18  1  0
 18 19  1  0
 19 20  1  0
 20 21  2  0
 21 22  1  0
 22 23  2  0
 23 24  1  0
 24 25  2  0
 16  4  1  0
 25 20  1  0
 13  8  1  0
  3 26  1  0
  3 27  1  0
  5 28  1  0
  6 29  1  0
  9 30  1  0
 10 31  1  0
 11 32  1  0
 12 33  1  0
 13 34  1  0
 19 35  1  0
 19 36  1  0
 21 37  1  0
 22 38  1  0
 23 39  1  0
 24 40  1  0
 25 41  1  0
M  CHG  1  18  -1
M  END
>  <UniqueID>  (9) 
9

>  <SMILES>  (9) 
O=C(Cn1ccn(-c2ccccc2)c(=O)c1=O)[N-]Cc1ccccc1

>  <Energy>  (9) 
52.79041084909067

>  <Genealogy>  (9) 
O=C(Cn1ccn(-c2ccccc2)c(=O)c1=O)[N-]Cc1ccccc1 (protonated)
O=C(Cn1ccn(-c2ccccc2)c(=O)c1=O)[N-]Cc1ccccc1 (3D coordinates assigned)
O=C(Cn1ccn(-c2ccccc2)c(=O)c1=O)[N-]Cc1ccccc1 (optimized conformer: 52.79041084909067 kcal/mol)

>  <smiles>  (9) 
O=C(Cn1ccn(-c2ccccc2)c(=O)c1=O)NCc1ccccc1

>  <score_type>  (9) 
oracle

>  <origin>  (9) 
adg

>  <m_score__min__energy>  (9) 
-10.52

>  <m_primary>  (9) 
energy

$$$$
9:0
     RDKit          3D

 43 45  0  0  0  0  0  0  0  0999 V2000
   56.9920   29.5260   42.9120 C   0  0  0  0  0  0  0  0  0  0  0  0
   56.5260   30.0750   44.5420 S   0  0  0  0  0  0  0  0  0  0  0  0
   55.2520   29.3650   44.9060 O   0  0  0  0  0  0  0  0  0  0  0  0
   56.2810   31.5570   44.4980 O   0  0  0  0  0  0  0  0  0  0  0  0
   57.7740   29.7170   45.7540 C   0  0  0  0  0  0  0  0  0  0  0  0
   58.3970   30.7870   46.4200 C   0  0  0  0  0  0  0  0  0  0  0  0
   59.4470   30.5700   47.3160 C   0  0  0  0  0  0  0  0  0  0  0  0
   60.0240   31.6750   47.9580 O   0  0  0  0  0  0  0  0  0  0  0  0
   61.2780   32.2270   47.6570 C   0  0  0  0  0  0  0  0  0  0  0  0
   62.4670   31.7230   48.2150 C   0  0  0  0  0  0  0  0  0  0  0  0
   63.7000   32.2910   47.8760 C   0  0  0  0  0  0  0  0  0  0  0  0
   63.7550   33.3540   46.9710 C   0  0  0  0  0  0  0  0  0  0  0  0
   62.5790   33.8470   46.3990 C   0  0  0  0  0  0  0  0  0  0  0  0
   61.3460   33.2800   46.7360 C   0  0  0  0  0  0  0  0  0  0  0  0
   59.8620   29.2590   47.5820 C   0  0  0  0  0  0  0  0  0  0  0  0
   59.2470   28.1820   46.9450 C   0  0  0  0  0  0  0  0  0  0  0  0
   58.1920   28.3890   46.0390 C   0  0  0  0  0  0  0  0  0  0  0  0
   57.5500   27.2010   45.4330 C   0  0  0  0  0  0  0  0  0  0  0  0
   58.0240   26.7030   44.3770 O   0  0  0  0  0  0  0  0  0  0  0  0
   56.3140   26.7110   45.9790 N   0  0  0  0  0  0  0  0  0  0  0  0
   55.9380   25.4760   46.1700 C   0  0  0  0  0  0  0  0  0  0  0  0
   56.7450   24.5170   46.8170 C   0  0  0  0  0  0  0  0  0  0  0  0
   56.2630   23.2190   46.9890 C   0  0  0  0  0  0  0  0  0  0  0  0
   54.9900   22.8790   46.5320 C   0  0  0  0  0  0  0  0  0  0  0  0
   54.2000   23.8550   45.9090 C   0  0  0  0  0  0  0  0  0  0  0  0
   52.8440   23.5480   45.4220 C   0  0  0  0  0  0  0  0  0  0  0  0
   52.0310   24.4700   45.1530 O   0  0  0  0  0  0  0  0  0  0  0  0
   52.4520   22.2250   45.2540 O   0  0  0  0  0  0  0  0  0  0  0  0
   54.6930   25.1140   45.7520 N   0  0  0  0  0  0  0  0  0  0  0  0
   57.7018   28.6898   42.9957 H   0  0  0  0  0  0  0  0  0  0  0  0
   56.0962   29.1934   42.3671 H   0  0  0  0  0  0  0  0  0  0  0  0
   57.4657   30.3559   42.3671 H   0  0  0  0  0  0  0  0  0  0  0  0
   58.0514   31.8143   46.2322 H   0  0  0  0  0  0  0  0  0  0  0  0
   62.4272   30.8796   48.9201 H   0  0  0  0  0  0  0  0  0  0  0  0
   64.6265   31.9004   48.3222 H   0  0  0  0  0  0  0  0  0  0  0  0
   64.7243   33.8031   46.7086 H   0  0  0  0  0  0  0  0  0  0  0  0
   62.6233   34.6813   45.6835 H   0  0  0  0  0  0  0  0  0  0  0  0
   60.4238   33.6633   46.2749 H   0  0  0  0  0  0  0  0  0  0  0  0
   60.6777   29.0781   48.2975 H   0  0  0  0  0  0  0  0  0  0  0  0
   59.5913   27.1583   47.1537 H   0  0  0  0  0  0  0  0  0  0  0  0
   57.7458   24.7901   47.1828 H   0  0  0  0  0  0  0  0  0  0  0  0
   56.8882   22.4625   47.4859 H   0  0  0  0  0  0  0  0  0  0  0  0
   54.6095   21.8548   46.6592 H   0  0  0  0  0  0  0  0  0  0  0  0
  1  2  1  0
  2  3  2  0
  2  4  2  0
  2  5  1  0
  5  6  2  0
  6  7  1  0
  7  8  1  0
  8  9  1  0
  9 10  2  0
 10 11  1  0
 11 12  2  0
 12 13  1  0
 13 14  2  0
  7 15  2  0
 15 16  1  0
 16 17  2  0
 17 18  1  0
 18 19  2  0
 18 20  1  0
 20 21  2  3
 21 22  1  0
 22 23  2  0
 23 24  1  0
 24 25  2  0
 25 26  1  0
 26 27  2  0
 26 28  1  0
 25 29  1  0
 17  5  1  0
 29 21  1  0
 14  9  1  0
  1 30  1  0
  1 31  1  0
  1 32  1  0
  6 33  1  0
 10 34  1  0
 11 35  1  0
 12 36  1  0
 13 37  1  0
 14 38  1  0
 15 39  1  0
 16 40  1  0
 22 41  1  0
 23 42  1  0
 24 43  1  0
M  CHG  2  28  -1  29  -1
M  END
>  <UniqueID>  (10) 
10

>  <SMILES>  (10) 
CS(=O)(=O)c1cc(Oc2ccccc2)ccc1C(=O)N=c1cccc(C(=O)[O-])[n-]1

>  <Energy>  (10) 
64.47686155068226

>  <Genealogy>  (10) 
CS(=O)(=O)c1cc(Oc2ccccc2)ccc1C(=O)N=c1cccc(C(=O)[O-])[n-]1 (protonated)
CS(=O)(=O)c1cc(Oc2ccccc2)ccc1C(=O)N=c1cccc(C(=O)[O-])[n-]1 (3D coordinates assigned)
CS(=O)(=O)c1cc(Oc2ccccc2)ccc1C(=O)N=c1cccc(C(=O)[O-])[n-]1 (optimized conformer: 64.47686155068226 kcal/mol)

>  <smiles>  (10) 
CS(=O)(=O)c1cc(Oc2ccccc2)ccc1C(=O)N=c1cccc(C(=O)O)[nH]1

>  <score_type>  (10) 
oracle

>  <origin>  (10) 
adg

>  <m_score__min__energy>  (10) 
-13.15

>  <m_primary>  (10) 
energy

$$$$
10:0
     RDKit          3D

 42 44  0  0  0  0  0  0  0  0999 V2000
   59.0450   35.3050   47.3300 O   0  0  0  0  0  0  0  0  0  0  0  0
   59.4810   34.1720   47.1760 C   0  0  0  0  0  0  0  0  0  0  0  0
   60.0890   33.4570   48.3520 C   0  0  0  0  0  0  0  0  0  0  0  0
   61.5730   33.3910   48.1940 C   0  0  0  0  0  0  0  0  0  0  0  0
   62.4860   33.1150   49.2040 C   0  0  0  0  0  0  0  0  0  0  0  0
   63.8060   33.0310   48.7450 C   0  0  0  0  0  0  0  0  0  0  0  0
   63.9330   33.2230   47.3750 C   0  0  0  0  0  0  0  0  0  0  0  0
   62.4030   33.4960   46.7350 S   0  0  0  0  0  0  0  0  0  0  0  0
   59.3520   33.5060   45.8930 N   0  0  0  0  0  0  0  0  0  0  0  0
   58.2370   34.1030   45.1160 C   0  0  0  0  0  0  0  0  0  0  0  0
   57.7110   33.1180   44.0660 C   0  0  0  0  0  0  0  0  0  0  0  0
   57.1240   31.9170   44.7050 N   0  0  0  0  0  0  0  0  0  0  0  0
   57.0840   30.7890   43.7520 C   0  0  0  0  0  0  0  0  0  0  0  0
   57.4900   29.5060   44.4350 C   0  0  0  0  0  0  0  0  0  0  0  0
   58.8470   29.1580   44.5350 C   0  0  0  0  0  0  0  0  0  0  0  0
   59.2280   27.9740   45.1760 C   0  0  0  0  0  0  0  0  0  0  0  0
   58.2580   27.1300   45.7220 C   0  0  0  0  0  0  0  0  0  0  0  0
   56.9050   27.4670   45.6280 C   0  0  0  0  0  0  0  0  0  0  0  0
   56.5170   28.6500   44.9880 C   0  0  0  0  0  0  0  0  0  0  0  0
   55.1650   28.9670   44.9060 O   0  0  0  0  0  0  0  0  0  0  0  0
   57.7750   31.5500   45.9890 C   0  0  0  0  0  0  0  0  0  0  0  0
   59.2330   32.0330   46.0690 C   0  0  0  0  0  0  0  0  0  0  0  0
   59.8443   34.0011   49.2762 H   0  0  0  0  0  0  0  0  0  0  0  0
   59.6842   32.4355   48.4041 H   0  0  0  0  0  0  0  0  0  0  0  0
   62.2008   32.9765   50.2573 H   0  0  0  0  0  0  0  0  0  0  0  0
   64.6618   32.8318   49.4067 H   0  0  0  0  0  0  0  0  0  0  0  0
   64.8742   33.2002   46.8062 H   0  0  0  0  0  0  0  0  0  0  0  0
   60.2300   33.6770   45.3470 H   0  0  0  0  0  0  0  0  0  0  0  0
   57.4198   34.3664   45.8036 H   0  0  0  0  0  0  0  0  0  0  0  0
   58.6100   34.9999   44.5998 H   0  0  0  0  0  0  0  0  0  0  0  0
   56.9389   33.6164   43.4614 H   0  0  0  0  0  0  0  0  0  0  0  0
   58.5531   32.7999   43.4338 H   0  0  0  0  0  0  0  0  0  0  0  0
   56.0619   30.6826   43.3596 H   0  0  0  0  0  0  0  0  0  0  0  0
   57.7862   30.9923   42.9301 H   0  0  0  0  0  0  0  0  0  0  0  0
   59.6144   29.8198   44.1071 H   0  0  0  0  0  0  0  0  0  0  0  0
   60.2927   27.7075   45.2501 H   0  0  0  0  0  0  0  0  0  0  0  0
   58.5592   26.1999   46.2261 H   0  0  0  0  0  0  0  0  0  0  0  0
   56.1427   26.8007   46.0582 H   0  0  0  0  0  0  0  0  0  0  0  0
   57.2072   32.0036   46.8147 H   0  0  0  0  0  0  0  0  0  0  0  0
   57.7822   30.4522   46.0584 H   0  0  0  0  0  0  0  0  0  0  0  0
   59.6422   31.7604   47.0530 H   0  0  0  0  0  0  0  0  0  0  0  0
   59.7917   31.5510   45.2532 H   0  0  0  0  0  0  0  0  0  0  0  0
  1  2  2  0
  2  3  1  0
  3  4  1  0
  4  5  2  0
  5  6  1  0
  6  7  2  0
  7  8  1  0
  2  9  1  0
  9 10  1  0
 10 11  1  0
 11 12  1  0
 12 13  1  0
 13 14  1  0
 14 15  2  0
 15 16  1  0
 16 17  2  0
 17 18  1  0
 18 19  2  0
 19 20  1  0
 12 21  1  0
 21 22  1  0
  8  4  1  0
 22  9  1  0
 19 14  1  0
  3 23  1  0
  3 24  1  0
  5 25  1  0
  6 26  1  0
  7 27  1  0
  9 28  1  0
 10 29  1  0
 10 30  1  0
 11 31  1  0
 11 32  1  0
 13 33  1  0
 13 34  1  0
 15 35  1  0
 16 36  1  0
 17 37  1  0
 18 38  1  0
 21 39  1  0
 21 40  1  0
 22 41  1  0
 22 42  1  0
M  CHG  2   9   1  20  -1
M  END
>  <UniqueID>  (11) 
11

>  <SMILES>  (11) 
O=C(Cc1cccs1)[NH+]1CCN(Cc2ccccc2[O-])CC1

>  <Energy>  (11) 
79.81416100277313

>  <Genealogy>  (11) 
O=C(Cc1cccs1)[NH+]1CCN(Cc2ccccc2[O-])CC1 (protonated)
O=C(Cc1cccs1)[NH+]1CCN(Cc2ccccc2[O-])CC1 (3D coordinates assigned)
O=C(Cc1cccs1)[NH+]1CCN(Cc2ccccc2[O-])CC1 (nonaromatic ring conformer: 79.81416100277313 kcal/mol)

>  <smiles>  (11) 
O=C(Cc1cccs1)N1CCN(Cc2ccccc2O)CC1

>  <score_type>  (11) 
oracle

>  <origin>  (11) 
adg

>  <m_score__min__energy>  (11) 
-10.289999999999999

>  <m_primary>  (11) 
energy

$$$$
11:0
     RDKit          3D

 39 41  0  0  0  0  0  0  0  0999 V2000
   56.9560   20.1850   43.4130 H   0  0  0  0  0  0  0  0  0  0  0  0
   56.3770   21.0090   43.2970 O   0  0  0  0  0  0  0  0  0  0  0  0
   56.7010   22.2170   43.9100 C   0  0  0  0  0  0  0  0  0  0  0  0
   55.7560   23.2470   43.9490 C   0  0  0  0  0  0  0  0  0  0  0  0
   54.7647   23.0990   43.4958 H   0  0  0  0  0  0  0  0  0  0  0  0
   56.0670   24.4640   44.5620 C   0  0  0  0  0  0  0  0  0  0  0  0
   55.3245   25.2755   44.5745 H   0  0  0  0  0  0  0  0  0  0  0  0
   57.3240   24.6570   45.1630 C   0  0  0  0  0  0  0  0  0  0  0  0
   57.6930   25.9370   45.8100 C   0  0  0  0  0  0  0  0  0  0  0  0
   58.7119   26.0242   46.2154 H   0  0  0  0  0  0  0  0  0  0  0  0
   56.8830   26.9990   45.9410 C   0  0  0  0  0  0  0  0  0  0  0  0
   55.8258   26.8064   46.1758 H   0  0  0  0  0  0  0  0  0  0  0  0
   57.3060   28.4130   45.7930 C   0  0  0  0  0  0  0  0  0  0  0  0
   56.4240   29.3440   45.2390 C   0  0  0  0  0  0  0  0  0  0  0  0
   55.1460   28.9640   44.8420 O   0  0  0  0  0  0  0  0  0  0  0  0
   56.8070   30.6340   45.0970 N   0  0  0  0  0  0  0  0  0  0  0  0
   58.0400   31.0560   45.4690 C   0  0  0  0  0  0  0  0  0  0  0  0
   58.3350   32.2730   45.3200 O   0  0  0  0  0  0  0  0  0  0  0  0
   58.9470   30.1710   45.9980 N   0  0  0  0  0  0  0  0  0  0  0  0
   60.3050   30.6210   46.3690 C   0  0  0  0  0  0  0  0  0  0  0  0
   60.8484   29.7856   46.8347 H   0  0  0  0  0  0  0  0  0  0  0  0
   60.8287   30.9557   45.4615 H   0  0  0  0  0  0  0  0  0  0  0  0
   60.2340   31.7700   47.3420 C   0  0  0  0  0  0  0  0  0  0  0  0
   61.0520   32.8980   47.1650 C   0  0  0  0  0  0  0  0  0  0  0  0
   61.7303   32.9522   46.3007 H   0  0  0  0  0  0  0  0  0  0  0  0
   61.0080   33.9530   48.0830 C   0  0  0  0  0  0  0  0  0  0  0  0
   61.6502   34.8343   47.9386 H   0  0  0  0  0  0  0  0  0  0  0  0
   60.1490   33.8880   49.1830 C   0  0  0  0  0  0  0  0  0  0  0  0
   60.1142   34.7185   49.9035 H   0  0  0  0  0  0  0  0  0  0  0  0
   59.3340   32.7680   49.3680 C   0  0  0  0  0  0  0  0  0  0  0  0
   58.5030   32.7060   50.4380 F   0  0  0  0  0  0  0  0  0  0  0  0
   59.3750   31.7110   48.4530 C   0  0  0  0  0  0  0  0  0  0  0  0
   58.7329   30.8306   48.6033 H   0  0  0  0  0  0  0  0  0  0  0  0
   58.5980   28.8490   46.1410 C   0  0  0  0  0  0  0  0  0  0  0  0
   59.4410   28.0140   46.5710 O   0  0  0  0  0  0  0  0  0  0  0  0
   58.2790   23.6290   45.0950 C   0  0  0  0  0  0  0  0  0  0  0  0
   59.2788   23.7819   45.5274 H   0  0  0  0  0  0  0  0  0  0  0  0
   57.9660   22.4130   44.4810 C   0  0  0  0  0  0  0  0  0  0  0  0
   58.7144   21.6076   44.4458 H   0  0  0  0  0  0  0  0  0  0  0  0
  1  2  1  0
  2  3  1  0
  3  4  2  0
  4  5  1  0
  4  6  1  0
  6  7  1  0
  6  8  2  0
  8  9  1  0
  9 10  1  0
  9 11  2  0
 11 12  1  0
 11 13  1  0
 13 14  2  0
 14 15  1  0
 14 16  1  0
 16 17  1  0
 17 18  2  0
 17 19  1  0
 19 20  1  0
 20 21  1  0
 20 22  1  0
 20 23  1  0
 23 24  2  0
 24 25  1  0
 24 26  1  0
 26 27  1  0
 26 28  2  0
 28 29  1  0
 28 30  1  0
 30 31  1  0
 30 32  2  0
 32 33  1  0
 19 34  1  0
 34 35  2  0
  8 36  1  0
 36 37  1  0
 36 38  2  0
 38 39  1  0
 38  3  1  0
 34 13  1  0
 32 23  1  0
M  CHG  2  15  -1  16  -1
M  END
>  <UniqueID>  (12) 
12

>  <SMILES>  (12) 
O=c1[n-]c([O-])c(/C=C\c2ccc(O)cc2)c(=O)n1Cc1cccc(F)c1

>  <Energy>  (12) 
56.9524022160307

>  <Genealogy>  (12) 
O=c1[n-]c([O-])c(C=Cc2ccc(O)cc2)c(=O)n1Cc1cccc(F)c1 (protonated)
O=c1[n-]c([O-])c(/C=C\c2ccc(O)cc2)c(=O)n1Cc1cccc(F)c1 (cis-trans isomerization)
O=c1[n-]c([O-])c(/C=C\c2ccc(O)cc2)c(=O)n1Cc1cccc(F)c1 (3D coordinates assigned)
O=c1[n-]c([O-])c(/C=C\c2ccc(O)cc2)c(=O)n1Cc1cccc(F)c1 (optimized conformer: 56.9524022160307 kcal/mol)

>  <smiles>  (12) 
O=c1[nH]c(O)c(C=Cc2ccc(O)cc2)c(=O)n1Cc1cccc(F)c1

>  <score_type>  (12) 
oracle

>  <origin>  (12) 
adg

>  <m_score__min__energy>  (12) 
-14.119999999999999

>  <m_primary>  (12) 
energy

$$$$
12:0
     RDKit          3D

 39 41  0  0  0  0  0  0  0  0999 V2000
   56.1560   21.0350   44.9450 H   0  0  0  0  0  0  0  0  0  0  0  0
   55.5710   21.8320   44.7220 O   0  0  0  0  0  0  0  0  0  0  0  0
   55.9630   23.1310   45.0380 C   0  0  0  0  0  0  0  0  0  0  0  0
   57.3200   23.4780   45.0720 C   0  0  0  0  0  0  0  0  0  0  0  0
   58.0864   22.7188   44.8569 H   0  0  0  0  0  0  0  0  0  0  0  0
   57.7020   24.7880   45.3790 C   0  0  0  0  0  0  0  0  0  0  0  0
   58.7694   25.0511   45.4181 H   0  0  0  0  0  0  0  0  0  0  0  0
   56.7340   25.7670   45.6370 C   0  0  0  0  0  0  0  0  0  0  0  0
   57.1680   27.0960   45.9540 N   0  0  0  0  0  0  0  0  0  0  0  0
   57.2670   28.1710   45.0160 C   0  0  0  0  0  0  0  0  0  0  0  0
   57.7630   27.9450   43.8800 O   0  0  0  0  0  0  0  0  0  0  0  0
   56.7430   29.4680   45.3490 N   0  0  0  0  0  0  0  0  0  0  0  0
   57.0990   30.6140   44.8440 C   0  0  0  0  0  0  0  0  0  0  0  0
   57.2520   31.7210   45.6270 N   0  0  0  0  0  0  0  0  0  0  0  0
   57.6230   32.9270   45.1150 C   0  0  0  0  0  0  0  0  0  0  0  0
   57.7760   34.0750   45.9590 N   0  0  0  0  0  0  0  0  0  0  0  0
   58.8170   34.2790   46.9250 C   0  0  0  0  0  0  0  0  0  0  0  0
   58.9200   35.3850   47.5220 O   0  0  0  0  0  0  0  0  0  0  0  0
   59.7760   33.1890   47.2210 C   0  0  0  0  0  0  0  0  0  0  0  0
   59.3390   32.0030   47.8440 C   0  0  0  0  0  0  0  0  0  0  0  0
   58.2791   31.8864   48.1143 H   0  0  0  0  0  0  0  0  0  0  0  0
   60.2440   30.9730   48.1210 C   0  0  0  0  0  0  0  0  0  0  0  0
   59.8939   30.0510   48.6082 H   0  0  0  0  0  0  0  0  0  0  0  0
   61.5920   31.1130   47.7800 C   0  0  0  0  0  0  0  0  0  0  0  0
   62.3020   30.3014   47.9971 H   0  0  0  0  0  0  0  0  0  0  0  0
   62.0370   32.2850   47.1630 C   0  0  0  0  0  0  0  0  0  0  0  0
   63.0984   32.3953   46.8960 H   0  0  0  0  0  0  0  0  0  0  0  0
   61.1370   33.3180   46.8840 C   0  0  0  0  0  0  0  0  0  0  0  0
   61.4946   34.2377   46.3979 H   0  0  0  0  0  0  0  0  0  0  0  0
   57.8610   33.0500   43.7420 C   0  0  0  0  0  0  0  0  0  0  0  0
   58.1647   34.0178   43.3163 H   0  0  0  0  0  0  0  0  0  0  0  0
   57.7100   31.9350   42.9170 C   0  0  0  0  0  0  0  0  0  0  0  0
   57.8914   32.0212   41.8355 H   0  0  0  0  0  0  0  0  0  0  0  0
   57.3280   30.7090   43.4670 C   0  0  0  0  0  0  0  0  0  0  0  0
   57.2082   29.8255   42.8227 H   0  0  0  0  0  0  0  0  0  0  0  0
   55.3710   25.4070   45.6420 C   0  0  0  0  0  0  0  0  0  0  0  0
   54.3900   26.3310   45.9840 O   0  0  0  0  0  0  0  0  0  0  0  0
   54.9930   24.0960   45.3280 C   0  0  0  0  0  0  0  0  0  0  0  0
   53.9275   23.8235   45.3093 H   0  0  0  0  0  0  0  0  0  0  0  0
  1  2  1  0
  2  3  1  0
  3  4  2  0
  4  5  1  0
  4  6  1  0
  6  7  1  0
  6  8  2  0
  8  9  1  0
  9 10  1  0
 10 11  2  0
 10 12  1  0
 12 13  2  0
 13 14  1  0
 14 15  1  0
 15 16  1  0
 16 17  1  0
 17 18  2  0
 17 19  1  0
 19 20  2  0
 20 21  1  0
 20 22  1  0
 22 23  1  0
 22 24  2  0
 24 25  1  0
 24 26  1  0
 26 27  1  0
 26 28  2  0
 28 29  1  0
 15 30  2  0
 30 31  1  0
 30 32  1  0
 32 33  1  0
 32 34  2  0
 34 35  1  0
  8 36  1  0
 36 37  1  0
 36 38  2  0
 38 39  1  0
 38  3  1  0
 34 13  1  0
 28 19  1  0
M  CHG  4   9  -1  14  -1  16  -1  37  -1
M  END
>  <UniqueID>  (13) 
13

>  <SMILES>  (13) 
O=C(/N=c1/cccc([N-]C(=O)c2ccccc2)[n-]1)[N-]c1ccc(O)cc1[O-]

>  <Energy>  (13) 
51.23267074319069

>  <Genealogy>  (13) 
O=C(N=c1cccc([N-]C(=O)c2ccccc2)[n-]1)[N-]c1ccc(O)cc1[O-] (protonated)
O=C(/N=c1/cccc([N-]C(=O)c2ccccc2)[n-]1)[N-]c1ccc(O)cc1[O-] (cis-trans isomerization)
O=C(/N=c1/cccc([N-]C(=O)c2ccccc2)[n-]1)[N-]c1ccc(O)cc1[O-] (3D coordinates assigned)
O=C(/N=c1/cccc([N-]C(=O)c2ccccc2)[n-]1)[N-]c1ccc(O)cc1[O-] (optimized conformer: 51.23267074319069 kcal/mol)

>  <smiles>  (13) 
O=C(N=c1cccc(NC(=O)c2ccccc2)[nH]1)Nc1ccc(O)cc1O

>  <score_type>  (13) 
oracle

>  <origin>  (13) 
adg

>  <m_score__min__energy>  (13) 
-15.390000000000001

>  <m_primary>  (13) 
energy

$$$$
13:0
     RDKit          3D

 47 49  0  0  0  0  0  0  0  0999 V2000
   64.9200   32.4760   46.3220 H   0  0  0  0  0  0  0  0  0  0  0  0
   64.1390   33.1090   46.4570 O   0  0  0  0  0  0  0  0  0  0  0  0
   63.1890   32.8920   47.4510 C   0  0  0  0  0  0  0  0  0  0  0  0
   63.3460   31.8210   48.3350 C   0  0  0  0  0  0  0  0  0  0  0  0
   64.2111   31.1491   48.2342 H   0  0  0  0  0  0  0  0  0  0  0  0
   62.4070   31.6010   49.3470 C   0  0  0  0  0  0  0  0  0  0  0  0
   62.5750   30.5430   50.2320 O   0  0  0  0  0  0  0  0  0  0  0  0
   61.2990   32.4450   49.4690 C   0  0  0  0  0  0  0  0  0  0  0  0
   60.5696   32.2766   50.2750 H   0  0  0  0  0  0  0  0  0  0  0  0
   61.1120   33.5050   48.5700 C   0  0  0  0  0  0  0  0  0  0  0  0
   59.9420   34.3950   48.7380 C   0  0  0  0  0  0  0  0  0  0  0  0
   59.6094   34.6026   49.7658 H   0  0  0  0  0  0  0  0  0  0  0  0
   59.2530   34.9700   47.7400 C   0  0  0  0  0  0  0  0  0  0  0  0
   59.0252   36.0420   47.8349 H   0  0  0  0  0  0  0  0  0  0  0  0
   58.7750   34.2780   46.5220 C   0  0  0  0  0  0  0  0  0  0  0  0
   59.3580   34.5140   45.2640 C   0  0  0  0  0  0  0  0  0  0  0  0
   60.1727   35.2467   45.1674 H   0  0  0  0  0  0  0  0  0  0  0  0
   58.9080   33.8230   44.1370 C   0  0  0  0  0  0  0  0  0  0  0  0
   59.3484   34.0383   43.1523 H   0  0  0  0  0  0  0  0  0  0  0  0
   57.9000   32.8580   44.2520 C   0  0  0  0  0  0  0  0  0  0  0  0
   57.4210   32.1640   43.0370 C   0  0  0  0  0  0  0  0  0  0  0  0
   57.1454   32.7883   42.1742 H   0  0  0  0  0  0  0  0  0  0  0  0
   57.2950   30.8340   42.9010 C   0  0  0  0  0  0  0  0  0  0  0  0
   57.6543   30.3851   41.9632 H   0  0  0  0  0  0  0  0  0  0  0  0
   56.7130   29.9260   43.9090 C   0  0  0  0  0  0  0  0  0  0  0  0
   55.4590   29.8030   43.9540 O   0  0  0  0  0  0  0  0  0  0  0  0
   57.5710   29.1040   44.7910 C   0  0  0  0  0  0  0  0  0  0  0  0
   58.6261   28.9556   44.5176 H   0  0  0  0  0  0  0  0  0  0  0  0
   57.1070   28.5350   45.9100 C   0  0  0  0  0  0  0  0  0  0  0  0
   56.6259   29.1767   46.6628 H   0  0  0  0  0  0  0  0  0  0  0  0
   57.2100   27.0820   46.1840 C   0  0  0  0  0  0  0  0  0  0  0  0
   58.4920   26.5280   46.3450 C   0  0  0  0  0  0  0  0  0  0  0  0
   59.3790   27.1738   46.2664 H   0  0  0  0  0  0  0  0  0  0  0  0
   58.6490   25.1640   46.6040 C   0  0  0  0  0  0  0  0  0  0  0  0
   59.6562   24.7435   46.7404 H   0  0  0  0  0  0  0  0  0  0  0  0
   57.5300   24.3340   46.6900 C   0  0  0  0  0  0  0  0  0  0  0  0
   57.6880   22.9790   46.9520 O   0  0  0  0  0  0  0  0  0  0  0  0
   56.2510   24.8660   46.5090 C   0  0  0  0  0  0  0  0  0  0  0  0
   55.3705   24.2100   46.5758 H   0  0  0  0  0  0  0  0  0  0  0  0
   56.0850   26.2300   46.2430 C   0  0  0  0  0  0  0  0  0  0  0  0
   54.8010   26.7120   46.0100 O   0  0  0  0  0  0  0  0  0  0  0  0
   57.3170   32.6210   45.5090 C   0  0  0  0  0  0  0  0  0  0  0  0
   56.5040   31.8863   45.6049 H   0  0  0  0  0  0  0  0  0  0  0  0
   57.7640   33.3130   46.6370 C   0  0  0  0  0  0  0  0  0  0  0  0
   57.3206   33.0999   47.6208 H   0  0  0  0  0  0  0  0  0  0  0  0
   62.0790   33.7400   47.5750 C   0  0  0  0  0  0  0  0  0  0  0  0
   61.9636   34.5935   46.8908 H   0  0  0  0  0  0  0  0  0  0  0  0
  1  2  1  0
  2  3  1  0
  3  4  2  0
  4  5  1  0
  4  6  1  0
  6  7  1  0
  6  8  2  0
  8  9  1  0
  8 10  1  0
 10 11  1  0
 11 12  1  0
 11 13  2  3
 13 14  1  0
 13 15  1  0
 15 16  2  0
 16 17  1  0
 16 18  1  0
 18 19  1  0
 18 20  2  0
 20 21  1  0
 21 22  1  0
 21 23  2  3
 23 24  1  0
 23 25  1  0
 25 26  2  0
 25 27  1  0
 27 28  1  0
 27 29  2  0
 29 30  1  0
 29 31  1  0
 31 32  2  0
 32 33  1  0
 32 34  1  0
 34 35  1  0
 34 36  2  0
 36 37  1  0
 36 38  1  0
 38 39  1  0
 38 40  2  0
 40 41  1  0
 20 42  1  0
 42 43  1  0
 42 44  2  0
 44 45  1  0
 10 46  2  0
 46 47  1  0
 46  3  1  0
 44 15  1  0
 40 31  1  0
M  CHG  3   7  -1  37  -1  41  -1
M  END
>  <UniqueID>  (14) 
14

>  <SMILES>  (14) 
O=C(C=Cc1ccc(C=Cc2cc([O-])cc(O)c2)cc1)/C=C/c1ccc([O-])cc1[O-]

>  <Energy>  (14) 
70.48428567768953

>  <Genealogy>  (14) 
O=C(C=Cc1ccc(C=Cc2cc([O-])cc(O)c2)cc1)C=Cc1ccc([O-])cc1[O-] (protonated)
O=C(C=Cc1ccc(C=Cc2cc([O-])cc(O)c2)cc1)/C=C/c1ccc([O-])cc1[O-] (cis-trans isomerization)
O=C(C=Cc1ccc(C=Cc2cc([O-])cc(O)c2)cc1)/C=C/c1ccc([O-])cc1[O-] (3D coordinates assigned)
O=C(C=Cc1ccc(C=Cc2cc([O-])cc(O)c2)cc1)/C=C/c1ccc([O-])cc1[O-] (optimized conformer: 70.48428567768953 kcal/mol)

>  <smiles>  (14) 
O=C(C=Cc1ccc(C=Cc2cc(O)cc(O)c2)cc1)C=Cc1ccc(O)cc1O

>  <score_type>  (14) 
oracle

>  <origin>  (14) 
adg

>  <m_score__min__energy>  (14) 
-16.859999999999999

>  <m_primary>  (14) 
energy

$$$$
14:0
     RDKit          3D

 38 40  0  0  0  0  0  0  0  0999 V2000
   59.4010   34.9710   44.8380 O   0  0  0  0  0  0  0  0  0  0  0  0
   59.0070   33.9060   45.3880 C   0  0  0  0  0  0  0  0  0  0  0  0
   57.6750   33.4160   45.1560 N   0  0  0  0  0  0  0  0  0  0  0  0
   57.3540   32.3500   44.4850 C   0  0  0  0  0  0  0  0  0  0  0  0
   56.6620   31.3060   44.9930 N   0  0  0  0  0  0  0  0  0  0  0  0
   56.4750   30.3330   44.0600 C   0  0  0  0  0  0  0  0  0  0  0  0
   57.0180   30.6040   42.8080 C   0  0  0  0  0  0  0  0  0  0  0  0
   57.7600   32.1140   42.8740 S   0  0  0  0  0  0  0  0  0  0  0  0
   59.9240   33.1550   46.2790 C   0  0  0  0  0  0  0  0  0  0  0  0
   61.1580   33.7120   46.6660 C   0  0  0  0  0  0  0  0  0  0  0  0
   62.0170   33.0090   47.5140 C   0  0  0  0  0  0  0  0  0  0  0  0
   61.6600   31.7440   47.9830 C   0  0  0  0  0  0  0  0  0  0  0  0
   60.4420   31.1710   47.6020 C   0  0  0  0  0  0  0  0  0  0  0  0
   59.9880   29.5840   48.2220 S   0  0  0  0  0  0  0  0  0  0  0  0
   60.6720   29.3280   49.5370 O   0  0  0  0  0  0  0  0  0  0  0  0
   58.5020   29.5510   48.4460 O   0  0  0  0  0  0  0  0  0  0  0  0
   60.4200   28.3490   47.0820 N   0  0  0  0  0  0  0  0  0  0  0  0
   59.4660   28.3370   45.9760 C   0  0  0  0  0  0  0  0  0  0  0  0
   58.4650   27.2410   46.2000 C   0  0  0  0  0  0  0  0  0  0  0  0
   58.8790   25.9930   46.6910 C   0  0  0  0  0  0  0  0  0  0  0  0
   57.9400   24.9850   46.9320 C   0  0  0  0  0  0  0  0  0  0  0  0
   56.5820   25.2190   46.6960 C   0  0  0  0  0  0  0  0  0  0  0  0
   55.6550   24.2120   46.9370 O   0  0  0  0  0  0  0  0  0  0  0  0
   56.1600   26.4660   46.2220 C   0  0  0  0  0  0  0  0  0  0  0  0
   54.8110   26.7070   45.9910 O   0  0  0  0  0  0  0  0  0  0  0  0
   57.0970   27.4770   45.9790 C   0  0  0  0  0  0  0  0  0  0  0  0
   59.5750   31.8780   46.7560 C   0  0  0  0  0  0  0  0  0  0  0  0
   55.9342   29.4006   44.2796 H   0  0  0  0  0  0  0  0  0  0  0  0
   56.9708   29.9460   41.9278 H   0  0  0  0  0  0  0  0  0  0  0  0
   61.4475   34.7074   46.2981 H   0  0  0  0  0  0  0  0  0  0  0  0
   62.9776   33.4538   47.8130 H   0  0  0  0  0  0  0  0  0  0  0  0
   62.3380   31.1961   48.6539 H   0  0  0  0  0  0  0  0  0  0  0  0
   58.9466   29.3055   45.9275 H   0  0  0  0  0  0  0  0  0  0  0  0
   59.9992   28.1631   45.0297 H   0  0  0  0  0  0  0  0  0  0  0  0
   59.9454   25.8072   46.8869 H   0  0  0  0  0  0  0  0  0  0  0  0
   58.2707   24.0056   47.3082 H   0  0  0  0  0  0  0  0  0  0  0  0
   56.7619   28.4591   45.6140 H   0  0  0  0  0  0  0  0  0  0  0  0
   58.6139   31.4303   46.4629 H   0  0  0  0  0  0  0  0  0  0  0  0
  1  2  2  0
  2  3  1  0
  3  4  2  3
  4  5  1  0
  5  6  1  0
  6  7  2  0
  7  8  1  0
  2  9  1  0
  9 10  2  0
 10 11  1  0
 11 12  2  0
 12 13  1  0
 13 14  1  0
 14 15  2  0
 14 16  2  0
 14 17  1  0
 17 18  1  0
 18 19  1  0
 19 20  2  0
 20 21  1  0
 21 22  2  0
 22 23  1  0
 22 24  1  0
 24 25  1  0
 24 26  2  0
 13 27  2  0
  8  4  1  0
 27  9  1  0
 26 19  1  0
  6 28  1  0
  7 29  1  0
 10 30  1  0
 11 31  1  0
 12 32  1  0
 18 33  1  0
 18 34  1  0
 20 35  1  0
 21 36  1  0
 26 37  1  0
 27 38  1  0
M  CHG  4   5  -1  17  -1  23  -1  25  -1
M  END
>  <UniqueID>  (15) 
15

>  <SMILES>  (15) 
O=C(N=c1[n-]ccs1)c1cccc(S(=O)(=O)[N-]Cc2ccc([O-])c([O-])c2)c1

>  <Energy>  (15) 
71.48913697511466

>  <Genealogy>  (15) 
O=C(N=c1[n-]ccs1)c1cccc(S(=O)(=O)[N-]Cc2ccc([O-])c([O-])c2)c1 (protonated)
O=C(N=c1[n-]ccs1)c1cccc(S(=O)(=O)[N-]Cc2ccc([O-])c([O-])c2)c1 (3D coordinates assigned)
O=C(N=c1[n-]ccs1)c1cccc(S(=O)(=O)[N-]Cc2ccc([O-])c([O-])c2)c1 (optimized conformer: 71.48913697511466 kcal/mol)

>  <smiles>  (15) 
O=C(N=c1[nH]ccs1)c1cccc(S(=O)(=O)NCc2ccc(O)c(O)c2)c1

>  <score_type>  (15) 
oracle

>  <origin>  (15) 
adg

>  <m_score__min__energy>  (15) 
-18.48

>  <m_primary>  (15) 
energy

$$$$
15:0
     RDKit          3D

 50 53  0  0  1  0  0  0  0  0999 V2000
   56.5580   28.9640   42.3450 N   0  0  0  0  0  0  0  0  0  0  0  0
   56.9750   30.0520   43.6440 S   0  0  0  0  0  0  0  0  0  0  0  0
   55.7870   30.3570   44.4880 O   0  0  0  0  0  0  0  0  0  0  0  0
   57.4020   31.3460   42.9920 O   0  0  0  0  0  0  0  0  0  0  0  0
   58.2810   29.4060   44.5980 C   0  0  0  0  0  0  0  0  0  0  0  0
   59.0730   28.3860   44.1200 C   0  0  0  0  0  0  0  0  0  0  0  0
   60.1220   27.8550   44.8670 C   0  0  0  0  0  0  0  0  0  0  0  0
   60.3710   28.3690   46.1220 C   0  0  0  0  0  0  0  0  0  0  0  0
   59.5910   29.4000   46.6380 C   0  0  0  0  0  0  0  0  0  0  0  0
   59.8640   29.9370   47.9710 C   0  0  0  0  0  0  0  0  0  0  0  0
   58.8540   29.9970   48.9150 C   0  0  0  0  0  0  0  0  0  0  0  0
   59.0610   30.4970   50.1940 C   0  0  0  0  0  0  0  0  0  0  0  0
   60.3290   30.9480   50.5170 C   0  0  0  0  0  0  0  0  0  0  0  0
   60.5450   31.4090   51.6780 O   0  0  0  0  0  0  0  0  0  0  0  0
   61.2850   30.8760   49.5800 N   0  0  0  0  0  0  0  0  0  0  0  0
   61.1090   30.4000   48.3490 C   0  0  0  0  0  0  0  0  0  0  0  0
   58.5470   29.9090   45.8620 C   0  0  0  0  0  0  0  0  0  0  0  0
   57.7790   30.9590   46.4290 N   0  0  0  0  0  0  0  0  0  0  0  0
   58.0750   32.1950   46.1180 C   0  0  0  0  0  0  0  0  0  0  0  0
   59.0920   32.8340   46.7830 C   0  0  0  0  0  0  0  0  0  0  0  0
   59.4390   34.1650   46.4740 C   0  0  0  0  0  0  0  0  0  0  0  0
   60.4860   34.7810   47.1800 N   0  0  0  0  0  0  0  0  0  0  0  0
   61.6400   34.1750   47.7060 C   0  0  0  0  0  0  0  0  0  0  0  0
   62.7050   33.8590   46.8450 C   0  0  0  0  0  0  0  0  0  0  0  0
   63.8570   33.2690   47.2900 C   0  0  0  0  0  0  0  0  0  0  0  0
   64.0130   32.9600   48.6160 C   0  0  0  0  0  0  0  0  0  0  0  0
   63.0060   33.2480   49.4900 C   0  0  0  0  0  0  0  0  0  0  0  0
   63.1530   32.9380   50.8440 O   0  0  0  0  0  0  0  0  0  0  0  0
   61.8420   33.8480   49.0230 C   0  0  0  0  0  0  0  0  0  0  0  0
   58.7070   34.7200   45.5060 N   0  0  0  0  0  0  0  0  0  0  0  0
   57.7150   34.0810   44.8630 C   0  0  0  0  0  0  0  0  0  0  0  0
   57.3850   32.8110   45.1590 N   0  0  0  0  0  0  0  0  0  0  0  0
   55.6350   29.1480   41.9440 H   0  0  0  0  0  0  0  0  0  0  0  0
   56.6920   28.0010   42.7270 H   0  0  0  0  0  0  0  0  0  0  0  0
   58.8713   27.9784   43.1184 H   0  0  0  0  0  0  0  0  0  0  0  0
   60.7407   27.0402   44.4629 H   0  0  0  0  0  0  0  0  0  0  0  0
   61.1962   27.9592   46.7229 H   0  0  0  0  0  0  0  0  0  0  0  0
   57.8513   29.6358   48.6426 H   0  0  0  0  0  0  0  0  0  0  0  0
   58.2423   30.5335   50.9278 H   0  0  0  0  0  0  0  0  0  0  0  0
   62.2330   31.2200   49.8430 H   0  0  0  0  0  0  0  0  0  0  0  0
   61.9486   30.3757   47.6387 H   0  0  0  0  0  0  0  0  0  0  0  0
   59.6448   32.2990   47.5693 H   0  0  0  0  0  0  0  0  0  0  0  0
   60.3960   35.8270   47.3360 H   0  0  0  0  0  0  0  0  0  0  0  0
   62.6092   34.0944   45.7748 H   0  0  0  0  0  0  0  0  0  0  0  0
   64.6638   33.0411   46.5779 H   0  0  0  0  0  0  0  0  0  0  0  0
   64.9394   32.4853   48.9714 H   0  0  0  0  0  0  0  0  0  0  0  0
   62.3670   32.5400   51.3520 H   0  0  0  0  0  0  0  0  0  0  0  0
   61.0432   34.0717   49.7455 H   0  0  0  0  0  0  0  0  0  0  0  0
   57.1589   34.6097   44.0748 H   0  0  0  0  0  0  0  0  0  0  0  0
   56.6170   32.3500   44.6460 H   0  0  0  0  0  0  0  0  0  0  0  0
  1  2  1  0
  2  3  2  0
  2  4  2  0
  2  5  1  0
  5  6  2  0
  6  7  1  0
  7  8  2  0
  8  9  1  0
  9 10  1  0
 10 11  1  0
 11 12  2  0
 12 13  1  0
 13 14  2  0
 13 15  1  0
 15 16  1  0
  9 17  2  0
 17 18  1  0
 18 19  2  0
 19 20  1  0
 20 21  2  0
 21 22  1  0
 22 23  1  0
 23 24  2  0
 24 25  1  0
 25 26  2  0
 26 27  1  0
 27 28  1  0
 27 29  2  0
 21 30  1  0
 30 31  2  0
 31 32  1  0
 17  5  1  0
 32 19  1  0
 16 10  2  0
 29 23  1  0
  1 33  1  0
  1 34  1  0
  6 35  1  0
  7 36  1  0
  8 37  1  0
 11 38  1  0
 12 39  1  0
 15 40  1  0
 16 41  1  0
 20 42  1  0
 22 43  1  0
 24 44  1  0
 25 45  1  0
 26 46  1  0
 28 47  1  0
 29 48  1  0
 31 49  1  0
 32 50  1  0
M  END
>  <smiles>  (16) 
NS(=O)(=O)c1cccc(-c2ccc(=O)[nH]c2)c1N=c1cc(Nc2cccc(O)c2)nc[nH]1

>  <score_type>  (16) 
oracle

>  <origin>  (16) 
adg

>  <m_score__min__energy>  (16) 
-11.24

>  <m_primary>  (16) 
energy

$$$$
16:0
     RDKit          3D

 48 50  0  0  0  0  0  0  0  0999 V2000
   59.4427   25.9661   46.2288 H   0  0  0  0  0  0  0  0  0  0  0  0
   59.1020   27.0010   46.3800 C   0  0  0  0  0  0  0  0  0  0  0  0
   58.0050   27.4570   45.7210 N   0  0  0  0  0  0  0  0  0  0  0  0
   57.5490   28.7330   45.8710 C   0  0  0  0  0  0  0  0  0  0  0  0
   56.4900   29.1550   45.2420 N   0  0  0  0  0  0  0  0  0  0  0  0
   56.3970   30.2700   44.3420 C   0  0  0  0  0  0  0  0  0  0  0  0
   56.4630   30.0540   43.1020 O   0  0  0  0  0  0  0  0  0  0  0  0
   56.2010   31.6050   44.8250 N   0  0  0  0  0  0  0  0  0  0  0  0
   57.2590   32.5240   45.1250 C   0  0  0  0  0  0  0  0  0  0  0  0
   57.4220   32.9480   46.4500 C   0  0  0  0  0  0  0  0  0  0  0  0
   56.7432   32.5750   47.2311 H   0  0  0  0  0  0  0  0  0  0  0  0
   58.4420   33.8420   46.7850 C   0  0  0  0  0  0  0  0  0  0  0  0
   58.5549   34.1815   47.8252 H   0  0  0  0  0  0  0  0  0  0  0  0
   59.3180   34.3050   45.8020 C   0  0  0  0  0  0  0  0  0  0  0  0
   60.1132   35.0179   46.0656 H   0  0  0  0  0  0  0  0  0  0  0  0
   59.1850   33.8630   44.4830 C   0  0  0  0  0  0  0  0  0  0  0  0
   59.8836   34.2216   43.7127 H   0  0  0  0  0  0  0  0  0  0  0  0
   58.1670   32.9660   44.1370 C   0  0  0  0  0  0  0  0  0  0  0  0
   58.1220   32.3490   42.4890 Cl  0  0  0  0  0  0  0  0  0  0  0  0
   58.2260   29.6080   46.7280 C   0  0  0  0  0  0  0  0  0  0  0  0
   57.8698   30.6408   46.8564 H   0  0  0  0  0  0  0  0  0  0  0  0
   59.3610   29.1630   47.4230 C   0  0  0  0  0  0  0  0  0  0  0  0
   60.0540   30.0700   48.4100 C   0  0  0  0  0  0  0  0  0  0  0  0
   60.9693   29.5753   48.7670 H   0  0  0  0  0  0  0  0  0  0  0  0
   59.3611   30.2648   49.2419 H   0  0  0  0  0  0  0  0  0  0  0  0
   60.4310   31.4160   47.7760 C   0  0  0  0  0  0  0  0  0  0  0  0
   59.6840   32.1689   48.0679 H   0  0  0  0  0  0  0  0  0  0  0  0
   60.4543   31.2854   46.6840 H   0  0  0  0  0  0  0  0  0  0  0  0
   61.7940   31.8820   48.2220 C   0  0  0  0  0  0  0  0  0  0  0  0
   62.5100   32.8140   47.4550 C   0  0  0  0  0  0  0  0  0  0  0  0
   62.0524   33.2457   46.5527 H   0  0  0  0  0  0  0  0  0  0  0  0
   63.8000   33.1970   47.8300 C   0  0  0  0  0  0  0  0  0  0  0  0
   64.3557   33.9215   47.2166 H   0  0  0  0  0  0  0  0  0  0  0  0
   64.3920   32.6610   48.9880 C   0  0  0  0  0  0  0  0  0  0  0  0
   65.7310   33.0140   49.3800 N   0  0  0  0  0  0  0  0  0  0  0  0
   66.4880   32.9420   48.6630 H   0  0  0  0  0  0  0  0  0  0  0  0
   66.1140   33.3560   50.7200 C   0  0  0  0  0  0  0  0  0  0  0  0
   65.3470   33.1160   51.6910 O   0  0  0  0  0  0  0  0  0  0  0  0
   67.4780   33.9060   50.9840 C   0  0  0  0  0  0  0  0  0  0  0  0
   67.6428   33.9724   52.0696 H   0  0  0  0  0  0  0  0  0  0  0  0
   68.2336   33.2422   50.5384 H   0  0  0  0  0  0  0  0  0  0  0  0
   67.5618   34.9082   50.5384 H   0  0  0  0  0  0  0  0  0  0  0  0
   63.6840   31.7090   49.7380 C   0  0  0  0  0  0  0  0  0  0  0  0
   64.1478   31.2618   50.6296 H   0  0  0  0  0  0  0  0  0  0  0  0
   62.3950   31.3250   49.3610 C   0  0  0  0  0  0  0  0  0  0  0  0
   61.8482   30.5820   49.9602 H   0  0  0  0  0  0  0  0  0  0  0  0
   59.7970   27.8430   47.2480 C   0  0  0  0  0  0  0  0  0  0  0  0
   60.6799   27.4739   47.7905 H   0  0  0  0  0  0  0  0  0  0  0  0
  1  2  1  0
  2  3  1  0
  3  4  1  0
  4  5  2  0
  5  6  1  0
  6  7  2  0
  6  8  1  0
  8  9  1  0
  9 10  2  0
 10 11  1  0
 10 12  1  0
 12 13  1  0
 12 14  2  0
 14 15  1  0
 14 16  1  0
 16 17  1  0
 16 18  2  0
 18 19  1  0
  4 20  1  0
 20 21  1  0
 20 22  2  0
 22 23  1  0
 23 24  1  0
 23 25  1  0
 23 26  1  0
 26 27  1  0
 26 28  1  0
 26 29  1  0
 29 30  2  0
 30 31  1  0
 30 32  1  0
 32 33  1  0
 32 34  2  0
 34 35  1  0
 35 36  1  0
 35 37  1  0
 37 38  2  0
 37 39  1  0
 39 40  1  0
 39 41  1  0
 39 42  1  0
 34 43  1  0
 43 44  1  0
 43 45  2  0
 45 46  1  0
 22 47  1  0
 47 48  1  0
 47  2  2  0
 18  9  1  0
 45 29  1  0
M  CHG  2   3  -1   8  -1
M  END
>  <UniqueID>  (17) 
16

>  <SMILES>  (17) 
CC(=O)Nc1ccc(CCc2cc[n-]/c(=N\C(=O)[N-]c3ccccc3Cl)c2)cc1

>  <Energy>  (17) 
57.899406231583384

>  <Genealogy>  (17) 
CC(=O)Nc1ccc(CCc2cc[n-]c(=NC(=O)[N-]c3ccccc3Cl)c2)cc1 (protonated)
CC(=O)Nc1ccc(CCc2cc[n-]/c(=N\C(=O)[N-]c3ccccc3Cl)c2)cc1 (cis-trans isomerization)
CC(=O)Nc1ccc(CCc2cc[n-]/c(=N\C(=O)[N-]c3ccccc3Cl)c2)cc1 (3D coordinates assigned)
CC(=O)Nc1ccc(CCc2cc[n-]/c(=N\C(=O)[N-]c3ccccc3Cl)c2)cc1 (optimized conformer: 57.899406231583384 kcal/mol)

>  <smiles>  (17) 
CC(=O)Nc1ccc(CCc2cc[nH]c(=NC(=O)Nc3ccccc3Cl)c2)cc1

>  <score_type>  (17) 
oracle

>  <origin>  (17) 
adg

>  <m_score__min__energy>  (17) 
-12.109999999999999

>  <m_primary>  (17) 
energy

$$$$
17:0
     RDKit          3D

 52 55  0  0  0  0  0  0  0  0999 V2000
   57.6680   32.6970   52.5730 C   0  0  0  0  0  0  0  0  0  0  0  0
   57.9100   31.2570   51.5590 S   0  0  0  0  0  0  0  0  0  0  0  0
   59.0840   30.4810   52.0860 O   0  0  0  0  0  0  0  0  0  0  0  0
   56.6710   30.4090   51.6020 O   0  0  0  0  0  0  0  0  0  0  0  0
   58.2220   31.7610   49.9310 N   0  0  0  0  0  0  0  0  0  0  0  0
   59.2570   31.2380   49.0830 C   0  0  0  0  0  0  0  0  0  0  0  0
   60.0730   32.0860   48.3110 C   0  0  0  0  0  0  0  0  0  0  0  0
   61.0610   31.5520   47.4850 C   0  0  0  0  0  0  0  0  0  0  0  0
   61.2550   30.1730   47.4220 C   0  0  0  0  0  0  0  0  0  0  0  0
   60.4700   29.3100   48.2040 C   0  0  0  0  0  0  0  0  0  0  0  0
   60.6420   27.8860   48.1440 N   0  0  0  0  0  0  0  0  0  0  0  0
   60.2460   27.0330   47.0610 C   0  0  0  0  0  0  0  0  0  0  0  0
   61.1430   26.5190   46.3410 O   0  0  0  0  0  0  0  0  0  0  0  0
   58.8230   26.7810   46.7380 C   0  0  0  0  0  0  0  0  0  0  0  0
   58.2310   25.5380   47.0210 C   0  0  0  0  0  0  0  0  0  0  0  0
   56.9000   25.2960   46.6750 C   0  0  0  0  0  0  0  0  0  0  0  0
   56.1400   26.2950   46.0640 C   0  0  0  0  0  0  0  0  0  0  0  0
   56.6960   27.5570   45.8210 C   0  0  0  0  0  0  0  0  0  0  0  0
   55.8920   28.5510   45.1650 N   0  0  0  0  0  0  0  0  0  0  0  0
   56.3280   29.5490   44.4520 C   0  0  0  0  0  0  0  0  0  0  0  0
   56.9010   30.6090   45.0780 N   0  0  0  0  0  0  0  0  0  0  0  0
   57.4080   31.6650   44.3830 C   0  0  0  0  0  0  0  0  0  0  0  0
   58.0120   32.8020   45.1230 C   0  0  0  0  0  0  0  0  0  0  0  0
   57.6280   33.1030   46.4450 C   0  0  0  0  0  0  0  0  0  0  0  0
   58.2080   34.1810   47.1220 C   0  0  0  0  0  0  0  0  0  0  0  0
   59.1720   34.9700   46.4910 C   0  0  0  0  0  0  0  0  0  0  0  0
   59.5530   34.6880   45.1780 C   0  0  0  0  0  0  0  0  0  0  0  0
   58.9740   33.6140   44.4940 C   0  0  0  0  0  0  0  0  0  0  0  0
   57.3320   31.6530   42.9820 C   0  0  0  0  0  0  0  0  0  0  0  0
   56.7460   30.5560   42.3520 C   0  0  0  0  0  0  0  0  0  0  0  0
   56.2610   29.5270   43.0930 N   0  0  0  0  0  0  0  0  0  0  0  0
   58.0450   27.7900   46.1440 C   0  0  0  0  0  0  0  0  0  0  0  0
   59.4600   29.8440   49.0230 C   0  0  0  0  0  0  0  0  0  0  0  0
   58.6710   28.9710   49.7750 O   0  0  0  0  0  0  0  0  0  0  0  0
   57.7161   32.4106   53.6340 H   0  0  0  0  0  0  0  0  0  0  0  0
   58.4548   33.4345   52.3562 H   0  0  0  0  0  0  0  0  0  0  0  0
   56.6833   33.1368   52.3562 H   0  0  0  0  0  0  0  0  0  0  0  0
   59.9305   33.1756   48.3596 H   0  0  0  0  0  0  0  0  0  0  0  0
   61.6902   32.2217   46.8804 H   0  0  0  0  0  0  0  0  0  0  0  0
   62.0267   29.7587   46.7565 H   0  0  0  0  0  0  0  0  0  0  0  0
   58.8191   24.7520   47.5175 H   0  0  0  0  0  0  0  0  0  0  0  0
   56.4488   24.3149   46.8846 H   0  0  0  0  0  0  0  0  0  0  0  0
   55.0995   26.0898   45.7721 H   0  0  0  0  0  0  0  0  0  0  0  0
   56.8678   32.4868   46.9474 H   0  0  0  0  0  0  0  0  0  0  0  0
   57.9038   34.4078   48.1545 H   0  0  0  0  0  0  0  0  0  0  0  0
   59.6308   35.8131   47.0282 H   0  0  0  0  0  0  0  0  0  0  0  0
   60.3101   35.3117   44.6802 H   0  0  0  0  0  0  0  0  0  0  0  0
   59.2728   33.4025   43.4567 H   0  0  0  0  0  0  0  0  0  0  0  0
   57.7272   32.4931   42.3920 H   0  0  0  0  0  0  0  0  0  0  0  0
   56.6766   30.5242   41.2547 H   0  0  0  0  0  0  0  0  0  0  0  0
   58.4952   28.7705   45.9299 H   0  0  0  0  0  0  0  0  0  0  0  0
   58.1170   29.2800   50.5650 H   0  0  0  0  0  0  0  0  0  0  0  0
  1  2  1  0
  2  3  2  0
  2  4  2  0
  2  5  1  0
  5  6  1  0
  6  7  2  0
  7  8  1  0
  8  9  2  0
  9 10  1  0
 10 11  1  0
 11 12  1  0
 12 13  2  0
 12 14  1  0
 14 15  2  0
 15 16  1  0
 16 17  2  0
 17 18  1  0
 18 19  1  0
 19 20  2  3
 20 21  1  0
 21 22  2  0
 22 23  1  0
 23 24  2  0
 24 25  1  0
 25 26  2  0
 26 27  1  0
 27 28  2  0
 22 29  1  0
 29 30  2  0
 30 31  1  0
 18 32  2  0
 10 33  2  0
 33 34  1  0
 33  6  1  0
 32 14  1  0
 31 20  1  0
 28 23  1  0
  1 35  1  0
  1 36  1  0
  1 37  1  0
  7 38  1  0
  8 39  1  0
  9 40  1  0
 15 41  1  0
 16 42  1  0
 17 43  1  0
 24 44  1  0
 25 45  1  0
 26 46  1  0
 27 47  1  0
 28 48  1  0
 29 49  1  0
 30 50  1  0
 32 51  1  0
 34 52  1  0
M  CHG  3   5  -1  11  -1  31  -1
M  END
>  <UniqueID>  (18) 
17

>  <SMILES>  (18) 
CS(=O)(=O)[N-]c1cccc([N-]C(=O)c2cccc(N=c3nc(-c4ccccc4)cc[n-]3)c2)c1O

>  <Energy>  (18) 
74.8421190620701

>  <Genealogy>  (18) 
CS(=O)(=O)[N-]c1cccc([N-]C(=O)c2cccc(N=c3nc(-c4ccccc4)cc[n-]3)c2)c1O (protonated)
CS(=O)(=O)[N-]c1cccc([N-]C(=O)c2cccc(N=c3nc(-c4ccccc4)cc[n-]3)c2)c1O (3D coordinates assigned)
CS(=O)(=O)[N-]c1cccc([N-]C(=O)c2cccc(N=c3nc(-c4ccccc4)cc[n-]3)c2)c1O (optimized conformer: 74.8421190620701 kcal/mol)

>  <smiles>  (18) 
CS(=O)(=O)Nc1cccc(NC(=O)c2cccc(N=c3nc(-c4ccccc4)cc[nH]3)c2)c1O

>  <score_type>  (18) 
oracle

>  <origin>  (18) 
adg

>  <m_score__min__energy>  (18) 
-15.66

>  <m_primary>  (18) 
energy

$$$$
18:0
     RDKit          3D

 38 40  0  0  0  0  0  0  0  0999 V2000
   61.5307   33.7962   48.1700 H   0  0  0  0  0  0  0  0  0  0  0  0
   61.1970   32.7480   48.1690 C   0  0  0  0  0  0  0  0  0  0  0  0
   61.6610   31.8680   47.1890 C   0  0  0  0  0  0  0  0  0  0  0  0
   62.3576   32.2250   46.4162 H   0  0  0  0  0  0  0  0  0  0  0  0
   61.2420   30.5340   47.1880 C   0  0  0  0  0  0  0  0  0  0  0  0
   61.6072   29.8454   46.4119 H   0  0  0  0  0  0  0  0  0  0  0  0
   60.3560   30.0700   48.1750 C   0  0  0  0  0  0  0  0  0  0  0  0
   59.8710   28.6450   48.1560 C   0  0  0  0  0  0  0  0  0  0  0  0
   59.1562   28.4936   48.9783 H   0  0  0  0  0  0  0  0  0  0  0  0
   60.7321   27.9714   48.2777 H   0  0  0  0  0  0  0  0  0  0  0  0
   59.2080   28.3500   46.8750 N   0  0  0  0  0  0  0  0  0  0  0  0
   58.1640   29.1410   46.4750 C   0  0  0  0  0  0  0  0  0  0  0  0
   57.8259   29.9602   47.1266 H   0  0  0  0  0  0  0  0  0  0  0  0
   57.5170   28.9240   45.2460 C   0  0  0  0  0  0  0  0  0  0  0  0
   56.3860   29.7810   44.8170 C   0  0  0  0  0  0  0  0  0  0  0  0
   55.2080   29.3330   44.8700 O   0  0  0  0  0  0  0  0  0  0  0  0
   56.6470   31.0810   44.2570 N   0  0  0  0  0  0  0  0  0  0  0  0
   57.3870   32.0490   44.7270 C   0  0  0  0  0  0  0  0  0  0  0  0
   58.0340   32.9900   43.8970 C   0  0  0  0  0  0  0  0  0  0  0  0
   57.9327   32.9253   42.8036 H   0  0  0  0  0  0  0  0  0  0  0  0
   58.8030   34.0030   44.4720 C   0  0  0  0  0  0  0  0  0  0  0  0
   59.3168   34.7344   43.8309 H   0  0  0  0  0  0  0  0  0  0  0  0
   58.9200   34.0880   45.8580 C   0  0  0  0  0  0  0  0  0  0  0  0
   59.8820   35.3580   46.5910 Cl  0  0  0  0  0  0  0  0  0  0  0  0
   58.2540   33.1570   46.6550 C   0  0  0  0  0  0  0  0  0  0  0  0
   58.3336   33.2167   47.7505 H   0  0  0  0  0  0  0  0  0  0  0  0
   57.5060   32.1750   46.0820 N   0  0  0  0  0  0  0  0  0  0  0  0
   57.0180   31.4940   46.7080 H   0  0  0  0  0  0  0  0  0  0  0  0
   57.9670   27.8740   44.4330 C   0  0  0  0  0  0  0  0  0  0  0  0
   57.4755   27.6773   43.4688 H   0  0  0  0  0  0  0  0  0  0  0  0
   59.0340   27.0800   44.8430 C   0  0  0  0  0  0  0  0  0  0  0  0
   59.3888   26.2586   44.2032 H   0  0  0  0  0  0  0  0  0  0  0  0
   59.6520   27.3300   46.0690 C   0  0  0  0  0  0  0  0  0  0  0  0
   60.6230   26.6070   46.4220 O   0  0  0  0  0  0  0  0  0  0  0  0
   59.8860   30.9640   49.1520 C   0  0  0  0  0  0  0  0  0  0  0  0
   59.1831   30.6138   49.9222 H   0  0  0  0  0  0  0  0  0  0  0  0
   60.3080   32.2960   49.1490 C   0  0  0  0  0  0  0  0  0  0  0  0
   59.9402   32.9902   49.9189 H   0  0  0  0  0  0  0  0  0  0  0  0
  1  2  1  0
  2  3  2  0
  3  4  1  0
  3  5  1  0
  5  6  1  0
  5  7  2  0
  7  8  1  0
  8  9  1  0
  8 10  1  0
  8 11  1  0
 11 12  1  0
 12 13  1  0
 12 14  2  0
 14 15  1  0
 15 16  2  0
 15 17  1  0
 17 18  2  0
 18 19  1  0
 19 20  1  0
 19 21  2  0
 21 22  1  0
 21 23  1  0
 23 24  1  0
 23 25  2  0
 25 26  1  0
 25 27  1  0
 27 28  1  0
 14 29  1  0
 29 30  1  0
 29 31  2  0
 31 32  1  0
 31 33  1  0
 33 34  2  0
  7 35  1  0
 35 36  1  0
 35 37  2  0
 37 38  1  0
 37  2  1  0
 33 11  1  0
 27 18  1  0
M  END
>  <UniqueID>  (19) 
18

>  <SMILES>  (19) 
O=C(/N=c1\ccc(Cl)c[nH]1)c1ccc(=O)n(Cc2ccccc2)c1

>  <Energy>  (19) 
51.070173150560684

>  <Genealogy>  (19) 
O=C(/N=c1\ccc(Cl)c[nH]1)c1ccc(=O)n(Cc2ccccc2)c1 (cis-trans isomerization)
O=C(/N=c1\ccc(Cl)c[nH]1)c1ccc(=O)n(Cc2ccccc2)c1 (3D coordinates assigned)
O=C(/N=c1\ccc(Cl)c[nH]1)c1ccc(=O)n(Cc2ccccc2)c1 (optimized conformer: 51.070173150560684 kcal/mol)

>  <smiles>  (19) 
O=C(N=c1ccc(Cl)c[nH]1)c1ccc(=O)n(Cc2ccccc2)c1

>  <score_type>  (19) 
oracle

>  <origin>  (19) 
adg

>  <m_score__min__energy>  (19) 
-8.4399999999999995

>  <m_primary>  (19) 
energy

$$$$
19:0
     RDKit          3D

 61 63  0  0  0  0  0  0  0  0999 V2000
   57.2442   29.2648   42.6702 H   0  0  0  0  0  0  0  0  0  0  0  0
   57.2110   29.8420   43.6060 C   0  0  0  0  0  0  0  0  0  0  0  0
   56.1660   29.4890   44.5860 C   0  0  0  0  0  0  0  0  0  0  0  0
   55.1800   30.2510   44.7700 O   0  0  0  0  0  0  0  0  0  0  0  0
   56.2310   28.2150   45.2400 N   0  0  0  0  0  0  0  0  0  0  0  0
   57.3390   27.6940   45.9910 C   0  0  0  0  0  0  0  0  0  0  0  0
   57.8900   26.4670   45.6050 C   0  0  0  0  0  0  0  0  0  0  0  0
   57.4489   25.9106   44.7649 H   0  0  0  0  0  0  0  0  0  0  0  0
   58.9950   25.9440   46.2780 C   0  0  0  0  0  0  0  0  0  0  0  0
   59.4206   24.9787   45.9665 H   0  0  0  0  0  0  0  0  0  0  0  0
   59.5620   26.6430   47.3460 C   0  0  0  0  0  0  0  0  0  0  0  0
   60.4347   26.2273   47.8710 H   0  0  0  0  0  0  0  0  0  0  0  0
   59.0220   27.8760   47.7530 C   0  0  0  0  0  0  0  0  0  0  0  0
   59.6190   28.6460   48.8110 N   0  0  0  0  0  0  0  0  0  0  0  0
   59.4440   28.3200   49.7850 H   0  0  0  0  0  0  0  0  0  0  0  0
   60.4590   29.7960   48.5940 C   0  0  0  0  0  0  0  0  0  0  0  0
   60.8170   30.1020   47.4230 O   0  0  0  0  0  0  0  0  0  0  0  0
   60.9240   30.6370   49.7260 C   0  0  0  0  0  0  0  0  0  0  0  0
   59.9830   31.3230   50.5130 C   0  0  0  0  0  0  0  0  0  0  0  0
   58.9116   31.2411   50.2774 H   0  0  0  0  0  0  0  0  0  0  0  0
   60.3970   32.1080   51.5920 C   0  0  0  0  0  0  0  0  0  0  0  0
   59.6508   32.6294   52.2095 H   0  0  0  0  0  0  0  0  0  0  0  0
   61.7550   32.2320   51.8880 C   0  0  0  0  0  0  0  0  0  0  0  0
   62.0744   32.8342   52.7513 H   0  0  0  0  0  0  0  0  0  0  0  0
   62.7120   31.5940   51.0920 C   0  0  0  0  0  0  0  0  0  0  0  0
   64.1000   31.7420   51.4240 N   0  0  0  0  0  0  0  0  0  0  0  0
   65.1840   31.8460   50.4930 C   0  0  0  0  0  0  0  0  0  0  0  0
   66.1290   31.0170   50.5710 O   0  0  0  0  0  0  0  0  0  0  0  0
   65.2370   32.9440   49.5070 C   0  0  0  0  0  0  0  0  0  0  0  0
   66.2199   33.3229   49.1901 H   0  0  0  0  0  0  0  0  0  0  0  0
   64.1380   33.4950   48.9850 C   0  0  0  0  0  0  0  0  0  0  0  0
   63.6502   34.3311   49.5075 H   0  0  0  0  0  0  0  0  0  0  0  0
   63.5590   32.9900   47.6960 C   0  0  0  0  0  0  0  0  0  0  0  0
   63.7960   31.9213   47.5877 H   0  0  0  0  0  0  0  0  0  0  0  0
   63.9939   33.5632   46.8639 H   0  0  0  0  0  0  0  0  0  0  0  0
   62.0910   33.1660   47.6790 N   0  0  0  0  0  0  0  0  0  0  0  0
   61.6460   33.7440   46.3980 C   0  0  0  0  0  0  0  0  0  0  0  0
   60.9855   34.6019   46.5926 H   0  0  0  0  0  0  0  0  0  0  0  0
   62.5219   34.0786   45.8228 H   0  0  0  0  0  0  0  0  0  0  0  0
   61.0985   32.9828   45.8228 H   0  0  0  0  0  0  0  0  0  0  0  0
   61.6780   34.0390   48.7880 C   0  0  0  0  0  0  0  0  0  0  0  0
   61.9095   33.5497   49.7456 H   0  0  0  0  0  0  0  0  0  0  0  0
   62.2197   34.9942   48.7240 H   0  0  0  0  0  0  0  0  0  0  0  0
   60.5959   34.2261   48.7240 H   0  0  0  0  0  0  0  0  0  0  0  0
   62.2920   30.7780   50.0240 C   0  0  0  0  0  0  0  0  0  0  0  0
   63.0398   30.2462   49.4174 H   0  0  0  0  0  0  0  0  0  0  0  0
   57.9260   28.4070   47.0540 C   0  0  0  0  0  0  0  0  0  0  0  0
   57.5220   29.3895   47.3396 H   0  0  0  0  0  0  0  0  0  0  0  0
   58.1240   30.8120   43.7670 C   0  0  0  0  0  0  0  0  0  0  0  0
   58.9560   30.8509   43.0485 H   0  0  0  0  0  0  0  0  0  0  0  0
   58.0970   31.8320   44.8360 C   0  0  0  0  0  0  0  0  0  0  0  0
   58.5900   31.5110   46.1110 C   0  0  0  0  0  0  0  0  0  0  0  0
   59.0188   30.5152   46.2967 H   0  0  0  0  0  0  0  0  0  0  0  0
   58.5390   32.4500   47.1460 C   0  0  0  0  0  0  0  0  0  0  0  0
   58.9515   32.2019   48.1351 H   0  0  0  0  0  0  0  0  0  0  0  0
   57.9640   33.7030   46.9230 C   0  0  0  0  0  0  0  0  0  0  0  0
   57.9247   34.4422   47.7367 H   0  0  0  0  0  0  0  0  0  0  0  0
   57.4380   34.0190   45.6660 C   0  0  0  0  0  0  0  0  0  0  0  0
   56.9748   35.0021   45.4960 H   0  0  0  0  0  0  0  0  0  0  0  0
   57.5000   33.0880   44.6260 C   0  0  0  0  0  0  0  0  0  0  0  0
   57.0807   33.3381   43.6403 H   0  0  0  0  0  0  0  0  0  0  0  0
  1  2  1  0
  2  3  1  0
  3  4  2  0
  3  5  1  0
  5  6  1  0
  6  7  2  0
  7  8  1  0
  7  9  1  0
  9 10  1  0
  9 11  2  0
 11 12  1  0
 11 13  1  0
 13 14  1  0
 14 15  1  0
 14 16  1  0
 16 17  2  0
 16 18  1  0
 18 19  2  0
 19 20  1  0
 19 21  1  0
 21 22  1  0
 21 23  2  0
 23 24  1  0
 23 25  1  0
 25 26  1  0
 26 27  1  0
 27 28  2  0
 27 29  1  0
 29 30  1  0
 29 31  2  0
 31 32  1  0
 31 33  1  0
 33 34  1  0
 33 35  1  0
 33 36  1  0
 36 37  1  0
 37 38  1  0
 37 39  1  0
 37 40  1  0
 36 41  1  0
 41 42  1  0
 41 43  1  0
 41 44  1  0
 25 45  2  0
 45 46  1  0
 13 47  2  0
 47 48  1  0
  2 49  2  3
 49 50  1  0
 49 51  1  0
 51 52  2  0
 52 53  1  0
 52 54  1  0
 54 55  1  0
 54 56  2  0
 56 57  1  0
 56 58  1  0
 58 59  1  0
 58 60  2  0
 60 61  1  0
 47  6  1  0
 60 51  1  0
 45 18  1  0
M  CHG  2   5  -1  26  -1
M  END
>  <UniqueID>  (20) 
19

>  <SMILES>  (20) 
CN(C)C/C=C/C(=O)[N-]c1cccc(C(=O)Nc2cccc([N-]C(=O)C=Cc3ccccc3)c2)c1

>  <Energy>  (20) 
78.32589047971646

>  <Genealogy>  (20) 
CN(C)CC=CC(=O)[N-]c1cccc(C(=O)Nc2cccc([N-]C(=O)C=Cc3ccccc3)c2)c1 (protonated)
CN(C)C/C=C/C(=O)[N-]c1cccc(C(=O)Nc2cccc([N-]C(=O)C=Cc3ccccc3)c2)c1 (cis-trans isomerization)
CN(C)C/C=C/C(=O)[N-]c1cccc(C(=O)Nc2cccc([N-]C(=O)C=Cc3ccccc3)c2)c1 (3D coordinates assigned)
CN(C)C/C=C/C(=O)[N-]c1cccc(C(=O)Nc2cccc([N-]C(=O)C=Cc3ccccc3)c2)c1 (optimized conformer: 78.32589047971646 kcal/mol)

>  <smiles>  (20) 
CN(C)CC=CC(=O)Nc1cccc(C(=O)Nc2cccc(NC(=O)C=Cc3ccccc3)c2)c1

>  <score_type>  (20) 
oracle

>  <origin>  (20) 
adg

>  <m_score__min__energy>  (20) 
-11.43

>  <m_primary>  (20) 
energy

$$$$
20:0
     RDKit          3D

 45 47  0  0  0  0  0  0  0  0999 V2000
   57.0100   21.6300   43.5480 C   0  0  0  0  0  0  0  0  0  0  0  0
   56.0720   22.5030   44.1680 O   0  0  0  0  0  0  0  0  0  0  0  0
   56.3500   23.8200   44.5640 C   0  0  0  0  0  0  0  0  0  0  0  0
   57.6060   24.3510   44.2610 C   0  0  0  0  0  0  0  0  0  0  0  0
   57.9320   25.6600   44.6260 C   0  0  0  0  0  0  0  0  0  0  0  0
   57.0050   26.4680   45.3120 C   0  0  0  0  0  0  0  0  0  0  0  0
   57.3870   27.8540   45.6840 C   0  0  0  0  0  0  0  0  0  0  0  0
   58.4570   28.0510   46.3210 O   0  0  0  0  0  0  0  0  0  0  0  0
   56.5660   28.9670   45.2940 N   0  0  0  0  0  0  0  0  0  0  0  0
   56.9940   30.1520   44.6040 C   0  0  0  0  0  0  0  0  0  0  0  0
   57.0560   30.2240   43.2010 C   0  0  0  0  0  0  0  0  0  0  0  0
   57.4410   31.4130   42.5760 C   0  0  0  0  0  0  0  0  0  0  0  0
   57.7910   32.5270   43.3400 C   0  0  0  0  0  0  0  0  0  0  0  0
   57.8010   32.4500   44.7440 C   0  0  0  0  0  0  0  0  0  0  0  0
   58.1140   33.5770   45.5760 N   0  0  0  0  0  0  0  0  0  0  0  0
   59.3240   33.8400   46.3010 C   0  0  0  0  0  0  0  0  0  0  0  0
   59.8180   34.9980   46.2430 O   0  0  0  0  0  0  0  0  0  0  0  0
   59.9600   32.8360   47.1850 C   0  0  0  0  0  0  0  0  0  0  0  0
   59.1460   31.9550   47.9110 C   0  0  0  0  0  0  0  0  0  0  0  0
   59.7110   31.0130   48.7700 C   0  0  0  0  0  0  0  0  0  0  0  0
   61.0970   30.9300   48.9040 C   0  0  0  0  0  0  0  0  0  0  0  0
   61.9380   31.7880   48.1760 C   0  0  0  0  0  0  0  0  0  0  0  0
   63.4320   31.6650   48.3310 C   0  0  0  0  0  0  0  0  0  0  0  0
   61.3660   32.7540   47.3140 C   0  0  0  0  0  0  0  0  0  0  0  0
   62.4140   33.8120   46.3560 Cl  0  0  0  0  0  0  0  0  0  0  0  0
   57.3920   31.2590   45.3630 C   0  0  0  0  0  0  0  0  0  0  0  0
   55.7360   25.9320   45.6200 C   0  0  0  0  0  0  0  0  0  0  0  0
   54.7720   26.6930   46.2710 O   0  0  0  0  0  0  0  0  0  0  0  0
   55.4160   24.6190   45.2490 C   0  0  0  0  0  0  0  0  0  0  0  0
   57.5823   21.0974   44.3219 H   0  0  0  0  0  0  0  0  0  0  0  0
   56.4744   20.9015   42.9215 H   0  0  0  0  0  0  0  0  0  0  0  0
   57.6982   22.2165   42.9215 H   0  0  0  0  0  0  0  0  0  0  0  0
   58.3452   23.7331   43.7302 H   0  0  0  0  0  0  0  0  0  0  0  0
   58.9239   26.0637   44.3746 H   0  0  0  0  0  0  0  0  0  0  0  0
   56.8009   29.3426   42.5943 H   0  0  0  0  0  0  0  0  0  0  0  0
   57.4683   31.4710   41.4779 H   0  0  0  0  0  0  0  0  0  0  0  0
   58.0604   33.4699   42.8416 H   0  0  0  0  0  0  0  0  0  0  0  0
   58.0527   32.0073   47.8021 H   0  0  0  0  0  0  0  0  0  0  0  0
   59.0625   30.3340   49.3431 H   0  0  0  0  0  0  0  0  0  0  0  0
   61.5353   30.1862   49.5857 H   0  0  0  0  0  0  0  0  0  0  0  0
   63.6892   31.6438   49.4003 H   0  0  0  0  0  0  0  0  0  0  0  0
   63.7750   30.7356   47.8529 H   0  0  0  0  0  0  0  0  0  0  0  0
   63.9223   32.5258   47.8529 H   0  0  0  0  0  0  0  0  0  0  0  0
   57.3840   31.1942   46.4611 H   0  0  0  0  0  0  0  0  0  0  0  0
   54.4254   24.2092   45.4956 H   0  0  0  0  0  0  0  0  0  0  0  0
  1  2  1  0
  2  3  1  0
  3  4  2  0
  4  5  1  0
  5  6  2  0
  6  7  1  0
  7  8  2  0
  7  9  1  0
  9 10  1  0
 10 11  2  0
 11 12  1  0
 12 13  2  0
 13 14  1  0
 14 15  1  0
 15 16  1  0
 16 17  2  0
 16 18  1  0
 18 19  2  0
 19 20  1  0
 20 21  2  0
 21 22  1  0
 22 23  1  0
 22 24  2  0
 24 25  1  0
 14 26  2  0
  6 27  1  0
 27 28  1  0
 27 29  2  0
 29  3  1  0
 26 10  1  0
 24 18  1  0
  1 30  1  0
  1 31  1  0
  1 32  1  0
  4 33  1  0
  5 34  1  0
 11 35  1  0
 12 36  1  0
 13 37  1  0
 19 38  1  0
 20 39  1  0
 21 40  1  0
 23 41  1  0
 23 42  1  0
 23 43  1  0
 26 44  1  0
 29 45  1  0
M  CHG  3   9  -1  15  -1  28  -1
M  END
>  <UniqueID>  (21) 
20

>  <SMILES>  (21) 
COc1ccc(C(=O)[N-]c2cccc([N-]C(=O)c3cccc(C)c3Cl)c2)c([O-])c1

>  <Energy>  (21) 
64.6990476711194

>  <Genealogy>  (21) 
COc1ccc(C(=O)[N-]c2cccc([N-]C(=O)c3cccc(C)c3Cl)c2)c([O-])c1 (protonated)
COc1ccc(C(=O)[N-]c2cccc([N-]C(=O)c3cccc(C)c3Cl)c2)c([O-])c1 (3D coordinates assigned)
COc1ccc(C(=O)[N-]c2cccc([N-]C(=O)c3cccc(C)c3Cl)c2)c([O-])c1 (optimized conformer: 64.6990476711194 kcal/mol)

>  <smiles>  (21) 
COc1ccc(C(=O)Nc2cccc(NC(=O)c3cccc(C)c3Cl)c2)c(O)c1

>  <score_type>  (21) 
oracle

>  <origin>  (21) 
adg

>  <m_score__min__energy>  (21) 
-15.630000000000001

>  <m_primary>  (21) 
energy

$$$$
21:0
     RDKit          3D

 25 25  0  0  0  0  0  0  0  0999 V2000
   57.4070   29.3930   51.8880 N   0  0  0  0  0  0  0  0  0  0  0  0
   57.4570   30.5370   52.7930 C   0  0  0  0  0  0  0  0  0  0  0  0
   56.6920   30.2280   54.0770 C   0  0  0  0  0  0  0  0  0  0  0  0
   56.1920   28.8590   54.0300 N   0  0  0  0  0  0  0  0  0  0  0  0
   54.9360   28.4660   53.4640 C   0  0  0  0  0  0  0  0  0  0  0  0
   54.6180   27.2470   53.4860 O   0  0  0  0  0  0  0  0  0  0  0  0
   53.9880   29.4440   52.8940 C   0  0  0  0  0  0  0  0  0  0  0  0
   54.3520   30.1950   51.7670 C   0  0  0  0  0  0  0  0  0  0  0  0
   53.4680   31.1340   51.2270 C   0  0  0  0  0  0  0  0  0  0  0  0
   52.2100   31.3490   51.8150 C   0  0  0  0  0  0  0  0  0  0  0  0
   51.2710   32.3420   51.2470 C   0  0  0  0  0  0  0  0  0  0  0  0
   51.0200   32.3530   50.0120 O   0  0  0  0  0  0  0  0  0  0  0  0
   50.6510   33.2750   52.0690 O   0  0  0  0  0  0  0  0  0  0  0  0
   51.8570   30.6120   52.9580 C   0  0  0  0  0  0  0  0  0  0  0  0
   52.7420   29.6720   53.4970 C   0  0  0  0  0  0  0  0  0  0  0  0
   57.7000   28.5420   52.4220 H   0  0  0  0  0  0  0  0  0  0  0  0
   56.4070   29.2430   51.6200 H   0  0  0  0  0  0  0  0  0  0  0  0
   58.5057   30.7595   53.0396 H   0  0  0  0  0  0  0  0  0  0  0  0
   56.9945   31.4048   52.3000 H   0  0  0  0  0  0  0  0  0  0  0  0
   57.3639   30.3431   54.9403 H   0  0  0  0  0  0  0  0  0  0  0  0
   55.8453   30.9234   54.1746 H   0  0  0  0  0  0  0  0  0  0  0  0
   55.3389   30.0444   51.3051 H   0  0  0  0  0  0  0  0  0  0  0  0
   53.7594   31.7086   50.3354 H   0  0  0  0  0  0  0  0  0  0  0  0
   50.8780   30.7752   53.4323 H   0  0  0  0  0  0  0  0  0  0  0  0
   52.4593   29.1086   54.3985 H   0  0  0  0  0  0  0  0  0  0  0  0
  1  2  1  0
  2  3  1  0
  3  4  1  0
  4  5  1  0
  5  6  2  0
  5  7  1  0
  7  8  2  0
  8  9  1  0
  9 10  2  0
 10 11  1  0
 11 12  2  0
 11 13  1  0
 10 14  1  0
 14 15  2  0
 15  7  1  0
  1 16  1  0
  1 17  1  0
  2 18  1  0
  2 19  1  0
  3 20  1  0
  3 21  1  0
  8 22  1  0
  9 23  1  0
 14 24  1  0
 15 25  1  0
M  CHG  2   4  -1  13  -1
M  END
>  <UniqueID>  (22) 
21

>  <SMILES>  (22) 
NCC[N-]C(=O)c1ccc(C(=O)[O-])cc1

>  <Energy>  (22) 
23.905263755692896

>  <Genealogy>  (22) 
NCC[N-]C(=O)c1ccc(C(=O)[O-])cc1 (protonated)
NCC[N-]C(=O)c1ccc(C(=O)[O-])cc1 (3D coordinates assigned)
NCC[N-]C(=O)c1ccc(C(=O)[O-])cc1 (optimized conformer: 23.905263755692896 kcal/mol)

>  <smiles>  (22) 
NCCNC(=O)c1ccc(C(=O)O)cc1

>  <score_type>  (22) 
oracle

>  <origin>  (22) 
adg

>  <m_score__min__energy>  (22) 
-9.1699999999999999

>  <m_primary>  (22) 
energy

$$$$
22:0
     RDKit          3D

 56 59  0  0  0  0  0  0  0  0999 V2000
   60.3440   28.6660   44.7850 C   0  0  0  0  0  0  0  0  0  0  0  0
   58.9080   28.3230   45.1640 C   0  0  0  0  0  0  0  0  0  0  0  0
   58.0160   28.5700   44.0060 N   0  0  0  0  0  0  0  0  0  0  0  0
   58.0160   27.4520   43.0340 C   0  0  0  0  0  0  0  0  0  0  0  0
   57.7640   26.0780   43.6700 C   0  0  0  0  0  0  0  0  0  0  0  0
   56.6480   28.9850   44.3910 C   0  0  0  0  0  0  0  0  0  0  0  0
   56.1730   30.2010   43.5820 C   0  0  0  0  0  0  0  0  0  0  0  0
   57.2290   30.7340   42.7060 N   0  0  0  0  0  0  0  0  0  0  0  0
   57.4070   32.1900   42.8360 C   0  0  0  0  0  0  0  0  0  0  0  0
   58.2480   32.5130   44.0420 C   0  0  0  0  0  0  0  0  0  0  0  0
   58.5030   31.5280   45.0080 C   0  0  0  0  0  0  0  0  0  0  0  0
   59.2840   31.8220   46.1300 C   0  0  0  0  0  0  0  0  0  0  0  0
   59.8140   33.1120   46.3150 C   0  0  0  0  0  0  0  0  0  0  0  0
   60.6640   33.4280   47.4910 C   0  0  0  0  0  0  0  0  0  0  0  0
   60.2520   34.0230   48.6860 C   0  0  0  0  0  0  0  0  0  0  0  0
   61.2840   34.1900   49.6180 C   0  0  0  0  0  0  0  0  0  0  0  0
   62.5140   33.7300   49.1660 C   0  0  0  0  0  0  0  0  0  0  0  0
   63.7770   33.7670   49.9120 C   0  0  0  0  0  0  0  0  0  0  0  0
   64.8910   33.1030   49.5020 N   0  0  0  0  0  0  0  0  0  0  0  0
   65.7800   33.4090   50.4580 C   0  0  0  0  0  0  0  0  0  0  0  0
   67.1070   32.9980   50.5520 C   0  0  0  0  0  0  0  0  0  0  0  0
   67.8540   33.4510   51.6570 C   0  0  0  0  0  0  0  0  0  0  0  0
   67.2600   34.2920   52.6250 C   0  0  0  0  0  0  0  0  0  0  0  0
   65.9150   34.6880   52.4950 C   0  0  0  0  0  0  0  0  0  0  0  0
   65.2080   34.2210   51.3900 C   0  0  0  0  0  0  0  0  0  0  0  0
   63.9300   34.4660   51.0680 N   0  0  0  0  0  0  0  0  0  0  0  0
   62.3190   33.1190   47.6120 S   0  0  0  0  0  0  0  0  0  0  0  0
   59.5390   34.1010   45.3520 C   0  0  0  0  0  0  0  0  0  0  0  0
   58.7600   33.8040   44.2300 C   0  0  0  0  0  0  0  0  0  0  0  0
   60.9402   28.8084   45.6984 H   0  0  0  0  0  0  0  0  0  0  0  0
   60.7727   27.8450   44.1916 H   0  0  0  0  0  0  0  0  0  0  0  0
   60.3554   29.5921   44.1916 H   0  0  0  0  0  0  0  0  0  0  0  0
   58.8486   27.2632   45.4524 H   0  0  0  0  0  0  0  0  0  0  0  0
   58.5927   28.9526   46.0091 H   0  0  0  0  0  0  0  0  0  0  0  0
   57.2279   27.6395   42.2898 H   0  0  0  0  0  0  0  0  0  0  0  0
   59.0196   27.4179   42.5850 H   0  0  0  0  0  0  0  0  0  0  0  0
   57.7813   26.1725   44.7658 H   0  0  0  0  0  0  0  0  0  0  0  0
   56.7816   25.7004   43.3500 H   0  0  0  0  0  0  0  0  0  0  0  0
   58.5484   25.3764   43.3500 H   0  0  0  0  0  0  0  0  0  0  0  0
   55.9581   28.1470   44.2128 H   0  0  0  0  0  0  0  0  0  0  0  0
   56.6620   29.2656   45.4545 H   0  0  0  0  0  0  0  0  0  0  0  0
   55.3161   29.9005   42.9612 H   0  0  0  0  0  0  0  0  0  0  0  0
   55.8943   30.9918   44.2940 H   0  0  0  0  0  0  0  0  0  0  0  0
   58.1270   30.2780   42.9970 H   0  0  0  0  0  0  0  0  0  0  0  0
   57.9045   32.5758   41.9340 H   0  0  0  0  0  0  0  0  0  0  0  0
   56.4195   32.6598   42.9549 H   0  0  0  0  0  0  0  0  0  0  0  0
   58.0859   30.5180   44.8819 H   0  0  0  0  0  0  0  0  0  0  0  0
   59.4857   31.0378   46.8745 H   0  0  0  0  0  0  0  0  0  0  0  0
   59.2136   34.3316   48.8771 H   0  0  0  0  0  0  0  0  0  0  0  0
   61.1350   34.6410   50.6102 H   0  0  0  0  0  0  0  0  0  0  0  0
   67.5559   32.3431   49.7907 H   0  0  0  0  0  0  0  0  0  0  0  0
   68.9058   33.1484   51.7671 H   0  0  0  0  0  0  0  0  0  0  0  0
   67.8517   34.6392   53.4849 H   0  0  0  0  0  0  0  0  0  0  0  0
   65.4396   35.3430   53.2399 H   0  0  0  0  0  0  0  0  0  0  0  0
   59.9406   35.1166   45.4835 H   0  0  0  0  0  0  0  0  0  0  0  0
   58.5473   34.5891   43.4894 H   0  0  0  0  0  0  0  0  0  0  0  0
  1  2  1  0
  2  3  1  0
  3  4  1  0
  4  5  1  0
  3  6  1  0
  6  7  1  0
  7  8  1  0
  8  9  1  0
  9 10  1  0
 10 11  2  0
 11 12  1  0
 12 13  2  0
 13 14  1  0
 14 15  2  0
 15 16  1  0
 16 17  2  0
 17 18  1  0
 18 19  2  0
 19 20  1  0
 20 21  2  0
 21 22  1  0
 22 23  2  0
 23 24  1  0
 24 25  2  0
 25 26  1  0
 17 27  1  0
 13 28  1  0
 28 29  2  0
 29 10  1  0
 27 14  1  0
 26 18  1  0
 25 20  1  0
  1 30  1  0
  1 31  1  0
  1 32  1  0
  2 33  1  0
  2 34  1  0
  4 35  1  0
  4 36  1  0
  5 37  1  0
  5 38  1  0
  5 39  1  0
  6 40  1  0
  6 41  1  0
  7 42  1  0
  7 43  1  0
  8 44  1  0
  9 45  1  0
  9 46  1  0
 11 47  1  0
 12 48  1  0
 15 49  1  0
 16 50  1  0
 21 51  1  0
 22 52  1  0
 23 53  1  0
 24 54  1  0
 28 55  1  0
 29 56  1  0
M  CHG  1  26  -1
M  END
>  <UniqueID>  (23) 
22

>  <SMILES>  (23) 
CCN(CC)CCNCc1ccc(-c2ccc(-c3nc4ccccc4[n-]3)s2)cc1

>  <Energy>  (23) 
119.9300659868223

>  <Genealogy>  (23) 
CCN(CC)CCNCc1ccc(-c2ccc(-c3nc4ccccc4[n-]3)s2)cc1 (protonated)
CCN(CC)CCNCc1ccc(-c2ccc(-c3nc4ccccc4[n-]3)s2)cc1 (3D coordinates assigned)
CCN(CC)CCNCc1ccc(-c2ccc(-c3nc4ccccc4[n-]3)s2)cc1 (optimized conformer: 119.9300659868223 kcal/mol)

>  <smiles>  (23) 
CCN(CC)CCNCc1ccc(-c2ccc(-c3nc4ccccc4[nH]3)s2)cc1

>  <score_type>  (23) 
oracle

>  <origin>  (23) 
adg

>  <m_score__min__energy>  (23) 
-8.8900000000000006

>  <m_primary>  (23) 
energy

$$$$
23:0
     RDKit          3D

 55 57  0  0  0  0  0  0  0  0999 V2000
   56.6620   30.0330   43.3620 C   0  0  0  0  0  0  0  0  0  0  0  0
   56.4130   30.8640   44.4940 O   0  0  0  0  0  0  0  0  0  0  0  0
   57.3180   31.8130   44.9930 C   0  0  0  0  0  0  0  0  0  0  0  0
   57.7800   31.7900   46.3230 C   0  0  0  0  0  0  0  0  0  0  0  0
   58.6690   32.7710   46.7780 C   0  0  0  0  0  0  0  0  0  0  0  0
   59.1270   33.7720   45.9060 C   0  0  0  0  0  0  0  0  0  0  0  0
   60.0750   34.8380   46.3940 C   0  0  0  0  0  0  0  0  0  0  0  0
   60.5810   34.5710   47.8180 C   0  0  0  0  0  0  0  0  0  0  0  0
   62.0050   34.2310   47.8280 N   0  0  0  0  0  0  0  0  0  0  0  0
   62.5030   32.8990   47.6380 C   0  0  0  0  0  0  0  0  0  0  0  0
   61.7180   31.9730   47.1660 N   0  0  0  0  0  0  0  0  0  0  0  0
   60.8880   30.7750   48.1100 S   0  0  0  0  0  0  0  0  0  0  0  0
   61.8520   30.0810   49.0410 O   0  0  0  0  0  0  0  0  0  0  0  0
   59.8440   31.4840   48.9360 O   0  0  0  0  0  0  0  0  0  0  0  0
   60.0900   29.5840   47.0770 C   0  0  0  0  0  0  0  0  0  0  0  0
   60.4350   29.5090   45.7210 C   0  0  0  0  0  0  0  0  0  0  0  0
   59.7820   28.6080   44.8760 C   0  0  0  0  0  0  0  0  0  0  0  0
   58.7590   27.7840   45.3730 C   0  0  0  0  0  0  0  0  0  0  0  0
   58.0740   26.7980   44.4660 C   0  0  0  0  0  0  0  0  0  0  0  0
   58.4320   27.8410   46.7360 C   0  0  0  0  0  0  0  0  0  0  0  0
   59.0930   28.7390   47.5810 C   0  0  0  0  0  0  0  0  0  0  0  0
   63.8560   32.6010   48.0060 N   0  0  0  0  0  0  0  0  0  0  0  0
   64.2550   32.4980   49.3840 C   0  0  0  0  0  0  0  0  0  0  0  0
   65.6180   32.5430   49.7570 C   0  0  0  0  0  0  0  0  0  0  0  0
   65.9890   32.4680   51.1040 C   0  0  0  0  0  0  0  0  0  0  0  0
   65.0070   32.3390   52.0890 C   0  0  0  0  0  0  0  0  0  0  0  0
   63.6510   32.2920   51.7290 C   0  0  0  0  0  0  0  0  0  0  0  0
   63.2750   32.3750   50.3830 C   0  0  0  0  0  0  0  0  0  0  0  0
   58.6790   33.7800   44.5740 C   0  0  0  0  0  0  0  0  0  0  0  0
   57.7720   32.8160   44.1280 C   0  0  0  0  0  0  0  0  0  0  0  0
   56.9623   29.0308   43.7018 H   0  0  0  0  0  0  0  0  0  0  0  0
   55.7475   29.9558   42.7555 H   0  0  0  0  0  0  0  0  0  0  0  0
   57.4682   30.4714   42.7555 H   0  0  0  0  0  0  0  0  0  0  0  0
   57.4410   30.9981   47.0071 H   0  0  0  0  0  0  0  0  0  0  0  0
   59.0104   32.7577   47.8236 H   0  0  0  0  0  0  0  0  0  0  0  0
   60.9393   34.8785   45.7148 H   0  0  0  0  0  0  0  0  0  0  0  0
   59.5256   35.7909   46.4089 H   0  0  0  0  0  0  0  0  0  0  0  0
   60.4249   35.4733   48.4275 H   0  0  0  0  0  0  0  0  0  0  0  0
   60.0203   33.7183   48.2286 H   0  0  0  0  0  0  0  0  0  0  0  0
   62.6800   34.9630   48.1340 H   0  0  0  0  0  0  0  0  0  0  0  0
   61.2236   30.1625   45.3198 H   0  0  0  0  0  0  0  0  0  0  0  0
   60.0705   28.5437   43.8165 H   0  0  0  0  0  0  0  0  0  0  0  0
   57.5504   26.0443   45.0725 H   0  0  0  0  0  0  0  0  0  0  0  0
   57.3478   27.3269   43.8312 H   0  0  0  0  0  0  0  0  0  0  0  0
   58.8230   26.3020   43.8312 H   0  0  0  0  0  0  0  0  0  0  0  0
   57.6537   27.1778   47.1415 H   0  0  0  0  0  0  0  0  0  0  0  0
   58.8281   28.7817   48.6478 H   0  0  0  0  0  0  0  0  0  0  0  0
   64.5940   32.6900   47.2660 H   0  0  0  0  0  0  0  0  0  0  0  0
   66.3929   32.6377   48.9821 H   0  0  0  0  0  0  0  0  0  0  0  0
   67.0512   32.5105   51.3866 H   0  0  0  0  0  0  0  0  0  0  0  0
   65.2967   32.2742   53.1482 H   0  0  0  0  0  0  0  0  0  0  0  0
   62.8808   32.1895   52.5076 H   0  0  0  0  0  0  0  0  0  0  0  0
   62.2106   32.3439   50.1072 H   0  0  0  0  0  0  0  0  0  0  0  0
   59.0448   34.5499   43.8787 H   0  0  0  0  0  0  0  0  0  0  0  0
   57.4116   32.8450   43.0891 H   0  0  0  0  0  0  0  0  0  0  0  0
  1  2  1  0
  2  3  1  0
  3  4  2  0
  4  5  1  0
  5  6  2  0
  6  7  1  0
  7  8  1  0
  8  9  1  0
  9 10  1  0
 10 11  2  3
 11 12  1  0
 12 13  2  0
 12 14  2  0
 12 15  1  0
 15 16  2  0
 16 17  1  0
 17 18  2  0
 18 19  1  0
 18 20  1  0
 20 21  2  0
 10 22  1  0
 22 23  1  0
 23 24  2  0
 24 25  1  0
 25 26  2  0
 26 27  1  0
 27 28  2  0
  6 29  1  0
 29 30  2  0
 30  3  1  0
 21 15  1  0
 28 23  1  0
  1 31  1  0
  1 32  1  0
  1 33  1  0
  4 34  1  0
  5 35  1  0
  7 36  1  0
  7 37  1  0
  8 38  1  0
  8 39  1  0
  9 40  1  0
 16 41  1  0
 17 42  1  0
 19 43  1  0
 19 44  1  0
 19 45  1  0
 20 46  1  0
 21 47  1  0
 22 48  1  0
 24 49  1  0
 25 50  1  0
 26 51  1  0
 27 52  1  0
 28 53  1  0
 29 54  1  0
 30 55  1  0
M  END
>  <UniqueID>  (24) 
23

>  <SMILES>  (24) 
COc1ccc(CCNC(=NS(=O)(=O)c2ccc(C)cc2)Nc2ccccc2)cc1

>  <Energy>  (24) 
57.95019860022624

>  <Genealogy>  (24) 
COc1ccc(CCNC(=NS(=O)(=O)c2ccc(C)cc2)Nc2ccccc2)cc1 (3D coordinates assigned)
COc1ccc(CCNC(=NS(=O)(=O)c2ccc(C)cc2)Nc2ccccc2)cc1 (optimized conformer: 57.95019860022624 kcal/mol)

>  <smiles>  (24) 
COc1ccc(CCNC(=NS(=O)(=O)c2ccc(C)cc2)Nc2ccccc2)cc1

>  <score_type>  (24) 
oracle

>  <origin>  (24) 
adg

>  <m_score__min__energy>  (24) 
-8.3900000000000006

>  <m_primary>  (24) 
energy

$$$$
24:0
     RDKit          3D

 51 53  0  0  0  0  0  0  0  0999 V2000
   59.7770   35.3460   45.9950 C   0  0  0  0  0  0  0  0  0  0  0  0
   58.9410   34.1170   45.7960 C   0  0  0  0  0  0  0  0  0  0  0  0
   58.5790   33.3270   46.8980 C   0  0  0  0  0  0  0  0  0  0  0  0
   57.8160   32.1700   46.7150 C   0  0  0  0  0  0  0  0  0  0  0  0
   57.4040   31.7890   45.4270 C   0  0  0  0  0  0  0  0  0  0  0  0
   56.6690   30.5780   45.1990 N   0  0  0  0  0  0  0  0  0  0  0  0
   56.6540   29.8040   43.9930 C   0  0  0  0  0  0  0  0  0  0  0  0
   55.7530   30.0280   43.1410 O   0  0  0  0  0  0  0  0  0  0  0  0
   57.6590   28.7080   43.7450 C   0  0  0  0  0  0  0  0  0  0  0  0
   58.6640   28.6370   44.8590 C   0  0  0  0  0  0  0  0  0  0  0  0
   59.8200   29.3290   44.8620 N   0  0  0  0  0  0  0  0  0  0  0  0
   60.4310   29.0620   46.0100 N   0  0  0  0  0  0  0  0  0  0  0  0
   59.6280   28.2230   46.6920 C   0  0  0  0  0  0  0  0  0  0  0  0
   60.0320   27.5670   48.3170 S   0  0  0  0  0  0  0  0  0  0  0  0
   59.3190   28.9780   49.2310 C   0  0  0  0  0  0  0  0  0  0  0  0
   60.2940   30.1140   49.2790 C   0  0  0  0  0  0  0  0  0  0  0  0
   60.8440   30.4070   50.3770 O   0  0  0  0  0  0  0  0  0  0  0  0
   60.5660   30.8860   48.0980 N   0  0  0  0  0  0  0  0  0  0  0  0
   61.6030   31.8800   48.0190 C   0  0  0  0  0  0  0  0  0  0  0  0
   62.7150   31.6790   47.1820 C   0  0  0  0  0  0  0  0  0  0  0  0
   63.7200   32.6460   47.0900 C   0  0  0  0  0  0  0  0  0  0  0  0
   63.6180   33.8320   47.8160 C   0  0  0  0  0  0  0  0  0  0  0  0
   62.5110   34.0600   48.6320 C   0  0  0  0  0  0  0  0  0  0  0  0
   61.4950   33.0900   48.7470 C   0  0  0  0  0  0  0  0  0  0  0  0
   60.3150   33.3570   49.6460 C   0  0  0  0  0  0  0  0  0  0  0  0
   58.5030   27.9450   46.0070 N   0  0  0  0  0  0  0  0  0  0  0  0
   57.4310   27.0170   46.3650 C   0  0  0  0  0  0  0  0  0  0  0  0
   57.7980   32.5600   44.3250 C   0  0  0  0  0  0  0  0  0  0  0  0
   58.5590   33.7170   44.5060 C   0  0  0  0  0  0  0  0  0  0  0  0
   59.9040   35.5327   47.0716 H   0  0  0  0  0  0  0  0  0  0  0  0
   60.7627   35.1982   45.5297 H   0  0  0  0  0  0  0  0  0  0  0  0
   59.2775   36.2085   45.5297 H   0  0  0  0  0  0  0  0  0  0  0  0
   58.8969   33.6193   47.9097 H   0  0  0  0  0  0  0  0  0  0  0  0
   57.5369   31.5551   47.5834 H   0  0  0  0  0  0  0  0  0  0  0  0
   57.1314   27.7454   43.6746 H   0  0  0  0  0  0  0  0  0  0  0  0
   58.1905   28.9257   42.8069 H   0  0  0  0  0  0  0  0  0  0  0  0
   58.3999   29.3100   48.7260 H   0  0  0  0  0  0  0  0  0  0  0  0
   59.0909   28.6593   50.2588 H   0  0  0  0  0  0  0  0  0  0  0  0
   59.9530   30.7400   47.2650 H   0  0  0  0  0  0  0  0  0  0  0  0
   62.7946   30.7525   46.5944 H   0  0  0  0  0  0  0  0  0  0  0  0
   64.5928   32.4711   46.4438 H   0  0  0  0  0  0  0  0  0  0  0  0
   64.4126   34.5893   47.7447 H   0  0  0  0  0  0  0  0  0  0  0  0
   62.4298   35.0042   49.1904 H   0  0  0  0  0  0  0  0  0  0  0  0
   60.6313   33.2854   50.6971 H   0  0  0  0  0  0  0  0  0  0  0  0
   59.9245   34.3662   49.4485 H   0  0  0  0  0  0  0  0  0  0  0  0
   59.5281   32.6142   49.4485 H   0  0  0  0  0  0  0  0  0  0  0  0
   57.3542   26.9505   47.4603 H   0  0  0  0  0  0  0  0  0  0  0  0
   56.4784   27.3803   45.9520 H   0  0  0  0  0  0  0  0  0  0  0  0
   57.6541   26.0222   45.9520 H   0  0  0  0  0  0  0  0  0  0  0  0
   57.5058   32.2517   43.3103 H   0  0  0  0  0  0  0  0  0  0  0  0
   58.8601   34.3169   43.6345 H   0  0  0  0  0  0  0  0  0  0  0  0
  1  2  1  0
  2  3  2  0
  3  4  1  0
  4  5  2  0
  5  6  1  0
  6  7  1  0
  7  8  2  0
  7  9  1  0
  9 10  1  0
 10 11  2  0
 11 12  1  0
 12 13  2  0
 13 14  1  0
 14 15  1  0
 15 16  1  0
 16 17  2  0
 16 18  1  0
 18 19  1  0
 19 20  2  0
 20 21  1  0
 21 22  2  0
 22 23  1  0
 23 24  2  0
 24 25  1  0
 13 26  1  0
 26 27  1  0
  5 28  1  0
 28 29  2  0
 29  2  1  0
 26 10  1  0
 24 19  1  0
  1 30  1  0
  1 31  1  0
  1 32  1  0
  3 33  1  0
  4 34  1  0
  9 35  1  0
  9 36  1  0
 15 37  1  0
 15 38  1  0
 18 39  1  0
 20 40  1  0
 21 41  1  0
 22 42  1  0
 23 43  1  0
 25 44  1  0
 25 45  1  0
 25 46  1  0
 27 47  1  0
 27 48  1  0
 27 49  1  0
 28 50  1  0
 29 51  1  0
M  CHG  1   6  -1
M  END
>  <UniqueID>  (25) 
24

>  <SMILES>  (25) 
Cc1ccc([N-]C(=O)Cc2nnc(SCC(=O)Nc3ccccc3C)n2C)cc1

>  <Energy>  (25) 
90.21279536996703

>  <Genealogy>  (25) 
Cc1ccc([N-]C(=O)Cc2nnc(SCC(=O)Nc3ccccc3C)n2C)cc1 (protonated)
Cc1ccc([N-]C(=O)Cc2nnc(SCC(=O)Nc3ccccc3C)n2C)cc1 (3D coordinates assigned)
Cc1ccc([N-]C(=O)Cc2nnc(SCC(=O)Nc3ccccc3C)n2C)cc1 (optimized conformer: 90.21279536996703 kcal/mol)

>  <smiles>  (25) 
Cc1ccc(NC(=O)Cc2nnc(SCC(=O)Nc3ccccc3C)n2C)cc1

>  <score_type>  (25) 
oracle

>  <origin>  (25) 
adg

>  <m_score__min__energy>  (25) 
-10.19

>  <m_primary>  (25) 
energy

$$$$
25:0
     RDKit          3D

 45 47  0  0  0  0  0  0  0  0999 V2000
   56.2490   29.3490   42.8850 N   0  0  0  0  0  0  0  0  0  0  0  0
   56.7680   30.3340   43.5370 C   0  0  0  0  0  0  0  0  0  0  0  0
   56.1860   31.0770   44.5190 N   0  0  0  0  0  0  0  0  0  0  0  0
   57.0690   32.0010   44.9300 C   0  0  0  0  0  0  0  0  0  0  0  0
   56.8990   33.2540   46.1850 S   0  0  0  0  0  0  0  0  0  0  0  0
   58.0680   34.5960   45.9300 C   0  0  0  0  0  0  0  0  0  0  0  0
   59.4610   34.0810   46.0020 C   0  0  0  0  0  0  0  0  0  0  0  0
   60.2250   34.1340   44.9770 O   0  0  0  0  0  0  0  0  0  0  0  0
   59.8890   33.5420   47.2330 N   0  0  0  0  0  0  0  0  0  0  0  0
   61.1740   33.0080   47.4930 C   0  0  0  0  0  0  0  0  0  0  0  0
   62.2920   33.8120   47.3680 C   0  0  0  0  0  0  0  0  0  0  0  0
   63.5750   33.3650   47.5870 C   0  0  0  0  0  0  0  0  0  0  0  0
   63.7540   32.0630   47.9480 C   0  0  0  0  0  0  0  0  0  0  0  0
   62.6490   31.2310   48.0820 C   0  0  0  0  0  0  0  0  0  0  0  0
   61.3650   31.6740   47.8640 C   0  0  0  0  0  0  0  0  0  0  0  0
   60.1830   30.8280   48.0020 C   0  0  0  0  0  0  0  0  0  0  0  0
   59.1140   31.4080   48.3200 O   0  0  0  0  0  0  0  0  0  0  0  0
   60.1620   29.4410   47.8060 N   0  0  0  0  0  0  0  0  0  0  0  0
   59.0180   28.5820   47.9390 C   0  0  0  0  0  0  0  0  0  0  0  0
   58.6310   28.0020   46.6160 C   0  0  0  0  0  0  0  0  0  0  0  0
   59.4020   28.4240   45.5340 C   0  0  0  0  0  0  0  0  0  0  0  0
   59.1490   27.9690   44.2430 C   0  0  0  0  0  0  0  0  0  0  0  0
   58.1030   27.0860   44.0980 C   0  0  0  0  0  0  0  0  0  0  0  0
   57.3280   26.6610   45.1780 C   0  0  0  0  0  0  0  0  0  0  0  0
   57.5840   27.1180   46.4630 C   0  0  0  0  0  0  0  0  0  0  0  0
   58.2010   31.8320   44.1990 N   0  0  0  0  0  0  0  0  0  0  0  0
   58.0130   30.8250   43.3610 N   0  0  0  0  0  0  0  0  0  0  0  0
   55.4760   29.5480   42.2090 H   0  0  0  0  0  0  0  0  0  0  0  0
   57.8967   35.0446   44.9403 H   0  0  0  0  0  0  0  0  0  0  0  0
   57.9232   35.3534   46.7145 H   0  0  0  0  0  0  0  0  0  0  0  0
   59.2130   33.5180   48.0560 H   0  0  0  0  0  0  0  0  0  0  0  0
   62.1484   34.8635   47.0785 H   0  0  0  0  0  0  0  0  0  0  0  0
   64.4347   34.0417   47.4735 H   0  0  0  0  0  0  0  0  0  0  0  0
   64.7661   31.6734   48.1320 H   0  0  0  0  0  0  0  0  0  0  0  0
   62.8065   30.1818   48.3725 H   0  0  0  0  0  0  0  0  0  0  0  0
   61.0710   28.9730   47.5330 H   0  0  0  0  0  0  0  0  0  0  0  0
   59.2601   27.7644   48.6340 H   0  0  0  0  0  0  0  0  0  0  0  0
   58.1752   29.1752   48.3233 H   0  0  0  0  0  0  0  0  0  0  0  0
   60.2273   29.1311   45.7039 H   0  0  0  0  0  0  0  0  0  0  0  0
   59.7529   28.2976   43.3843 H   0  0  0  0  0  0  0  0  0  0  0  0
   57.8695   26.7013   43.0943 H   0  0  0  0  0  0  0  0  0  0  0  0
   56.5027   25.9539   45.0083 H   0  0  0  0  0  0  0  0  0  0  0  0
   56.9789   26.7898   47.3210 H   0  0  0  0  0  0  0  0  0  0  0  0
   59.0850   32.3880   44.2670 H   0  0  0  0  0  0  0  0  0  0  0  0
   58.7290   30.4660   42.6650 H   0  0  0  0  0  0  0  0  0  0  0  0
  1  2  2  3
  2  3  1  0
  3  4  2  0
  4  5  1  0
  5  6  1  0
  6  7  1  0
  7  8  2  0
  7  9  1  0
  9 10  1  0
 10 11  2  0
 11 12  1  0
 12 13  2  0
 13 14  1  0
 14 15  2  0
 15 16  1  0
 16 17  2  0
 16 18  1  0
 18 19  1  0
 19 20  1  0
 20 21  2  0
 21 22  1  0
 22 23  2  0
 23 24  1  0
 24 25  2  0
  4 26  1  0
 26 27  1  0
 27  2  1  0
 15 10  1  0
 25 20  1  0
  1 28  1  0
  6 29  1  0
  6 30  1  0
  9 31  1  0
 11 32  1  0
 12 33  1  0
 13 34  1  0
 14 35  1  0
 18 36  1  0
 19 37  1  0
 19 38  1  0
 21 39  1  0
 22 40  1  0
 23 41  1  0
 24 42  1  0
 25 43  1  0
 26 44  1  0
 27 45  1  0
M  END
>  <smiles>  (26) 
N=c1nc(SCC(=O)Nc2ccccc2C(=O)NCc2ccccc2)[nH][nH]1

>  <score_type>  (26) 
oracle

>  <origin>  (26) 
adg

>  <m_score__min__energy>  (26) 
-8.4399999999999995

>  <m_primary>  (26) 
energy

$$$$
26:0
     RDKit          3D

 45 47  0  0  0  0  0  0  0  0999 V2000
   55.7670   29.1070   44.8650 O   0  0  0  0  0  0  0  0  0  0  0  0
   56.9860   29.4000   45.0170 C   0  0  0  0  0  0  0  0  0  0  0  0
   57.3830   30.8010   44.6700 C   0  0  0  0  0  0  0  0  0  0  0  0
   57.7790   31.6670   45.7120 C   0  0  0  0  0  0  0  0  0  0  0  0
   58.1930   32.9740   45.4400 C   0  0  0  0  0  0  0  0  0  0  0  0
   58.2240   33.4390   44.1260 C   0  0  0  0  0  0  0  0  0  0  0  0
   57.8470   32.5950   43.0800 C   0  0  0  0  0  0  0  0  0  0  0  0
   57.4410   31.2840   43.3450 C   0  0  0  0  0  0  0  0  0  0  0  0
   57.9450   28.2880   45.4860 C   0  0  0  0  0  0  0  0  0  0  0  0
   57.5560   26.9770   44.8860 N   0  0  0  0  0  0  0  0  0  0  0  0
   56.6350   25.8280   45.8380 S   0  0  0  0  0  0  0  0  0  0  0  0
   57.1960   25.7020   47.2270 O   0  0  0  0  0  0  0  0  0  0  0  0
   55.2190   26.3240   45.9590 O   0  0  0  0  0  0  0  0  0  0  0  0
   56.5940   24.2360   45.0530 C   0  0  0  0  0  0  0  0  0  0  0  0
   56.6650   24.1740   43.6500 C   0  0  0  0  0  0  0  0  0  0  0  0
   56.6780   22.9470   42.9870 C   0  0  0  0  0  0  0  0  0  0  0  0
   56.6460   21.7600   43.7150 C   0  0  0  0  0  0  0  0  0  0  0  0
   56.6030   21.7970   45.1090 C   0  0  0  0  0  0  0  0  0  0  0  0
   56.5740   23.0240   45.7970 C   0  0  0  0  0  0  0  0  0  0  0  0
   56.5600   23.0130   47.2340 N   0  0  0  0  0  0  0  0  0  0  0  0
   57.3720   22.2930   47.8550 O   0  0  0  0  0  0  0  0  0  0  0  0
   55.5070   23.5610   47.9240 O   0  0  0  0  0  0  0  0  0  0  0  0
   59.3880   28.5580   44.9770 C   0  0  0  0  0  0  0  0  0  0  0  0
   60.3730   27.4740   45.4850 C   0  0  0  0  0  0  0  0  0  0  0  0
   59.8390   26.6760   46.5310 O   0  0  0  0  0  0  0  0  0  0  0  0
   59.2860   27.4990   47.5400 C   0  0  0  0  0  0  0  0  0  0  0  0
   58.0160   28.2230   47.0440 C   0  0  0  0  0  0  0  0  0  0  0  0
   57.7615   31.3085   46.7518 H   0  0  0  0  0  0  0  0  0  0  0  0
   58.4949   33.6370   46.2642 H   0  0  0  0  0  0  0  0  0  0  0  0
   58.5451   34.4695   43.9138 H   0  0  0  0  0  0  0  0  0  0  0  0
   57.8695   32.9629   42.0436 H   0  0  0  0  0  0  0  0  0  0  0  0
   57.1637   30.6215   42.5118 H   0  0  0  0  0  0  0  0  0  0  0  0
   57.0490   27.1300   43.9820 H   0  0  0  0  0  0  0  0  0  0  0  0
   56.7109   25.1059   43.0674 H   0  0  0  0  0  0  0  0  0  0  0  0
   56.7136   22.9167   41.8880 H   0  0  0  0  0  0  0  0  0  0  0  0
   56.6546   20.7930   43.1907 H   0  0  0  0  0  0  0  0  0  0  0  0
   56.5916   20.8552   45.6773 H   0  0  0  0  0  0  0  0  0  0  0  0
   59.3870   28.5549   43.8770 H   0  0  0  0  0  0  0  0  0  0  0  0
   59.7162   29.5349   45.3615 H   0  0  0  0  0  0  0  0  0  0  0  0
   60.6336   26.8166   44.6425 H   0  0  0  0  0  0  0  0  0  0  0  0
   61.2521   27.9966   45.8901 H   0  0  0  0  0  0  0  0  0  0  0  0
   59.0263   26.8753   48.4080 H   0  0  0  0  0  0  0  0  0  0  0  0
   60.0325   28.2589   47.8143 H   0  0  0  0  0  0  0  0  0  0  0  0
   57.1325   27.6840   47.4167 H   0  0  0  0  0  0  0  0  0  0  0  0
   58.0452   29.2548   47.4241 H   0  0  0  0  0  0  0  0  0  0  0  0
  1  2  2  0
  2  3  1  0
  3  4  2  0
  4  5  1  0
  5  6  2  0
  6  7  1  0
  7  8  2  0
  2  9  1  0
  9 10  1  0
 10 11  1  0
 11 12  2  0
 11 13  2  0
 11 14  1  0
 14 15  2  0
 15 16  1  0
 16 17  2  0
 17 18  1  0
 18 19  2  0
 19 20  1  0
 20 21  2  0
 20 22  1  0
  9 23  1  0
 23 24  1  0
 24 25  1  0
 25 26  1  0
 26 27  1  0
  8  3  1  0
 27  9  1  0
 19 14  1  0
  4 28  1  0
  5 29  1  0
  6 30  1  0
  7 31  1  0
  8 32  1  0
 10 33  1  0
 15 34  1  0
 16 35  1  0
 17 36  1  0
 18 37  1  0
 23 38  1  0
 23 39  1  0
 24 40  1  0
 24 41  1  0
 26 42  1  0
 26 43  1  0
 27 44  1  0
 27 45  1  0
M  CHG  2  20   1  22  -1
M  END
>  <UniqueID>  (27) 
25

>  <SMILES>  (27) 
O=C(c1ccccc1)C1(NS(=O)(=O)c2ccccc2[N+](=O)[O-])CCOCC1

>  <Energy>  (27) 
79.66645687948709

>  <Genealogy>  (27) 
O=C(c1ccccc1)C1(NS(=O)(=O)c2ccccc2[N+](=O)[O-])CCOCC1 (3D coordinates assigned)
O=C(c1ccccc1)C1(NS(=O)(=O)c2ccccc2[N+](=O)[O-])CCOCC1 (nonaromatic ring conformer: 79.66645687948709 kcal/mol)

>  <smiles>  (27) 
O=C(c1ccccc1)C1(NS(=O)(=O)c2ccccc2[N+](=O)[O-])CCOCC1

>  <score_type>  (27) 
oracle

>  <origin>  (27) 
adg

>  <m_score__min__energy>  (27) 
-10.050000000000001

>  <m_primary>  (27) 
energy

$$$$
27:0
     RDKit          3D

 42 44  0  0  0  0  0  0  0  0999 V2000
   52.8230   24.2510   44.9570 C   0  0  0  0  0  0  0  0  0  0  0  0
   54.2700   24.0120   45.2870 C   0  0  0  0  0  0  0  0  0  0  0  0
   54.8310   22.7370   45.1190 C   0  0  0  0  0  0  0  0  0  0  0  0
   56.1720   22.5130   45.4240 C   0  0  0  0  0  0  0  0  0  0  0  0
   56.9700   23.5590   45.8890 C   0  0  0  0  0  0  0  0  0  0  0  0
   56.4400   24.8520   46.0340 C   0  0  0  0  0  0  0  0  0  0  0  0
   57.3260   25.9760   46.5320 C   0  0  0  0  0  0  0  0  0  0  0  0
   58.3920   26.3770   45.5880 N   0  0  0  0  0  0  0  0  0  0  0  0
   58.0300   27.3590   44.5560 C   0  0  0  0  0  0  0  0  0  0  0  0
   58.3690   28.8160   44.9300 C   0  0  0  0  0  0  0  0  0  0  0  0
   58.9870   28.9600   46.2580 N   0  0  0  0  0  0  0  0  0  0  0  0
   58.8050   30.1730   47.0290 C   0  0  0  0  0  0  0  0  0  0  0  0
   59.0720   30.1690   48.2620 O   0  0  0  0  0  0  0  0  0  0  0  0
   58.3100   31.4300   46.4270 C   0  0  0  0  0  0  0  0  0  0  0  0
   58.9480   32.6490   46.6900 C   0  0  0  0  0  0  0  0  0  0  0  0
   58.4710   33.8130   46.0920 C   0  0  0  0  0  0  0  0  0  0  0  0
   57.3750   33.7350   45.2350 C   0  0  0  0  0  0  0  0  0  0  0  0
   56.9250   34.7720   44.6790 O   0  0  0  0  0  0  0  0  0  0  0  0
   56.7940   32.5310   44.9980 N   0  0  0  0  0  0  0  0  0  0  0  0
   57.2490   31.4160   45.5730 N   0  0  0  0  0  0  0  0  0  0  0  0
   59.9430   27.9600   46.7590 C   0  0  0  0  0  0  0  0  0  0  0  0
   59.7410   26.5690   46.1400 C   0  0  0  0  0  0  0  0  0  0  0  0
   55.0750   25.0690   45.7520 C   0  0  0  0  0  0  0  0  0  0  0  0
   54.5150   26.3320   45.9320 O   0  0  0  0  0  0  0  0  0  0  0  0
   52.2454   24.3464   45.8883 H   0  0  0  0  0  0  0  0  0  0  0  0
   52.7287   25.1769   44.3706 H   0  0  0  0  0  0  0  0  0  0  0  0
   52.4360   23.4046   44.3706 H   0  0  0  0  0  0  0  0  0  0  0  0
   54.2092   21.9103   44.7447 H   0  0  0  0  0  0  0  0  0  0  0  0
   56.6028   21.5088   45.2979 H   0  0  0  0  0  0  0  0  0  0  0  0
   58.0231   23.3696   46.1442 H   0  0  0  0  0  0  0  0  0  0  0  0
   56.6918   26.8532   46.7278 H   0  0  0  0  0  0  0  0  0  0  0  0
   57.8304   25.6019   47.4351 H   0  0  0  0  0  0  0  0  0  0  0  0
   58.5698   27.1046   43.6320 H   0  0  0  0  0  0  0  0  0  0  0  0
   56.9377   27.3071   44.4366 H   0  0  0  0  0  0  0  0  0  0  0  0
   59.0663   29.2138   44.1780 H   0  0  0  0  0  0  0  0  0  0  0  0
   57.4186   29.3692   44.9572 H   0  0  0  0  0  0  0  0  0  0  0  0
   59.8176   32.6866   47.3625 H   0  0  0  0  0  0  0  0  0  0  0  0
   58.9531   34.7810   46.2936 H   0  0  0  0  0  0  0  0  0  0  0  0
   60.9620   28.3023   46.5255 H   0  0  0  0  0  0  0  0  0  0  0  0
   59.7786   27.8635   47.8423 H   0  0  0  0  0  0  0  0  0  0  0  0
   60.4735   26.4358   45.3302 H   0  0  0  0  0  0  0  0  0  0  0  0
   59.8771   25.8287   46.9421 H   0  0  0  0  0  0  0  0  0  0  0  0
  1  2  1  0
  2  3  2  0
  3  4  1  0
  4  5  2  0
  5  6  1  0
  6  7  1  0
  7  8  1  0
  8  9  1  0
  9 10  1  0
 10 11  1  0
 11 12  1  0
 12 13  2  0
 12 14  1  0
 14 15  1  0
 15 16  2  0
 16 17  1  0
 17 18  2  0
 17 19  1  0
 19 20  1  0
 11 21  1  0
 21 22  1  0
  6 23  2  0
 23 24  1  0
 23  2  1  0
 22  8  1  0
 20 14  2  0
  1 25  1  0
  1 26  1  0
  1 27  1  0
  3 28  1  0
  4 29  1  0
  5 30  1  0
  7 31  1  0
  7 32  1  0
  9 33  1  0
  9 34  1  0
 10 35  1  0
 10 36  1  0
 15 37  1  0
 16 38  1  0
 21 39  1  0
 21 40  1  0
 22 41  1  0
 22 42  1  0
M  CHG  2  19  -1  24  -1
M  END
>  <UniqueID>  (28) 
26

>  <SMILES>  (28) 
Cc1cccc(CN2CCN(C(=O)c3ccc(=O)[n-]n3)CC2)c1[O-]

>  <Energy>  (28) 
61.11180032765179

>  <Genealogy>  (28) 
Cc1cccc(CN2CCN(C(=O)c3ccc(=O)[n-]n3)CC2)c1[O-] (protonated)
Cc1cccc(CN2CCN(C(=O)c3ccc(=O)[n-]n3)CC2)c1[O-] (3D coordinates assigned)
Cc1cccc(CN2CCN(C(=O)c3ccc(=O)[n-]n3)CC2)c1[O-] (nonaromatic ring conformer: 61.11180032765179 kcal/mol)

>  <smiles>  (28) 
Cc1cccc(CN2CCN(C(=O)c3ccc(=O)[nH]n3)CC2)c1O

>  <score_type>  (28) 
oracle

>  <origin>  (28) 
adg

>  <m_score__min__energy>  (28) 
-12.06

>  <m_primary>  (28) 
energy

$$$$
28:0
     RDKit          3D

 61 64  0  0  0  0  0  0  0  0999 V2000
   55.8260   23.7100   43.6500 C   0  0  0  0  0  0  0  0  0  0  0  0
   54.8630   23.8040   45.1460 S   0  0  0  0  0  0  0  0  0  0  0  0
   53.4040   23.6080   44.8540 O   0  0  0  0  0  0  0  0  0  0  0  0
   55.3190   22.7180   46.0800 O   0  0  0  0  0  0  0  0  0  0  0  0
   55.1010   25.3350   45.9220 N   0  0  0  0  0  0  0  0  0  0  0  0
   56.3610   25.8820   46.3460 C   0  0  0  0  0  0  0  0  0  0  0  0
   57.2960   25.1200   47.0670 C   0  0  0  0  0  0  0  0  0  0  0  0
   58.4960   25.6920   47.4880 C   0  0  0  0  0  0  0  0  0  0  0  0
   58.7760   27.0260   47.1960 C   0  0  0  0  0  0  0  0  0  0  0  0
   57.8640   27.8080   46.4660 C   0  0  0  0  0  0  0  0  0  0  0  0
   58.2050   29.2580   46.2000 C   0  0  0  0  0  0  0  0  0  0  0  0
   58.6900   29.4970   44.7590 C   0  0  0  0  0  0  0  0  0  0  0  0
   57.5990   29.4350   43.7840 N   0  0  0  0  0  0  0  0  0  0  0  0
   56.3870   30.1900   43.8750 C   0  0  0  0  0  0  0  0  0  0  0  0
   55.4450   29.9290   43.0810 O   0  0  0  0  0  0  0  0  0  0  0  0
   56.2770   31.2670   44.8120 N   0  0  0  0  0  0  0  0  0  0  0  0
   57.2490   32.2960   45.0440 C   0  0  0  0  0  0  0  0  0  0  0  0
   57.9050   32.8500   43.9400 C   0  0  0  0  0  0  0  0  0  0  0  0
   58.8750   33.8420   44.1200 C   0  0  0  0  0  0  0  0  0  0  0  0
   59.2080   34.2730   45.4050 C   0  0  0  0  0  0  0  0  0  0  0  0
   58.5770   33.7090   46.5260 C   0  0  0  0  0  0  0  0  0  0  0  0
   58.9920   34.1210   47.9150 C   0  0  0  0  0  0  0  0  0  0  0  0
   58.8940   33.0010   48.8480 N   0  0  0  0  0  0  0  0  0  0  0  0
   59.8490   31.9340   48.9290 C   0  0  0  0  0  0  0  0  0  0  0  0
   59.4630   30.7340   48.8790 O   0  0  0  0  0  0  0  0  0  0  0  0
   61.2910   32.2230   49.0420 C   0  0  0  0  0  0  0  0  0  0  0  0
   62.0120   32.7790   47.9750 C   0  0  0  0  0  0  0  0  0  0  0  0
   63.3950   32.9700   48.0940 C   0  0  0  0  0  0  0  0  0  0  0  0
   64.0440   33.4480   47.1190 O   0  0  0  0  0  0  0  0  0  0  0  0
   64.0490   32.6160   49.2900 C   0  0  0  0  0  0  0  0  0  0  0  0
   65.4400   32.7620   49.4550 C   0  0  0  0  0  0  0  0  0  0  0  0
   66.0450   32.4020   50.6640 C   0  0  0  0  0  0  0  0  0  0  0  0
   65.2740   31.8930   51.7130 C   0  0  0  0  0  0  0  0  0  0  0  0
   63.8930   31.7360   51.5590 C   0  0  0  0  0  0  0  0  0  0  0  0
   63.2780   32.0860   50.3500 C   0  0  0  0  0  0  0  0  0  0  0  0
   61.9410   31.9010   50.1940 N   0  0  0  0  0  0  0  0  0  0  0  0
   57.5930   32.7200   46.3410 C   0  0  0  0  0  0  0  0  0  0  0  0
   56.6530   27.2200   46.0210 C   0  0  0  0  0  0  0  0  0  0  0  0
   55.7250   27.9270   45.2540 O   0  0  0  0  0  0  0  0  0  0  0  0
   56.8909   23.6061   43.9054 H   0  0  0  0  0  0  0  0  0  0  0  0
   55.5036   22.8391   43.0605 H   0  0  0  0  0  0  0  0  0  0  0  0
   55.6781   24.6269   43.0605 H   0  0  0  0  0  0  0  0  0  0  0  0
   57.0802   24.0669   47.3005 H   0  0  0  0  0  0  0  0  0  0  0  0
   59.2233   25.0893   48.0517 H   0  0  0  0  0  0  0  0  0  0  0  0
   59.7208   27.4716   47.5405 H   0  0  0  0  0  0  0  0  0  0  0  0
   57.3073   29.8690   46.3755 H   0  0  0  0  0  0  0  0  0  0  0  0
   59.0248   29.5374   46.8782 H   0  0  0  0  0  0  0  0  0  0  0  0
   59.1566   30.4916   44.7039 H   0  0  0  0  0  0  0  0  0  0  0  0
   59.4068   28.7005   44.5105 H   0  0  0  0  0  0  0  0  0  0  0  0
   57.6572   32.5042   42.9256 H   0  0  0  0  0  0  0  0  0  0  0  0
   59.3766   34.2835   43.2463 H   0  0  0  0  0  0  0  0  0  0  0  0
   59.9674   35.0572   45.5404 H   0  0  0  0  0  0  0  0  0  0  0  0
   60.0327   34.4762   47.8883 H   0  0  0  0  0  0  0  0  0  0  0  0
   58.3188   34.9206   48.2577 H   0  0  0  0  0  0  0  0  0  0  0  0
   61.4934   33.0642   47.0478 H   0  0  0  0  0  0  0  0  0  0  0  0
   66.0518   33.1598   48.6319 H   0  0  0  0  0  0  0  0  0  0  0  0
   67.1314   32.5199   50.7896 H   0  0  0  0  0  0  0  0  0  0  0  0
   65.7550   31.6151   52.6624 H   0  0  0  0  0  0  0  0  0  0  0  0
   63.2893   31.3375   52.3877 H   0  0  0  0  0  0  0  0  0  0  0  0
   57.0909   32.2767   47.2136 H   0  0  0  0  0  0  0  0  0  0  0  0
   55.8890   28.2210   44.3000 H   0  0  0  0  0  0  0  0  0  0  0  0
  1  2  1  0
  2  3  2  0
  2  4  2  0
  2  5  1  0
  5  6  1  0
  6  7  2  0
  7  8  1  0
  8  9  2  0
  9 10  1  0
 10 11  1  0
 11 12  1  0
 12 13  1  0
 13 14  1  0
 14 15  2  0
 14 16  1  0
 16 17  1  0
 17 18  2  0
 18 19  1  0
 19 20  2  0
 20 21  1  0
 21 22  1  0
 22 23  1  0
 23 24  1  0
 24 25  2  0
 24 26  1  0
 26 27  2  0
 27 28  1  0
 28 29  2  0
 28 30  1  0
 30 31  2  0
 31 32  1  0
 32 33  2  0
 33 34  1  0
 34 35  2  0
 35 36  1  0
 21 37  2  0
 10 38  2  0
 38 39  1  0
 38  6  1  0
 37 17  1  0
 36 26  1  0
 35 30  1  0
  1 40  1  0
  1 41  1  0
  1 42  1  0
  7 43  1  0
  8 44  1  0
  9 45  1  0
 11 46  1  0
 11 47  1  0
 12 48  1  0
 12 49  1  0
 18 50  1  0
 19 51  1  0
 20 52  1  0
 22 53  1  0
 22 54  1  0
 27 55  1  0
 31 56  1  0
 32 57  1  0
 33 58  1  0
 34 59  1  0
 37 60  1  0
 39 61  1  0
M  CHG  5   5  -1  13  -1  16  -1  23  -1  36  -1
M  END
>  <UniqueID>  (29) 
27

>  <SMILES>  (29) 
CS(=O)(=O)[N-]c1cccc(CC[N-]C(=O)[N-]c2cccc(C[N-]C(=O)c3cc(=O)c4ccccc4[n-]3)c2)c1O

>  <Energy>  (29) 
69.902100810826

>  <Genealogy>  (29) 
CS(=O)(=O)[N-]c1cccc(CC[N-]C(=O)[N-]c2cccc(C[N-]C(=O)c3cc(=O)c4ccccc4[n-]3)c2)c1O (protonated)
CS(=O)(=O)[N-]c1cccc(CC[N-]C(=O)[N-]c2cccc(C[N-]C(=O)c3cc(=O)c4ccccc4[n-]3)c2)c1O (3D coordinates assigned)
CS(=O)(=O)[N-]c1cccc(CC[N-]C(=O)[N-]c2cccc(C[N-]C(=O)c3cc(=O)c4ccccc4[n-]3)c2)c1O (optimized conformer: 69.902100810826 kcal/mol)

>  <smiles>  (29) 
CS(=O)(=O)Nc1cccc(CCNC(=O)Nc2cccc(CNC(=O)c3cc(=O)c4ccccc4[nH]3)c2)c1O

>  <score_type>  (29) 
oracle

>  <origin>  (29) 
adg

>  <m_score__min__energy>  (29) 
-16.559999999999999

>  <m_primary>  (29) 
energy

$$$$
29:0
     RDKit          3D

 58 61  0  0  0  0  0  0  0  0999 V2000
   61.3656   33.0036   49.9218 H   0  0  0  0  0  0  0  0  0  0  0  0
   61.2840   32.1810   49.1960 C   0  0  0  0  0  0  0  0  0  0  0  0
   60.3640   31.1500   49.4100 C   0  0  0  0  0  0  0  0  0  0  0  0
   59.7248   31.1639   50.3051 H   0  0  0  0  0  0  0  0  0  0  0  0
   60.2520   30.0960   48.4870 C   0  0  0  0  0  0  0  0  0  0  0  0
   59.2810   28.9710   48.7350 C   0  0  0  0  0  0  0  0  0  0  0  0
   58.3820   29.3707   49.2269 H   0  0  0  0  0  0  0  0  0  0  0  0
   59.7634   28.2203   49.3782 H   0  0  0  0  0  0  0  0  0  0  0  0
   58.8930   28.3290   47.4580 N   0  0  0  0  0  0  0  0  0  0  0  0
   59.2860   27.0440   47.1800 C   0  0  0  0  0  0  0  0  0  0  0  0
   59.9620   26.3970   48.0300 O   0  0  0  0  0  0  0  0  0  0  0  0
   58.9500   26.4520   45.9900 N   0  0  0  0  0  0  0  0  0  0  0  0
   59.3520   25.0590   45.6980 C   0  0  0  0  0  0  0  0  0  0  0  0
   59.8904   25.0344   44.7391 H   0  0  0  0  0  0  0  0  0  0  0  0
   59.9980   24.7044   46.5146 H   0  0  0  0  0  0  0  0  0  0  0  0
   58.1220   24.1300   45.6090 C   0  0  0  0  0  0  0  0  0  0  0  0
   56.9910   24.3270   46.6540 C   0  0  0  0  0  0  0  0  0  0  0  0
   56.5032   23.3540   46.8131 H   0  0  0  0  0  0  0  0  0  0  0  0
   57.4778   24.7309   47.5539 H   0  0  0  0  0  0  0  0  0  0  0  0
   55.9510   25.3010   46.2850 C   0  0  0  0  0  0  0  0  0  0  0  0
   55.1340   26.0680   45.9960 N   0  0  0  0  0  0  0  0  0  0  0  0
   58.4640   22.6900   45.2290 C   0  0  0  0  0  0  0  0  0  0  0  0
   59.5125   22.3974   45.0707 H   0  0  0  0  0  0  0  0  0  0  0  0
   58.2529   21.7008   45.6614 H   0  0  0  0  0  0  0  0  0  0  0  0
   57.7650   23.5980   44.2210 C   0  0  0  0  0  0  0  0  0  0  0  0
   58.3098   23.9598   43.3365 H   0  0  0  0  0  0  0  0  0  0  0  0
   56.8418   23.5342   43.6264 H   0  0  0  0  0  0  0  0  0  0  0  0
   58.2020   27.1530   45.0870 C   0  0  0  0  0  0  0  0  0  0  0  0
   57.8570   26.6280   43.9930 O   0  0  0  0  0  0  0  0  0  0  0  0
   57.8200   28.4250   45.3540 N   0  0  0  0  0  0  0  0  0  0  0  0
   57.2140   28.9070   44.6550 H   0  0  0  0  0  0  0  0  0  0  0  0
   58.1760   29.0320   46.5220 C   0  0  0  0  0  0  0  0  0  0  0  0
   57.8170   30.2630   46.7760 N   0  0  0  0  0  0  0  0  0  0  0  0
   58.0330   31.4290   45.9670 C   0  0  0  0  0  0  0  0  0  0  0  0
   58.8570   32.4720   46.4190 C   0  0  0  0  0  0  0  0  0  0  0  0
   59.3810   32.3721   47.3810 H   0  0  0  0  0  0  0  0  0  0  0  0
   59.0200   33.6360   45.6620 C   0  0  0  0  0  0  0  0  0  0  0  0
   59.8700   34.6380   46.1530 O   0  0  0  0  0  0  0  0  0  0  0  0
   60.0190   34.9610   47.5320 C   0  0  0  0  0  0  0  0  0  0  0  0
   59.6367   34.1323   48.1461 H   0  0  0  0  0  0  0  0  0  0  0  0
   61.0832   35.1239   47.7575 H   0  0  0  0  0  0  0  0  0  0  0  0
   59.4521   35.8763   47.7575 H   0  0  0  0  0  0  0  0  0  0  0  0
   58.3280   33.7640   44.4450 C   0  0  0  0  0  0  0  0  0  0  0  0
   58.4576   34.6697   43.8344 H   0  0  0  0  0  0  0  0  0  0  0  0
   57.4760   32.7460   44.0070 C   0  0  0  0  0  0  0  0  0  0  0  0
   56.9295   32.8607   43.0593 H   0  0  0  0  0  0  0  0  0  0  0  0
   57.3130   31.5750   44.7710 C   0  0  0  0  0  0  0  0  0  0  0  0
   56.4520   30.5390   44.3750 O   0  0  0  0  0  0  0  0  0  0  0  0
   56.2620   30.1220   43.0270 C   0  0  0  0  0  0  0  0  0  0  0  0
   55.8059   29.1211   43.0136 H   0  0  0  0  0  0  0  0  0  0  0  0
   55.5993   30.8338   42.5129 H   0  0  0  0  0  0  0  0  0  0  0  0
   57.2339   30.0890   42.5129 H   0  0  0  0  0  0  0  0  0  0  0  0
   61.0770   30.0900   47.3500 C   0  0  0  0  0  0  0  0  0  0  0  0
   60.9990   29.2689   46.6222 H   0  0  0  0  0  0  0  0  0  0  0  0
   61.9970   31.1220   47.1380 C   0  0  0  0  0  0  0  0  0  0  0  0
   62.6393   31.1107   46.2451 H   0  0  0  0  0  0  0  0  0  0  0  0
   62.1010   32.1680   48.0600 C   0  0  0  0  0  0  0  0  0  0  0  0
   63.2560   33.4610   47.7950 Cl  0  0  0  0  0  0  0  0  0  0  0  0
  1  2  1  0
  2  3  2  0
  3  4  1  0
  3  5  1  0
  5  6  1  0
  6  7  1  0
  6  8  1  0
  6  9  1  0
  9 10  1  0
 10 11  2  0
 10 12  1  0
 12 13  1  0
 13 14  1  0
 13 15  1  0
 13 16  1  0
 16 17  1  0
 17 18  1  0
 17 19  1  0
 17 20  1  0
 20 21  3  0
 16 22  1  0
 22 23  1  0
 22 24  1  0
 22 25  1  0
 25 26  1  0
 25 27  1  0
 12 28  1  0
 28 29  2  0
 28 30  1  0
 30 31  1  0
 30 32  1  0
 32 33  2  0
 33 34  1  0
 34 35  2  0
 35 36  1  0
 35 37  1  0
 37 38  1  0
 38 39  1  0
 39 40  1  0
 39 41  1  0
 39 42  1  0
 37 43  2  0
 43 44  1  0
 43 45  1  0
 45 46  1  0
 45 47  2  0
 47 48  1  0
 48 49  1  0
 49 50  1  0
 49 51  1  0
 49 52  1  0
  5 53  2  0
 53 54  1  0
 53 55  1  0
 55 56  1  0
 55 57  2  0
 57 58  1  0
 57  2  1  0
 32  9  1  0
 47 34  1  0
 25 16  1  0
M  END
>  <UniqueID>  (30) 
28

>  <SMILES>  (30) 
COc1ccc(OC)c(/N=c2\[nH]c(=O)n(CC3(CC#N)CC3)c(=O)n2Cc2ccc(Cl)cc2)c1

>  <Energy>  (30) 
342.57875379417186

>  <Genealogy>  (30) 
COc1ccc(OC)c(/N=c2\[nH]c(=O)n(CC3(CC#N)CC3)c(=O)n2Cc2ccc(Cl)cc2)c1 (cis-trans isomerization)
COc1ccc(OC)c(/N=c2\[nH]c(=O)n(CC3(CC#N)CC3)c(=O)n2Cc2ccc(Cl)cc2)c1 (3D coordinates assigned)
COc1ccc(OC)c(/N=c2\[nH]c(=O)n(CC3(CC#N)CC3)c(=O)n2Cc2ccc(Cl)cc2)c1 (nonaromatic ring conformer: 342.57875379417186 kcal/mol)

>  <smiles>  (30) 
COc1ccc(OC)c(N=c2[nH]c(=O)n(CC3(CC#N)CC3)c(=O)n2Cc2ccc(Cl)cc2)c1

>  <score_type>  (30) 
oracle

>  <origin>  (30) 
adg

>  <m_score__min__energy>  (30) 
-7.8700000000000001

>  <m_primary>  (30) 
energy

$$$$
30:0
     RDKit          3D

 41 43  0  0  0  0  0  0  0  0999 V2000
   57.6317   25.2173   48.1096 H   0  0  0  0  0  0  0  0  0  0  0  0
   57.8760   25.7840   47.1990 C   0  0  0  0  0  0  0  0  0  0  0  0
   58.5710   27.0780   47.3690 C   0  0  0  0  0  0  0  0  0  0  0  0
   59.1030   27.3260   48.4840 O   0  0  0  0  0  0  0  0  0  0  0  0
   58.7040   28.0660   46.2720 C   0  0  0  0  0  0  0  0  0  0  0  0
   59.9550   28.3340   45.6890 C   0  0  0  0  0  0  0  0  0  0  0  0
   60.8552   27.8288   46.0691 H   0  0  0  0  0  0  0  0  0  0  0  0
   60.0610   29.2380   44.6300 C   0  0  0  0  0  0  0  0  0  0  0  0
   61.0417   29.4327   44.1713 H   0  0  0  0  0  0  0  0  0  0  0  0
   58.9270   29.8950   44.1520 C   0  0  0  0  0  0  0  0  0  0  0  0
   59.0155   30.5975   43.3102 H   0  0  0  0  0  0  0  0  0  0  0  0
   57.6740   29.6640   44.7400 C   0  0  0  0  0  0  0  0  0  0  0  0
   56.4510   30.3680   44.2120 C   0  0  0  0  0  0  0  0  0  0  0  0
   56.5534   30.5020   43.1250 H   0  0  0  0  0  0  0  0  0  0  0  0
   55.5660   29.7562   44.4413 H   0  0  0  0  0  0  0  0  0  0  0  0
   56.2910   31.6790   44.8440 N   0  0  0  0  0  0  0  0  0  0  0  0
   57.2350   32.4700   45.2720 C   0  0  0  0  0  0  0  0  0  0  0  0
   57.7620   32.2400   46.5070 N   0  0  0  0  0  0  0  0  0  0  0  0
   58.7470   33.0160   47.0330 C   0  0  0  0  0  0  0  0  0  0  0  0
   59.1442   32.7962   48.0350 H   0  0  0  0  0  0  0  0  0  0  0  0
   59.2540   34.0910   46.3020 C   0  0  0  0  0  0  0  0  0  0  0  0
   60.0495   34.7237   46.7225 H   0  0  0  0  0  0  0  0  0  0  0  0
   58.7410   34.3540   45.0330 C   0  0  0  0  0  0  0  0  0  0  0  0
   59.1318   35.1981   44.4459 H   0  0  0  0  0  0  0  0  0  0  0  0
   57.7310   33.5460   44.5070 C   0  0  0  0  0  0  0  0  0  0  0  0
   57.3256   33.7470   43.5044 H   0  0  0  0  0  0  0  0  0  0  0  0
   57.5690   28.7460   45.7980 C   0  0  0  0  0  0  0  0  0  0  0  0
   56.5887   28.5575   46.2601 H   0  0  0  0  0  0  0  0  0  0  0  0
   57.5190   25.2450   46.0210 C   0  0  0  0  0  0  0  0  0  0  0  0
   58.2453   25.2982   45.1965 H   0  0  0  0  0  0  0  0  0  0  0  0
   56.2220   24.5850   45.7490 C   0  0  0  0  0  0  0  0  0  0  0  0
   56.1600   23.2090   45.4600 C   0  0  0  0  0  0  0  0  0  0  0  0
   57.0851   22.6149   45.4245 H   0  0  0  0  0  0  0  0  0  0  0  0
   54.9290   22.5940   45.2180 C   0  0  0  0  0  0  0  0  0  0  0  0
   54.8857   21.5139   45.0144 H   0  0  0  0  0  0  0  0  0  0  0  0
   53.7530   23.3480   45.2340 C   0  0  0  0  0  0  0  0  0  0  0  0
   52.5310   22.7340   44.9950 O   0  0  0  0  0  0  0  0  0  0  0  0
   53.8080   24.7220   45.4880 C   0  0  0  0  0  0  0  0  0  0  0  0
   52.8825   25.3165   45.4913 H   0  0  0  0  0  0  0  0  0  0  0  0
   55.0370   25.3430   45.7380 C   0  0  0  0  0  0  0  0  0  0  0  0
   55.0710   26.7110   45.9930 O   0  0  0  0  0  0  0  0  0  0  0  0
  1  2  1  0
  2  3  1  0
  3  4  2  0
  3  5  1  0
  5  6  2  0
  6  7  1  0
  6  8  1  0
  8  9  1  0
  8 10  2  0
 10 11  1  0
 10 12  1  0
 12 13  1  0
 13 14  1  0
 13 15  1  0
 13 16  1  0
 16 17  2  3
 17 18  1  0
 18 19  1  0
 19 20  1  0
 19 21  2  0
 21 22  1  0
 21 23  1  0
 23 24  1  0
 23 25  2  0
 25 26  1  0
 12 27  2  0
 27 28  1  0
  2 29  2  0
 29 30  1  0
 29 31  1  0
 31 32  2  0
 32 33  1  0
 32 34  1  0
 34 35  1  0
 34 36  2  0
 36 37  1  0
 36 38  1  0
 38 39  1  0
 38 40  2  0
 40 41  1  0
 27  5  1  0
 40 31  1  0
 25 17  1  0
M  CHG  3  18  -1  37  -1  41  -1
M  END
>  <UniqueID>  (31) 
29

>  <SMILES>  (31) 
O=C(/C=C\c1ccc([O-])cc1[O-])c1cccc(CN=c2cccc[n-]2)c1

>  <Energy>  (31) 
56.718849589363714

>  <Genealogy>  (31) 
O=C(C=Cc1ccc([O-])cc1[O-])c1cccc(CN=c2cccc[n-]2)c1 (protonated)
O=C(/C=C\c1ccc([O-])cc1[O-])c1cccc(CN=c2cccc[n-]2)c1 (cis-trans isomerization)
O=C(/C=C\c1ccc([O-])cc1[O-])c1cccc(CN=c2cccc[n-]2)c1 (3D coordinates assigned)
O=C(/C=C\c1ccc([O-])cc1[O-])c1cccc(CN=c2cccc[n-]2)c1 (optimized conformer: 56.718849589363714 kcal/mol)

>  <smiles>  (31) 
O=C(C=Cc1ccc(O)cc1O)c1cccc(CN=c2cccc[nH]2)c1

>  <score_type>  (31) 
oracle

>  <origin>  (31) 
adg

>  <m_score__min__energy>  (31) 
-15.619999999999999

>  <m_primary>  (31) 
energy

$$$$
31:0
     RDKit          3D

 57 59  0  0  0  0  0  0  0  0999 V2000
   60.8463   31.2918   48.1101 H   0  0  0  0  0  0  0  0  0  0  0  0
   60.0830   31.0520   48.8650 C   0  0  0  0  0  0  0  0  0  0  0  0
   59.1410   30.0420   48.6210 C   0  0  0  0  0  0  0  0  0  0  0  0
   59.1680   29.2440   47.3230 C   0  0  1  0  0  0  0  0  0  0  0  0
   60.4820   28.4480   47.1890 C   0  0  0  0  0  0  0  0  0  0  0  0
   60.8715   28.2120   48.1903 H   0  0  0  0  0  0  0  0  0  0  0  0
   60.2905   27.5139   46.6406 H   0  0  0  0  0  0  0  0  0  0  0  0
   61.2212   29.0503   46.6406 H   0  0  0  0  0  0  0  0  0  0  0  0
   58.0580   28.2900   47.3040 N   0  0  0  0  0  0  0  0  0  0  0  0
   57.8820   27.6950   48.1460 H   0  0  0  0  0  0  0  0  0  0  0  0
   57.3790   27.9730   46.0870 C   0  0  0  0  0  0  0  0  0  0  0  0
   56.5610   27.0150   46.0730 O   0  0  0  0  0  0  0  0  0  0  0  0
   57.6410   28.7940   44.8260 C   0  0  2  0  0  0  0  0  0  0  0  0
   56.5110   29.7760   44.5510 C   0  0  0  0  0  0  0  0  0  0  0  0
   55.3250   29.4390   44.8110 O   0  0  0  0  0  0  0  0  0  0  0  0
   56.7460   31.0860   44.0270 N   0  0  0  0  0  0  0  0  0  0  0  0
   56.9500   32.2540   44.8750 C   0  0  0  0  0  0  0  0  0  0  0  0
   56.0787   32.9208   44.7954 H   0  0  0  0  0  0  0  0  0  0  0  0
   57.0720   31.9303   45.9192 H   0  0  0  0  0  0  0  0  0  0  0  0
   58.2010   32.9990   44.4270 C   0  0  0  0  0  0  0  0  0  0  0  0
   58.8811   32.2933   43.9275 H   0  0  0  0  0  0  0  0  0  0  0  0
   57.9040   33.8009   43.7351 H   0  0  0  0  0  0  0  0  0  0  0  0
   59.0400   33.7310   45.8230 S   0  0  0  0  0  0  0  0  0  0  0  0
   60.3850   33.0860   46.0080 O   0  0  0  0  0  0  0  0  0  0  0  0
   59.2200   35.2050   45.5840 O   0  0  0  0  0  0  0  0  0  0  0  0
   58.0650   33.4890   47.2900 C   0  0  0  0  0  0  0  0  0  0  0  0
   58.6944   33.6452   48.1785 H   0  0  0  0  0  0  0  0  0  0  0  0
   57.2323   34.2077   47.2996 H   0  0  0  0  0  0  0  0  0  0  0  0
   57.6650   32.4643   47.2996 H   0  0  0  0  0  0  0  0  0  0  0  0
   57.7670   27.8460   43.6230 C   0  0  0  0  0  0  0  0  0  0  0  0
   57.9040   26.8151   43.9813 H   0  0  0  0  0  0  0  0  0  0  0  0
   56.8533   27.9039   43.0133 H   0  0  0  0  0  0  0  0  0  0  0  0
   58.6339   28.1405   43.0133 H   0  0  0  0  0  0  0  0  0  0  0  0
   58.8830   29.4920   44.9190 O   0  0  0  0  0  0  0  0  0  0  0  0
   59.0150   30.2120   46.1340 C   0  0  0  0  0  0  0  0  0  0  0  0
   59.9035   30.8580   46.0769 H   0  0  0  0  0  0  0  0  0  0  0  0
   58.1115   30.8209   46.2858 H   0  0  0  0  0  0  0  0  0  0  0  0
   58.2430   29.7290   49.5990 N   0  0  0  0  0  0  0  0  0  0  0  0
   58.1930   30.3660   50.8000 C   0  0  0  0  0  0  0  0  0  0  0  0
   57.2830   29.9800   51.6520 N   0  0  0  0  0  0  0  0  0  0  0  0
   56.2920   30.7600   52.3390 C   0  0  0  0  0  0  0  0  0  0  0  0
   56.6480   31.7100   53.0890 O   0  0  0  0  0  0  0  0  0  0  0  0
   54.8640   30.3700   52.2670 C   0  0  0  0  0  0  0  0  0  0  0  0
   54.4220   29.1650   52.8440 C   0  0  0  0  0  0  0  0  0  0  0  0
   55.1428   28.5046   53.3484 H   0  0  0  0  0  0  0  0  0  0  0  0
   53.0740   28.8010   52.7810 C   0  0  0  0  0  0  0  0  0  0  0  0
   52.7386   27.8563   53.2337 H   0  0  0  0  0  0  0  0  0  0  0  0
   52.1520   29.6350   52.1440 C   0  0  0  0  0  0  0  0  0  0  0  0
   51.0908   29.3488   52.0989 H   0  0  0  0  0  0  0  0  0  0  0  0
   52.5780   30.8330   51.5640 C   0  0  0  0  0  0  0  0  0  0  0  0
   51.4180   31.8800   50.7680 Cl  0  0  0  0  0  0  0  0  0  0  0  0
   53.9270   31.2010   51.6240 C   0  0  0  0  0  0  0  0  0  0  0  0
   54.2571   32.1451   51.1661 H   0  0  0  0  0  0  0  0  0  0  0  0
   59.0970   31.4270   51.0430 C   0  0  0  0  0  0  0  0  0  0  0  0
   59.0300   32.2060   52.1510 F   0  0  0  0  0  0  0  0  0  0  0  0
   60.0450   31.7490   50.0700 C   0  0  0  0  0  0  0  0  0  0  0  0
   60.7664   32.5583   50.2563 H   0  0  0  0  0  0  0  0  0  0  0  0
  1  2  1  0
  2  3  2  0
  3  4  1  0
  4  5  1  6
  5  6  1  0
  5  7  1  0
  5  8  1  0
  4  9  1  0
  9 10  1  0
  9 11  1  0
 11 12  2  0
 11 13  1  0
 13 14  1  0
 14 15  2  0
 14 16  1  0
 16 17  1  0
 17 18  1  0
 17 19  1  0
 17 20  1  0
 20 21  1  0
 20 22  1  0
 20 23  1  0
 23 24  2  0
 23 25  2  0
 23 26  1  0
 26 27  1  0
 26 28  1  0
 26 29  1  0
 13 30  1  6
 30 31  1  0
 30 32  1  0
 30 33  1  0
 13 34  1  0
 34 35  1  0
 35 36  1  0
 35 37  1  0
  3 38  1  0
 38 39  1  0
 39 40  2  0
 40 41  1  0
 41 42  2  0
 41 43  1  0
 43 44  2  0
 44 45  1  0
 44 46  1  0
 46 47  1  0
 46 48  2  0
 48 49  1  0
 48 50  1  0
 50 51  1  0
 50 52  2  0
 52 53  1  0
 39 54  1  0
 54 55  1  0
 54 56  2  0
 56 57  1  0
 56  2  1  0
 35  4  1  0
 52 43  1  0
M  CHG  2  16  -1  38  -1
M  END
>  <UniqueID>  (32) 
30

>  <SMILES>  (32) 
C[C@]1(C(=O)[N-]CCS(C)(=O)=O)OC[C@@](C)(c2ccc(F)/c(=N\C(=O)c3cccc(Cl)c3)[n-]2)NC1=O

>  <Energy>  (32) 
71.83212395135514

>  <Genealogy>  (32) 
CC1(C(=O)[N-]CCS(C)(=O)=O)OCC(C)(c2ccc(F)c(=NC(=O)c3cccc(Cl)c3)[n-]2)NC1=O (protonated)
C[C@]1(C(=O)[N-]CCS(C)(=O)=O)OC[C@@](C)(c2ccc(F)c(=NC(=O)c3cccc(Cl)c3)[n-]2)NC1=O (chirality)
C[C@]1(C(=O)[N-]CCS(C)(=O)=O)OC[C@@](C)(c2ccc(F)/c(=N\C(=O)c3cccc(Cl)c3)[n-]2)NC1=O (cis-trans isomerization)
C[C@]1(C(=O)[N-]CCS(C)(=O)=O)OC[C@@](C)(c2ccc(F)/c(=N\C(=O)c3cccc(Cl)c3)[n-]2)NC1=O (3D coordinates assigned)
C[C@]1(C(=O)[N-]CCS(C)(=O)=O)OC[C@@](C)(c2ccc(F)/c(=N\C(=O)c3cccc(Cl)c3)[n-]2)NC1=O (nonaromatic ring conformer: 71.83212395135514 kcal/mol)

>  <smiles>  (32) 
CC1(C(=O)NCCS(C)(=O)=O)OCC(C)(c2ccc(F)c(=NC(=O)c3cccc(Cl)c3)[nH]2)NC1=O

>  <score_type>  (32) 
oracle

>  <origin>  (32) 
adg

>  <m_score__min__energy>  (32) 
-13.6

>  <m_primary>  (32) 
energy

$$$$
32:0
     RDKit          3D

 48 51  0  0  0  0  0  0  0  0999 V2000
   61.0190   30.1540   46.3660 O   0  0  0  0  0  0  0  0  0  0  0  0
   59.8790   29.8390   45.9350 C   0  0  0  0  0  0  0  0  0  0  0  0
   59.3590   28.4800   45.8380 C   0  0  0  0  0  0  0  0  0  0  0  0
   59.9490   27.2550   46.1470 C   0  0  0  0  0  0  0  0  0  0  0  0
   59.1780   26.0910   45.9850 C   0  0  0  0  0  0  0  0  0  0  0  0
   57.8430   26.1750   45.5300 C   0  0  0  0  0  0  0  0  0  0  0  0
   57.2690   27.4240   45.2310 C   0  0  0  0  0  0  0  0  0  0  0  0
   58.0580   28.5620   45.3930 C   0  0  0  0  0  0  0  0  0  0  0  0
   57.7430   29.9720   45.2060 C   0  0  0  0  0  0  0  0  0  0  0  0
   56.6170   30.4310   44.8770 O   0  0  0  0  0  0  0  0  0  0  0  0
   58.8890   30.7790   45.5020 N   0  0  0  0  0  0  0  0  0  0  0  0
   58.9050   32.2340   45.6870 C   0  0  0  0  0  0  0  0  0  0  0  0
   59.4620   32.6020   47.0080 N   0  0  2  0  0  0  0  0  0  0  0  0
   58.3790   32.7300   48.0100 C   0  0  0  0  0  0  0  0  0  0  0  0
   58.8020   32.2290   49.3740 C   0  0  0  0  0  0  0  0  0  0  0  0
   58.7930   30.8520   49.6580 C   0  0  0  0  0  0  0  0  0  0  0  0
   59.2060   30.3880   50.9120 C   0  0  0  0  0  0  0  0  0  0  0  0
   59.6280   31.2930   51.8890 C   0  0  0  0  0  0  0  0  0  0  0  0
   59.6380   32.6630   51.6170 C   0  0  0  0  0  0  0  0  0  0  0  0
   59.2260   33.1320   50.3650 C   0  0  0  0  0  0  0  0  0  0  0  0
   60.2760   33.8060   46.9160 C   0  0  0  0  0  0  0  0  0  0  0  0
   59.8160   34.7940   46.3580 O   0  0  0  0  0  0  0  0  0  0  0  0
   61.6800   33.8860   47.4830 C   0  0  2  0  0  0  0  0  0  0  0  0
   62.7390   33.8390   46.3840 C   0  0  0  0  0  0  0  0  0  0  0  0
   63.7690   32.9040   46.9360 C   0  0  0  0  0  0  0  0  0  0  0  0
   62.9740   32.0590   47.9030 C   0  0  0  0  0  0  0  0  0  0  0  0
   61.8860   32.8150   48.3800 O   0  0  0  0  0  0  0  0  0  0  0  0
   60.9871   27.2012   46.5069 H   0  0  0  0  0  0  0  0  0  0  0  0
   59.6167   25.1086   46.2139 H   0  0  0  0  0  0  0  0  0  0  0  0
   57.2485   25.2575   45.4087 H   0  0  0  0  0  0  0  0  0  0  0  0
   56.2293   27.5005   44.8801 H   0  0  0  0  0  0  0  0  0  0  0  0
   59.5226   32.6887   44.8984 H   0  0  0  0  0  0  0  0  0  0  0  0
   57.8700   32.6024   45.6317 H   0  0  0  0  0  0  0  0  0  0  0  0
   60.0720   31.8100   47.3180 H   0  0  0  0  0  0  0  0  0  0  0  0
   58.0967   33.7899   48.0935 H   0  0  0  0  0  0  0  0  0  0  0  0
   57.5311   32.1161   47.6721 H   0  0  0  0  0  0  0  0  0  0  0  0
   58.4600   30.1367   48.8916 H   0  0  0  0  0  0  0  0  0  0  0  0
   59.1984   29.3096   51.1286 H   0  0  0  0  0  0  0  0  0  0  0  0
   59.9528   30.9262   52.8738 H   0  0  0  0  0  0  0  0  0  0  0  0
   59.9701   33.3738   52.3880 H   0  0  0  0  0  0  0  0  0  0  0  0
   59.2338   34.2117   50.1549 H   0  0  0  0  0  0  0  0  0  0  0  0
   61.7789   34.8482   48.0069 H   0  0  0  0  0  0  0  0  0  0  0  0
   62.3161   33.4498   45.4461 H   0  0  0  0  0  0  0  0  0  0  0  0
   63.1467   34.8304   46.1372 H   0  0  0  0  0  0  0  0  0  0  0  0
   64.2095   32.2858   46.1399 H   0  0  0  0  0  0  0  0  0  0  0  0
   64.6174   33.4216   47.4074 H   0  0  0  0  0  0  0  0  0  0  0  0
   62.6023   31.1602   47.3891 H   0  0  0  0  0  0  0  0  0  0  0  0
   63.6133   31.7533   48.7443 H   0  0  0  0  0  0  0  0  0  0  0  0
  1  2  2  0
  2  3  1  0
  3  4  2  0
  4  5  1  0
  5  6  2  0
  6  7  1  0
  7  8  2  0
  8  9  1  0
  9 10  2  0
  9 11  1  0
 11 12  1  0
 12 13  1  0
 13 14  1  0
 14 15  1  0
 15 16  2  0
 16 17  1  0
 17 18  2  0
 18 19  1  0
 19 20  2  0
 13 21  1  0
 21 22  2  0
 21 23  1  0
 23 24  1  0
 24 25  1  0
 25 26  1  0
 26 27  1  0
 11  2  1  0
 20 15  1  0
 27 23  1  0
  8  3  1  0
  4 28  1  0
  5 29  1  0
  6 30  1  0
  7 31  1  0
 12 32  1  0
 12 33  1  0
 13 34  1  1
 14 35  1  0
 14 36  1  0
 16 37  1  0
 17 38  1  0
 18 39  1  0
 19 40  1  0
 20 41  1  0
 23 42  1  1
 24 43  1  0
 24 44  1  0
 25 45  1  0
 25 46  1  0
 26 47  1  0
 26 48  1  0
M  CHG  1  13   1
M  END
>  <UniqueID>  (33) 
31

>  <SMILES>  (33) 
O=C1c2ccccc2C(=O)N1C[NH+](Cc1ccccc1)C(=O)C1CCCO1

>  <Energy>  (33) 
84.33054892667111

>  <Genealogy>  (33) 
O=C1c2ccccc2C(=O)N1C[NH+](Cc1ccccc1)C(=O)C1CCCO1 (protonated)
O=C1c2ccccc2C(=O)N1C[NH+](Cc1ccccc1)C(=O)C1CCCO1 (3D coordinates assigned)
O=C1c2ccccc2C(=O)N1C[NH+](Cc1ccccc1)C(=O)C1CCCO1 (nonaromatic ring conformer: 84.33054892667111 kcal/mol)

>  <smiles>  (33) 
O=C(C1CCCO1)N(Cc1ccccc1)CN1C(=O)c2ccccc2C1=O

>  <score_type>  (33) 
oracle

>  <origin>  (33) 
adg

>  <m_score__min__energy>  (33) 
-6.0499999999999998

>  <m_primary>  (33) 
energy

$$$$
33:0
     RDKit          3D

 47 50  0  0  0  0  0  0  0  0999 V2000
   59.4990   29.1080   49.0140 N   0  0  0  0  0  0  0  0  0  0  0  0
   59.6390   28.0430   48.5850 C   0  0  0  0  0  0  0  0  0  0  0  0
   59.8180   26.6950   48.0400 C   0  0  0  0  0  0  0  0  0  0  0  0
   60.4840   26.7730   46.3440 S   0  0  0  0  0  0  0  0  0  0  0  0
   59.4340   28.1380   45.8360 C   0  0  0  0  0  0  0  0  0  0  0  0
   59.7680   29.4370   46.0150 N   0  0  0  0  0  0  0  0  0  0  0  0
   58.6910   30.1020   45.5470 C   0  0  0  0  0  0  0  0  0  0  0  0
   58.5170   31.4880   45.5360 C   0  0  0  0  0  0  0  0  0  0  0  0
   59.4910   32.3850   45.9960 C   0  0  0  0  0  0  0  0  0  0  0  0
   59.2390   33.7600   45.9600 C   0  0  0  0  0  0  0  0  0  0  0  0
   58.0210   34.2410   45.4670 C   0  0  0  0  0  0  0  0  0  0  0  0
   57.0430   33.3520   45.0090 C   0  0  0  0  0  0  0  0  0  0  0  0
   57.2800   31.9730   45.0400 C   0  0  0  0  0  0  0  0  0  0  0  0
   56.3230   31.1000   44.6030 N   0  0  0  0  0  0  0  0  0  0  0  0
   56.5320   29.7550   44.6320 C   0  0  0  0  0  0  0  0  0  0  0  0
   57.7190   29.2900   45.1000 N   0  0  0  0  0  0  0  0  0  0  0  0
   58.1740   28.0360   45.2640 C   0  0  0  0  0  0  0  0  0  0  0  0
   57.3900   26.7820   45.0080 C   0  0  0  0  0  0  0  0  0  0  0  0
   56.5220   26.4750   46.1840 C   0  0  0  0  0  0  0  0  0  0  0  0
   57.0410   26.2930   47.3180 O   0  0  0  0  0  0  0  0  0  0  0  0
   55.1070   26.3640   46.0040 N   0  0  0  0  0  0  0  0  0  0  0  0
   54.4330   25.1330   45.6060 C   0  0  0  0  0  0  0  0  0  0  0  0
   55.1350   23.8990   46.1820 C   0  0  0  0  0  0  0  0  0  0  0  0
   55.8610   23.1160   45.1170 C   0  0  0  0  0  0  0  0  0  0  0  0
   55.5340   23.2940   43.7620 C   0  0  0  0  0  0  0  0  0  0  0  0
   56.2150   22.5790   42.7730 C   0  0  0  0  0  0  0  0  0  0  0  0
   57.2210   21.6760   43.1270 C   0  0  0  0  0  0  0  0  0  0  0  0
   57.5490   21.4910   44.4720 C   0  0  0  0  0  0  0  0  0  0  0  0
   56.8800   22.2130   45.4650 C   0  0  0  0  0  0  0  0  0  0  0  0
   60.5186   26.1368   48.6784 H   0  0  0  0  0  0  0  0  0  0  0  0
   58.8414   26.1895   48.0151 H   0  0  0  0  0  0  0  0  0  0  0  0
   60.4493   32.0090   46.3836 H   0  0  0  0  0  0  0  0  0  0  0  0
   60.0013   34.4663   46.3207 H   0  0  0  0  0  0  0  0  0  0  0  0
   57.8316   35.3242   45.4395 H   0  0  0  0  0  0  0  0  0  0  0  0
   56.0871   33.7369   44.6242 H   0  0  0  0  0  0  0  0  0  0  0  0
   55.7549   29.0589   44.2833 H   0  0  0  0  0  0  0  0  0  0  0  0
   56.7605   26.9212   44.1167 H   0  0  0  0  0  0  0  0  0  0  0  0
   58.0869   25.9467   44.8449 H   0  0  0  0  0  0  0  0  0  0  0  0
   53.3961   25.1583   45.9724 H   0  0  0  0  0  0  0  0  0  0  0  0
   54.4580   25.0643   44.5084 H   0  0  0  0  0  0  0  0  0  0  0  0
   55.8614   24.2251   46.9409 H   0  0  0  0  0  0  0  0  0  0  0  0
   54.3678   23.2451   46.6222 H   0  0  0  0  0  0  0  0  0  0  0  0
   54.7387   23.9991   43.4786 H   0  0  0  0  0  0  0  0  0  0  0  0
   55.9586   22.7274   41.7136 H   0  0  0  0  0  0  0  0  0  0  0  0
   57.7538   21.1117   42.3475 H   0  0  0  0  0  0  0  0  0  0  0  0
   58.3361   20.7750   44.7509 H   0  0  0  0  0  0  0  0  0  0  0  0
   57.1521   22.0738   46.5217 H   0  0  0  0  0  0  0  0  0  0  0  0
  1  2  3  0
  2  3  1  0
  3  4  1  0
  4  5  1  0
  5  6  1  0
  6  7  2  0
  7  8  1  0
  8  9  2  0
  9 10  1  0
 10 11  2  0
 11 12  1  0
 12 13  2  0
 13 14  1  0
 14 15  2  0
 15 16  1  0
 16 17  1  0
 17 18  1  0
 18 19  1  0
 19 20  2  0
 19 21  1  0
 21 22  1  0
 22 23  1  0
 23 24  1  0
 24 25  2  0
 25 26  1  0
 26 27  2  0
 27 28  1  0
 28 29  2  0
 17  5  2  0
 29 24  1  0
 16  7  1  0
 13  8  1  0
  3 30  1  0
  3 31  1  0
  9 32  1  0
 10 33  1  0
 11 34  1  0
 12 35  1  0
 15 36  1  0
 18 37  1  0
 18 38  1  0
 22 39  1  0
 22 40  1  0
 23 41  1  0
 23 42  1  0
 25 43  1  0
 26 44  1  0
 27 45  1  0
 28 46  1  0
 29 47  1  0
M  CHG  1  21  -1
M  END
>  <UniqueID>  (34) 
32

>  <SMILES>  (34) 
N#CCSc1nc2c3ccccc3ncn2c1CC(=O)[N-]CCc1ccccc1

>  <Energy>  (34) 
73.86341852481495

>  <Genealogy>  (34) 
N#CCSc1nc2c3ccccc3ncn2c1CC(=O)[N-]CCc1ccccc1 (protonated)
N#CCSc1nc2c3ccccc3ncn2c1CC(=O)[N-]CCc1ccccc1 (3D coordinates assigned)
N#CCSc1nc2c3ccccc3ncn2c1CC(=O)[N-]CCc1ccccc1 (optimized conformer: 73.86341852481495 kcal/mol)

>  <smiles>  (34) 
N#CCSc1nc2c3ccccc3ncn2c1CC(=O)NCCc1ccccc1

>  <score_type>  (34) 
oracle

>  <origin>  (34) 
adg

>  <m_score__min__energy>  (34) 
-10.69

>  <m_primary>  (34) 
energy

$$$$
34:0
     RDKit          3D

 56 59  0  0  0  0  0  0  0  0999 V2000
   59.7230   35.2700   46.1160 O   0  0  0  0  0  0  0  0  0  0  0  0
   59.5790   34.0590   46.4390 C   0  0  0  0  0  0  0  0  0  0  0  0
   58.9600   33.2040   45.5280 C   0  0  0  0  0  0  0  0  0  0  0  0
   58.7890   31.8660   45.8650 C   0  0  0  0  0  0  0  0  0  0  0  0
   58.1600   30.9420   44.9560 N   0  0  0  0  0  0  0  0  0  0  0  0
   58.6280   29.5550   44.8630 C   0  0  0  0  0  0  0  0  0  0  0  0
   57.4590   28.6360   44.4960 C   0  0  0  0  0  0  0  0  0  0  0  0
   56.7670   29.1130   43.2910 N   0  0  0  0  0  0  0  0  0  0  0  0
   56.2420   30.4730   43.4900 C   0  0  0  0  0  0  0  0  0  0  0  0
   57.3630   31.4600   43.8380 C   0  0  0  0  0  0  0  0  0  0  0  0
   59.2610   31.4250   47.0560 N   0  0  0  0  0  0  0  0  0  0  0  0
   59.8800   32.2460   47.9430 C   0  0  0  0  0  0  0  0  0  0  0  0
   60.3000   31.6710   49.1510 O   0  0  0  0  0  0  0  0  0  0  0  0
   59.6320   31.7520   50.4150 C   0  0  0  0  0  0  0  0  0  0  0  0
   59.8130   30.4760   51.2750 C   0  0  0  0  0  0  0  0  0  0  0  0
   58.6170   29.5270   51.1060 C   0  0  0  0  0  0  0  0  0  0  0  0
   57.3720   30.0930   51.5020 O   0  0  0  0  0  0  0  0  0  0  0  0
   57.2780   31.5010   51.3040 C   0  0  0  0  0  0  0  0  0  0  0  0
   58.1430   32.0340   50.1520 C   0  0  0  0  0  0  0  0  0  0  0  0
   60.0220   33.5920   47.6570 N   0  0  0  0  0  0  0  0  0  0  0  0
   60.6410   34.5340   48.6210 C   0  0  0  0  0  0  0  0  0  0  0  0
   61.9370   34.0230   49.2340 C   0  0  0  0  0  0  0  0  0  0  0  0
   62.1680   34.1800   50.6180 C   0  0  0  0  0  0  0  0  0  0  0  0
   63.3300   33.6870   51.2110 C   0  0  0  0  0  0  0  0  0  0  0  0
   64.2940   33.0540   50.4340 C   0  0  0  0  0  0  0  0  0  0  0  0
   64.1230   32.9490   49.0530 C   0  0  0  0  0  0  0  0  0  0  0  0
   62.9730   33.4690   48.4250 C   0  0  0  0  0  0  0  0  0  0  0  0
   62.8750   33.4100   46.9080 C   0  0  0  0  0  0  0  0  0  0  0  0
   62.3590   34.5870   46.3890 F   0  0  0  0  0  0  0  0  0  0  0  0
   62.0360   32.3830   46.5160 F   0  0  0  0  0  0  0  0  0  0  0  0
   64.1270   33.2110   46.3590 F   0  0  0  0  0  0  0  0  0  0  0  0
   58.6117   33.5829   44.5558 H   0  0  0  0  0  0  0  0  0  0  0  0
   59.4058   29.4833   44.0885 H   0  0  0  0  0  0  0  0  0  0  0  0
   59.0419   29.2457   45.8341 H   0  0  0  0  0  0  0  0  0  0  0  0
   57.8438   27.6222   44.3113 H   0  0  0  0  0  0  0  0  0  0  0  0
   56.7428   28.6326   45.3309 H   0  0  0  0  0  0  0  0  0  0  0  0
   57.4420   29.1230   42.4890 H   0  0  0  0  0  0  0  0  0  0  0  0
   55.7475   30.8047   42.5651 H   0  0  0  0  0  0  0  0  0  0  0  0
   55.5288   30.4498   44.3272 H   0  0  0  0  0  0  0  0  0  0  0  0
   58.0124   31.5974   42.9608 H   0  0  0  0  0  0  0  0  0  0  0  0
   56.9182   32.4233   44.1281 H   0  0  0  0  0  0  0  0  0  0  0  0
   60.0826   32.5680   50.9990 H   0  0  0  0  0  0  0  0  0  0  0  0
   60.7312   29.9576   50.9615 H   0  0  0  0  0  0  0  0  0  0  0  0
   59.8806   30.7715   52.3324 H   0  0  0  0  0  0  0  0  0  0  0  0
   58.5470   29.2432   50.0455 H   0  0  0  0  0  0  0  0  0  0  0  0
   58.7989   28.6634   51.7627 H   0  0  0  0  0  0  0  0  0  0  0  0
   56.2280   31.7500   51.0908 H   0  0  0  0  0  0  0  0  0  0  0  0
   57.6501   31.9751   52.2242 H   0  0  0  0  0  0  0  0  0  0  0  0
   57.8418   31.5407   49.2161 H   0  0  0  0  0  0  0  0  0  0  0  0
   57.9973   33.1215   50.0741 H   0  0  0  0  0  0  0  0  0  0  0  0
   60.8539   35.4770   48.0962 H   0  0  0  0  0  0  0  0  0  0  0  0
   59.9256   34.6634   49.4465 H   0  0  0  0  0  0  0  0  0  0  0  0
   61.4210   34.6984   51.2371 H   0  0  0  0  0  0  0  0  0  0  0  0
   63.4841   33.7990   52.2944 H   0  0  0  0  0  0  0  0  0  0  0  0
   65.1934   32.6351   50.9090 H   0  0  0  0  0  0  0  0  0  0  0  0
   64.8957   32.4540   48.4465 H   0  0  0  0  0  0  0  0  0  0  0  0
  1  2  2  0
  2  3  1  0
  3  4  2  0
  4  5  1  0
  5  6  1  0
  6  7  1  0
  7  8  1  0
  8  9  1  0
  9 10  1  0
  4 11  1  0
 11 12  2  0
 12 13  1  0
 13 14  1  0
 14 15  1  0
 15 16  1  0
 16 17  1  0
 17 18  1  0
 18 19  1  0
 12 20  1  0
 20 21  1  0
 21 22  1  0
 22 23  2  0
 23 24  1  0
 24 25  2  0
 25 26  1  0
 26 27  2  0
 27 28  1  0
 28 29  1  0
 28 30  1  0
 28 31  1  0
 20  2  1  0
 27 22  1  0
 10  5  1  0
 19 14  1  0
  3 32  1  0
  6 33  1  0
  6 34  1  0
  7 35  1  0
  7 36  1  0
  8 37  1  0
  9 38  1  0
  9 39  1  0
 10 40  1  0
 10 41  1  0
 14 42  1  0
 15 43  1  0
 15 44  1  0
 16 45  1  0
 16 46  1  0
 18 47  1  0
 18 48  1  0
 19 49  1  0
 19 50  1  0
 21 51  1  0
 21 52  1  0
 23 53  1  0
 24 54  1  0
 25 55  1  0
 26 56  1  0
M  END
>  <UniqueID>  (35) 
33

>  <SMILES>  (35) 
O=c1cc(N2CCNCC2)nc(OC2CCOCC2)n1Cc1ccccc1C(F)(F)F

>  <Energy>  (35) 
88.82636228972723

>  <Genealogy>  (35) 
O=c1cc(N2CCNCC2)nc(OC2CCOCC2)n1Cc1ccccc1C(F)(F)F (3D coordinates assigned)
O=c1cc(N2CCNCC2)nc(OC2CCOCC2)n1Cc1ccccc1C(F)(F)F (nonaromatic ring conformer: 88.82636228972723 kcal/mol)

>  <smiles>  (35) 
O=c1cc(N2CCNCC2)nc(OC2CCOCC2)n1Cc1ccccc1C(F)(F)F

>  <score_type>  (35) 
oracle

>  <origin>  (35) 
adg

>  <m_score__min__energy>  (35) 
-7.3200000000000003

>  <m_primary>  (35) 
energy

$$$$
35:0
     RDKit          3D

 28 29  0  0  0  0  0  0  0  0999 V2000
   57.3940   33.5970   47.3800 N   0  0  0  0  0  0  0  0  0  0  0  0
   57.8710   33.4130   45.7300 S   0  0  0  0  0  0  0  0  0  0  0  0
   56.8020   33.9660   44.8310 O   0  0  0  0  0  0  0  0  0  0  0  0
   59.1440   34.1770   45.4900 O   0  0  0  0  0  0  0  0  0  0  0  0
   58.1240   31.7070   45.3780 C   0  0  0  0  0  0  0  0  0  0  0  0
   57.5700   31.1380   44.2240 C   0  0  0  0  0  0  0  0  0  0  0  0
   57.7560   29.7800   43.9490 C   0  0  0  0  0  0  0  0  0  0  0  0
   58.4920   28.9720   44.8320 C   0  0  0  0  0  0  0  0  0  0  0  0
   58.6860   27.5110   44.5320 C   0  0  0  0  0  0  0  0  0  0  0  0
   57.4010   26.8130   44.5310 N   0  0  0  0  0  0  0  0  0  0  0  0
   57.0290   25.8650   45.5420 C   0  0  0  0  0  0  0  0  0  0  0  0
   57.7870   24.8220   46.0290 C   0  0  0  0  0  0  0  0  0  0  0  0
   56.9850   24.2130   46.9750 C   0  0  0  0  0  0  0  0  0  0  0  0
   57.3570   23.1040   47.7230 O   0  0  0  0  0  0  0  0  0  0  0  0
   55.7840   24.8160   47.0970 N   0  0  0  0  0  0  0  0  0  0  0  0
   55.8250   25.8290   46.2110 C   0  0  0  0  0  0  0  0  0  0  0  0
   54.7730   26.7140   46.0130 O   0  0  0  0  0  0  0  0  0  0  0  0
   59.0460   29.5460   45.9870 C   0  0  0  0  0  0  0  0  0  0  0  0
   58.8590   30.9040   46.2610 C   0  0  0  0  0  0  0  0  0  0  0  0
   56.3910   33.8870   47.3760 H   0  0  0  0  0  0  0  0  0  0  0  0
   56.9863   31.7622   43.5314 H   0  0  0  0  0  0  0  0  0  0  0  0
   57.3241   29.3420   43.0371 H   0  0  0  0  0  0  0  0  0  0  0  0
   59.1568   27.4039   43.5437 H   0  0  0  0  0  0  0  0  0  0  0  0
   59.3291   27.0709   45.3083 H   0  0  0  0  0  0  0  0  0  0  0  0
   56.7210   27.0250   43.7670 H   0  0  0  0  0  0  0  0  0  0  0  0
   58.8065   24.5370   45.7302 H   0  0  0  0  0  0  0  0  0  0  0  0
   59.6306   28.9237   46.6805 H   0  0  0  0  0  0  0  0  0  0  0  0
   59.2900   31.3438   47.1725 H   0  0  0  0  0  0  0  0  0  0  0  0
  1  2  1  0
  2  3  2  0
  2  4  2  0
  2  5  1  0
  5  6  2  0
  6  7  1  0
  7  8  2  0
  8  9  1  0
  9 10  1  0
 10 11  1  0
 11 12  1  0
 12 13  2  0
 13 14  1  0
 13 15  1  0
 15 16  1  0
 16 17  1  0
  8 18  1  0
 18 19  2  0
 19  5  1  0
 16 11  2  0
  1 20  1  0
  6 21  1  0
  7 22  1  0
  9 23  1  0
  9 24  1  0
 10 25  1  0
 12 26  1  0
 18 27  1  0
 19 28  1  0
M  CHG  4   1  -1  14  -1  15  -1  17  -1
M  END
>  <UniqueID>  (36) 
34

>  <SMILES>  (36) 
[NH-]S(=O)(=O)c1ccc(CNc2cc([O-])[n-]c2[O-])cc1

>  <Energy>  (36) 
53.04856772736838

>  <Genealogy>  (36) 
[NH-]S(=O)(=O)c1ccc(CNc2cc([O-])[n-]c2[O-])cc1 (protonated)
[NH-]S(=O)(=O)c1ccc(CNc2cc([O-])[n-]c2[O-])cc1 (3D coordinates assigned)
[NH-]S(=O)(=O)c1ccc(CNc2cc([O-])[n-]c2[O-])cc1 (optimized conformer: 53.04856772736838 kcal/mol)

>  <smiles>  (36) 
NS(=O)(=O)c1ccc(CNc2cc(O)[nH]c2O)cc1

>  <score_type>  (36) 
oracle

>  <origin>  (36) 
adg

>  <m_score__min__energy>  (36) 
-15.6

>  <m_primary>  (36) 
energy

$$$$
36:0
     RDKit          3D

 57 60  0  0  0  0  0  0  0  0999 V2000
   58.3930   27.2230   43.2400 C   0  0  0  0  0  0  0  0  0  0  0  0
   58.9620   27.2070   44.5960 N   0  0  0  0  0  0  0  0  0  0  0  0
   59.7080   28.2790   45.0030 C   0  0  0  0  0  0  0  0  0  0  0  0
   60.2800   28.3160   46.2740 C   0  0  0  0  0  0  0  0  0  0  0  0
   60.0830   27.2490   47.1510 C   0  0  0  0  0  0  0  0  0  0  0  0
   60.7330   27.2470   48.5040 C   0  0  0  0  0  0  0  0  0  0  0  0
   60.0460   28.1590   49.3540 O   0  0  0  0  0  0  0  0  0  0  0  0
   60.2830   29.5350   49.3370 C   0  0  0  0  0  0  0  0  0  0  0  0
   61.1510   30.0420   50.1000 O   0  0  0  0  0  0  0  0  0  0  0  0
   59.5600   30.3550   48.4090 N   0  0  0  0  0  0  0  0  0  0  0  0
   59.5610   31.7930   48.4250 C   0  0  0  0  0  0  0  0  0  0  0  0
   59.8340   32.4660   49.6240 C   0  0  0  0  0  0  0  0  0  0  0  0
   59.8640   33.8610   49.6600 C   0  0  0  0  0  0  0  0  0  0  0  0
   59.6360   34.5990   48.4970 C   0  0  0  0  0  0  0  0  0  0  0  0
   59.3830   33.9470   47.2770 C   0  0  0  0  0  0  0  0  0  0  0  0
   59.1520   34.7310   46.0410 C   0  0  0  0  0  0  0  0  0  0  0  0
   59.9550   35.6480   45.7190 O   0  0  0  0  0  0  0  0  0  0  0  0
   58.0410   34.4180   45.1880 N   0  0  0  0  0  0  0  0  0  0  0  0
   57.8040   33.1720   44.5150 C   0  0  0  0  0  0  0  0  0  0  0  0
   58.1670   33.0580   43.1690 C   0  0  0  0  0  0  0  0  0  0  0  0
   57.9690   31.8590   42.4820 C   0  0  0  0  0  0  0  0  0  0  0  0
   57.4180   30.7570   43.1400 C   0  0  0  0  0  0  0  0  0  0  0  0
   57.0700   30.8380   44.5000 C   0  0  0  0  0  0  0  0  0  0  0  0
   56.5030   29.6620   45.2010 C   0  0  0  0  0  0  0  0  0  0  0  0
   55.1850   29.2060   44.9030 N   0  0  0  0  0  0  0  0  0  0  0  0
   57.1830   29.0510   46.0690 O   0  0  0  0  0  0  0  0  0  0  0  0
   57.2750   32.0520   45.1840 C   0  0  0  0  0  0  0  0  0  0  0  0
   59.3540   32.5390   47.2500 C   0  0  0  0  0  0  0  0  0  0  0  0
   59.3430   26.1450   46.7230 C   0  0  0  0  0  0  0  0  0  0  0  0
   58.7850   26.1250   45.4320 C   0  0  0  0  0  0  0  0  0  0  0  0
   57.9690   24.9160   45.0260 C   0  0  0  0  0  0  0  0  0  0  0  0
   56.5280   25.0950   45.3900 C   0  0  0  0  0  0  0  0  0  0  0  0
   55.8860   26.2740   45.6930 C   0  0  0  0  0  0  0  0  0  0  0  0
   54.6120   25.9650   45.9950 N   0  0  0  0  0  0  0  0  0  0  0  0
   54.4960   24.6490   45.8840 N   0  0  0  0  0  0  0  0  0  0  0  0
   55.6430   24.0920   45.5230 N   0  0  0  0  0  0  0  0  0  0  0  0
   57.2953   27.2539   43.3033 H   0  0  0  0  0  0  0  0  0  0  0  0
   58.7543   28.1113   42.7012 H   0  0  0  0  0  0  0  0  0  0  0  0
   58.7038   26.3158   42.7012 H   0  0  0  0  0  0  0  0  0  0  0  0
   59.8590   29.1252   44.3166 H   0  0  0  0  0  0  0  0  0  0  0  0
   60.8835   29.1820   46.5837 H   0  0  0  0  0  0  0  0  0  0  0  0
   60.6849   26.2356   48.9339 H   0  0  0  0  0  0  0  0  0  0  0  0
   61.7858   27.5514   48.4090 H   0  0  0  0  0  0  0  0  0  0  0  0
   59.0670   29.8690   47.6260 H   0  0  0  0  0  0  0  0  0  0  0  0
   60.0257   31.8912   50.5421 H   0  0  0  0  0  0  0  0  0  0  0  0
   60.0680   34.3806   50.6078 H   0  0  0  0  0  0  0  0  0  0  0  0
   59.6544   35.6982   48.5353 H   0  0  0  0  0  0  0  0  0  0  0  0
   58.6115   33.9190   42.6483 H   0  0  0  0  0  0  0  0  0  0  0  0
   58.2474   31.7819   41.4206 H   0  0  0  0  0  0  0  0  0  0  0  0
   57.2550   29.8184   42.5900 H   0  0  0  0  0  0  0  0  0  0  0  0
   54.3930   29.3800   45.5630 H   0  0  0  0  0  0  0  0  0  0  0  0
   57.0193   32.1257   46.2513 H   0  0  0  0  0  0  0  0  0  0  0  0
   59.1675   32.0169   46.2999 H   0  0  0  0  0  0  0  0  0  0  0  0
   59.1960   25.2885   47.3973 H   0  0  0  0  0  0  0  0  0  0  0  0
   58.0505   24.7758   43.9380 H   0  0  0  0  0  0  0  0  0  0  0  0
   58.3583   24.0355   45.5581 H   0  0  0  0  0  0  0  0  0  0  0  0
   56.3310   27.2800   45.6890 H   0  0  0  0  0  0  0  0  0  0  0  0
  1  2  1  0
  2  3  2  0
  3  4  1  0
  4  5  2  0
  5  6  1  0
  6  7  1  0
  7  8  1  0
  8  9  2  0
  8 10  1  0
 10 11  1  0
 11 12  2  0
 12 13  1  0
 13 14  2  0
 14 15  1  0
 15 16  1  0
 16 17  2  0
 16 18  1  0
 18 19  1  0
 19 20  2  0
 20 21  1  0
 21 22  2  0
 22 23  1  0
 23 24  1  0
 24 25  1  0
 24 26  2  0
 23 27  2  0
 15 28  2  0
  5 29  1  0
 29 30  2  0
 30 31  1  0
 31 32  1  0
 32 33  2  0
 33 34  1  0
 34 35  2  0
 35 36  1  0
 30  2  1  0
 36 32  1  0
 28 11  1  0
 27 19  1  0
  1 37  1  0
  1 38  1  0
  1 39  1  0
  3 40  1  0
  4 41  1  0
  6 42  1  0
  6 43  1  0
 10 44  1  0
 12 45  1  0
 13 46  1  0
 14 47  1  0
 20 48  1  0
 21 49  1  0
 22 50  1  0
 25 51  1  0
 27 52  1  0
 28 53  1  0
 29 54  1  0
 31 55  1  0
 31 56  1  0
 33 57  1  0
M  CHG  4   2   1  18  -1  25  -1  36  -1
M  END
>  <UniqueID>  (37) 
35

>  <SMILES>  (37) 
C[n+]1ccc(COC(=O)Nc2cccc(C(=O)[N-]c3cccc(C([NH-])=O)c3)c2)cc1Cc1cnn[n-]1

>  <Energy>  (37) 
102.28737939399416

>  <Genealogy>  (37) 
C[n+]1ccc(COC(=O)Nc2cccc(C(=O)[N-]c3cccc(C([NH-])=O)c3)c2)cc1Cc1cnn[n-]1 (protonated)
C[n+]1ccc(COC(=O)Nc2cccc(C(=O)[N-]c3cccc(C([NH-])=O)c3)c2)cc1Cc1cnn[n-]1 (3D coordinates assigned)
C[n+]1ccc(COC(=O)Nc2cccc(C(=O)[N-]c3cccc(C([NH-])=O)c3)c2)cc1Cc1cnn[n-]1 (optimized conformer: 102.28737939399416 kcal/mol)

>  <smiles>  (37) 
C[n+]1ccc(COC(=O)Nc2cccc(C(=O)Nc3cccc(C(N)=O)c3)c2)cc1Cc1cnn[nH]1

>  <score_type>  (37) 
oracle

>  <origin>  (37) 
adg

>  <m_score__min__energy>  (37) 
-15.31

>  <m_primary>  (37) 
energy

$$$$
37:0
     RDKit          3D

 40 41  0  0  0  0  0  0  0  0999 V2000
   61.5650   31.1320   47.5340 C   0  0  0  0  0  0  0  0  0  0  0  0
   60.8190   30.1220   46.6780 C   0  0  0  0  0  0  0  0  0  0  0  0
   60.3180   29.0760   47.5020 O   0  0  0  0  0  0  0  0  0  0  0  0
   58.9650   28.9580   47.8330 C   0  0  0  0  0  0  0  0  0  0  0  0
   58.5160   29.4660   48.8960 O   0  0  0  0  0  0  0  0  0  0  0  0
   58.0560   28.1800   46.9390 C   0  0  0  0  0  0  0  0  0  0  0  0
   57.4950   29.0730   45.8720 C   0  0  0  0  0  0  0  0  0  0  0  0
   58.1660   30.2090   45.5390 N   0  0  0  0  0  0  0  0  0  0  0  0
   57.7080   31.0820   44.6030 C   0  0  0  0  0  0  0  0  0  0  0  0
   58.4850   32.2530   44.3200 N   0  0  0  0  0  0  0  0  0  0  0  0
   58.3410   33.7730   45.1430 S   0  0  0  0  0  0  0  0  0  0  0  0
   59.2530   34.7740   44.4930 O   0  0  0  0  0  0  0  0  0  0  0  0
   56.9240   34.2630   45.0280 O   0  0  0  0  0  0  0  0  0  0  0  0
   58.8100   33.5870   46.8300 C   0  0  0  0  0  0  0  0  0  0  0  0
   58.1660   32.6340   47.6260 C   0  0  0  0  0  0  0  0  0  0  0  0
   58.5200   32.4860   48.9720 C   0  0  0  0  0  0  0  0  0  0  0  0
   59.5270   33.2870   49.5310 C   0  0  0  0  0  0  0  0  0  0  0  0
   59.8740   33.1500   50.9830 C   0  0  0  0  0  0  0  0  0  0  0  0
   60.1610   34.2540   48.7340 C   0  0  0  0  0  0  0  0  0  0  0  0
   59.8090   34.3970   47.3880 C   0  0  0  0  0  0  0  0  0  0  0  0
   56.4940   30.8160   43.9480 C   0  0  0  0  0  0  0  0  0  0  0  0
   55.7730   29.6660   44.2790 C   0  0  0  0  0  0  0  0  0  0  0  0
   54.6780   29.4250   43.7050 O   0  0  0  0  0  0  0  0  0  0  0  0
   56.2670   28.7860   45.2490 C   0  0  0  0  0  0  0  0  0  0  0  0
   55.5470   27.6450   45.5870 O   0  0  0  0  0  0  0  0  0  0  0  0
   61.3979   30.9058   48.5974 H   0  0  0  0  0  0  0  0  0  0  0  0
   62.6410   31.0770   47.3121 H   0  0  0  0  0  0  0  0  0  0  0  0
   61.1961   32.1443   47.3121 H   0  0  0  0  0  0  0  0  0  0  0  0
   59.9808   30.6210   46.1697 H   0  0  0  0  0  0  0  0  0  0  0  0
   61.5052   29.7002   45.9289 H   0  0  0  0  0  0  0  0  0  0  0  0
   58.6209   27.3616   46.4688 H   0  0  0  0  0  0  0  0  0  0  0  0
   57.2289   27.7686   47.5361 H   0  0  0  0  0  0  0  0  0  0  0  0
   57.3791   31.9990   47.1929 H   0  0  0  0  0  0  0  0  0  0  0  0
   58.0064   31.7384   49.5943 H   0  0  0  0  0  0  0  0  0  0  0  0
   59.0246   33.4854   51.5962 H   0  0  0  0  0  0  0  0  0  0  0  0
   60.0962   32.0967   51.2091 H   0  0  0  0  0  0  0  0  0  0  0  0
   60.7558   33.7675   51.2091 H   0  0  0  0  0  0  0  0  0  0  0  0
   60.9367   34.9009   49.1697 H   0  0  0  0  0  0  0  0  0  0  0  0
   60.3177   35.1475   46.7651 H   0  0  0  0  0  0  0  0  0  0  0  0
   56.1144   31.5072   43.1811 H   0  0  0  0  0  0  0  0  0  0  0  0
  1  2  1  0
  2  3  1  0
  3  4  1  0
  4  5  2  0
  4  6  1  0
  6  7  1  0
  7  8  1  0
  8  9  1  0
  9 10  1  0
 10 11  1  0
 11 12  2  0
 11 13  2  0
 11 14  1  0
 14 15  2  0
 15 16  1  0
 16 17  2  0
 17 18  1  0
 17 19  1  0
 19 20  2  0
  9 21  2  0
 21 22  1  0
 22 23  2  0
 22 24  1  0
 24 25  1  0
 24  7  2  0
 20 14  1  0
  1 26  1  0
  1 27  1  0
  1 28  1  0
  2 29  1  0
  2 30  1  0
  6 31  1  0
  6 32  1  0
 15 33  1  0
 16 34  1  0
 18 35  1  0
 18 36  1  0
 18 37  1  0
 19 38  1  0
 20 39  1  0
 21 40  1  0
M  CHG  3   8  -1  10  -1  25  -1
M  END
>  <UniqueID>  (38) 
36

>  <SMILES>  (38) 
CCOC(=O)Cc1[n-]c([N-]S(=O)(=O)c2ccc(C)cc2)cc(=O)c1[O-]

>  <Energy>  (38) 
36.89895096681904

>  <Genealogy>  (38) 
CCOC(=O)Cc1[n-]c([N-]S(=O)(=O)c2ccc(C)cc2)cc(=O)c1[O-] (protonated)
CCOC(=O)Cc1[n-]c([N-]S(=O)(=O)c2ccc(C)cc2)cc(=O)c1[O-] (3D coordinates assigned)
CCOC(=O)Cc1[n-]c([N-]S(=O)(=O)c2ccc(C)cc2)cc(=O)c1[O-] (optimized conformer: 36.89895096681904 kcal/mol)

>  <smiles>  (38) 
CCOC(=O)Cc1[nH]c(NS(=O)(=O)c2ccc(C)cc2)cc(=O)c1O

>  <score_type>  (38) 
oracle

>  <origin>  (38) 
adg

>  <m_score__min__energy>  (38) 
-13.380000000000001

>  <m_primary>  (38) 
energy

$$$$
38:0
     RDKit          3D

 44 48  0  0  0  0  0  0  0  0999 V2000
   53.8117   32.5656   52.4111 H   0  0  0  0  0  0  0  0  0  0  0  0
   53.5770   31.5710   52.0040 C   0  0  0  0  0  0  0  0  0  0  0  0
   52.5470   31.4780   50.9560 C   0  0  0  0  0  0  0  0  0  0  0  0
   52.5210   30.5000   50.0330 N   0  0  0  0  0  0  0  0  0  0  0  0
   51.3890   30.7520   49.3390 C   0  0  0  0  0  0  0  0  0  0  0  0
   51.0210   30.0450   48.3650 O   0  0  0  0  0  0  0  0  0  0  0  0
   50.6800   31.8130   49.7760 N   0  0  0  0  0  0  0  0  0  0  0  0
   51.4180   32.2560   50.8070 C   0  0  0  0  0  0  0  0  0  0  0  0
   51.0380   33.3140   51.6230 O   0  0  0  0  0  0  0  0  0  0  0  0
   54.2460   30.5170   52.4920 C   0  0  0  0  0  0  0  0  0  0  0  0
   53.7910   29.4900   53.3140 C   0  0  0  0  0  0  0  0  0  0  0  0
   52.7586   29.3723   53.6751 H   0  0  0  0  0  0  0  0  0  0  0  0
   54.8200   28.6600   53.5980 N   0  0  0  0  0  0  0  0  0  0  0  0
   54.7310   27.8220   54.2020 H   0  0  0  0  0  0  0  0  0  0  0  0
   55.9130   29.1210   52.9980 N   0  0  0  0  0  0  0  0  0  0  0  0
   57.2020   28.6490   52.9770 C   0  0  0  0  0  0  0  0  0  0  0  0
   57.6060   27.5700   53.5900 N   0  0  0  0  0  0  0  0  0  0  0  0
   58.1790   27.4210   54.9200 C   0  0  0  0  0  0  0  0  0  0  0  0
   58.2621   26.3242   54.9289 H   0  0  0  0  0  0  0  0  0  0  0  0
   57.6780   28.4940   55.8720 C   0  0  0  0  0  0  0  0  0  0  0  0
   56.9299   29.2252   55.5320 H   0  0  0  0  0  0  0  0  0  0  0  0
   57.2232   28.4945   56.8736 H   0  0  0  0  0  0  0  0  0  0  0  0
   59.0990   28.5560   55.3370 C   0  0  0  0  0  0  0  0  0  0  0  0
   59.3795   29.3321   54.6097 H   0  0  0  0  0  0  0  0  0  0  0  0
   60.0989   28.6200   55.7909 H   0  0  0  0  0  0  0  0  0  0  0  0
   58.1220   29.3550   52.2630 N   0  0  0  0  0  0  0  0  0  0  0  0
   57.7840   30.4930   51.5890 C   0  0  0  0  0  0  0  0  0  0  0  0
   58.8220   31.2170   50.8340 C   0  0  0  0  0  0  0  0  0  0  0  0
   59.5917   31.7712   51.3911 H   0  0  0  0  0  0  0  0  0  0  0  0
   58.8640   31.2260   49.4940 C   0  0  0  0  0  0  0  0  0  0  0  0
   58.7724   30.2655   48.9657 H   0  0  0  0  0  0  0  0  0  0  0  0
   59.0270   32.4580   48.6830 C   0  0  0  0  0  0  0  0  0  0  0  0
   58.1790   32.6540   47.5790 C   0  0  0  0  0  0  0  0  0  0  0  0
   57.4211   31.8958   47.3325 H   0  0  0  0  0  0  0  0  0  0  0  0
   58.2900   33.8030   46.7920 C   0  0  0  0  0  0  0  0  0  0  0  0
   57.6262   33.9414   45.9258 H   0  0  0  0  0  0  0  0  0  0  0  0
   59.2420   34.7760   47.1030 C   0  0  0  0  0  0  0  0  0  0  0  0
   59.3319   35.6776   46.4793 H   0  0  0  0  0  0  0  0  0  0  0  0
   60.0800   34.6030   48.2070 C   0  0  0  0  0  0  0  0  0  0  0  0
   60.8257   35.3726   48.4553 H   0  0  0  0  0  0  0  0  0  0  0  0
   59.9740   33.4540   48.9980 C   0  0  0  0  0  0  0  0  0  0  0  0
   60.6326   33.3270   49.8699 H   0  0  0  0  0  0  0  0  0  0  0  0
   56.4990   30.9440   51.6230 N   0  0  0  0  0  0  0  0  0  0  0  0
   55.5860   30.2400   52.3320 C   0  0  0  0  0  0  0  0  0  0  0  0
  1  2  1  0
  2  3  1  0
  3  4  1  0
  4  5  1  0
  5  6  2  0
  5  7  1  0
  7  8  1  0
  8  9  1  0
  2 10  2  3
 10 11  1  0
 11 12  1  0
 11 13  2  0
 13 14  1  0
 13 15  1  0
 15 16  1  0
 16 17  2  3
 17 18  1  0
 18 19  1  0
 18 20  1  0
 20 21  1  0
 20 22  1  0
 20 23  1  0
 23 24  1  0
 23 25  1  0
 16 26  1  0
 26 27  2  0
 27 28  1  0
 28 29  1  0
 28 30  2  0
 30 31  1  0
 30 32  1  0
 32 33  2  0
 33 34  1  0
 33 35  1  0
 35 36  1  0
 35 37  2  0
 37 38  1  0
 37 39  1  0
 39 40  1  0
 39 41  2  0
 41 42  1  0
 27 43  1  0
 43 44  2  0
  8  3  2  0
 44 10  1  0
 44 15  1  0
 23 18  1  0
 41 32  1  0
M  CHG  4   4  -1   7  -1   9  -1  13   1
M  END
>  <UniqueID>  (39) 
37

>  <SMILES>  (39) 
O=c1[n-]c([O-])c(C=c2c[nH+]n3c(=NC4CC4)nc(/C=C/c4ccccc4)nc23)[n-]1

>  <Energy>  (39) 
397.4449210769039

>  <Genealogy>  (39) 
O=c1[n-]c([O-])c(C=c2c[nH+]n3c(=NC4CC4)nc(C=Cc4ccccc4)nc23)[n-]1 (protonated)
O=c1[n-]c([O-])c(C=c2c[nH+]n3c(=NC4CC4)nc(/C=C/c4ccccc4)nc23)[n-]1 (cis-trans isomerization)
O=c1[n-]c([O-])c(C=c2c[nH+]n3c(=NC4CC4)nc(/C=C/c4ccccc4)nc23)[n-]1 (3D coordinates assigned)
O=c1[n-]c([O-])c(C=c2c[nH+]n3c(=NC4CC4)nc(/C=C/c4ccccc4)nc23)[n-]1 (nonaromatic ring conformer: 397.4449210769039 kcal/mol)

>  <smiles>  (39) 
O=c1[nH]c(O)c(C=c2cnn3c(=NC4CC4)nc(C=Cc4ccccc4)nc23)[nH]1

>  <score_type>  (39) 
oracle

>  <origin>  (39) 
adg

>  <m_score__min__energy>  (39) 
-16.149999999999999

>  <m_primary>  (39) 
energy

$$$$
39:0
     RDKit          3D

 28 29  0  0  0  0  0  0  0  0999 V2000
   58.1810   28.9010   47.0840 C   0  0  0  0  0  0  0  0  0  0  0  0
   58.2010   28.5290   45.6690 N   0  0  0  0  0  0  0  0  0  0  0  0
   58.9380   27.5610   45.0840 C   0  0  0  0  0  0  0  0  0  0  0  0
   59.9030   26.6450   45.7830 C   0  0  0  0  0  0  0  0  0  0  0  0
   59.2050   25.6100   46.4760 O   0  0  0  0  0  0  0  0  0  0  0  0
   57.9100   25.1600   46.1770 C   0  0  0  0  0  0  0  0  0  0  0  0
   57.7450   23.8210   45.8020 C   0  0  0  0  0  0  0  0  0  0  0  0
   56.4760   23.3200   45.4990 C   0  0  0  0  0  0  0  0  0  0  0  0
   55.3580   24.1560   45.5660 C   0  0  0  0  0  0  0  0  0  0  0  0
   55.5090   25.4960   45.9330 C   0  0  0  0  0  0  0  0  0  0  0  0
   54.3990   26.3270   45.9960 O   0  0  0  0  0  0  0  0  0  0  0  0
   56.7790   26.0000   46.2370 C   0  0  0  0  0  0  0  0  0  0  0  0
   58.6570   27.5480   43.7350 C   0  0  0  0  0  0  0  0  0  0  0  0
   57.7340   28.4900   43.4600 N   0  0  0  0  0  0  0  0  0  0  0  0
   57.4740   29.0640   44.6560 C   0  0  0  0  0  0  0  0  0  0  0  0
   56.5110   30.1180   44.8000 N   0  0  0  0  0  0  0  0  0  0  0  0
   56.8630   31.3090   44.9090 O   0  0  0  0  0  0  0  0  0  0  0  0
   55.1740   29.8070   44.8770 O   0  0  0  0  0  0  0  0  0  0  0  0
   58.2298   27.9927   47.7026 H   0  0  0  0  0  0  0  0  0  0  0  0
   59.0459   29.5432   47.3066 H   0  0  0  0  0  0  0  0  0  0  0  0
   57.2522   29.4467   47.3066 H   0  0  0  0  0  0  0  0  0  0  0  0
   60.5744   26.1919   45.0387 H   0  0  0  0  0  0  0  0  0  0  0  0
   60.4815   27.2310   46.5124 H   0  0  0  0  0  0  0  0  0  0  0  0
   58.6211   23.1582   45.7455 H   0  0  0  0  0  0  0  0  0  0  0  0
   56.3569   22.2661   45.2073 H   0  0  0  0  0  0  0  0  0  0  0  0
   54.3595   23.7594   45.3299 H   0  0  0  0  0  0  0  0  0  0  0  0
   56.8952   27.0556   46.5239 H   0  0  0  0  0  0  0  0  0  0  0  0
   59.1153   26.8731   42.9971 H   0  0  0  0  0  0  0  0  0  0  0  0
  1  2  1  0
  2  3  1  0
  3  4  1  0
  4  5  1  0
  5  6  1  0
  6  7  2  0
  7  8  1  0
  8  9  2  0
  9 10  1  0
 10 11  1  0
 10 12  2  0
  3 13  2  0
 13 14  1  0
 14 15  2  0
 15 16  1  0
 16 17  2  0
 16 18  1  0
 15  2  1  0
 12  6  1  0
  1 19  1  0
  1 20  1  0
  1 21  1  0
  4 22  1  0
  4 23  1  0
  7 24  1  0
  8 25  1  0
  9 26  1  0
 12 27  1  0
 13 28  1  0
M  CHG  3  11  -1  16   1  18  -1
M  END
>  <UniqueID>  (40) 
38

>  <SMILES>  (40) 
Cn1c(COc2cccc([O-])c2)cnc1[N+](=O)[O-]

>  <Energy>  (40) 
58.71944801885642

>  <Genealogy>  (40) 
Cn1c(COc2cccc([O-])c2)cnc1[N+](=O)[O-] (protonated)
Cn1c(COc2cccc([O-])c2)cnc1[N+](=O)[O-] (3D coordinates assigned)
Cn1c(COc2cccc([O-])c2)cnc1[N+](=O)[O-] (optimized conformer: 58.71944801885642 kcal/mol)

>  <smiles>  (40) 
Cn1c(COc2cccc(O)c2)cnc1[N+](=O)[O-]

>  <score_type>  (40) 
oracle

>  <origin>  (40) 
adg

>  <m_score__min__energy>  (40) 
-10.17

>  <m_primary>  (40) 
energy

$$$$
40:0
     RDKit          3D

 58 61  0  0  0  0  0  0  0  0999 V2000
   49.7153   31.4612   56.1596 H   0  0  0  0  0  0  0  0  0  0  0  0
   50.0430   31.7240   55.1430 C   0  0  0  0  0  0  0  0  0  0  0  0
   50.3360   30.7430   54.2480 N   0  0  0  0  0  0  0  0  0  0  0  0
   50.7250   31.0110   52.9700 C   0  0  0  0  0  0  0  0  0  0  0  0
   51.0110   29.9960   52.1970 N   0  0  0  0  0  0  0  0  0  0  0  0
   52.1460   29.8450   51.3320 C   0  0  0  0  0  0  0  0  0  0  0  0
   51.9670   29.6360   50.1000 O   0  0  0  0  0  0  0  0  0  0  0  0
   53.5180   29.9980   51.8620 C   0  0  0  0  0  0  0  0  0  0  0  0
   54.2570   31.1620   51.5950 C   0  0  0  0  0  0  0  0  0  0  0  0
   53.7956   31.9845   51.0287 H   0  0  0  0  0  0  0  0  0  0  0  0
   55.5770   31.2820   52.0450 C   0  0  0  0  0  0  0  0  0  0  0  0
   56.1362   32.2102   51.8561 H   0  0  0  0  0  0  0  0  0  0  0  0
   56.1950   30.2210   52.7390 C   0  0  0  0  0  0  0  0  0  0  0  0
   57.5480   30.2380   53.1220 O   0  0  0  0  0  0  0  0  0  0  0  0
   58.4180   29.1060   53.1510 C   0  0  0  0  0  0  0  0  0  0  0  0
   58.9593   29.0863   54.1084 H   0  0  0  0  0  0  0  0  0  0  0  0
   57.8220   28.1879   53.0423 H   0  0  0  0  0  0  0  0  0  0  0  0
   59.4070   29.1920   52.0200 C   0  0  0  0  0  0  0  0  0  0  0  0
   60.2430   28.3020   51.9100 O   0  0  0  0  0  0  0  0  0  0  0  0
   59.3690   30.2860   51.0600 N   0  0  0  0  0  0  0  0  0  0  0  0
   58.4650   30.8050   51.1820 H   0  0  0  0  0  0  0  0  0  0  0  0
   60.4650   31.2510   51.3380 C   0  0  0  0  0  0  0  0  0  0  0  0
   60.1265   31.9687   52.0998 H   0  0  0  0  0  0  0  0  0  0  0  0
   61.3408   30.6899   51.6958 H   0  0  0  0  0  0  0  0  0  0  0  0
   60.8630   32.0160   50.0730 C   0  0  0  0  0  0  0  0  0  0  0  0
   59.9713   32.4961   49.6437 H   0  0  0  0  0  0  0  0  0  0  0  0
   61.6115   32.7778   50.3364 H   0  0  0  0  0  0  0  0  0  0  0  0
   61.4480   31.0910   49.0750 N   0  0  0  0  0  0  0  0  0  0  0  0
   61.4970   31.7240   47.7440 C   0  0  0  0  0  0  0  0  0  0  0  0
   62.3404   32.4293   47.7086 H   0  0  0  0  0  0  0  0  0  0  0  0
   61.6267   30.9423   46.9810 H   0  0  0  0  0  0  0  0  0  0  0  0
   60.2150   32.4680   47.4700 C   0  0  0  0  0  0  0  0  0  0  0  0
   59.0850   31.7960   46.9700 C   0  0  0  0  0  0  0  0  0  0  0  0
   59.1232   30.7100   46.7993 H   0  0  0  0  0  0  0  0  0  0  0  0
   57.9110   32.5070   46.6890 C   0  0  0  0  0  0  0  0  0  0  0  0
   57.0320   31.9792   46.2906 H   0  0  0  0  0  0  0  0  0  0  0  0
   57.8540   33.8870   46.9140 C   0  0  0  0  0  0  0  0  0  0  0  0
   56.9301   34.4428   46.6959 H   0  0  0  0  0  0  0  0  0  0  0  0
   58.9720   34.5580   47.4160 C   0  0  0  0  0  0  0  0  0  0  0  0
   58.9265   35.6425   47.5941 H   0  0  0  0  0  0  0  0  0  0  0  0
   60.1500   33.8540   47.6930 C   0  0  0  0  0  0  0  0  0  0  0  0
   61.0277   34.3876   48.0866 H   0  0  0  0  0  0  0  0  0  0  0  0
   60.7970   29.7530   49.0510 C   0  0  0  0  0  0  0  0  0  0  0  0
   60.7213   29.4186   48.0058 H   0  0  0  0  0  0  0  0  0  0  0  0
   61.4170   29.0742   49.6551 H   0  0  0  0  0  0  0  0  0  0  0  0
   59.3850   29.7600   49.6680 C   0  0  0  0  0  0  0  0  0  0  0  0
   58.7324   30.3903   49.0461 H   0  0  0  0  0  0  0  0  0  0  0  0
   59.0323   28.7186   49.7023 H   0  0  0  0  0  0  0  0  0  0  0  0
   55.4450   29.0740   53.0240 C   0  0  0  0  0  0  0  0  0  0  0  0
   55.9072   28.2482   53.5847 H   0  0  0  0  0  0  0  0  0  0  0  0
   54.1160   28.9650   52.6050 C   0  0  0  0  0  0  0  0  0  0  0  0
   53.5347   28.0660   52.8580 H   0  0  0  0  0  0  0  0  0  0  0  0
   50.7760   32.3630   52.5380 C   0  0  0  0  0  0  0  0  0  0  0  0
   51.0180   32.7150   51.2100 O   0  0  0  0  0  0  0  0  0  0  0  0
   50.5110   33.3800   53.4590 C   0  0  0  0  0  0  0  0  0  0  0  0
   50.5806   34.4331   53.1490 H   0  0  0  0  0  0  0  0  0  0  0  0
   50.1580   33.0620   54.7720 C   0  0  0  0  0  0  0  0  0  0  0  0
   49.9726   33.8599   55.5061 H   0  0  0  0  0  0  0  0  0  0  0  0
  1  2  1  0
  2  3  1  0
  3  4  1  0
  4  5  2  0
  5  6  1  0
  6  7  2  0
  6  8  1  0
  8  9  2  0
  9 10  1  0
  9 11  1  0
 11 12  1  0
 11 13  2  0
 13 14  1  0
 14 15  1  0
 15 16  1  0
 15 17  1  0
 15 18  1  0
 18 19  2  0
 18 20  1  0
 20 21  1  0
 20 22  1  0
 22 23  1  0
 22 24  1  0
 22 25  1  0
 25 26  1  0
 25 27  1  0
 25 28  1  0
 28 29  1  0
 29 30  1  0
 29 31  1  0
 29 32  1  0
 32 33  2  0
 33 34  1  0
 33 35  1  0
 35 36  1  0
 35 37  2  0
 37 38  1  0
 37 39  1  0
 39 40  1  0
 39 41  2  0
 41 42  1  0
 28 43  1  0
 43 44  1  0
 43 45  1  0
 43 46  1  0
 46 47  1  0
 46 48  1  0
 13 49  1  0
 49 50  1  0
 49 51  2  0
 51 52  1  0
  4 53  1  0
 53 54  1  0
 53 55  2  0
 55 56  1  0
 55 57  1  0
 57 58  1  0
 57  2  2  0
 51  8  1  0
 46 20  1  0
 41 32  1  0
M  CHG  3   3  -1  20   1  54  -1
M  END
>  <UniqueID>  (41) 
39

>  <SMILES>  (41) 
O=C(/N=c1/[n-]cccc1[O-])c1ccc(OCC(=O)[NH+]2CCN(Cc3ccccc3)CC2)cc1

>  <Energy>  (41) 
90.09826337095313

>  <Genealogy>  (41) 
O=C(N=c1[n-]cccc1[O-])c1ccc(OCC(=O)[NH+]2CCN(Cc3ccccc3)CC2)cc1 (protonated)
O=C(/N=c1/[n-]cccc1[O-])c1ccc(OCC(=O)[NH+]2CCN(Cc3ccccc3)CC2)cc1 (cis-trans isomerization)
O=C(/N=c1/[n-]cccc1[O-])c1ccc(OCC(=O)[NH+]2CCN(Cc3ccccc3)CC2)cc1 (3D coordinates assigned)
O=C(/N=c1/[n-]cccc1[O-])c1ccc(OCC(=O)[NH+]2CCN(Cc3ccccc3)CC2)cc1 (nonaromatic ring conformer: 90.09826337095313 kcal/mol)

>  <smiles>  (41) 
O=C(N=c1[nH]cccc1O)c1ccc(OCC(=O)N2CCN(Cc3ccccc3)CC2)cc1

>  <score_type>  (41) 
oracle

>  <origin>  (41) 
adg

>  <m_score__min__energy>  (41) 
-12.84

>  <m_primary>  (41) 
energy

$$$$
41:0
     RDKit          3D

 63 66  0  0  0  0  0  0  0  0999 V2000
   61.5160   29.4850   50.4070 C   0  0  0  0  0  0  0  0  0  0  0  0
   60.5750   28.7860   49.4740 C   0  0  0  0  0  0  0  0  0  0  0  0
   60.7800   27.4380   49.1480 C   0  0  0  0  0  0  0  0  0  0  0  0
   59.8690   26.7660   48.3290 C   0  0  0  0  0  0  0  0  0  0  0  0
   58.7320   27.4270   47.8370 C   0  0  0  0  0  0  0  0  0  0  0  0
   57.7010   26.6600   47.0510 C   0  0  0  0  0  0  0  0  0  0  0  0
   57.3460   27.4070   45.8500 N   0  0  0  0  0  0  0  0  0  0  0  0
   57.8440   27.0810   44.5500 C   0  0  0  0  0  0  0  0  0  0  0  0
   57.7970   25.8930   44.1310 O   0  0  0  0  0  0  0  0  0  0  0  0
   58.4900   28.1400   43.7110 C   0  0  0  0  0  0  0  0  0  0  0  0
   58.2040   29.4770   44.2770 N   0  0  0  0  0  0  0  0  0  0  0  0
   57.0850   30.1890   43.8950 C   0  0  0  0  0  0  0  0  0  0  0  0
   56.1310   29.6940   42.8430 C   0  0  0  0  0  0  0  0  0  0  0  0
   56.8180   31.3950   44.4630 N   0  0  0  0  0  0  0  0  0  0  0  0
   57.6120   31.9270   45.4210 C   0  0  0  0  0  0  0  0  0  0  0  0
   57.2890   33.1640   45.9890 C   0  0  0  0  0  0  0  0  0  0  0  0
   58.0890   33.7000   47.0010 C   0  0  0  0  0  0  0  0  0  0  0  0
   59.2150   32.9970   47.4580 C   0  0  0  0  0  0  0  0  0  0  0  0
   60.1830   33.6400   48.7850 S   0  0  0  0  0  0  0  0  0  0  0  0
   59.5340   34.8920   49.3020 O   0  0  0  0  0  0  0  0  0  0  0  0
   60.2100   32.6400   49.9070 O   0  0  0  0  0  0  0  0  0  0  0  0
   61.8280   33.9940   48.2980 N   0  0  0  0  0  0  0  0  0  0  0  0
   62.4550   32.9000   47.5180 C   0  0  0  0  0  0  0  0  0  0  0  0
   63.8090   32.4390   48.0750 C   0  0  0  0  0  0  0  0  0  0  0  0
   63.6990   32.2220   49.5860 C   0  0  0  0  0  0  0  0  0  0  0  0
   65.0000   31.6430   50.1530 C   0  0  0  0  0  0  0  0  0  0  0  0
   63.3060   33.5300   50.3060 C   0  0  0  0  0  0  0  0  0  0  0  0
   62.6410   34.5730   49.3840 C   0  0  0  0  0  0  0  0  0  0  0  0
   59.5590   31.7760   46.8620 C   0  0  0  0  0  0  0  0  0  0  0  0
   58.7500   31.2270   45.8490 C   0  0  0  0  0  0  0  0  0  0  0  0
   59.0300   29.9850   45.2540 C   0  0  0  0  0  0  0  0  0  0  0  0
   60.0440   29.3320   45.6310 O   0  0  0  0  0  0  0  0  0  0  0  0
   58.5190   28.7700   48.1740 C   0  0  0  0  0  0  0  0  0  0  0  0
   59.4350   29.4450   48.9900 C   0  0  0  0  0  0  0  0  0  0  0  0
   61.2278   29.2709   51.4468 H   0  0  0  0  0  0  0  0  0  0  0  0
   62.5411   29.1276   50.2296 H   0  0  0  0  0  0  0  0  0  0  0  0
   61.4700   30.5696   50.2296 H   0  0  0  0  0  0  0  0  0  0  0  0
   61.6611   26.9075   49.5383 H   0  0  0  0  0  0  0  0  0  0  0  0
   60.0437   25.7118   48.0678 H   0  0  0  0  0  0  0  0  0  0  0  0
   58.1127   25.6809   46.7648 H   0  0  0  0  0  0  0  0  0  0  0  0
   56.8032   26.5153   47.6699 H   0  0  0  0  0  0  0  0  0  0  0  0
   59.5777   27.9772   43.6924 H   0  0  0  0  0  0  0  0  0  0  0  0
   58.0878   28.0866   42.6886 H   0  0  0  0  0  0  0  0  0  0  0  0
   55.2545   29.2392   43.3277 H   0  0  0  0  0  0  0  0  0  0  0  0
   55.8067   30.5376   42.2159 H   0  0  0  0  0  0  0  0  0  0  0  0
   56.6340   28.9432   42.2159 H   0  0  0  0  0  0  0  0  0  0  0  0
   56.4040   33.7152   45.6383 H   0  0  0  0  0  0  0  0  0  0  0  0
   57.8359   34.6758   47.4411 H   0  0  0  0  0  0  0  0  0  0  0  0
   61.7700   32.0393   47.5153 H   0  0  0  0  0  0  0  0  0  0  0  0
   62.6414   33.2931   46.5077 H   0  0  0  0  0  0  0  0  0  0  0  0
   64.1015   31.4957   47.5906 H   0  0  0  0  0  0  0  0  0  0  0  0
   64.5674   33.2095   47.8722 H   0  0  0  0  0  0  0  0  0  0  0  0
   62.8996   31.4885   49.7672 H   0  0  0  0  0  0  0  0  0  0  0  0
   64.9607   31.6605   51.2522 H   0  0  0  0  0  0  0  0  0  0  0  0
   65.1213   30.6059   49.8069 H   0  0  0  0  0  0  0  0  0  0  0  0
   65.8517   32.2470   49.8069 H   0  0  0  0  0  0  0  0  0  0  0  0
   62.6021   33.2828   51.1143 H   0  0  0  0  0  0  0  0  0  0  0  0
   64.2365   33.9811   50.6811 H   0  0  0  0  0  0  0  0  0  0  0  0
   61.9894   35.2108   49.9994 H   0  0  0  0  0  0  0  0  0  0  0  0
   63.4565   35.1325   48.9024 H   0  0  0  0  0  0  0  0  0  0  0  0
   60.4653   31.2442   47.1872 H   0  0  0  0  0  0  0  0  0  0  0  0
   57.6296   29.2957   47.7965 H   0  0  0  0  0  0  0  0  0  0  0  0
   59.2597   30.4986   49.2532 H   0  0  0  0  0  0  0  0  0  0  0  0
  1  2  1  0
  2  3  2  0
  3  4  1  0
  4  5  2  0
  5  6  1  0
  6  7  1  0
  7  8  1  0
  8  9  2  0
  8 10  1  0
 10 11  1  0
 11 12  1  0
 12 13  1  0
 12 14  2  0
 14 15  1  0
 15 16  2  0
 16 17  1  0
 17 18  2  0
 18 19  1  0
 19 20  2  0
 19 21  2  0
 19 22  1  0
 22 23  1  0
 23 24  1  0
 24 25  1  0
 25 26  1  0
 25 27  1  0
 27 28  1  0
 18 29  1  0
 29 30  2  0
 30 31  1  0
 31 32  2  0
  5 33  1  0
 33 34  2  0
 34  2  1  0
 31 11  1  0
 30 15  1  0
 28 22  1  0
  1 35  1  0
  1 36  1  0
  1 37  1  0
  3 38  1  0
  4 39  1  0
  6 40  1  0
  6 41  1  0
 10 42  1  0
 10 43  1  0
 13 44  1  0
 13 45  1  0
 13 46  1  0
 16 47  1  0
 17 48  1  0
 23 49  1  0
 23 50  1  0
 24 51  1  0
 24 52  1  0
 25 53  1  0
 26 54  1  0
 26 55  1  0
 26 56  1  0
 27 57  1  0
 27 58  1  0
 28 59  1  0
 28 60  1  0
 29 61  1  0
 33 62  1  0
 34 63  1  0
M  CHG  1   7  -1
M  END
>  <UniqueID>  (42) 
40

>  <SMILES>  (42) 
Cc1ccc(C[N-]C(=O)Cn2c(C)nc3ccc(S(=O)(=O)N4CCC(C)CC4)cc3c2=O)cc1

>  <Energy>  (42) 
72.38691375383381

>  <Genealogy>  (42) 
Cc1ccc(C[N-]C(=O)Cn2c(C)nc3ccc(S(=O)(=O)N4CCC(C)CC4)cc3c2=O)cc1 (protonated)
Cc1ccc(C[N-]C(=O)Cn2c(C)nc3ccc(S(=O)(=O)N4CCC(C)CC4)cc3c2=O)cc1 (3D coordinates assigned)
Cc1ccc(C[N-]C(=O)Cn2c(C)nc3ccc(S(=O)(=O)N4CCC(C)CC4)cc3c2=O)cc1 (nonaromatic ring conformer: 72.38691375383381 kcal/mol)

>  <smiles>  (42) 
Cc1ccc(CNC(=O)Cn2c(C)nc3ccc(S(=O)(=O)N4CCC(C)CC4)cc3c2=O)cc1

>  <score_type>  (42) 
oracle

>  <origin>  (42) 
adg

>  <m_score__min__energy>  (42) 
-12.51

>  <m_primary>  (42) 
energy

$$$$
42:0
     RDKit          3D

 71 75  0  0  0  0  0  0  0  0999 V2000
   55.2950   24.0090   44.2580 C   0  0  0  0  0  0  0  0  0  0  0  0
   54.4340   24.7450   45.6300 S   0  0  0  0  0  0  0  0  0  0  0  0
   54.6240   23.8840   46.8480 O   0  0  0  0  0  0  0  0  0  0  0  0
   52.9720   24.8460   45.2940 O   0  0  0  0  0  0  0  0  0  0  0  0
   55.0860   26.3270   45.9190 N   0  0  0  0  0  0  0  0  0  0  0  0
   56.4830   26.6330   46.0230 C   0  0  0  0  0  0  0  0  0  0  0  0
   57.3620   25.8480   46.7930 C   0  0  0  0  0  0  0  0  0  0  0  0
   58.7170   26.1820   46.8710 C   0  0  0  0  0  0  0  0  0  0  0  0
   59.2090   27.2910   46.1790 C   0  0  0  0  0  0  0  0  0  0  0  0
   58.3500   28.0670   45.3870 C   0  0  0  0  0  0  0  0  0  0  0  0
   58.8870   29.2630   44.6560 C   0  0  0  0  0  0  0  0  0  0  0  0
   60.1130   29.7210   45.3110 N   0  0  0  0  0  0  0  0  0  0  0  0
   60.1890   30.4340   46.3990 C   0  0  0  0  0  0  0  0  0  0  0  0
   60.8780   29.9510   47.4620 N   0  0  0  0  0  0  0  0  0  0  0  0
   60.9730   30.6410   48.6150 C   0  0  0  0  0  0  0  0  0  0  0  0
   61.6220   30.1410   49.5740 O   0  0  0  0  0  0  0  0  0  0  0  0
   60.3710   31.8610   48.7320 N   0  0  0  0  0  0  0  0  0  0  0  0
   60.5080   32.6310   49.9860 C   0  0  0  0  0  0  0  0  0  0  0  0
   61.9540   32.9670   50.2440 C   0  0  0  0  0  0  0  0  0  0  0  0
   62.8240   33.2210   49.1740 C   0  0  0  0  0  0  0  0  0  0  0  0
   64.1720   33.5020   49.4100 C   0  0  0  0  0  0  0  0  0  0  0  0
   64.6770   33.5370   50.7230 C   0  0  0  0  0  0  0  0  0  0  0  0
   66.1160   33.8200   50.9720 C   0  0  0  0  0  0  0  0  0  0  0  0
   66.5040   34.8840   51.8080 C   0  0  0  0  0  0  0  0  0  0  0  0
   67.8570   35.1350   52.0530 C   0  0  0  0  0  0  0  0  0  0  0  0
   68.8370   34.3280   51.4690 C   0  0  0  0  0  0  0  0  0  0  0  0
   68.4660   33.2720   50.6360 C   0  0  0  0  0  0  0  0  0  0  0  0
   67.1140   33.0190   50.3860 C   0  0  0  0  0  0  0  0  0  0  0  0
   63.8000   33.2860   51.7940 C   0  0  0  0  0  0  0  0  0  0  0  0
   62.4530   33.0010   51.5560 C   0  0  0  0  0  0  0  0  0  0  0  0
   59.6870   32.3750   47.6580 C   0  0  0  0  0  0  0  0  0  0  0  0
   59.1600   33.5110   47.7620 O   0  0  0  0  0  0  0  0  0  0  0  0
   59.5740   31.6700   46.4770 N   0  0  0  0  0  0  0  0  0  0  0  0
   58.9140   32.2340   45.3290 N   0  0  0  0  0  0  0  0  0  0  0  0
   57.4230   32.1240   45.4040 C   0  0  0  0  0  0  0  0  0  0  0  0
   56.6510   33.4330   45.6700 C   0  0  0  0  0  0  0  0  0  0  0  0
   57.2460   34.6050   44.9080 C   0  0  0  0  0  0  0  0  0  0  0  0
   58.6990   34.7830   45.3100 C   0  0  0  0  0  0  0  0  0  0  0  0
   59.5210   33.5420   44.9440 C   0  0  0  0  0  0  0  0  0  0  0  0
   56.9850   27.7420   45.3250 C   0  0  0  0  0  0  0  0  0  0  0  0
   56.0804   23.3377   44.6355 H   0  0  0  0  0  0  0  0  0  0  0  0
   54.5849   23.4344   43.6451 H   0  0  0  0  0  0  0  0  0  0  0  0
   55.7521   24.7999   43.6451 H   0  0  0  0  0  0  0  0  0  0  0  0
   56.9815   24.9695   47.3347 H   0  0  0  0  0  0  0  0  0  0  0  0
   59.3983   25.5693   47.4796 H   0  0  0  0  0  0  0  0  0  0  0  0
   60.2737   27.5567   46.2554 H   0  0  0  0  0  0  0  0  0  0  0  0
   59.1080   28.9880   43.6141 H   0  0  0  0  0  0  0  0  0  0  0  0
   58.1389   30.0694   44.6699 H   0  0  0  0  0  0  0  0  0  0  0  0
   59.9290   33.5627   49.9037 H   0  0  0  0  0  0  0  0  0  0  0  0
   60.1301   32.0219   50.8204 H   0  0  0  0  0  0  0  0  0  0  0  0
   62.4427   33.1989   48.1424 H   0  0  0  0  0  0  0  0  0  0  0  0
   64.8446   33.6976   48.5619 H   0  0  0  0  0  0  0  0  0  0  0  0
   65.7373   35.5222   52.2716 H   0  0  0  0  0  0  0  0  0  0  0  0
   68.1509   35.9694   52.7068 H   0  0  0  0  0  0  0  0  0  0  0  0
   69.9011   34.5253   51.6661 H   0  0  0  0  0  0  0  0  0  0  0  0
   69.2380   32.6380   50.1756 H   0  0  0  0  0  0  0  0  0  0  0  0
   66.8278   32.1870   49.7258 H   0  0  0  0  0  0  0  0  0  0  0  0
   64.1776   33.3143   52.8268 H   0  0  0  0  0  0  0  0  0  0  0  0
   61.7789   32.8019   52.4022 H   0  0  0  0  0  0  0  0  0  0  0  0
   59.1320   31.6290   44.5050 H   0  0  0  0  0  0  0  0  0  0  0  0
   57.0690   31.7155   44.4460 H   0  0  0  0  0  0  0  0  0  0  0  0
   57.2208   31.4834   46.2750 H   0  0  0  0  0  0  0  0  0  0  0  0
   55.6050   33.2992   45.3569 H   0  0  0  0  0  0  0  0  0  0  0  0
   56.7170   33.6559   46.7452 H   0  0  0  0  0  0  0  0  0  0  0  0
   57.1857   34.4086   43.8274 H   0  0  0  0  0  0  0  0  0  0  0  0
   56.6845   35.5206   45.1456 H   0  0  0  0  0  0  0  0  0  0  0  0
   59.1135   35.6573   44.7867 H   0  0  0  0  0  0  0  0  0  0  0  0
   58.7481   34.9298   46.3991 H   0  0  0  0  0  0  0  0  0  0  0  0
   59.6659   33.5407   43.8536 H   0  0  0  0  0  0  0  0  0  0  0  0
   60.4578   33.6205   45.5151 H   0  0  0  0  0  0  0  0  0  0  0  0
   56.3036   28.3622   44.7241 H   0  0  0  0  0  0  0  0  0  0  0  0
  1  2  1  0
  2  3  2  0
  2  4  2  0
  2  5  1  0
  5  6  1  0
  6  7  2  0
  7  8  1  0
  8  9  2  0
  9 10  1  0
 10 11  1  0
 11 12  1  0
 12 13  2  3
 13 14  1  0
 14 15  1  0
 15 16  2  0
 15 17  1  0
 17 18  1  0
 18 19  1  0
 19 20  2  0
 20 21  1  0
 21 22  2  0
 22 23  1  0
 23 24  2  0
 24 25  1  0
 25 26  2  0
 26 27  1  0
 27 28  2  0
 22 29  1  0
 29 30  2  0
 17 31  1  0
 31 32  2  0
 31 33  1  0
 33 34  1  0
 34 35  1  0
 35 36  1  0
 36 37  1  0
 37 38  1  0
 38 39  1  0
 10 40  2  0
 40  6  1  0
 33 13  1  0
 39 34  1  0
 30 19  1  0
 28 23  1  0
  1 41  1  0
  1 42  1  0
  1 43  1  0
  7 44  1  0
  8 45  1  0
  9 46  1  0
 11 47  1  0
 11 48  1  0
 18 49  1  0
 18 50  1  0
 20 51  1  0
 21 52  1  0
 24 53  1  0
 25 54  1  0
 26 55  1  0
 27 56  1  0
 28 57  1  0
 29 58  1  0
 30 59  1  0
 34 60  1  0
 35 61  1  0
 35 62  1  0
 36 63  1  0
 36 64  1  0
 37 65  1  0
 37 66  1  0
 38 67  1  0
 38 68  1  0
 39 69  1  0
 39 70  1  0
 40 71  1  0
M  CHG  3   5  -1  14  -1  34   1
M  END
>  <UniqueID>  (43) 
41

>  <SMILES>  (43) 
CS(=O)(=O)[N-]c1cccc(CN=c2[n-]c(=O)n(Cc3ccc(-c4ccccc4)cc3)c(=O)n2[NH+]2CCCCC2)c1

>  <Energy>  (43) 
106.28618462831885

>  <Genealogy>  (43) 
CS(=O)(=O)[N-]c1cccc(CN=c2[n-]c(=O)n(Cc3ccc(-c4ccccc4)cc3)c(=O)n2[NH+]2CCCCC2)c1 (protonated)
CS(=O)(=O)[N-]c1cccc(CN=c2[n-]c(=O)n(Cc3ccc(-c4ccccc4)cc3)c(=O)n2[NH+]2CCCCC2)c1 (3D coordinates assigned)
CS(=O)(=O)[N-]c1cccc(CN=c2[n-]c(=O)n(Cc3ccc(-c4ccccc4)cc3)c(=O)n2[NH+]2CCCCC2)c1 (nonaromatic ring conformer: 106.28618462831885 kcal/mol)

>  <smiles>  (43) 
CS(=O)(=O)Nc1cccc(CN=c2[nH]c(=O)n(Cc3ccc(-c4ccccc4)cc3)c(=O)n2N2CCCCC2)c1

>  <score_type>  (43) 
oracle

>  <origin>  (43) 
adg

>  <m_score__min__energy>  (43) 
-11.58

>  <m_primary>  (43) 
energy

$$$$
43:0
     RDKit          3D

 37 39  0  0  1  0  0  0  0  0999 V2000
   59.6340   34.5570   47.9030 C   0  0  0  0  0  0  0  0  0  0  0  0
   58.6180   33.5880   47.7570 O   0  0  0  0  0  0  0  0  0  0  0  0
   58.3370   33.0260   46.5200 C   0  0  0  0  0  0  0  0  0  0  0  0
   58.1980   33.8660   45.4260 C   0  0  0  0  0  0  0  0  0  0  0  0
   57.9190   33.3510   44.1710 C   0  0  0  0  0  0  0  0  0  0  0  0
   57.7890   31.9810   44.0820 C   0  0  0  0  0  0  0  0  0  0  0  0
   57.9250   31.1360   45.1640 C   0  0  0  0  0  0  0  0  0  0  0  0
   57.7660   29.7010   44.9530 C   0  0  0  0  0  0  0  0  0  0  0  0
   57.7090   28.7000   45.8990 C   0  0  0  0  0  0  0  0  0  0  0  0
   57.5540   27.5330   45.1920 C   0  0  0  0  0  0  0  0  0  0  0  0
   57.4560   26.3480   45.6780 N   0  0  0  0  0  0  0  0  0  0  0  0
   56.2360   25.6110   45.6310 C   0  0  0  0  0  0  0  0  0  0  0  0
   55.1780   26.0430   46.1700 O   0  0  0  0  0  0  0  0  0  0  0  0
   56.2640   24.3210   44.9250 C   0  0  0  0  0  0  0  0  0  0  0  0
   55.8810   23.1400   45.5260 C   0  0  0  0  0  0  0  0  0  0  0  0
   55.9000   21.9230   44.8760 C   0  0  0  0  0  0  0  0  0  0  0  0
   56.3270   21.8920   43.5560 C   0  0  0  0  0  0  0  0  0  0  0  0
   56.7040   23.0380   42.9570 N   0  0  0  0  0  0  0  0  0  0  0  0
   56.6810   24.2330   43.6060 C   0  0  0  0  0  0  0  0  0  0  0  0
   57.0460   25.2830   42.9950 O   0  0  0  0  0  0  0  0  0  0  0  0
   57.5170   27.8010   43.8770 N   0  0  0  0  0  0  0  0  0  0  0  0
   57.6460   29.1200   43.7460 N   0  0  0  0  0  0  0  0  0  0  0  0
   58.2050   31.6520   46.4200 C   0  0  0  0  0  0  0  0  0  0  0  0
   59.8203   34.7347   48.9725 H   0  0  0  0  0  0  0  0  0  0  0  0
   60.5566   34.1958   47.4252 H   0  0  0  0  0  0  0  0  0  0  0  0
   59.3169   35.4957   47.4252 H   0  0  0  0  0  0  0  0  0  0  0  0
   58.3104   34.9525   45.5560 H   0  0  0  0  0  0  0  0  0  0  0  0
   57.8069   34.0011   43.2908 H   0  0  0  0  0  0  0  0  0  0  0  0
   57.5657   31.5400   43.0993 H   0  0  0  0  0  0  0  0  0  0  0  0
   57.7740   28.8125   46.9913 H   0  0  0  0  0  0  0  0  0  0  0  0
   55.5445   23.1698   46.5729 H   0  0  0  0  0  0  0  0  0  0  0  0
   55.5854   21.0028   45.3900 H   0  0  0  0  0  0  0  0  0  0  0  0
   56.3573   20.9409   43.0043 H   0  0  0  0  0  0  0  0  0  0  0  0
   57.0210   22.9660   41.9490 H   0  0  0  0  0  0  0  0  0  0  0  0
   57.4060   27.0920   43.0990 H   0  0  0  0  0  0  0  0  0  0  0  0
   57.6430   29.5600   42.7890 H   0  0  0  0  0  0  0  0  0  0  0  0
   58.3172   30.9986   47.2977 H   0  0  0  0  0  0  0  0  0  0  0  0
  1  2  1  0
  2  3  1  0
  3  4  2  0
  4  5  1  0
  5  6  2  0
  6  7  1  0
  7  8  1  0
  8  9  2  0
  9 10  1  0
 10 11  2  0
 11 12  1  0
 12 13  2  0
 12 14  1  0
 14 15  2  0
 15 16  1  0
 16 17  2  0
 17 18  1  0
 18 19  1  0
 19 20  2  0
 10 21  1  0
 21 22  1  0
  7 23  2  0
 23  3  1  0
 22  8  1  0
 19 14  1  0
  1 24  1  0
  1 25  1  0
  1 26  1  0
  4 27  1  0
  5 28  1  0
  6 29  1  0
  9 30  1  0
 15 31  1  0
 16 32  1  0
 17 33  1  0
 18 34  1  0
 21 35  1  0
 22 36  1  0
 23 37  1  0
M  END
>  <smiles>  (44) 
COc1cccc(-c2cc(=NC(=O)c3ccc[nH]c3=O)[nH][nH]2)c1

>  <score_type>  (44) 
oracle

>  <origin>  (44) 
adg

>  <m_score__min__energy>  (44) 
-8.1999999999999993

>  <m_primary>  (44) 
energy

$$$$
44:0
     RDKit          3D

 51 54  0  0  0  0  0  0  0  0999 V2000
   56.4680   29.3050   45.2160 O   0  0  0  0  0  0  0  0  0  0  0  0
   57.6040   29.2750   44.6790 C   0  0  0  0  0  0  0  0  0  0  0  0
   57.9890   28.1150   43.8290 C   0  0  0  0  0  0  0  0  0  0  0  0
   58.2550   26.8790   44.5850 C   0  0  0  0  0  0  0  0  0  0  0  0
   57.4090   25.7930   44.2940 C   0  0  0  0  0  0  0  0  0  0  0  0
   57.5620   24.5780   44.9290 C   0  0  0  0  0  0  0  0  0  0  0  0
   58.5590   24.4120   45.8660 C   0  0  0  0  0  0  0  0  0  0  0  0
   59.4060   25.4790   46.1660 C   0  0  0  0  0  0  0  0  0  0  0  0
   59.2430   26.7040   45.5190 C   0  0  0  0  0  0  0  0  0  0  0  0
   60.2860   28.0740   45.8810 Cl  0  0  0  0  0  0  0  0  0  0  0  0
   58.5770   30.2950   44.8290 N   0  0  0  0  0  0  0  0  0  0  0  0
   58.3980   31.4810   45.5890 C   0  0  0  0  0  0  0  0  0  0  0  0
   58.5150   31.5030   46.9520 C   0  0  0  0  0  0  0  0  0  0  0  0
   58.3690   32.6920   47.7070 C   0  0  0  0  0  0  0  0  0  0  0  0
   58.6180   32.5730   49.1110 C   0  0  0  0  0  0  0  0  0  0  0  0
   57.9300   31.5960   49.7690 N   0  0  0  0  0  0  0  0  0  0  0  0
   58.0850   31.2870   51.0420 C   0  0  0  0  0  0  0  0  0  0  0  0
   57.3900   30.3590   51.5560 O   0  0  0  0  0  0  0  0  0  0  0  0
   58.9800   31.9650   51.7700 N   0  0  0  0  0  0  0  0  0  0  0  0
   59.6670   32.9240   51.1570 C   0  0  0  0  0  0  0  0  0  0  0  0
   60.5170   33.5500   51.8860 O   0  0  0  0  0  0  0  0  0  0  0  0
   59.5140   33.2550   49.8370 N   0  0  0  0  0  0  0  0  0  0  0  0
   60.3970   34.2690   49.3680 C   0  0  0  0  0  0  0  0  0  0  0  0
   61.5140   33.8450   48.5000 C   0  0  0  0  0  0  0  0  0  0  0  0
   61.4860   33.8760   47.1270 C   0  0  0  0  0  0  0  0  0  0  0  0
   62.6130   33.5080   46.3790 C   0  0  0  0  0  0  0  0  0  0  0  0
   63.7620   33.1100   47.0140 C   0  0  0  0  0  0  0  0  0  0  0  0
   63.8230   33.0670   48.3990 C   0  0  0  0  0  0  0  0  0  0  0  0
   62.6990   33.4350   49.1050 C   0  0  0  0  0  0  0  0  0  0  0  0
   58.1030   33.7970   46.9610 C   0  0  0  0  0  0  0  0  0  0  0  0
   57.9800   33.7860   45.5690 C   0  0  0  0  0  0  0  0  0  0  0  0
   58.1240   32.6320   44.8400 C   0  0  0  0  0  0  0  0  0  0  0  0
   57.9820   32.5680   43.1040 Cl  0  0  0  0  0  0  0  0  0  0  0  0
   57.1701   27.9180   43.1215 H   0  0  0  0  0  0  0  0  0  0  0  0
   58.9282   28.3879   43.3255 H   0  0  0  0  0  0  0  0  0  0  0  0
   56.6112   25.9151   43.5466 H   0  0  0  0  0  0  0  0  0  0  0  0
   56.8888   23.7422   44.6877 H   0  0  0  0  0  0  0  0  0  0  0  0
   58.6860   23.4446   46.3739 H   0  0  0  0  0  0  0  0  0  0  0  0
   60.2033   25.3543   46.9135 H   0  0  0  0  0  0  0  0  0  0  0  0
   59.5190   30.2000   44.3540 H   0  0  0  0  0  0  0  0  0  0  0  0
   58.7303   30.5627   47.4806 H   0  0  0  0  0  0  0  0  0  0  0  0
   59.1110   31.7290   52.7830 H   0  0  0  0  0  0  0  0  0  0  0  0
   59.7954   34.9951   48.8016 H   0  0  0  0  0  0  0  0  0  0  0  0
   60.8780   34.6662   50.2740 H   0  0  0  0  0  0  0  0  0  0  0  0
   60.5690   34.1931   46.6087 H   0  0  0  0  0  0  0  0  0  0  0  0
   62.5759   33.5384   45.2800 H   0  0  0  0  0  0  0  0  0  0  0  0
   64.6421   32.8226   46.4200 H   0  0  0  0  0  0  0  0  0  0  0  0
   64.7398   32.7491   48.9171 H   0  0  0  0  0  0  0  0  0  0  0  0
   62.7397   33.4033   50.2038 H   0  0  0  0  0  0  0  0  0  0  0  0
   57.9772   34.7565   47.4840 H   0  0  0  0  0  0  0  0  0  0  0  0
   57.7619   34.7274   45.0435 H   0  0  0  0  0  0  0  0  0  0  0  0
  1  2  2  0
  2  3  1  0
  3  4  1  0
  4  5  2  0
  5  6  1  0
  6  7  2  0
  7  8  1  0
  8  9  2  0
  9 10  1  0
  2 11  1  0
 11 12  1  0
 12 13  2  0
 13 14  1  0
 14 15  1  0
 15 16  2  0
 16 17  1  0
 17 18  2  0
 17 19  1  0
 19 20  1  0
 20 21  2  0
 20 22  1  0
 22 23  1  0
 23 24  1  0
 24 25  2  0
 25 26  1  0
 26 27  2  0
 27 28  1  0
 28 29  2  0
 14 30  2  0
 30 31  1  0
 31 32  2  0
 32 33  1  0
  9  4  1  0
 32 12  1  0
 22 15  1  0
 29 24  1  0
  3 34  1  0
  3 35  1  0
  5 36  1  0
  6 37  1  0
  7 38  1  0
  8 39  1  0
 11 40  1  0
 13 41  1  0
 19 42  1  0
 23 43  1  0
 23 44  1  0
 25 45  1  0
 26 46  1  0
 27 47  1  0
 28 48  1  0
 29 49  1  0
 30 50  1  0
 31 51  1  0
M  END
>  <smiles>  (45) 
O=C(Cc1ccccc1Cl)Nc1cc(-c2nc(=O)[nH]c(=O)n2Cc2ccccc2)ccc1Cl

>  <score_type>  (45) 
oracle

>  <origin>  (45) 
adg

>  <m_score__min__energy>  (45) 
-9.9499999999999993

>  <m_primary>  (45) 
energy

$$$$
45:0
     RDKit          3D

 54 56  0  0  0  0  0  0  0  0999 V2000
   60.3100   29.0760   46.3660 C   0  0  0  0  0  0  0  0  0  0  0  0
   59.4220   28.7600   45.1680 C   0  0  0  0  0  0  0  0  0  0  0  0
   58.4290   27.7500   45.5260 N   0  0  0  0  0  0  0  0  0  0  0  0
   58.7630   26.5420   45.9630 N   0  0  0  0  0  0  0  0  0  0  0  0
   57.6300   25.8630   46.2350 C   0  0  0  0  0  0  0  0  0  0  0  0
   56.5500   26.6830   45.9740 C   0  0  0  0  0  0  0  0  0  0  0  0
   55.1580   26.3440   45.9990 N   0  0  0  0  0  0  0  0  0  0  0  0
   54.5840   25.0900   45.6160 C   0  0  0  0  0  0  0  0  0  0  0  0
   53.3450   24.9000   45.7340 O   0  0  0  0  0  0  0  0  0  0  0  0
   55.4520   24.0220   45.0660 C   0  0  0  0  0  0  0  0  0  0  0  0
   56.0500   23.0740   45.9190 C   0  0  0  0  0  0  0  0  0  0  0  0
   56.9430   22.1270   45.4060 C   0  0  0  0  0  0  0  0  0  0  0  0
   57.2280   22.0960   44.0400 C   0  0  0  0  0  0  0  0  0  0  0  0
   56.6320   23.0220   43.1840 C   0  0  0  0  0  0  0  0  0  0  0  0
   55.7530   23.9840   43.6910 C   0  0  0  0  0  0  0  0  0  0  0  0
   57.0810   27.8730   45.5180 C   0  0  0  0  0  0  0  0  0  0  0  0
   56.2980   29.0770   45.0510 C   0  0  0  0  0  0  0  0  0  0  0  0
   56.6660   29.4880   43.6180 C   0  0  0  0  0  0  0  0  0  0  0  0
   57.1550   30.9400   43.5190 C   0  0  0  0  0  0  0  0  0  0  0  0
   56.8020   31.6600   44.7020 O   0  0  0  0  0  0  0  0  0  0  0  0
   57.7140   32.2980   45.5620 C   0  0  0  0  0  0  0  0  0  0  0  0
   58.2100   33.5910   45.3170 C   0  0  0  0  0  0  0  0  0  0  0  0
   59.1030   34.1990   46.2120 C   0  0  0  0  0  0  0  0  0  0  0  0
   59.6410   35.5730   45.9130 C   0  0  0  0  0  0  0  0  0  0  0  0
   59.4930   33.5090   47.3790 C   0  0  0  0  0  0  0  0  0  0  0  0
   60.5740   34.2850   48.5420 Cl  0  0  0  0  0  0  0  0  0  0  0  0
   59.0220   32.2010   47.6140 C   0  0  0  0  0  0  0  0  0  0  0  0
   59.4220   31.4440   48.8490 C   0  0  0  0  0  0  0  0  0  0  0  0
   58.1370   31.6090   46.7010 C   0  0  0  0  0  0  0  0  0  0  0  0
   59.7557   28.8788   47.2954 H   0  0  0  0  0  0  0  0  0  0  0  0
   61.2087   28.4425   46.3335 H   0  0  0  0  0  0  0  0  0  0  0  0
   60.6064   30.1348   46.3335 H   0  0  0  0  0  0  0  0  0  0  0  0
   58.9071   29.6771   44.8459 H   0  0  0  0  0  0  0  0  0  0  0  0
   60.0480   28.3727   44.3506 H   0  0  0  0  0  0  0  0  0  0  0  0
   57.5753   24.8280   46.6035 H   0  0  0  0  0  0  0  0  0  0  0  0
   55.8138   23.0782   46.9933 H   0  0  0  0  0  0  0  0  0  0  0  0
   57.4225   21.4038   46.0821 H   0  0  0  0  0  0  0  0  0  0  0  0
   57.9217   21.3423   43.6391 H   0  0  0  0  0  0  0  0  0  0  0  0
   56.8541   22.9954   42.1070 H   0  0  0  0  0  0  0  0  0  0  0  0
   55.2934   24.7163   43.0109 H   0  0  0  0  0  0  0  0  0  0  0  0
   55.2250   28.8373   45.0863 H   0  0  0  0  0  0  0  0  0  0  0  0
   56.5424   29.9178   45.7168 H   0  0  0  0  0  0  0  0  0  0  0  0
   57.4646   28.8234   43.2565 H   0  0  0  0  0  0  0  0  0  0  0  0
   55.7553   29.4043   43.0068 H   0  0  0  0  0  0  0  0  0  0  0  0
   58.2486   30.9481   43.4011 H   0  0  0  0  0  0  0  0  0  0  0  0
   56.6808   31.4207   42.6506 H   0  0  0  0  0  0  0  0  0  0  0  0
   57.8940   34.1320   44.4129 H   0  0  0  0  0  0  0  0  0  0  0  0
   59.8471   36.0994   46.8566 H   0  0  0  0  0  0  0  0  0  0  0  0
   60.5708   35.4843   45.3320 H   0  0  0  0  0  0  0  0  0  0  0  0
   58.8982   36.1392   45.3320 H   0  0  0  0  0  0  0  0  0  0  0  0
   59.1214   32.0129   49.7412 H   0  0  0  0  0  0  0  0  0  0  0  0
   58.9246   30.4629   48.8549 H   0  0  0  0  0  0  0  0  0  0  0  0
   60.5128   31.3021   48.8549 H   0  0  0  0  0  0  0  0  0  0  0  0
   57.7710   30.5880   46.8845 H   0  0  0  0  0  0  0  0  0  0  0  0
  1  2  1  0
  2  3  1  0
  3  4  1  0
  4  5  2  0
  5  6  1  0
  6  7  1  0
  7  8  1  0
  8  9  2  0
  8 10  1  0
 10 11  2  0
 11 12  1  0
 12 13  2  0
 13 14  1  0
 14 15  2  0
  6 16  2  0
 16 17  1  0
 17 18  1  0
 18 19  1  0
 19 20  1  0
 20 21  1  0
 21 22  2  0
 22 23  1  0
 23 24  1  0
 23 25  2  0
 25 26  1  0
 25 27  1  0
 27 28  1  0
 27 29  2  0
 16  3  1  0
 29 21  1  0
 15 10  1  0
  1 30  1  0
  1 31  1  0
  1 32  1  0
  2 33  1  0
  2 34  1  0
  5 35  1  0
 11 36  1  0
 12 37  1  0
 13 38  1  0
 14 39  1  0
 15 40  1  0
 17 41  1  0
 17 42  1  0
 18 43  1  0
 18 44  1  0
 19 45  1  0
 19 46  1  0
 22 47  1  0
 24 48  1  0
 24 49  1  0
 24 50  1  0
 28 51  1  0
 28 52  1  0
 28 53  1  0
 29 54  1  0
M  CHG  1   7  -1
M  END
>  <UniqueID>  (46) 
42

>  <SMILES>  (46) 
CCn1ncc([N-]C(=O)c2ccccc2)c1CCCOc1cc(C)c(Cl)c(C)c1

>  <Energy>  (46) 
78.8216436268508

>  <Genealogy>  (46) 
CCn1ncc([N-]C(=O)c2ccccc2)c1CCCOc1cc(C)c(Cl)c(C)c1 (protonated)
CCn1ncc([N-]C(=O)c2ccccc2)c1CCCOc1cc(C)c(Cl)c(C)c1 (3D coordinates assigned)
CCn1ncc([N-]C(=O)c2ccccc2)c1CCCOc1cc(C)c(Cl)c(C)c1 (optimized conformer: 78.8216436268508 kcal/mol)

>  <smiles>  (46) 
CCn1ncc(NC(=O)c2ccccc2)c1CCCOc1cc(C)c(Cl)c(C)c1

>  <score_type>  (46) 
oracle

>  <origin>  (46) 
adg

>  <m_score__min__energy>  (46) 
-11.19

>  <m_primary>  (46) 
energy

$$$$
46:0
     RDKit          3D

 47 49  0  0  0  0  0  0  0  0999 V2000
   54.7491   24.4574   46.2599 H   0  0  0  0  0  0  0  0  0  0  0  0
   55.5870   25.1340   46.0360 C   0  0  0  0  0  0  0  0  0  0  0  0
   55.4400   26.4860   45.9960 N   0  0  0  0  0  0  0  0  0  0  0  0
   56.6040   27.1090   45.7180 C   0  0  0  0  0  0  0  0  0  0  0  0
   56.6780   28.4040   45.6010 N   0  0  0  0  0  0  0  0  0  0  0  0
   56.1260   29.2400   44.5690 C   0  0  0  0  0  0  0  0  0  0  0  0
   55.1510   29.9830   44.8590 O   0  0  0  0  0  0  0  0  0  0  0  0
   56.7290   29.3520   43.1970 C   0  0  0  0  0  0  0  0  0  0  0  0
   55.9953   29.0161   42.4495 H   0  0  0  0  0  0  0  0  0  0  0  0
   57.6300   28.7228   43.1494 H   0  0  0  0  0  0  0  0  0  0  0  0
   57.1930   31.0800   42.8500 S   0  0  0  0  0  0  0  0  0  0  0  0
   57.6690   31.4220   44.5460 C   0  0  0  0  0  0  0  0  0  0  0  0
   57.1220   32.4120   45.2810 N   0  0  0  0  0  0  0  0  0  0  0  0
   57.7310   32.3740   46.4560 N   0  0  0  0  0  0  0  0  0  0  0  0
   57.5230   33.0160   47.2540 H   0  0  0  0  0  0  0  0  0  0  0  0
   58.6370   31.3790   46.4290 C   0  0  0  0  0  0  0  0  0  0  0  0
   59.5270   31.0290   47.5890 C   0  0  0  0  0  0  0  0  0  0  0  0
   60.4990   31.5266   47.4560 H   0  0  0  0  0  0  0  0  0  0  0  0
   59.6455   29.9357   47.6141 H   0  0  0  0  0  0  0  0  0  0  0  0
   58.9190   31.4750   48.9200 C   0  0  0  0  0  0  0  0  0  0  0  0
   59.5474   31.1114   49.7464 H   0  0  0  0  0  0  0  0  0  0  0  0
   57.9045   31.0591   49.0083 H   0  0  0  0  0  0  0  0  0  0  0  0
   58.8430   32.9320   48.9770 N   0  0  0  0  0  0  0  0  0  0  0  0
   59.5350   33.8090   48.0790 C   0  0  0  0  0  0  0  0  0  0  0  0
   58.8750   34.7010   47.4790 O   0  0  0  0  0  0  0  0  0  0  0  0
   61.0010   33.7360   47.8890 C   0  0  0  0  0  0  0  0  0  0  0  0
   61.5550   33.8310   46.6000 C   0  0  0  0  0  0  0  0  0  0  0  0
   60.8985   33.9982   45.7334 H   0  0  0  0  0  0  0  0  0  0  0  0
   62.9360   33.7140   46.4140 C   0  0  0  0  0  0  0  0  0  0  0  0
   63.3627   33.7975   45.4036 H   0  0  0  0  0  0  0  0  0  0  0  0
   63.7760   33.4910   47.5100 C   0  0  0  0  0  0  0  0  0  0  0  0
   64.8611   33.3937   47.3581 H   0  0  0  0  0  0  0  0  0  0  0  0
   63.2390   33.3910   48.8030 C   0  0  0  0  0  0  0  0  0  0  0  0
   64.1360   33.0970   49.9730 C   0  0  0  0  0  0  0  0  0  0  0  0
   63.5878   33.2767   50.9096 H   0  0  0  0  0  0  0  0  0  0  0  0
   64.4586   32.0461   49.9328 H   0  0  0  0  0  0  0  0  0  0  0  0
   65.0180   33.7531   49.9328 H   0  0  0  0  0  0  0  0  0  0  0  0
   61.8490   33.4930   48.9850 C   0  0  0  0  0  0  0  0  0  0  0  0
   61.4209   33.3820   49.9922 H   0  0  0  0  0  0  0  0  0  0  0  0
   58.6060   30.7400   45.2390 N   0  0  0  0  0  0  0  0  0  0  0  0
   59.4750   29.6670   44.7600 C   0  0  0  0  0  0  0  0  0  0  0  0
   59.9069   29.1337   45.6196 H   0  0  0  0  0  0  0  0  0  0  0  0
   58.8881   28.9646   44.1499 H   0  0  0  0  0  0  0  0  0  0  0  0
   60.2840   30.0951   44.1499 H   0  0  0  0  0  0  0  0  0  0  0  0
   57.8540   26.0000   45.4830 S   0  0  0  0  0  0  0  0  0  0  0  0
   56.8710   24.6670   45.7740 C   0  0  0  0  0  0  0  0  0  0  0  0
   57.1870   23.6135   45.7597 H   0  0  0  0  0  0  0  0  0  0  0  0
  1  2  1  0
  2  3  1  0
  3  4  1  0
  4  5  2  0
  5  6  1  0
  6  7  2  0
  6  8  1  0
  8  9  1  0
  8 10  1  0
  8 11  1  0
 11 12  1  0
 12 13  2  0
 13 14  1  0
 14 15  1  0
 14 16  2  0
 16 17  1  0
 17 18  1  0
 17 19  1  0
 17 20  1  0
 20 21  1  0
 20 22  1  0
 20 23  1  0
 23 24  1  0
 24 25  2  0
 24 26  1  0
 26 27  2  0
 27 28  1  0
 27 29  1  0
 29 30  1  0
 29 31  2  0
 31 32  1  0
 31 33  1  0
 33 34  1  0
 34 35  1  0
 34 36  1  0
 34 37  1  0
 33 38  2  0
 38 39  1  0
 16 40  1  0
 40 41  1  0
 41 42  1  0
 41 43  1  0
 41 44  1  0
  4 45  1  0
 45 46  1  0
 46 47  1  0
 46  2  2  0
 40 12  1  0
 38 26  1  0
M  CHG  3   3  -1  14   1  23  -1
M  END
>  <UniqueID>  (47) 
43

>  <SMILES>  (47) 
Cc1cccc(C(=O)[N-]CCc2[nH+]nc(SCC(=O)/N=c3/[n-]ccs3)n2C)c1

>  <Energy>  (47) 
117.07337493059855

>  <Genealogy>  (47) 
Cc1cccc(C(=O)[N-]CCc2[nH+]nc(SCC(=O)N=c3[n-]ccs3)n2C)c1 (protonated)
Cc1cccc(C(=O)[N-]CCc2[nH+]nc(SCC(=O)/N=c3/[n-]ccs3)n2C)c1 (cis-trans isomerization)
Cc1cccc(C(=O)[N-]CCc2[nH+]nc(SCC(=O)/N=c3/[n-]ccs3)n2C)c1 (3D coordinates assigned)
Cc1cccc(C(=O)[N-]CCc2[nH+]nc(SCC(=O)/N=c3/[n-]ccs3)n2C)c1 (optimized conformer: 117.07337493059855 kcal/mol)

>  <smiles>  (47) 
Cc1cccc(C(=O)NCCc2nnc(SCC(=O)N=c3[nH]ccs3)n2C)c1

>  <score_type>  (47) 
oracle

>  <origin>  (47) 
adg

>  <m_score__min__energy>  (47) 
-10.119999999999999

>  <m_primary>  (47) 
energy

$$$$
47:0
     RDKit          3D

 42 43  0  0  0  0  0  0  0  0999 V2000
   62.9030   32.7940   47.1470 C   0  0  0  0  0  0  0  0  0  0  0  0
   61.6330   32.1120   47.5610 C   0  0  0  0  0  0  0  0  0  0  0  0
   60.7070   32.7790   48.3790 C   0  0  0  0  0  0  0  0  0  0  0  0
   59.5050   32.1590   48.7280 C   0  0  0  0  0  0  0  0  0  0  0  0
   59.2110   30.8780   48.2560 C   0  0  0  0  0  0  0  0  0  0  0  0
   60.1220   30.2040   47.4280 C   0  0  0  0  0  0  0  0  0  0  0  0
   59.7800   28.8420   46.8880 C   0  0  0  0  0  0  0  0  0  0  0  0
   58.3330   28.7070   46.7370 N   0  0  0  0  0  0  0  0  0  0  0  0
   57.7400   27.7920   45.8010 C   0  0  0  0  0  0  0  0  0  0  0  0
   58.4760   27.0050   45.1500 O   0  0  0  0  0  0  0  0  0  0  0  0
   56.2700   27.7680   45.6170 C   0  0  0  0  0  0  0  0  0  0  0  0
   55.6250   26.7550   45.9930 O   0  0  0  0  0  0  0  0  0  0  0  0
   55.5380   28.8570   45.0350 N   0  0  0  0  0  0  0  0  0  0  0  0
   56.0650   29.8600   44.1170 C   0  0  0  0  0  0  0  0  0  0  0  0
   57.0750   30.7600   44.8410 C   0  0  0  0  0  0  0  0  0  0  0  0
   57.5130   31.9670   43.9990 C   0  0  0  0  0  0  0  0  0  0  0  0
   58.0480   33.0420   44.8350 N   0  0  0  0  0  0  0  0  0  0  0  0
   59.0780   33.8530   44.5270 C   0  0  0  0  0  0  0  0  0  0  0  0
   59.3190   34.7160   45.5760 C   0  0  0  0  0  0  0  0  0  0  0  0
   58.3960   34.4110   46.5590 C   0  0  0  0  0  0  0  0  0  0  0  0
   57.6290   33.3730   46.0710 C   0  0  0  0  0  0  0  0  0  0  0  0
   61.3290   30.8310   47.0740 C   0  0  0  0  0  0  0  0  0  0  0  0
   63.4657   33.0962   48.0426 H   0  0  0  0  0  0  0  0  0  0  0  0
   63.5123   32.1017   46.5474 H   0  0  0  0  0  0  0  0  0  0  0  0
   62.6625   33.6843   46.5474 H   0  0  0  0  0  0  0  0  0  0  0  0
   60.9287   33.7921   48.7458 H   0  0  0  0  0  0  0  0  0  0  0  0
   58.7872   32.6818   49.3772 H   0  0  0  0  0  0  0  0  0  0  0  0
   58.2623   30.3956   48.5341 H   0  0  0  0  0  0  0  0  0  0  0  0
   60.2615   28.7084   45.9080 H   0  0  0  0  0  0  0  0  0  0  0  0
   60.1401   28.0766   47.5912 H   0  0  0  0  0  0  0  0  0  0  0  0
   57.7210   29.3180   47.3220 H   0  0  0  0  0  0  0  0  0  0  0  0
   56.5641   29.3566   43.2759 H   0  0  0  0  0  0  0  0  0  0  0  0
   55.2348   30.4782   43.7446 H   0  0  0  0  0  0  0  0  0  0  0  0
   56.6139   31.1287   45.7692 H   0  0  0  0  0  0  0  0  0  0  0  0
   57.9716   30.1548   45.0407 H   0  0  0  0  0  0  0  0  0  0  0  0
   58.2908   31.6448   43.2910 H   0  0  0  0  0  0  0  0  0  0  0  0
   56.6313   32.3524   43.4660 H   0  0  0  0  0  0  0  0  0  0  0  0
   59.6415   33.8307   43.5826 H   0  0  0  0  0  0  0  0  0  0  0  0
   60.0944   35.4949   45.6214 H   0  0  0  0  0  0  0  0  0  0  0  0
   58.2931   34.9003   47.5388 H   0  0  0  0  0  0  0  0  0  0  0  0
   56.8010   32.8894   46.6099 H   0  0  0  0  0  0  0  0  0  0  0  0
   62.0395   30.3150   46.4115 H   0  0  0  0  0  0  0  0  0  0  0  0
  1  2  1  0
  2  3  2  0
  3  4  1  0
  4  5  2  0
  5  6  1  0
  6  7  1  0
  7  8  1  0
  8  9  1  0
  9 10  2  0
  9 11  1  0
 11 12  2  0
 11 13  1  0
 13 14  1  0
 14 15  1  0
 15 16  1  0
 16 17  1  0
 17 18  1  0
 18 19  2  0
 19 20  1  0
 20 21  2  0
  6 22  2  0
 22  2  1  0
 21 17  1  0
  1 23  1  0
  1 24  1  0
  1 25  1  0
  3 26  1  0
  4 27  1  0
  5 28  1  0
  7 29  1  0
  7 30  1  0
  8 31  1  0
 14 32  1  0
 14 33  1  0
 15 34  1  0
 15 35  1  0
 16 36  1  0
 16 37  1  0
 18 38  1  0
 19 39  1  0
 20 40  1  0
 21 41  1  0
 22 42  1  0
M  CHG  1  13  -1
M  END
>  <UniqueID>  (48) 
44

>  <SMILES>  (48) 
Cc1cccc(CNC(=O)C(=O)[N-]CCCn2cccc2)c1

>  <Energy>  (48) 
58.149038296250936

>  <Genealogy>  (48) 
Cc1cccc(CNC(=O)C(=O)[N-]CCCn2cccc2)c1 (protonated)
Cc1cccc(CNC(=O)C(=O)[N-]CCCn2cccc2)c1 (3D coordinates assigned)
Cc1cccc(CNC(=O)C(=O)[N-]CCCn2cccc2)c1 (optimized conformer: 58.149038296250936 kcal/mol)

>  <smiles>  (48) 
Cc1cccc(CNC(=O)C(=O)NCCCn2cccc2)c1

>  <score_type>  (48) 
oracle

>  <origin>  (48) 
adg

>  <m_score__min__energy>  (48) 
-8.5999999999999996

>  <m_primary>  (48) 
energy

$$$$
48:0
     RDKit          3D

 63 65  0  0  0  0  0  0  0  0999 V2000
   58.9770   34.8680   44.8790 C   0  0  0  0  0  0  0  0  0  0  0  0
   57.9080   33.8410   44.4970 C   0  0  0  0  0  0  0  0  0  0  0  0
   57.3600   33.1510   45.7440 C   0  0  0  0  0  0  0  0  0  0  0  0
   58.4620   32.8500   43.6290 O   0  0  0  0  0  0  0  0  0  0  0  0
   57.8370   31.6270   43.3480 C   0  0  0  0  0  0  0  0  0  0  0  0
   57.0060   31.5430   42.4020 O   0  0  0  0  0  0  0  0  0  0  0  0
   58.1340   30.4680   44.1480 N   0  0  0  0  0  0  0  0  0  0  0  0
   57.3380   29.2430   43.9710 C   0  0  0  0  0  0  0  0  0  0  0  0
   57.6200   28.2240   45.0820 C   0  0  0  0  0  0  0  0  0  0  0  0
   59.1290   27.9440   45.2100 C   0  0  0  0  0  0  0  0  0  0  0  0
   59.4530   26.9820   46.6910 S   0  0  0  0  0  0  0  0  0  0  0  0
   60.6900   26.1480   46.5030 O   0  0  0  0  0  0  0  0  0  0  0  0
   58.2910   26.0670   46.9680 O   0  0  0  0  0  0  0  0  0  0  0  0
   59.7010   28.0770   48.0460 C   0  0  0  0  0  0  0  0  0  0  0  0
   60.6980   27.8340   48.9980 C   0  0  0  0  0  0  0  0  0  0  0  0
   60.8450   28.6930   50.0880 C   0  0  0  0  0  0  0  0  0  0  0  0
   59.9830   29.7930   50.2200 C   0  0  0  0  0  0  0  0  0  0  0  0
   60.0870   30.7110   51.4030 C   0  0  0  0  0  0  0  0  0  0  0  0
   59.2530   31.8920   51.2100 N   0  0  0  0  0  0  0  0  0  0  0  0
   59.6820   33.0570   50.4950 C   0  0  0  0  0  0  0  0  0  0  0  0
   59.3100   34.2030   50.8710 O   0  0  0  0  0  0  0  0  0  0  0  0
   60.6540   32.9080   49.3560 C   0  0  0  0  0  0  0  0  0  0  0  0
   62.0750   33.3310   49.8270 C   0  0  0  0  0  0  0  0  0  0  0  0
   63.0120   33.8520   48.7210 C   0  0  0  0  0  0  0  0  0  0  0  0
   62.6760   33.0920   47.1440 S   0  0  0  0  0  0  0  0  0  0  0  0
   63.0830   31.6450   47.1840 O   0  0  0  0  0  0  0  0  0  0  0  0
   63.4410   33.8000   46.0620 O   0  0  0  0  0  0  0  0  0  0  0  0
   60.9210   33.2230   46.8410 C   0  0  0  0  0  0  0  0  0  0  0  0
   60.1780   33.6790   48.1040 C   0  0  0  0  0  0  0  0  0  0  0  0
   59.0230   30.0110   49.2790 N   0  0  0  0  0  0  0  0  0  0  0  0
   58.8670   29.1900   48.2090 C   0  0  0  0  0  0  0  0  0  0  0  0
   59.9980   29.2320   45.1740 C   0  0  0  0  0  0  0  0  0  0  0  0
   59.1720   30.5230   45.1870 C   0  0  0  0  0  0  0  0  0  0  0  0
   59.0464   34.9347   45.9748 H   0  0  0  0  0  0  0  0  0  0  0  0
   59.9486   34.5560   44.4684 H   0  0  0  0  0  0  0  0  0  0  0  0
   58.7041   35.8513   44.4684 H   0  0  0  0  0  0  0  0  0  0  0  0
   57.0935   34.3725   43.9830 H   0  0  0  0  0  0  0  0  0  0  0  0
   57.7552   33.6486   46.6419 H   0  0  0  0  0  0  0  0  0  0  0  0
   56.2617   33.2123   45.7442 H   0  0  0  0  0  0  0  0  0  0  0  0
   57.6683   32.0951   45.7442 H   0  0  0  0  0  0  0  0  0  0  0  0
   56.2698   29.5051   43.9891 H   0  0  0  0  0  0  0  0  0  0  0  0
   57.6135   28.7886   43.0079 H   0  0  0  0  0  0  0  0  0  0  0  0
   57.2465   28.6218   46.0371 H   0  0  0  0  0  0  0  0  0  0  0  0
   57.1109   27.2823   44.8288 H   0  0  0  0  0  0  0  0  0  0  0  0
   59.4245   27.3599   44.3260 H   0  0  0  0  0  0  0  0  0  0  0  0
   61.3652   26.9665   48.8870 H   0  0  0  0  0  0  0  0  0  0  0  0
   61.6294   28.5097   50.8371 H   0  0  0  0  0  0  0  0  0  0  0  0
   59.7547   30.1771   52.3055 H   0  0  0  0  0  0  0  0  0  0  0  0
   61.1339   31.0299   51.5140 H   0  0  0  0  0  0  0  0  0  0  0  0
   60.7032   31.8517   49.0529 H   0  0  0  0  0  0  0  0  0  0  0  0
   61.9604   34.1273   50.5771 H   0  0  0  0  0  0  0  0  0  0  0  0
   62.5478   32.4182   50.2184 H   0  0  0  0  0  0  0  0  0  0  0  0
   62.8782   34.9397   48.6262 H   0  0  0  0  0  0  0  0  0  0  0  0
   64.0443   33.6000   49.0053 H   0  0  0  0  0  0  0  0  0  0  0  0
   60.7481   33.9546   46.0379 H   0  0  0  0  0  0  0  0  0  0  0  0
   60.5407   32.2331   46.5485 H   0  0  0  0  0  0  0  0  0  0  0  0
   60.3595   34.7532   48.2563 H   0  0  0  0  0  0  0  0  0  0  0  0
   59.1059   33.4768   47.9634 H   0  0  0  0  0  0  0  0  0  0  0  0
   58.0824   29.3999   47.4672 H   0  0  0  0  0  0  0  0  0  0  0  0
   60.6587   29.2317   46.0534 H   0  0  0  0  0  0  0  0  0  0  0  0
   60.5628   29.2169   44.2302 H   0  0  0  0  0  0  0  0  0  0  0  0
   58.6956   30.6404   46.1715 H   0  0  0  0  0  0  0  0  0  0  0  0
   59.8357   31.3775   44.9885 H   0  0  0  0  0  0  0  0  0  0  0  0
  1  2  1  0
  2  3  1  0
  2  4  1  0
  4  5  1  0
  5  6  2  0
  5  7  1  0
  7  8  1  0
  8  9  1  0
  9 10  1  0
 10 11  1  0
 11 12  2  0
 11 13  2  0
 11 14  1  0
 14 15  2  0
 15 16  1  0
 16 17  2  0
 17 18  1  0
 18 19  1  0
 19 20  1  0
 20 21  2  0
 20 22  1  0
 22 23  1  0
 23 24  1  0
 24 25  1  0
 25 26  2  0
 25 27  2  0
 25 28  1  0
 28 29  1  0
 17 30  1  0
 30 31  2  0
 10 32  1  0
 32 33  1  0
 33  7  1  0
 31 14  1  0
 29 22  1  0
  1 34  1  0
  1 35  1  0
  1 36  1  0
  2 37  1  0
  3 38  1  0
  3 39  1  0
  3 40  1  0
  8 41  1  0
  8 42  1  0
  9 43  1  0
  9 44  1  0
 10 45  1  0
 15 46  1  0
 16 47  1  0
 18 48  1  0
 18 49  1  0
 22 50  1  0
 23 51  1  0
 23 52  1  0
 24 53  1  0
 24 54  1  0
 28 55  1  0
 28 56  1  0
 29 57  1  0
 29 58  1  0
 31 59  1  0
 32 60  1  0
 32 61  1  0
 33 62  1  0
 33 63  1  0
M  CHG  1  19  -1
M  END
>  <UniqueID>  (49) 
45

>  <SMILES>  (49) 
CC(C)OC(=O)N1CCC(S(=O)(=O)c2ccc(C[N-]C(=O)C3CCS(=O)(=O)CC3)nc2)CC1

>  <Energy>  (49) 
50.41286763136955

>  <Genealogy>  (49) 
CC(C)OC(=O)N1CCC(S(=O)(=O)c2ccc(C[N-]C(=O)C3CCS(=O)(=O)CC3)nc2)CC1 (protonated)
CC(C)OC(=O)N1CCC(S(=O)(=O)c2ccc(C[N-]C(=O)C3CCS(=O)(=O)CC3)nc2)CC1 (3D coordinates assigned)
CC(C)OC(=O)N1CCC(S(=O)(=O)c2ccc(C[N-]C(=O)C3CCS(=O)(=O)CC3)nc2)CC1 (nonaromatic ring conformer: 50.41286763136955 kcal/mol)

>  <smiles>  (49) 
CC(C)OC(=O)N1CCC(S(=O)(=O)c2ccc(CNC(=O)C3CCS(=O)(=O)CC3)nc2)CC1

>  <score_type>  (49) 
oracle

>  <origin>  (49) 
adg

>  <m_score__min__energy>  (49) 
-12.1

>  <m_primary>  (49) 
energy

$$$$
49:0
     RDKit          3D

 30 31  0  0  0  0  0  0  0  0999 V2000
   54.6490   26.1340   45.9560 N   0  0  0  0  0  0  0  0  0  0  0  0
   55.6780   25.1540   46.0650 C   0  0  0  0  0  0  0  0  0  0  0  0
   55.7190   24.1930   45.2520 O   0  0  0  0  0  0  0  0  0  0  0  0
   56.7230   25.2810   47.1270 C   0  0  0  0  0  0  0  0  0  0  0  0
   58.3760   25.4830   46.3790 S   0  0  0  0  0  0  0  0  0  0  0  0
   58.0330   27.1010   45.6950 C   0  0  0  0  0  0  0  0  0  0  0  0
   59.0400   27.8420   45.1660 N   0  0  0  0  0  0  0  0  0  0  0  0
   58.8060   29.0700   44.6370 C   0  0  0  0  0  0  0  0  0  0  0  0
   59.7690   29.7240   44.1550 O   0  0  0  0  0  0  0  0  0  0  0  0
   57.5010   29.5950   44.6280 C   0  0  0  0  0  0  0  0  0  0  0  0
   57.2120   30.9740   44.0780 C   0  0  0  0  0  0  0  0  0  0  0  0
   57.7510   32.0360   45.0010 C   0  0  0  0  0  0  0  0  0  0  0  0
   58.1540   31.7050   46.3060 C   0  0  0  0  0  0  0  0  0  0  0  0
   58.6820   32.6850   47.1510 C   0  0  0  0  0  0  0  0  0  0  0  0
   58.8160   34.0010   46.7000 C   0  0  0  0  0  0  0  0  0  0  0  0
   58.4220   34.3370   45.4020 C   0  0  0  0  0  0  0  0  0  0  0  0
   57.8930   33.3600   44.5530 C   0  0  0  0  0  0  0  0  0  0  0  0
   56.4790   28.8110   45.1930 C   0  0  0  0  0  0  0  0  0  0  0  0
   55.1660   29.2680   45.2290 O   0  0  0  0  0  0  0  0  0  0  0  0
   56.7660   27.5880   45.7080 N   0  0  0  0  0  0  0  0  0  0  0  0
   54.7670   27.0840   46.3730 H   0  0  0  0  0  0  0  0  0  0  0  0
   56.4990   26.1582   47.7518 H   0  0  0  0  0  0  0  0  0  0  0  0
   56.7196   24.3674   47.7396 H   0  0  0  0  0  0  0  0  0  0  0  0
   57.6877   31.0769   43.0915 H   0  0  0  0  0  0  0  0  0  0  0  0
   56.1228   31.0999   43.9899 H   0  0  0  0  0  0  0  0  0  0  0  0
   58.0534   30.6698   46.6640 H   0  0  0  0  0  0  0  0  0  0  0  0
   58.9925   32.4202   48.1725 H   0  0  0  0  0  0  0  0  0  0  0  0
   59.2312   34.7716   47.3661 H   0  0  0  0  0  0  0  0  0  0  0  0
   58.5283   35.3728   45.0473 H   0  0  0  0  0  0  0  0  0  0  0  0
   57.5871   33.6289   43.5312 H   0  0  0  0  0  0  0  0  0  0  0  0
  1  2  1  0
  2  3  2  0
  2  4  1  0
  4  5  1  0
  5  6  1  0
  6  7  2  0
  7  8  1  0
  8  9  2  0
  8 10  1  0
 10 11  1  0
 11 12  1  0
 12 13  2  0
 13 14  1  0
 14 15  2  0
 15 16  1  0
 16 17  2  0
 10 18  2  0
 18 19  1  0
 18 20  1  0
 20  6  1  0
 17 12  1  0
  1 21  1  0
  4 22  1  0
  4 23  1  0
 11 24  1  0
 11 25  1  0
 13 26  1  0
 14 27  1  0
 15 28  1  0
 16 29  1  0
 17 30  1  0
M  CHG  3   1  -1  19  -1  20  -1
M  END
>  <UniqueID>  (50) 
46

>  <SMILES>  (50) 
[NH-]C(=O)CSc1nc(=O)c(Cc2ccccc2)c([O-])[n-]1

>  <Energy>  (50) 
26.60499102577762

>  <Genealogy>  (50) 
[NH-]C(=O)CSc1nc(=O)c(Cc2ccccc2)c([O-])[n-]1 (protonated)
[NH-]C(=O)CSc1nc(=O)c(Cc2ccccc2)c([O-])[n-]1 (3D coordinates assigned)
[NH-]C(=O)CSc1nc(=O)c(Cc2ccccc2)c([O-])[n-]1 (optimized conformer: 26.60499102577762 kcal/mol)

>  <smiles>  (50) 
NC(=O)CSc1nc(=O)c(Cc2ccccc2)c(O)[nH]1

>  <score_type>  (50) 
oracle

>  <origin>  (50) 
adg

>  <m_score__min__energy>  (50) 
-15.390000000000001

>  <m_primary>  (50) 
energy

$$$$
50:0
     RDKit          3D

 40 42  0  0  0  0  0  0  0  0999 V2000
   56.8285   35.0838   44.7816 H   0  0  0  0  0  0  0  0  0  0  0  0
   57.4460   34.2220   45.0750 C   0  0  0  0  0  0  0  0  0  0  0  0
   58.8060   34.3960   45.3300 C   0  0  0  0  0  0  0  0  0  0  0  0
   59.2604   35.3932   45.2342 H   0  0  0  0  0  0  0  0  0  0  0  0
   59.5910   33.3040   45.7070 C   0  0  0  0  0  0  0  0  0  0  0  0
   60.6669   33.4419   45.8897 H   0  0  0  0  0  0  0  0  0  0  0  0
   59.0180   32.0350   45.8540 C   0  0  0  0  0  0  0  0  0  0  0  0
   59.8480   30.9700   46.2390 O   0  0  0  0  0  0  0  0  0  0  0  0
   59.4740   29.6180   46.2220 C   0  0  0  0  0  0  0  0  0  0  0  0
   58.9540   28.9800   47.3620 C   0  0  0  0  0  0  0  0  0  0  0  0
   58.8519   29.5385   48.3041 H   0  0  0  0  0  0  0  0  0  0  0  0
   58.5660   27.6370   47.3020 C   0  0  0  0  0  0  0  0  0  0  0  0
   58.1693   27.1403   48.1997 H   0  0  0  0  0  0  0  0  0  0  0  0
   58.6810   26.9240   46.1040 C   0  0  0  0  0  0  0  0  0  0  0  0
   58.3070   25.5390   46.0750 N   0  0  0  0  0  0  0  0  0  0  0  0
   57.0960   25.0540   46.0710 C   0  0  0  0  0  0  0  0  0  0  0  0
   56.8880   23.7710   46.5970 C   0  0  0  0  0  0  0  0  0  0  0  0
   57.7345   23.1939   46.9974 H   0  0  0  0  0  0  0  0  0  0  0  0
   55.6020   23.2300   46.6100 C   0  0  0  0  0  0  0  0  0  0  0  0
   55.4323   22.2205   47.0126 H   0  0  0  0  0  0  0  0  0  0  0  0
   54.5320   23.9730   46.1110 C   0  0  0  0  0  0  0  0  0  0  0  0
   53.5153   23.5531   46.1109 H   0  0  0  0  0  0  0  0  0  0  0  0
   54.7660   25.2550   45.6120 C   0  0  0  0  0  0  0  0  0  0  0  0
   53.9279   25.8513   45.2220 H   0  0  0  0  0  0  0  0  0  0  0  0
   56.0250   25.7720   45.6050 N   0  0  0  0  0  0  0  0  0  0  0  0
   56.1350   26.7520   45.2630 H   0  0  0  0  0  0  0  0  0  0  0  0
   59.2580   27.5430   44.9830 C   0  0  0  0  0  0  0  0  0  0  0  0
   59.4035   26.9707   44.0549 H   0  0  0  0  0  0  0  0  0  0  0  0
   59.6480   28.8840   45.0430 C   0  0  0  0  0  0  0  0  0  0  0  0
   60.0937   29.3646   44.1596 H   0  0  0  0  0  0  0  0  0  0  0  0
   57.6430   31.8510   45.5860 C   0  0  0  0  0  0  0  0  0  0  0  0
   57.0870   30.5290   45.6240 N   0  0  0  0  0  0  0  0  0  0  0  0
   56.3200   29.8990   44.5910 C   0  0  0  0  0  0  0  0  0  0  0  0
   55.5270   28.9570   44.8580 O   0  0  0  0  0  0  0  0  0  0  0  0
   56.5570   30.2840   43.1700 C   0  0  0  0  0  0  0  0  0  0  0  0
   57.1333   31.2203   43.1350 H   0  0  0  0  0  0  0  0  0  0  0  0
   57.1211   29.4870   42.6634 H   0  0  0  0  0  0  0  0  0  0  0  0
   55.5914   30.4287   42.6634 H   0  0  0  0  0  0  0  0  0  0  0  0
   56.8650   32.9560   45.1910 C   0  0  0  0  0  0  0  0  0  0  0  0
   55.7952   32.8224   44.9727 H   0  0  0  0  0  0  0  0  0  0  0  0
  1  2  1  0
  2  3  2  0
  3  4  1  0
  3  5  1  0
  5  6  1  0
  5  7  2  0
  7  8  1  0
  8  9  1  0
  9 10  2  0
 10 11  1  0
 10 12  1  0
 12 13  1  0
 12 14  2  0
 14 15  1  0
 15 16  2  0
 16 17  1  0
 17 18  1  0
 17 19  2  0
 19 20  1  0
 19 21  1  0
 21 22  1  0
 21 23  2  0
 23 24  1  0
 23 25  1  0
 25 26  1  0
 14 27  1  0
 27 28  1  0
 27 29  2  0
 29 30  1  0
  7 31  1  0
 31 32  1  0
 32 33  1  0
 33 34  2  0
 33 35  1  0
 35 36  1  0
 35 37  1  0
 35 38  1  0
 31 39  2  0
 39 40  1  0
 39  2  1  0
 29  9  1  0
 25 16  1  0
M  CHG  1  32  -1
M  END
>  <UniqueID>  (51) 
47

>  <SMILES>  (51) 
CC(=O)[N-]c1ccccc1Oc1ccc(/N=c2/cccc[nH]2)cc1

>  <Energy>  (51) 
60.45519996814431

>  <Genealogy>  (51) 
CC(=O)[N-]c1ccccc1Oc1ccc(N=c2cccc[nH]2)cc1 (protonated)
CC(=O)[N-]c1ccccc1Oc1ccc(/N=c2/cccc[nH]2)cc1 (cis-trans isomerization)
CC(=O)[N-]c1ccccc1Oc1ccc(/N=c2/cccc[nH]2)cc1 (3D coordinates assigned)
CC(=O)[N-]c1ccccc1Oc1ccc(/N=c2/cccc[nH]2)cc1 (optimized conformer: 60.45519996814431 kcal/mol)

>  <smiles>  (51) 
CC(=O)Nc1ccccc1Oc1ccc(N=c2cccc[nH]2)cc1

>  <score_type>  (51) 
oracle

>  <origin>  (51) 
adg

>  <m_score__min__energy>  (51) 
-9.7699999999999996

>  <m_primary>  (51) 
energy

$$$$
51:0
     RDKit          3D

 34 36  0  0  0  0  0  0  0  0999 V2000
   55.1470   29.3470   44.7940 O   0  0  0  0  0  0  0  0  0  0  0  0
   56.2780   29.8230   44.5070 C   0  0  0  0  0  0  0  0  0  0  0  0
   57.3420   28.9070   43.9710 C   0  0  0  0  0  0  0  0  0  0  0  0
   57.8570   28.0030   45.0560 C   0  0  0  0  0  0  0  0  0  0  0  0
   59.4880   27.8470   45.4550 S   0  0  0  0  0  0  0  0  0  0  0  0
   59.1770   26.7470   46.6830 C   0  0  0  0  0  0  0  0  0  0  0  0
   60.0620   26.2200   47.4060 O   0  0  0  0  0  0  0  0  0  0  0  0
   57.8620   26.4830   46.8200 N   0  0  0  0  0  0  0  0  0  0  0  0
   57.1190   27.1800   45.9190 C   0  0  0  0  0  0  0  0  0  0  0  0
   55.7310   27.0510   45.8970 O   0  0  0  0  0  0  0  0  0  0  0  0
   56.5160   31.2180   44.7300 N   0  0  0  0  0  0  0  0  0  0  0  0
   57.5840   31.9860   44.1030 C   0  0  0  0  0  0  0  0  0  0  0  0
   58.2930   32.8110   45.1500 C   0  0  0  0  0  0  0  0  0  0  0  0
   58.5310   34.1710   44.8830 C   0  0  0  0  0  0  0  0  0  0  0  0
   59.1850   34.9790   45.8130 C   0  0  0  0  0  0  0  0  0  0  0  0
   59.6220   34.4460   47.0230 C   0  0  0  0  0  0  0  0  0  0  0  0
   59.4150   33.0910   47.3150 C   0  0  0  0  0  0  0  0  0  0  0  0
   59.8670   32.5610   48.5330 C   0  0  0  0  0  0  0  0  0  0  0  0
   59.6720   31.2120   48.8290 C   0  0  0  0  0  0  0  0  0  0  0  0
   59.0280   30.3800   47.9140 C   0  0  0  0  0  0  0  0  0  0  0  0
   58.5700   30.8910   46.6970 C   0  0  0  0  0  0  0  0  0  0  0  0
   58.7500   32.2550   46.3760 C   0  0  0  0  0  0  0  0  0  0  0  0
   56.9179   28.2949   43.1614 H   0  0  0  0  0  0  0  0  0  0  0  0
   58.1757   29.5157   43.5909 H   0  0  0  0  0  0  0  0  0  0  0  0
   55.1440   27.5630   45.2520 H   0  0  0  0  0  0  0  0  0  0  0  0
   58.3011   31.2986   43.6305 H   0  0  0  0  0  0  0  0  0  0  0  0
   57.1564   32.6522   43.3392 H   0  0  0  0  0  0  0  0  0  0  0  0
   58.1970   34.6033   43.9282 H   0  0  0  0  0  0  0  0  0  0  0  0
   59.3564   36.0423   45.5896 H   0  0  0  0  0  0  0  0  0  0  0  0
   60.1321   35.0916   47.7531 H   0  0  0  0  0  0  0  0  0  0  0  0
   60.3774   33.2123   49.2577 H   0  0  0  0  0  0  0  0  0  0  0  0
   60.0271   30.8035   49.7866 H   0  0  0  0  0  0  0  0  0  0  0  0
   58.8798   29.3162   48.1515 H   0  0  0  0  0  0  0  0  0  0  0  0
   58.0645   30.2251   45.9821 H   0  0  0  0  0  0  0  0  0  0  0  0
  1  2  2  0
  2  3  1  0
  3  4  1  0
  4  5  1  0
  5  6  1  0
  6  7  2  0
  6  8  1  0
  8  9  1  0
  9 10  1  0
  2 11  1  0
 11 12  1  0
 12 13  1  0
 13 14  2  0
 14 15  1  0
 15 16  2  0
 16 17  1  0
 17 18  2  0
 18 19  1  0
 19 20  2  0
 20 21  1  0
 21 22  2  0
  9  4  2  0
 22 13  1  0
 22 17  1  0
  3 23  1  0
  3 24  1  0
 10 25  1  0
 12 26  1  0
 12 27  1  0
 14 28  1  0
 15 29  1  0
 16 30  1  0
 18 31  1  0
 19 32  1  0
 20 33  1  0
 21 34  1  0
M  CHG  2   8  -1  11  -1
M  END
>  <UniqueID>  (52) 
48

>  <SMILES>  (52) 
O=C(Cc1sc(=O)[n-]c1O)[N-]Cc1cccc2ccccc12

>  <Energy>  (52) 
69.03321772557814

>  <Genealogy>  (52) 
O=C(Cc1sc(=O)[n-]c1O)[N-]Cc1cccc2ccccc12 (protonated)
O=C(Cc1sc(=O)[n-]c1O)[N-]Cc1cccc2ccccc12 (3D coordinates assigned)
O=C(Cc1sc(=O)[n-]c1O)[N-]Cc1cccc2ccccc12 (optimized conformer: 69.03321772557814 kcal/mol)

>  <smiles>  (52) 
O=C(Cc1sc(=O)[nH]c1O)NCc1cccc2ccccc12

>  <score_type>  (52) 
oracle

>  <origin>  (52) 
adg

>  <m_score__min__energy>  (52) 
-12.93

>  <m_primary>  (52) 
energy

$$$$
52:0
     RDKit          3D

 55 57  0  0  0  0  0  0  0  0999 V2000
   54.7760   24.1680   46.7430 O   0  0  0  0  0  0  0  0  0  0  0  0
   55.1200   25.0250   45.8780 C   0  0  0  0  0  0  0  0  0  0  0  0
   54.6450   26.3340   45.9790 O   0  0  0  0  0  0  0  0  0  0  0  0
   56.0890   24.6440   44.7970 C   0  0  0  0  0  0  0  0  0  0  0  0
   57.5200   24.9350   45.2000 C   0  0  0  0  0  0  0  0  0  0  0  0
   58.4360   23.8690   45.2690 C   0  0  0  0  0  0  0  0  0  0  0  0
   59.7490   24.0850   45.6870 C   0  0  0  0  0  0  0  0  0  0  0  0
   60.1660   25.3640   46.0540 C   0  0  0  0  0  0  0  0  0  0  0  0
   59.2690   26.4330   46.0030 C   0  0  0  0  0  0  0  0  0  0  0  0
   57.9420   26.2370   45.5830 C   0  0  0  0  0  0  0  0  0  0  0  0
   57.0340   27.3510   45.5400 N   0  0  0  0  0  0  0  0  0  0  0  0
   57.5650   28.9560   45.1430 S   0  0  0  0  0  0  0  0  0  0  0  0
   58.1530   28.9770   43.7590 O   0  0  0  0  0  0  0  0  0  0  0  0
   56.3920   29.8970   45.2060 O   0  0  0  0  0  0  0  0  0  0  0  0
   58.8040   29.4450   46.2910 C   0  0  0  0  0  0  0  0  0  0  0  0
   59.9570   30.1190   45.8630 C   0  0  0  0  0  0  0  0  0  0  0  0
   60.9040   30.5540   46.7970 C   0  0  0  0  0  0  0  0  0  0  0  0
   60.7090   30.3130   48.1670 C   0  0  0  0  0  0  0  0  0  0  0  0
   61.6550   30.8960   49.1840 C   0  0  0  0  0  0  0  0  0  0  0  0
   61.0000   32.0220   49.9960 C   0  0  0  0  0  0  0  0  0  0  0  0
   61.1190   33.3060   49.3050 N   0  0  0  0  0  0  0  0  0  0  0  0
   59.9950   34.0560   48.8230 C   0  0  0  0  0  0  0  0  0  0  0  0
   59.4940   34.9630   49.5430 O   0  0  0  0  0  0  0  0  0  0  0  0
   59.4290   33.7780   47.4850 C   0  0  0  0  0  0  0  0  0  0  0  0
   58.2690   32.9940   47.3500 C   0  0  0  0  0  0  0  0  0  0  0  0
   57.7450   32.7130   46.0850 C   0  0  0  0  0  0  0  0  0  0  0  0
   58.3660   33.2130   44.9330 C   0  0  0  0  0  0  0  0  0  0  0  0
   57.7760   32.9430   43.5750 C   0  0  0  0  0  0  0  0  0  0  0  0
   58.0790   31.6360   43.1680 O   0  0  0  0  0  0  0  0  0  0  0  0
   59.5080   34.0170   45.0620 C   0  0  0  0  0  0  0  0  0  0  0  0
   60.0380   34.2930   46.3280 C   0  0  0  0  0  0  0  0  0  0  0  0
   59.5640   29.6160   48.5880 C   0  0  0  0  0  0  0  0  0  0  0  0
   58.6180   29.1880   47.6550 C   0  0  0  0  0  0  0  0  0  0  0  0
   55.9883   23.5682   44.5909 H   0  0  0  0  0  0  0  0  0  0  0  0
   55.8566   25.2400   43.9022 H   0  0  0  0  0  0  0  0  0  0  0  0
   58.1132   22.8550   44.9904 H   0  0  0  0  0  0  0  0  0  0  0  0
   60.4573   23.2443   45.7273 H   0  0  0  0  0  0  0  0  0  0  0  0
   61.2020   25.5309   46.3838 H   0  0  0  0  0  0  0  0  0  0  0  0
   59.6045   27.4392   46.2946 H   0  0  0  0  0  0  0  0  0  0  0  0
   56.0570   27.2500   45.8950 H   0  0  0  0  0  0  0  0  0  0  0  0
   60.1173   30.3061   44.7909 H   0  0  0  0  0  0  0  0  0  0  0  0
   61.8044   31.0866   46.4570 H   0  0  0  0  0  0  0  0  0  0  0  0
   61.9720   30.0990   49.8727 H   0  0  0  0  0  0  0  0  0  0  0  0
   62.5152   31.3202   48.6454 H   0  0  0  0  0  0  0  0  0  0  0  0
   59.9347   31.7886   50.1399 H   0  0  0  0  0  0  0  0  0  0  0  0
   61.5130   32.0979   50.9661 H   0  0  0  0  0  0  0  0  0  0  0  0
   57.7702   32.5988   48.2472 H   0  0  0  0  0  0  0  0  0  0  0  0
   56.8394   32.0954   45.9934 H   0  0  0  0  0  0  0  0  0  0  0  0
   56.6838   33.0651   43.6223 H   0  0  0  0  0  0  0  0  0  0  0  0
   58.2016   33.6529   42.8505 H   0  0  0  0  0  0  0  0  0  0  0  0
   57.5860   31.0260   43.7780 H   0  0  0  0  0  0  0  0  0  0  0  0
   59.9893   34.4325   44.1644 H   0  0  0  0  0  0  0  0  0  0  0  0
   60.9386   34.9182   46.4178 H   0  0  0  0  0  0  0  0  0  0  0  0
   59.4124   29.4067   49.6572 H   0  0  0  0  0  0  0  0  0  0  0  0
   57.7222   28.6463   47.9928 H   0  0  0  0  0  0  0  0  0  0  0  0
  1  2  2  0
  2  3  1  0
  2  4  1  0
  4  5  1  0
  5  6  2  0
  6  7  1  0
  7  8  2  0
  8  9  1  0
  9 10  2  0
 10 11  1  0
 11 12  1  0
 12 13  2  0
 12 14  2  0
 12 15  1  0
 15 16  2  0
 16 17  1  0
 17 18  2  0
 18 19  1  0
 19 20  1  0
 20 21  1  0
 21 22  1  0
 22 23  2  0
 22 24  1  0
 24 25  2  0
 25 26  1  0
 26 27  2  0
 27 28  1  0
 28 29  1  0
 27 30  1  0
 30 31  2  0
 18 32  1  0
 32 33  2  0
 10  5  1  0
 33 15  1  0
 31 24  1  0
  4 34  1  0
  4 35  1  0
  6 36  1  0
  7 37  1  0
  8 38  1  0
  9 39  1  0
 11 40  1  0
 16 41  1  0
 17 42  1  0
 19 43  1  0
 19 44  1  0
 20 45  1  0
 20 46  1  0
 25 47  1  0
 26 48  1  0
 28 49  1  0
 28 50  1  0
 29 51  1  0
 30 52  1  0
 31 53  1  0
 32 54  1  0
 33 55  1  0
M  CHG  2   3  -1  21  -1
M  END
>  <UniqueID>  (53) 
49

>  <SMILES>  (53) 
O=C([O-])Cc1ccccc1NS(=O)(=O)c1ccc(CC[N-]C(=O)c2ccc(CO)cc2)cc1

>  <Energy>  (53) 
54.60665925045551

>  <Genealogy>  (53) 
O=C([O-])Cc1ccccc1NS(=O)(=O)c1ccc(CC[N-]C(=O)c2ccc(CO)cc2)cc1 (protonated)
O=C([O-])Cc1ccccc1NS(=O)(=O)c1ccc(CC[N-]C(=O)c2ccc(CO)cc2)cc1 (3D coordinates assigned)
O=C([O-])Cc1ccccc1NS(=O)(=O)c1ccc(CC[N-]C(=O)c2ccc(CO)cc2)cc1 (optimized conformer: 54.60665925045551 kcal/mol)

>  <smiles>  (53) 
O=C(O)Cc1ccccc1NS(=O)(=O)c1ccc(CCNC(=O)c2ccc(CO)cc2)cc1

>  <score_type>  (53) 
oracle

>  <origin>  (53) 
adg

>  <m_score__min__energy>  (53) 
-15.720000000000001

>  <m_primary>  (53) 
energy

$$$$
53:0
     RDKit          3D

 31 32  0  0  0  0  0  0  0  0999 V2000
   57.3320   33.0320   47.1200 O   0  0  0  0  0  0  0  0  0  0  0  0
   58.2220   33.2410   46.2520 C   0  0  0  0  0  0  0  0  0  0  0  0
   57.8110   33.7490   44.8970 C   0  0  0  0  0  0  0  0  0  0  0  0
   58.0300   32.4730   43.6020 S   0  0  0  0  0  0  0  0  0  0  0  0
   56.7340   31.3220   44.1950 C   0  0  0  0  0  0  0  0  0  0  0  0
   57.3350   30.0330   44.6980 C   0  0  0  0  0  0  0  0  0  0  0  0
   58.7300   29.9330   44.8390 C   0  0  0  0  0  0  0  0  0  0  0  0
   59.3110   28.7540   45.3150 C   0  0  0  0  0  0  0  0  0  0  0  0
   58.5060   27.6640   45.6520 C   0  0  0  0  0  0  0  0  0  0  0  0
   57.1190   27.7490   45.5100 C   0  0  0  0  0  0  0  0  0  0  0  0
   56.5290   28.9250   45.0340 C   0  0  0  0  0  0  0  0  0  0  0  0
   55.1460   28.9810   44.8990 O   0  0  0  0  0  0  0  0  0  0  0  0
   59.6450   33.0120   46.6050 C   0  0  0  0  0  0  0  0  0  0  0  0
   60.6010   34.0090   46.3580 C   0  0  0  0  0  0  0  0  0  0  0  0
   61.9370   33.8020   46.6980 C   0  0  0  0  0  0  0  0  0  0  0  0
   62.3160   32.5920   47.2810 C   0  0  0  0  0  0  0  0  0  0  0  0
   61.3880   31.6250   47.5080 N   0  0  0  0  0  0  0  0  0  0  0  0
   60.0770   31.8040   47.1850 C   0  0  0  0  0  0  0  0  0  0  0  0
   56.7516   34.0430   44.9325 H   0  0  0  0  0  0  0  0  0  0  0  0
   58.4496   34.6082   44.6441 H   0  0  0  0  0  0  0  0  0  0  0  0
   56.1765   31.8009   45.0134 H   0  0  0  0  0  0  0  0  0  0  0  0
   56.0652   31.0884   43.3535 H   0  0  0  0  0  0  0  0  0  0  0  0
   59.3687   30.7882   44.5730 H   0  0  0  0  0  0  0  0  0  0  0  0
   60.4034   28.6849   45.4242 H   0  0  0  0  0  0  0  0  0  0  0  0
   58.9643   26.7380   46.0295 H   0  0  0  0  0  0  0  0  0  0  0  0
   56.4878   26.8875   45.7736 H   0  0  0  0  0  0  0  0  0  0  0  0
   60.2949   34.9582   45.8940 H   0  0  0  0  0  0  0  0  0  0  0  0
   62.6857   34.5853   46.5085 H   0  0  0  0  0  0  0  0  0  0  0  0
   63.3669   32.4206   47.5571 H   0  0  0  0  0  0  0  0  0  0  0  0
   61.6890   30.7210   47.9350 H   0  0  0  0  0  0  0  0  0  0  0  0
   59.3515   31.0001   47.3784 H   0  0  0  0  0  0  0  0  0  0  0  0
  1  2  2  0
  2  3  1  0
  3  4  1  0
  4  5  1  0
  5  6  1  0
  6  7  2  0
  7  8  1  0
  8  9  2  0
  9 10  1  0
 10 11  2  0
 11 12  1  0
  2 13  1  0
 13 14  2  0
 14 15  1  0
 15 16  2  0
 16 17  1  0
 17 18  2  0
 11  6  1  0
 18 13  1  0
  3 19  1  0
  3 20  1  0
  5 21  1  0
  5 22  1  0
  7 23  1  0
  8 24  1  0
  9 25  1  0
 10 26  1  0
 14 27  1  0
 15 28  1  0
 16 29  1  0
 17 30  1  0
 18 31  1  0
M  CHG  2  12  -1  17   1
M  END
>  <UniqueID>  (54) 
50

>  <SMILES>  (54) 
O=C(CSCc1ccccc1[O-])c1ccc[nH+]c1

>  <Energy>  (54) 
30.50447648427431

>  <Genealogy>  (54) 
O=C(CSCc1ccccc1[O-])c1ccc[nH+]c1 (protonated)
O=C(CSCc1ccccc1[O-])c1ccc[nH+]c1 (3D coordinates assigned)
O=C(CSCc1ccccc1[O-])c1ccc[nH+]c1 (optimized conformer: 30.50447648427431 kcal/mol)

>  <smiles>  (54) 
O=C(CSCc1ccccc1O)c1cccnc1

>  <score_type>  (54) 
oracle

>  <origin>  (54) 
adg

>  <m_score__min__energy>  (54) 
-9.2200000000000006

>  <m_primary>  (54) 
energy

$$$$
54:0
     RDKit          3D

 44 46  0  0  0  0  0  0  0  0999 V2000
   57.5900   27.0540   47.1270 O   0  0  0  0  0  0  0  0  0  0  0  0
   58.3030   27.9490   46.5910 C   0  0  0  0  0  0  0  0  0  0  0  0
   58.1410   28.2410   45.1170 C   0  0  0  0  0  0  0  0  0  0  0  0
   57.5280   29.5870   44.8600 C   0  0  0  0  0  0  0  0  0  0  0  0
   58.2360   30.7100   44.6500 N   0  0  0  0  0  0  0  0  0  0  0  0
   57.2880   31.6460   44.4110 C   0  0  0  0  0  0  0  0  0  0  0  0
   57.6110   33.0890   44.1750 C   0  0  0  0  0  0  0  0  0  0  0  0
   58.6040   33.6070   45.2170 C   0  0  0  0  0  0  0  0  0  0  0  0
   58.5340   32.7960   46.4360 N   0  0  0  0  0  0  0  0  0  0  0  0
   59.2940   33.6380   47.7530 S   0  0  0  0  0  0  0  0  0  0  0  0
   58.8750   35.0810   47.7300 O   0  0  0  0  0  0  0  0  0  0  0  0
   58.8530   33.0280   49.0530 O   0  0  0  0  0  0  0  0  0  0  0  0
   61.0410   33.5270   47.6340 C   0  0  0  0  0  0  0  0  0  0  0  0
   61.7900   33.6540   46.4750 C   0  0  0  0  0  0  0  0  0  0  0  0
   63.1630   33.4970   46.6920 C   0  0  0  0  0  0  0  0  0  0  0  0
   63.4910   33.2420   48.0180 C   0  0  0  0  0  0  0  0  0  0  0  0
   62.0720   33.2140   48.9220 S   0  0  0  0  0  0  0  0  0  0  0  0
   56.0210   31.1770   44.4650 N   0  0  0  0  0  0  0  0  0  0  0  0
   56.1920   29.8740   44.7390 C   0  0  0  0  0  0  0  0  0  0  0  0
   55.1480   28.9700   44.8800 O   0  0  0  0  0  0  0  0  0  0  0  0
   59.2720   28.6630   47.3950 N   0  0  0  0  0  0  0  0  0  0  0  0
   59.3530   28.3710   48.8340 C   0  0  0  0  0  0  0  0  0  0  0  0
   60.7100   28.7930   49.4000 C   0  0  0  0  0  0  0  0  0  0  0  0
   61.0080   30.1270   49.0410 O   0  0  0  0  0  0  0  0  0  0  0  0
   61.1900   30.2040   47.6430 C   0  0  0  0  0  0  0  0  0  0  0  0
   59.8830   29.9080   46.9020 C   0  0  0  0  0  0  0  0  0  0  0  0
   59.1317   28.2081   44.6402 H   0  0  0  0  0  0  0  0  0  0  0  0
   57.4645   27.4811   44.6988 H   0  0  0  0  0  0  0  0  0  0  0  0
   58.0509   33.1997   43.1729 H   0  0  0  0  0  0  0  0  0  0  0  0
   56.6825   33.6733   44.2555 H   0  0  0  0  0  0  0  0  0  0  0  0
   59.6225   33.5547   44.8047 H   0  0  0  0  0  0  0  0  0  0  0  0
   58.3502   34.6481   45.4656 H   0  0  0  0  0  0  0  0  0  0  0  0
   59.0840   31.9190   46.2780 H   0  0  0  0  0  0  0  0  0  0  0  0
   61.3506   33.8571   45.4872 H   0  0  0  0  0  0  0  0  0  0  0  0
   63.9117   33.5686   45.8893 H   0  0  0  0  0  0  0  0  0  0  0  0
   64.5066   33.0850   48.4104 H   0  0  0  0  0  0  0  0  0  0  0  0
   58.5572   28.9203   49.3585 H   0  0  0  0  0  0  0  0  0  0  0  0
   59.2321   27.2875   48.9806 H   0  0  0  0  0  0  0  0  0  0  0  0
   60.6851   28.7112   50.4967 H   0  0  0  0  0  0  0  0  0  0  0  0
   61.4866   28.1333   48.9856 H   0  0  0  0  0  0  0  0  0  0  0  0
   61.5313   31.2161   47.3799 H   0  0  0  0  0  0  0  0  0  0  0  0
   61.9388   29.4551   47.3454 H   0  0  0  0  0  0  0  0  0  0  0  0
   59.1822   30.7409   47.0606 H   0  0  0  0  0  0  0  0  0  0  0  0
   60.1041   29.7917   45.8307 H   0  0  0  0  0  0  0  0  0  0  0  0
  1  2  2  0
  2  3  1  0
  3  4  1  0
  4  5  1  0
  5  6  1  0
  6  7  1  0
  7  8  1  0
  8  9  1  0
  9 10  1  0
 10 11  2  0
 10 12  2  0
 10 13  1  0
 13 14  2  0
 14 15  1  0
 15 16  2  0
 16 17  1  0
  6 18  2  0
 18 19  1  0
 19 20  1  0
  2 21  1  0
 21 22  1  0
 22 23  1  0
 23 24  1  0
 24 25  1  0
 25 26  1  0
 19  4  2  0
 26 21  1  0
 17 13  1  0
  3 27  1  0
  3 28  1  0
  7 29  1  0
  7 30  1  0
  8 31  1  0
  8 32  1  0
  9 33  1  0
 14 34  1  0
 15 35  1  0
 16 36  1  0
 22 37  1  0
 22 38  1  0
 23 39  1  0
 23 40  1  0
 25 41  1  0
 25 42  1  0
 26 43  1  0
 26 44  1  0
M  CHG  2   5  -1  20  -1
M  END
>  <UniqueID>  (55) 
51

>  <SMILES>  (55) 
O=C(Cc1[n-]c(CCNS(=O)(=O)c2cccs2)nc1[O-])N1CCOCC1

>  <Energy>  (55) 
95.76887791590775

>  <Genealogy>  (55) 
O=C(Cc1[n-]c(CCNS(=O)(=O)c2cccs2)nc1[O-])N1CCOCC1 (protonated)
O=C(Cc1[n-]c(CCNS(=O)(=O)c2cccs2)nc1[O-])N1CCOCC1 (3D coordinates assigned)
O=C(Cc1[n-]c(CCNS(=O)(=O)c2cccs2)nc1[O-])N1CCOCC1 (nonaromatic ring conformer: 95.76887791590775 kcal/mol)

>  <smiles>  (55) 
O=C(Cc1[nH]c(CCNS(=O)(=O)c2cccs2)nc1O)N1CCOCC1

>  <score_type>  (55) 
oracle

>  <origin>  (55) 
adg

>  <m_score__min__energy>  (55) 
-14.1

>  <m_primary>  (55) 
energy

$$$$
55:0
     RDKit          3D

 43 45  0  0  0  0  0  0  0  0999 V2000
   62.0210   33.6530   46.9050 C   0  0  0  0  0  0  0  0  0  0  0  0
   60.5610   33.9720   46.7920 C   0  0  0  0  0  0  0  0  0  0  0  0
   59.8310   34.5590   47.9720 C   0  0  0  0  0  0  0  0  0  0  0  0
   59.9740   33.7230   45.6530 N   0  0  0  0  0  0  0  0  0  0  0  0
   58.5830   33.4660   45.3890 C   0  0  0  0  0  0  0  0  0  0  0  0
   57.7650   34.4150   45.2420 O   0  0  0  0  0  0  0  0  0  0  0  0
   58.1020   32.0660   45.2890 C   0  0  0  0  0  0  0  0  0  0  0  0
   57.0070   31.7440   44.4650 C   0  0  0  0  0  0  0  0  0  0  0  0
   56.5520   30.4280   44.3680 C   0  0  0  0  0  0  0  0  0  0  0  0
   57.1800   29.4110   45.0910 C   0  0  0  0  0  0  0  0  0  0  0  0
   56.7300   28.1330   44.9890 N   0  0  0  0  0  0  0  0  0  0  0  0
   57.3040   27.0980   45.6650 C   0  0  0  0  0  0  0  0  0  0  0  0
   56.7500   25.7300   45.5030 C   0  0  0  0  0  0  0  0  0  0  0  0
   55.8660   25.1800   46.4500 C   0  0  0  0  0  0  0  0  0  0  0  0
   55.3550   23.8920   46.2780 C   0  0  0  0  0  0  0  0  0  0  0  0
   55.7240   23.1270   45.1690 C   0  0  0  0  0  0  0  0  0  0  0  0
   55.1900   21.8530   45.0140 O   0  0  0  0  0  0  0  0  0  0  0  0
   56.6280   23.6480   44.2250 C   0  0  0  0  0  0  0  0  0  0  0  0
   57.0170   22.8500   43.0030 C   0  0  0  0  0  0  0  0  0  0  0  0
   56.0110   21.8350   42.6950 N   0  0  0  0  0  0  0  0  0  0  0  0
   57.1270   24.9490   44.3940 C   0  0  0  0  0  0  0  0  0  0  0  0
   58.3950   27.3580   46.5130 C   0  0  0  0  0  0  0  0  0  0  0  0
   58.8840   28.6610   46.6420 C   0  0  0  0  0  0  0  0  0  0  0  0
   59.8630   28.8820   47.4050 O   0  0  0  0  0  0  0  0  0  0  0  0
   58.2790   29.7090   45.9230 C   0  0  0  0  0  0  0  0  0  0  0  0
   58.7330   31.0390   46.0170 C   0  0  0  0  0  0  0  0  0  0  0  0
   62.3018   33.5916   47.9668 H   0  0  0  0  0  0  0  0  0  0  0  0
   62.2247   32.6892   46.4156 H   0  0  0  0  0  0  0  0  0  0  0  0
   62.6081   34.4441   46.4156 H   0  0  0  0  0  0  0  0  0  0  0  0
   60.2863   34.1929   48.9040 H   0  0  0  0  0  0  0  0  0  0  0  0
   59.8997   35.6563   47.9368 H   0  0  0  0  0  0  0  0  0  0  0  0
   58.7740   34.2564   47.9368 H   0  0  0  0  0  0  0  0  0  0  0  0
   56.5049   32.5374   43.8919 H   0  0  0  0  0  0  0  0  0  0  0  0
   55.6956   30.1908   43.7197 H   0  0  0  0  0  0  0  0  0  0  0  0
   55.5755   25.7692   47.3323 H   0  0  0  0  0  0  0  0  0  0  0  0
   54.6575   23.4771   47.0205 H   0  0  0  0  0  0  0  0  0  0  0  0
   57.1143   23.5314   42.1450 H   0  0  0  0  0  0  0  0  0  0  0  0
   57.9727   22.3445   43.2056 H   0  0  0  0  0  0  0  0  0  0  0  0
   56.1770   21.0000   43.3030 H   0  0  0  0  0  0  0  0  0  0  0  0
   55.0660   22.2170   42.9310 H   0  0  0  0  0  0  0  0  0  0  0  0
   57.8223   25.3641   43.6496 H   0  0  0  0  0  0  0  0  0  0  0  0
   58.8635   26.5363   47.0746 H   0  0  0  0  0  0  0  0  0  0  0  0
   59.5889   31.2778   46.6654 H   0  0  0  0  0  0  0  0  0  0  0  0
  1  2  1  0
  2  3  1  0
  2  4  2  3
  4  5  1  0
  5  6  2  0
  5  7  1  0
  7  8  2  0
  8  9  1  0
  9 10  2  0
 10 11  1  0
 11 12  1  0
 12 13  1  0
 13 14  2  0
 14 15  1  0
 15 16  2  0
 16 17  1  0
 16 18  1  0
 18 19  1  0
 19 20  1  0
 18 21  2  0
 12 22  2  0
 22 23  1  0
 23 24  2  0
 23 25  1  0
 25 26  2  0
 26  7  1  0
 25 10  1  0
 21 13  1  0
  1 27  1  0
  1 28  1  0
  1 29  1  0
  3 30  1  0
  3 31  1  0
  3 32  1  0
  8 33  1  0
  9 34  1  0
 14 35  1  0
 15 36  1  0
 19 37  1  0
 19 38  1  0
 20 39  1  0
 20 40  1  0
 21 41  1  0
 22 42  1  0
 26 43  1  0
M  CHG  2  11  -1  17  -1
M  END
>  <UniqueID>  (56) 
52

>  <SMILES>  (56) 
CC(C)=NC(=O)c1ccc2[n-]c(-c3ccc([O-])c(CN)c3)cc(=O)c2c1

>  <Energy>  (56) 
53.9596932616555

>  <Genealogy>  (56) 
CC(C)=NC(=O)c1ccc2[n-]c(-c3ccc([O-])c(CN)c3)cc(=O)c2c1 (protonated)
CC(C)=NC(=O)c1ccc2[n-]c(-c3ccc([O-])c(CN)c3)cc(=O)c2c1 (3D coordinates assigned)
CC(C)=NC(=O)c1ccc2[n-]c(-c3ccc([O-])c(CN)c3)cc(=O)c2c1 (optimized conformer: 53.9596932616555 kcal/mol)

>  <smiles>  (56) 
CC(C)=NC(=O)c1ccc2[nH]c(-c3ccc(O)c(CN)c3)cc(=O)c2c1

>  <score_type>  (56) 
oracle

>  <origin>  (56) 
adg

>  <m_score__min__energy>  (56) 
-10.779999999999999

>  <m_primary>  (56) 
energy

$$$$
56:0
     RDKit          3D

 41 42  0  0  0  0  0  0  0  0999 V2000
   61.2984   29.8020   45.9345 H   0  0  0  0  0  0  0  0  0  0  0  0
   60.2440   30.0590   46.1140 C   0  0  0  0  0  0  0  0  0  0  0  0
   59.9420   31.0940   47.0600 N   0  0  0  0  0  0  0  0  0  0  0  0
   60.5270   31.9590   47.0360 H   0  0  0  0  0  0  0  0  0  0  0  0
   59.1250   30.8680   48.2150 C   0  0  0  0  0  0  0  0  0  0  0  0
   58.6300   29.7280   48.4360 O   0  0  0  0  0  0  0  0  0  0  0  0
   58.8860   31.9430   49.1260 N   0  0  0  0  0  0  0  0  0  0  0  0
   59.2630   33.3210   48.8350 C   0  0  0  0  0  0  0  0  0  0  0  0
   58.7981   33.9921   49.5722 H   0  0  0  0  0  0  0  0  0  0  0  0
   60.3572   33.4213   48.8876 H   0  0  0  0  0  0  0  0  0  0  0  0
   58.7920   33.6870   47.4580 C   0  0  0  0  0  0  0  0  0  0  0  0
   59.6710   34.2930   46.5460 C   0  0  0  0  0  0  0  0  0  0  0  0
   60.7173   34.4758   46.8322 H   0  0  0  0  0  0  0  0  0  0  0  0
   59.2210   34.6650   45.2750 C   0  0  0  0  0  0  0  0  0  0  0  0
   59.9159   35.1305   44.5606 H   0  0  0  0  0  0  0  0  0  0  0  0
   57.8900   34.4460   44.9120 C   0  0  0  0  0  0  0  0  0  0  0  0
   57.5389   34.7361   43.9107 H   0  0  0  0  0  0  0  0  0  0  0  0
   57.0040   33.8590   45.8190 C   0  0  0  0  0  0  0  0  0  0  0  0
   55.9553   33.6907   45.5329 H   0  0  0  0  0  0  0  0  0  0  0  0
   57.4510   33.4850   47.0920 C   0  0  0  0  0  0  0  0  0  0  0  0
   56.7497   33.0315   47.8079 H   0  0  0  0  0  0  0  0  0  0  0  0
   59.3230   29.4090   45.4570 N   0  0  0  0  0  0  0  0  0  0  0  0
   59.6280   28.5780   44.9010 H   0  0  0  0  0  0  0  0  0  0  0  0
   57.9340   29.7840   45.3850 C   0  0  0  0  0  0  0  0  0  0  0  0
   57.5800   30.9790   45.5810 O   0  0  0  0  0  0  0  0  0  0  0  0
   56.9150   28.7880   45.0240 C   0  0  0  0  0  0  0  0  0  0  0  0
   55.6910   29.0790   45.1090 O   0  0  0  0  0  0  0  0  0  0  0  0
   57.3180   27.5010   44.5440 N   0  0  0  0  0  0  0  0  0  0  0  0
   57.3880   26.3220   45.3560 C   0  0  0  0  0  0  0  0  0  0  0  0
   58.6490   25.7750   45.6270 C   0  0  0  0  0  0  0  0  0  0  0  0
   59.5530   26.2719   45.2452 H   0  0  0  0  0  0  0  0  0  0  0  0
   58.7670   24.6040   46.3780 C   0  0  0  0  0  0  0  0  0  0  0  0
   59.7608   24.1770   46.5780 H   0  0  0  0  0  0  0  0  0  0  0  0
   57.6250   23.9750   46.8750 C   0  0  0  0  0  0  0  0  0  0  0  0
   57.7182   23.0431   47.4519 H   0  0  0  0  0  0  0  0  0  0  0  0
   56.3640   24.5270   46.6410 C   0  0  0  0  0  0  0  0  0  0  0  0
   55.4680   24.0308   47.0421 H   0  0  0  0  0  0  0  0  0  0  0  0
   56.2310   25.7100   45.8980 C   0  0  0  0  0  0  0  0  0  0  0  0
   54.9350   26.3050   45.7590 N   0  0  0  0  0  0  0  0  0  0  0  0
   54.7660   27.1110   45.1190 H   0  0  0  0  0  0  0  0  0  0  0  0
   54.1450   26.0040   46.3730 H   0  0  0  0  0  0  0  0  0  0  0  0
  1  2  1  0
  2  3  1  0
  3  4  1  0
  3  5  1  0
  5  6  2  0
  5  7  1  0
  7  8  1  0
  8  9  1  0
  8 10  1  0
  8 11  1  0
 11 12  2  0
 12 13  1  0
 12 14  1  0
 14 15  1  0
 14 16  2  0
 16 17  1  0
 16 18  1  0
 18 19  1  0
 18 20  2  0
 20 21  1  0
  2 22  2  0
 22 23  1  0
 22 24  1  0
 24 25  2  0
 24 26  1  0
 26 27  2  0
 26 28  1  0
 28 29  1  0
 29 30  2  0
 30 31  1  0
 30 32  1  0
 32 33  1  0
 32 34  2  0
 34 35  1  0
 34 36  1  0
 36 37  1  0
 36 38  2  0
 38 39  1  0
 39 40  1  0
 39 41  1  0
 20 11  1  0
 38 29  1  0
M  CHG  3   7  -1  22   1  28  -1
M  END
>  <UniqueID>  (57) 
53

>  <SMILES>  (57) 
Nc1ccccc1[N-]C(=O)C(=O)/[NH+]=C\NC(=O)[N-]Cc1ccccc1

>  <Energy>  (57) 
51.73698372410543

>  <Genealogy>  (57) 
Nc1ccccc1[N-]C(=O)C(=O)[NH+]=CNC(=O)[N-]Cc1ccccc1 (protonated)
Nc1ccccc1[N-]C(=O)C(=O)/[NH+]=C\NC(=O)[N-]Cc1ccccc1 (cis-trans isomerization)
Nc1ccccc1[N-]C(=O)C(=O)/[NH+]=C\NC(=O)[N-]Cc1ccccc1 (3D coordinates assigned)
Nc1ccccc1[N-]C(=O)C(=O)/[NH+]=C\NC(=O)[N-]Cc1ccccc1 (optimized conformer: 51.73698372410543 kcal/mol)

>  <smiles>  (57) 
Nc1ccccc1NC(=O)C(=O)N=CNC(=O)NCc1ccccc1

>  <score_type>  (57) 
oracle

>  <origin>  (57) 
adg

>  <m_score__min__energy>  (57) 
-9.9100000000000001

>  <m_primary>  (57) 
energy

$$$$
57:0
     RDKit          3D

 54 56  0  0  0  0  0  0  0  0999 V2000
   54.9900   23.6910   45.9030 C   0  0  0  0  0  0  0  0  0  0  0  0
   55.7040   24.5640   46.7720 O   0  0  0  0  0  0  0  0  0  0  0  0
   56.3550   25.7140   46.3200 C   0  0  0  0  0  0  0  0  0  0  0  0
   57.7480   25.7260   46.2320 C   0  0  0  0  0  0  0  0  0  0  0  0
   58.3780   26.8810   45.7650 C   0  0  0  0  0  0  0  0  0  0  0  0
   59.7710   26.9110   45.6610 O   0  0  0  0  0  0  0  0  0  0  0  0
   60.6140   26.0290   46.3950 C   0  0  0  0  0  0  0  0  0  0  0  0
   57.6270   27.9650   45.4190 N   0  0  0  0  0  0  0  0  0  0  0  0
   56.2700   27.9440   45.5130 C   0  0  0  0  0  0  0  0  0  0  0  0
   55.5510   28.9760   45.1840 N   0  0  0  0  0  0  0  0  0  0  0  0
   55.8350   29.9430   44.1570 C   0  0  0  0  0  0  0  0  0  0  0  0
   55.5400   29.7190   42.9530 O   0  0  0  0  0  0  0  0  0  0  0  0
   56.4510   31.1840   44.4970 N   0  0  0  0  0  0  0  0  0  0  0  0
   58.1210   31.5180   44.1810 S   0  0  0  0  0  0  0  0  0  0  0  0
   58.8720   30.2160   44.1680 O   0  0  0  0  0  0  0  0  0  0  0  0
   58.2550   32.1570   42.8260 O   0  0  0  0  0  0  0  0  0  0  0  0
   58.7890   32.6120   45.4060 C   0  0  0  0  0  0  0  0  0  0  0  0
   58.3410   33.9450   45.4270 C   0  0  0  0  0  0  0  0  0  0  0  0
   58.8490   34.8520   46.3580 C   0  0  0  0  0  0  0  0  0  0  0  0
   59.8140   34.4440   47.2780 C   0  0  0  0  0  0  0  0  0  0  0  0
   60.2690   33.1250   47.2740 C   0  0  0  0  0  0  0  0  0  0  0  0
   59.7640   32.1920   46.3510 C   0  0  0  0  0  0  0  0  0  0  0  0
   60.3470   30.7980   46.3680 C   0  0  0  0  0  0  0  0  0  0  0  0
   59.2920   29.8290   46.6700 N   0  0  0  0  0  0  0  0  0  0  0  0
   59.5070   29.1630   48.2650 S   0  0  0  0  0  0  0  0  0  0  0  0
   60.7370   28.2950   48.2800 O   0  0  0  0  0  0  0  0  0  0  0  0
   58.3160   28.3100   48.6040 O   0  0  0  0  0  0  0  0  0  0  0  0
   59.6870   30.4110   49.4900 C   0  0  0  0  0  0  0  0  0  0  0  0
   60.8800   31.0150   49.8640 C   0  0  0  0  0  0  0  0  0  0  0  0
   60.7080   32.0060   50.8380 C   0  0  0  0  0  0  0  0  0  0  0  0
   59.3800   32.1770   51.2070 C   0  0  0  0  0  0  0  0  0  0  0  0
   58.7710   33.3610   52.4040 S   0  0  0  0  0  0  0  0  0  0  0  0
   57.0780   32.7010   52.3740 C   0  0  0  0  0  0  0  0  0  0  0  0
   58.4140   31.1080   50.3430 S   0  0  0  0  0  0  0  0  0  0  0  0
   55.6480   26.8210   45.9580 N   0  0  0  0  0  0  0  0  0  0  0  0
   54.4054   22.9762   46.5007 H   0  0  0  0  0  0  0  0  0  0  0  0
   54.3113   24.2798   45.2684 H   0  0  0  0  0  0  0  0  0  0  0  0
   55.7017   23.1426   45.2684 H   0  0  0  0  0  0  0  0  0  0  0  0
   58.3369   24.8441   46.5244 H   0  0  0  0  0  0  0  0  0  0  0  0
   60.4617   26.1884   47.4727 H   0  0  0  0  0  0  0  0  0  0  0  0
   60.3665   24.9881   46.1397 H   0  0  0  0  0  0  0  0  0  0  0  0
   61.6651   26.2292   46.1397 H   0  0  0  0  0  0  0  0  0  0  0  0
   57.5826   34.2760   44.7023 H   0  0  0  0  0  0  0  0  0  0  0  0
   58.4874   35.8908   46.3661 H   0  0  0  0  0  0  0  0  0  0  0  0
   60.2168   35.1623   48.0073 H   0  0  0  0  0  0  0  0  0  0  0  0
   61.0319   32.8112   48.0016 H   0  0  0  0  0  0  0  0  0  0  0  0
   60.7820   30.5709   45.3835 H   0  0  0  0  0  0  0  0  0  0  0  0
   61.1297   30.7384   47.1386 H   0  0  0  0  0  0  0  0  0  0  0  0
   59.3770   29.0340   45.9930 H   0  0  0  0  0  0  0  0  0  0  0  0
   61.8578   30.7434   49.4395 H   0  0  0  0  0  0  0  0  0  0  0  0
   61.5375   32.5880   51.2660 H   0  0  0  0  0  0  0  0  0  0  0  0
   56.7205   32.5616   53.4049 H   0  0  0  0  0  0  0  0  0  0  0  0
   56.4182   33.4078   51.8495 H   0  0  0  0  0  0  0  0  0  0  0  0
   57.0706   31.7341   51.8495 H   0  0  0  0  0  0  0  0  0  0  0  0
  1  2  1  0
  2  3  1  0
  3  4  1  0
  4  5  2  0
  5  6  1  0
  6  7  1  0
  5  8  1  0
  8  9  1  0
  9 10  2  3
 10 11  1  0
 11 12  2  0
 11 13  1  0
 13 14  1  0
 14 15  2  0
 14 16  2  0
 14 17  1  0
 17 18  2  0
 18 19  1  0
 19 20  2  0
 20 21  1  0
 21 22  2  0
 22 23  1  0
 23 24  1  0
 24 25  1  0
 25 26  2  0
 25 27  2  0
 25 28  1  0
 28 29  2  0
 29 30  1  0
 30 31  2  0
 31 32  1  0
 32 33  1  0
 31 34  1  0
  9 35  1  0
 35  3  2  0
 22 17  1  0
 34 28  1  0
  1 36  1  0
  1 37  1  0
  1 38  1  0
  4 39  1  0
  7 40  1  0
  7 41  1  0
  7 42  1  0
 18 43  1  0
 19 44  1  0
 20 45  1  0
 21 46  1  0
 23 47  1  0
 23 48  1  0
 24 49  1  0
 29 50  1  0
 30 51  1  0
 33 52  1  0
 33 53  1  0
 33 54  1  0
M  CHG  2   8  -1  13  -1
M  END
>  <UniqueID>  (58) 
54

>  <SMILES>  (58) 
COc1cc(OC)[n-]c(=NC(=O)[N-]S(=O)(=O)c2ccccc2CNS(=O)(=O)c2ccc(SC)s2)n1

>  <Energy>  (58) 
76.60241327734532

>  <Genealogy>  (58) 
COc1cc(OC)[n-]c(=NC(=O)[N-]S(=O)(=O)c2ccccc2CNS(=O)(=O)c2ccc(SC)s2)n1 (protonated)
COc1cc(OC)[n-]c(=NC(=O)[N-]S(=O)(=O)c2ccccc2CNS(=O)(=O)c2ccc(SC)s2)n1 (3D coordinates assigned)
COc1cc(OC)[n-]c(=NC(=O)[N-]S(=O)(=O)c2ccccc2CNS(=O)(=O)c2ccc(SC)s2)n1 (optimized conformer: 76.60241327734532 kcal/mol)

>  <smiles>  (58) 
COc1cc(OC)[nH]c(=NC(=O)NS(=O)(=O)c2ccccc2CNS(=O)(=O)c2ccc(SC)s2)n1

>  <score_type>  (58) 
oracle

>  <origin>  (58) 
adg

>  <m_score__min__energy>  (58) 
-12.31

>  <m_primary>  (58) 
energy

$$$$
58:0
     RDKit          3D

 36 38  0  0  0  0  0  0  0  0999 V2000
   57.8160   21.8920   45.7100 C   0  0  0  0  0  0  0  0  0  0  0  0
   57.0710   23.1610   45.7580 N   0  0  0  0  0  0  0  0  0  0  0  0
   55.7210   23.1600   45.9990 C   0  0  0  0  0  0  0  0  0  0  0  0
   55.0940   22.0780   46.1600 O   0  0  0  0  0  0  0  0  0  0  0  0
   55.0370   24.3280   46.0680 N   0  0  0  0  0  0  0  0  0  0  0  0
   55.6570   25.5260   45.9290 C   0  0  0  0  0  0  0  0  0  0  0  0
   54.9100   26.6980   46.0180 O   0  0  0  0  0  0  0  0  0  0  0  0
   57.0400   25.5740   45.7220 C   0  0  0  0  0  0  0  0  0  0  0  0
   57.7370   26.8790   45.5980 C   0  0  0  0  0  0  0  0  0  0  0  0
   58.9960   26.9100   45.6130 O   0  0  0  0  0  0  0  0  0  0  0  0
   57.0190   28.1170   45.5110 N   0  0  0  0  0  0  0  0  0  0  0  0
   57.5850   29.4360   45.6170 C   0  0  0  0  0  0  0  0  0  0  0  0
   58.2070   29.8480   46.8020 C   0  0  0  0  0  0  0  0  0  0  0  0
   58.7390   31.1280   46.9200 C   0  0  0  0  0  0  0  0  0  0  0  0
   58.6490   32.0470   45.8650 C   0  0  0  0  0  0  0  0  0  0  0  0
   59.1650   33.4150   46.1010 C   0  0  0  0  0  0  0  0  0  0  0  0
   60.3340   33.5820   46.5400 O   0  0  0  0  0  0  0  0  0  0  0  0
   58.3480   34.5250   45.9180 O   0  0  0  0  0  0  0  0  0  0  0  0
   58.0380   31.6480   44.6460 C   0  0  0  0  0  0  0  0  0  0  0  0
   57.9980   32.4970   43.5180 C   0  0  0  0  0  0  0  0  0  0  0  0
   57.3810   32.0860   42.3360 C   0  0  0  0  0  0  0  0  0  0  0  0
   56.8070   30.8210   42.2460 C   0  0  0  0  0  0  0  0  0  0  0  0
   56.8630   29.9490   43.3320 C   0  0  0  0  0  0  0  0  0  0  0  0
   57.4830   30.3390   44.5360 C   0  0  0  0  0  0  0  0  0  0  0  0
   57.7380   24.3540   45.6320 C   0  0  0  0  0  0  0  0  0  0  0  0
   58.9830   24.3620   45.4170 O   0  0  0  0  0  0  0  0  0  0  0  0
   58.0187   21.5468   46.7346 H   0  0  0  0  0  0  0  0  0  0  0  0
   57.2184   21.1358   45.1798 H   0  0  0  0  0  0  0  0  0  0  0  0
   58.7675   22.0453   45.1798 H   0  0  0  0  0  0  0  0  0  0  0  0
   55.1490   27.5110   45.4610 H   0  0  0  0  0  0  0  0  0  0  0  0
   58.2758   29.1509   47.6501 H   0  0  0  0  0  0  0  0  0  0  0  0
   59.2377   31.4235   47.8549 H   0  0  0  0  0  0  0  0  0  0  0  0
   58.4589   33.4943   43.5720 H   0  0  0  0  0  0  0  0  0  0  0  0
   57.3480   32.7648   41.4711 H   0  0  0  0  0  0  0  0  0  0  0  0
   56.3085   30.5091   41.3164 H   0  0  0  0  0  0  0  0  0  0  0  0
   56.4187   28.9462   43.2484 H   0  0  0  0  0  0  0  0  0  0  0  0
  1  2  1  0
  2  3  1  0
  3  4  2  0
  3  5  1  0
  5  6  1  0
  6  7  1  0
  6  8  2  0
  8  9  1  0
  9 10  2  0
  9 11  1  0
 11 12  1  0
 12 13  2  0
 13 14  1  0
 14 15  2  0
 15 16  1  0
 16 17  2  0
 16 18  1  0
 15 19  1  0
 19 20  2  0
 20 21  1  0
 21 22  2  0
 22 23  1  0
 23 24  2  0
  8 25  1  0
 25 26  2  0
 25  2  1  0
 24 12  1  0
 24 19  1  0
  1 27  1  0
  1 28  1  0
  1 29  1  0
  7 30  1  0
 13 31  1  0
 14 32  1  0
 20 33  1  0
 21 34  1  0
 22 35  1  0
 23 36  1  0
M  CHG  3   5  -1  11  -1  18  -1
M  END
>  <UniqueID>  (59) 
55

>  <SMILES>  (59) 
Cn1c(=O)[n-]c(O)c(C(=O)[N-]c2ccc(C(=O)[O-])c3ccccc23)c1=O

>  <Energy>  (59) 
63.837528840434004

>  <Genealogy>  (59) 
Cn1c(=O)[n-]c(O)c(C(=O)[N-]c2ccc(C(=O)[O-])c3ccccc23)c1=O (protonated)
Cn1c(=O)[n-]c(O)c(C(=O)[N-]c2ccc(C(=O)[O-])c3ccccc23)c1=O (3D coordinates assigned)
Cn1c(=O)[n-]c(O)c(C(=O)[N-]c2ccc(C(=O)[O-])c3ccccc23)c1=O (optimized conformer: 63.837528840434004 kcal/mol)

>  <smiles>  (59) 
Cn1c(=O)[nH]c(O)c(C(=O)Nc2ccc(C(=O)O)c3ccccc23)c1=O

>  <score_type>  (59) 
oracle

>  <origin>  (59) 
adg

>  <m_score__min__energy>  (59) 
-12.07

>  <m_primary>  (59) 
energy

$$$$
59:0
     RDKit          3D

 30 31  0  0  0  0  0  0  0  0999 V2000
   58.9070   32.7200   48.6350 C   0  0  0  0  0  0  0  0  0  0  0  0
   58.6750   33.0060   47.1870 C   0  0  0  0  0  0  0  0  0  0  0  0
   58.0070   32.0790   46.3800 C   0  0  0  0  0  0  0  0  0  0  0  0
   57.7710   32.4080   45.0430 C   0  0  0  0  0  0  0  0  0  0  0  0
   56.8980   31.2700   43.9670 S   0  0  0  0  0  0  0  0  0  0  0  0
   57.7570   29.7700   44.5580 C   0  0  0  0  0  0  0  0  0  0  0  0
   56.8080   28.8500   45.2840 C   0  0  0  0  0  0  0  0  0  0  0  0
   55.5730   29.0020   45.0920 O   0  0  0  0  0  0  0  0  0  0  0  0
   57.2270   27.9120   46.2930 N   0  0  0  0  0  0  0  0  0  0  0  0
   57.2940   26.6130   46.2250 C   0  0  0  0  0  0  0  0  0  0  0  0
   58.4870   25.9580   46.2720 N   0  0  0  0  0  0  0  0  0  0  0  0
   58.5740   24.6040   46.2090 C   0  0  0  0  0  0  0  0  0  0  0  0
   57.4160   23.8360   46.0870 C   0  0  0  0  0  0  0  0  0  0  0  0
   56.1780   24.4750   46.0180 C   0  0  0  0  0  0  0  0  0  0  0  0
   56.1090   25.8720   46.0810 C   0  0  0  0  0  0  0  0  0  0  0  0
   54.8770   26.5220   46.0130 O   0  0  0  0  0  0  0  0  0  0  0  0
   58.2130   33.5940   44.5510 N   0  0  0  0  0  0  0  0  0  0  0  0
   58.8690   34.4800   45.3450 C   0  0  0  0  0  0  0  0  0  0  0  0
   59.2650   35.5750   44.8720 O   0  0  0  0  0  0  0  0  0  0  0  0
   59.0890   34.1870   46.6540 N   0  0  0  0  0  0  0  0  0  0  0  0
   58.3307   33.4304   49.2460 H   0  0  0  0  0  0  0  0  0  0  0  0
   58.5830   31.6937   48.8625 H   0  0  0  0  0  0  0  0  0  0  0  0
   59.9780   32.8253   48.8625 H   0  0  0  0  0  0  0  0  0  0  0  0
   57.6752   31.1132   46.7888 H   0  0  0  0  0  0  0  0  0  0  0  0
   58.1840   29.2374   43.6954 H   0  0  0  0  0  0  0  0  0  0  0  0
   58.5504   30.0746   45.2564 H   0  0  0  0  0  0  0  0  0  0  0  0
   59.5574   24.1132   46.2542 H   0  0  0  0  0  0  0  0  0  0  0  0
   57.4784   22.7385   46.0457 H   0  0  0  0  0  0  0  0  0  0  0  0
   55.2572   23.8822   45.9142 H   0  0  0  0  0  0  0  0  0  0  0  0
   54.7550   27.4660   46.3630 H   0  0  0  0  0  0  0  0  0  0  0  0
  1  2  1  0
  2  3  1  0
  3  4  2  0
  4  5  1  0
  5  6  1  0
  6  7  1  0
  7  8  2  0
  7  9  1  0
  9 10  2  3
 10 11  1  0
 11 12  1  0
 12 13  2  0
 13 14  1  0
 14 15  2  0
 15 16  1  0
  4 17  1  0
 17 18  1  0
 18 19  2  0
 18 20  1  0
 20  2  2  0
 15 10  1  0
  1 21  1  0
  1 22  1  0
  1 23  1  0
  3 24  1  0
  6 25  1  0
  6 26  1  0
 12 27  1  0
 13 28  1  0
 14 29  1  0
 16 30  1  0
M  CHG  2  11  -1  17  -1
M  END
>  <UniqueID>  (60) 
56

>  <SMILES>  (60) 
Cc1cc(SCC(=O)N=c2[n-]cccc2O)[n-]c(=O)n1

>  <Energy>  (60) 
30.124639379848706

>  <Genealogy>  (60) 
Cc1cc(SCC(=O)N=c2[n-]cccc2O)[n-]c(=O)n1 (protonated)
Cc1cc(SCC(=O)N=c2[n-]cccc2O)[n-]c(=O)n1 (3D coordinates assigned)
Cc1cc(SCC(=O)N=c2[n-]cccc2O)[n-]c(=O)n1 (optimized conformer: 30.124639379848706 kcal/mol)

>  <smiles>  (60) 
Cc1cc(SCC(=O)N=c2[nH]cccc2O)[nH]c(=O)n1

>  <score_type>  (60) 
oracle

>  <origin>  (60) 
adg

>  <m_score__min__energy>  (60) 
-10.640000000000001

>  <m_primary>  (60) 
energy

$$$$
60:0
     RDKit          3D

 71 74  0  0  0  0  0  0  0  0999 V2000
   56.3940   30.8960   53.7920 C   0  0  0  0  0  0  0  0  0  0  0  0
   56.0950   30.0470   52.5470 C   0  0  0  0  0  0  0  0  0  0  0  0
   55.0530   30.7870   51.6860 C   0  0  0  0  0  0  0  0  0  0  0  0
   55.5540   28.6760   52.9950 C   0  0  0  0  0  0  0  0  0  0  0  0
   57.3310   29.8880   51.8330 O   0  0  0  0  0  0  0  0  0  0  0  0
   58.6200   30.1340   52.3330 C   0  0  0  0  0  0  0  0  0  0  0  0
   59.1670   29.3170   53.1290 O   0  0  0  0  0  0  0  0  0  0  0  0
   59.3380   31.3030   51.9000 N   0  0  0  0  0  0  0  0  0  0  0  0
   60.8170   31.2710   51.9920 C   0  0  0  0  0  0  0  0  0  0  0  0
   61.5360   32.4530   51.3150 C   0  0  0  0  0  0  0  0  0  0  0  0
   60.6750   33.0850   50.3250 N   0  0  0  0  0  0  0  0  0  0  0  0
   60.7250   32.7070   48.9400 C   0  0  0  0  0  0  0  0  0  0  0  0
   60.5000   33.5720   48.0530 O   0  0  0  0  0  0  0  0  0  0  0  0
   60.8920   31.3350   48.5690 N   0  0  0  0  0  0  0  0  0  0  0  0
   59.8690   30.6960   47.8050 C   0  0  0  0  0  0  0  0  0  0  0  0
   59.4090   31.3010   46.6300 C   0  0  0  0  0  0  0  0  0  0  0  0
   58.4860   30.6430   45.8170 C   0  0  0  0  0  0  0  0  0  0  0  0
   57.9740   29.3890   46.1920 C   0  0  0  0  0  0  0  0  0  0  0  0
   56.9860   28.7080   45.3290 C   0  0  0  0  0  0  0  0  0  0  0  0
   55.8180   29.1700   45.2100 O   0  0  0  0  0  0  0  0  0  0  0  0
   57.3640   27.5260   44.6170 N   0  0  0  0  0  0  0  0  0  0  0  0
   57.1650   26.1660   45.1100 C   0  0  1  0  0  0  0  0  0  0  0  0
   58.5170   25.5170   45.4650 C   0  0  0  0  0  0  0  0  0  0  0  0
   58.5950   24.0710   45.0490 C   0  0  0  0  0  0  0  0  0  0  0  0
   59.4820   23.1180   45.5430 C   0  0  0  0  0  0  0  0  0  0  0  0
   59.1990   21.8960   45.0380 N   0  0  0  0  0  0  0  0  0  0  0  0
   58.1420   22.0680   44.2270 C   0  0  0  0  0  0  0  0  0  0  0  0
   57.4670   21.0890   43.4980 C   0  0  0  0  0  0  0  0  0  0  0  0
   56.3590   21.4870   42.7250 C   0  0  0  0  0  0  0  0  0  0  0  0
   55.9520   22.8400   42.7050 C   0  0  0  0  0  0  0  0  0  0  0  0
   56.6500   23.8040   43.4520 C   0  0  0  0  0  0  0  0  0  0  0  0
   57.7440   23.3810   44.2060 C   0  0  0  0  0  0  0  0  0  0  0  0
   56.2420   26.1920   46.2970 C   0  0  0  0  0  0  0  0  0  0  0  0
   54.8420   26.4230   46.1210 N   0  0  0  0  0  0  0  0  0  0  0  0
   56.7050   26.0270   47.4580 O   0  0  0  0  0  0  0  0  0  0  0  0
   58.4050   28.8040   47.3960 C   0  0  0  0  0  0  0  0  0  0  0  0
   59.3610   29.4460   48.1900 C   0  0  0  0  0  0  0  0  0  0  0  0
   59.4160   33.5830   50.8570 C   0  0  0  0  0  0  0  0  0  0  0  0
   58.5580   32.3850   51.2640 C   0  0  0  0  0  0  0  0  0  0  0  0
   56.1862   30.3059   54.6968 H   0  0  0  0  0  0  0  0  0  0  0  0
   57.4521   31.1966   53.7853 H   0  0  0  0  0  0  0  0  0  0  0  0
   55.7578   31.7933   53.7853 H   0  0  0  0  0  0  0  0  0  0  0  0
   54.3326   31.2986   52.3412 H   0  0  0  0  0  0  0  0  0  0  0  0
   55.5613   31.5276   51.0511 H   0  0  0  0  0  0  0  0  0  0  0  0
   54.5212   30.0630   51.0511 H   0  0  0  0  0  0  0  0  0  0  0  0
   55.5359   28.6302   54.0939 H   0  0  0  0  0  0  0  0  0  0  0  0
   54.5344   28.5391   52.6055 H   0  0  0  0  0  0  0  0  0  0  0  0
   56.2053   27.8797   52.6055 H   0  0  0  0  0  0  0  0  0  0  0  0
   61.0929   31.2682   53.0568 H   0  0  0  0  0  0  0  0  0  0  0  0
   61.1393   30.3664   51.4555 H   0  0  0  0  0  0  0  0  0  0  0  0
   61.8100   33.1943   52.0802 H   0  0  0  0  0  0  0  0  0  0  0  0
   62.4360   32.0742   50.8084 H   0  0  0  0  0  0  0  0  0  0  0  0
   61.4650   30.7200   49.1890 H   0  0  0  0  0  0  0  0  0  0  0  0
   59.7763   32.2984   46.3466 H   0  0  0  0  0  0  0  0  0  0  0  0
   58.1568   31.1086   44.8763 H   0  0  0  0  0  0  0  0  0  0  0  0
   56.7023   25.5554   44.3206 H   0  0  0  0  0  0  0  0  0  0  0  0
   59.3185   26.0731   44.9568 H   0  0  0  0  0  0  0  0  0  0  0  0
   58.6264   25.5543   46.5589 H   0  0  0  0  0  0  0  0  0  0  0  0
   60.3002   23.3300   46.2470 H   0  0  0  0  0  0  0  0  0  0  0  0
   59.6870   20.9990   45.2570 H   0  0  0  0  0  0  0  0  0  0  0  0
   57.7902   20.0379   43.5260 H   0  0  0  0  0  0  0  0  0  0  0  0
   55.8077   20.7409   42.1339 H   0  0  0  0  0  0  0  0  0  0  0  0
   55.0833   23.1405   42.1009 H   0  0  0  0  0  0  0  0  0  0  0  0
   56.3427   24.8602   43.4422 H   0  0  0  0  0  0  0  0  0  0  0  0
   54.3220   27.0760   46.7510 H   0  0  0  0  0  0  0  0  0  0  0  0
   57.9884   27.8371   47.7148 H   0  0  0  0  0  0  0  0  0  0  0  0
   59.7148   28.9706   49.1168 H   0  0  0  0  0  0  0  0  0  0  0  0
   59.6084   34.2177   51.7346 H   0  0  0  0  0  0  0  0  0  0  0  0
   58.8938   34.1814   50.0959 H   0  0  0  0  0  0  0  0  0  0  0  0
   57.7917   32.7284   51.9745 H   0  0  0  0  0  0  0  0  0  0  0  0
   58.1133   31.9730   50.3461 H   0  0  0  0  0  0  0  0  0  0  0  0
  1  2  1  0
  2  3  1  0
  2  4  1  0
  2  5  1  0
  5  6  1  0
  6  7  2  0
  6  8  1  0
  8  9  1  0
  9 10  1  0
 10 11  1  0
 11 12  1  0
 12 13  2  0
 12 14  1  0
 14 15  1  0
 15 16  2  0
 16 17  1  0
 17 18  2  0
 18 19  1  0
 19 20  2  0
 19 21  1  0
 21 22  1  0
 22 23  1  0
 23 24  1  0
 24 25  2  0
 25 26  1  0
 26 27  1  0
 27 28  2  0
 28 29  1  0
 29 30  2  0
 30 31  1  0
 31 32  2  0
 22 33  1  0
 33 34  1  0
 33 35  2  0
 18 36  1  0
 36 37  2  0
 11 38  1  0
 38 39  1  0
 39  8  1  0
 37 15  1  0
 32 24  1  0
 32 27  1  0
  1 40  1  0
  1 41  1  0
  1 42  1  0
  3 43  1  0
  3 44  1  0
  3 45  1  0
  4 46  1  0
  4 47  1  0
  4 48  1  0
  9 49  1  0
  9 50  1  0
 10 51  1  0
 10 52  1  0
 14 53  1  0
 16 54  1  0
 17 55  1  0
 22 56  1  6
 23 57  1  0
 23 58  1  0
 25 59  1  0
 26 60  1  0
 28 61  1  0
 29 62  1  0
 30 63  1  0
 31 64  1  0
 34 65  1  0
 36 66  1  0
 37 67  1  0
 38 68  1  0
 38 69  1  0
 39 70  1  0
 39 71  1  0
M  CHG  2  21  -1  34  -1
M  END
>  <UniqueID>  (61) 
57

>  <SMILES>  (61) 
CC(C)(C)OC(=O)N1CCN(C(=O)Nc2ccc(C(=O)[N-][C@@H](Cc3c[nH]c4ccccc34)C([NH-])=O)cc2)CC1

>  <Energy>  (61) 
108.54026790775626

>  <Genealogy>  (61) 
CC(C)(C)OC(=O)N1CCN(C(=O)Nc2ccc(C(=O)[N-]C(Cc3c[nH]c4ccccc34)C([NH-])=O)cc2)CC1 (protonated)
CC(C)(C)OC(=O)N1CCN(C(=O)Nc2ccc(C(=O)[N-][C@@H](Cc3c[nH]c4ccccc34)C([NH-])=O)cc2)CC1 (chirality)
CC(C)(C)OC(=O)N1CCN(C(=O)Nc2ccc(C(=O)[N-][C@@H](Cc3c[nH]c4ccccc34)C([NH-])=O)cc2)CC1 (3D coordinates assigned)
CC(C)(C)OC(=O)N1CCN(C(=O)Nc2ccc(C(=O)[N-][C@@H](Cc3c[nH]c4ccccc34)C([NH-])=O)cc2)CC1 (nonaromatic ring conformer: 108.54026790775626 kcal/mol)

>  <smiles>  (61) 
CC(C)(C)OC(=O)N1CCN(C(=O)Nc2ccc(C(=O)NC(Cc3c[nH]c4ccccc34)C(N)=O)cc2)CC1

>  <score_type>  (61) 
oracle

>  <origin>  (61) 
adg

>  <m_score__min__energy>  (61) 
-14.27

>  <m_primary>  (61) 
energy

$$$$
61:0
     RDKit          3D

 48 50  0  0  0  0  0  0  0  0999 V2000
   58.3220   21.0890   43.2580 N   0  0  0  0  0  0  0  0  0  0  0  0
   56.6140   21.2700   43.4490 S   0  0  0  0  0  0  0  0  0  0  0  0
   55.9690   19.9120   43.4900 O   0  0  0  0  0  0  0  0  0  0  0  0
   56.0560   22.0330   42.2810 O   0  0  0  0  0  0  0  0  0  0  0  0
   56.2750   22.1410   44.9420 C   0  0  0  0  0  0  0  0  0  0  0  0
   56.0830   21.4430   46.1400 C   0  0  0  0  0  0  0  0  0  0  0  0
   55.8270   22.1370   47.3240 C   0  0  0  0  0  0  0  0  0  0  0  0
   55.7670   23.5330   47.3210 C   0  0  0  0  0  0  0  0  0  0  0  0
   55.9680   24.2530   46.1280 C   0  0  0  0  0  0  0  0  0  0  0  0
   55.9120   25.7340   46.1240 C   0  0  0  0  0  0  0  0  0  0  0  0
   54.8030   26.3230   45.9960 O   0  0  0  0  0  0  0  0  0  0  0  0
   57.1120   26.5010   46.2760 N   0  0  0  0  0  0  0  0  0  0  0  0
   58.2740   26.3680   45.4030 C   0  0  0  0  0  0  0  0  0  0  0  0
   58.1510   27.3120   44.2040 C   0  0  0  0  0  0  0  0  0  0  0  0
   58.3200   28.7430   44.6380 C   0  0  0  0  0  0  0  0  0  0  0  0
   57.5040   29.7480   44.1020 C   0  0  0  0  0  0  0  0  0  0  0  0
   57.6850   31.0820   44.4770 C   0  0  0  0  0  0  0  0  0  0  0  0
   58.6950   31.4420   45.3890 C   0  0  0  0  0  0  0  0  0  0  0  0
   58.8870   32.8240   45.7740 N   0  0  0  0  0  0  0  0  0  0  0  0
   59.0700   33.2670   47.1490 C   0  0  0  0  0  0  0  0  0  0  0  0
   59.0620   34.7880   47.1000 C   0  0  0  0  0  0  0  0  0  0  0  0
   59.3220   35.1570   45.6450 C   0  0  0  0  0  0  0  0  0  0  0  0
   58.9260   33.9320   44.8320 C   0  0  0  0  0  0  0  0  0  0  0  0
   59.5190   30.4260   45.9150 C   0  0  0  0  0  0  0  0  0  0  0  0
   59.3360   29.0930   45.5390 C   0  0  0  0  0  0  0  0  0  0  0  0
   56.2250   23.5420   44.9390 C   0  0  0  0  0  0  0  0  0  0  0  0
   58.4710   20.3450   42.5400 H   0  0  0  0  0  0  0  0  0  0  0  0
   58.6920   20.7150   44.1610 H   0  0  0  0  0  0  0  0  0  0  0  0
   56.1340   20.3442   46.1486 H   0  0  0  0  0  0  0  0  0  0  0  0
   55.6721   21.5833   48.2618 H   0  0  0  0  0  0  0  0  0  0  0  0
   55.5613   24.0730   48.2570 H   0  0  0  0  0  0  0  0  0  0  0  0
   59.1834   26.6178   45.9693 H   0  0  0  0  0  0  0  0  0  0  0  0
   58.3292   25.3320   45.0375 H   0  0  0  0  0  0  0  0  0  0  0  0
   58.9286   27.0634   43.4667 H   0  0  0  0  0  0  0  0  0  0  0  0
   57.1525   27.1917   43.7585 H   0  0  0  0  0  0  0  0  0  0  0  0
   56.7157   29.4852   43.3812 H   0  0  0  0  0  0  0  0  0  0  0  0
   57.0310   31.8592   44.0549 H   0  0  0  0  0  0  0  0  0  0  0  0
   58.2487   32.9000   47.7821 H   0  0  0  0  0  0  0  0  0  0  0  0
   60.0069   32.8810   47.5771 H   0  0  0  0  0  0  0  0  0  0  0  0
   58.0858   35.1767   47.4253 H   0  0  0  0  0  0  0  0  0  0  0  0
   59.8213   35.2189   47.7692 H   0  0  0  0  0  0  0  0  0  0  0  0
   58.7109   36.0242   45.3542 H   0  0  0  0  0  0  0  0  0  0  0  0
   60.3737   35.4325   45.4778 H   0  0  0  0  0  0  0  0  0  0  0  0
   57.9368   34.0800   44.3742 H   0  0  0  0  0  0  0  0  0  0  0  0
   59.6373   33.7424   44.0147 H   0  0  0  0  0  0  0  0  0  0  0  0
   60.3144   30.6857   46.6290 H   0  0  0  0  0  0  0  0  0  0  0  0
   59.9928   28.3133   45.9522 H   0  0  0  0  0  0  0  0  0  0  0  0
   56.3879   24.0912   43.9999 H   0  0  0  0  0  0  0  0  0  0  0  0
  1  2  1  0
  2  3  2  0
  2  4  2  0
  2  5  1  0
  5  6  2  0
  6  7  1  0
  7  8  2  0
  8  9  1  0
  9 10  1  0
 10 11  2  0
 10 12  1  0
 12 13  1  0
 13 14  1  0
 14 15  1  0
 15 16  2  0
 16 17  1  0
 17 18  2  0
 18 19  1  0
 19 20  1  0
 20 21  1  0
 21 22  1  0
 22 23  1  0
 18 24  1  0
 24 25  2  0
  9 26  2  0
 26  5  1  0
 25 15  1  0
 23 19  1  0
  1 27  1  0
  1 28  1  0
  6 29  1  0
  7 30  1  0
  8 31  1  0
 13 32  1  0
 13 33  1  0
 14 34  1  0
 14 35  1  0
 16 36  1  0
 17 37  1  0
 20 38  1  0
 20 39  1  0
 21 40  1  0
 21 41  1  0
 22 42  1  0
 22 43  1  0
 23 44  1  0
 23 45  1  0
 24 46  1  0
 25 47  1  0
 26 48  1  0
M  CHG  1  12  -1
M  END
>  <UniqueID>  (62) 
58

>  <SMILES>  (62) 
NS(=O)(=O)c1cccc(C(=O)[N-]CCc2ccc(N3CCCC3)cc2)c1

>  <Energy>  (62) 
45.190650218905304

>  <Genealogy>  (62) 
NS(=O)(=O)c1cccc(C(=O)[N-]CCc2ccc(N3CCCC3)cc2)c1 (protonated)
NS(=O)(=O)c1cccc(C(=O)[N-]CCc2ccc(N3CCCC3)cc2)c1 (3D coordinates assigned)
NS(=O)(=O)c1cccc(C(=O)[N-]CCc2ccc(N3CCCC3)cc2)c1 (nonaromatic ring conformer: 45.190650218905304 kcal/mol)

>  <smiles>  (62) 
NS(=O)(=O)c1cccc(C(=O)NCCc2ccc(N3CCCC3)cc2)c1

>  <score_type>  (62) 
oracle

>  <origin>  (62) 
adg

>  <m_score__min__energy>  (62) 
-10.98

>  <m_primary>  (62) 
energy

$$$$
62:0
     RDKit          3D

 47 49  0  0  0  0  0  0  0  0999 V2000
   64.4030   33.0510   49.5540 C   0  0  0  0  0  0  0  0  0  0  0  0
   63.8620   32.5410   48.2210 C   0  0  0  0  0  0  0  0  0  0  0  0
   62.4580   32.9110   48.0610 N   0  0  0  0  0  0  0  0  0  0  0  0
   61.9860   33.6880   46.9550 C   0  0  0  0  0  0  0  0  0  0  0  0
   62.7670   33.9930   46.0100 O   0  0  0  0  0  0  0  0  0  0  0  0
   60.6460   34.0880   46.9200 O   0  0  0  0  0  0  0  0  0  0  0  0
   59.6300   33.3400   46.3130 C   0  0  0  0  0  0  0  0  0  0  0  0
   59.0440   33.8410   45.1470 C   0  0  0  0  0  0  0  0  0  0  0  0
   57.9850   33.1660   44.5370 C   0  0  0  0  0  0  0  0  0  0  0  0
   57.4900   31.9760   45.0970 C   0  0  0  0  0  0  0  0  0  0  0  0
   56.4120   31.2470   44.4940 N   0  0  0  0  0  0  0  0  0  0  0  0
   56.2450   29.8250   44.5030 C   0  0  0  0  0  0  0  0  0  0  0  0
   55.1350   29.3440   44.8560 O   0  0  0  0  0  0  0  0  0  0  0  0
   57.3230   28.9620   44.1150 N   0  0  0  0  0  0  0  0  0  0  0  0
   58.0870   28.0990   44.9710 C   0  0  0  0  0  0  0  0  0  0  0  0
   59.4700   28.3020   45.0630 C   0  0  0  0  0  0  0  0  0  0  0  0
   60.2540   27.4760   45.8720 C   0  0  0  0  0  0  0  0  0  0  0  0
   59.6640   26.4290   46.5850 C   0  0  0  0  0  0  0  0  0  0  0  0
   58.2880   26.2010   46.4800 C   0  0  0  0  0  0  0  0  0  0  0  0
   57.5530   24.8730   47.3600 Cl  0  0  0  0  0  0  0  0  0  0  0  0
   57.5000   27.0270   45.6700 C   0  0  0  0  0  0  0  0  0  0  0  0
   58.1150   31.4390   46.2280 C   0  0  0  0  0  0  0  0  0  0  0  0
   59.1940   32.1000   46.8370 C   0  0  0  0  0  0  0  0  0  0  0  0
   59.8700   31.4550   47.9830 C   0  0  0  0  0  0  0  0  0  0  0  0
   60.5220   30.2390   47.9450 C   0  0  0  0  0  0  0  0  0  0  0  0
   60.9870   30.0560   49.2320 C   0  0  0  0  0  0  0  0  0  0  0  0
   60.6460   31.1130   49.9950 N   0  0  0  0  0  0  0  0  0  0  0  0
   59.9800   31.9640   49.2300 N   0  0  0  0  0  0  0  0  0  0  0  0
   59.4780   33.2440   49.7180 C   0  0  0  0  0  0  0  0  0  0  0  0
   63.8739   32.5522   50.3794 H   0  0  0  0  0  0  0  0  0  0  0  0
   65.4786   32.8306   49.6216 H   0  0  0  0  0  0  0  0  0  0  0  0
   64.2464   34.1377   49.6216 H   0  0  0  0  0  0  0  0  0  0  0  0
   64.4478   32.9815   47.4007 H   0  0  0  0  0  0  0  0  0  0  0  0
   63.9444   31.4443   48.2009 H   0  0  0  0  0  0  0  0  0  0  0  0
   61.7670   32.5880   48.7750 H   0  0  0  0  0  0  0  0  0  0  0  0
   59.4207   34.7757   44.7060 H   0  0  0  0  0  0  0  0  0  0  0  0
   57.5370   33.5667   43.6157 H   0  0  0  0  0  0  0  0  0  0  0  0
   59.9417   29.1171   44.4945 H   0  0  0  0  0  0  0  0  0  0  0  0
   61.3375   27.6500   45.9479 H   0  0  0  0  0  0  0  0  0  0  0  0
   60.2812   25.7846   47.2283 H   0  0  0  0  0  0  0  0  0  0  0  0
   56.4201   26.8382   45.5794 H   0  0  0  0  0  0  0  0  0  0  0  0
   57.7564   30.4866   46.6455 H   0  0  0  0  0  0  0  0  0  0  0  0
   60.6438   29.5667   47.0829 H   0  0  0  0  0  0  0  0  0  0  0  0
   61.5512   29.1790   49.5820 H   0  0  0  0  0  0  0  0  0  0  0  0
   59.4785   33.2427   50.8180 H   0  0  0  0  0  0  0  0  0  0  0  0
   60.1246   34.0551   49.3520 H   0  0  0  0  0  0  0  0  0  0  0  0
   58.4524   33.3992   49.3520 H   0  0  0  0  0  0  0  0  0  0  0  0
  1  2  1  0
  2  3  1  0
  3  4  1  0
  4  5  2  0
  4  6  1  0
  6  7  1  0
  7  8  2  0
  8  9  1  0
  9 10  2  0
 10 11  1  0
 11 12  1  0
 12 13  2  0
 12 14  1  0
 14 15  1  0
 15 16  2  0
 16 17  1  0
 17 18  2  0
 18 19  1  0
 19 20  1  0
 19 21  2  0
 10 22  1  0
 22 23  2  0
 23 24  1  0
 24 25  2  0
 25 26  1  0
 26 27  2  0
 27 28  1  0
 28 29  1  0
 23  7  1  0
 28 24  1  0
 21 15  1  0
  1 30  1  0
  1 31  1  0
  1 32  1  0
  2 33  1  0
  2 34  1  0
  3 35  1  0
  8 36  1  0
  9 37  1  0
 16 38  1  0
 17 39  1  0
 18 40  1  0
 21 41  1  0
 22 42  1  0
 25 43  1  0
 26 44  1  0
 29 45  1  0
 29 46  1  0
 29 47  1  0
M  CHG  2  11  -1  14  -1
M  END
>  <UniqueID>  (63) 
59

>  <SMILES>  (63) 
CCNC(=O)Oc1ccc([N-]C(=O)[N-]c2cccc(Cl)c2)cc1-c1ccnn1C

>  <Energy>  (63) 
90.6858994225003

>  <Genealogy>  (63) 
CCNC(=O)Oc1ccc([N-]C(=O)[N-]c2cccc(Cl)c2)cc1-c1ccnn1C (protonated)
CCNC(=O)Oc1ccc([N-]C(=O)[N-]c2cccc(Cl)c2)cc1-c1ccnn1C (3D coordinates assigned)
CCNC(=O)Oc1ccc([N-]C(=O)[N-]c2cccc(Cl)c2)cc1-c1ccnn1C (optimized conformer: 90.6858994225003 kcal/mol)

>  <smiles>  (63) 
CCNC(=O)Oc1ccc(NC(=O)Nc2cccc(Cl)c2)cc1-c1ccnn1C

>  <score_type>  (63) 
oracle

>  <origin>  (63) 
adg

>  <m_score__min__energy>  (63) 
-11.42

>  <m_primary>  (63) 
energy

$$$$
63:0
     RDKit          3D

 49 52  0  0  0  0  0  0  0  0999 V2000
   65.3108   29.9332   51.9986 H   0  0  0  0  0  0  0  0  0  0  0  0
   65.3980   30.8210   51.3550 C   0  0  0  0  0  0  0  0  0  0  0  0
   66.5850   31.4760   51.2600 N   0  0  0  0  0  0  0  0  0  0  0  0
   66.7320   32.5740   50.4730 C   0  0  0  0  0  0  0  0  0  0  0  0
   67.7056   33.0830   50.4175 H   0  0  0  0  0  0  0  0  0  0  0  0
   65.6490   33.0580   49.7340 C   0  0  0  0  0  0  0  0  0  0  0  0
   65.7678   33.9459   49.0956 H   0  0  0  0  0  0  0  0  0  0  0  0
   64.4070   32.4040   49.8110 C   0  0  0  0  0  0  0  0  0  0  0  0
   63.2450   32.8920   49.0260 C   0  0  0  0  0  0  0  0  0  0  0  0
   62.0530   33.2710   49.6690 C   0  0  0  0  0  0  0  0  0  0  0  0
   61.9698   33.1787   50.7620 H   0  0  0  0  0  0  0  0  0  0  0  0
   60.9730   33.7640   48.9310 C   0  0  0  0  0  0  0  0  0  0  0  0
   60.0483   34.0596   49.4483 H   0  0  0  0  0  0  0  0  0  0  0  0
   61.0590   33.8850   47.5340 C   0  0  0  0  0  0  0  0  0  0  0  0
   59.9530   34.4930   46.7600 C   0  0  0  0  0  0  0  0  0  0  0  0
   59.7730   35.7420   46.7840 O   0  0  0  0  0  0  0  0  0  0  0  0
   59.1230   33.6730   45.9300 N   0  0  0  0  0  0  0  0  0  0  0  0
   58.8890   33.9530   44.5150 C   0  0  0  0  0  0  0  0  0  0  0  0
   59.8561   34.0809   44.0066 H   0  0  0  0  0  0  0  0  0  0  0  0
   58.2905   34.8719   44.4287 H   0  0  0  0  0  0  0  0  0  0  0  0
   58.1340   32.8160   43.8680 C   0  0  0  0  0  0  0  0  0  0  0  0
   58.0730   32.7160   42.4700 C   0  0  0  0  0  0  0  0  0  0  0  0
   58.5614   33.4774   41.8442 H   0  0  0  0  0  0  0  0  0  0  0  0
   57.3930   31.6510   41.8690 C   0  0  0  0  0  0  0  0  0  0  0  0
   57.3469   31.5800   40.7723 H   0  0  0  0  0  0  0  0  0  0  0  0
   56.7720   30.6770   42.6560 C   0  0  0  0  0  0  0  0  0  0  0  0
   56.2524   29.8349   42.1755 H   0  0  0  0  0  0  0  0  0  0  0  0
   56.8080   30.7680   44.0590 C   0  0  0  0  0  0  0  0  0  0  0  0
   56.2190   29.7030   44.9050 C   0  0  0  0  0  0  0  0  0  0  0  0
   55.0200   29.3500   44.7330 O   0  0  0  0  0  0  0  0  0  0  0  0
   57.0270   29.0730   45.9150 N   0  0  0  0  0  0  0  0  0  0  0  0
   57.4480   27.8410   45.9280 C   0  0  0  0  0  0  0  0  0  0  0  0
   58.7800   27.5480   45.9380 N   0  0  0  0  0  0  0  0  0  0  0  0
   59.2380   26.2680   45.9900 C   0  0  0  0  0  0  0  0  0  0  0  0
   60.3201   26.0702   45.9895 H   0  0  0  0  0  0  0  0  0  0  0  0
   58.3340   25.2060   46.0440 C   0  0  0  0  0  0  0  0  0  0  0  0
   58.6972   24.1686   46.0877 H   0  0  0  0  0  0  0  0  0  0  0  0
   56.9650   25.4740   46.0420 C   0  0  0  0  0  0  0  0  0  0  0  0
   56.2416   24.6465   46.0852 H   0  0  0  0  0  0  0  0  0  0  0  0
   56.5140   26.7960   45.9850 C   0  0  0  0  0  0  0  0  0  0  0  0
   55.1500   27.0610   45.9950 O   0  0  0  0  0  0  0  0  0  0  0  0
   57.4640   31.8610   44.6540 C   0  0  0  0  0  0  0  0  0  0  0  0
   57.4529   31.9703   45.7485 H   0  0  0  0  0  0  0  0  0  0  0  0
   62.2430   33.4840   46.8890 C   0  0  0  0  0  0  0  0  0  0  0  0
   62.3188   33.5558   45.7940 H   0  0  0  0  0  0  0  0  0  0  0  0
   63.3240   32.9950   47.6280 C   0  0  0  0  0  0  0  0  0  0  0  0
   64.2445   32.6882   47.1098 H   0  0  0  0  0  0  0  0  0  0  0  0
   64.2890   31.2730   50.6370 C   0  0  0  0  0  0  0  0  0  0  0  0
   63.3268   30.7460   50.7175 H   0  0  0  0  0  0  0  0  0  0  0  0
  1  2  1  0
  2  3  2  0
  3  4  1  0
  4  5  1  0
  4  6  2  0
  6  7  1  0
  6  8  1  0
  8  9  1  0
  9 10  2  0
 10 11  1  0
 10 12  1  0
 12 13  1  0
 12 14  2  0
 14 15  1  0
 15 16  2  0
 15 17  1  0
 17 18  1  0
 18 19  1  0
 18 20  1  0
 18 21  1  0
 21 22  2  0
 22 23  1  0
 22 24  1  0
 24 25  1  0
 24 26  2  0
 26 27  1  0
 26 28  1  0
 28 29  1  0
 29 30  2  0
 29 31  1  0
 31 32  2  0
 32 33  1  0
 33 34  1  0
 34 35  1  0
 34 36  2  0
 36 37  1  0
 36 38  1  0
 38 39  1  0
 38 40  2  0
 40 41  1  0
 28 42  2  0
 42 43  1  0
 14 44  1  0
 44 45  1  0
 44 46  2  0
 46 47  1  0
  8 48  2  0
 48 49  1  0
 48  2  1  0
 46  9  1  0
 42 21  1  0
 40 32  1  0
M  CHG  3  17  -1  33  -1  41  -1
M  END
>  <UniqueID>  (64) 
60

>  <SMILES>  (64) 
O=C(/N=c1\[n-]cccc1[O-])c1cccc(C[N-]C(=O)c2ccc(-c3ccncc3)cc2)c1

>  <Energy>  (64) 
63.863050377105594

>  <Genealogy>  (64) 
O=C(N=c1[n-]cccc1[O-])c1cccc(C[N-]C(=O)c2ccc(-c3ccncc3)cc2)c1 (protonated)
O=C(/N=c1\[n-]cccc1[O-])c1cccc(C[N-]C(=O)c2ccc(-c3ccncc3)cc2)c1 (cis-trans isomerization)
O=C(/N=c1\[n-]cccc1[O-])c1cccc(C[N-]C(=O)c2ccc(-c3ccncc3)cc2)c1 (3D coordinates assigned)
O=C(/N=c1\[n-]cccc1[O-])c1cccc(C[N-]C(=O)c2ccc(-c3ccncc3)cc2)c1 (optimized conformer: 63.863050377105594 kcal/mol)

>  <smiles>  (64) 
O=C(N=c1[nH]cccc1O)c1cccc(CNC(=O)c2ccc(-c3ccncc3)cc2)c1

>  <score_type>  (64) 
oracle

>  <origin>  (64) 
adg

>  <m_score__min__energy>  (64) 
-16.18

>  <m_primary>  (64) 
energy

$$$$
64:0
     RDKit          3D

 38 40  0  0  0  0  0  0  0  0999 V2000
   56.0280   30.1340   43.0400 O   0  0  0  0  0  0  0  0  0  0  0  0
   56.4880   30.1900   44.2110 C   0  0  0  0  0  0  0  0  0  0  0  0
   56.1180   29.1640   45.1450 N   0  0  0  0  0  0  0  0  0  0  0  0
   56.8150   28.1280   45.5300 C   0  0  0  0  0  0  0  0  0  0  0  0
   58.1690   28.2610   45.5760 N   0  0  0  0  0  0  0  0  0  0  0  0
   58.9930   27.2450   45.9460 C   0  0  0  0  0  0  0  0  0  0  0  0
   58.4590   26.0050   46.2930 C   0  0  0  0  0  0  0  0  0  0  0  0
   57.0770   25.8320   46.2790 C   0  0  0  0  0  0  0  0  0  0  0  0
   56.2380   26.8910   45.9180 C   0  0  0  0  0  0  0  0  0  0  0  0
   54.8640   26.6980   45.9880 O   0  0  0  0  0  0  0  0  0  0  0  0
   57.3250   31.3470   44.6210 C   0  0  0  0  0  0  0  0  0  0  0  0
   57.6970   32.3220   43.6790 C   0  0  0  0  0  0  0  0  0  0  0  0
   58.5250   33.3850   44.0500 C   0  0  0  0  0  0  0  0  0  0  0  0
   58.9890   33.4880   45.3630 C   0  0  0  0  0  0  0  0  0  0  0  0
   58.6130   32.5350   46.3180 C   0  0  0  0  0  0  0  0  0  0  0  0
   59.2320   32.6450   47.9660 S   0  0  0  0  0  0  0  0  0  0  0  0
   60.0340   33.9080   48.1010 O   0  0  0  0  0  0  0  0  0  0  0  0
   58.0860   32.7110   48.9380 O   0  0  0  0  0  0  0  0  0  0  0  0
   60.2540   31.2860   48.3420 N   0  0  0  0  0  0  0  0  0  0  0  0
   61.3050   31.1050   47.3380 C   0  0  0  0  0  0  0  0  0  0  0  0
   62.4070   32.0980   47.5300 C   0  0  0  0  0  0  0  0  0  0  0  0
   62.6310   33.2150   46.7520 C   0  0  0  0  0  0  0  0  0  0  0  0
   63.7260   33.8380   47.3080 C   0  0  0  0  0  0  0  0  0  0  0  0
   64.0980   33.0680   48.3910 C   0  0  0  0  0  0  0  0  0  0  0  0
   63.2910   32.0370   48.4970 O   0  0  0  0  0  0  0  0  0  0  0  0
   57.7740   31.4750   45.9480 C   0  0  0  0  0  0  0  0  0  0  0  0
   60.0815   27.4015   45.9716 H   0  0  0  0  0  0  0  0  0  0  0  0
   59.1212   25.1730   46.5745 H   0  0  0  0  0  0  0  0  0  0  0  0
   56.6439   24.8587   46.5529 H   0  0  0  0  0  0  0  0  0  0  0  0
   57.3340   32.2477   42.6433 H   0  0  0  0  0  0  0  0  0  0  0  0
   58.8119   34.1425   43.3058 H   0  0  0  0  0  0  0  0  0  0  0  0
   59.6510   34.3191   45.6478 H   0  0  0  0  0  0  0  0  0  0  0  0
   61.7168   30.0889   47.4276 H   0  0  0  0  0  0  0  0  0  0  0  0
   60.8665   31.2568   46.3406 H   0  0  0  0  0  0  0  0  0  0  0  0
   62.0558   33.5397   45.8724 H   0  0  0  0  0  0  0  0  0  0  0  0
   64.2074   34.7634   46.9590 H   0  0  0  0  0  0  0  0  0  0  0  0
   64.9416   33.2845   49.0630 H   0  0  0  0  0  0  0  0  0  0  0  0
   57.4638   30.7366   46.7020 H   0  0  0  0  0  0  0  0  0  0  0  0
  1  2  2  0
  2  3  1  0
  3  4  2  3
  4  5  1  0
  5  6  1  0
  6  7  2  0
  7  8  1  0
  8  9  2  0
  9 10  1  0
  2 11  1  0
 11 12  2  0
 12 13  1  0
 13 14  2  0
 14 15  1  0
 15 16  1  0
 16 17  2  0
 16 18  2  0
 16 19  1  0
 19 20  1  0
 20 21  1  0
 21 22  2  0
 22 23  1  0
 23 24  2  0
 24 25  1  0
 15 26  2  0
  9  4  1  0
 26 11  1  0
 25 21  1  0
  6 27  1  0
  7 28  1  0
  8 29  1  0
 12 30  1  0
 13 31  1  0
 14 32  1  0
 20 33  1  0
 20 34  1  0
 22 35  1  0
 23 36  1  0
 24 37  1  0
 26 38  1  0
M  CHG  3   5  -1  10  -1  19  -1
M  END
>  <UniqueID>  (65) 
61

>  <SMILES>  (65) 
O=C(N=c1[n-]cccc1[O-])c1cccc(S(=O)(=O)[N-]Cc2ccco2)c1

>  <Energy>  (65) 
75.81844996076678

>  <Genealogy>  (65) 
O=C(N=c1[n-]cccc1[O-])c1cccc(S(=O)(=O)[N-]Cc2ccco2)c1 (protonated)
O=C(N=c1[n-]cccc1[O-])c1cccc(S(=O)(=O)[N-]Cc2ccco2)c1 (3D coordinates assigned)
O=C(N=c1[n-]cccc1[O-])c1cccc(S(=O)(=O)[N-]Cc2ccco2)c1 (optimized conformer: 75.81844996076678 kcal/mol)

>  <smiles>  (65) 
O=C(N=c1[nH]cccc1O)c1cccc(S(=O)(=O)NCc2ccco2)c1

>  <score_type>  (65) 
oracle

>  <origin>  (65) 
adg

>  <m_score__min__energy>  (65) 
-15.23

>  <m_primary>  (65) 
energy

$$$$
65:0
     RDKit          3D

 49 51  0  0  0  0  0  0  0  0999 V2000
   64.0150   31.4060   46.7950 O   0  0  0  0  0  0  0  0  0  0  0  0
   63.6670   32.3170   47.5890 C   0  0  0  0  0  0  0  0  0  0  0  0
   62.3160   32.8900   47.5460 C   0  0  0  0  0  0  0  0  0  0  0  0
   61.9010   33.8950   46.6850 C   0  0  0  0  0  0  0  0  0  0  0  0
   60.5960   34.1950   46.8980 N   0  0  0  0  0  0  0  0  0  0  0  0
   59.8120   35.1670   46.1300 C   0  0  0  0  0  0  0  0  0  0  0  0
   59.1340   34.5220   44.9120 C   0  0  0  0  0  0  0  0  0  0  0  0
   57.7440   33.9280   45.2030 C   0  0  0  0  0  0  0  0  0  0  0  0
   57.7440   32.4140   45.4300 C   0  0  0  0  0  0  0  0  0  0  0  0
   56.5500   31.8040   44.8580 N   0  0  0  0  0  0  0  0  0  0  0  0
   56.6100   30.6570   44.0060 C   0  0  0  0  0  0  0  0  0  0  0  0
   57.4520   30.6050   43.0700 O   0  0  0  0  0  0  0  0  0  0  0  0
   55.6800   29.5440   44.2120 C   0  0  0  0  0  0  0  0  0  0  0  0
   54.6600   29.4330   43.4800 O   0  0  0  0  0  0  0  0  0  0  0  0
   55.9420   28.5850   45.2430 N   0  0  0  0  0  0  0  0  0  0  0  0
   57.0830   27.6750   45.2280 C   0  0  0  0  0  0  0  0  0  0  0  0
   58.3520   28.4240   45.5350 C   0  0  0  0  0  0  0  0  0  0  0  0
   58.4430   29.2400   46.6730 C   0  0  0  0  0  0  0  0  0  0  0  0
   59.6270   29.9250   46.9510 C   0  0  0  0  0  0  0  0  0  0  0  0
   60.7270   29.7990   46.0980 C   0  0  0  0  0  0  0  0  0  0  0  0
   60.6470   28.9820   44.9710 C   0  0  0  0  0  0  0  0  0  0  0  0
   59.4640   28.2960   44.6870 C   0  0  0  0  0  0  0  0  0  0  0  0
   60.1760   33.3700   47.8860 C   0  0  0  0  0  0  0  0  0  0  0  0
   58.8970   33.2730   48.4520 C   0  0  0  0  0  0  0  0  0  0  0  0
   58.6950   32.3310   49.4740 C   0  0  0  0  0  0  0  0  0  0  0  0
   59.7530   31.5020   49.9050 C   0  0  0  0  0  0  0  0  0  0  0  0
   59.4570   30.2240   51.2960 Br  0  0  0  0  0  0  0  0  0  0  0  0
   61.0250   31.6120   49.3170 C   0  0  0  0  0  0  0  0  0  0  0  0
   61.2050   32.5610   48.3070 C   0  0  0  0  0  0  0  0  0  0  0  0
   64.3886   32.6917   48.3299 H   0  0  0  0  0  0  0  0  0  0  0  0
   62.5413   34.3809   45.9341 H   0  0  0  0  0  0  0  0  0  0  0  0
   59.0372   35.5945   46.7833 H   0  0  0  0  0  0  0  0  0  0  0  0
   60.4977   35.9461   45.7655 H   0  0  0  0  0  0  0  0  0  0  0  0
   59.0244   35.2896   44.1318 H   0  0  0  0  0  0  0  0  0  0  0  0
   59.7759   33.6849   44.6001 H   0  0  0  0  0  0  0  0  0  0  0  0
   57.3440   34.4123   46.1060 H   0  0  0  0  0  0  0  0  0  0  0  0
   57.1275   34.1141   44.3112 H   0  0  0  0  0  0  0  0  0  0  0  0
   58.6348   31.9781   44.9541 H   0  0  0  0  0  0  0  0  0  0  0  0
   57.7543   32.2202   46.5127 H   0  0  0  0  0  0  0  0  0  0  0  0
   56.9321   26.8911   45.9848 H   0  0  0  0  0  0  0  0  0  0  0  0
   57.1671   27.2226   44.2288 H   0  0  0  0  0  0  0  0  0  0  0  0
   57.5796   29.3400   47.3472 H   0  0  0  0  0  0  0  0  0  0  0  0
   59.6945   30.5651   47.8430 H   0  0  0  0  0  0  0  0  0  0  0  0
   61.6567   30.3449   46.3160 H   0  0  0  0  0  0  0  0  0  0  0  0
   61.5162   28.8776   44.3050 H   0  0  0  0  0  0  0  0  0  0  0  0
   59.4032   27.6534   43.7963 H   0  0  0  0  0  0  0  0  0  0  0  0
   58.0749   33.9165   48.1054 H   0  0  0  0  0  0  0  0  0  0  0  0
   57.7040   32.2385   49.9424 H   0  0  0  0  0  0  0  0  0  0  0  0
   61.8558   30.9689   49.6428 H   0  0  0  0  0  0  0  0  0  0  0  0
  1  2  2  0
  2  3  1  0
  3  4  2  0
  4  5  1  0
  5  6  1  0
  6  7  1  0
  7  8  1  0
  8  9  1  0
  9 10  1  0
 10 11  1  0
 11 12  2  0
 11 13  1  0
 13 14  2  0
 13 15  1  0
 15 16  1  0
 16 17  1  0
 17 18  2  0
 18 19  1  0
 19 20  2  0
 20 21  1  0
 21 22  2  0
  5 23  1  0
 23 24  2  0
 24 25  1  0
 25 26  2  0
 26 27  1  0
 26 28  1  0
 28 29  2  0
 29  3  1  0
 22 17  1  0
 29 23  1  0
  2 30  1  0
  4 31  1  0
  6 32  1  0
  6 33  1  0
  7 34  1  0
  7 35  1  0
  8 36  1  0
  8 37  1  0
  9 38  1  0
  9 39  1  0
 16 40  1  0
 16 41  1  0
 18 42  1  0
 19 43  1  0
 20 44  1  0
 21 45  1  0
 22 46  1  0
 24 47  1  0
 25 48  1  0
 28 49  1  0
M  CHG  2  10  -1  15  -1
M  END
>  <UniqueID>  (66) 
62

>  <SMILES>  (66) 
O=Cc1cn(CCCC[N-]C(=O)C(=O)[N-]Cc2ccccc2)c2ccc(Br)cc12

>  <Energy>  (66) 
74.10204074307032

>  <Genealogy>  (66) 
O=Cc1cn(CCCC[N-]C(=O)C(=O)[N-]Cc2ccccc2)c2ccc(Br)cc12 (protonated)
O=Cc1cn(CCCC[N-]C(=O)C(=O)[N-]Cc2ccccc2)c2ccc(Br)cc12 (3D coordinates assigned)
O=Cc1cn(CCCC[N-]C(=O)C(=O)[N-]Cc2ccccc2)c2ccc(Br)cc12 (optimized conformer: 74.10204074307032 kcal/mol)

>  <smiles>  (66) 
O=Cc1cn(CCCCNC(=O)C(=O)NCc2ccccc2)c2ccc(Br)cc12

>  <score_type>  (66) 
oracle

>  <origin>  (66) 
adg

>  <m_score__min__energy>  (66) 
-11.640000000000001

>  <m_primary>  (66) 
energy

$$$$
66:0
     RDKit          3D

 80 84  0  0  1  0  0  0  0  0999 V2000
   57.9130   31.9740   51.1650 C   0  0  0  0  0  0  0  0  0  0  0  0
   58.1960   31.9900   49.7780 O   0  0  0  0  0  0  0  0  0  0  0  0
   59.4510   32.3920   49.3440 C   0  0  0  0  0  0  0  0  0  0  0  0
   60.5940   32.0410   50.0620 C   0  0  0  0  0  0  0  0  0  0  0  0
   61.8580   32.4260   49.6540 C   0  0  0  0  0  0  0  0  0  0  0  0
   63.0240   32.0880   50.3710 N   0  0  0  0  0  0  0  0  0  0  0  0
   63.0570   31.8150   51.7970 C   0  0  0  0  0  0  0  0  0  0  0  0
   64.0310   30.6330   51.9360 C   0  0  0  0  0  0  0  0  0  0  0  0
   65.4080   31.2420   51.8270 C   0  0  0  0  0  0  0  0  0  0  0  0
   66.4230   30.2820   51.9700 N   0  0  0  0  0  0  0  0  0  0  0  0
   67.3060   30.0420   50.8870 C   0  0  0  0  0  0  0  0  0  0  0  0
   67.5740   28.5450   50.6810 C   0  0  0  0  0  0  0  0  0  0  0  0
   66.4010   27.7440   50.9680 N   0  0  0  0  0  0  0  0  0  0  0  0
   66.7630   26.3730   50.6860 C   0  0  0  0  0  0  0  0  0  0  0  0
   65.8670   27.9150   52.2810 C   0  0  0  0  0  0  0  0  0  0  0  0
   66.2730   29.2340   52.9020 C   0  0  0  0  0  0  0  0  0  0  0  0
   65.4620   32.1260   50.6350 C   0  0  0  0  0  0  0  0  0  0  0  0
   64.3030   31.9830   49.6730 C   0  0  0  0  0  0  0  0  0  0  0  0
   61.9210   33.1810   48.4940 C   0  0  0  0  0  0  0  0  0  0  0  0
   60.7850   33.5330   47.7790 C   0  0  0  0  0  0  0  0  0  0  0  0
   59.5310   33.1440   48.1930 C   0  0  0  0  0  0  0  0  0  0  0  0
   56.4870   30.6930   44.4790 N   0  0  0  0  0  0  0  0  0  0  0  0
   57.2210   31.7070   44.6480 C   0  0  0  0  0  0  0  0  0  0  0  0
   58.7890   33.8950   45.2170 N   0  0  0  0  0  0  0  0  0  0  0  0
   58.5930   33.5300   43.9520 C   0  0  0  0  0  0  0  0  0  0  0  0
   57.8250   32.4570   43.6730 C   0  0  0  0  0  0  0  0  0  0  0  0
   57.5810   31.9880   42.0120 Cl  0  0  0  0  0  0  0  0  0  0  0  0
   58.2120   33.1830   46.2020 C   0  0  0  0  0  0  0  0  0  0  0  0
   58.4000   33.5340   47.4270 N   0  0  0  0  0  0  0  0  0  0  0  0
   56.8830   29.3680   44.7200 C   0  0  0  0  0  0  0  0  0  0  0  0
   58.1940   29.2190   45.4130 C   0  0  0  0  0  0  0  0  0  0  0  0
   59.3880   28.9840   44.7690 C   0  0  0  0  0  0  0  0  0  0  0  0
   60.6040   28.8510   45.3990 C   0  0  0  0  0  0  0  0  0  0  0  0
   60.6800   28.9560   46.7700 C   0  0  0  0  0  0  0  0  0  0  0  0
   59.5140   29.1900   47.4560 C   0  0  0  0  0  0  0  0  0  0  0  0
   59.6210   29.2940   48.8790 N   0  0  0  0  0  0  0  0  0  0  0  0
   60.3550   28.3840   49.6730 C   0  0  0  0  0  0  0  0  0  0  0  0
   60.3790   28.6150   51.1380 C   0  0  0  0  0  0  0  0  0  0  0  0
   60.9860   27.3900   49.1810 O   0  0  0  0  0  0  0  0  0  0  0  0
   58.2970   29.3210   46.8100 C   0  0  0  0  0  0  0  0  0  0  0  0
   57.4420   32.1090   45.9350 N   0  0  0  0  0  0  0  0  0  0  0  0
   58.8542   32.0272   51.7319 H   0  0  0  0  0  0  0  0  0  0  0  0
   57.2818   32.8379   51.4204 H   0  0  0  0  0  0  0  0  0  0  0  0
   57.3832   31.0445   51.4204 H   0  0  0  0  0  0  0  0  0  0  0  0
   60.4871   31.4414   50.9780 H   0  0  0  0  0  0  0  0  0  0  0  0
   63.4247   32.6902   52.3527 H   0  0  0  0  0  0  0  0  0  0  0  0
   62.0607   31.5883   52.2043 H   0  0  0  0  0  0  0  0  0  0  0  0
   63.9030   30.1400   52.9110 H   0  0  0  0  0  0  0  0  0  0  0  0
   63.8585   29.8648   51.1678 H   0  0  0  0  0  0  0  0  0  0  0  0
   65.6152   31.9076   52.6779 H   0  0  0  0  0  0  0  0  0  0  0  0
   66.8606   30.4522   49.9687 H   0  0  0  0  0  0  0  0  0  0  0  0
   68.2650   30.5290   51.1177 H   0  0  0  0  0  0  0  0  0  0  0  0
   67.8727   28.3773   49.6357 H   0  0  0  0  0  0  0  0  0  0  0  0
   68.3729   28.2421   51.3738 H   0  0  0  0  0  0  0  0  0  0  0  0
   66.9065   25.8297   51.6317 H   0  0  0  0  0  0  0  0  0  0  0  0
   65.9606   25.8938   50.1059 H   0  0  0  0  0  0  0  0  0  0  0  0
   67.6974   26.3524   50.1059 H   0  0  0  0  0  0  0  0  0  0  0  0
   64.7692   27.8746   52.2238 H   0  0  0  0  0  0  0  0  0  0  0  0
   66.2678   27.1092   52.9135 H   0  0  0  0  0  0  0  0  0  0  0  0
   65.5021   29.5258   53.6303 H   0  0  0  0  0  0  0  0  0  0  0  0
   67.2569   29.0780   53.3684 H   0  0  0  0  0  0  0  0  0  0  0  0
   65.4866   33.1684   50.9854 H   0  0  0  0  0  0  0  0  0  0  0  0
   66.3612   31.8288   50.0754 H   0  0  0  0  0  0  0  0  0  0  0  0
   64.3650   32.7779   48.9152 H   0  0  0  0  0  0  0  0  0  0  0  0
   64.3622   30.9919   49.1995 H   0  0  0  0  0  0  0  0  0  0  0  0
   62.9039   33.5123   48.1277 H   0  0  0  0  0  0  0  0  0  0  0  0
   60.8885   34.1344   46.8638 H   0  0  0  0  0  0  0  0  0  0  0  0
   59.3750   34.7150   45.4810 H   0  0  0  0  0  0  0  0  0  0  0  0
   59.0568   34.1027   43.1353 H   0  0  0  0  0  0  0  0  0  0  0  0
   56.1120   28.8890   45.3415 H   0  0  0  0  0  0  0  0  0  0  0  0
   57.0019   28.8980   43.7326 H   0  0  0  0  0  0  0  0  0  0  0  0
   59.3684   28.8963   43.6727 H   0  0  0  0  0  0  0  0  0  0  0  0
   61.5129   28.6613   44.8092 H   0  0  0  0  0  0  0  0  0  0  0  0
   61.6405   28.8560   47.2966 H   0  0  0  0  0  0  0  0  0  0  0  0
   59.1090   30.1060   49.3040 H   0  0  0  0  0  0  0  0  0  0  0  0
   60.2791   27.6533   51.6625 H   0  0  0  0  0  0  0  0  0  0  0  0
   61.3312   29.0887   51.4190 H   0  0  0  0  0  0  0  0  0  0  0  0
   59.5445   29.2743   51.4190 H   0  0  0  0  0  0  0  0  0  0  0  0
   57.3904   29.5092   47.4038 H   0  0  0  0  0  0  0  0  0  0  0  0
   57.0160   31.5910   46.7340 H   0  0  0  0  0  0  0  0  0  0  0  0
  1  2  1  0
  2  3  1  0
  3  4  2  0
  4  5  1  0
  5  6  1  0
  6  7  1  0
  7  8  1  0
  8  9  1  0
  9 10  1  0
 10 11  1  0
 11 12  1  0
 12 13  1  0
 13 14  1  0
 13 15  1  0
 15 16  1  0
  9 17  1  0
 17 18  1  0
  5 19  2  0
 19 20  1  0
 20 21  2  0
 21 22  1  0
 22 23  2  0
 23 24  1  0
 24 25  1  0
 25 26  2  0
 26 27  1  0
 26 28  1  0
 28 29  2  0
 29 30  1  0
 30 31  1  0
 31 32  2  0
 32 33  1  0
 33 34  2  0
 34 35  1  0
 35 36  1  0
 36 37  1  0
 37 38  1  0
 37 39  2  0
 35 40  2  0
 28 41  1  0
 21  3  1  0
 41 23  1  0
 18  6  1  0
 40 31  1  0
 16 10  1  0
  1 42  1  0
  1 43  1  0
  1 44  1  0
  4 45  1  0
  7 46  1  0
  7 47  1  0
  8 48  1  0
  8 49  1  0
  9 50  1  0
 11 51  1  0
 11 52  1  0
 12 53  1  0
 12 54  1  0
 14 55  1  0
 14 56  1  0
 14 57  1  0
 15 58  1  0
 15 59  1  0
 16 60  1  0
 16 61  1  0
 17 62  1  0
 17 63  1  0
 18 64  1  0
 18 65  1  0
 19 66  1  0
 20 67  1  0
 24 68  1  0
 25 69  1  0
 30 70  1  0
 30 71  1  0
 32 72  1  0
 33 73  1  0
 34 74  1  0
 36 75  1  0
 38 76  1  0
 38 77  1  0
 38 78  1  0
 40 79  1  0
 41 80  1  0
M  END
>  <smiles>  (67) 
COc1cc(N2CCC(N3CCN(C)CC3)CC2)ccc1N=c1[nH]cc(Cl)c(=NCc2cccc(NC(C)=O)c2)[nH]1

>  <score_type>  (67) 
oracle

>  <origin>  (67) 
adg

>  <m_score__min__energy>  (67) 
-9.9000000000000004

>  <m_primary>  (67) 
energy

$$$$
67:0
     RDKit          3D

 35 37  0  0  0  0  0  0  0  0999 V2000
   52.6400   30.0280   48.5980 H   0  0  0  0  0  0  0  0  0  0  0  0
   51.8280   29.9730   49.2000 O   0  0  0  0  0  0  0  0  0  0  0  0
   51.7160   30.7930   50.3170 C   0  0  0  0  0  0  0  0  0  0  0  0
   51.0360   31.9560   50.3180 N   0  0  0  0  0  0  0  0  0  0  0  0
   51.1920   32.4330   51.5690 C   0  0  0  0  0  0  0  0  0  0  0  0
   50.6430   33.6350   51.9980 O   0  0  0  0  0  0  0  0  0  0  0  0
   51.9550   31.5980   52.3590 C   0  0  0  0  0  0  0  0  0  0  0  0
   52.2412   31.7507   53.4101 H   0  0  0  0  0  0  0  0  0  0  0  0
   52.2820   30.5310   51.5490 C   0  0  0  0  0  0  0  0  0  0  0  0
   53.1650   29.3770   51.9080 C   0  0  0  0  0  0  0  0  0  0  0  0
   53.9327   29.2495   51.1305 H   0  0  0  0  0  0  0  0  0  0  0  0
   52.5557   28.4642   51.9822 H   0  0  0  0  0  0  0  0  0  0  0  0
   53.8290   29.6340   53.2230 C   0  0  0  0  0  0  0  0  0  0  0  0
   53.4780   28.9680   54.2330 O   0  0  0  0  0  0  0  0  0  0  0  0
   54.8250   30.6660   53.3130 N   0  0  0  0  0  0  0  0  0  0  0  0
   55.8930   30.8020   52.5820 C   0  0  0  0  0  0  0  0  0  0  0  0
   56.4480   29.7580   51.9300 N   0  0  0  0  0  0  0  0  0  0  0  0
   57.5350   30.0900   51.2340 N   0  0  0  0  0  0  0  0  0  0  0  0
   57.8470   31.4020   51.3310 C   0  0  0  0  0  0  0  0  0  0  0  0
   59.2570   32.1460   50.5160 S   0  0  0  0  0  0  0  0  0  0  0  0
   58.8020   31.5520   48.8490 C   0  0  0  0  0  0  0  0  0  0  0  0
   59.4726   30.7273   48.5657 H   0  0  0  0  0  0  0  0  0  0  0  0
   57.7572   31.2089   48.8727 H   0  0  0  0  0  0  0  0  0  0  0  0
   58.9210   32.6540   47.8320 C   0  0  0  0  0  0  0  0  0  0  0  0
   59.8690   33.6790   47.9990 C   0  0  0  0  0  0  0  0  0  0  0  0
   60.5163   33.6870   48.8883 H   0  0  0  0  0  0  0  0  0  0  0  0
   59.9920   34.6880   47.0390 C   0  0  0  0  0  0  0  0  0  0  0  0
   60.7335   35.4889   47.1756 H   0  0  0  0  0  0  0  0  0  0  0  0
   59.1730   34.6800   45.9050 C   0  0  0  0  0  0  0  0  0  0  0  0
   59.2950   35.6590   44.9750 F   0  0  0  0  0  0  0  0  0  0  0  0
   58.2320   33.6610   45.7300 C   0  0  0  0  0  0  0  0  0  0  0  0
   57.5897   33.6541   44.8370 H   0  0  0  0  0  0  0  0  0  0  0  0
   58.1060   32.6510   46.6880 C   0  0  0  0  0  0  0  0  0  0  0  0
   57.3654   31.8503   46.5454 H   0  0  0  0  0  0  0  0  0  0  0  0
   56.7570   32.2310   52.3070 S   0  0  0  0  0  0  0  0  0  0  0  0
  1  2  1  0
  2  3  1  0
  3  4  1  0
  4  5  1  0
  5  6  1  0
  5  7  2  0
  7  8  1  0
  7  9  1  0
  9 10  1  0
 10 11  1  0
 10 12  1  0
 10 13  1  0
 13 14  2  0
 13 15  1  0
 15 16  2  0
 16 17  1  0
 17 18  1  0
 18 19  2  0
 19 20  1  0
 20 21  1  0
 21 22  1  0
 21 23  1  0
 21 24  1  0
 24 25  2  0
 25 26  1  0
 25 27  1  0
 27 28  1  0
 27 29  2  0
 29 30  1  0
 29 31  1  0
 31 32  1  0
 31 33  2  0
 33 34  1  0
 19 35  1  0
  9  3  2  0
 35 16  1  0
 33 24  1  0
M  CHG  3   4  -1   6  -1  17  -1
M  END
>  <UniqueID>  (68) 
63

>  <SMILES>  (68) 
O=C(Cc1cc([O-])[n-]c1O)/N=c1/[n-]nc(SCc2ccc(F)cc2)s1

>  <Energy>  (68) 
93.67284256112491

>  <Genealogy>  (68) 
O=C(Cc1cc([O-])[n-]c1O)N=c1[n-]nc(SCc2ccc(F)cc2)s1 (protonated)
O=C(Cc1cc([O-])[n-]c1O)/N=c1/[n-]nc(SCc2ccc(F)cc2)s1 (cis-trans isomerization)
O=C(Cc1cc([O-])[n-]c1O)/N=c1/[n-]nc(SCc2ccc(F)cc2)s1 (3D coordinates assigned)
O=C(Cc1cc([O-])[n-]c1O)/N=c1/[n-]nc(SCc2ccc(F)cc2)s1 (optimized conformer: 93.67284256112491 kcal/mol)

>  <smiles>  (68) 
O=C(Cc1cc(O)[nH]c1O)N=c1[nH]nc(SCc2ccc(F)cc2)s1

>  <score_type>  (68) 
oracle

>  <origin>  (68) 
adg

>  <m_score__min__energy>  (68) 
-16.859999999999999

>  <m_primary>  (68) 
energy

$$$$
68:0
     RDKit          3D

 63 66  0  0  1  0  0  0  0  0999 V2000
   59.2910   34.0470   48.6650 C   0  0  0  0  0  0  0  0  0  0  0  0
   59.0600   34.1050   47.2010 C   0  0  0  0  0  0  0  0  0  0  0  0
   59.5340   35.1090   46.3830 C   0  0  0  0  0  0  0  0  0  0  0  0
   59.2730   35.0880   45.0110 C   0  0  0  0  0  0  0  0  0  0  0  0
   58.5620   34.1080   44.4400 N   0  0  0  0  0  0  0  0  0  0  0  0
   58.1020   33.1340   45.2340 C   0  0  0  0  0  0  0  0  0  0  0  0
   57.4260   32.1630   44.7610 N   0  0  0  0  0  0  0  0  0  0  0  0
   57.3960   31.7480   43.3910 C   0  0  0  0  0  0  0  0  0  0  0  0
   56.6460   30.4260   43.2040 C   0  0  0  0  0  0  0  0  0  0  0  0
   56.1850   30.0240   44.4980 N   0  0  0  0  0  0  0  0  0  0  0  0
   56.9840   29.3120   45.2510 C   0  0  0  0  0  0  0  0  0  0  0  0
   57.2710   28.0500   44.9620 N   0  0  0  0  0  0  0  0  0  0  0  0
   58.1340   27.3250   45.6920 C   0  0  0  0  0  0  0  0  0  0  0  0
   58.7840   27.8830   46.8170 C   0  0  0  0  0  0  0  0  0  0  0  0
   59.6750   26.9800   47.5030 C   0  0  0  0  0  0  0  0  0  0  0  0
   60.2320   25.9680   47.0200 O   0  0  0  0  0  0  0  0  0  0  0  0
   59.9630   27.3010   48.8800 N   0  0  0  0  0  0  0  0  0  0  0  0
   60.8500   26.5980   49.7300 C   0  0  0  0  0  0  0  0  0  0  0  0
   61.3980   27.2130   50.9260 C   0  0  0  0  0  0  0  0  0  0  0  0
   62.2340   26.5040   51.7570 C   0  0  0  0  0  0  0  0  0  0  0  0
   62.8010   27.0850   52.8580 C   0  0  0  0  0  0  0  0  0  0  0  0
   62.5210   28.4080   53.1330 C   0  0  0  0  0  0  0  0  0  0  0  0
   61.6640   29.0990   52.2670 C   0  0  0  0  0  0  0  0  0  0  0  0
   61.1330   28.4840   51.2000 N   0  0  0  0  0  0  0  0  0  0  0  0
   58.4750   29.1670   47.0880 C   0  0  0  0  0  0  0  0  0  0  0  0
   59.0740   29.7430   48.0460 N   0  0  0  0  0  0  0  0  0  0  0  0
   59.9160   30.8800   47.9970 C   0  0  0  0  0  0  0  0  0  0  0  0
   61.0560   30.1530   47.1430 C   0  0  0  0  0  0  0  0  0  0  0  0
   62.1050   31.2100   47.1370 C   0  0  0  0  0  0  0  0  0  0  0  0
   62.1280   31.5870   48.6270 C   0  0  0  0  0  0  0  0  0  0  0  0
   60.8180   31.0520   49.1790 C   0  0  0  0  0  0  0  0  0  0  0  0
   57.6020   29.8550   46.3290 N   0  0  0  0  0  0  0  0  0  0  0  0
   58.3330   33.1030   46.6120 C   0  0  0  0  0  0  0  0  0  0  0  0
   58.3553   34.2819   49.1934 H   0  0  0  0  0  0  0  0  0  0  0  0
   59.6258   33.0369   48.9436 H   0  0  0  0  0  0  0  0  0  0  0  0
   60.0632   34.7791   48.9436 H   0  0  0  0  0  0  0  0  0  0  0  0
   60.1220   35.9325   46.8143 H   0  0  0  0  0  0  0  0  0  0  0  0
   59.6633   35.9009   44.3810 H   0  0  0  0  0  0  0  0  0  0  0  0
   58.3340   34.0390   43.4320 H   0  0  0  0  0  0  0  0  0  0  0  0
   56.8960   32.5263   42.7958 H   0  0  0  0  0  0  0  0  0  0  0  0
   58.4344   31.5971   43.0607 H   0  0  0  0  0  0  0  0  0  0  0  0
   55.7921   30.5681   42.5253 H   0  0  0  0  0  0  0  0  0  0  0  0
   57.3012   29.6600   42.7635 H   0  0  0  0  0  0  0  0  0  0  0  0
   56.8380   27.5300   44.1400 H   0  0  0  0  0  0  0  0  0  0  0  0
   58.3383   26.2814   45.4106 H   0  0  0  0  0  0  0  0  0  0  0  0
   59.4550   28.1470   49.2930 H   0  0  0  0  0  0  0  0  0  0  0  0
   60.3139   25.6966   50.0617 H   0  0  0  0  0  0  0  0  0  0  0  0
   61.7406   26.4763   49.0959 H   0  0  0  0  0  0  0  0  0  0  0  0
   62.4508   25.4493   51.5318 H   0  0  0  0  0  0  0  0  0  0  0  0
   63.4692   26.5071   53.5134 H   0  0  0  0  0  0  0  0  0  0  0  0
   62.9595   28.9071   54.0097 H   0  0  0  0  0  0  0  0  0  0  0  0
   61.4246   30.1545   52.4636 H   0  0  0  0  0  0  0  0  0  0  0  0
   59.3423   31.7897   47.7659 H   0  0  0  0  0  0  0  0  0  0  0  0
   61.4081   29.2340   47.6345 H   0  0  0  0  0  0  0  0  0  0  0  0
   60.7377   29.8169   46.1451 H   0  0  0  0  0  0  0  0  0  0  0  0
   63.0762   30.8169   46.8021 H   0  0  0  0  0  0  0  0  0  0  0  0
   61.9074   32.0493   46.4539 H   0  0  0  0  0  0  0  0  0  0  0  0
   62.9836   31.1163   49.1333 H   0  0  0  0  0  0  0  0  0  0  0  0
   62.2333   32.6711   48.7810 H   0  0  0  0  0  0  0  0  0  0  0  0
   60.9798   30.0866   49.6808 H   0  0  0  0  0  0  0  0  0  0  0  0
   60.3835   31.7357   49.9232 H   0  0  0  0  0  0  0  0  0  0  0  0
   57.3830   30.8470   46.5730 H   0  0  0  0  0  0  0  0  0  0  0  0
   57.9335   32.2787   47.2210 H   0  0  0  0  0  0  0  0  0  0  0  0
  1  2  1  0
  2  3  1  0
  3  4  2  0
  4  5  1  0
  5  6  1  0
  6  7  2  0
  7  8  1  0
  8  9  1  0
  9 10  1  0
 10 11  2  0
 11 12  1  0
 12 13  1  0
 13 14  2  0
 14 15  1  0
 15 16  2  0
 15 17  1  0
 17 18  1  0
 18 19  1  0
 19 20  2  0
 20 21  1  0
 21 22  2  0
 22 23  1  0
 23 24  2  0
 14 25  1  0
 25 26  2  0
 26 27  1  0
 27 28  1  0
 28 29  1  0
 29 30  1  0
 30 31  1  0
 25 32  1  0
  6 33  1  0
 33  2  2  0
 32 11  1  0
 24 19  1  0
 31 27  1  0
  1 34  1  0
  1 35  1  0
  1 36  1  0
  3 37  1  0
  4 38  1  0
  5 39  1  0
  8 40  1  0
  8 41  1  0
  9 42  1  0
  9 43  1  0
 12 44  1  0
 13 45  1  0
 17 46  1  0
 18 47  1  0
 18 48  1  0
 20 49  1  0
 21 50  1  0
 22 51  1  0
 23 52  1  0
 27 53  1  0
 28 54  1  0
 28 55  1  0
 29 56  1  0
 29 57  1  0
 30 58  1  0
 30 59  1  0
 31 60  1  0
 31 61  1  0
 32 62  1  0
 33 63  1  0
M  END
>  <smiles>  (69) 
Cc1cc[nH]c(=NCCN=c2[nH]cc(C(=O)NCc3ccccn3)c(=NC3CCCC3)[nH]2)c1

>  <score_type>  (69) 
oracle

>  <origin>  (69) 
adg

>  <m_score__min__energy>  (69) 
-8.4600000000000009

>  <m_primary>  (69) 
energy

$$$$
69:0
     RDKit          3D

 53 56  0  0  0  0  0  0  0  0999 V2000
   55.3490   28.7040   45.5850 H   0  0  0  0  0  0  0  0  0  0  0  0
   55.1450   29.3230   44.7690 N   0  0  0  0  0  0  0  0  0  0  0  0
   56.6570   29.6730   44.0110 S   0  0  0  0  0  0  0  0  0  0  0  0
   56.9620   28.6180   42.9870 O   0  0  0  0  0  0  0  0  0  0  0  0
   56.5720   31.0070   43.3210 O   0  0  0  0  0  0  0  0  0  0  0  0
   57.9300   29.6950   45.2250 C   0  0  0  0  0  0  0  0  0  0  0  0
   57.7700   28.9730   46.4170 C   0  0  0  0  0  0  0  0  0  0  0  0
   56.8590   28.3780   46.5785 H   0  0  0  0  0  0  0  0  0  0  0  0
   58.7640   29.0060   47.4020 C   0  0  0  0  0  0  0  0  0  0  0  0
   58.6313   28.4384   48.3348 H   0  0  0  0  0  0  0  0  0  0  0  0
   59.9300   29.7620   47.2020 C   0  0  0  0  0  0  0  0  0  0  0  0
   60.9660   29.8660   48.2850 C   0  0  0  0  0  0  0  0  0  0  0  0
   60.7070   29.1804   49.1053 H   0  0  0  0  0  0  0  0  0  0  0  0
   61.9499   29.5965   47.8736 H   0  0  0  0  0  0  0  0  0  0  0  0
   61.0140   31.2330   48.7930 N   0  0  0  0  0  0  0  0  0  0  0  0
   60.4580   31.4630   49.6470 H   0  0  0  0  0  0  0  0  0  0  0  0
   61.7740   32.2680   48.1560 C   0  0  0  0  0  0  0  0  0  0  0  0
   62.2300   32.0970   46.9930 O   0  0  0  0  0  0  0  0  0  0  0  0
   62.0150   33.5510   48.8460 C   0  0  0  0  0  0  0  0  0  0  0  0
   63.1550   33.7890   49.5270 C   0  0  0  0  0  0  0  0  0  0  0  0
   63.4881   34.8343   49.6067 H   0  0  0  0  0  0  0  0  0  0  0  0
   63.9940   32.7550   50.1760 C   0  0  0  0  0  0  0  0  0  0  0  0
   63.3550   31.6870   50.8540 C   0  0  0  0  0  0  0  0  0  0  0  0
   62.2568   31.6237   50.8528 H   0  0  0  0  0  0  0  0  0  0  0  0
   64.1060   30.7060   51.5290 C   0  0  0  0  0  0  0  0  0  0  0  0
   63.6124   29.8725   52.0502 H   0  0  0  0  0  0  0  0  0  0  0  0
   65.4930   30.8240   51.5160 C   0  0  0  0  0  0  0  0  0  0  0  0
   66.1190   31.8580   50.8760 C   0  0  0  0  0  0  0  0  0  0  0  0
   65.4070   32.8530   50.2070 C   0  0  0  0  0  0  0  0  0  0  0  0
   65.9273   33.6896   49.7176 H   0  0  0  0  0  0  0  0  0  0  0  0
   67.4750   31.7060   51.0750 C   0  0  0  0  0  0  0  0  0  0  0  0
   68.2818   32.3563   50.7060 H   0  0  0  0  0  0  0  0  0  0  0  0
   67.6030   30.5530   51.8430 C   0  0  0  0  0  0  0  0  0  0  0  0
   68.5605   30.1317   52.1833 H   0  0  0  0  0  0  0  0  0  0  0  0
   66.3900   30.0210   52.1140 N   0  0  0  0  0  0  0  0  0  0  0  0
   66.1930   29.1630   52.6760 H   0  0  0  0  0  0  0  0  0  0  0  0
   60.8800   34.5510   48.9150 C   0  0  0  0  0  0  0  0  0  0  0  0
   60.4469   34.5330   49.9260 H   0  0  0  0  0  0  0  0  0  0  0  0
   61.2803   35.5488   48.6823 H   0  0  0  0  0  0  0  0  0  0  0  0
   59.8290   34.2310   47.9370 N   0  0  0  0  0  0  0  0  0  0  0  0
   59.8520   34.8230   46.7040 C   0  0  0  0  0  0  0  0  0  0  0  0
   60.6611   35.5237   46.4503 H   0  0  0  0  0  0  0  0  0  0  0  0
   58.8600   34.5460   45.7680 C   0  0  0  0  0  0  0  0  0  0  0  0
   58.8725   35.0240   44.7774 H   0  0  0  0  0  0  0  0  0  0  0  0
   57.8520   33.6510   46.1130 C   0  0  0  0  0  0  0  0  0  0  0  0
   56.9390   33.3790   45.2920 O   0  0  0  0  0  0  0  0  0  0  0  0
   57.8530   33.0710   47.3380 N   0  0  0  0  0  0  0  0  0  0  0  0
   58.8250   33.3460   48.2460 C   0  0  0  0  0  0  0  0  0  0  0  0
   58.7880   32.7830   49.3730 O   0  0  0  0  0  0  0  0  0  0  0  0
   60.0860   30.4860   46.0090 C   0  0  0  0  0  0  0  0  0  0  0  0
   60.9966   31.0812   45.8459 H   0  0  0  0  0  0  0  0  0  0  0  0
   59.0910   30.4550   45.0270 C   0  0  0  0  0  0  0  0  0  0  0  0
   59.2197   31.0283   44.0971 H   0  0  0  0  0  0  0  0  0  0  0  0
  1  2  1  0
  2  3  1  0
  3  4  2  0
  3  5  2  0
  3  6  1  0
  6  7  2  0
  7  8  1  0
  7  9  1  0
  9 10  1  0
  9 11  2  0
 11 12  1  0
 12 13  1  0
 12 14  1  0
 12 15  1  0
 15 16  1  0
 15 17  1  0
 17 18  2  0
 17 19  1  0
 19 20  2  0
 20 21  1  0
 20 22  1  0
 22 23  2  0
 23 24  1  0
 23 25  1  0
 25 26  1  0
 25 27  2  0
 27 28  1  0
 28 29  2  0
 29 30  1  0
 28 31  1  0
 31 32  1  0
 31 33  2  0
 33 34  1  0
 33 35  1  0
 35 36  1  0
 19 37  1  0
 37 38  1  0
 37 39  1  0
 37 40  1  0
 40 41  1  0
 41 42  1  0
 41 43  2  0
 43 44  1  0
 43 45  1  0
 45 46  2  0
 45 47  1  0
 47 48  1  0
 48 49  2  0
 11 50  1  0
 50 51  1  0
 50 52  2  0
 52 53  1  0
 52  6  1  0
 29 22  1  0
 48 40  1  0
 35 27  1  0
M  CHG  2   2  -1  47  -1
M  END
>  <UniqueID>  (70) 
64

>  <SMILES>  (70) 
[NH-]S(=O)(=O)c1ccc(CNC(=O)/C(=C\c2ccc3[nH]ccc3c2)Cn2ccc(=O)[n-]c2=O)cc1

>  <Energy>  (70) 
97.63380975400584

>  <Genealogy>  (70) 
[NH-]S(=O)(=O)c1ccc(CNC(=O)C(=Cc2ccc3[nH]ccc3c2)Cn2ccc(=O)[n-]c2=O)cc1 (protonated)
[NH-]S(=O)(=O)c1ccc(CNC(=O)/C(=C\c2ccc3[nH]ccc3c2)Cn2ccc(=O)[n-]c2=O)cc1 (cis-trans isomerization)
[NH-]S(=O)(=O)c1ccc(CNC(=O)/C(=C\c2ccc3[nH]ccc3c2)Cn2ccc(=O)[n-]c2=O)cc1 (3D coordinates assigned)
[NH-]S(=O)(=O)c1ccc(CNC(=O)/C(=C\c2ccc3[nH]ccc3c2)Cn2ccc(=O)[n-]c2=O)cc1 (optimized conformer: 97.63380975400584 kcal/mol)

>  <smiles>  (70) 
NS(=O)(=O)c1ccc(CNC(=O)C(=Cc2ccc3[nH]ccc3c2)Cn2ccc(=O)[nH]c2=O)cc1

>  <score_type>  (70) 
oracle

>  <origin>  (70) 
adg

>  <m_score__min__energy>  (70) 
-14.07

>  <m_primary>  (70) 
energy

$$$$
70:0
     RDKit          3D

 51 53  0  0  0  0  0  0  0  0999 V2000
   63.4470   33.3980   47.5430 C   0  0  0  0  0  0  0  0  0  0  0  0
   62.1430   33.8200   48.2070 C   0  0  0  0  0  0  0  0  0  0  0  0
   61.0060   33.4620   47.3650 N   0  0  0  0  0  0  0  0  0  0  0  0
   60.6880   32.2200   46.9500 C   0  0  0  0  0  0  0  0  0  0  0  0
   59.5430   32.3050   46.1860 C   0  0  0  0  0  0  0  0  0  0  0  0
   58.8810   31.1920   45.4270 C   0  0  0  0  0  0  0  0  0  0  0  0
   57.4240   31.2460   45.5690 N   0  0  0  0  0  0  0  0  0  0  0  0
   56.6170   30.3360   44.3220 S   0  0  0  0  0  0  0  0  0  0  0  0
   55.1220   30.4260   44.4640 O   0  0  0  0  0  0  0  0  0  0  0  0
   56.9970   30.9040   42.9840 O   0  0  0  0  0  0  0  0  0  0  0  0
   57.1270   28.6510   44.3910 C   0  0  0  0  0  0  0  0  0  0  0  0
   57.7210   28.0560   43.2720 C   0  0  0  0  0  0  0  0  0  0  0  0
   58.1170   26.7180   43.3170 C   0  0  0  0  0  0  0  0  0  0  0  0
   57.9320   25.9690   44.4820 C   0  0  0  0  0  0  0  0  0  0  0  0
   57.3550   26.5580   45.6210 C   0  0  0  0  0  0  0  0  0  0  0  0
   57.2100   25.7850   46.8720 C   0  0  0  0  0  0  0  0  0  0  0  0
   56.1510   25.1360   47.0980 O   0  0  0  0  0  0  0  0  0  0  0  0
   58.2880   25.7360   47.8120 N   0  0  0  0  0  0  0  0  0  0  0  0
   59.5890   26.3380   47.5560 C   0  0  0  0  0  0  0  0  0  0  0  0
   59.6770   27.6490   48.2800 C   0  0  0  0  0  0  0  0  0  0  0  0
   58.8120   28.7030   47.9450 C   0  0  0  0  0  0  0  0  0  0  0  0
   58.9200   29.9360   48.5960 C   0  0  0  0  0  0  0  0  0  0  0  0
   59.9000   30.1290   49.5740 C   0  0  0  0  0  0  0  0  0  0  0  0
   60.0080   31.3260   50.2010 F   0  0  0  0  0  0  0  0  0  0  0  0
   60.7770   29.0890   49.9000 C   0  0  0  0  0  0  0  0  0  0  0  0
   60.6700   27.8540   49.2520 C   0  0  0  0  0  0  0  0  0  0  0  0
   56.9470   27.9020   45.5620 C   0  0  0  0  0  0  0  0  0  0  0  0
   59.2220   33.6530   46.1770 C   0  0  0  0  0  0  0  0  0  0  0  0
   58.0650   34.2890   45.4780 C   0  0  0  0  0  0  0  0  0  0  0  0
   60.1210   34.3370   46.9120 N   0  0  0  0  0  0  0  0  0  0  0  0
   64.1911   33.1572   48.3165 H   0  0  0  0  0  0  0  0  0  0  0  0
   63.2693   32.5115   46.9165 H   0  0  0  0  0  0  0  0  0  0  0  0
   63.8224   34.2205   46.9165 H   0  0  0  0  0  0  0  0  0  0  0  0
   62.0494   33.3119   49.1781 H   0  0  0  0  0  0  0  0  0  0  0  0
   62.1518   34.9105   48.3511 H   0  0  0  0  0  0  0  0  0  0  0  0
   61.2443   31.2994   47.1803 H   0  0  0  0  0  0  0  0  0  0  0  0
   59.1410   31.2801   44.3618 H   0  0  0  0  0  0  0  0  0  0  0  0
   59.2350   30.2339   45.8352 H   0  0  0  0  0  0  0  0  0  0  0  0
   57.8761   28.6438   42.3553 H   0  0  0  0  0  0  0  0  0  0  0  0
   58.5761   26.2520   42.4326 H   0  0  0  0  0  0  0  0  0  0  0  0
   58.2393   24.9131   44.5082 H   0  0  0  0  0  0  0  0  0  0  0  0
   60.3824   25.6657   47.9145 H   0  0  0  0  0  0  0  0  0  0  0  0
   59.7135   26.5034   46.4757 H   0  0  0  0  0  0  0  0  0  0  0  0
   58.0469   28.5584   47.1680 H   0  0  0  0  0  0  0  0  0  0  0  0
   58.2327   30.7552   48.3381 H   0  0  0  0  0  0  0  0  0  0  0  0
   61.5511   29.2425   50.6663 H   0  0  0  0  0  0  0  0  0  0  0  0
   61.3660   27.0405   49.5045 H   0  0  0  0  0  0  0  0  0  0  0  0
   56.4824   28.3699   46.4425 H   0  0  0  0  0  0  0  0  0  0  0  0
   57.3558   34.6789   46.2230 H   0  0  0  0  0  0  0  0  0  0  0  0
   58.4263   35.1153   44.8482 H   0  0  0  0  0  0  0  0  0  0  0  0
   57.5610   33.5412   44.8482 H   0  0  0  0  0  0  0  0  0  0  0  0
  1  2  1  0
  2  3  1  0
  3  4  1  0
  4  5  2  0
  5  6  1  0
  6  7  1  0
  7  8  1  0
  8  9  2  0
  8 10  2  0
  8 11  1  0
 11 12  2  0
 12 13  1  0
 13 14  2  0
 14 15  1  0
 15 16  1  0
 16 17  2  0
 16 18  1  0
 18 19  1  0
 19 20  1  0
 20 21  2  0
 21 22  1  0
 22 23  2  0
 23 24  1  0
 23 25  1  0
 25 26  2  0
 15 27  2  0
  5 28  1  0
 28 29  1  0
 28 30  2  0
 30  3  1  0
 27 11  1  0
 26 20  1  0
  1 31  1  0
  1 32  1  0
  1 33  1  0
  2 34  1  0
  2 35  1  0
  4 36  1  0
  6 37  1  0
  6 38  1  0
 12 39  1  0
 13 40  1  0
 14 41  1  0
 19 42  1  0
 19 43  1  0
 21 44  1  0
 22 45  1  0
 25 46  1  0
 26 47  1  0
 27 48  1  0
 29 49  1  0
 29 50  1  0
 29 51  1  0
M  CHG  2   7  -1  18  -1
M  END
>  <UniqueID>  (71) 
65

>  <SMILES>  (71) 
CCn1cc(C[N-]S(=O)(=O)c2cccc(C(=O)[N-]Cc3ccc(F)cc3)c2)c(C)n1

>  <Energy>  (71) 
67.51259752756496

>  <Genealogy>  (71) 
CCn1cc(C[N-]S(=O)(=O)c2cccc(C(=O)[N-]Cc3ccc(F)cc3)c2)c(C)n1 (protonated)
CCn1cc(C[N-]S(=O)(=O)c2cccc(C(=O)[N-]Cc3ccc(F)cc3)c2)c(C)n1 (3D coordinates assigned)
CCn1cc(C[N-]S(=O)(=O)c2cccc(C(=O)[N-]Cc3ccc(F)cc3)c2)c(C)n1 (optimized conformer: 67.51259752756496 kcal/mol)

>  <smiles>  (71) 
CCn1cc(CNS(=O)(=O)c2cccc(C(=O)NCc3ccc(F)cc3)c2)c(C)n1

>  <score_type>  (71) 
oracle

>  <origin>  (71) 
adg

>  <m_score__min__energy>  (71) 
-12.09

>  <m_primary>  (71) 
energy

$$$$
71:0
     RDKit          3D

 40 42  0  0  0  0  0  0  0  0999 V2000
   55.1320   24.8440   47.5770 H   0  0  0  0  0  0  0  0  0  0  0  0
   56.1440   24.8200   47.5230 O   0  0  0  0  0  0  0  0  0  0  0  0
   56.8570   25.7720   46.7970 C   0  0  0  0  0  0  0  0  0  0  0  0
   58.2560   25.7880   46.8280 C   0  0  0  0  0  0  0  0  0  0  0  0
   58.7985   25.0421   47.4275 H   0  0  0  0  0  0  0  0  0  0  0  0
   58.9680   26.7470   46.1010 C   0  0  0  0  0  0  0  0  0  0  0  0
   60.0677   26.7470   46.1271 H   0  0  0  0  0  0  0  0  0  0  0  0
   58.2850   27.7150   45.3340 C   0  0  0  0  0  0  0  0  0  0  0  0
   58.9790   28.7520   44.5300 C   0  0  0  0  0  0  0  0  0  0  0  0
   59.7646   28.4187   43.8359 H   0  0  0  0  0  0  0  0  0  0  0  0
   58.7170   30.0670   44.5890 C   0  0  0  0  0  0  0  0  0  0  0  0
   59.5366   30.7635   44.8195 H   0  0  0  0  0  0  0  0  0  0  0  0
   57.3620   30.6090   44.3540 C   0  0  0  0  0  0  0  0  0  0  0  0
   56.5780   29.9730   43.6020 O   0  0  0  0  0  0  0  0  0  0  0  0
   56.9000   31.8180   44.9710 N   0  0  0  0  0  0  0  0  0  0  0  0
   57.7400   32.8940   45.4140 C   0  0  0  0  0  0  0  0  0  0  0  0
   58.1180   33.8810   44.4960 C   0  0  0  0  0  0  0  0  0  0  0  0
   57.7920   33.8072   43.4480 H   0  0  0  0  0  0  0  0  0  0  0  0
   58.9070   34.9590   44.9040 C   0  0  0  0  0  0  0  0  0  0  0  0
   59.1841   35.7409   44.1816 H   0  0  0  0  0  0  0  0  0  0  0  0
   59.3450   35.0460   46.2280 C   0  0  0  0  0  0  0  0  0  0  0  0
   59.9591   35.9004   46.5488 H   0  0  0  0  0  0  0  0  0  0  0  0
   59.0030   34.0470   47.1460 C   0  0  0  0  0  0  0  0  0  0  0  0
   59.6230   34.1410   48.8280 S   0  0  0  0  0  0  0  0  0  0  0  0
   61.2640   33.5970   48.3640 C   0  0  0  0  0  0  0  0  0  0  0  0
   62.3530   34.2290   48.8780 N   0  0  0  0  0  0  0  0  0  0  0  0
   63.6190   33.8300   48.5790 C   0  0  0  0  0  0  0  0  0  0  0  0
   64.4796   34.3631   49.0093 H   0  0  0  0  0  0  0  0  0  0  0  0
   63.8260   32.7440   47.7260 C   0  0  0  0  0  0  0  0  0  0  0  0
   64.8469   32.4114   47.4869 H   0  0  0  0  0  0  0  0  0  0  0  0
   62.7230   32.0850   47.1800 C   0  0  0  0  0  0  0  0  0  0  0  0
   62.8711   31.2340   46.4989 H   0  0  0  0  0  0  0  0  0  0  0  0
   61.4320   32.5080   47.5000 C   0  0  0  0  0  0  0  0  0  0  0  0
   60.5568   31.9919   47.0784 H   0  0  0  0  0  0  0  0  0  0  0  0
   58.2080   32.9660   46.7410 C   0  0  0  0  0  0  0  0  0  0  0  0
   57.9200   31.9780   47.6280 F   0  0  0  0  0  0  0  0  0  0  0  0
   56.8790   27.6830   45.3060 C   0  0  0  0  0  0  0  0  0  0  0  0
   56.3306   28.4238   44.7056 H   0  0  0  0  0  0  0  0  0  0  0  0
   56.1700   26.7210   46.0320 C   0  0  0  0  0  0  0  0  0  0  0  0
   54.7810   26.7130   45.9940 O   0  0  0  0  0  0  0  0  0  0  0  0
  1  2  1  0
  2  3  1  0
  3  4  2  0
  4  5  1  0
  4  6  1  0
  6  7  1  0
  6  8  2  0
  8  9  1  0
  9 10  1  0
  9 11  2  0
 11 12  1  0
 11 13  1  0
 13 14  2  0
 13 15  1  0
 15 16  1  0
 16 17  2  0
 17 18  1  0
 17 19  1  0
 19 20  1  0
 19 21  2  0
 21 22  1  0
 21 23  1  0
 23 24  1  0
 24 25  1  0
 25 26  2  0
 26 27  1  0
 27 28  1  0
 27 29  2  0
 29 30  1  0
 29 31  1  0
 31 32  1  0
 31 33  2  0
 33 34  1  0
 23 35  2  0
 35 36  1  0
  8 37  1  0
 37 38  1  0
 37 39  2  0
 39 40  1  0
 39  3  1  0
 35 16  1  0
 33 25  1  0
M  CHG  2  15  -1  40  -1
M  END
>  <UniqueID>  (72) 
66

>  <SMILES>  (72) 
O=C(/C=C/c1ccc(O)c([O-])c1)[N-]c1cccc(Sc2ccccn2)c1F

>  <Energy>  (72) 
44.331186331068736

>  <Genealogy>  (72) 
O=C(C=Cc1ccc(O)c([O-])c1)[N-]c1cccc(Sc2ccccn2)c1F (protonated)
O=C(/C=C/c1ccc(O)c([O-])c1)[N-]c1cccc(Sc2ccccn2)c1F (cis-trans isomerization)
O=C(/C=C/c1ccc(O)c([O-])c1)[N-]c1cccc(Sc2ccccn2)c1F (3D coordinates assigned)
O=C(/C=C/c1ccc(O)c([O-])c1)[N-]c1cccc(Sc2ccccn2)c1F (optimized conformer: 44.331186331068736 kcal/mol)

>  <smiles>  (72) 
O=C(C=Cc1ccc(O)c(O)c1)Nc1cccc(Sc2ccccn2)c1F

>  <score_type>  (72) 
oracle

>  <origin>  (72) 
adg

>  <m_score__min__energy>  (72) 
-14.52

>  <m_primary>  (72) 
energy

$$$$
72:0
     RDKit          3D

 48 50  0  0  0  0  0  0  0  0999 V2000
   61.6050   31.4160   48.7850 C   0  0  0  0  0  0  0  0  0  0  0  0
   60.5190   30.4760   47.7360 S   0  0  0  0  0  0  0  0  0  0  0  0
   61.0180   30.5280   46.3200 O   0  0  0  0  0  0  0  0  0  0  0  0
   60.5060   29.0460   48.1990 O   0  0  0  0  0  0  0  0  0  0  0  0
   58.9150   31.1300   47.7960 N   0  0  0  0  0  0  0  0  0  0  0  0
   58.4040   31.9750   46.7610 C   0  0  0  0  0  0  0  0  0  0  0  0
   58.5860   33.3590   46.8740 C   0  0  0  0  0  0  0  0  0  0  0  0
   58.1870   34.2110   45.8420 C   0  0  0  0  0  0  0  0  0  0  0  0
   57.6010   33.6850   44.6890 C   0  0  0  0  0  0  0  0  0  0  0  0
   57.3940   32.3090   44.5750 C   0  0  0  0  0  0  0  0  0  0  0  0
   57.7690   31.4430   45.6150 C   0  0  0  0  0  0  0  0  0  0  0  0
   57.4450   30.0080   45.5000 C   0  0  0  0  0  0  0  0  0  0  0  0
   56.4050   29.6630   44.8770 O   0  0  0  0  0  0  0  0  0  0  0  0
   58.3020   29.0210   46.1020 N   0  0  0  0  0  0  0  0  0  0  0  0
   58.0050   27.6140   46.1600 C   0  0  0  0  0  0  0  0  0  0  0  0
   59.0360   26.7090   46.4460 C   0  0  0  0  0  0  0  0  0  0  0  0
   58.7780   25.3380   46.5260 C   0  0  0  0  0  0  0  0  0  0  0  0
   57.4730   24.8500   46.3510 C   0  0  0  0  0  0  0  0  0  0  0  0
   57.1900   23.3990   46.4210 C   0  0  0  0  0  0  0  0  0  0  0  0
   57.3730   22.7920   47.5110 O   0  0  0  0  0  0  0  0  0  0  0  0
   56.7230   22.6630   45.2730 N   0  0  0  0  0  0  0  0  0  0  0  0
   55.6870   21.6360   45.4200 C   0  0  0  0  0  0  0  0  0  0  0  0
   56.0120   20.4460   44.5110 C   0  0  0  0  0  0  0  0  0  0  0  0
   56.2430   20.8740   43.1820 O   0  0  0  0  0  0  0  0  0  0  0  0
   57.4000   21.6880   43.1340 C   0  0  0  0  0  0  0  0  0  0  0  0
   57.1830   22.9850   43.9190 C   0  0  0  0  0  0  0  0  0  0  0  0
   56.4360   25.7570   46.0750 C   0  0  0  0  0  0  0  0  0  0  0  0
   56.6960   27.1280   45.9950 C   0  0  0  0  0  0  0  0  0  0  0  0
   61.3664   31.2095   49.8388 H   0  0  0  0  0  0  0  0  0  0  0  0
   62.6479   31.1309   48.5825 H   0  0  0  0  0  0  0  0  0  0  0  0
   61.4723   32.4890   48.5825 H   0  0  0  0  0  0  0  0  0  0  0  0
   59.0461   33.7775   47.7813 H   0  0  0  0  0  0  0  0  0  0  0  0
   58.3344   35.2969   45.9375 H   0  0  0  0  0  0  0  0  0  0  0  0
   57.3021   34.3554   43.8697 H   0  0  0  0  0  0  0  0  0  0  0  0
   56.9336   31.9000   43.6635 H   0  0  0  0  0  0  0  0  0  0  0  0
   59.2270   29.3320   46.4720 H   0  0  0  0  0  0  0  0  0  0  0  0
   60.0581   27.0814   46.6091 H   0  0  0  0  0  0  0  0  0  0  0  0
   59.6017   24.6372   46.7272 H   0  0  0  0  0  0  0  0  0  0  0  0
   55.6515   21.2987   46.4664 H   0  0  0  0  0  0  0  0  0  0  0  0
   54.7113   22.0573   45.1362 H   0  0  0  0  0  0  0  0  0  0  0  0
   56.9130   19.9402   44.8882 H   0  0  0  0  0  0  0  0  0  0  0  0
   55.1547   19.7568   44.5143 H   0  0  0  0  0  0  0  0  0  0  0  0
   58.2464   21.1385   43.5717 H   0  0  0  0  0  0  0  0  0  0  0  0
   57.6107   21.9412   42.0845 H   0  0  0  0  0  0  0  0  0  0  0  0
   58.1296   23.5424   43.9758 H   0  0  0  0  0  0  0  0  0  0  0  0
   56.4263   23.6003   43.4103 H   0  0  0  0  0  0  0  0  0  0  0  0
   55.4122   25.3854   45.9208 H   0  0  0  0  0  0  0  0  0  0  0  0
   55.8720   27.8306   45.8019 H   0  0  0  0  0  0  0  0  0  0  0  0
  1  2  1  0
  2  3  2  0
  2  4  2  0
  2  5  1  0
  5  6  1  0
  6  7  2  0
  7  8  1  0
  8  9  2  0
  9 10  1  0
 10 11  2  0
 11 12  1  0
 12 13  2  0
 12 14  1  0
 14 15  1  0
 15 16  2  0
 16 17  1  0
 17 18  2  0
 18 19  1  0
 19 20  2  0
 19 21  1  0
 21 22  1  0
 22 23  1  0
 23 24  1  0
 24 25  1  0
 25 26  1  0
 18 27  1  0
 27 28  2  0
 11  6  1  0
 28 15  1  0
 26 21  1  0
  1 29  1  0
  1 30  1  0
  1 31  1  0
  7 32  1  0
  8 33  1  0
  9 34  1  0
 10 35  1  0
 14 36  1  0
 16 37  1  0
 17 38  1  0
 22 39  1  0
 22 40  1  0
 23 41  1  0
 23 42  1  0
 25 43  1  0
 25 44  1  0
 26 45  1  0
 26 46  1  0
 27 47  1  0
 28 48  1  0
M  CHG  1   5  -1
M  END
>  <UniqueID>  (73) 
67

>  <SMILES>  (73) 
CS(=O)(=O)[N-]c1ccccc1C(=O)Nc1ccc(C(=O)N2CCOCC2)cc1

>  <Energy>  (73) 
68.90967190816946

>  <Genealogy>  (73) 
CS(=O)(=O)[N-]c1ccccc1C(=O)Nc1ccc(C(=O)N2CCOCC2)cc1 (protonated)
CS(=O)(=O)[N-]c1ccccc1C(=O)Nc1ccc(C(=O)N2CCOCC2)cc1 (3D coordinates assigned)
CS(=O)(=O)[N-]c1ccccc1C(=O)Nc1ccc(C(=O)N2CCOCC2)cc1 (nonaromatic ring conformer: 68.90967190816946 kcal/mol)

>  <smiles>  (73) 
CS(=O)(=O)Nc1ccccc1C(=O)Nc1ccc(C(=O)N2CCOCC2)cc1

>  <score_type>  (73) 
oracle

>  <origin>  (73) 
adg

>  <m_score__min__energy>  (73) 
-9.6199999999999992

>  <m_primary>  (73) 
energy

$$$$
73:0
     RDKit          3D

 55 57  0  0  0  0  0  0  0  0999 V2000
   57.3050   23.9360   48.3940 C   0  0  0  0  0  0  0  0  0  0  0  0
   56.9400   22.8400   47.5630 O   0  0  0  0  0  0  0  0  0  0  0  0
   56.8330   22.9000   46.1640 C   0  0  0  0  0  0  0  0  0  0  0  0
   57.1710   21.7970   45.3510 C   0  0  0  0  0  0  0  0  0  0  0  0
   56.9780   21.8510   43.9690 C   0  0  0  0  0  0  0  0  0  0  0  0
   56.4370   22.9940   43.3820 C   0  0  0  0  0  0  0  0  0  0  0  0
   56.1110   24.0970   44.1730 C   0  0  0  0  0  0  0  0  0  0  0  0
   56.3400   24.0760   45.5570 C   0  0  0  0  0  0  0  0  0  0  0  0
   56.0110   25.2480   46.3160 N   0  0  0  0  0  0  0  0  0  0  0  0
   56.8190   26.4240   46.4350 C   0  0  0  0  0  0  0  0  0  0  0  0
   57.4210   26.6870   47.5110 O   0  0  0  0  0  0  0  0  0  0  0  0
   56.9830   27.3320   45.2600 C   0  0  0  0  0  0  0  0  0  0  0  0
   56.4340   28.6520   45.5560 N   0  0  0  0  0  0  0  0  0  0  0  0
   56.6890   29.8640   44.8320 C   0  0  0  0  0  0  0  0  0  0  0  0
   55.7130   30.6060   44.5460 O   0  0  0  0  0  0  0  0  0  0  0  0
   58.0630   30.2390   44.3350 C   0  0  0  0  0  0  0  0  0  0  0  0
   58.7380   31.1570   45.2680 N   0  0  0  0  0  0  0  0  0  0  0  0
   59.9230   30.6810   46.0030 C   0  0  0  0  0  0  0  0  0  0  0  0
   59.5970   30.3200   47.4210 C   0  0  0  0  0  0  0  0  0  0  0  0
   59.6230   29.0520   47.9960 C   0  0  0  0  0  0  0  0  0  0  0  0
   59.1700   29.0340   49.3200 C   0  0  0  0  0  0  0  0  0  0  0  0
   58.7600   30.2760   49.7870 C   0  0  0  0  0  0  0  0  0  0  0  0
   58.9600   31.3950   48.5490 S   0  0  0  0  0  0  0  0  0  0  0  0
   58.2070   32.4900   45.4600 C   0  0  0  0  0  0  0  0  0  0  0  0
   57.0670   32.6420   45.9780 O   0  0  0  0  0  0  0  0  0  0  0  0
   58.9720   33.7180   45.0620 C   0  0  0  0  0  0  0  0  0  0  0  0
   58.9810   34.9200   46.4340 S   0  0  0  0  0  0  0  0  0  0  0  0
   60.4530   34.2410   47.1950 C   0  0  0  0  0  0  0  0  0  0  0  0
   61.5280   33.8320   46.3980 C   0  0  0  0  0  0  0  0  0  0  0  0
   62.6700   33.3110   47.0100 C   0  0  0  0  0  0  0  0  0  0  0  0
   62.7250   33.2050   48.4030 C   0  0  0  0  0  0  0  0  0  0  0  0
   61.6300   33.6230   49.1630 C   0  0  0  0  0  0  0  0  0  0  0  0
   60.5250   34.1250   48.5470 N   0  0  0  0  0  0  0  0  0  0  0  0
   57.2077   23.6438   49.4500 H   0  0  0  0  0  0  0  0  0  0  0  0
   58.3469   24.2219   48.1872 H   0  0  0  0  0  0  0  0  0  0  0  0
   56.6426   24.7895   48.1872 H   0  0  0  0  0  0  0  0  0  0  0  0
   57.5893   20.8886   45.8091 H   0  0  0  0  0  0  0  0  0  0  0  0
   57.2534   20.9900   43.3423 H   0  0  0  0  0  0  0  0  0  0  0  0
   56.2671   23.0266   42.2957 H   0  0  0  0  0  0  0  0  0  0  0  0
   55.6706   24.9908   43.7070 H   0  0  0  0  0  0  0  0  0  0  0  0
   58.0529   27.4292   45.0236 H   0  0  0  0  0  0  0  0  0  0  0  0
   56.4433   26.9055   44.4016 H   0  0  0  0  0  0  0  0  0  0  0  0
   58.6676   29.3260   44.2304 H   0  0  0  0  0  0  0  0  0  0  0  0
   57.9545   30.7474   43.3656 H   0  0  0  0  0  0  0  0  0  0  0  0
   60.3236   29.7923   45.4934 H   0  0  0  0  0  0  0  0  0  0  0  0
   60.6615   31.4961   46.0212 H   0  0  0  0  0  0  0  0  0  0  0  0
   59.9657   28.1533   47.4623 H   0  0  0  0  0  0  0  0  0  0  0  0
   59.1414   28.1214   49.9335 H   0  0  0  0  0  0  0  0  0  0  0  0
   58.3714   30.4904   50.7935 H   0  0  0  0  0  0  0  0  0  0  0  0
   60.0070   33.4385   44.8159 H   0  0  0  0  0  0  0  0  0  0  0  0
   58.4902   34.1749   44.1850 H   0  0  0  0  0  0  0  0  0  0  0  0
   61.4742   33.9198   45.3028 H   0  0  0  0  0  0  0  0  0  0  0  0
   63.5238   32.9850   46.3979 H   0  0  0  0  0  0  0  0  0  0  0  0
   63.6203   32.7971   48.8949 H   0  0  0  0  0  0  0  0  0  0  0  0
   61.6608   33.5464   50.2599 H   0  0  0  0  0  0  0  0  0  0  0  0
  1  2  1  0
  2  3  1  0
  3  4  2  0
  4  5  1  0
  5  6  2  0
  6  7  1  0
  7  8  2  0
  8  9  1  0
  9 10  1  0
 10 11  2  0
 10 12  1  0
 12 13  1  0
 13 14  1  0
 14 15  2  0
 14 16  1  0
 16 17  1  0
 17 18  1  0
 18 19  1  0
 19 20  2  0
 20 21  1  0
 21 22  2  0
 22 23  1  0
 17 24  1  0
 24 25  2  0
 24 26  1  0
 26 27  1  0
 27 28  1  0
 28 29  2  0
 29 30  1  0
 30 31  2  0
 31 32  1  0
 32 33  2  0
  8  3  1  0
 23 19  1  0
 33 28  1  0
  1 34  1  0
  1 35  1  0
  1 36  1  0
  4 37  1  0
  5 38  1  0
  6 39  1  0
  7 40  1  0
 12 41  1  0
 12 42  1  0
 16 43  1  0
 16 44  1  0
 18 45  1  0
 18 46  1  0
 20 47  1  0
 21 48  1  0
 22 49  1  0
 26 50  1  0
 26 51  1  0
 29 52  1  0
 30 53  1  0
 31 54  1  0
 32 55  1  0
M  CHG  2   9  -1  13  -1
M  END
>  <UniqueID>  (74) 
68

>  <SMILES>  (74) 
COc1ccccc1[N-]C(=O)C[N-]C(=O)CN(Cc1cccs1)C(=O)CSc1ccccn1

>  <Energy>  (74) 
77.56530654302392

>  <Genealogy>  (74) 
COc1ccccc1[N-]C(=O)C[N-]C(=O)CN(Cc1cccs1)C(=O)CSc1ccccn1 (protonated)
COc1ccccc1[N-]C(=O)C[N-]C(=O)CN(Cc1cccs1)C(=O)CSc1ccccn1 (3D coordinates assigned)
COc1ccccc1[N-]C(=O)C[N-]C(=O)CN(Cc1cccs1)C(=O)CSc1ccccn1 (optimized conformer: 77.56530654302392 kcal/mol)

>  <smiles>  (74) 
COc1ccccc1NC(=O)CNC(=O)CN(Cc1cccs1)C(=O)CSc1ccccn1

>  <score_type>  (74) 
oracle

>  <origin>  (74) 
adg

>  <m_score__min__energy>  (74) 
-12.57

>  <m_primary>  (74) 
energy

$$$$
74:0
     RDKit          3D

 39 40  0  0  0  0  0  0  0  0999 V2000
   54.7550   26.3340   45.9970 O   0  0  0  0  0  0  0  0  0  0  0  0
   55.9220   25.8780   46.1240 C   0  0  0  0  0  0  0  0  0  0  0  0
   56.9590   26.3610   45.2670 N   0  0  0  0  0  0  0  0  0  0  0  0
   57.6700   27.6190   45.4740 C   0  0  0  0  0  0  0  0  0  0  0  0
   57.6760   28.4710   44.2010 C   0  0  0  0  0  0  0  0  0  0  0  0
   56.4680   29.7930   44.2330 S   0  0  0  0  0  0  0  0  0  0  0  0
   55.1680   29.2530   44.7630 O   0  0  0  0  0  0  0  0  0  0  0  0
   56.2380   30.2910   42.8340 O   0  0  0  0  0  0  0  0  0  0  0  0
   56.9950   31.1200   45.2240 N   0  0  0  0  0  0  0  0  0  0  0  0
   57.3980   32.2730   44.4170 C   0  0  0  0  0  0  0  0  0  0  0  0
   58.1200   33.2660   45.2700 C   0  0  0  0  0  0  0  0  0  0  0  0
   59.0500   34.1940   44.8240 C   0  0  0  0  0  0  0  0  0  0  0  0
   59.5720   34.9880   45.8500 C   0  0  0  0  0  0  0  0  0  0  0  0
   59.0500   34.6930   47.1030 C   0  0  0  0  0  0  0  0  0  0  0  0
   57.9390   33.4420   46.9330 S   0  0  0  0  0  0  0  0  0  0  0  0
   56.2030   24.8860   47.1150 N   0  0  0  0  0  0  0  0  0  0  0  0
   55.8760   23.4780   46.9450 C   0  0  0  0  0  0  0  0  0  0  0  0
   56.2740   23.0410   45.5660 C   0  0  0  0  0  0  0  0  0  0  0  0
   57.4320   22.2690   45.3760 C   0  0  0  0  0  0  0  0  0  0  0  0
   57.7780   21.8210   44.0970 C   0  0  0  0  0  0  0  0  0  0  0  0
   56.9680   22.1350   43.0020 C   0  0  0  0  0  0  0  0  0  0  0  0
   55.8070   22.8920   43.1850 C   0  0  0  0  0  0  0  0  0  0  0  0
   55.4560   23.3380   44.4630 C   0  0  0  0  0  0  0  0  0  0  0  0
   57.1755   28.1817   46.2795 H   0  0  0  0  0  0  0  0  0  0  0  0
   58.7116   27.3890   45.7427 H   0  0  0  0  0  0  0  0  0  0  0  0
   58.6759   28.9135   44.0809 H   0  0  0  0  0  0  0  0  0  0  0  0
   57.4146   27.8088   43.3625 H   0  0  0  0  0  0  0  0  0  0  0  0
   58.0624   31.9368   43.6074 H   0  0  0  0  0  0  0  0  0  0  0  0
   56.5014   32.7469   43.9908 H   0  0  0  0  0  0  0  0  0  0  0  0
   59.3468   34.2950   43.7696 H   0  0  0  0  0  0  0  0  0  0  0  0
   60.3248   35.7720   45.6808 H   0  0  0  0  0  0  0  0  0  0  0  0
   59.3177   35.1925   48.0458 H   0  0  0  0  0  0  0  0  0  0  0  0
   56.4208   22.8813   47.6914 H   0  0  0  0  0  0  0  0  0  0  0  0
   54.7943   23.3313   47.0809 H   0  0  0  0  0  0  0  0  0  0  0  0
   58.0691   22.0158   46.2363 H   0  0  0  0  0  0  0  0  0  0  0  0
   58.6885   21.2209   43.9527 H   0  0  0  0  0  0  0  0  0  0  0  0
   57.2441   21.7864   41.9959 H   0  0  0  0  0  0  0  0  0  0  0  0
   55.1691   23.1370   42.3230 H   0  0  0  0  0  0  0  0  0  0  0  0
   54.5358   23.9237   44.6053 H   0  0  0  0  0  0  0  0  0  0  0  0
  1  2  2  0
  2  3  1  0
  3  4  1  0
  4  5  1  0
  5  6  1  0
  6  7  2  0
  6  8  2  0
  6  9  1  0
  9 10  1  0
 10 11  1  0
 11 12  2  0
 12 13  1  0
 13 14  2  0
 14 15  1  0
  2 16  1  0
 16 17  1  0
 17 18  1  0
 18 19  2  0
 19 20  1  0
 20 21  2  0
 21 22  1  0
 22 23  2  0
 15 11  1  0
 23 18  1  0
  4 24  1  0
  4 25  1  0
  5 26  1  0
  5 27  1  0
 10 28  1  0
 10 29  1  0
 12 30  1  0
 13 31  1  0
 14 32  1  0
 17 33  1  0
 17 34  1  0
 19 35  1  0
 20 36  1  0
 21 37  1  0
 22 38  1  0
 23 39  1  0
M  CHG  3   3  -1   9  -1  16  -1
M  END
>  <UniqueID>  (75) 
69

>  <SMILES>  (75) 
O=C([N-]CCS(=O)(=O)[N-]Cc1cccs1)[N-]Cc1ccccc1

>  <Energy>  (75) 
49.26847119692268

>  <Genealogy>  (75) 
O=C([N-]CCS(=O)(=O)[N-]Cc1cccs1)[N-]Cc1ccccc1 (protonated)
O=C([N-]CCS(=O)(=O)[N-]Cc1cccs1)[N-]Cc1ccccc1 (3D coordinates assigned)
O=C([N-]CCS(=O)(=O)[N-]Cc1cccs1)[N-]Cc1ccccc1 (optimized conformer: 49.26847119692268 kcal/mol)

>  <smiles>  (75) 
O=C(NCCS(=O)(=O)NCc1cccs1)NCc1ccccc1

>  <score_type>  (75) 
oracle

>  <origin>  (75) 
adg

>  <m_score__min__energy>  (75) 
-14.06

>  <m_primary>  (75) 
energy

$$$$
75:0
     RDKit          3D

 52 55  0  0  0  0  0  0  0  0999 V2000
   55.1460   29.3280   44.8150 N   0  0  0  0  0  0  0  0  0  0  0  0
   56.8570   29.5610   44.9180 S   0  0  0  0  0  0  0  0  0  0  0  0
   57.4060   29.6110   43.5200 O   0  0  0  0  0  0  0  0  0  0  0  0
   57.1350   30.8630   45.6130 O   0  0  0  0  0  0  0  0  0  0  0  0
   57.6120   28.2320   45.8140 C   0  0  0  0  0  0  0  0  0  0  0  0
   57.1680   26.9180   45.5850 C   0  0  0  0  0  0  0  0  0  0  0  0
   57.7690   25.8390   46.2370 C   0  0  0  0  0  0  0  0  0  0  0  0
   58.8220   26.0570   47.1240 C   0  0  0  0  0  0  0  0  0  0  0  0
   59.2710   27.3550   47.3710 C   0  0  0  0  0  0  0  0  0  0  0  0
   58.6680   28.4520   46.7350 C   0  0  0  0  0  0  0  0  0  0  0  0
   59.1630   29.8060   47.0530 C   0  0  0  0  0  0  0  0  0  0  0  0
   59.8900   30.5380   46.1030 C   0  0  0  0  0  0  0  0  0  0  0  0
   60.3480   31.8240   46.4040 C   0  0  0  0  0  0  0  0  0  0  0  0
   60.0820   32.3950   47.6580 C   0  0  0  0  0  0  0  0  0  0  0  0
   60.5450   33.7940   47.9630 C   0  0  0  0  0  0  0  0  0  0  0  0
   61.8290   33.7570   48.6710 N   0  0  0  0  0  0  0  0  0  0  0  0
   61.8310   33.9870   49.9870 N   0  0  0  0  0  0  0  0  0  0  0  0
   62.9680   33.9460   50.7280 C   0  0  0  0  0  0  0  0  0  0  0  0
   64.1890   33.6480   50.1130 C   0  0  0  0  0  0  0  0  0  0  0  0
   65.4060   33.5790   50.8810 N   0  0  0  0  0  0  0  0  0  0  0  0
   66.4990   32.6800   50.4940 C   0  0  0  0  0  0  0  0  0  0  0  0
   67.8360   33.4450   50.4360 C   0  0  0  0  0  0  0  0  0  0  0  0
   67.8930   34.6190   51.3300 N   0  0  0  0  0  0  0  0  0  0  0  0
   67.0350   34.4690   52.5130 C   0  0  0  0  0  0  0  0  0  0  0  0
   65.5590   34.3870   52.0980 C   0  0  0  0  0  0  0  0  0  0  0  0
   64.1900   33.3850   48.7390 C   0  0  0  0  0  0  0  0  0  0  0  0
   62.9940   33.4440   48.0230 C   0  0  0  0  0  0  0  0  0  0  0  0
   63.0030   33.2060   46.7840 O   0  0  0  0  0  0  0  0  0  0  0  0
   59.3330   31.6710   48.5990 C   0  0  0  0  0  0  0  0  0  0  0  0
   58.8750   30.3860   48.2990 C   0  0  0  0  0  0  0  0  0  0  0  0
   54.6950   30.0990   45.3560 H   0  0  0  0  0  0  0  0  0  0  0  0
   56.3387   26.7378   44.8851 H   0  0  0  0  0  0  0  0  0  0  0  0
   57.4109   24.8158   46.0503 H   0  0  0  0  0  0  0  0  0  0  0  0
   59.2996   25.2049   47.6298 H   0  0  0  0  0  0  0  0  0  0  0  0
   60.1043   27.5201   48.0698 H   0  0  0  0  0  0  0  0  0  0  0  0
   60.1007   30.0984   45.1169 H   0  0  0  0  0  0  0  0  0  0  0  0
   60.9195   32.3910   45.6544 H   0  0  0  0  0  0  0  0  0  0  0  0
   60.6644   34.3510   47.0220 H   0  0  0  0  0  0  0  0  0  0  0  0
   59.7972   34.2900   48.5993 H   0  0  0  0  0  0  0  0  0  0  0  0
   62.9294   34.1465   51.8089 H   0  0  0  0  0  0  0  0  0  0  0  0
   66.5785   31.8687   51.2326 H   0  0  0  0  0  0  0  0  0  0  0  0
   66.2829   32.2676   49.4974 H   0  0  0  0  0  0  0  0  0  0  0  0
   68.6431   32.7538   50.7202 H   0  0  0  0  0  0  0  0  0  0  0  0
   67.9443   33.8210   49.4080 H   0  0  0  0  0  0  0  0  0  0  0  0
   67.5780   35.4650   50.7990 H   0  0  0  0  0  0  0  0  0  0  0  0
   67.3127   33.5486   53.0476 H   0  0  0  0  0  0  0  0  0  0  0  0
   67.1734   35.3428   53.1667 H   0  0  0  0  0  0  0  0  0  0  0  0
   64.9800   33.9267   52.9122 H   0  0  0  0  0  0  0  0  0  0  0  0
   65.1914   35.4039   51.8959 H   0  0  0  0  0  0  0  0  0  0  0  0
   65.1295   33.1328   48.2254 H   0  0  0  0  0  0  0  0  0  0  0  0
   59.1055   32.1181   49.5780 H   0  0  0  0  0  0  0  0  0  0  0  0
   58.2868   29.8265   49.0413 H   0  0  0  0  0  0  0  0  0  0  0  0
  1  2  1  0
  2  3  2  0
  2  4  2  0
  2  5  1  0
  5  6  2  0
  6  7  1  0
  7  8  2  0
  8  9  1  0
  9 10  2  0
 10 11  1  0
 11 12  2  0
 12 13  1  0
 13 14  2  0
 14 15  1  0
 15 16  1  0
 16 17  1  0
 17 18  2  0
 18 19  1  0
 19 20  1  0
 20 21  1  0
 21 22  1  0
 22 23  1  0
 23 24  1  0
 24 25  1  0
 19 26  2  0
 26 27  1  0
 27 28  2  0
 14 29  1  0
 29 30  2  0
 10  5  1  0
 30 11  1  0
 27 16  1  0
 25 20  1  0
  1 31  1  0
  6 32  1  0
  7 33  1  0
  8 34  1  0
  9 35  1  0
 12 36  1  0
 13 37  1  0
 15 38  1  0
 15 39  1  0
 18 40  1  0
 21 41  1  0
 21 42  1  0
 22 43  1  0
 22 44  1  0
 23 45  1  0
 24 46  1  0
 24 47  1  0
 25 48  1  0
 25 49  1  0
 26 50  1  0
 29 51  1  0
 30 52  1  0
M  CHG  1   1  -1
M  END
>  <UniqueID>  (76) 
70

>  <SMILES>  (76) 
[NH-]S(=O)(=O)c1ccccc1-c1ccc(Cn2ncc(N3CCNCC3)cc2=O)cc1

>  <Energy>  (76) 
73.25339958157971

>  <Genealogy>  (76) 
[NH-]S(=O)(=O)c1ccccc1-c1ccc(Cn2ncc(N3CCNCC3)cc2=O)cc1 (protonated)
[NH-]S(=O)(=O)c1ccccc1-c1ccc(Cn2ncc(N3CCNCC3)cc2=O)cc1 (3D coordinates assigned)
[NH-]S(=O)(=O)c1ccccc1-c1ccc(Cn2ncc(N3CCNCC3)cc2=O)cc1 (nonaromatic ring conformer: 73.25339958157971 kcal/mol)

>  <smiles>  (76) 
NS(=O)(=O)c1ccccc1-c1ccc(Cn2ncc(N3CCNCC3)cc2=O)cc1

>  <score_type>  (76) 
oracle

>  <origin>  (76) 
adg

>  <m_score__min__energy>  (76) 
-11.23

>  <m_primary>  (76) 
energy

$$$$
76:0
     RDKit          3D

 63 65  0  0  0  0  0  0  0  0999 V2000
   60.9392   29.0608   49.0051 H   0  0  0  0  0  0  0  0  0  0  0  0
   60.5290   28.9550   47.9900 C   0  0  0  0  0  0  0  0  0  0  0  0
   60.4020   30.1810   47.1780 C   0  0  0  0  0  0  0  0  0  0  0  0
   61.3130   30.5090   46.3690 O   0  0  0  0  0  0  0  0  0  0  0  0
   59.2210   30.9850   47.3040 N   0  0  0  0  0  0  0  0  0  0  0  0
   58.5540   30.7670   48.0770 H   0  0  0  0  0  0  0  0  0  0  0  0
   59.0300   32.2010   46.5670 C   0  0  0  0  0  0  0  0  0  0  0  0
   58.1650   32.2250   45.4600 C   0  0  0  0  0  0  0  0  0  0  0  0
   57.6766   31.2973   45.1270 H   0  0  0  0  0  0  0  0  0  0  0  0
   57.9220   33.4210   44.7800 C   0  0  0  0  0  0  0  0  0  0  0  0
   57.2486   33.4312   43.9103 H   0  0  0  0  0  0  0  0  0  0  0  0
   58.5330   34.6040   45.2030 C   0  0  0  0  0  0  0  0  0  0  0  0
   58.3356   35.5456   44.6698 H   0  0  0  0  0  0  0  0  0  0  0  0
   59.3940   34.5920   46.3020 C   0  0  0  0  0  0  0  0  0  0  0  0
   59.8730   35.5261   46.6308 H   0  0  0  0  0  0  0  0  0  0  0  0
   59.6530   33.3950   46.9910 C   0  0  0  0  0  0  0  0  0  0  0  0
   60.5910   33.3920   48.0800 N   0  0  0  0  0  0  0  0  0  0  0  0
   60.1530   33.0030   49.4260 C   0  0  0  0  0  0  0  0  0  0  0  0
   60.0274   33.9053   50.0425 H   0  0  0  0  0  0  0  0  0  0  0  0
   59.1969   32.4641   49.3514 H   0  0  0  0  0  0  0  0  0  0  0  0
   61.1960   32.0860   50.0760 C   0  0  0  0  0  0  0  0  0  0  0  0
   60.9872   32.0197   51.1540 H   0  0  0  0  0  0  0  0  0  0  0  0
   61.1265   31.0996   49.5942 H   0  0  0  0  0  0  0  0  0  0  0  0
   62.5700   32.5870   49.8880 N   0  0  0  0  0  0  0  0  0  0  0  0
   63.6490   31.8790   50.5430 C   0  0  0  0  0  0  0  0  0  0  0  0
   63.3790   31.1040   51.5040 O   0  0  0  0  0  0  0  0  0  0  0  0
   65.0990   32.0440   50.1330 C   0  0  0  0  0  0  0  0  0  0  0  0
   65.1709   31.8605   49.0508 H   0  0  0  0  0  0  0  0  0  0  0  0
   65.9990   31.0240   50.8460 C   0  0  0  0  0  0  0  0  0  0  0  0
   65.8953   31.1415   51.9348 H   0  0  0  0  0  0  0  0  0  0  0  0
   65.6997   30.0057   50.5569 H   0  0  0  0  0  0  0  0  0  0  0  0
   67.0466   31.1942   50.5569 H   0  0  0  0  0  0  0  0  0  0  0  0
   65.5720   33.4700   50.4330 C   0  0  0  0  0  0  0  0  0  0  0  0
   65.6213   33.6185   51.5218 H   0  0  0  0  0  0  0  0  0  0  0  0
   66.5696   33.6249   49.9963 H   0  0  0  0  0  0  0  0  0  0  0  0
   64.8647   34.1904   49.9963 H   0  0  0  0  0  0  0  0  0  0  0  0
   62.7770   33.8460   49.1500 C   0  0  0  0  0  0  0  0  0  0  0  0
   62.4430   34.6912   49.7698 H   0  0  0  0  0  0  0  0  0  0  0  0
   63.8459   33.9566   48.9152 H   0  0  0  0  0  0  0  0  0  0  0  0
   61.9740   33.8240   47.8460 C   0  0  0  0  0  0  0  0  0  0  0  0
   61.9654   34.8352   47.4131 H   0  0  0  0  0  0  0  0  0  0  0  0
   62.4493   33.1104   47.1569 H   0  0  0  0  0  0  0  0  0  0  0  0
   60.1840   27.7210   47.5890 C   0  0  0  0  0  0  0  0  0  0  0  0
   60.9746   26.9565   47.5683 H   0  0  0  0  0  0  0  0  0  0  0  0
   58.8270   27.3070   47.1730 C   0  0  0  0  0  0  0  0  0  0  0  0
   58.3910   26.0110   47.4690 C   0  0  0  0  0  0  0  0  0  0  0  0
   59.0449   25.3294   48.0328 H   0  0  0  0  0  0  0  0  0  0  0  0
   57.1310   25.5780   47.0530 C   0  0  0  0  0  0  0  0  0  0  0  0
   56.7920   24.5624   47.3054 H   0  0  0  0  0  0  0  0  0  0  0  0
   56.2910   26.4310   46.3130 C   0  0  0  0  0  0  0  0  0  0  0  0
   55.0150   26.0320   45.8850 O   0  0  0  0  0  0  0  0  0  0  0  0
   54.6390   24.6850   45.6170 C   0  0  0  0  0  0  0  0  0  0  0  0
   54.4897   24.1501   46.5665 H   0  0  0  0  0  0  0  0  0  0  0  0
   53.7033   24.6736   45.0387 H   0  0  0  0  0  0  0  0  0  0  0  0
   55.4335   24.1907   45.0387 H   0  0  0  0  0  0  0  0  0  0  0  0
   56.7310   27.7230   45.9840 C   0  0  0  0  0  0  0  0  0  0  0  0
   55.8770   28.5480   45.2370 O   0  0  0  0  0  0  0  0  0  0  0  0
   56.3160   29.4890   44.2620 C   0  0  0  0  0  0  0  0  0  0  0  0
   56.7291   30.3746   44.7671 H   0  0  0  0  0  0  0  0  0  0  0  0
   57.0929   29.0298   43.6330 H   0  0  0  0  0  0  0  0  0  0  0  0
   55.4650   29.7893   43.6330 H   0  0  0  0  0  0  0  0  0  0  0  0
   58.0040   28.1520   46.4070 C   0  0  0  0  0  0  0  0  0  0  0  0
   58.3580   29.1575   46.1357 H   0  0  0  0  0  0  0  0  0  0  0  0
  1  2  1  0
  2  3  1  0
  3  4  2  0
  3  5  1  0
  5  6  1  0
  5  7  1  0
  7  8  2  0
  8  9  1  0
  8 10  1  0
 10 11  1  0
 10 12  2  0
 12 13  1  0
 12 14  1  0
 14 15  1  0
 14 16  2  0
 16 17  1  0
 17 18  1  0
 18 19  1  0
 18 20  1  0
 18 21  1  0
 21 22  1  0
 21 23  1  0
 21 24  1  0
 24 25  1  0
 25 26  2  0
 25 27  1  0
 27 28  1  0
 27 29  1  0
 29 30  1  0
 29 31  1  0
 29 32  1  0
 27 33  1  0
 33 34  1  0
 33 35  1  0
 33 36  1  0
 24 37  1  0
 37 38  1  0
 37 39  1  0
 37 40  1  0
 40 41  1  0
 40 42  1  0
  2 43  2  0
 43 44  1  0
 43 45  1  0
 45 46  2  0
 46 47  1  0
 46 48  1  0
 48 49  1  0
 48 50  2  0
 50 51  1  0
 51 52  1  0
 52 53  1  0
 52 54  1  0
 52 55  1  0
 50 56  1  0
 56 57  1  0
 57 58  1  0
 58 59  1  0
 58 60  1  0
 58 61  1  0
 56 62  2  0
 62 63  1  0
 16  7  1  0
 40 17  1  0
 62 45  1  0
M  END
>  <UniqueID>  (77) 
71

>  <SMILES>  (77) 
COc1ccc(/C=C\C(=O)Nc2ccccc2N2CCN(C(=O)C(C)C)CC2)cc1OC

>  <Energy>  (77) 
75.05026115262375

>  <Genealogy>  (77) 
COc1ccc(/C=C\C(=O)Nc2ccccc2N2CCN(C(=O)C(C)C)CC2)cc1OC (cis-trans isomerization)
COc1ccc(/C=C\C(=O)Nc2ccccc2N2CCN(C(=O)C(C)C)CC2)cc1OC (3D coordinates assigned)
COc1ccc(/C=C\C(=O)Nc2ccccc2N2CCN(C(=O)C(C)C)CC2)cc1OC (nonaromatic ring conformer: 75.05026115262375 kcal/mol)

>  <smiles>  (77) 
COc1ccc(C=CC(=O)Nc2ccccc2N2CCN(C(=O)C(C)C)CC2)cc1OC

>  <score_type>  (77) 
oracle

>  <origin>  (77) 
adg

>  <m_score__min__energy>  (77) 
-8.8800000000000008

>  <m_primary>  (77) 
energy

$$$$
77:0
     RDKit          3D

 28 29  0  0  0  0  0  0  0  0999 V2000
   59.2480   34.6470   47.8970 O   0  0  0  0  0  0  0  0  0  0  0  0
   59.0290   33.8450   46.9490 C   0  0  0  0  0  0  0  0  0  0  0  0
   57.6960   33.8590   46.2670 C   0  0  0  0  0  0  0  0  0  0  0  0
   57.8740   33.4680   44.4930 S   0  0  0  0  0  0  0  0  0  0  0  0
   57.6970   31.6990   44.7110 C   0  0  0  0  0  0  0  0  0  0  0  0
   56.4610   31.1340   44.6890 N   0  0  0  0  0  0  0  0  0  0  0  0
   56.3050   29.7940   44.8490 C   0  0  0  0  0  0  0  0  0  0  0  0
   55.1520   29.2890   44.8240 O   0  0  0  0  0  0  0  0  0  0  0  0
   57.4240   28.9810   45.0410 C   0  0  0  0  0  0  0  0  0  0  0  0
   58.6830   29.5810   45.0650 C   0  0  0  0  0  0  0  0  0  0  0  0
   58.7980   30.9240   44.9000 N   0  0  0  0  0  0  0  0  0  0  0  0
   60.0190   32.8790   46.5660 N   0  0  0  0  0  0  0  0  0  0  0  0
   61.3440   32.8440   47.1190 C   0  0  0  0  0  0  0  0  0  0  0  0
   62.2690   33.8310   46.7460 C   0  0  0  0  0  0  0  0  0  0  0  0
   63.5610   33.8260   47.2790 C   0  0  0  0  0  0  0  0  0  0  0  0
   63.9350   32.8450   48.2000 C   0  0  0  0  0  0  0  0  0  0  0  0
   63.0130   31.8730   48.5980 C   0  0  0  0  0  0  0  0  0  0  0  0
   61.7180   31.8720   48.0680 C   0  0  0  0  0  0  0  0  0  0  0  0
   60.8230   30.9570   48.5170 F   0  0  0  0  0  0  0  0  0  0  0  0
   57.0418   33.1104   46.7378 H   0  0  0  0  0  0  0  0  0  0  0  0
   57.2593   34.8638   46.3653 H   0  0  0  0  0  0  0  0  0  0  0  0
   57.3153   27.8940   45.1702 H   0  0  0  0  0  0  0  0  0  0  0  0
   59.5825   28.9664   45.2175 H   0  0  0  0  0  0  0  0  0  0  0  0
   59.7150   32.0760   45.9700 H   0  0  0  0  0  0  0  0  0  0  0  0
   61.9757   34.6130   46.0301 H   0  0  0  0  0  0  0  0  0  0  0  0
   64.2844   34.5959   46.9726 H   0  0  0  0  0  0  0  0  0  0  0  0
   64.9549   32.8374   48.6120 H   0  0  0  0  0  0  0  0  0  0  0  0
   63.3063   31.1063   49.3302 H   0  0  0  0  0  0  0  0  0  0  0  0
  1  2  2  0
  2  3  1  0
  3  4  1  0
  4  5  1  0
  5  6  2  0
  6  7  1  0
  7  8  2  0
  7  9  1  0
  9 10  2  0
 10 11  1  0
  2 12  1  0
 12 13  1  0
 13 14  2  0
 14 15  1  0
 15 16  2  0
 16 17  1  0
 17 18  2  0
 18 19  1  0
 11  5  1  0
 18 13  1  0
  3 20  1  0
  3 21  1  0
  9 22  1  0
 10 23  1  0
 12 24  1  0
 14 25  1  0
 15 26  1  0
 16 27  1  0
 17 28  1  0
M  CHG  1  11  -1
M  END
>  <UniqueID>  (78) 
72

>  <SMILES>  (78) 
O=C(CSc1nc(=O)cc[n-]1)Nc1ccccc1F

>  <Energy>  (78) 
29.345184660698532

>  <Genealogy>  (78) 
O=C(CSc1nc(=O)cc[n-]1)Nc1ccccc1F (protonated)
O=C(CSc1nc(=O)cc[n-]1)Nc1ccccc1F (3D coordinates assigned)
O=C(CSc1nc(=O)cc[n-]1)Nc1ccccc1F (optimized conformer: 29.345184660698532 kcal/mol)

>  <smiles>  (78) 
O=C(CSc1nc(=O)cc[nH]1)Nc1ccccc1F

>  <score_type>  (78) 
oracle

>  <origin>  (78) 
adg

>  <m_score__min__energy>  (78) 
-8.3300000000000001

>  <m_primary>  (78) 
energy

$$$$
78:0
     RDKit          3D

 63 65  0  0  0  0  0  0  0  0999 V2000
   59.3774   34.9604   48.3792 H   0  0  0  0  0  0  0  0  0  0  0  0
   59.9260   34.1000   48.7900 C   0  0  0  0  0  0  0  0  0  0  0  0
   59.3490   33.3880   49.7640 C   0  0  0  0  0  0  0  0  0  0  0  0
   59.6051   33.5956   50.8134 H   0  0  0  0  0  0  0  0  0  0  0  0
   58.3570   32.3100   49.4430 C   0  0  0  0  0  0  0  0  0  0  0  0
   58.8725   31.4833   48.9323 H   0  0  0  0  0  0  0  0  0  0  0  0
   57.5747   32.7270   48.7918 H   0  0  0  0  0  0  0  0  0  0  0  0
   57.7520   31.8200   50.6380 O   0  0  0  0  0  0  0  0  0  0  0  0
   58.1490   30.6360   51.2690 C   0  0  0  0  0  0  0  0  0  0  0  0
   57.2950   29.7810   51.6320 O   0  0  0  0  0  0  0  0  0  0  0  0
   59.6040   30.3810   51.5050 C   0  0  0  0  0  0  0  0  0  0  0  0
   59.8780   30.7402   52.5080 H   0  0  0  0  0  0  0  0  0  0  0  0
   60.1906   30.9143   50.7424 H   0  0  0  0  0  0  0  0  0  0  0  0
   59.8880   28.9430   51.4100 N   0  0  0  0  0  0  0  0  0  0  0  0
   58.9840   28.4520   51.2120 H   0  0  0  0  0  0  0  0  0  0  0  0
   60.8340   28.6250   50.3250 C   0  0  0  0  0  0  0  0  0  0  0  0
   60.9322   27.5335   50.2300 H   0  0  0  0  0  0  0  0  0  0  0  0
   61.8189   29.0586   50.5529 H   0  0  0  0  0  0  0  0  0  0  0  0
   60.3150   29.1970   49.0380 C   0  0  0  0  0  0  0  0  0  0  0  0
   61.0780   30.1290   48.3200 C   0  0  0  0  0  0  0  0  0  0  0  0
   62.0831   30.4025   48.6736 H   0  0  0  0  0  0  0  0  0  0  0  0
   60.5670   30.7120   47.1570 C   0  0  0  0  0  0  0  0  0  0  0  0
   61.1815   31.4227   46.5849 H   0  0  0  0  0  0  0  0  0  0  0  0
   59.2720   30.3940   46.7160 C   0  0  0  0  0  0  0  0  0  0  0  0
   58.7100   31.0320   45.5070 C   0  0  0  0  0  0  0  0  0  0  0  0
   58.8680   32.4210   45.3550 C   0  0  0  0  0  0  0  0  0  0  0  0
   59.4068   32.9949   46.1233 H   0  0  0  0  0  0  0  0  0  0  0  0
   58.3480   33.0790   44.2390 C   0  0  0  0  0  0  0  0  0  0  0  0
   58.4796   34.1657   44.1305 H   0  0  0  0  0  0  0  0  0  0  0  0
   57.6620   32.3590   43.2620 C   0  0  0  0  0  0  0  0  0  0  0  0
   57.2431   32.8799   42.3884 H   0  0  0  0  0  0  0  0  0  0  0  0
   57.5060   30.9780   43.3910 C   0  0  0  0  0  0  0  0  0  0  0  0
   56.9590   30.4185   42.6179 H   0  0  0  0  0  0  0  0  0  0  0  0
   58.0390   30.2940   44.4960 C   0  0  0  0  0  0  0  0  0  0  0  0
   57.8930   28.5280   44.5350 S   0  0  0  0  0  0  0  0  0  0  0  0
   57.6880   27.9820   43.1490 O   0  0  0  0  0  0  0  0  0  0  0  0
   59.1440   27.9320   45.1140 O   0  0  0  0  0  0  0  0  0  0  0  0
   56.5480   28.0810   45.5360 N   0  0  0  0  0  0  0  0  0  0  0  0
   56.2710   26.7500   45.9800 C   0  0  0  0  0  0  0  0  0  0  0  0
   55.0760   26.3530   46.0030 O   0  0  0  0  0  0  0  0  0  0  0  0
   57.3040   25.9030   46.3930 O   0  0  0  0  0  0  0  0  0  0  0  0
   58.0970   25.1570   45.4740 C   0  0  0  0  0  0  0  0  0  0  0  0
   58.3556   24.1855   45.9205 H   0  0  0  0  0  0  0  0  0  0  0  0
   59.0151   25.7195   45.2488 H   0  0  0  0  0  0  0  0  0  0  0  0
   57.3210   24.9290   44.1850 C   0  0  0  0  0  0  0  0  0  0  0  0
   56.2912   24.6264   44.4256 H   0  0  0  0  0  0  0  0  0  0  0  0
   57.3023   25.8596   43.5988 H   0  0  0  0  0  0  0  0  0  0  0  0
   57.8086   24.1362   43.5988 H   0  0  0  0  0  0  0  0  0  0  0  0
   58.5200   29.4440   47.4220 C   0  0  0  0  0  0  0  0  0  0  0  0
   57.5202   29.1604   47.0615 H   0  0  0  0  0  0  0  0  0  0  0  0
   59.0330   28.8560   48.5800 C   0  0  0  0  0  0  0  0  0  0  0  0
   58.4299   28.1227   49.1354 H   0  0  0  0  0  0  0  0  0  0  0  0
   61.2640   33.7920   48.2350 C   0  0  0  0  0  0  0  0  0  0  0  0
   61.5540   33.9260   46.8630 C   0  0  0  0  0  0  0  0  0  0  0  0
   60.7896   34.3223   46.1784 H   0  0  0  0  0  0  0  0  0  0  0  0
   62.8080   33.5580   46.3670 C   0  0  0  0  0  0  0  0  0  0  0  0
   63.0207   33.6494   45.2916 H   0  0  0  0  0  0  0  0  0  0  0  0
   63.7910   33.0750   47.2320 C   0  0  0  0  0  0  0  0  0  0  0  0
   64.7823   32.8017   46.8412 H   0  0  0  0  0  0  0  0  0  0  0  0
   63.5150   32.9390   48.5940 C   0  0  0  0  0  0  0  0  0  0  0  0
   64.2901   32.5601   49.2763 H   0  0  0  0  0  0  0  0  0  0  0  0
   62.2540   33.2840   49.0920 C   0  0  0  0  0  0  0  0  0  0  0  0
   62.0363   33.1565   50.1627 H   0  0  0  0  0  0  0  0  0  0  0  0
  1  2  1  0
  2  3  2  0
  3  4  1  0
  3  5  1  0
  5  6  1  0
  5  7  1  0
  5  8  1  0
  8  9  1  0
  9 10  2  0
  9 11  1  0
 11 12  1  0
 11 13  1  0
 11 14  1  0
 14 15  1  0
 14 16  1  0
 16 17  1  0
 16 18  1  0
 16 19  1  0
 19 20  2  0
 20 21  1  0
 20 22  1  0
 22 23  1  0
 22 24  2  0
 24 25  1  0
 25 26  2  0
 26 27  1  0
 26 28  1  0
 28 29  1  0
 28 30  2  0
 30 31  1  0
 30 32  1  0
 32 33  1  0
 32 34  2  0
 34 35  1  0
 35 36  2  0
 35 37  2  0
 35 38  1  0
 38 39  1  0
 39 40  2  0
 39 41  1  0
 41 42  1  0
 42 43  1  0
 42 44  1  0
 42 45  1  0
 45 46  1  0
 45 47  1  0
 45 48  1  0
 24 49  1  0
 49 50  1  0
 49 51  2  0
 51 52  1  0
  2 53  1  0
 53 54  2  0
 54 55  1  0
 54 56  1  0
 56 57  1  0
 56 58  2  0
 58 59  1  0
 58 60  1  0
 60 61  1  0
 60 62  2  0
 62 63  1  0
 51 19  1  0
 62 53  1  0
 34 25  1  0
M  CHG  1  38  -1
M  END
>  <UniqueID>  (79) 
73

>  <SMILES>  (79) 
CCOC(=O)[N-]S(=O)(=O)c1ccccc1-c1ccc(CNCC(=O)OC/C=C/c2ccccc2)cc1

>  <Energy>  (79) 
60.568302111248066

>  <Genealogy>  (79) 
CCOC(=O)[N-]S(=O)(=O)c1ccccc1-c1ccc(CNCC(=O)OCC=Cc2ccccc2)cc1 (protonated)
CCOC(=O)[N-]S(=O)(=O)c1ccccc1-c1ccc(CNCC(=O)OC/C=C/c2ccccc2)cc1 (cis-trans isomerization)
CCOC(=O)[N-]S(=O)(=O)c1ccccc1-c1ccc(CNCC(=O)OC/C=C/c2ccccc2)cc1 (3D coordinates assigned)
CCOC(=O)[N-]S(=O)(=O)c1ccccc1-c1ccc(CNCC(=O)OC/C=C/c2ccccc2)cc1 (optimized conformer: 60.568302111248066 kcal/mol)

>  <smiles>  (79) 
CCOC(=O)NS(=O)(=O)c1ccccc1-c1ccc(CNCC(=O)OCC=Cc2ccccc2)cc1

>  <score_type>  (79) 
oracle

>  <origin>  (79) 
adg

>  <m_score__min__energy>  (79) 
-11.220000000000001

>  <m_primary>  (79) 
energy

$$$$
79:0
     RDKit          3D

 63 66  0  0  0  0  0  0  0  0999 V2000
   57.4990   28.1630   43.1280 O   0  0  0  0  0  0  0  0  0  0  0  0
   57.4380   28.0550   44.3820 C   0  0  0  0  0  0  0  0  0  0  0  0
   58.3210   27.0800   45.0500 C   0  0  0  0  0  0  0  0  0  0  0  0
   57.9140   26.1190   45.8940 C   0  0  0  0  0  0  0  0  0  0  0  0
   56.9000   25.0850   45.5850 C   0  0  0  0  0  0  0  0  0  0  0  0
   57.2860   23.7940   45.1740 C   0  0  0  0  0  0  0  0  0  0  0  0
   56.3170   22.8460   44.8320 C   0  0  0  0  0  0  0  0  0  0  0  0
   54.9600   23.1700   44.9030 C   0  0  0  0  0  0  0  0  0  0  0  0
   54.5680   24.4540   45.2960 C   0  0  0  0  0  0  0  0  0  0  0  0
   55.5330   25.4140   45.6250 C   0  0  0  0  0  0  0  0  0  0  0  0
   55.1230   26.6910   46.0000 O   0  0  0  0  0  0  0  0  0  0  0  0
   56.4550   28.7980   45.1220 N   0  0  0  0  0  0  0  0  0  0  0  0
   55.6130   29.8190   44.5000 C   0  0  0  0  0  0  0  0  0  0  0  0
   56.4660   30.8360   43.7940 C   0  0  0  0  0  0  0  0  0  0  0  0
   56.6560   30.7640   42.4070 C   0  0  0  0  0  0  0  0  0  0  0  0
   57.4700   31.6950   41.7590 C   0  0  0  0  0  0  0  0  0  0  0  0
   58.0980   32.7060   42.4890 C   0  0  0  0  0  0  0  0  0  0  0  0
   57.9190   32.7970   43.8790 C   0  0  0  0  0  0  0  0  0  0  0  0
   58.6000   33.8690   44.6460 C   0  0  0  0  0  0  0  0  0  0  0  0
   59.6320   34.4100   44.1670 O   0  0  0  0  0  0  0  0  0  0  0  0
   58.1690   34.2650   45.9550 N   0  0  0  0  0  0  0  0  0  0  0  0
   58.6490   33.7500   47.2070 C   0  0  0  0  0  0  0  0  0  0  0  0
   59.2600   34.6320   48.1050 C   0  0  0  0  0  0  0  0  0  0  0  0
   59.6710   34.1860   49.3640 C   0  0  0  0  0  0  0  0  0  0  0  0
   59.4750   32.8540   49.7370 C   0  0  0  0  0  0  0  0  0  0  0  0
   58.8730   31.9530   48.8400 C   0  0  0  0  0  0  0  0  0  0  0  0
   58.6410   30.5820   49.1850 N   0  0  0  0  0  0  0  0  0  0  0  0
   59.1760   29.2180   48.2540 S   0  0  0  0  0  0  0  0  0  0  0  0
   58.0280   28.6290   47.4780 O   0  0  0  0  0  0  0  0  0  0  0  0
   59.7090   28.1760   49.1950 O   0  0  0  0  0  0  0  0  0  0  0  0
   60.4880   29.7100   47.1410 C   0  0  0  0  0  0  0  0  0  0  0  0
   61.4010   30.7030   47.8100 C   0  0  0  0  0  0  0  0  0  0  0  0
   61.8900   31.8080   47.0920 C   0  0  0  0  0  0  0  0  0  0  0  0
   62.7830   32.6990   47.6940 C   0  0  0  0  0  0  0  0  0  0  0  0
   63.1950   32.4940   49.0140 C   0  0  0  0  0  0  0  0  0  0  0  0
   62.7150   31.3950   49.7340 C   0  0  0  0  0  0  0  0  0  0  0  0
   61.8220   30.5020   49.1370 C   0  0  0  0  0  0  0  0  0  0  0  0
   58.4590   32.4070   47.5830 C   0  0  0  0  0  0  0  0  0  0  0  0
   57.1120   31.8450   44.5270 C   0  0  0  0  0  0  0  0  0  0  0  0
   59.3987   27.1459   44.8396 H   0  0  0  0  0  0  0  0  0  0  0  0
   58.3699   26.0978   46.8948 H   0  0  0  0  0  0  0  0  0  0  0  0
   58.3528   23.5311   45.1220 H   0  0  0  0  0  0  0  0  0  0  0  0
   56.6242   21.8414   44.5058 H   0  0  0  0  0  0  0  0  0  0  0  0
   54.2002   22.4159   44.6500 H   0  0  0  0  0  0  0  0  0  0  0  0
   53.4994   24.7102   45.3467 H   0  0  0  0  0  0  0  0  0  0  0  0
   56.2620   28.5480   46.1180 H   0  0  0  0  0  0  0  0  0  0  0  0
   54.9401   29.3413   43.7727 H   0  0  0  0  0  0  0  0  0  0  0  0
   55.0249   30.3236   45.2807 H   0  0  0  0  0  0  0  0  0  0  0  0
   56.1618   29.9708   41.8268 H   0  0  0  0  0  0  0  0  0  0  0  0
   57.6169   31.6318   40.6707 H   0  0  0  0  0  0  0  0  0  0  0  0
   58.7375   33.4364   41.9718 H   0  0  0  0  0  0  0  0  0  0  0  0
   59.4177   35.6822   47.8184 H   0  0  0  0  0  0  0  0  0  0  0  0
   60.1506   34.8862   50.0638 H   0  0  0  0  0  0  0  0  0  0  0  0
   59.7916   32.5096   50.7326 H   0  0  0  0  0  0  0  0  0  0  0  0
   61.0689   28.8221   46.8510 H   0  0  0  0  0  0  0  0  0  0  0  0
   60.0430   30.1787   46.2509 H   0  0  0  0  0  0  0  0  0  0  0  0
   61.5688   31.9721   46.0528 H   0  0  0  0  0  0  0  0  0  0  0  0
   63.1621   33.5628   47.1282 H   0  0  0  0  0  0  0  0  0  0  0  0
   63.8968   33.1970   49.4865 H   0  0  0  0  0  0  0  0  0  0  0  0
   63.0413   31.2337   50.7720 H   0  0  0  0  0  0  0  0  0  0  0  0
   61.4468   29.6389   49.7064 H   0  0  0  0  0  0  0  0  0  0  0  0
   57.9804   31.7076   46.8818 H   0  0  0  0  0  0  0  0  0  0  0  0
   56.9854   31.8910   45.6187 H   0  0  0  0  0  0  0  0  0  0  0  0
  1  2  2  0
  2  3  1  0
  3  4  2  3
  4  5  1  0
  5  6  2  0
  6  7  1  0
  7  8  2  0
  8  9  1  0
  9 10  2  0
 10 11  1  0
  2 12  1  0
 12 13  1  0
 13 14  1  0
 14 15  2  0
 15 16  1  0
 16 17  2  0
 17 18  1  0
 18 19  1  0
 19 20  2  0
 19 21  1  0
 21 22  1  0
 22 23  2  0
 23 24  1  0
 24 25  2  0
 25 26  1  0
 26 27  1  0
 27 28  1  0
 28 29  2  0
 28 30  2  0
 28 31  1  0
 31 32  1  0
 32 33  2  0
 33 34  1  0
 34 35  2  0
 35 36  1  0
 36 37  2  0
 26 38  2  0
 18 39  2  0
 10  5  1  0
 39 14  1  0
 38 22  1  0
 37 32  1  0
  3 40  1  0
  4 41  1  0
  6 42  1  0
  7 43  1  0
  8 44  1  0
  9 45  1  0
 12 46  1  0
 13 47  1  0
 13 48  1  0
 15 49  1  0
 16 50  1  0
 17 51  1  0
 23 52  1  0
 24 53  1  0
 25 54  1  0
 31 55  1  0
 31 56  1  0
 33 57  1  0
 34 58  1  0
 35 59  1  0
 36 60  1  0
 37 61  1  0
 38 62  1  0
 39 63  1  0
M  CHG  3  11  -1  21  -1  27  -1
M  END
>  <UniqueID>  (80) 
74

>  <SMILES>  (80) 
O=C(C=Cc1ccccc1[O-])NCc1cccc(C(=O)[N-]c2cccc([N-]S(=O)(=O)Cc3ccccc3)c2)c1

>  <Energy>  (80) 
75.01523977362184

>  <Genealogy>  (80) 
O=C(C=Cc1ccccc1[O-])NCc1cccc(C(=O)[N-]c2cccc([N-]S(=O)(=O)Cc3ccccc3)c2)c1 (protonated)
O=C(C=Cc1ccccc1[O-])NCc1cccc(C(=O)[N-]c2cccc([N-]S(=O)(=O)Cc3ccccc3)c2)c1 (3D coordinates assigned)
O=C(C=Cc1ccccc1[O-])NCc1cccc(C(=O)[N-]c2cccc([N-]S(=O)(=O)Cc3ccccc3)c2)c1 (optimized conformer: 75.01523977362184 kcal/mol)

>  <smiles>  (80) 
O=C(C=Cc1ccccc1O)NCc1cccc(C(=O)Nc2cccc(NS(=O)(=O)Cc3ccccc3)c2)c1

>  <score_type>  (80) 
oracle

>  <origin>  (80) 
adg

>  <m_score__min__energy>  (80) 
-19.219999999999999

>  <m_primary>  (80) 
energy

$$$$
80:0
     RDKit          3D

 39 41  0  0  0  0  0  0  0  0999 V2000
   57.0020   30.5880   43.7260 H   0  0  0  0  0  0  0  0  0  0  0  0
   56.7110   30.9350   44.6670 N   0  0  0  0  0  0  0  0  0  0  0  0
   57.4220   31.7990   45.3160 C   0  0  0  0  0  0  0  0  0  0  0  0
   57.6560   33.0330   44.7660 N   0  0  0  0  0  0  0  0  0  0  0  0
   58.4060   33.9710   45.4170 C   0  0  0  0  0  0  0  0  0  0  0  0
   58.6170   35.0980   44.8960 O   0  0  0  0  0  0  0  0  0  0  0  0
   58.9250   33.6420   46.6620 C   0  0  0  0  0  0  0  0  0  0  0  0
   59.7280   34.3250   47.5520 C   0  0  0  0  0  0  0  0  0  0  0  0
   60.1215   35.3471   47.4496 H   0  0  0  0  0  0  0  0  0  0  0  0
   59.9330   33.4390   48.6100 C   0  0  0  0  0  0  0  0  0  0  0  0
   60.5410   33.6561   49.5006 H   0  0  0  0  0  0  0  0  0  0  0  0
   59.2780   32.2730   48.3870 N   0  0  0  0  0  0  0  0  0  0  0  0
   59.3180   31.0740   49.2210 C   0  0  0  0  0  0  0  0  0  0  0  0
   59.6830   31.3390   50.2243 H   0  0  0  0  0  0  0  0  0  0  0  0
   58.3061   30.6491   49.2952 H   0  0  0  0  0  0  0  0  0  0  0  0
   60.2410   30.0560   48.6060 C   0  0  0  0  0  0  0  0  0  0  0  0
   61.1440   29.5930   49.2900 O   0  0  0  0  0  0  0  0  0  0  0  0
   60.0910   29.6590   47.2160 N   0  0  1  0  0  0  0  0  0  0  0  0
   59.1880   30.0520   46.8590 H   0  0  0  0  0  0  0  0  0  0  0  0
   61.1500   30.2520   46.3800 C   0  0  0  0  0  0  0  0  0  0  0  0
   61.9268   30.6870   47.0261 H   0  0  0  0  0  0  0  0  0  0  0  0
   61.5956   29.4722   45.7450 H   0  0  0  0  0  0  0  0  0  0  0  0
   60.7180   31.0395   45.7450 H   0  0  0  0  0  0  0  0  0  0  0  0
   59.9910   28.1880   47.0660 C   0  0  0  0  0  0  0  0  0  0  0  0
   60.6936   27.8734   46.2802 H   0  0  0  0  0  0  0  0  0  0  0  0
   60.2267   27.7546   48.0491 H   0  0  0  0  0  0  0  0  0  0  0  0
   58.6080   27.6910   46.6930 C   0  0  0  0  0  0  0  0  0  0  0  0
   57.8220   28.4010   45.7690 C   0  0  0  0  0  0  0  0  0  0  0  0
   58.2132   29.3214   45.3110 H   0  0  0  0  0  0  0  0  0  0  0  0
   56.5450   27.9430   45.4290 C   0  0  0  0  0  0  0  0  0  0  0  0
   55.9380   28.4998   44.7000 H   0  0  0  0  0  0  0  0  0  0  0  0
   56.0390   26.7790   46.0140 C   0  0  0  0  0  0  0  0  0  0  0  0
   54.7710   26.3240   45.6760 O   0  0  0  0  0  0  0  0  0  0  0  0
   56.8100   26.0720   46.9440 C   0  0  0  0  0  0  0  0  0  0  0  0
   56.4111   25.1570   47.4062 H   0  0  0  0  0  0  0  0  0  0  0  0
   58.0870   26.5280   47.2860 C   0  0  0  0  0  0  0  0  0  0  0  0
   58.6868   25.9737   48.0229 H   0  0  0  0  0  0  0  0  0  0  0  0
   58.6790   32.4130   47.1940 C   0  0  0  0  0  0  0  0  0  0  0  0
   57.9390   31.4810   46.5420 N   0  0  0  0  0  0  0  0  0  0  0  0
  1  2  1  0
  2  3  2  0
  3  4  1  0
  4  5  1  0
  5  6  2  0
  5  7  1  0
  7  8  1  0
  8  9  1  0
  8 10  2  0
 10 11  1  0
 10 12  1  0
 12 13  1  0
 13 14  1  0
 13 15  1  0
 13 16  1  0
 16 17  2  0
 16 18  1  0
 18 19  1  6
 18 20  1  0
 20 21  1  0
 20 22  1  0
 20 23  1  0
 18 24  1  0
 24 25  1  0
 24 26  1  0
 24 27  1  0
 27 28  2  0
 28 29  1  0
 28 30  1  0
 30 31  1  0
 30 32  2  0
 32 33  1  0
 32 34  1  0
 34 35  1  0
 34 36  2  0
 36 37  1  0
 12 38  1  0
 38 39  1  0
 39  3  1  0
 38  7  2  0
 36 27  1  0
M  CHG  4   4  -1  18   1  33  -1  39  -1
M  END
>  <UniqueID>  (81) 
75

>  <SMILES>  (81) 
[H]/N=c1/[n-]c(=O)c2ccn(CC(=O)[N@@H+](C)Cc3ccc([O-])cc3)c2[n-]1

>  <Energy>  (81) 
78.57382107737796

>  <Genealogy>  (81) 
C[NH+](Cc1ccc([O-])cc1)C(=O)Cn1ccc2c(=O)[n-]c(=N)[n-]c21 (protonated)
C[N@@H+](Cc1ccc([O-])cc1)C(=O)Cn1ccc2c(=O)[n-]c(=N)[n-]c21 (chirality)
[H]/N=c1/[n-]c(=O)c2ccn(CC(=O)[N@@H+](C)Cc3ccc([O-])cc3)c2[n-]1 (cis-trans isomerization)
[H]/N=c1/[n-]c(=O)c2ccn(CC(=O)[N@@H+](C)Cc3ccc([O-])cc3)c2[n-]1 (3D coordinates assigned)
[H]/N=c1/[n-]c(=O)c2ccn(CC(=O)[N@@H+](C)Cc3ccc([O-])cc3)c2[n-]1 (optimized conformer: 78.57382107737796 kcal/mol)

>  <smiles>  (81) 
CN(Cc1ccc(O)cc1)C(=O)Cn1ccc2c(=O)[nH]c(=N)[nH]c21

>  <score_type>  (81) 
oracle

>  <origin>  (81) 
adg

>  <m_score__min__energy>  (81) 
-11.31

>  <m_primary>  (81) 
energy

$$$$
81:0
     RDKit          3D

 61 64  0  0  0  0  0  0  0  0999 V2000
   66.6920   32.3310   50.5160 C   0  0  0  0  0  0  0  0  0  0  0  0
   65.8000   33.1260   49.7420 O   0  0  0  0  0  0  0  0  0  0  0  0
   64.5510   32.6880   49.2730 C   0  0  0  0  0  0  0  0  0  0  0  0
   64.1150   33.1370   48.0210 C   0  0  0  0  0  0  0  0  0  0  0  0
   62.8710   32.7430   47.5190 C   0  0  0  0  0  0  0  0  0  0  0  0
   62.0350   31.9110   48.2730 C   0  0  0  0  0  0  0  0  0  0  0  0
   60.7920   31.5400   47.7410 O   0  0  0  0  0  0  0  0  0  0  0  0
   59.8790   32.4180   47.1360 C   0  0  0  0  0  0  0  0  0  0  0  0
   59.6960   33.7340   47.5990 C   0  0  0  0  0  0  0  0  0  0  0  0
   58.7960   34.5870   46.9540 C   0  0  0  0  0  0  0  0  0  0  0  0
   58.0790   34.1400   45.8420 C   0  0  0  0  0  0  0  0  0  0  0  0
   58.2640   32.8360   45.3600 C   0  0  0  0  0  0  0  0  0  0  0  0
   57.5130   32.3580   44.1430 C   0  0  0  0  0  0  0  0  0  0  0  0
   56.5050   31.4330   44.5070 O   0  0  0  0  0  0  0  0  0  0  0  0
   56.5820   30.2610   43.7170 C   0  0  0  0  0  0  0  0  0  0  0  0
   56.6430   29.0310   44.5810 C   0  0  0  0  0  0  0  0  0  0  0  0
   55.5980   28.6310   45.1550 O   0  0  0  0  0  0  0  0  0  0  0  0
   57.8690   28.3260   44.8030 N   0  0  0  0  0  0  0  0  0  0  0  0
   57.9600   26.9160   45.0290 C   0  0  0  0  0  0  0  0  0  0  0  0
   57.6210   26.0380   43.9960 C   0  0  0  0  0  0  0  0  0  0  0  0
   57.7250   24.6570   44.1750 C   0  0  0  0  0  0  0  0  0  0  0  0
   58.1980   24.1280   45.3910 C   0  0  0  0  0  0  0  0  0  0  0  0
   58.3330   22.6280   45.6190 C   0  0  2  0  0  0  0  0  0  0  0  0
   57.9690   21.8060   44.3480 C   0  0  0  0  0  0  0  0  0  0  0  0
   57.5070   20.4670   44.7270 N   0  0  0  0  0  0  0  0  0  0  0  0
   56.3090   20.5370   45.5820 C   0  0  0  0  0  0  0  0  0  0  0  0
   56.3100   21.7930   46.4730 C   0  0  0  0  0  0  0  0  0  0  0  0
   57.6320   22.1910   46.7810 O   0  0  0  0  0  0  0  0  0  0  0  0
   58.5300   25.0170   46.4300 C   0  0  0  0  0  0  0  0  0  0  0  0
   58.4320   26.4020   46.2490 C   0  0  0  0  0  0  0  0  0  0  0  0
   58.9790   27.4690   47.5390 Cl  0  0  0  0  0  0  0  0  0  0  0  0
   59.1700   31.9820   46.0080 C   0  0  0  0  0  0  0  0  0  0  0  0
   62.4770   31.4380   49.5200 C   0  0  0  0  0  0  0  0  0  0  0  0
   63.7250   31.8210   50.0180 C   0  0  0  0  0  0  0  0  0  0  0  0
   66.5008   32.5014   51.5858 H   0  0  0  0  0  0  0  0  0  0  0  0
   66.5346   31.2682   50.2801 H   0  0  0  0  0  0  0  0  0  0  0  0
   67.7298   32.6092   50.2801 H   0  0  0  0  0  0  0  0  0  0  0  0
   64.7562   33.8052   47.4273 H   0  0  0  0  0  0  0  0  0  0  0  0
   62.5474   33.0887   46.5261 H   0  0  0  0  0  0  0  0  0  0  0  0
   60.2628   34.0925   48.4709 H   0  0  0  0  0  0  0  0  0  0  0  0
   58.6521   35.6131   47.3232 H   0  0  0  0  0  0  0  0  0  0  0  0
   57.3667   34.8130   45.3424 H   0  0  0  0  0  0  0  0  0  0  0  0
   57.0478   33.2209   43.6440 H   0  0  0  0  0  0  0  0  0  0  0  0
   58.2209   31.8599   43.4642 H   0  0  0  0  0  0  0  0  0  0  0  0
   55.6932   30.2034   43.0715 H   0  0  0  0  0  0  0  0  0  0  0  0
   57.4976   30.3078   43.1092 H   0  0  0  0  0  0  0  0  0  0  0  0
   57.2692   26.4382   43.0336 H   0  0  0  0  0  0  0  0  0  0  0  0
   57.4352   23.9775   43.3600 H   0  0  0  0  0  0  0  0  0  0  0  0
   59.3972   22.4316   45.8165 H   0  0  0  0  0  0  0  0  0  0  0  0
   57.1701   22.3237   43.7968 H   0  0  0  0  0  0  0  0  0  0  0  0
   58.8624   21.7115   43.7132 H   0  0  0  0  0  0  0  0  0  0  0  0
   58.2720   19.9710   45.2390 H   0  0  0  0  0  0  0  0  0  0  0  0
   57.2840   19.9200   43.8620 H   0  0  0  0  0  0  0  0  0  0  0  0
   55.4155   20.5570   44.9407 H   0  0  0  0  0  0  0  0  0  0  0  0
   56.3074   19.6543   46.2384 H   0  0  0  0  0  0  0  0  0  0  0  0
   55.8016   22.6116   45.9425 H   0  0  0  0  0  0  0  0  0  0  0  0
   55.7852   21.5595   47.4111 H   0  0  0  0  0  0  0  0  0  0  0  0
   58.8710   24.6187   47.3970 H   0  0  0  0  0  0  0  0  0  0  0  0
   59.3251   30.9617   45.6274 H   0  0  0  0  0  0  0  0  0  0  0  0
   61.8373   30.7627   50.1072 H   0  0  0  0  0  0  0  0  0  0  0  0
   64.0644   31.4450   50.9944 H   0  0  0  0  0  0  0  0  0  0  0  0
  1  2  1  0
  2  3  1  0
  3  4  2  0
  4  5  1  0
  5  6  2  0
  6  7  1  0
  7  8  1  0
  8  9  2  0
  9 10  1  0
 10 11  2  0
 11 12  1  0
 12 13  1  0
 13 14  1  0
 14 15  1  0
 15 16  1  0
 16 17  2  0
 16 18  1  0
 18 19  1  0
 19 20  2  0
 20 21  1  0
 21 22  2  0
 22 23  1  0
 23 24  1  0
 24 25  1  0
 25 26  1  0
 26 27  1  0
 27 28  1  0
 22 29  1  0
 29 30  2  0
 30 31  1  0
 12 32  2  0
  6 33  1  0
 33 34  2  0
 34  3  1  0
 32  8  1  0
 30 19  1  0
 28 23  1  0
  1 35  1  0
  1 36  1  0
  1 37  1  0
  4 38  1  0
  5 39  1  0
  9 40  1  0
 10 41  1  0
 11 42  1  0
 13 43  1  0
 13 44  1  0
 15 45  1  0
 15 46  1  0
 20 47  1  0
 21 48  1  0
 23 49  1  1
 24 50  1  0
 24 51  1  0
 25 52  1  0
 25 53  1  0
 26 54  1  0
 26 55  1  0
 27 56  1  0
 27 57  1  0
 29 58  1  0
 32 59  1  0
 33 60  1  0
 34 61  1  0
M  CHG  2  18  -1  25   1
M  END
>  <UniqueID>  (82) 
76

>  <SMILES>  (82) 
COc1ccc(Oc2cccc(COCC(=O)[N-]c3ccc([C@@H]4C[NH2+]CCO4)cc3Cl)c2)cc1

>  <Energy>  (82) 
90.98265053356748

>  <Genealogy>  (82) 
COc1ccc(Oc2cccc(COCC(=O)[N-]c3ccc(C4C[NH2+]CCO4)cc3Cl)c2)cc1 (protonated)
COc1ccc(Oc2cccc(COCC(=O)[N-]c3ccc([C@@H]4C[NH2+]CCO4)cc3Cl)c2)cc1 (chirality)
COc1ccc(Oc2cccc(COCC(=O)[N-]c3ccc([C@@H]4C[NH2+]CCO4)cc3Cl)c2)cc1 (3D coordinates assigned)
COc1ccc(Oc2cccc(COCC(=O)[N-]c3ccc([C@@H]4C[NH2+]CCO4)cc3Cl)c2)cc1 (nonaromatic ring conformer: 90.98265053356748 kcal/mol)

>  <smiles>  (82) 
COc1ccc(Oc2cccc(COCC(=O)Nc3ccc(C4CNCCO4)cc3Cl)c2)cc1

>  <score_type>  (82) 
oracle

>  <origin>  (82) 
adg

>  <m_score__min__energy>  (82) 
-10.779999999999999

>  <m_primary>  (82) 
energy

$$$$
82:0
     RDKit          3D

 44 45  0  0  0  0  0  0  0  0999 V2000
   66.0630   32.5690   50.0910 C   0  0  0  0  0  0  0  0  0  0  0  0
   65.2500   33.4580   49.3350 O   0  0  0  0  0  0  0  0  0  0  0  0
   63.8980   33.2410   49.0390 C   0  0  0  0  0  0  0  0  0  0  0  0
   62.9360   33.9550   49.7600 C   0  0  0  0  0  0  0  0  0  0  0  0
   61.5740   33.7770   49.4980 C   0  0  0  0  0  0  0  0  0  0  0  0
   61.1550   32.8760   48.5090 C   0  0  0  0  0  0  0  0  0  0  0  0
   59.7570   32.6930   48.2370 N   0  0  0  0  0  0  0  0  0  0  0  0
   58.9370   31.8330   49.0960 C   0  0  0  0  0  0  0  0  0  0  0  0
   58.9430   30.4280   48.5760 C   0  0  0  0  0  0  0  0  0  0  0  0
   59.3450   29.4970   49.3230 O   0  0  0  0  0  0  0  0  0  0  0  0
   58.5620   30.1600   47.2170 N   0  0  0  0  0  0  0  0  0  0  0  0
   58.4030   28.8300   46.6940 C   0  0  0  0  0  0  0  0  0  0  0  0
   59.2170   27.7910   47.1840 C   0  0  0  0  0  0  0  0  0  0  0  0
   59.0280   26.4770   46.7560 C   0  0  0  0  0  0  0  0  0  0  0  0
   58.0170   26.1790   45.8430 C   0  0  0  0  0  0  0  0  0  0  0  0
   57.1940   27.1920   45.3540 C   0  0  0  0  0  0  0  0  0  0  0  0
   57.3740   28.5270   45.7620 C   0  0  0  0  0  0  0  0  0  0  0  0
   56.5070   29.5760   45.1750 C   0  0  0  0  0  0  0  0  0  0  0  0
   55.1430   29.2940   44.8620 N   0  0  0  0  0  0  0  0  0  0  0  0
   56.9680   30.7190   44.9200 O   0  0  0  0  0  0  0  0  0  0  0  0
   59.0210   33.4720   46.8680 S   0  0  0  0  0  0  0  0  0  0  0  0
   59.6940   35.1080   46.6810 C   0  0  0  0  0  0  0  0  0  0  0  0
   57.5360   33.5890   47.0650 O   0  0  0  0  0  0  0  0  0  0  0  0
   59.2870   32.6650   45.6310 O   0  0  0  0  0  0  0  0  0  0  0  0
   62.1190   32.1600   47.7840 C   0  0  0  0  0  0  0  0  0  0  0  0
   63.4790   32.3360   48.0450 C   0  0  0  0  0  0  0  0  0  0  0  0
   65.9006   32.7466   51.1643 H   0  0  0  0  0  0  0  0  0  0  0  0
   65.7958   31.5303   49.8467 H   0  0  0  0  0  0  0  0  0  0  0  0
   67.1214   32.7425   49.8467 H   0  0  0  0  0  0  0  0  0  0  0  0
   63.2533   34.6628   50.5400 H   0  0  0  0  0  0  0  0  0  0  0  0
   60.8275   34.3468   50.0708 H   0  0  0  0  0  0  0  0  0  0  0  0
   59.3450   31.8444   50.1175 H   0  0  0  0  0  0  0  0  0  0  0  0
   57.9037   32.2101   49.1008 H   0  0  0  0  0  0  0  0  0  0  0  0
   58.3770   30.9710   46.5840 H   0  0  0  0  0  0  0  0  0  0  0  0
   60.0101   28.0178   47.9117 H   0  0  0  0  0  0  0  0  0  0  0  0
   59.6768   25.6754   47.1389 H   0  0  0  0  0  0  0  0  0  0  0  0
   57.8686   25.1418   45.5079 H   0  0  0  0  0  0  0  0  0  0  0  0
   56.3940   26.9451   44.6405 H   0  0  0  0  0  0  0  0  0  0  0  0
   54.4050   29.3490   45.5930 H   0  0  0  0  0  0  0  0  0  0  0  0
   59.8742   35.5460   47.6738 H   0  0  0  0  0  0  0  0  0  0  0  0
   60.6426   35.0531   46.1268 H   0  0  0  0  0  0  0  0  0  0  0  0
   58.9814   35.7365   46.1268 H   0  0  0  0  0  0  0  0  0  0  0  0
   61.8006   31.4538   47.0031 H   0  0  0  0  0  0  0  0  0  0  0  0
   64.2255   31.7660   47.4725 H   0  0  0  0  0  0  0  0  0  0  0  0
  1  2  1  0
  2  3  1  0
  3  4  2  0
  4  5  1  0
  5  6  2  0
  6  7  1  0
  7  8  1  0
  8  9  1  0
  9 10  2  0
  9 11  1  0
 11 12  1  0
 12 13  2  0
 13 14  1  0
 14 15  2  0
 15 16  1  0
 16 17  2  0
 17 18  1  0
 18 19  1  0
 18 20  2  0
  7 21  1  0
 21 22  1  0
 21 23  2  0
 21 24  2  0
  6 25  1  0
 25 26  2  0
 26  3  1  0
 17 12  1  0
  1 27  1  0
  1 28  1  0
  1 29  1  0
  4 30  1  0
  5 31  1  0
  8 32  1  0
  8 33  1  0
 11 34  1  0
 13 35  1  0
 14 36  1  0
 15 37  1  0
 16 38  1  0
 19 39  1  0
 22 40  1  0
 22 41  1  0
 22 42  1  0
 25 43  1  0
 26 44  1  0
M  CHG  1  19  -1
M  END
>  <UniqueID>  (83) 
77

>  <SMILES>  (83) 
COc1ccc(N(CC(=O)Nc2ccccc2C([NH-])=O)S(C)(=O)=O)cc1

>  <Energy>  (83) 
48.73808718004741

>  <Genealogy>  (83) 
COc1ccc(N(CC(=O)Nc2ccccc2C([NH-])=O)S(C)(=O)=O)cc1 (protonated)
COc1ccc(N(CC(=O)Nc2ccccc2C([NH-])=O)S(C)(=O)=O)cc1 (3D coordinates assigned)
COc1ccc(N(CC(=O)Nc2ccccc2C([NH-])=O)S(C)(=O)=O)cc1 (optimized conformer: 48.73808718004741 kcal/mol)

>  <smiles>  (83) 
COc1ccc(N(CC(=O)Nc2ccccc2C(N)=O)S(C)(=O)=O)cc1

>  <score_type>  (83) 
oracle

>  <origin>  (83) 
adg

>  <m_score__min__energy>  (83) 
-10.49

>  <m_primary>  (83) 
energy

$$$$
83:0
     RDKit          3D

 47 50  0  0  0  0  0  0  0  0999 V2000
   55.4700   26.9420   46.0250 O   0  0  0  0  0  0  0  0  0  0  0  0
   56.6720   27.2400   45.7950 C   0  0  0  0  0  0  0  0  0  0  0  0
   57.6620   26.2040   45.8660 N   0  0  0  0  0  0  0  0  0  0  0  0
   57.6120   24.9320   45.2050 C   0  0  0  0  0  0  0  0  0  0  0  0
   56.7040   24.6740   44.1620 C   0  0  0  0  0  0  0  0  0  0  0  0
   56.6880   23.4240   43.5360 C   0  0  0  0  0  0  0  0  0  0  0  0
   57.5650   22.4190   43.9550 C   0  0  0  0  0  0  0  0  0  0  0  0
   57.5490   21.2070   43.3470 F   0  0  0  0  0  0  0  0  0  0  0  0
   58.4510   22.6610   45.0090 C   0  0  0  0  0  0  0  0  0  0  0  0
   58.4690   23.9110   45.6360 C   0  0  0  0  0  0  0  0  0  0  0  0
   57.0270   28.6530   45.5070 C   0  0  0  0  0  0  0  0  0  0  0  0
   56.1290   29.4700   44.7880 C   0  0  0  0  0  0  0  0  0  0  0  0
   54.9110   28.9650   44.3460 O   0  0  0  0  0  0  0  0  0  0  0  0
   56.4610   30.7950   44.4910 C   0  0  0  0  0  0  0  0  0  0  0  0
   57.6840   31.3260   44.8990 C   0  0  0  0  0  0  0  0  0  0  0  0
   58.5850   30.5380   45.6250 C   0  0  0  0  0  0  0  0  0  0  0  0
   59.8130   31.0590   46.0520 C   0  0  0  0  0  0  0  0  0  0  0  0
   60.7030   30.2600   46.7840 C   0  0  0  0  0  0  0  0  0  0  0  0
   62.0100   30.8310   47.2620 C   0  0  0  0  0  0  0  0  0  0  0  0
   61.8180   31.4260   48.5810 N   0  0  0  0  0  0  0  0  0  0  0  0
   61.7420   33.1570   48.4540 S   0  0  0  0  0  0  0  0  0  0  0  0
   62.9600   33.6340   47.7150 O   0  0  0  0  0  0  0  0  0  0  0  0
   61.7680   33.7760   49.8240 O   0  0  0  0  0  0  0  0  0  0  0  0
   60.3010   33.6480   47.5440 C   0  0  0  0  0  0  0  0  0  0  0  0
   60.4900   34.3810   46.3610 C   0  0  0  0  0  0  0  0  0  0  0  0
   59.3990   34.7900   45.5920 C   0  0  0  0  0  0  0  0  0  0  0  0
   58.1030   34.4640   45.9910 C   0  0  0  0  0  0  0  0  0  0  0  0
   57.8970   33.7270   47.1570 C   0  0  0  0  0  0  0  0  0  0  0  0
   58.9820   33.3100   47.9390 C   0  0  0  0  0  0  0  0  0  0  0  0
   58.5760   32.2720   49.5010 Br  0  0  0  0  0  0  0  0  0  0  0  0
   60.3190   28.9460   47.1090 C   0  0  0  0  0  0  0  0  0  0  0  0
   61.0740   28.2060   47.7960 O   0  0  0  0  0  0  0  0  0  0  0  0
   59.1230   28.4600   46.6850 N   0  0  0  0  0  0  0  0  0  0  0  0
   58.2550   29.2020   45.9430 C   0  0  0  0  0  0  0  0  0  0  0  0
   56.0042   25.4584   43.8379 H   0  0  0  0  0  0  0  0  0  0  0  0
   55.9845   23.2310   42.7127 H   0  0  0  0  0  0  0  0  0  0  0  0
   59.1346   21.8676   45.3454 H   0  0  0  0  0  0  0  0  0  0  0  0
   59.1599   24.0935   46.4722 H   0  0  0  0  0  0  0  0  0  0  0  0
   55.7523   31.4232   43.9314 H   0  0  0  0  0  0  0  0  0  0  0  0
   57.9414   32.3661   44.6499 H   0  0  0  0  0  0  0  0  0  0  0  0
   60.0802   32.0988   45.8122 H   0  0  0  0  0  0  0  0  0  0  0  0
   62.7608   30.0296   47.3253 H   0  0  0  0  0  0  0  0  0  0  0  0
   62.3586   31.5994   46.5563 H   0  0  0  0  0  0  0  0  0  0  0  0
   61.5097   34.6358   46.0366 H   0  0  0  0  0  0  0  0  0  0  0  0
   59.5616   35.3695   44.6712 H   0  0  0  0  0  0  0  0  0  0  0  0
   57.2433   34.7881   45.3861 H   0  0  0  0  0  0  0  0  0  0  0  0
   56.8728   33.4707   47.4656 H   0  0  0  0  0  0  0  0  0  0  0  0
  1  2  2  0
  2  3  1  0
  3  4  1  0
  4  5  2  0
  5  6  1  0
  6  7  2  0
  7  8  1  0
  7  9  1  0
  9 10  2  0
  2 11  1  0
 11 12  2  0
 12 13  1  0
 12 14  1  0
 14 15  2  0
 15 16  1  0
 16 17  1  0
 17 18  2  0
 18 19  1  0
 19 20  1  0
 20 21  1  0
 21 22  2  0
 21 23  2  0
 21 24  1  0
 24 25  2  0
 25 26  1  0
 26 27  2  0
 27 28  1  0
 28 29  2  0
 29 30  1  0
 18 31  1  0
 31 32  2  0
 31 33  1  0
 33 34  1  0
 10  4  1  0
 34 11  1  0
 34 16  2  0
 29 24  1  0
  5 35  1  0
  6 36  1  0
  9 37  1  0
 10 38  1  0
 14 39  1  0
 15 40  1  0
 17 41  1  0
 19 42  1  0
 19 43  1  0
 25 44  1  0
 26 45  1  0
 27 46  1  0
 28 47  1  0
M  CHG  4   3  -1  13  -1  20  -1  33  -1
M  END
>  <UniqueID>  (84) 
78

>  <SMILES>  (84) 
O=C([N-]c1ccc(F)cc1)c1c([O-])ccc2cc(C[N-]S(=O)(=O)c3ccccc3Br)c(=O)[n-]c12

>  <Energy>  (84) 
66.06646717767126

>  <Genealogy>  (84) 
O=C([N-]c1ccc(F)cc1)c1c([O-])ccc2cc(C[N-]S(=O)(=O)c3ccccc3Br)c(=O)[n-]c12 (protonated)
O=C([N-]c1ccc(F)cc1)c1c([O-])ccc2cc(C[N-]S(=O)(=O)c3ccccc3Br)c(=O)[n-]c12 (3D coordinates assigned)
O=C([N-]c1ccc(F)cc1)c1c([O-])ccc2cc(C[N-]S(=O)(=O)c3ccccc3Br)c(=O)[n-]c12 (optimized conformer: 66.06646717767126 kcal/mol)

>  <smiles>  (84) 
O=C(Nc1ccc(F)cc1)c1c(O)ccc2cc(CNS(=O)(=O)c3ccccc3Br)c(=O)[nH]c12

>  <score_type>  (84) 
oracle

>  <origin>  (84) 
adg

>  <m_score__min__energy>  (84) 
-16.59

>  <m_primary>  (84) 
energy

$$$$
84:0
     RDKit          3D

 45 47  0  0  0  0  0  0  0  0999 V2000
   56.8630   25.6200   46.6730 O   0  0  0  0  0  0  0  0  0  0  0  0
   56.1830   26.5240   46.1180 C   0  0  0  0  0  0  0  0  0  0  0  0
   56.8860   27.7580   45.6220 C   0  0  0  0  0  0  0  0  0  0  0  0
   55.9130   28.7550   45.1920 N   0  0  0  0  0  0  0  0  0  0  0  0
   56.2320   29.8510   44.3280 C   0  0  0  0  0  0  0  0  0  0  0  0
   55.7240   29.9200   43.1760 O   0  0  0  0  0  0  0  0  0  0  0  0
   57.1470   30.9020   44.7890 C   0  0  0  0  0  0  0  0  0  0  0  0
   57.3770   32.1220   44.1630 C   0  0  0  0  0  0  0  0  0  0  0  0
   58.2970   32.9310   44.8400 C   0  0  0  0  0  0  0  0  0  0  0  0
   58.7980   32.3540   46.0090 C   0  0  0  0  0  0  0  0  0  0  0  0
   59.7780   32.9560   46.9480 C   0  0  0  0  0  0  0  0  0  0  0  0
   61.1000   33.2000   46.5340 C   0  0  0  0  0  0  0  0  0  0  0  0
   62.0280   33.7640   47.4140 C   0  0  0  0  0  0  0  0  0  0  0  0
   61.6560   34.0900   48.7200 C   0  0  0  0  0  0  0  0  0  0  0  0
   62.6020   34.6480   49.5790 O   0  0  0  0  0  0  0  0  0  0  0  0
   60.3400   33.8490   49.1470 C   0  0  0  0  0  0  0  0  0  0  0  0
   59.9510   34.1610   50.4450 O   0  0  0  0  0  0  0  0  0  0  0  0
   59.4080   33.2870   48.2660 C   0  0  0  0  0  0  0  0  0  0  0  0
   58.0870   30.8330   46.1820 S   0  0  0  0  0  0  0  0  0  0  0  0
   54.7660   26.3440   45.9960 N   0  0  0  0  0  0  0  0  0  0  0  0
   54.1140   25.1150   45.5600 C   0  0  0  0  0  0  0  0  0  0  0  0
   54.7940   23.9010   46.1930 C   0  0  0  0  0  0  0  0  0  0  0  0
   55.6760   23.1840   45.2030 C   0  0  0  0  0  0  0  0  0  0  0  0
   56.6430   22.2670   45.6440 C   0  0  0  0  0  0  0  0  0  0  0  0
   57.4400   21.5840   44.7200 C   0  0  0  0  0  0  0  0  0  0  0  0
   57.2690   21.8050   43.3510 C   0  0  0  0  0  0  0  0  0  0  0  0
   56.3010   22.7060   42.9030 C   0  0  0  0  0  0  0  0  0  0  0  0
   55.5040   23.3940   43.8240 C   0  0  0  0  0  0  0  0  0  0  0  0
   57.5005   28.1764   46.4328 H   0  0  0  0  0  0  0  0  0  0  0  0
   57.5238   27.4879   44.7674 H   0  0  0  0  0  0  0  0  0  0  0  0
   56.8839   32.4223   43.2267 H   0  0  0  0  0  0  0  0  0  0  0  0
   58.5973   33.9278   44.4846 H   0  0  0  0  0  0  0  0  0  0  0  0
   61.4062   32.9447   45.5088 H   0  0  0  0  0  0  0  0  0  0  0  0
   63.0576   33.9522   47.0758 H   0  0  0  0  0  0  0  0  0  0  0  0
   62.3950   34.8510   50.5490 H   0  0  0  0  0  0  0  0  0  0  0  0
   58.3783   33.1025   48.6061 H   0  0  0  0  0  0  0  0  0  0  0  0
   53.0568   25.1378   45.8629 H   0  0  0  0  0  0  0  0  0  0  0  0
   54.1905   25.0380   44.4654 H   0  0  0  0  0  0  0  0  0  0  0  0
   55.4084   24.2372   47.0413 H   0  0  0  0  0  0  0  0  0  0  0  0
   54.0126   23.2031   46.5282 H   0  0  0  0  0  0  0  0  0  0  0  0
   56.7744   22.0849   46.7208 H   0  0  0  0  0  0  0  0  0  0  0  0
   58.2019   20.8725   45.0711 H   0  0  0  0  0  0  0  0  0  0  0  0
   57.8978   21.2685   42.6252 H   0  0  0  0  0  0  0  0  0  0  0  0
   56.1650   22.8750   41.8246 H   0  0  0  0  0  0  0  0  0  0  0  0
   54.7405   24.1013   43.4680 H   0  0  0  0  0  0  0  0  0  0  0  0
  1  2  2  0
  2  3  1  0
  3  4  1  0
  4  5  1  0
  5  6  2  0
  5  7  1  0
  7  8  2  0
  8  9  1  0
  9 10  2  0
 10 11  1  0
 11 12  2  0
 12 13  1  0
 13 14  2  0
 14 15  1  0
 14 16  1  0
 16 17  1  0
 16 18  2  0
 10 19  1  0
  2 20  1  0
 20 21  1  0
 21 22  1  0
 22 23  1  0
 23 24  2  0
 24 25  1  0
 25 26  2  0
 26 27  1  0
 27 28  2  0
 19  7  1  0
 28 23  1  0
 18 11  1  0
  3 29  1  0
  3 30  1  0
  8 31  1  0
  9 32  1  0
 12 33  1  0
 13 34  1  0
 15 35  1  0
 18 36  1  0
 21 37  1  0
 21 38  1  0
 22 39  1  0
 22 40  1  0
 24 41  1  0
 25 42  1  0
 26 43  1  0
 27 44  1  0
 28 45  1  0
M  CHG  3   4  -1  17  -1  20  -1
M  END
>  <UniqueID>  (85) 
79

>  <SMILES>  (85) 
O=C(C[N-]C(=O)c1ccc(-c2ccc(O)c([O-])c2)s1)[N-]CCc1ccccc1

>  <Energy>  (85) 
68.76186935537228

>  <Genealogy>  (85) 
O=C(C[N-]C(=O)c1ccc(-c2ccc(O)c([O-])c2)s1)[N-]CCc1ccccc1 (protonated)
O=C(C[N-]C(=O)c1ccc(-c2ccc(O)c([O-])c2)s1)[N-]CCc1ccccc1 (3D coordinates assigned)
O=C(C[N-]C(=O)c1ccc(-c2ccc(O)c([O-])c2)s1)[N-]CCc1ccccc1 (optimized conformer: 68.76186935537228 kcal/mol)

>  <smiles>  (85) 
O=C(CNC(=O)c1ccc(-c2ccc(O)c(O)c2)s1)NCCc1ccccc1

>  <score_type>  (85) 
oracle

>  <origin>  (85) 
adg

>  <m_score__min__energy>  (85) 
-13.02

>  <m_primary>  (85) 
energy

$$$$
85:0
     RDKit          3D

 31 32  0  0  0  0  0  0  0  0999 V2000
   56.6640   22.0260   43.9320 C   0  0  0  0  0  0  0  0  0  0  0  0
   55.6400   23.2180   43.0090 S   0  0  0  0  0  0  0  0  0  0  0  0
   54.6350   23.7370   44.4430 C   0  0  0  0  0  0  0  0  0  0  0  0
   55.4250   24.6370   45.3350 C   0  0  0  0  0  0  0  0  0  0  0  0
   55.0140   25.8560   45.7420 N   0  0  0  0  0  0  0  0  0  0  0  0
   55.9780   26.3380   46.5100 N   0  0  0  0  0  0  0  0  0  0  0  0
   56.9340   25.3930   46.5350 C   0  0  0  0  0  0  0  0  0  0  0  0
   58.0430   25.5180   47.2020 N   0  0  0  0  0  0  0  0  0  0  0  0
   59.2260   26.1690   46.7150 C   0  0  0  0  0  0  0  0  0  0  0  0
   60.3340   25.5890   46.8590 O   0  0  0  0  0  0  0  0  0  0  0  0
   59.1910   27.5150   46.0920 C   0  0  0  0  0  0  0  0  0  0  0  0
   60.3270   28.3390   46.1350 C   0  0  0  0  0  0  0  0  0  0  0  0
   60.3000   29.6090   45.5530 C   0  0  0  0  0  0  0  0  0  0  0  0
   59.1360   30.0730   44.9360 C   0  0  0  0  0  0  0  0  0  0  0  0
   57.9890   29.2710   44.9010 C   0  0  0  0  0  0  0  0  0  0  0  0
   56.5230   29.8830   44.1430 S   0  0  0  0  0  0  0  0  0  0  0  0
   55.1660   28.9810   44.7180 N   0  0  0  0  0  0  0  0  0  0  0  0
   56.6100   29.7440   42.6490 O   0  0  0  0  0  0  0  0  0  0  0  0
   56.3490   31.3340   44.4900 O   0  0  0  0  0  0  0  0  0  0  0  0
   58.0170   27.9960   45.4860 C   0  0  0  0  0  0  0  0  0  0  0  0
   56.6030   24.3420   45.8250 O   0  0  0  0  0  0  0  0  0  0  0  0
   56.5278   22.1846   45.0119 H   0  0  0  0  0  0  0  0  0  0  0  0
   56.3599   21.0017   43.6706 H   0  0  0  0  0  0  0  0  0  0  0  0
   57.7224   22.1722   43.6706 H   0  0  0  0  0  0  0  0  0  0  0  0
   53.7433   24.2729   44.0856 H   0  0  0  0  0  0  0  0  0  0  0  0
   54.3371   22.8437   45.0115 H   0  0  0  0  0  0  0  0  0  0  0  0
   61.2429   27.9830   46.6294 H   0  0  0  0  0  0  0  0  0  0  0  0
   61.1973   30.2447   45.5808 H   0  0  0  0  0  0  0  0  0  0  0  0
   59.1204   31.0721   44.4760 H   0  0  0  0  0  0  0  0  0  0  0  0
   55.5260   28.0490   45.0210 H   0  0  0  0  0  0  0  0  0  0  0  0
   57.1139   27.3682   45.4704 H   0  0  0  0  0  0  0  0  0  0  0  0
  1  2  1  0
  2  3  1  0
  3  4  1  0
  4  5  2  0
  5  6  1  0
  6  7  1  0
  7  8  2  3
  8  9  1  0
  9 10  2  0
  9 11  1  0
 11 12  2  0
 12 13  1  0
 13 14  2  0
 14 15  1  0
 15 16  1  0
 16 17  1  0
 16 18  2  0
 16 19  2  0
 15 20  2  0
  7 21  1  0
 21  4  1  0
 20 11  1  0
  1 22  1  0
  1 23  1  0
  1 24  1  0
  3 25  1  0
  3 26  1  0
 12 27  1  0
 13 28  1  0
 14 29  1  0
 17 30  1  0
 20 31  1  0
M  CHG  2   6  -1  17  -1
M  END
>  <UniqueID>  (86) 
80

>  <SMILES>  (86) 
CSCc1n[n-]c(=NC(=O)c2cccc(S([NH-])(=O)=O)c2)o1

>  <Energy>  (86) 
65.76536031611349

>  <Genealogy>  (86) 
CSCc1n[n-]c(=NC(=O)c2cccc(S([NH-])(=O)=O)c2)o1 (protonated)
CSCc1n[n-]c(=NC(=O)c2cccc(S([NH-])(=O)=O)c2)o1 (3D coordinates assigned)
CSCc1n[n-]c(=NC(=O)c2cccc(S([NH-])(=O)=O)c2)o1 (optimized conformer: 65.76536031611349 kcal/mol)

>  <smiles>  (86) 
CSCc1n[nH]c(=NC(=O)c2cccc(S(N)(=O)=O)c2)o1

>  <score_type>  (86) 
oracle

>  <origin>  (86) 
adg

>  <m_score__min__energy>  (86) 
-11.69

>  <m_primary>  (86) 
energy

$$$$
86:0
     RDKit          3D

 48 51  0  0  0  0  0  0  0  0999 V2000
   59.5600   26.6650   47.9840 O   0  0  0  0  0  0  0  0  0  0  0  0
   58.6140   27.3130   47.4580 C   0  0  0  0  0  0  0  0  0  0  0  0
   57.3760   26.6490   47.1630 N   0  0  0  0  0  0  0  0  0  0  0  0
   57.1810   25.2310   47.4660 C   0  0  0  0  0  0  0  0  0  0  0  0
   56.5370   24.5230   46.3010 C   0  0  0  0  0  0  0  0  0  0  0  0
   57.0540   23.2940   45.8560 C   0  0  0  0  0  0  0  0  0  0  0  0
   56.4870   22.6470   44.7540 C   0  0  0  0  0  0  0  0  0  0  0  0
   55.4080   23.2240   44.0820 C   0  0  0  0  0  0  0  0  0  0  0  0
   54.8970   24.4540   44.5050 C   0  0  0  0  0  0  0  0  0  0  0  0
   55.4600   25.1090   45.6070 C   0  0  0  0  0  0  0  0  0  0  0  0
   54.9480   26.3400   46.0020 O   0  0  0  0  0  0  0  0  0  0  0  0
   58.7880   28.7490   47.1500 C   0  0  0  0  0  0  0  0  0  0  0  0
   59.8670   29.4780   47.6700 C   0  0  0  0  0  0  0  0  0  0  0  0
   59.9970   30.8310   47.3570 C   0  0  0  0  0  0  0  0  0  0  0  0
   59.0570   31.4580   46.5310 C   0  0  0  0  0  0  0  0  0  0  0  0
   59.2050   32.8470   46.2230 N   0  0  0  0  0  0  0  0  0  0  0  0
   60.3210   33.7780   45.9640 C   0  0  0  0  0  0  0  0  0  0  0  0
   59.4720   34.9830   45.7510 C   0  0  0  0  0  0  0  0  0  0  0  0
   59.6240   35.9550   46.7250 F   0  0  0  0  0  0  0  0  0  0  0  0
   59.5020   35.4670   44.4540 F   0  0  0  0  0  0  0  0  0  0  0  0
   58.3520   34.0360   46.0150 C   0  0  0  0  0  0  0  0  0  0  0  0
   57.9870   30.7010   46.0250 C   0  0  0  0  0  0  0  0  0  0  0  0
   57.0270   31.2910   45.1930 O   0  0  0  0  0  0  0  0  0  0  0  0
   57.2990   31.6180   43.8290 C   0  0  0  0  0  0  0  0  0  0  0  0
   56.6730   30.6300   42.8310 C   0  0  0  0  0  0  0  0  0  0  0  0
   56.9670   29.1540   43.0460 C   0  0  0  0  0  0  0  0  0  0  0  0
   55.5860   29.7110   43.3690 C   0  0  0  0  0  0  0  0  0  0  0  0
   57.8870   29.3810   46.3490 N   0  0  0  0  0  0  0  0  0  0  0  0
   56.5970   27.1900   46.7200 H   0  0  0  0  0  0  0  0  0  0  0  0
   58.1569   24.7686   47.6754 H   0  0  0  0  0  0  0  0  0  0  0  0
   56.5222   25.1430   48.3425 H   0  0  0  0  0  0  0  0  0  0  0  0
   57.9090   22.8390   46.3774 H   0  0  0  0  0  0  0  0  0  0  0  0
   56.8918   21.6817   44.4159 H   0  0  0  0  0  0  0  0  0  0  0  0
   54.9597   22.7101   43.2189 H   0  0  0  0  0  0  0  0  0  0  0  0
   54.0500   24.9089   43.9706 H   0  0  0  0  0  0  0  0  0  0  0  0
   60.6057   28.9864   48.3201 H   0  0  0  0  0  0  0  0  0  0  0  0
   60.8420   31.4078   47.7611 H   0  0  0  0  0  0  0  0  0  0  0  0
   60.9970   33.8813   46.8256 H   0  0  0  0  0  0  0  0  0  0  0  0
   61.0222   33.5096   45.1601 H   0  0  0  0  0  0  0  0  0  0  0  0
   57.7701   34.3039   46.9092 H   0  0  0  0  0  0  0  0  0  0  0  0
   57.5646   33.9626   45.2504 H   0  0  0  0  0  0  0  0  0  0  0  0
   56.8990   32.6220   43.6241 H   0  0  0  0  0  0  0  0  0  0  0  0
   58.3896   31.5712   43.6937 H   0  0  0  0  0  0  0  0  0  0  0  0
   56.7576   31.3228   41.9808 H   0  0  0  0  0  0  0  0  0  0  0  0
   57.1031   28.4885   42.1808 H   0  0  0  0  0  0  0  0  0  0  0  0
   57.7261   28.5851   43.6029 H   0  0  0  0  0  0  0  0  0  0  0  0
   54.7250   29.4482   42.7369 H   0  0  0  0  0  0  0  0  0  0  0  0
   54.9346   29.7114   44.2554 H   0  0  0  0  0  0  0  0  0  0  0  0
  1  2  2  0
  2  3  1  0
  3  4  1  0
  4  5  1  0
  5  6  2  0
  6  7  1  0
  7  8  2  0
  8  9  1  0
  9 10  2  0
 10 11  1  0
  2 12  1  0
 12 13  2  0
 13 14  1  0
 14 15  2  0
 15 16  1  0
 16 17  1  0
 17 18  1  0
 18 19  1  0
 18 20  1  0
 18 21  1  0
 15 22  1  0
 22 23  1  0
 23 24  1  0
 24 25  1  0
 25 26  1  0
 26 27  1  0
 22 28  2  0
 10  5  1  0
 28 12  1  0
 21 16  1  0
 27 25  1  0
  3 29  1  0
  4 30  1  0
  4 31  1  0
  6 32  1  0
  7 33  1  0
  8 34  1  0
  9 35  1  0
 13 36  1  0
 14 37  1  0
 17 38  1  0
 17 39  1  0
 21 40  1  0
 21 41  1  0
 24 42  1  0
 24 43  1  0
 25 44  1  0
 26 45  1  0
 26 46  1  0
 27 47  1  0
 27 48  1  0
M  CHG  1  11  -1
M  END
>  <UniqueID>  (87) 
81

>  <SMILES>  (87) 
O=C(NCc1ccccc1[O-])c1ccc(N2CC(F)(F)C2)c(OCC2CC2)n1

>  <Energy>  (87) 
356.5710118832385

>  <Genealogy>  (87) 
O=C(NCc1ccccc1[O-])c1ccc(N2CC(F)(F)C2)c(OCC2CC2)n1 (protonated)
O=C(NCc1ccccc1[O-])c1ccc(N2CC(F)(F)C2)c(OCC2CC2)n1 (3D coordinates assigned)
O=C(NCc1ccccc1[O-])c1ccc(N2CC(F)(F)C2)c(OCC2CC2)n1 (nonaromatic ring conformer: 356.5710118832385 kcal/mol)

>  <smiles>  (87) 
O=C(NCc1ccccc1O)c1ccc(N2CC(F)(F)C2)c(OCC2CC2)n1

>  <score_type>  (87) 
oracle

>  <origin>  (87) 
adg

>  <m_score__min__energy>  (87) 
-11.789999999999999

>  <m_primary>  (87) 
energy

$$$$
87:0
     RDKit          3D

 37 39  0  0  0  0  0  0  0  0999 V2000
   60.4520   33.1000   51.6620 C   0  0  0  0  0  0  0  0  0  0  0  0
   59.9810   33.2560   50.2460 C   0  0  0  0  0  0  0  0  0  0  0  0
   58.8730   32.5270   49.7910 C   0  0  0  0  0  0  0  0  0  0  0  0
   58.4080   32.6940   48.4820 C   0  0  0  0  0  0  0  0  0  0  0  0
   59.0440   33.5970   47.6190 C   0  0  0  0  0  0  0  0  0  0  0  0
   58.4880   33.7910   45.9600 S   0  0  0  0  0  0  0  0  0  0  0  0
   57.0150   34.0820   45.9200 O   0  0  0  0  0  0  0  0  0  0  0  0
   59.2310   34.9360   45.3310 O   0  0  0  0  0  0  0  0  0  0  0  0
   58.8070   32.3430   45.0580 N   0  0  0  0  0  0  0  0  0  0  0  0
   58.8620   31.0190   45.6090 C   0  0  0  0  0  0  0  0  0  0  0  0
   57.8120   30.0970   45.4390 C   0  0  0  0  0  0  0  0  0  0  0  0
   57.8910   28.8100   46.0050 C   0  0  0  0  0  0  0  0  0  0  0  0
   56.8530   27.8670   45.8580 C   0  0  0  0  0  0  0  0  0  0  0  0
   55.8180   28.1720   45.2020 O   0  0  0  0  0  0  0  0  0  0  0  0
   56.9760   26.5840   46.4420 C   0  0  0  0  0  0  0  0  0  0  0  0
   55.9140   25.5500   46.3130 C   0  0  0  0  0  0  0  0  0  0  0  0
   54.5930   25.9160   45.9160 N   0  0  0  0  0  0  0  0  0  0  0  0
   56.1610   24.3370   46.5510 O   0  0  0  0  0  0  0  0  0  0  0  0
   58.1490   26.2900   47.1620 C   0  0  0  0  0  0  0  0  0  0  0  0
   59.1340   27.2140   47.2900 N   0  0  0  0  0  0  0  0  0  0  0  0
   59.0400   28.4500   46.7390 C   0  0  0  0  0  0  0  0  0  0  0  0
   60.0850   29.3640   46.9010 C   0  0  0  0  0  0  0  0  0  0  0  0
   59.9970   30.6410   46.3410 C   0  0  0  0  0  0  0  0  0  0  0  0
   61.0460   31.5380   46.5150 O   0  0  0  0  0  0  0  0  0  0  0  0
   60.1390   34.3390   48.0780 C   0  0  0  0  0  0  0  0  0  0  0  0
   60.6020   34.1750   49.3870 C   0  0  0  0  0  0  0  0  0  0  0  0
   59.6380   33.3696   52.3510 H   0  0  0  0  0  0  0  0  0  0  0  0
   60.7493   32.0554   51.8366 H   0  0  0  0  0  0  0  0  0  0  0  0
   61.3140   33.7606   51.8366 H   0  0  0  0  0  0  0  0  0  0  0  0
   58.3673   31.8209   50.4660 H   0  0  0  0  0  0  0  0  0  0  0  0
   57.5415   32.1154   48.1294 H   0  0  0  0  0  0  0  0  0  0  0  0
   56.9224   30.3842   44.8592 H   0  0  0  0  0  0  0  0  0  0  0  0
   54.0980   26.7140   46.3720 H   0  0  0  0  0  0  0  0  0  0  0  0
   58.2685   25.2999   47.6261 H   0  0  0  0  0  0  0  0  0  0  0  0
   60.9804   29.0767   47.4718 H   0  0  0  0  0  0  0  0  0  0  0  0
   60.6369   35.0537   47.4062 H   0  0  0  0  0  0  0  0  0  0  0  0
   61.4562   34.7687   49.7446 H   0  0  0  0  0  0  0  0  0  0  0  0
  1  2  1  0
  2  3  2  0
  3  4  1  0
  4  5  2  0
  5  6  1  0
  6  7  2  0
  6  8  2  0
  6  9  1  0
  9 10  1  0
 10 11  2  0
 11 12  1  0
 12 13  1  0
 13 14  2  0
 13 15  1  0
 15 16  1  0
 16 17  1  0
 16 18  2  0
 15 19  2  0
 19 20  1  0
 20 21  1  0
 21 22  1  0
 22 23  2  0
 23 24  1  0
  5 25  1  0
 25 26  2  0
 26  2  1  0
 23 10  1  0
 21 12  2  0
  1 27  1  0
  1 28  1  0
  1 29  1  0
  3 30  1  0
  4 31  1  0
 11 32  1  0
 17 33  1  0
 19 34  1  0
 22 35  1  0
 25 36  1  0
 26 37  1  0
M  CHG  4   9  -1  17  -1  20  -1  24  -1
M  END
>  <UniqueID>  (88) 
82

>  <SMILES>  (88) 
Cc1ccc(S(=O)(=O)[N-]c2cc3c(=O)c(C([NH-])=O)c[n-]c3cc2[O-])cc1

>  <Energy>  (88) 
49.12666173936916

>  <Genealogy>  (88) 
Cc1ccc(S(=O)(=O)[N-]c2cc3c(=O)c(C([NH-])=O)c[n-]c3cc2[O-])cc1 (protonated)
Cc1ccc(S(=O)(=O)[N-]c2cc3c(=O)c(C([NH-])=O)c[n-]c3cc2[O-])cc1 (3D coordinates assigned)
Cc1ccc(S(=O)(=O)[N-]c2cc3c(=O)c(C([NH-])=O)c[n-]c3cc2[O-])cc1 (optimized conformer: 49.12666173936916 kcal/mol)

>  <smiles>  (88) 
Cc1ccc(S(=O)(=O)Nc2cc3c(=O)c(C(N)=O)c[nH]c3cc2O)cc1

>  <score_type>  (88) 
oracle

>  <origin>  (88) 
adg

>  <m_score__min__energy>  (88) 
-13.68

>  <m_primary>  (88) 
energy

$$$$
88:0
     RDKit          3D

 34 36  0  0  0  0  0  0  0  0999 V2000
   58.1910   20.5690   46.2690 N   0  0  0  0  0  0  0  0  0  0  0  0
   57.6650   21.4630   45.2860 C   0  0  0  0  0  0  0  0  0  0  0  0
   57.2480   20.9750   44.0400 C   0  0  0  0  0  0  0  0  0  0  0  0
   56.7150   21.8460   43.0870 C   0  0  0  0  0  0  0  0  0  0  0  0
   56.6010   23.2100   43.3700 C   0  0  0  0  0  0  0  0  0  0  0  0
   57.0360   23.7180   44.6040 C   0  0  0  0  0  0  0  0  0  0  0  0
   56.8900   25.1210   44.8750 N   0  0  0  0  0  0  0  0  0  0  0  0
   55.8030   25.6820   45.6320 C   0  0  0  0  0  0  0  0  0  0  0  0
   54.8370   24.9620   45.9960 O   0  0  0  0  0  0  0  0  0  0  0  0
   55.7870   27.0750   45.9690 N   0  0  0  0  0  0  0  0  0  0  0  0
   56.6280   28.0830   45.3910 C   0  0  0  0  0  0  0  0  0  0  0  0
   56.0240   29.1970   44.7960 C   0  0  0  0  0  0  0  0  0  0  0  0
   56.8010   30.2060   44.2200 C   0  0  0  0  0  0  0  0  0  0  0  0
   58.1950   30.1250   44.2500 C   0  0  0  0  0  0  0  0  0  0  0  0
   58.8200   29.0380   44.8750 C   0  0  0  0  0  0  0  0  0  0  0  0
   60.2170   28.9510   44.9460 C   0  0  0  0  0  0  0  0  0  0  0  0
   60.8140   27.8710   45.6000 C   0  0  0  0  0  0  0  0  0  0  0  0
   60.0080   26.8920   46.1830 C   0  0  0  0  0  0  0  0  0  0  0  0
   58.6540   26.9860   46.1050 N   0  0  0  0  0  0  0  0  0  0  0  0
   58.0370   28.0150   45.4600 C   0  0  0  0  0  0  0  0  0  0  0  0
   57.5510   22.8330   45.5670 C   0  0  0  0  0  0  0  0  0  0  0  0
   57.7370   20.4750   47.2050 H   0  0  0  0  0  0  0  0  0  0  0  0
   59.0380   19.9910   46.0680 H   0  0  0  0  0  0  0  0  0  0  0  0
   57.3408   19.9029   43.8120 H   0  0  0  0  0  0  0  0  0  0  0  0
   56.3845   21.4579   42.1123 H   0  0  0  0  0  0  0  0  0  0  0  0
   56.1678   23.8894   42.6212 H   0  0  0  0  0  0  0  0  0  0  0  0
   57.6820   25.7450   44.6040 H   0  0  0  0  0  0  0  0  0  0  0  0
   54.9272   29.2790   44.7817 H   0  0  0  0  0  0  0  0  0  0  0  0
   56.3126   31.0674   43.7411 H   0  0  0  0  0  0  0  0  0  0  0  0
   58.8021   30.9145   43.7830 H   0  0  0  0  0  0  0  0  0  0  0  0
   60.8419   29.7316   44.4876 H   0  0  0  0  0  0  0  0  0  0  0  0
   61.9098   27.7926   45.6551 H   0  0  0  0  0  0  0  0  0  0  0  0
   60.4696   26.0421   46.7070 H   0  0  0  0  0  0  0  0  0  0  0  0
   57.8670   23.2173   46.5481 H   0  0  0  0  0  0  0  0  0  0  0  0
  1  2  1  0
  2  3  2  0
  3  4  1  0
  4  5  2  0
  5  6  1  0
  6  7  1  0
  7  8  1  0
  8  9  2  0
  8 10  1  0
 10 11  1  0
 11 12  2  0
 12 13  1  0
 13 14  2  0
 14 15  1  0
 15 16  2  0
 16 17  1  0
 17 18  2  0
 18 19  1  0
 19 20  2  0
  6 21  2  0
 21  2  1  0
 20 11  1  0
 20 15  1  0
  1 22  1  0
  1 23  1  0
  3 24  1  0
  4 25  1  0
  5 26  1  0
  7 27  1  0
 12 28  1  0
 13 29  1  0
 14 30  1  0
 16 31  1  0
 17 32  1  0
 18 33  1  0
 21 34  1  0
M  CHG  1  10  -1
M  END
>  <UniqueID>  (89) 
83

>  <SMILES>  (89) 
Nc1cccc(NC(=O)[N-]c2cccc3cccnc23)c1

>  <Energy>  (89) 
48.56662731632205

>  <Genealogy>  (89) 
Nc1cccc(NC(=O)[N-]c2cccc3cccnc23)c1 (protonated)
Nc1cccc(NC(=O)[N-]c2cccc3cccnc23)c1 (3D coordinates assigned)
Nc1cccc(NC(=O)[N-]c2cccc3cccnc23)c1 (optimized conformer: 48.56662731632205 kcal/mol)

>  <smiles>  (89) 
Nc1cccc(NC(=O)Nc2cccc3cccnc23)c1

>  <score_type>  (89) 
oracle

>  <origin>  (89) 
adg

>  <m_score__min__energy>  (89) 
-9.1799999999999997

>  <m_primary>  (89) 
energy

$$$$
89:0
     RDKit          3D

 56 58  0  0  0  0  0  0  0  0999 V2000
   60.0030   27.2460   47.9380 C   0  0  0  0  0  0  0  0  0  0  0  0
   59.1090   27.8790   46.9050 C   0  0  0  0  0  0  0  0  0  0  0  0
   57.8400   27.3160   46.6920 C   0  0  0  0  0  0  0  0  0  0  0  0
   56.9370   27.8990   45.8000 C   0  0  0  0  0  0  0  0  0  0  0  0
   55.6870   27.3140   45.6310 O   0  0  0  0  0  0  0  0  0  0  0  0
   57.2940   29.0630   45.1000 C   0  0  0  0  0  0  0  0  0  0  0  0
   56.1600   29.9050   44.0380 S   0  0  0  0  0  0  0  0  0  0  0  0
   54.7720   29.3380   44.1580 O   0  0  0  0  0  0  0  0  0  0  0  0
   56.6240   29.7400   42.6180 O   0  0  0  0  0  0  0  0  0  0  0  0
   56.1320   31.6030   44.4290 N   0  0  0  0  0  0  0  0  0  0  0  0
   57.3530   32.2790   43.9830 C   0  0  0  0  0  0  0  0  0  0  0  0
   58.0120   33.0180   45.1180 C   0  0  0  0  0  0  0  0  0  0  0  0
   57.7460   32.6480   46.4480 C   0  0  0  0  0  0  0  0  0  0  0  0
   58.3050   33.3710   47.5040 C   0  0  0  0  0  0  0  0  0  0  0  0
   59.1370   34.4630   47.2440 C   0  0  0  0  0  0  0  0  0  0  0  0
   59.4180   34.8280   45.9260 C   0  0  0  0  0  0  0  0  0  0  0  0
   58.8610   34.1080   44.8640 C   0  0  0  0  0  0  0  0  0  0  0  0
   58.5760   29.5980   45.2670 C   0  0  0  0  0  0  0  0  0  0  0  0
   59.4990   29.0150   46.1510 C   0  0  0  0  0  0  0  0  0  0  0  0
   60.8380   29.6370   46.2740 C   0  0  0  0  0  0  0  0  0  0  0  0
   61.7270   29.3540   45.4260 O   0  0  0  0  0  0  0  0  0  0  0  0
   61.1540   30.4920   47.3850 N   0  0  0  0  0  0  0  0  0  0  0  0
   62.4630   31.1240   47.5520 C   0  0  0  0  0  0  0  0  0  0  0  0
   62.6140   31.7330   48.9530 C   0  0  0  0  0  0  0  0  0  0  0  0
   61.3530   31.6290   49.7730 C   0  0  0  0  0  0  0  0  0  0  0  0
   60.4780   32.7230   49.8790 C   0  0  0  0  0  0  0  0  0  0  0  0
   59.3040   32.6180   50.6300 C   0  0  0  0  0  0  0  0  0  0  0  0
   58.9880   31.4190   51.2820 C   0  0  0  0  0  0  0  0  0  0  0  0
   57.5140   31.2760   52.2380 S   0  0  0  0  0  0  0  0  0  0  0  0
   56.6810   29.8230   51.8100 N   0  0  0  0  0  0  0  0  0  0  0  0
   56.6290   32.4610   51.9710 O   0  0  0  0  0  0  0  0  0  0  0  0
   57.8460   31.2370   53.7020 O   0  0  0  0  0  0  0  0  0  0  0  0
   59.8560   30.3250   51.1770 C   0  0  0  0  0  0  0  0  0  0  0  0
   61.0280   30.4260   50.4220 C   0  0  0  0  0  0  0  0  0  0  0  0
   59.6400   27.5030   48.9441 H   0  0  0  0  0  0  0  0  0  0  0  0
   59.9921   26.1533   47.8123 H   0  0  0  0  0  0  0  0  0  0  0  0
   61.0301   27.6193   47.8123 H   0  0  0  0  0  0  0  0  0  0  0  0
   57.5533   26.4034   47.2351 H   0  0  0  0  0  0  0  0  0  0  0  0
   58.0543   31.5293   43.5878 H   0  0  0  0  0  0  0  0  0  0  0  0
   57.0833   33.0068   43.2035 H   0  0  0  0  0  0  0  0  0  0  0  0
   57.0954   31.7861   46.6576 H   0  0  0  0  0  0  0  0  0  0  0  0
   58.0898   33.0801   48.5428 H   0  0  0  0  0  0  0  0  0  0  0  0
   59.5705   35.0350   48.0776 H   0  0  0  0  0  0  0  0  0  0  0  0
   60.0788   35.6835   45.7224 H   0  0  0  0  0  0  0  0  0  0  0  0
   59.0884   34.3961   43.8270 H   0  0  0  0  0  0  0  0  0  0  0  0
   58.8665   30.4918   44.6954 H   0  0  0  0  0  0  0  0  0  0  0  0
   60.4870   30.5370   48.1880 H   0  0  0  0  0  0  0  0  0  0  0  0
   63.2476   30.3675   47.4037 H   0  0  0  0  0  0  0  0  0  0  0  0
   62.5557   31.9314   46.8107 H   0  0  0  0  0  0  0  0  0  0  0  0
   63.4214   31.2046   49.4810 H   0  0  0  0  0  0  0  0  0  0  0  0
   62.8407   32.8020   48.8273 H   0  0  0  0  0  0  0  0  0  0  0  0
   60.7182   33.6672   49.3682 H   0  0  0  0  0  0  0  0  0  0  0  0
   58.6255   33.4802   50.7094 H   0  0  0  0  0  0  0  0  0  0  0  0
   55.8210   30.1040   51.2890 H   0  0  0  0  0  0  0  0  0  0  0  0
   59.6146   29.3827   51.6906 H   0  0  0  0  0  0  0  0  0  0  0  0
   61.6995   29.5590   50.3355 H   0  0  0  0  0  0  0  0  0  0  0  0
  1  2  1  0
  2  3  2  0
  3  4  1  0
  4  5  1  0
  4  6  2  0
  6  7  1  0
  7  8  2  0
  7  9  2  0
  7 10  1  0
 10 11  1  0
 11 12  1  0
 12 13  2  0
 13 14  1  0
 14 15  2  0
 15 16  1  0
 16 17  2  0
  6 18  1  0
 18 19  2  0
 19 20  1  0
 20 21  2  0
 20 22  1  0
 22 23  1  0
 23 24  1  0
 24 25  1  0
 25 26  2  0
 26 27  1  0
 27 28  2  0
 28 29  1  0
 29 30  1  0
 29 31  2  0
 29 32  2  0
 28 33  1  0
 33 34  2  0
 19  2  1  0
 34 25  1  0
 17 12  1  0
  1 35  1  0
  1 36  1  0
  1 37  1  0
  3 38  1  0
 11 39  1  0
 11 40  1  0
 13 41  1  0
 14 42  1  0
 15 43  1  0
 16 44  1  0
 17 45  1  0
 18 46  1  0
 22 47  1  0
 23 48  1  0
 23 49  1  0
 24 50  1  0
 24 51  1  0
 26 52  1  0
 27 53  1  0
 30 54  1  0
 33 55  1  0
 34 56  1  0
M  CHG  3   5  -1  10  -1  30  -1
M  END
>  <UniqueID>  (90) 
84

>  <SMILES>  (90) 
Cc1cc([O-])c(S(=O)(=O)[N-]Cc2ccccc2)cc1C(=O)NCCc1ccc(S([NH-])(=O)=O)cc1

>  <Energy>  (90) 
52.098975855411204

>  <Genealogy>  (90) 
Cc1cc([O-])c(S(=O)(=O)[N-]Cc2ccccc2)cc1C(=O)NCCc1ccc(S([NH-])(=O)=O)cc1 (protonated)
Cc1cc([O-])c(S(=O)(=O)[N-]Cc2ccccc2)cc1C(=O)NCCc1ccc(S([NH-])(=O)=O)cc1 (3D coordinates assigned)
Cc1cc([O-])c(S(=O)(=O)[N-]Cc2ccccc2)cc1C(=O)NCCc1ccc(S([NH-])(=O)=O)cc1 (optimized conformer: 52.098975855411204 kcal/mol)

>  <smiles>  (90) 
Cc1cc(O)c(S(=O)(=O)NCc2ccccc2)cc1C(=O)NCCc1ccc(S(N)(=O)=O)cc1

>  <score_type>  (90) 
oracle

>  <origin>  (90) 
adg

>  <m_score__min__energy>  (90) 
-14.380000000000001

>  <m_primary>  (90) 
energy

$$$$
90:0
     RDKit          3D

 42 44  0  0  0  0  0  0  0  0999 V2000
   58.4340   33.8290   46.9830 C   0  0  0  0  0  0  0  0  0  0  0  0
   57.7540   33.6390   45.8480 C   0  0  0  0  0  0  0  0  0  0  0  0
   58.4120   33.7930   44.5040 C   0  0  0  0  0  0  0  0  0  0  0  0
   58.5300   32.5000   43.8290 N   0  0  0  0  0  0  0  0  0  0  0  0
   57.9040   31.4190   44.1870 C   0  0  0  0  0  0  0  0  0  0  0  0
   56.6110   31.2240   43.7700 N   0  0  0  0  0  0  0  0  0  0  0  0
   55.9090   30.1060   44.1210 C   0  0  0  0  0  0  0  0  0  0  0  0
   54.7220   29.9440   43.7360 O   0  0  0  0  0  0  0  0  0  0  0  0
   56.5480   29.1650   44.9150 C   0  0  0  0  0  0  0  0  0  0  0  0
   56.0950   28.0050   45.4200 N   0  0  0  0  0  0  0  0  0  0  0  0
   57.1450   27.5260   46.1380 C   0  0  0  0  0  0  0  0  0  0  0  0
   57.0860   26.2280   46.8980 C   0  0  0  0  0  0  0  0  0  0  0  0
   56.4580   25.1350   46.0680 C   0  0  0  0  0  0  0  0  0  0  0  0
   57.2030   23.9910   45.7340 C   0  0  0  0  0  0  0  0  0  0  0  0
   56.6330   22.9740   44.9620 C   0  0  0  0  0  0  0  0  0  0  0  0
   55.3120   23.0850   44.5240 C   0  0  0  0  0  0  0  0  0  0  0  0
   54.5570   24.2100   44.8600 C   0  0  0  0  0  0  0  0  0  0  0  0
   55.1190   25.2320   45.6330 C   0  0  0  0  0  0  0  0  0  0  0  0
   54.3410   26.3340   45.9680 O   0  0  0  0  0  0  0  0  0  0  0  0
   58.2350   28.3470   46.0830 N   0  0  0  0  0  0  0  0  0  0  0  0
   59.5220   28.2190   46.7680 C   0  0  0  0  0  0  0  0  0  0  0  0
   59.7800   29.4160   47.6370 C   0  0  0  0  0  0  0  0  0  0  0  0
   58.9070   29.8050   48.5690 C   0  0  0  0  0  0  0  0  0  0  0  0
   57.8230   29.3690   45.3160 C   0  0  0  0  0  0  0  0  0  0  0  0
   58.5210   30.4800   44.9750 N   0  0  0  0  0  0  0  0  0  0  0  0
   57.9292   33.7101   47.9531 H   0  0  0  0  0  0  0  0  0  0  0  0
   59.4984   34.1042   46.9470 H   0  0  0  0  0  0  0  0  0  0  0  0
   56.6901   33.3640   45.8978 H   0  0  0  0  0  0  0  0  0  0  0  0
   57.8074   34.4699   43.8825 H   0  0  0  0  0  0  0  0  0  0  0  0
   59.4209   34.2055   44.6519 H   0  0  0  0  0  0  0  0  0  0  0  0
   55.1480   27.5820   45.3010 H   0  0  0  0  0  0  0  0  0  0  0  0
   58.1076   25.9270   47.1731 H   0  0  0  0  0  0  0  0  0  0  0  0
   56.4698   26.3793   47.7966 H   0  0  0  0  0  0  0  0  0  0  0  0
   58.2419   23.8950   46.0824 H   0  0  0  0  0  0  0  0  0  0  0  0
   57.2260   22.0855   44.6995 H   0  0  0  0  0  0  0  0  0  0  0  0
   54.8660   22.2857   43.9139 H   0  0  0  0  0  0  0  0  0  0  0  0
   53.5157   24.2934   44.5156 H   0  0  0  0  0  0  0  0  0  0  0  0
   59.5101   27.3142   47.3934 H   0  0  0  0  0  0  0  0  0  0  0  0
   60.3197   28.1501   46.0137 H   0  0  0  0  0  0  0  0  0  0  0  0
   60.7110   29.9862   47.5024 H   0  0  0  0  0  0  0  0  0  0  0  0
   59.1228   30.6861   49.1911 H   0  0  0  0  0  0  0  0  0  0  0  0
   57.9719   29.2444   48.7148 H   0  0  0  0  0  0  0  0  0  0  0  0
  1  2  2  0
  2  3  1  0
  3  4  1  0
  4  5  2  3
  5  6  1  0
  6  7  1  0
  7  8  2  0
  7  9  1  0
  9 10  1  0
 10 11  2  0
 11 12  1  0
 12 13  1  0
 13 14  2  0
 14 15  1  0
 15 16  2  0
 16 17  1  0
 17 18  2  0
 18 19  1  0
 11 20  1  0
 20 21  1  0
 21 22  1  0
 22 23  2  0
 20 24  1  0
 24 25  1  0
 25  5  1  0
 24  9  2  0
 18 13  1  0
  1 26  1  0
  1 27  1  0
  2 28  1  0
  3 29  1  0
  3 30  1  0
 10 31  1  0
 12 32  1  0
 12 33  1  0
 14 34  1  0
 15 35  1  0
 16 36  1  0
 17 37  1  0
 21 38  1  0
 21 39  1  0
 22 40  1  0
 23 41  1  0
 23 42  1  0
M  CHG  4   6  -1  10   1  19  -1  25  -1
M  END
>  <UniqueID>  (91) 
85

>  <SMILES>  (91) 
C=CCN=c1[n-]c(=O)c2[nH+]c(Cc3ccccc3[O-])n(CC=C)c2[n-]1

>  <Energy>  (91) 
78.38450869670146

>  <Genealogy>  (91) 
C=CCN=c1[n-]c(=O)c2[nH+]c(Cc3ccccc3[O-])n(CC=C)c2[n-]1 (protonated)
C=CCN=c1[n-]c(=O)c2[nH+]c(Cc3ccccc3[O-])n(CC=C)c2[n-]1 (3D coordinates assigned)
C=CCN=c1[n-]c(=O)c2[nH+]c(Cc3ccccc3[O-])n(CC=C)c2[n-]1 (optimized conformer: 78.38450869670146 kcal/mol)

>  <smiles>  (91) 
C=CCN=c1[nH]c(=O)c2nc(Cc3ccccc3O)n(CC=C)c2[nH]1

>  <score_type>  (91) 
oracle

>  <origin>  (91) 
adg

>  <m_score__min__energy>  (91) 
-11.67

>  <m_primary>  (91) 
energy

$$$$
91:0
     RDKit          3D

 62 65  0  0  0  0  0  0  0  0999 V2000
   57.7630   29.5220   52.4090 H   0  0  0  0  0  0  0  0  0  0  0  0
   57.3660   29.9000   51.5820 O   0  0  0  0  0  0  0  0  0  0  0  0
   57.1910   31.2690   51.8210 C   0  0  0  0  0  0  0  0  0  0  0  0
   56.2410   31.6018   51.3774 H   0  0  0  0  0  0  0  0  0  0  0  0
   58.0196   31.8331   51.3680 H   0  0  0  0  0  0  0  0  0  0  0  0
   57.1650   31.5160   53.3400 C   0  0  0  0  0  0  0  0  0  0  0  0
   56.9101   30.5697   53.8396 H   0  0  0  0  0  0  0  0  0  0  0  0
   56.4206   32.3055   53.5204 H   0  0  0  0  0  0  0  0  0  0  0  0
   58.4480   32.0040   53.8950 N   0  0  0  0  0  0  0  0  0  0  0  0
   59.6220   31.2280   53.4470 C   0  0  0  0  0  0  0  0  0  0  0  0
   59.6275   31.1801   52.3481 H   0  0  0  0  0  0  0  0  0  0  0  0
   59.5624   30.2135   53.8680 H   0  0  0  0  0  0  0  0  0  0  0  0
   60.9160   31.8940   53.9310 C   0  0  0  0  0  0  0  0  0  0  0  0
   61.7711   31.2959   53.5832 H   0  0  0  0  0  0  0  0  0  0  0  0
   60.8740   31.9431   55.0291 H   0  0  0  0  0  0  0  0  0  0  0  0
   61.0700   33.2850   53.4240 N   0  0  0  0  0  0  0  0  0  0  0  0
   62.1020   33.3830   52.3730 C   0  0  0  0  0  0  0  0  0  0  0  0
   62.9417   32.7195   52.6272 H   0  0  0  0  0  0  0  0  0  0  0  0
   62.4479   34.4253   52.3101 H   0  0  0  0  0  0  0  0  0  0  0  0
   61.5350   32.9760   51.0370 C   0  0  0  0  0  0  0  0  0  0  0  0
   61.3620   31.6170   50.7350 C   0  0  0  0  0  0  0  0  0  0  0  0
   61.6388   30.8528   51.4762 H   0  0  0  0  0  0  0  0  0  0  0  0
   60.8400   31.2280   49.4980 C   0  0  0  0  0  0  0  0  0  0  0  0
   60.7051   30.1596   49.2738 H   0  0  0  0  0  0  0  0  0  0  0  0
   60.4860   32.1930   48.5380 C   0  0  0  0  0  0  0  0  0  0  0  0
   59.9350   31.8030   47.2200 C   0  0  0  0  0  0  0  0  0  0  0  0
   60.1660   30.6450   46.7800 O   0  0  0  0  0  0  0  0  0  0  0  0
   59.1480   32.7260   46.4400 N   0  0  0  0  0  0  0  0  0  0  0  0
   59.0820   33.7210   46.7470 H   0  0  0  0  0  0  0  0  0  0  0  0
   58.4810   32.3770   45.2150 C   0  0  0  0  0  0  0  0  0  0  0  0
   58.7240   33.0790   44.0220 C   0  0  0  0  0  0  0  0  0  0  0  0
   59.4212   33.9298   44.0196 H   0  0  0  0  0  0  0  0  0  0  0  0
   58.0840   32.7010   42.8390 C   0  0  0  0  0  0  0  0  0  0  0  0
   58.2670   33.2649   41.9124 H   0  0  0  0  0  0  0  0  0  0  0  0
   57.2130   31.6100   42.8290 C   0  0  0  0  0  0  0  0  0  0  0  0
   56.6995   31.3281   41.8979 H   0  0  0  0  0  0  0  0  0  0  0  0
   56.9890   30.8700   44.0030 C   0  0  0  0  0  0  0  0  0  0  0  0
   56.0700   29.7070   44.0010 C   0  0  0  0  0  0  0  0  0  0  0  0
   55.4760   29.3930   42.9340 O   0  0  0  0  0  0  0  0  0  0  0  0
   55.8740   28.8830   45.1620 N   0  0  0  0  0  0  0  0  0  0  0  0
   56.6770   27.9490   45.5840 C   0  0  0  0  0  0  0  0  0  0  0  0
   58.0250   28.1550   45.6430 N   0  0  0  0  0  0  0  0  0  0  0  0
   58.8810   27.2000   46.0940 C   0  0  0  0  0  0  0  0  0  0  0  0
   59.9622   27.4004   46.1226 H   0  0  0  0  0  0  0  0  0  0  0  0
   58.3890   25.9650   46.5210 C   0  0  0  0  0  0  0  0  0  0  0  0
   59.0774   25.1869   46.8825 H   0  0  0  0  0  0  0  0  0  0  0  0
   57.0140   25.7290   46.4840 C   0  0  0  0  0  0  0  0  0  0  0  0
   56.6116   24.7626   46.8217 H   0  0  0  0  0  0  0  0  0  0  0  0
   56.1490   26.7230   46.0170 C   0  0  0  0  0  0  0  0  0  0  0  0
   54.7780   26.4870   45.9840 O   0  0  0  0  0  0  0  0  0  0  0  0
   57.6230   31.2660   45.1930 C   0  0  0  0  0  0  0  0  0  0  0  0
   57.4449   30.6986   46.1184 H   0  0  0  0  0  0  0  0  0  0  0  0
   60.6420   33.5540   48.8540 C   0  0  0  0  0  0  0  0  0  0  0  0
   60.3483   34.3209   48.1221 H   0  0  0  0  0  0  0  0  0  0  0  0
   61.1670   33.9410   50.0900 C   0  0  0  0  0  0  0  0  0  0  0  0
   61.2921   35.0092   50.3208 H   0  0  0  0  0  0  0  0  0  0  0  0
   59.8020   33.8930   52.9580 C   0  0  0  0  0  0  0  0  0  0  0  0
   59.6069   33.5669   51.9257 H   0  0  0  0  0  0  0  0  0  0  0  0
   59.9034   34.9871   53.0093 H   0  0  0  0  0  0  0  0  0  0  0  0
   58.6200   33.4750   53.8460 C   0  0  0  0  0  0  0  0  0  0  0  0
   57.6999   33.9259   53.4460 H   0  0  0  0  0  0  0  0  0  0  0  0
   58.8262   33.8246   54.8684 H   0  0  0  0  0  0  0  0  0  0  0  0
  1  2  1  0
  2  3  1  0
  3  4  1  0
  3  5  1  0
  3  6  1  0
  6  7  1  0
  6  8  1  0
  6  9  1  0
  9 10  1  0
 10 11  1  0
 10 12  1  0
 10 13  1  0
 13 14  1  0
 13 15  1  0
 13 16  1  0
 16 17  1  0
 17 18  1  0
 17 19  1  0
 17 20  1  0
 20 21  2  0
 21 22  1  0
 21 23  1  0
 23 24  1  0
 23 25  2  0
 25 26  1  0
 26 27  2  0
 26 28  1  0
 28 29  1  0
 28 30  1  0
 30 31  2  0
 31 32  1  0
 31 33  1  0
 33 34  1  0
 33 35  2  0
 35 36  1  0
 35 37  1  0
 37 38  1  0
 38 39  2  0
 38 40  1  0
 40 41  2  0
 41 42  1  0
 42 43  1  0
 43 44  1  0
 43 45  2  0
 45 46  1  0
 45 47  1  0
 47 48  1  0
 47 49  2  0
 49 50  1  0
 37 51  2  0
 51 52  1  0
 25 53  1  0
 53 54  1  0
 53 55  2  0
 55 56  1  0
 16 57  1  0
 57 58  1  0
 57 59  1  0
 57 60  1  0
 60 61  1  0
 60 62  1  0
 60  9  1  0
 55 20  1  0
 51 30  1  0
 49 41  1  0
M  CHG  2  42  -1  50  -1
M  END
>  <UniqueID>  (92) 
86

>  <SMILES>  (92) 
O=C(/N=c1\[n-]cccc1[O-])c1cccc(NC(=O)c2ccc(CN3CCN(CCO)CC3)cc2)c1

>  <Energy>  (92) 
94.91942211813688

>  <Genealogy>  (92) 
O=C(N=c1[n-]cccc1[O-])c1cccc(NC(=O)c2ccc(CN3CCN(CCO)CC3)cc2)c1 (protonated)
O=C(/N=c1\[n-]cccc1[O-])c1cccc(NC(=O)c2ccc(CN3CCN(CCO)CC3)cc2)c1 (cis-trans isomerization)
O=C(/N=c1\[n-]cccc1[O-])c1cccc(NC(=O)c2ccc(CN3CCN(CCO)CC3)cc2)c1 (3D coordinates assigned)
O=C(/N=c1\[n-]cccc1[O-])c1cccc(NC(=O)c2ccc(CN3CCN(CCO)CC3)cc2)c1 (nonaromatic ring conformer: 94.91942211813688 kcal/mol)

>  <smiles>  (92) 
O=C(N=c1[nH]cccc1O)c1cccc(NC(=O)c2ccc(CN3CCN(CCO)CC3)cc2)c1

>  <score_type>  (92) 
oracle

>  <origin>  (92) 
adg

>  <m_score__min__energy>  (92) 
-13.140000000000001

>  <m_primary>  (92) 
energy

$$$$
92:0
     RDKit          3D

 33 34  0  0  0  0  0  0  0  0999 V2000
   52.5440   23.0930   46.3420 C   0  0  0  0  0  0  0  0  0  0  0  0
   53.2760   24.0520   45.5860 O   0  0  0  0  0  0  0  0  0  0  0  0
   54.6620   24.0020   45.3690 C   0  0  0  0  0  0  0  0  0  0  0  0
   55.3180   22.8170   44.9830 C   0  0  0  0  0  0  0  0  0  0  0  0
   56.6990   22.8100   44.7870 C   0  0  0  0  0  0  0  0  0  0  0  0
   57.4400   23.9790   44.9660 C   0  0  0  0  0  0  0  0  0  0  0  0
   56.8000   25.1780   45.3230 C   0  0  0  0  0  0  0  0  0  0  0  0
   57.5760   26.4240   45.5320 C   0  0  0  0  0  0  0  0  0  0  0  0
   57.1660   27.4750   46.2610 C   0  0  0  0  0  0  0  0  0  0  0  0
   57.4380   28.8930   45.9260 C   0  0  0  0  0  0  0  0  0  0  0  0
   56.5000   29.6210   45.1880 C   0  0  0  0  0  0  0  0  0  0  0  0
   55.3100   29.0270   44.7740 O   0  0  0  0  0  0  0  0  0  0  0  0
   56.7400   30.9210   44.8900 N   0  0  0  0  0  0  0  0  0  0  0  0
   57.8850   31.5400   45.2710 C   0  0  0  0  0  0  0  0  0  0  0  0
   58.0410   32.7590   44.9890 O   0  0  0  0  0  0  0  0  0  0  0  0
   58.8550   30.8450   45.9490 N   0  0  0  0  0  0  0  0  0  0  0  0
   60.0900   31.5240   46.3790 C   0  0  0  0  0  0  0  0  0  0  0  0
   58.6400   29.5310   46.2860 C   0  0  0  0  0  0  0  0  0  0  0  0
   59.5280   28.8830   46.9080 O   0  0  0  0  0  0  0  0  0  0  0  0
   55.4100   25.1760   45.5430 C   0  0  0  0  0  0  0  0  0  0  0  0
   54.7610   26.3460   45.9260 O   0  0  0  0  0  0  0  0  0  0  0  0
   52.6896   23.2838   47.4155 H   0  0  0  0  0  0  0  0  0  0  0  0
   51.4745   23.1721   46.0973 H   0  0  0  0  0  0  0  0  0  0  0  0
   52.9023   22.0822   46.0973 H   0  0  0  0  0  0  0  0  0  0  0  0
   54.7390   21.8934   44.8355 H   0  0  0  0  0  0  0  0  0  0  0  0
   57.2058   21.8799   44.4903 H   0  0  0  0  0  0  0  0  0  0  0  0
   58.5310   23.9617   44.8269 H   0  0  0  0  0  0  0  0  0  0  0  0
   58.5638   26.4930   45.0530 H   0  0  0  0  0  0  0  0  0  0  0  0
   56.5863   27.2684   47.1728 H   0  0  0  0  0  0  0  0  0  0  0  0
   55.1400   28.0410   44.9250 H   0  0  0  0  0  0  0  0  0  0  0  0
   60.1321   31.5472   47.4780 H   0  0  0  0  0  0  0  0  0  0  0  0
   60.9626   30.9788   45.9900 H   0  0  0  0  0  0  0  0  0  0  0  0
   60.0972   32.5529   45.9900 H   0  0  0  0  0  0  0  0  0  0  0  0
  1  2  1  0
  2  3  1  0
  3  4  2  0
  4  5  1  0
  5  6  2  0
  6  7  1  0
  7  8  1  0
  8  9  2  3
  9 10  1  0
 10 11  2  0
 11 12  1  0
 11 13  1  0
 13 14  1  0
 14 15  2  0
 14 16  1  0
 16 17  1  0
 16 18  1  0
 18 19  2  0
  7 20  2  0
 20 21  1  0
 20  3  1  0
 18 10  1  0
  1 22  1  0
  1 23  1  0
  1 24  1  0
  4 25  1  0
  5 26  1  0
  6 27  1  0
  8 28  1  0
  9 29  1  0
 12 30  1  0
 17 31  1  0
 17 32  1  0
 17 33  1  0
M  CHG  2  13  -1  21  -1
M  END
>  <UniqueID>  (93) 
87

>  <SMILES>  (93) 
COc1cccc(C=Cc2c(O)[n-]c(=O)n(C)c2=O)c1[O-]

>  <Energy>  (93) 
48.95547611281611

>  <Genealogy>  (93) 
COc1cccc(C=Cc2c(O)[n-]c(=O)n(C)c2=O)c1[O-] (protonated)
COc1cccc(C=Cc2c(O)[n-]c(=O)n(C)c2=O)c1[O-] (3D coordinates assigned)
COc1cccc(C=Cc2c(O)[n-]c(=O)n(C)c2=O)c1[O-] (optimized conformer: 48.95547611281611 kcal/mol)

>  <smiles>  (93) 
COc1cccc(C=Cc2c(O)[nH]c(=O)n(C)c2=O)c1O

>  <score_type>  (93) 
oracle

>  <origin>  (93) 
adg

>  <m_score__min__energy>  (93) 
-12.640000000000001

>  <m_primary>  (93) 
energy

$$$$
93:0
     RDKit          3D

 49 51  0  0  0  0  0  0  0  0999 V2000
   60.3750   26.9270   46.5430 C   0  0  0  0  0  0  0  0  0  0  0  0
   60.0500   28.2090   47.2490 C   0  0  0  0  0  0  0  0  0  0  0  0
   60.7720   29.3780   46.9570 C   0  0  0  0  0  0  0  0  0  0  0  0
   60.4520   30.5800   47.5960 C   0  0  0  0  0  0  0  0  0  0  0  0
   59.4040   30.6290   48.5250 C   0  0  0  0  0  0  0  0  0  0  0  0
   59.0190   32.1510   49.3210 S   0  0  0  0  0  0  0  0  0  0  0  0
   59.5100   32.0960   50.7420 O   0  0  0  0  0  0  0  0  0  0  0  0
   57.5360   32.3910   49.3280 O   0  0  0  0  0  0  0  0  0  0  0  0
   59.8020   33.4560   48.4960 N   0  0  0  0  0  0  0  0  0  0  0  0
   59.3850   33.9120   47.2070 C   0  0  0  0  0  0  0  0  0  0  0  0
   60.2120   34.4460   46.4190 O   0  0  0  0  0  0  0  0  0  0  0  0
   57.9730   33.6950   46.7670 C   0  0  0  0  0  0  0  0  0  0  0  0
   57.8530   33.6960   44.9440 S   0  0  0  0  0  0  0  0  0  0  0  0
   57.7900   31.9110   44.7990 C   0  0  0  0  0  0  0  0  0  0  0  0
   58.9320   31.2030   44.6110 N   0  0  0  0  0  0  0  0  0  0  0  0
   58.9000   29.8540   44.4520 C   0  0  0  0  0  0  0  0  0  0  0  0
   59.9770   29.2260   44.2720 O   0  0  0  0  0  0  0  0  0  0  0  0
   57.6730   29.1750   44.4700 C   0  0  0  0  0  0  0  0  0  0  0  0
   57.6300   27.7570   44.2400 N   0  0  0  0  0  0  0  0  0  0  0  0
   57.2100   26.8370   45.2620 C   0  0  0  0  0  0  0  0  0  0  0  0
   56.7120   27.2830   46.3330 O   0  0  0  0  0  0  0  0  0  0  0  0
   57.3390   25.3730   45.0710 C   0  0  0  0  0  0  0  0  0  0  0  0
   57.8770   24.5730   46.0960 C   0  0  0  0  0  0  0  0  0  0  0  0
   58.0080   23.1910   45.9210 C   0  0  0  0  0  0  0  0  0  0  0  0
   57.6120   22.5960   44.7210 C   0  0  0  0  0  0  0  0  0  0  0  0
   57.0910   23.3830   43.6910 C   0  0  0  0  0  0  0  0  0  0  0  0
   56.9550   24.7640   43.8610 C   0  0  0  0  0  0  0  0  0  0  0  0
   56.5040   29.9250   44.7070 C   0  0  0  0  0  0  0  0  0  0  0  0
   55.2230   29.2980   44.8310 N   0  0  0  0  0  0  0  0  0  0  0  0
   56.5940   31.2730   44.8570 N   0  0  0  0  0  0  0  0  0  0  0  0
   58.6690   29.4680   48.8020 C   0  0  0  0  0  0  0  0  0  0  0  0
   58.9860   28.2660   48.1630 C   0  0  0  0  0  0  0  0  0  0  0  0
   60.5745   26.1400   47.2852 H   0  0  0  0  0  0  0  0  0  0  0  0
   59.5239   26.6295   45.9129 H   0  0  0  0  0  0  0  0  0  0  0  0
   61.2651   27.0709   45.9129 H   0  0  0  0  0  0  0  0  0  0  0  0
   61.5914   29.3479   46.2237 H   0  0  0  0  0  0  0  0  0  0  0  0
   61.0253   31.4908   47.3685 H   0  0  0  0  0  0  0  0  0  0  0  0
   57.6206   32.7263   47.1509 H   0  0  0  0  0  0  0  0  0  0  0  0
   57.3516   34.5126   47.1613 H   0  0  0  0  0  0  0  0  0  0  0  0
   57.6720   27.4220   43.2520 H   0  0  0  0  0  0  0  0  0  0  0  0
   58.1966   25.0370   47.0408 H   0  0  0  0  0  0  0  0  0  0  0  0
   58.4236   22.5721   46.7298 H   0  0  0  0  0  0  0  0  0  0  0  0
   57.7103   21.5086   44.5870 H   0  0  0  0  0  0  0  0  0  0  0  0
   56.7868   22.9146   42.7433 H   0  0  0  0  0  0  0  0  0  0  0  0
   56.5459   25.3780   43.0452 H   0  0  0  0  0  0  0  0  0  0  0  0
   55.1420   28.3690   45.3000 H   0  0  0  0  0  0  0  0  0  0  0  0
   54.3620   29.7120   44.4150 H   0  0  0  0  0  0  0  0  0  0  0  0
   57.8402   29.5030   49.5244 H   0  0  0  0  0  0  0  0  0  0  0  0
   58.3991   27.3606   48.3772 H   0  0  0  0  0  0  0  0  0  0  0  0
  1  2  1  0
  2  3  2  0
  3  4  1  0
  4  5  2  0
  5  6  1  0
  6  7  2  0
  6  8  2  0
  6  9  1  0
  9 10  1  0
 10 11  2  0
 10 12  1  0
 12 13  1  0
 13 14  1  0
 14 15  2  0
 15 16  1  0
 16 17  2  0
 16 18  1  0
 18 19  1  0
 19 20  1  0
 20 21  2  0
 20 22  1  0
 22 23  2  0
 23 24  1  0
 24 25  2  0
 25 26  1  0
 26 27  2  0
 18 28  2  0
 28 29  1  0
 28 30  1  0
  5 31  1  0
 31 32  2  0
 32  2  1  0
 30 14  1  0
 27 22  1  0
  1 33  1  0
  1 34  1  0
  1 35  1  0
  3 36  1  0
  4 37  1  0
 12 38  1  0
 12 39  1  0
 19 40  1  0
 23 41  1  0
 24 42  1  0
 25 43  1  0
 26 44  1  0
 27 45  1  0
 29 46  1  0
 29 47  1  0
 31 48  1  0
 32 49  1  0
M  CHG  2   9  -1  30  -1
M  END
>  <UniqueID>  (94) 
88

>  <SMILES>  (94) 
Cc1ccc(S(=O)(=O)[N-]C(=O)CSc2nc(=O)c(NC(=O)c3ccccc3)c(N)[n-]2)cc1

>  <Energy>  (94) 
55.150560036305386

>  <Genealogy>  (94) 
Cc1ccc(S(=O)(=O)[N-]C(=O)CSc2nc(=O)c(NC(=O)c3ccccc3)c(N)[n-]2)cc1 (protonated)
Cc1ccc(S(=O)(=O)[N-]C(=O)CSc2nc(=O)c(NC(=O)c3ccccc3)c(N)[n-]2)cc1 (3D coordinates assigned)
Cc1ccc(S(=O)(=O)[N-]C(=O)CSc2nc(=O)c(NC(=O)c3ccccc3)c(N)[n-]2)cc1 (optimized conformer: 55.150560036305386 kcal/mol)

>  <smiles>  (94) 
Cc1ccc(S(=O)(=O)NC(=O)CSc2nc(=O)c(NC(=O)c3ccccc3)c(N)[nH]2)cc1

>  <score_type>  (94) 
oracle

>  <origin>  (94) 
adg

>  <m_score__min__energy>  (94) 
-12.289999999999999

>  <m_primary>  (94) 
energy

$$$$
94:0
     RDKit          3D

 38 39  0  0  0  0  0  0  0  0999 V2000
   57.3750   26.8080   46.7910 C   0  0  0  0  0  0  0  0  0  0  0  0
   57.2230   26.9030   45.2770 C   0  0  0  0  0  0  0  0  0  0  0  0
   57.9610   28.0650   44.7570 N   0  0  0  0  0  0  0  0  0  0  0  0
   57.2870   28.9760   43.8190 C   0  0  0  0  0  0  0  0  0  0  0  0
   56.2830   29.8330   44.5440 C   0  0  0  0  0  0  0  0  0  0  0  0
   55.1690   29.3380   44.8600 O   0  0  0  0  0  0  0  0  0  0  0  0
   56.5340   31.2110   44.8470 N   0  0  0  0  0  0  0  0  0  0  0  0
   57.4710   32.0650   44.1300 C   0  0  0  0  0  0  0  0  0  0  0  0
   58.1230   33.0000   45.0930 C   0  0  0  0  0  0  0  0  0  0  0  0
   59.0630   33.9710   44.7760 C   0  0  0  0  0  0  0  0  0  0  0  0
   59.4380   34.7510   45.8760 C   0  0  0  0  0  0  0  0  0  0  0  0
   58.7860   34.4070   47.0530 C   0  0  0  0  0  0  0  0  0  0  0  0
   57.7390   33.1330   46.7250 S   0  0  0  0  0  0  0  0  0  0  0  0
   59.3220   28.3040   45.1910 C   0  0  0  0  0  0  0  0  0  0  0  0
   60.0480   27.3250   45.5250 O   0  0  0  0  0  0  0  0  0  0  0  0
   59.8930   29.7020   45.2480 C   0  0  0  0  0  0  0  0  0  0  0  0
   59.9180   30.2600   46.6390 C   0  0  0  0  0  0  0  0  0  0  0  0
   59.0140   29.9660   47.6510 C   0  0  0  0  0  0  0  0  0  0  0  0
   59.2480   30.6910   48.8260 C   0  0  0  0  0  0  0  0  0  0  0  0
   60.3250   31.5630   48.7360 C   0  0  0  0  0  0  0  0  0  0  0  0
   60.9850   31.4360   47.1940 S   0  0  0  0  0  0  0  0  0  0  0  0
   56.5382   27.3310   47.2771 H   0  0  0  0  0  0  0  0  0  0  0  0
   57.3722   25.7506   47.0942 H   0  0  0  0  0  0  0  0  0  0  0  0
   58.3242   27.2739   47.0942 H   0  0  0  0  0  0  0  0  0  0  0  0
   57.6189   25.9865   44.8152 H   0  0  0  0  0  0  0  0  0  0  0  0
   56.1568   27.0204   45.0331 H   0  0  0  0  0  0  0  0  0  0  0  0
   58.0372   29.6233   43.3412 H   0  0  0  0  0  0  0  0  0  0  0  0
   56.7616   28.3788   43.0592 H   0  0  0  0  0  0  0  0  0  0  0  0
   58.2380   31.4431   43.6453 H   0  0  0  0  0  0  0  0  0  0  0  0
   56.9317   32.6419   43.3643 H   0  0  0  0  0  0  0  0  0  0  0  0
   59.4712   34.1128   43.7644 H   0  0  0  0  0  0  0  0  0  0  0  0
   60.1798   35.5608   45.8140 H   0  0  0  0  0  0  0  0  0  0  0  0
   58.9300   34.8862   48.0326 H   0  0  0  0  0  0  0  0  0  0  0  0
   60.9220   29.6780   44.8598 H   0  0  0  0  0  0  0  0  0  0  0  0
   59.2445   30.3509   44.6411 H   0  0  0  0  0  0  0  0  0  0  0  0
   58.1971   29.2376   47.5410 H   0  0  0  0  0  0  0  0  0  0  0  0
   58.6369   30.5803   49.7339 H   0  0  0  0  0  0  0  0  0  0  0  0
   60.6855   32.2247   49.5374 H   0  0  0  0  0  0  0  0  0  0  0  0
  1  2  1  0
  2  3  1  0
  3  4  1  0
  4  5  1  0
  5  6  2  0
  5  7  1  0
  7  8  1  0
  8  9  1  0
  9 10  2  0
 10 11  1  0
 11 12  2  0
 12 13  1  0
  3 14  1  0
 14 15  2  0
 14 16  1  0
 16 17  1  0
 17 18  2  0
 18 19  1  0
 19 20  2  0
 20 21  1  0
 13  9  1  0
 21 17  1  0
  1 22  1  0
  1 23  1  0
  1 24  1  0
  2 25  1  0
  2 26  1  0
  4 27  1  0
  4 28  1  0
  8 29  1  0
  8 30  1  0
 10 31  1  0
 11 32  1  0
 12 33  1  0
 16 34  1  0
 16 35  1  0
 18 36  1  0
 19 37  1  0
 20 38  1  0
M  CHG  1   7  -1
M  END
>  <UniqueID>  (95) 
89

>  <SMILES>  (95) 
CCN(CC(=O)[N-]Cc1cccs1)C(=O)Cc1cccs1

>  <Energy>  (95) 
81.09124641620397

>  <Genealogy>  (95) 
CCN(CC(=O)[N-]Cc1cccs1)C(=O)Cc1cccs1 (protonated)
CCN(CC(=O)[N-]Cc1cccs1)C(=O)Cc1cccs1 (3D coordinates assigned)
CCN(CC(=O)[N-]Cc1cccs1)C(=O)Cc1cccs1 (optimized conformer: 81.09124641620397 kcal/mol)

>  <smiles>  (95) 
CCN(CC(=O)NCc1cccs1)C(=O)Cc1cccs1

>  <score_type>  (95) 
oracle

>  <origin>  (95) 
adg

>  <m_score__min__energy>  (95) 
-9.3100000000000005

>  <m_primary>  (95) 
energy

$$$$
95:0
     RDKit          3D

 56 58  0  0  0  0  0  0  0  0999 V2000
   59.4720   29.7090   44.8380 O   0  0  0  0  0  0  0  0  0  0  0  0
   58.7300   29.5600   45.8470 C   0  0  0  0  0  0  0  0  0  0  0  0
   57.9230   28.3810   45.9900 N   0  0  0  0  0  0  0  0  0  0  0  0
   57.8960   27.3010   45.0380 C   0  0  0  0  0  0  0  0  0  0  0  0
   58.6220   27.3420   44.0080 O   0  0  0  0  0  0  0  0  0  0  0  0
   57.0260   26.1300   45.2610 C   0  0  0  0  0  0  0  0  0  0  0  0
   56.0850   26.2050   46.0990 O   0  0  0  0  0  0  0  0  0  0  0  0
   57.2430   24.9090   44.5330 N   0  0  0  0  0  0  0  0  0  0  0  0
   56.3710   23.7380   44.6870 C   0  0  0  0  0  0  0  0  0  0  0  0
   57.1420   22.5930   45.3890 C   0  0  0  0  0  0  0  0  0  0  0  0
   56.5490   21.2250   45.0400 C   0  0  0  0  0  0  0  0  0  0  0  0
   56.6410   20.9350   43.5280 C   0  0  0  0  0  0  0  0  0  0  0  0
   56.6170   22.2080   42.6570 C   0  0  0  0  0  0  0  0  0  0  0  0
   55.7930   23.3230   43.3100 C   0  0  0  0  0  0  0  0  0  0  0  0
   58.7150   30.5540   46.8830 N   0  0  0  0  0  0  0  0  0  0  0  0
   59.2830   31.8690   46.7520 C   0  0  0  0  0  0  0  0  0  0  0  0
   58.4750   32.9990   46.5270 C   0  0  0  0  0  0  0  0  0  0  0  0
   59.0500   34.2680   46.4300 C   0  0  0  0  0  0  0  0  0  0  0  0
   60.4300   34.4270   46.5720 C   0  0  0  0  0  0  0  0  0  0  0  0
   61.2440   33.3150   46.8200 C   0  0  0  0  0  0  0  0  0  0  0  0
   62.9790   33.5400   47.0280 S   0  0  0  0  0  0  0  0  0  0  0  0
   63.7030   32.2540   46.7430 O   0  0  0  0  0  0  0  0  0  0  0  0
   63.4420   34.5870   46.0550 O   0  0  0  0  0  0  0  0  0  0  0  0
   63.2890   34.0610   48.6720 N   0  0  0  0  0  0  0  0  0  0  0  0
   62.0350   34.2850   49.4260 C   0  0  0  0  0  0  0  0  0  0  0  0
   61.6800   33.1090   50.3540 C   0  0  0  0  0  0  0  0  0  0  0  0
   62.1050   31.8920   49.7840 O   0  0  0  0  0  0  0  0  0  0  0  0
   63.5200   31.8210   49.7810 C   0  0  0  0  0  0  0  0  0  0  0  0
   64.2090   33.1440   49.3690 C   0  0  0  0  0  0  0  0  0  0  0  0
   60.6670   32.0390   46.9140 C   0  0  0  0  0  0  0  0  0  0  0  0
   57.3200   28.3120   46.8410 H   0  0  0  0  0  0  0  0  0  0  0  0
   57.9450   24.9050   43.7570 H   0  0  0  0  0  0  0  0  0  0  0  0
   55.5144   23.9876   45.3304 H   0  0  0  0  0  0  0  0  0  0  0  0
   58.1937   22.6199   45.0676 H   0  0  0  0  0  0  0  0  0  0  0  0
   57.0627   22.7378   46.4765 H   0  0  0  0  0  0  0  0  0  0  0  0
   57.1012   20.4466   45.5870 H   0  0  0  0  0  0  0  0  0  0  0  0
   55.4867   21.2276   45.3257 H   0  0  0  0  0  0  0  0  0  0  0  0
   57.5802   20.3967   43.3328 H   0  0  0  0  0  0  0  0  0  0  0  0
   55.7564   20.3398   43.2573 H   0  0  0  0  0  0  0  0  0  0  0  0
   57.6485   22.5628   42.5150 H   0  0  0  0  0  0  0  0  0  0  0  0
   56.1518   21.9562   41.6925 H   0  0  0  0  0  0  0  0  0  0  0  0
   55.7919   24.1999   42.6459 H   0  0  0  0  0  0  0  0  0  0  0  0
   54.7724   22.9445   43.4687 H   0  0  0  0  0  0  0  0  0  0  0  0
   58.3290   30.2790   47.8140 H   0  0  0  0  0  0  0  0  0  0  0  0
   57.3858   32.8822   46.4271 H   0  0  0  0  0  0  0  0  0  0  0  0
   58.4137   35.1452   46.2411 H   0  0  0  0  0  0  0  0  0  0  0  0
   60.8786   35.4279   46.4889 H   0  0  0  0  0  0  0  0  0  0  0  0
   62.1492   35.1928   50.0367 H   0  0  0  0  0  0  0  0  0  0  0  0
   61.2210   34.3866   48.6932 H   0  0  0  0  0  0  0  0  0  0  0  0
   62.1785   33.2490   51.3245 H   0  0  0  0  0  0  0  0  0  0  0  0
   60.5892   33.0783   50.4923 H   0  0  0  0  0  0  0  0  0  0  0  0
   63.8564   31.5552   50.7940 H   0  0  0  0  0  0  0  0  0  0  0  0
   63.8021   31.0654   49.0330 H   0  0  0  0  0  0  0  0  0  0  0  0
   64.5871   33.6425   50.2737 H   0  0  0  0  0  0  0  0  0  0  0  0
   65.0260   32.8959   48.6755 H   0  0  0  0  0  0  0  0  0  0  0  0
   61.3042   31.1654   47.1162 H   0  0  0  0  0  0  0  0  0  0  0  0
  1  2  2  0
  2  3  1  0
  3  4  1  0
  4  5  2  0
  4  6  1  0
  6  7  2  0
  6  8  1  0
  8  9  1  0
  9 10  1  0
 10 11  1  0
 11 12  1  0
 12 13  1  0
 13 14  1  0
  2 15  1  0
 15 16  1  0
 16 17  2  0
 17 18  1  0
 18 19  2  0
 19 20  1  0
 20 21  1  0
 21 22  2  0
 21 23  2  0
 21 24  1  0
 24 25  1  0
 25 26  1  0
 26 27  1  0
 27 28  1  0
 28 29  1  0
 20 30  2  0
 14  9  1  0
 30 16  1  0
 29 24  1  0
  3 31  1  0
  8 32  1  0
  9 33  1  0
 10 34  1  0
 10 35  1  0
 11 36  1  0
 11 37  1  0
 12 38  1  0
 12 39  1  0
 13 40  1  0
 13 41  1  0
 14 42  1  0
 14 43  1  0
 15 44  1  0
 17 45  1  0
 18 46  1  0
 19 47  1  0
 25 48  1  0
 25 49  1  0
 26 50  1  0
 26 51  1  0
 28 52  1  0
 28 53  1  0
 29 54  1  0
 29 55  1  0
 30 56  1  0
M  END
>  <UniqueID>  (96) 
90

>  <SMILES>  (96) 
O=C(NC(=O)C(=O)NC1CCCCC1)Nc1cccc(S(=O)(=O)N2CCOCC2)c1

>  <Energy>  (96) 
70.09645265720633

>  <Genealogy>  (96) 
O=C(NC(=O)C(=O)NC1CCCCC1)Nc1cccc(S(=O)(=O)N2CCOCC2)c1 (3D coordinates assigned)
O=C(NC(=O)C(=O)NC1CCCCC1)Nc1cccc(S(=O)(=O)N2CCOCC2)c1 (nonaromatic ring conformer: 70.09645265720633 kcal/mol)

>  <smiles>  (96) 
O=C(NC(=O)C(=O)NC1CCCCC1)Nc1cccc(S(=O)(=O)N2CCOCC2)c1

>  <score_type>  (96) 
oracle

>  <origin>  (96) 
adg

>  <m_score__min__energy>  (96) 
-9.0600000000000005

>  <m_primary>  (96) 
energy

$$$$
