0:0
     RDKit          3D

 51 54  0  0  0  0  0  0  0  0999 V2000
   60.2610   27.5560   46.8750 C   0  0  0  0  0  0  0  0  0  0  0  0
   59.3410   28.4250   46.4280 C   0  0  0  0  0  0  0  0  0  0  0  0
   58.2550   28.1560   45.5770 C   0  0  0  0  0  0  0  0  0  0  0  0
   57.7520   26.9910   45.1220 C   0  0  0  0  0  0  0  0  0  0  0  0
   57.3000   25.8640   45.9610 C   0  0  0  0  0  0  0  0  0  0  0  0
   55.9580   25.7460   46.3610 C   0  0  0  0  0  0  0  0  0  0  0  0
   55.0230   26.7110   46.0060 O   0  0  0  0  0  0  0  0  0  0  0  0
   55.5640   24.6750   47.0980 N   0  0  0  0  0  0  0  0  0  0  0  0
   56.4430   23.7010   47.4460 C   0  0  0  0  0  0  0  0  0  0  0  0
   55.9400   22.4270   48.3320 S   0  0  0  0  0  0  0  0  0  0  0  0
   57.7390   23.7790   47.0470 N   0  0  0  0  0  0  0  0  0  0  0  0
   58.1830   24.8300   46.3090 C   0  0  0  0  0  0  0  0  0  0  0  0
   59.3900   24.8680   45.9490 O   0  0  0  0  0  0  0  0  0  0  0  0
   57.7120   29.3850   45.2430 C   0  0  0  0  0  0  0  0  0  0  0  0
   58.4290   30.3420   45.9280 C   0  0  0  0  0  0  0  0  0  0  0  0
   58.1670   31.8160   45.8590 C   0  0  0  0  0  0  0  0  0  0  0  0
   59.4180   29.7640   46.6460 N   0  0  0  0  0  0  0  0  0  0  0  0
   60.3830   30.4590   47.4560 C   0  0  0  0  0  0  0  0  0  0  0  0
   60.5680   30.0930   48.7940 C   0  0  0  0  0  0  0  0  0  0  0  0
   61.4960   30.7710   49.5840 C   0  0  0  0  0  0  0  0  0  0  0  0
   62.2510   31.8230   49.0490 C   0  0  0  0  0  0  0  0  0  0  0  0
   63.1960   32.5030   49.8860 N   0  0  0  0  0  0  0  0  0  0  0  0
   62.7010   33.3460   50.9750 C   0  0  0  0  0  0  0  0  0  0  0  0
   63.7780   34.3640   51.3620 C   0  0  0  0  0  0  0  0  0  0  0  0
   65.0090   33.7160   51.6290 O   0  0  0  0  0  0  0  0  0  0  0  0
   65.4970   33.1030   50.4500 C   0  0  0  0  0  0  0  0  0  0  0  0
   64.5590   31.9830   49.9890 C   0  0  0  0  0  0  0  0  0  0  0  0
   62.0790   32.2010   47.6960 C   0  0  0  0  0  0  0  0  0  0  0  0
   62.8890   33.3350   47.1050 C   0  0  0  0  0  0  0  0  0  0  0  0
   63.0860   34.3160   48.0580 F   0  0  0  0  0  0  0  0  0  0  0  0
   62.2110   33.8790   46.0300 F   0  0  0  0  0  0  0  0  0  0  0  0
   64.1290   32.9050   46.6640 F   0  0  0  0  0  0  0  0  0  0  0  0
   61.1350   31.5100   46.9130 C   0  0  0  0  0  0  0  0  0  0  0  0
   61.0652   27.9008   47.5416 H   0  0  0  0  0  0  0  0  0  0  0  0
   60.2108   26.4990   46.5748 H   0  0  0  0  0  0  0  0  0  0  0  0
   57.6715   26.8699   44.0317 H   0  0  0  0  0  0  0  0  0  0  0  0
   56.8682   29.5637   44.5603 H   0  0  0  0  0  0  0  0  0  0  0  0
   58.0945   32.2236   46.8781 H   0  0  0  0  0  0  0  0  0  0  0  0
   58.9914   32.3103   45.3241 H   0  0  0  0  0  0  0  0  0  0  0  0
   57.2228   31.9959   45.3241 H   0  0  0  0  0  0  0  0  0  0  0  0
   59.9800   29.2686   49.2236 H   0  0  0  0  0  0  0  0  0  0  0  0
   61.6362   30.4777   50.6349 H   0  0  0  0  0  0  0  0  0  0  0  0
   61.7959   33.8771   50.6453 H   0  0  0  0  0  0  0  0  0  0  0  0
   62.4606   32.7175   51.8452 H   0  0  0  0  0  0  0  0  0  0  0  0
   63.9166   35.0749   50.5341 H   0  0  0  0  0  0  0  0  0  0  0  0
   63.4534   34.8931   52.2702 H   0  0  0  0  0  0  0  0  0  0  0  0
   65.5726   33.8597   49.6552 H   0  0  0  0  0  0  0  0  0  0  0  0
   66.4854   32.6693   50.6621 H   0  0  0  0  0  0  0  0  0  0  0  0
   64.8855   31.6119   49.0063 H   0  0  0  0  0  0  0  0  0  0  0  0
   64.5841   31.1593   50.7176 H   0  0  0  0  0  0  0  0  0  0  0  0
   60.9856   31.7984   45.8620 H   0  0  0  0  0  0  0  0  0  0  0  0
  1  2  2  0
  2  3  1  0
  3  4  2  3
  4  5  1  0
  5  6  2  0
  6  7  1  0
  6  8  1  0
  8  9  1  0
  9 10  2  0
  9 11  1  0
 11 12  1  0
 12 13  2  0
  3 14  1  0
 14 15  2  0
 15 16  1  0
 15 17  1  0
 17 18  1  0
 18 19  2  0
 19 20  1  0
 20 21  2  0
 21 22  1  0
 22 23  1  0
 23 24  1  0
 24 25  1  0
 25 26  1  0
 26 27  1  0
 21 28  1  0
 28 29  1  0
 29 30  1  0
 29 31  1  0
 29 32  1  0
 28 33  2  0
 17  2  1  0
 33 18  1  0
 12  5  1  0
 27 22  1  0
  1 34  1  0
  1 35  1  0
  4 36  1  0
 14 37  1  0
 16 38  1  0
 16 39  1  0
 16 40  1  0
 19 41  1  0
 20 42  1  0
 23 43  1  0
 23 44  1  0
 24 45  1  0
 24 46  1  0
 26 47  1  0
 26 48  1  0
 27 49  1  0
 27 50  1  0
 33 51  1  0
M  CHG  3   7  -1   8  -1  11  -1
M  END
>  <UniqueID>  (1) 
1

>  <SMILES>  (1) 
C=c1c(=Cc2c([O-])[n-]c(=S)[n-]c2=O)cc(C)n1-c1ccc(N2CCOCC2)c(C(F)(F)F)c1

>  <Energy>  (1) 
110.58580141814608

>  <Genealogy>  (1) 
C=c1c(=Cc2c([O-])[n-]c(=S)[n-]c2=O)cc(C)n1-c1ccc(N2CCOCC2)c(C(F)(F)F)c1 (protonated)
C=c1c(=Cc2c([O-])[n-]c(=S)[n-]c2=O)cc(C)n1-c1ccc(N2CCOCC2)c(C(F)(F)F)c1 (3D coordinates assigned)
C=c1c(=Cc2c([O-])[n-]c(=S)[n-]c2=O)cc(C)n1-c1ccc(N2CCOCC2)c(C(F)(F)F)c1 (nonaromatic ring conformer: 110.58580141814608 kcal/mol)

>  <smiles>  (1) 
C=c1c(=Cc2c(O)[nH]c(=S)[nH]c2=O)cc(C)n1-c1ccc(N2CCOCC2)c(C(F)(F)F)c1

>  <score_type>  (1) 
oracle

>  <origin>  (1) 
adg

>  <m_score__min__energy>  (1) 
-15.210000000000001

>  <m_primary>  (1) 
energy

$$$$
1:0
     RDKit          3D

 39 41  0  0  0  0  0  0  0  0999 V2000
   57.3690   21.1290   43.0120 C   0  0  0  0  0  0  0  0  0  0  0  0
   56.3480   22.2090   43.2060 C   0  0  0  0  0  0  0  0  0  0  0  0
   55.5160   22.4150   42.2830 O   0  0  0  0  0  0  0  0  0  0  0  0
   56.2890   23.0380   44.4410 C   0  0  0  0  0  0  0  0  0  0  0  0
   57.4920   23.5250   44.9900 C   0  0  0  0  0  0  0  0  0  0  0  0
   57.4930   24.2850   46.1650 C   0  0  0  0  0  0  0  0  0  0  0  0
   58.7420   24.7740   46.6730 N   0  0  0  0  0  0  0  0  0  0  0  0
   59.0010   26.0930   47.1730 C   0  0  0  0  0  0  0  0  0  0  0  0
   60.1910   26.4290   47.4120 O   0  0  0  0  0  0  0  0  0  0  0  0
   57.8910   27.0650   47.4640 C   0  0  0  0  0  0  0  0  0  0  0  0
   57.7300   27.9980   46.3500 N   0  0  0  0  0  0  0  0  0  0  0  0
   56.6520   28.1130   45.5430 C   0  0  0  0  0  0  0  0  0  0  0  0
   55.5240   27.3050   45.6260 O   0  0  0  0  0  0  0  0  0  0  0  0
   56.8310   29.1480   44.6470 C   0  0  0  0  0  0  0  0  0  0  0  0
   58.0580   29.6970   44.9230 C   0  0  0  0  0  0  0  0  0  0  0  0
   58.5830   28.9780   45.9780 C   0  0  0  0  0  0  0  0  0  0  0  0
   59.8080   29.2220   46.5890 O   0  0  0  0  0  0  0  0  0  0  0  0
   58.6300   30.8780   44.2070 C   0  0  0  0  0  0  0  0  0  0  0  0
   57.7270   31.3400   43.0800 C   0  0  0  0  0  0  0  0  0  0  0  0
   56.5180   30.7990   42.8080 C   0  0  0  0  0  0  0  0  0  0  0  0
   55.9020   29.6580   43.5940 C   0  0  0  0  0  0  0  0  0  0  0  0
   56.2740   24.6120   46.7760 C   0  0  0  0  0  0  0  0  0  0  0  0
   55.0740   24.1490   46.2380 C   0  0  0  0  0  0  0  0  0  0  0  0
   55.0700   23.3690   45.0770 C   0  0  0  0  0  0  0  0  0  0  0  0
   53.8480   22.9600   44.5570 O   0  0  0  0  0  0  0  0  0  0  0  0
   57.7110   20.7672   43.9929 H   0  0  0  0  0  0  0  0  0  0  0  0
   56.9200   20.2966   42.4504 H   0  0  0  0  0  0  0  0  0  0  0  0
   58.2253   21.5306   42.4504 H   0  0  0  0  0  0  0  0  0  0  0  0
   58.4451   23.3043   44.4871 H   0  0  0  0  0  0  0  0  0  0  0  0
   56.9525   26.5107   47.6119 H   0  0  0  0  0  0  0  0  0  0  0  0
   58.1404   27.6320   48.3730 H   0  0  0  0  0  0  0  0  0  0  0  0
   58.7565   31.7028   44.9237 H   0  0  0  0  0  0  0  0  0  0  0  0
   59.5966   30.5818   43.7734 H   0  0  0  0  0  0  0  0  0  0  0  0
   58.0771   32.1666   42.4442 H   0  0  0  0  0  0  0  0  0  0  0  0
   55.9459   31.2122   41.9642 H   0  0  0  0  0  0  0  0  0  0  0  0
   54.9789   30.0138   44.0749 H   0  0  0  0  0  0  0  0  0  0  0  0
   55.6904   28.8351   42.8954 H   0  0  0  0  0  0  0  0  0  0  0  0
   56.2645   25.2355   47.6822 H   0  0  0  0  0  0  0  0  0  0  0  0
   54.1228   24.3991   46.7305 H   0  0  0  0  0  0  0  0  0  0  0  0
  1  2  1  0
  2  3  2  0
  2  4  1  0
  4  5  2  0
  5  6  1  0
  6  7  1  0
  7  8  1  0
  8  9  2  0
  8 10  1  0
 10 11  1  0
 11 12  1  0
 12 13  1  0
 12 14  2  0
 14 15  1  0
 15 16  2  0
 16 17  1  0
 15 18  1  0
 18 19  1  0
 19 20  2  0
 20 21  1  0
  6 22  2  0
 22 23  1  0
 23 24  2  0
 24 25  1  0
 24  4  1  0
 16 11  1  0
 21 14  1  0
  1 26  1  0
  1 27  1  0
  1 28  1  0
  5 29  1  0
 10 30  1  0
 10 31  1  0
 18 32  1  0
 18 33  1  0
 19 34  1  0
 20 35  1  0
 21 36  1  0
 21 37  1  0
 22 38  1  0
 23 39  1  0
M  CHG  4   7  -1  13  -1  17  -1  25  -1
M  END
>  <UniqueID>  (2) 
2

>  <SMILES>  (2) 
CC(=O)c1cc([N-]C(=O)Cn2c([O-])c3c(c2[O-])CC=CC3)ccc1[O-]

>  <Energy>  (2) 
80.43570202828926

>  <Genealogy>  (2) 
CC(=O)c1cc([N-]C(=O)Cn2c([O-])c3c(c2[O-])CC=CC3)ccc1[O-] (protonated)
CC(=O)c1cc([N-]C(=O)Cn2c([O-])c3c(c2[O-])CC=CC3)ccc1[O-] (3D coordinates assigned)
CC(=O)c1cc([N-]C(=O)Cn2c([O-])c3c(c2[O-])CC=CC3)ccc1[O-] (nonaromatic ring conformer: 80.43570202828926 kcal/mol)

>  <smiles>  (2) 
CC(=O)c1cc(NC(=O)Cn2c(O)c3c(c2O)CC=CC3)ccc1O

>  <score_type>  (2) 
oracle

>  <origin>  (2) 
adg

>  <m_score__min__energy>  (2) 
-14.32

>  <m_primary>  (2) 
energy

$$$$
2:0
     RDKit          3D

 63 66  0  0  0  0  0  0  0  0999 V2000
   63.7260   33.1230   46.8010 C   0  0  0  0  0  0  0  0  0  0  0  0
   62.3420   33.7800   46.9310 C   0  0  0  0  0  0  0  0  0  0  0  0
   61.5210   33.2600   48.0500 N   0  0  0  0  0  0  0  0  0  0  0  0
   60.5480   34.2490   48.5590 C   0  0  0  0  0  0  0  0  0  0  0  0
   59.5620   34.6390   47.4610 C   0  0  0  0  0  0  0  0  0  0  0  0
   62.3250   32.6290   49.1230 C   0  0  0  0  0  0  0  0  0  0  0  0
   61.8290   31.1990   49.4050 C   0  0  0  0  0  0  0  0  0  0  0  0
   60.5680   30.9370   48.7100 N   0  0  0  0  0  0  0  0  0  0  0  0
   60.2150   29.6370   48.2060 C   0  0  0  0  0  0  0  0  0  0  0  0
   60.7450   28.5000   48.8400 C   0  0  0  0  0  0  0  0  0  0  0  0
   60.4780   27.2210   48.3590 C   0  0  0  0  0  0  0  0  0  0  0  0
   59.6840   27.0420   47.2280 C   0  0  0  0  0  0  0  0  0  0  0  0
   59.3890   25.7090   46.7860 N   0  0  0  0  0  0  0  0  0  0  0  0
   58.1880   25.2180   46.6580 C   0  0  0  0  0  0  0  0  0  0  0  0
   57.6390   24.9740   45.2880 C   0  0  0  0  0  0  0  0  0  0  0  0
   56.1240   25.2440   45.2730 C   0  0  0  0  0  0  0  0  0  0  0  0
   55.3690   24.5870   46.3770 N   0  0  0  0  0  0  0  0  0  0  0  0
   54.3490   23.6640   45.8500 C   0  0  0  0  0  0  0  0  0  0  0  0
   56.2030   23.8920   47.3830 C   0  0  0  0  0  0  0  0  0  0  0  0
   57.3680   24.7680   47.8430 C   0  0  0  0  0  0  0  0  0  0  0  0
   59.1880   28.1630   46.5410 C   0  0  0  0  0  0  0  0  0  0  0  0
   58.4860   27.9780   45.3920 N   0  0  0  0  0  0  0  0  0  0  0  0
   57.9380   29.0050   44.6970 C   0  0  0  0  0  0  0  0  0  0  0  0
   57.2300   28.7440   43.5190 C   0  0  0  0  0  0  0  0  0  0  0  0
   56.6470   29.7940   42.8050 C   0  0  0  0  0  0  0  0  0  0  0  0
   56.7640   31.1070   43.2690 C   0  0  0  0  0  0  0  0  0  0  0  0
   57.4670   31.3760   44.4470 C   0  0  0  0  0  0  0  0  0  0  0  0
   58.0670   30.3260   45.1720 C   0  0  0  0  0  0  0  0  0  0  0  0
   58.7950   30.5590   46.3570 C   0  0  0  0  0  0  0  0  0  0  0  0
   58.8640   31.7340   46.8110 O   0  0  0  0  0  0  0  0  0  0  0  0
   59.4110   29.4750   47.0400 C   0  0  0  0  0  0  0  0  0  0  0  0
   64.1353   32.9287   47.8034 H   0  0  0  0  0  0  0  0  0  0  0  0
   63.6313   32.1738   46.2533 H   0  0  0  0  0  0  0  0  0  0  0  0
   64.4016   33.7965   46.2533 H   0  0  0  0  0  0  0  0  0  0  0  0
   62.4865   34.8598   47.0829 H   0  0  0  0  0  0  0  0  0  0  0  0
   61.7953   33.5470   46.0053 H   0  0  0  0  0  0  0  0  0  0  0  0
   59.9955   33.8122   49.4039 H   0  0  0  0  0  0  0  0  0  0  0  0
   61.0910   35.1478   48.8867 H   0  0  0  0  0  0  0  0  0  0  0  0
   58.6314   35.0071   47.9177 H   0  0  0  0  0  0  0  0  0  0  0  0
   60.0024   35.4307   46.8370 H   0  0  0  0  0  0  0  0  0  0  0  0
   59.3417   33.7603   46.8370 H   0  0  0  0  0  0  0  0  0  0  0  0
   63.3787   32.5905   48.8096 H   0  0  0  0  0  0  0  0  0  0  0  0
   62.2215   33.2267   50.0406 H   0  0  0  0  0  0  0  0  0  0  0  0
   62.5867   30.4803   49.0595 H   0  0  0  0  0  0  0  0  0  0  0  0
   61.6628   31.0917   50.4871 H   0  0  0  0  0  0  0  0  0  0  0  0
   59.9420   31.7450   48.5030 H   0  0  0  0  0  0  0  0  0  0  0  0
   61.3803   28.6225   49.7296 H   0  0  0  0  0  0  0  0  0  0  0  0
   60.8971   26.3451   48.8758 H   0  0  0  0  0  0  0  0  0  0  0  0
   58.1358   25.6448   44.5716 H   0  0  0  0  0  0  0  0  0  0  0  0
   57.8222   23.9265   45.0066 H   0  0  0  0  0  0  0  0  0  0  0  0
   55.9677   26.3302   45.3486 H   0  0  0  0  0  0  0  0  0  0  0  0
   55.7394   24.8188   44.3342 H   0  0  0  0  0  0  0  0  0  0  0  0
   53.8200   23.1853   46.6873 H   0  0  0  0  0  0  0  0  0  0  0  0
   53.6300   24.2247   45.2346 H   0  0  0  0  0  0  0  0  0  0  0  0
   54.8353   22.8928   45.2346 H   0  0  0  0  0  0  0  0  0  0  0  0
   55.5789   23.6406   48.2532 H   0  0  0  0  0  0  0  0  0  0  0  0
   56.6150   22.9821   46.9221 H   0  0  0  0  0  0  0  0  0  0  0  0
   56.9728   25.6510   48.3666 H   0  0  0  0  0  0  0  0  0  0  0  0
   58.0090   24.1831   48.5190 H   0  0  0  0  0  0  0  0  0  0  0  0
   57.1322   27.7108   43.1544 H   0  0  0  0  0  0  0  0  0  0  0  0
   56.0951   29.5868   41.8763 H   0  0  0  0  0  0  0  0  0  0  0  0
   56.3017   31.9310   42.7058 H   0  0  0  0  0  0  0  0  0  0  0  0
   57.5524   32.4109   44.8098 H   0  0  0  0  0  0  0  0  0  0  0  0
  1  2  1  0
  2  3  1  0
  3  4  1  0
  4  5  1  0
  3  6  1  0
  6  7  1  0
  7  8  1  0
  8  9  1  0
  9 10  2  0
 10 11  1  0
 11 12  2  0
 12 13  1  0
 13 14  2  3
 14 15  1  0
 15 16  1  0
 16 17  1  0
 17 18  1  0
 17 19  1  0
 19 20  1  0
 12 21  1  0
 21 22  1  0
 22 23  1  0
 23 24  2  0
 24 25  1  0
 25 26  2  0
 26 27  1  0
 27 28  2  0
 28 29  1  0
 29 30  2  0
 29 31  1  0
 31  9  1  0
 20 14  1  0
 31 21  2  0
 28 23  1  0
  1 32  1  0
  1 33  1  0
  1 34  1  0
  2 35  1  0
  2 36  1  0
  4 37  1  0
  4 38  1  0
  5 39  1  0
  5 40  1  0
  5 41  1  0
  6 42  1  0
  6 43  1  0
  7 44  1  0
  7 45  1  0
  8 46  1  0
 10 47  1  0
 11 48  1  0
 15 49  1  0
 15 50  1  0
 16 51  1  0
 16 52  1  0
 18 53  1  0
 18 54  1  0
 18 55  1  0
 19 56  1  0
 19 57  1  0
 20 58  1  0
 20 59  1  0
 24 60  1  0
 25 61  1  0
 26 62  1  0
 27 63  1  0
M  CHG  1  22  -1
M  END
>  <UniqueID>  (3) 
3

>  <SMILES>  (3) 
CCN(CC)CCNc1ccc(N=C2CCN(C)CC2)c2[n-]c3ccccc3c(=O)c12

>  <Energy>  (3) 
97.03316042095713

>  <Genealogy>  (3) 
CCN(CC)CCNc1ccc(N=C2CCN(C)CC2)c2[n-]c3ccccc3c(=O)c12 (protonated)
CCN(CC)CCNc1ccc(N=C2CCN(C)CC2)c2[n-]c3ccccc3c(=O)c12 (3D coordinates assigned)
CCN(CC)CCNc1ccc(N=C2CCN(C)CC2)c2[n-]c3ccccc3c(=O)c12 (nonaromatic ring conformer: 97.03316042095713 kcal/mol)

>  <smiles>  (3) 
CCN(CC)CCNc1ccc(N=C2CCN(C)CC2)c2[nH]c3ccccc3c(=O)c12

>  <score_type>  (3) 
oracle

>  <origin>  (3) 
adg

>  <m_score__min__energy>  (3) 
-8.8499999999999996

>  <m_primary>  (3) 
energy

$$$$
3:0
     RDKit          3D

 46 48  0  0  0  0  0  0  0  0999 V2000
   57.9360   32.1800   43.4590 O   0  0  0  0  0  0  0  0  0  0  0  0
   57.3300   32.1560   44.5620 C   0  0  0  0  0  0  0  0  0  0  0  0
   57.4260   33.3500   45.4750 C   0  0  0  0  0  0  0  0  0  0  0  0
   58.6670   33.2930   46.2610 N   0  0  0  0  0  0  0  0  0  0  0  0
   59.5020   34.4950   46.3860 C   0  0  0  0  0  0  0  0  0  0  0  0
   60.7840   34.1680   47.1050 C   0  0  0  0  0  0  0  0  0  0  0  0
   60.8370   34.2220   48.5070 C   0  0  0  0  0  0  0  0  0  0  0  0
   62.0170   33.8960   49.1820 C   0  0  0  0  0  0  0  0  0  0  0  0
   63.1520   33.5110   48.4610 C   0  0  0  0  0  0  0  0  0  0  0  0
   64.6320   33.1040   49.3100 Cl  0  0  0  0  0  0  0  0  0  0  0  0
   63.1040   33.4520   47.0650 C   0  0  0  0  0  0  0  0  0  0  0  0
   61.9260   33.7790   46.3890 C   0  0  0  0  0  0  0  0  0  0  0  0
   59.1510   32.0220   46.7310 C   0  0  0  0  0  0  0  0  0  0  0  0
   59.7880   31.2710   45.9450 O   0  0  0  0  0  0  0  0  0  0  0  0
   58.9000   31.5670   48.1090 C   0  0  0  0  0  0  0  0  0  0  0  0
   59.3040   30.3230   48.5980 C   0  0  0  0  0  0  0  0  0  0  0  0
   58.8230   30.3340   50.1930 S   0  0  0  0  0  0  0  0  0  0  0  0
   58.1480   31.8450   50.2350 N   0  0  0  0  0  0  0  0  0  0  0  0
   58.2820   32.3740   49.0230 N   0  0  0  0  0  0  0  0  0  0  0  0
   56.5030   31.0220   44.8610 N   0  0  0  0  0  0  0  0  0  0  0  0
   55.9480   30.0800   43.8950 C   0  0  0  0  0  0  0  0  0  0  0  0
   57.0330   29.1240   43.3930 C   0  0  0  0  0  0  0  0  0  0  0  0
   57.8520   28.6080   44.5450 C   0  0  0  0  0  0  0  0  0  0  0  0
   57.2250   27.9950   45.6430 C   0  0  0  0  0  0  0  0  0  0  0  0
   57.9900   27.4910   46.6990 C   0  0  0  0  0  0  0  0  0  0  0  0
   59.3850   27.5780   46.6580 C   0  0  0  0  0  0  0  0  0  0  0  0
   60.0170   28.1670   45.5600 C   0  0  0  0  0  0  0  0  0  0  0  0
   59.2550   28.6790   44.5040 C   0  0  0  0  0  0  0  0  0  0  0  0
   57.4207   34.2696   44.8715 H   0  0  0  0  0  0  0  0  0  0  0  0
   56.5669   33.3450   46.1620 H   0  0  0  0  0  0  0  0  0  0  0  0
   59.7366   34.8798   45.3826 H   0  0  0  0  0  0  0  0  0  0  0  0
   58.9524   35.2543   46.9617 H   0  0  0  0  0  0  0  0  0  0  0  0
   59.9455   34.5223   49.0772 H   0  0  0  0  0  0  0  0  0  0  0  0
   62.0529   33.9423   50.2804 H   0  0  0  0  0  0  0  0  0  0  0  0
   63.9958   33.1474   46.4976 H   0  0  0  0  0  0  0  0  0  0  0  0
   61.8937   33.7313   45.2905 H   0  0  0  0  0  0  0  0  0  0  0  0
   59.8217   29.5192   48.0541 H   0  0  0  0  0  0  0  0  0  0  0  0
   55.1474   29.4985   44.3755 H   0  0  0  0  0  0  0  0  0  0  0  0
   55.5469   30.6432   43.0394 H   0  0  0  0  0  0  0  0  0  0  0  0
   56.5585   28.2761   42.8772 H   0  0  0  0  0  0  0  0  0  0  0  0
   57.6936   29.6663   42.7005 H   0  0  0  0  0  0  0  0  0  0  0  0
   56.1286   27.9114   45.6717 H   0  0  0  0  0  0  0  0  0  0  0  0
   57.4939   27.0254   47.5633 H   0  0  0  0  0  0  0  0  0  0  0  0
   59.9851   27.1825   47.4907 H   0  0  0  0  0  0  0  0  0  0  0  0
   61.1148   28.2283   45.5256 H   0  0  0  0  0  0  0  0  0  0  0  0
   59.7557   29.1385   43.6390 H   0  0  0  0  0  0  0  0  0  0  0  0
  1  2  2  0
  2  3  1  0
  3  4  1  0
  4  5  1  0
  5  6  1  0
  6  7  2  0
  7  8  1  0
  8  9  2  0
  9 10  1  0
  9 11  1  0
 11 12  2  0
  4 13  1  0
 13 14  2  0
 13 15  1  0
 15 16  2  0
 16 17  1  0
 17 18  1  0
 18 19  2  0
  2 20  1  0
 20 21  1  0
 21 22  1  0
 22 23  1  0
 23 24  2  0
 24 25  1  0
 25 26  2  0
 26 27  1  0
 27 28  2  0
 12  6  1  0
 19 15  1  0
 28 23  1  0
  3 29  1  0
  3 30  1  0
  5 31  1  0
  5 32  1  0
  7 33  1  0
  8 34  1  0
 11 35  1  0
 12 36  1  0
 16 37  1  0
 21 38  1  0
 21 39  1  0
 22 40  1  0
 22 41  1  0
 24 42  1  0
 25 43  1  0
 26 44  1  0
 27 45  1  0
 28 46  1  0
M  CHG  1  20  -1
M  END
>  <UniqueID>  (4) 
4

>  <SMILES>  (4) 
O=C(CN(Cc1ccc(Cl)cc1)C(=O)c1csnn1)[N-]CCc1ccccc1

>  <Energy>  (4) 
81.42814632543787

>  <Genealogy>  (4) 
O=C(CN(Cc1ccc(Cl)cc1)C(=O)c1csnn1)[N-]CCc1ccccc1 (protonated)
O=C(CN(Cc1ccc(Cl)cc1)C(=O)c1csnn1)[N-]CCc1ccccc1 (3D coordinates assigned)
O=C(CN(Cc1ccc(Cl)cc1)C(=O)c1csnn1)[N-]CCc1ccccc1 (optimized conformer: 81.42814632543787 kcal/mol)

>  <smiles>  (4) 
O=C(CN(Cc1ccc(Cl)cc1)C(=O)c1csnn1)NCCc1ccccc1

>  <score_type>  (4) 
oracle

>  <origin>  (4) 
adg

>  <m_score__min__energy>  (4) 
-10.859999999999999

>  <m_primary>  (4) 
energy

$$$$
4:0
     RDKit          3D

 57 59  0  0  0  0  0  0  0  0999 V2000
   60.3340   30.5210   47.5800 H   0  0  0  0  0  0  0  0  0  0  0  0
   59.9560   31.3860   47.9390 O   0  0  0  0  0  0  0  0  0  0  0  0
   59.3340   31.5270   49.1870 C   0  0  0  0  0  0  0  0  0  0  0  0
   58.7830   30.3770   49.8020 C   0  0  0  0  0  0  0  0  0  0  0  0
   58.8580   29.0200   49.1900 C   0  0  0  0  0  0  0  0  0  0  0  0
   58.9190   28.1380   49.8445 H   0  0  0  0  0  0  0  0  0  0  0  0
   58.8530   28.8550   47.9020 N   0  0  0  0  0  0  0  0  0  0  0  0
   59.9760   28.6030   47.0350 C   0  0  0  0  0  0  0  0  0  0  0  0
   61.0980   28.4300   47.5840 O   0  0  0  0  0  0  0  0  0  0  0  0
   59.8800   28.5750   45.5030 C   0  0  0  0  0  0  0  0  0  0  0  0
   59.4630   27.2090   45.0420 N   0  0  0  0  0  0  0  0  0  0  0  0
   58.4430   27.2220   43.9710 C   0  0  0  0  0  0  0  0  0  0  0  0
   57.4392   27.2348   44.4208 H   0  0  0  0  0  0  0  0  0  0  0  0
   58.5770   28.1185   43.3479 H   0  0  0  0  0  0  0  0  0  0  0  0
   58.5541   26.3224   43.3479 H   0  0  0  0  0  0  0  0  0  0  0  0
   59.1050   26.2360   46.1060 C   0  0  0  0  0  0  0  0  0  0  0  0
   59.8870   25.4656   46.1760 H   0  0  0  0  0  0  0  0  0  0  0  0
   59.0194   26.7617   47.0685 H   0  0  0  0  0  0  0  0  0  0  0  0
   57.7880   25.5850   45.7720 C   0  0  0  0  0  0  0  0  0  0  0  0
   57.7450   24.3070   45.1860 C   0  0  0  0  0  0  0  0  0  0  0  0
   58.6808   23.7665   44.9810 H   0  0  0  0  0  0  0  0  0  0  0  0
   56.5170   23.7210   44.8630 C   0  0  0  0  0  0  0  0  0  0  0  0
   56.4899   22.7242   44.3985 H   0  0  0  0  0  0  0  0  0  0  0  0
   55.3240   24.3990   45.1290 C   0  0  0  0  0  0  0  0  0  0  0  0
   54.3594   23.9355   44.8748 H   0  0  0  0  0  0  0  0  0  0  0  0
   55.3570   25.6660   45.7180 C   0  0  0  0  0  0  0  0  0  0  0  0
   54.1720   26.3390   45.9850 O   0  0  0  0  0  0  0  0  0  0  0  0
   56.5840   26.2600   46.0350 C   0  0  0  0  0  0  0  0  0  0  0  0
   56.6059   27.2602   46.4923 H   0  0  0  0  0  0  0  0  0  0  0  0
   61.2470   28.9790   44.8790 C   0  0  0  0  0  0  0  0  0  0  0  0
   61.9680   29.1921   45.6820 H   0  0  0  0  0  0  0  0  0  0  0  0
   61.6243   28.1539   44.2569 H   0  0  0  0  0  0  0  0  0  0  0  0
   61.1152   29.8766   44.2569 H   0  0  0  0  0  0  0  0  0  0  0  0
   58.8410   29.6580   45.1120 C   0  0  0  0  0  0  0  0  0  0  0  0
   58.4144   30.1027   46.0232 H   0  0  0  0  0  0  0  0  0  0  0  0
   59.3340   30.4415   44.5178 H   0  0  0  0  0  0  0  0  0  0  0  0
   58.0377   29.1979   44.5178 H   0  0  0  0  0  0  0  0  0  0  0  0
   58.1510   30.5390   51.0430 C   0  0  0  0  0  0  0  0  0  0  0  0
   57.6260   29.5600   51.6360 O   0  0  0  0  0  0  0  0  0  0  0  0
   58.1010   31.7600   51.6250 N   0  0  0  0  0  0  0  0  0  0  0  0
   58.6420   32.8520   51.0390 C   0  0  0  0  0  0  0  0  0  0  0  0
   58.5740   33.9560   51.6480 O   0  0  0  0  0  0  0  0  0  0  0  0
   59.2550   32.7550   49.8120 N   0  0  0  0  0  0  0  0  0  0  0  0
   59.8510   33.9590   49.1940 C   0  0  0  0  0  0  0  0  0  0  0  0
   59.5788   34.8407   49.7927 H   0  0  0  0  0  0  0  0  0  0  0  0
   60.9429   33.8290   49.1651 H   0  0  0  0  0  0  0  0  0  0  0  0
   59.3570   34.1540   47.7780 C   0  0  0  0  0  0  0  0  0  0  0  0
   60.1120   34.8940   46.8490 C   0  0  0  0  0  0  0  0  0  0  0  0
   61.0805   35.3214   47.1478 H   0  0  0  0  0  0  0  0  0  0  0  0
   59.6370   35.0890   45.5470 C   0  0  0  0  0  0  0  0  0  0  0  0
   60.2381   35.6577   44.8222 H   0  0  0  0  0  0  0  0  0  0  0  0
   58.4000   34.5620   45.1670 C   0  0  0  0  0  0  0  0  0  0  0  0
   58.0301   34.7120   44.1420 H   0  0  0  0  0  0  0  0  0  0  0  0
   57.6320   33.8440   46.0890 C   0  0  0  0  0  0  0  0  0  0  0  0
   56.6550   33.4359   45.7907 H   0  0  0  0  0  0  0  0  0  0  0  0
   58.1050   33.6440   47.3910 C   0  0  0  0  0  0  0  0  0  0  0  0
   57.4942   33.0850   48.1152 H   0  0  0  0  0  0  0  0  0  0  0  0
  1  2  1  0
  2  3  1  0
  3  4  2  0
  4  5  1  0
  5  6  1  0
  5  7  2  0
  7  8  1  0
  8  9  2  0
  8 10  1  0
 10 11  1  0
 11 12  1  0
 12 13  1  0
 12 14  1  0
 12 15  1  0
 11 16  1  0
 16 17  1  0
 16 18  1  0
 16 19  1  0
 19 20  2  0
 20 21  1  0
 20 22  1  0
 22 23  1  0
 22 24  2  0
 24 25  1  0
 24 26  1  0
 26 27  1  0
 26 28  2  0
 28 29  1  0
 10 30  1  0
 30 31  1  0
 30 32  1  0
 30 33  1  0
 10 34  1  0
 34 35  1  0
 34 36  1  0
 34 37  1  0
  4 38  1  0
 38 39  2  0
 38 40  1  0
 40 41  1  0
 41 42  2  0
 41 43  1  0
 43 44  1  0
 44 45  1  0
 44 46  1  0
 44 47  1  0
 47 48  2  0
 48 49  1  0
 48 50  1  0
 50 51  1  0
 50 52  2  0
 52 53  1  0
 52 54  1  0
 54 55  1  0
 54 56  2  0
 56 57  1  0
 43  3  1  0
 56 47  1  0
 28 19  1  0
M  CHG  2  27  -1  40  -1
M  END
>  <UniqueID>  (5) 
5

>  <SMILES>  (5) 
CN(Cc1cccc([O-])c1)C(C)(C)C(=O)/N=C/c1c(O)n(Cc2ccccc2)c(=O)[n-]c1=O

>  <Energy>  (5) 
78.96932885143782

>  <Genealogy>  (5) 
CN(Cc1cccc([O-])c1)C(C)(C)C(=O)N=Cc1c(O)n(Cc2ccccc2)c(=O)[n-]c1=O (protonated)
CN(Cc1cccc([O-])c1)C(C)(C)C(=O)/N=C/c1c(O)n(Cc2ccccc2)c(=O)[n-]c1=O (cis-trans isomerization)
CN(Cc1cccc([O-])c1)C(C)(C)C(=O)/N=C/c1c(O)n(Cc2ccccc2)c(=O)[n-]c1=O (3D coordinates assigned)
CN(Cc1cccc([O-])c1)C(C)(C)C(=O)/N=C/c1c(O)n(Cc2ccccc2)c(=O)[n-]c1=O (optimized conformer: 78.96932885143782 kcal/mol)

>  <smiles>  (5) 
CN(Cc1cccc(O)c1)C(C)(C)C(=O)N=Cc1c(O)n(Cc2ccccc2)c(=O)[nH]c1=O

>  <score_type>  (5) 
oracle

>  <origin>  (5) 
adg

>  <m_score__min__energy>  (5) 
-13.49

>  <m_primary>  (5) 
energy

$$$$
5:0
     RDKit          3D

 31 32  0  0  0  0  0  0  0  0999 V2000
   54.4750   26.3410   45.9500 O   0  0  0  0  0  0  0  0  0  0  0  0
   55.7090   26.2460   46.1780 C   0  0  0  0  0  0  0  0  0  0  0  0
   56.1840   25.2010   46.9610 O   0  0  0  0  0  0  0  0  0  0  0  0
   56.6450   27.2970   45.6720 C   0  0  0  0  0  0  0  0  0  0  0  0
   55.9030   28.4730   45.2260 N   0  0  0  0  0  0  0  0  0  0  0  0
   56.4330   29.6240   44.5520 C   0  0  0  0  0  0  0  0  0  0  0  0
   56.1600   29.7790   43.3330 O   0  0  0  0  0  0  0  0  0  0  0  0
   57.3160   30.6120   45.2010 C   0  0  0  0  0  0  0  0  0  0  0  0
   58.4380   30.3600   45.9760 C   0  0  0  0  0  0  0  0  0  0  0  0
   58.8500   31.6030   46.4050 C   0  0  0  0  0  0  0  0  0  0  0  0
   58.0090   32.5250   45.9030 N   0  0  0  0  0  0  0  0  0  0  0  0
   58.0540   33.9600   46.1700 C   0  0  0  0  0  0  0  0  0  0  0  0
   59.3730   34.4610   45.9640 O   0  0  0  0  0  0  0  0  0  0  0  0
   60.4610   34.2430   46.8250 C   0  0  0  0  0  0  0  0  0  0  0  0
   61.7330   33.8540   46.3580 C   0  0  0  0  0  0  0  0  0  0  0  0
   62.7840   33.6570   47.2610 C   0  0  0  0  0  0  0  0  0  0  0  0
   62.5760   33.8410   48.6290 C   0  0  0  0  0  0  0  0  0  0  0  0
   61.3170   34.2230   49.0990 C   0  0  0  0  0  0  0  0  0  0  0  0
   60.2650   34.4220   48.2000 C   0  0  0  0  0  0  0  0  0  0  0  0
   57.0630   31.9360   45.1930 N   0  0  0  0  0  0  0  0  0  0  0  0
   57.3327   27.5881   46.4797 H   0  0  0  0  0  0  0  0  0  0  0  0
   57.2097   26.8894   44.8205 H   0  0  0  0  0  0  0  0  0  0  0  0
   58.8968   29.3853   46.1986 H   0  0  0  0  0  0  0  0  0  0  0  0
   59.7187   31.8066   47.0484 H   0  0  0  0  0  0  0  0  0  0  0  0
   57.3594   34.4772   45.4917 H   0  0  0  0  0  0  0  0  0  0  0  0
   57.7629   34.1385   47.2157 H   0  0  0  0  0  0  0  0  0  0  0  0
   61.8999   33.7049   45.2810 H   0  0  0  0  0  0  0  0  0  0  0  0
   63.7758   33.3566   46.8920 H   0  0  0  0  0  0  0  0  0  0  0  0
   63.4034   33.6852   49.3370 H   0  0  0  0  0  0  0  0  0  0  0  0
   61.1534   34.3673   50.1771 H   0  0  0  0  0  0  0  0  0  0  0  0
   59.2755   34.7216   48.5757 H   0  0  0  0  0  0  0  0  0  0  0  0
  1  2  2  0
  2  3  1  0
  2  4  1  0
  4  5  1  0
  5  6  1  0
  6  7  2  0
  6  8  1  0
  8  9  1  0
  9 10  2  0
 10 11  1  0
 11 12  1  0
 12 13  1  0
 13 14  1  0
 14 15  2  0
 15 16  1  0
 16 17  2  0
 17 18  1  0
 18 19  2  0
 11 20  1  0
 20  8  2  0
 19 14  1  0
  4 21  1  0
  4 22  1  0
  9 23  1  0
 10 24  1  0
 12 25  1  0
 12 26  1  0
 15 27  1  0
 16 28  1  0
 17 29  1  0
 18 30  1  0
 19 31  1  0
M  CHG  2   3  -1   5  -1
M  END
>  <UniqueID>  (6) 
6

>  <SMILES>  (6) 
O=C([O-])C[N-]C(=O)c1ccn(COc2ccccc2)n1

>  <Energy>  (6) 
62.4937435772233

>  <Genealogy>  (6) 
O=C([O-])C[N-]C(=O)c1ccn(COc2ccccc2)n1 (protonated)
O=C([O-])C[N-]C(=O)c1ccn(COc2ccccc2)n1 (3D coordinates assigned)
O=C([O-])C[N-]C(=O)c1ccn(COc2ccccc2)n1 (optimized conformer: 62.4937435772233 kcal/mol)

>  <smiles>  (6) 
O=C(O)CNC(=O)c1ccn(COc2ccccc2)n1

>  <score_type>  (6) 
oracle

>  <origin>  (6) 
adg

>  <m_score__min__energy>  (6) 
-11.890000000000001

>  <m_primary>  (6) 
energy

$$$$
6:0
     RDKit          3D

 56 59  0  0  0  0  0  0  0  0999 V2000
   59.1542   34.3835   43.7262 H   0  0  0  0  0  0  0  0  0  0  0  0
   58.5170   33.5860   44.1360 C   0  0  0  0  0  0  0  0  0  0  0  0
   58.0280   32.1960   43.3260 S   0  0  0  0  0  0  0  0  0  0  0  0
   57.1380   31.6180   44.6380 C   0  0  0  0  0  0  0  0  0  0  0  0
   56.5180   30.4760   44.7040 N   0  0  0  0  0  0  0  0  0  0  0  0
   57.0940   29.1800   44.4840 C   0  0  0  0  0  0  0  0  0  0  0  0
   57.2940   28.6710   43.1880 C   0  0  0  0  0  0  0  0  0  0  0  0
   57.0273   29.2806   42.3121 H   0  0  0  0  0  0  0  0  0  0  0  0
   57.8310   27.3920   43.0100 C   0  0  0  0  0  0  0  0  0  0  0  0
   58.0011   27.0045   41.9947 H   0  0  0  0  0  0  0  0  0  0  0  0
   58.1520   26.6050   44.1200 C   0  0  0  0  0  0  0  0  0  0  0  0
   58.5871   25.6049   43.9770 H   0  0  0  0  0  0  0  0  0  0  0  0
   57.9200   27.0890   45.4150 C   0  0  0  0  0  0  0  0  0  0  0  0
   58.3050   26.1050   46.8260 S   0  0  0  0  0  0  0  0  0  0  0  0
   57.0290   25.6380   47.4690 O   0  0  0  0  0  0  0  0  0  0  0  0
   59.1110   24.9030   46.4190 O   0  0  0  0  0  0  0  0  0  0  0  0
   59.2180   27.0430   47.9570 N   0  0  0  0  0  0  0  0  0  0  0  0
   58.9780   28.0460   47.7870 H   0  0  0  0  0  0  0  0  0  0  0  0
   60.2250   26.9270   47.7040 H   0  0  0  0  0  0  0  0  0  0  0  0
   57.3820   28.3710   45.5900 C   0  0  0  0  0  0  0  0  0  0  0  0
   57.1842   28.7452   46.6053 H   0  0  0  0  0  0  0  0  0  0  0  0
   57.2160   32.4510   45.6960 N   0  0  0  0  0  0  0  0  0  0  0  0
   57.9720   33.5490   45.4190 C   0  0  0  0  0  0  0  0  0  0  0  0
   58.2620   34.5850   46.4600 C   0  0  0  0  0  0  0  0  0  0  0  0
   57.4458   35.3222   46.4767 H   0  0  0  0  0  0  0  0  0  0  0  0
   58.3447   34.0953   47.4415 H   0  0  0  0  0  0  0  0  0  0  0  0
   59.5500   35.2800   46.1500 C   0  0  0  0  0  0  0  0  0  0  0  0
   59.6050   36.0890   45.1840 O   0  0  0  0  0  0  0  0  0  0  0  0
   60.7240   34.9660   46.9110 N   0  0  0  0  0  0  0  0  0  0  0  0
   61.3800   33.6920   47.0000 C   0  0  0  0  0  0  0  0  0  0  0  0
   62.7810   33.5710   47.0320 C   0  0  0  0  0  0  0  0  0  0  0  0
   63.4106   34.4696   46.9537 H   0  0  0  0  0  0  0  0  0  0  0  0
   63.3760   32.3130   47.1630 C   0  0  0  0  0  0  0  0  0  0  0  0
   64.4723   32.2230   47.1732 H   0  0  0  0  0  0  0  0  0  0  0  0
   62.5820   31.1700   47.2810 C   0  0  0  0  0  0  0  0  0  0  0  0
   63.0541   30.1816   47.3820 H   0  0  0  0  0  0  0  0  0  0  0  0
   61.1860   31.2800   47.2710 C   0  0  0  0  0  0  0  0  0  0  0  0
   60.1930   29.8390   47.4840 S   0  0  0  0  0  0  0  0  0  0  0  0
   58.7790   30.1300   47.0630 O   0  0  0  0  0  0  0  0  0  0  0  0
   60.7370   28.7550   46.5940 O   0  0  0  0  0  0  0  0  0  0  0  0
   60.2460   29.3020   49.1500 N   0  0  0  0  0  0  0  0  0  0  0  0
   61.2650   30.0250   49.9320 C   0  0  0  0  0  0  0  0  0  0  0  0
   61.4426   29.4799   50.8708 H   0  0  0  0  0  0  0  0  0  0  0  0
   62.1781   30.0832   49.3213 H   0  0  0  0  0  0  0  0  0  0  0  0
   60.8310   31.4700   50.2710 C   0  0  0  0  0  0  0  0  0  0  0  0
   61.1074   31.6804   51.3147 H   0  0  0  0  0  0  0  0  0  0  0  0
   61.3429   32.1358   49.5605 H   0  0  0  0  0  0  0  0  0  0  0  0
   59.4390   31.6940   50.1220 O   0  0  0  0  0  0  0  0  0  0  0  0
   58.7140   30.6090   50.6560 C   0  0  0  0  0  0  0  0  0  0  0  0
   59.0693   30.4026   51.6764 H   0  0  0  0  0  0  0  0  0  0  0  0
   57.6450   30.8679   50.6735 H   0  0  0  0  0  0  0  0  0  0  0  0
   58.9100   29.3540   49.7870 C   0  0  0  0  0  0  0  0  0  0  0  0
   58.7881   28.4640   50.4218 H   0  0  0  0  0  0  0  0  0  0  0  0
   58.1600   29.3865   48.9830 H   0  0  0  0  0  0  0  0  0  0  0  0
   60.5910   32.5420   47.1380 C   0  0  0  0  0  0  0  0  0  0  0  0
   59.4946   32.6307   47.1420 H   0  0  0  0  0  0  0  0  0  0  0  0
  1  2  1  0
  2  3  1  0
  3  4  1  0
  4  5  2  0
  5  6  1  0
  6  7  2  0
  7  8  1  0
  7  9  1  0
  9 10  1  0
  9 11  2  0
 11 12  1  0
 11 13  1  0
 13 14  1  0
 14 15  2  0
 14 16  2  0
 14 17  1  0
 17 18  1  0
 17 19  1  0
 13 20  2  0
 20 21  1  0
  4 22  1  0
 22 23  1  0
 23 24  1  0
 24 25  1  0
 24 26  1  0
 24 27  1  0
 27 28  2  0
 27 29  1  0
 29 30  1  0
 30 31  2  0
 31 32  1  0
 31 33  1  0
 33 34  1  0
 33 35  2  0
 35 36  1  0
 35 37  1  0
 37 38  1  0
 38 39  2  0
 38 40  2  0
 38 41  1  0
 41 42  1  0
 42 43  1  0
 42 44  1  0
 42 45  1  0
 45 46  1  0
 45 47  1  0
 45 48  1  0
 48 49  1  0
 49 50  1  0
 49 51  1  0
 49 52  1  0
 52 53  1  0
 52 54  1  0
 37 55  2  0
 55 56  1  0
 23  2  2  0
 55 30  1  0
 20  6  1  0
 52 41  1  0
M  CHG  2  22  -1  29  -1
M  END
>  <UniqueID>  (7) 
7

>  <SMILES>  (7) 
NS(=O)(=O)c1cccc(/N=c2/[n-]c(CC(=O)[N-]c3cccc(S(=O)(=O)N4CCOCC4)c3)cs2)c1

>  <Energy>  (7) 
106.82559431623817

>  <Genealogy>  (7) 
NS(=O)(=O)c1cccc(N=c2[n-]c(CC(=O)[N-]c3cccc(S(=O)(=O)N4CCOCC4)c3)cs2)c1 (protonated)
NS(=O)(=O)c1cccc(/N=c2/[n-]c(CC(=O)[N-]c3cccc(S(=O)(=O)N4CCOCC4)c3)cs2)c1 (cis-trans isomerization)
NS(=O)(=O)c1cccc(/N=c2/[n-]c(CC(=O)[N-]c3cccc(S(=O)(=O)N4CCOCC4)c3)cs2)c1 (3D coordinates assigned)
NS(=O)(=O)c1cccc(/N=c2/[n-]c(CC(=O)[N-]c3cccc(S(=O)(=O)N4CCOCC4)c3)cs2)c1 (nonaromatic ring conformer: 106.82559431623817 kcal/mol)

>  <smiles>  (7) 
NS(=O)(=O)c1cccc(N=c2[nH]c(CC(=O)Nc3cccc(S(=O)(=O)N4CCOCC4)c3)cs2)c1

>  <score_type>  (7) 
oracle

>  <origin>  (7) 
adg

>  <m_score__min__energy>  (7) 
-14.050000000000001

>  <m_primary>  (7) 
energy

$$$$
7:0
     RDKit          3D

 51 54  0  0  0  0  0  0  0  0999 V2000
   55.4970   22.6820   42.7090 N   0  0  0  0  0  0  0  0  0  0  0  0
   55.9900   23.5740   43.4870 C   0  0  0  0  0  0  0  0  0  0  0  0
   56.9960   24.3290   42.9900 N   0  0  0  0  0  0  0  0  0  0  0  0
   57.5530   25.2810   43.7600 C   0  0  0  0  0  0  0  0  0  0  0  0
   57.0780   25.4610   45.0450 C   0  0  0  0  0  0  0  0  0  0  0  0
   57.7050   26.5010   45.8500 C   0  0  0  0  0  0  0  0  0  0  0  0
   57.6010   27.8380   45.4730 C   0  0  0  0  0  0  0  0  0  0  0  0
   58.1760   28.8350   46.2030 C   0  0  0  0  0  0  0  0  0  0  0  0
   58.0870   30.2630   45.8320 C   0  0  0  0  0  0  0  0  0  0  0  0
   57.0400   30.6040   45.2380 O   0  0  0  0  0  0  0  0  0  0  0  0
   59.0880   31.1900   46.1130 N   0  0  0  0  0  0  0  0  0  0  0  0
   59.1050   32.5630   45.8070 C   0  0  0  0  0  0  0  0  0  0  0  0
   58.2900   33.1880   44.8910 C   0  0  0  0  0  0  0  0  0  0  0  0
   58.3560   34.5560   44.6350 C   0  0  0  0  0  0  0  0  0  0  0  0
   59.2530   35.3620   45.2970 C   0  0  0  0  0  0  0  0  0  0  0  0
   60.0760   34.7520   46.2170 C   0  0  0  0  0  0  0  0  0  0  0  0
   60.0110   33.3890   46.4720 C   0  0  0  0  0  0  0  0  0  0  0  0
   60.9280   32.8930   47.4400 N   0  0  0  0  0  0  0  0  0  0  0  0
   60.5140   32.4160   48.7530 C   0  0  0  0  0  0  0  0  0  0  0  0
   60.8990   30.9500   48.7950 C   0  0  0  0  0  0  0  0  0  0  0  0
   61.7640   30.6110   47.7640 O   0  0  0  0  0  0  0  0  0  0  0  0
   62.8320   31.4740   47.6060 C   0  0  0  0  0  0  0  0  0  0  0  0
   62.3650   32.8310   47.1690 C   0  0  0  0  0  0  0  0  0  0  0  0
   58.8760   28.4420   47.3480 C   0  0  0  0  0  0  0  0  0  0  0  0
   58.9830   27.1250   47.7290 C   0  0  0  0  0  0  0  0  0  0  0  0
   58.4000   26.1450   46.9830 C   0  0  0  0  0  0  0  0  0  0  0  0
   58.4870   24.8300   47.3310 F   0  0  0  0  0  0  0  0  0  0  0  0
   56.0550   24.6760   45.5180 C   0  0  0  0  0  0  0  0  0  0  0  0
   55.6050   24.8290   46.7010 N   0  0  0  0  0  0  0  0  0  0  0  0
   55.5020   23.7160   44.7260 N   0  0  0  0  0  0  0  0  0  0  0  0
   55.8810   22.5610   41.7670 H   0  0  0  0  0  0  0  0  0  0  0  0
   57.3770   24.2230   42.0300 H   0  0  0  0  0  0  0  0  0  0  0  0
   58.3722   25.9052   43.3735 H   0  0  0  0  0  0  0  0  0  0  0  0
   57.0402   28.0958   44.5625 H   0  0  0  0  0  0  0  0  0  0  0  0
   59.9450   30.8150   46.6250 H   0  0  0  0  0  0  0  0  0  0  0  0
   57.5564   32.5827   44.3383 H   0  0  0  0  0  0  0  0  0  0  0  0
   57.6788   34.9995   43.8902 H   0  0  0  0  0  0  0  0  0  0  0  0
   59.3101   36.4428   45.1006 H   0  0  0  0  0  0  0  0  0  0  0  0
   60.8071   35.3632   46.7665 H   0  0  0  0  0  0  0  0  0  0  0  0
   61.0354   32.9727   49.5456 H   0  0  0  0  0  0  0  0  0  0  0  0
   59.4355   32.5581   48.9159 H   0  0  0  0  0  0  0  0  0  0  0  0
   61.3914   30.7393   49.7558 H   0  0  0  0  0  0  0  0  0  0  0  0
   59.9818   30.3539   48.6795 H   0  0  0  0  0  0  0  0  0  0  0  0
   63.3639   31.5677   48.5643 H   0  0  0  0  0  0  0  0  0  0  0  0
   63.5006   31.0672   46.8331 H   0  0  0  0  0  0  0  0  0  0  0  0
   62.8911   33.6130   47.7362 H   0  0  0  0  0  0  0  0  0  0  0  0
   62.5719   32.9939   46.1010 H   0  0  0  0  0  0  0  0  0  0  0  0
   59.3582   29.2138   47.9659 H   0  0  0  0  0  0  0  0  0  0  0  0
   59.5413   26.8616   48.6394 H   0  0  0  0  0  0  0  0  0  0  0  0
   55.5390   25.7600   47.1530 H   0  0  0  0  0  0  0  0  0  0  0  0
   54.7250   23.1020   45.0470 H   0  0  0  0  0  0  0  0  0  0  0  0
  1  2  2  3
  2  3  1  0
  3  4  1  0
  4  5  2  0
  5  6  1  0
  6  7  2  0
  7  8  1  0
  8  9  1  0
  9 10  2  0
  9 11  1  0
 11 12  1  0
 12 13  2  0
 13 14  1  0
 14 15  2  0
 15 16  1  0
 16 17  2  0
 17 18  1  0
 18 19  1  0
 19 20  1  0
 20 21  1  0
 21 22  1  0
 22 23  1  0
  8 24  2  0
 24 25  1  0
 25 26  2  0
 26 27  1  0
  5 28  1  0
 28 29  2  3
 28 30  1  0
 30  2  1  0
 26  6  1  0
 17 12  1  0
 23 18  1  0
  1 31  1  0
  3 32  1  0
  4 33  1  0
  7 34  1  0
 11 35  1  0
 13 36  1  0
 14 37  1  0
 15 38  1  0
 16 39  1  0
 19 40  1  0
 19 41  1  0
 20 42  1  0
 20 43  1  0
 22 44  1  0
 22 45  1  0
 23 46  1  0
 23 47  1  0
 24 48  1  0
 25 49  1  0
 29 50  1  0
 30 51  1  0
M  END
>  <smiles>  (8) 
N=c1[nH]cc(-c2cc(C(=O)Nc3ccccc3N3CCOCC3)ccc2F)c(=N)[nH]1

>  <score_type>  (8) 
oracle

>  <origin>  (8) 
adg

>  <m_score__min__energy>  (8) 
-8.6999999999999993

>  <m_primary>  (8) 
energy

$$$$
8:0
     RDKit          3D

 20 20  0  0  0  0  0  0  0  0999 V2000
   54.7069   29.7553   42.9655 H   0  0  0  0  0  0  0  0  0  0  0  0
   55.5290   29.7330   43.6960 C   0  0  0  0  0  0  0  0  0  0  0  0
   55.2970   29.3500   44.8740 O   0  0  0  0  0  0  0  0  0  0  0  0
   56.8760   30.1510   43.2770 C   0  0  0  0  0  0  0  0  0  0  0  0
   57.4266   29.5237   42.5605 H   0  0  0  0  0  0  0  0  0  0  0  0
   57.4560   31.2670   43.7360 C   0  0  0  0  0  0  0  0  0  0  0  0
   57.7388   32.0477   43.0145 H   0  0  0  0  0  0  0  0  0  0  0  0
   57.7330   31.4960   45.1700 C   0  0  0  0  0  0  0  0  0  0  0  0
   57.4580   30.5710   45.9810 O   0  0  0  0  0  0  0  0  0  0  0  0
   58.3000   32.7620   45.6940 C   0  0  0  0  0  0  0  0  0  0  0  0
   58.7290   33.7800   44.8260 C   0  0  0  0  0  0  0  0  0  0  0  0
   58.6652   33.6408   43.7367 H   0  0  0  0  0  0  0  0  0  0  0  0
   59.2370   34.9700   45.3530 C   0  0  0  0  0  0  0  0  0  0  0  0
   59.5829   35.7658   44.6770 H   0  0  0  0  0  0  0  0  0  0  0  0
   59.3050   35.1470   46.7000 N   0  0  0  0  0  0  0  0  0  0  0  0
   59.6860   36.0430   47.0790 H   0  0  0  0  0  0  0  0  0  0  0  0
   58.8800   34.1860   47.5630 C   0  0  0  0  0  0  0  0  0  0  0  0
   58.9421   34.3577   48.6477 H   0  0  0  0  0  0  0  0  0  0  0  0
   58.3650   32.9820   47.0780 C   0  0  0  0  0  0  0  0  0  0  0  0
   58.0121   32.2100   47.7776 H   0  0  0  0  0  0  0  0  0  0  0  0
  1  2  1  0
  2  3  2  0
  2  4  1  0
  4  5  1  0
  4  6  2  0
  6  7  1  0
  6  8  1  0
  8  9  2  0
  8 10  1  0
 10 11  2  0
 11 12  1  0
 11 13  1  0
 13 14  1  0
 13 15  2  0
 15 16  1  0
 15 17  1  0
 17 18  1  0
 17 19  2  0
 19 20  1  0
 19 10  1  0
M  CHG  1  15   1
M  END
>  <UniqueID>  (9) 
8

>  <SMILES>  (9) 
O=C/C=C/C(=O)c1cc[nH+]cc1

>  <Energy>  (9) 
22.07140363885058

>  <Genealogy>  (9) 
O=CC=CC(=O)c1cc[nH+]cc1 (protonated)
O=C/C=C/C(=O)c1cc[nH+]cc1 (cis-trans isomerization)
O=C/C=C/C(=O)c1cc[nH+]cc1 (3D coordinates assigned)
O=C/C=C/C(=O)c1cc[nH+]cc1 (optimized conformer: 22.07140363885058 kcal/mol)

>  <smiles>  (9) 
O=CC=CC(=O)c1ccncc1

>  <score_type>  (9) 
oracle

>  <origin>  (9) 
adg

>  <m_score__min__energy>  (9) 
-3.9700000000000002

>  <m_primary>  (9) 
energy

$$$$
9:0
     RDKit          3D

 35 37  0  0  0  0  0  0  0  0999 V2000
   60.5377   28.7312   43.9154 H   0  0  0  0  0  0  0  0  0  0  0  0
   59.5590   28.6930   44.4160 C   0  0  0  0  0  0  0  0  0  0  0  0
   58.7820   29.8050   44.4740 N   0  0  0  0  0  0  0  0  0  0  0  0
   57.5650   29.7800   45.0800 C   0  0  0  0  0  0  0  0  0  0  0  0
   56.8250   30.8470   45.1590 N   0  0  0  0  0  0  0  0  0  0  0  0
   57.2460   32.2060   44.9600 C   0  0  0  0  0  0  0  0  0  0  0  0
   57.4690   32.6010   43.7850 O   0  0  0  0  0  0  0  0  0  0  0  0
   57.4510   33.1610   46.1130 C   0  0  0  0  0  0  0  0  0  0  0  0
   58.0734   34.0003   45.7692 H   0  0  0  0  0  0  0  0  0  0  0  0
   56.4590   33.5015   46.4446 H   0  0  0  0  0  0  0  0  0  0  0  0
   58.1410   32.4960   47.3140 C   0  0  0  0  0  0  0  0  0  0  0  0
   57.8119   32.9964   48.2367 H   0  0  0  0  0  0  0  0  0  0  0  0
   57.8638   31.4315   47.3235 H   0  0  0  0  0  0  0  0  0  0  0  0
   59.6430   32.5910   47.2150 C   0  0  0  0  0  0  0  0  0  0  0  0
   60.2490   33.7830   46.7850 C   0  0  0  0  0  0  0  0  0  0  0  0
   59.6249   34.6422   46.4982 H   0  0  0  0  0  0  0  0  0  0  0  0
   61.6430   33.8820   46.7200 C   0  0  0  0  0  0  0  0  0  0  0  0
   62.1123   34.8166   46.3791 H   0  0  0  0  0  0  0  0  0  0  0  0
   62.4400   32.7940   47.0880 C   0  0  0  0  0  0  0  0  0  0  0  0
   63.5359   32.8722   47.0344 H   0  0  0  0  0  0  0  0  0  0  0  0
   61.8450   31.6070   47.5240 C   0  0  0  0  0  0  0  0  0  0  0  0
   62.4733   30.7527   47.8164 H   0  0  0  0  0  0  0  0  0  0  0  0
   60.4530   31.5040   47.5890 C   0  0  0  0  0  0  0  0  0  0  0  0
   59.9887   30.5685   47.9343 H   0  0  0  0  0  0  0  0  0  0  0  0
   57.1260   28.6280   45.6540 N   0  0  0  0  0  0  0  0  0  0  0  0
   57.8660   27.4860   45.6240 C   0  0  0  0  0  0  0  0  0  0  0  0
   57.3420   26.2550   46.2580 C   0  0  0  0  0  0  0  0  0  0  0  0
   58.2740   25.0060   46.9120 S   0  0  0  0  0  0  0  0  0  0  0  0
   56.9280   24.1110   47.3660 C   0  0  0  0  0  0  0  0  0  0  0  0
   56.9790   22.9960   47.9430 O   0  0  0  0  0  0  0  0  0  0  0  0
   55.7700   24.7210   47.0410 N   0  0  0  0  0  0  0  0  0  0  0  0
   55.9970   25.9110   46.4260 C   0  0  0  0  0  0  0  0  0  0  0  0
   54.9450   26.7150   46.0020 O   0  0  0  0  0  0  0  0  0  0  0  0
   59.1160   27.5030   44.9910 C   0  0  0  0  0  0  0  0  0  0  0  0
   59.7355   26.5950   44.9487 H   0  0  0  0  0  0  0  0  0  0  0  0
  1  2  1  0
  2  3  1  0
  3  4  1  0
  4  5  2  0
  5  6  1  0
  6  7  2  0
  6  8  1  0
  8  9  1  0
  8 10  1  0
  8 11  1  0
 11 12  1  0
 11 13  1  0
 11 14  1  0
 14 15  2  0
 15 16  1  0
 15 17  1  0
 17 18  1  0
 17 19  2  0
 19 20  1  0
 19 21  1  0
 21 22  1  0
 21 23  2  0
 23 24  1  0
  4 25  1  0
 25 26  2  0
 26 27  1  0
 27 28  1  0
 28 29  1  0
 29 30  2  0
 29 31  1  0
 31 32  1  0
 32 33  1  0
 26 34  1  0
 34 35  1  0
 34  2  2  0
 23 14  1  0
 32 27  2  0
M  CHG  3   3  -1  31  -1  33  -1
M  END
>  <UniqueID>  (10) 
9

>  <SMILES>  (10) 
O=C(CCc1ccccc1)/N=c1/nc(-c2sc(=O)[n-]c2[O-])cc[n-]1

>  <Energy>  (10) 
73.77869256428708

>  <Genealogy>  (10) 
O=C(CCc1ccccc1)N=c1nc(-c2sc(=O)[n-]c2[O-])cc[n-]1 (protonated)
O=C(CCc1ccccc1)/N=c1/nc(-c2sc(=O)[n-]c2[O-])cc[n-]1 (cis-trans isomerization)
O=C(CCc1ccccc1)/N=c1/nc(-c2sc(=O)[n-]c2[O-])cc[n-]1 (3D coordinates assigned)
O=C(CCc1ccccc1)/N=c1/nc(-c2sc(=O)[n-]c2[O-])cc[n-]1 (optimized conformer: 73.77869256428708 kcal/mol)

>  <smiles>  (10) 
O=C(CCc1ccccc1)N=c1nc(-c2sc(=O)[nH]c2O)cc[nH]1

>  <score_type>  (10) 
oracle

>  <origin>  (10) 
adg

>  <m_score__min__energy>  (10) 
-15.529999999999999

>  <m_primary>  (10) 
energy

$$$$
10:0
     RDKit          3D

 50 53  0  0  0  0  0  0  0  0999 V2000
   56.2440   28.6300   44.3560 H   0  0  0  0  0  0  0  0  0  0  0  0
   55.8830   28.3790   45.2660 O   0  0  0  0  0  0  0  0  0  0  0  0
   56.0570   27.0930   45.7640 C   0  0  0  0  0  0  0  0  0  0  0  0
   55.0610   26.2040   45.9090 N   0  0  0  0  0  0  0  0  0  0  0  0
   55.7050   25.1110   46.3740 C   0  0  0  0  0  0  0  0  0  0  0  0
   55.1100   24.0350   46.6340 O   0  0  0  0  0  0  0  0  0  0  0  0
   57.0390   25.2600   46.5220 N   0  0  0  0  0  0  0  0  0  0  0  0
   57.2520   26.5350   46.1570 C   0  0  0  0  0  0  0  0  0  0  0  0
   58.5870   27.1370   46.0440 C   0  0  0  0  0  0  0  0  0  0  0  0
   59.2004   26.8392   45.1808 H   0  0  0  0  0  0  0  0  0  0  0  0
   59.1260   28.0220   46.9050 C   0  0  0  0  0  0  0  0  0  0  0  0
   58.6990   28.1450   48.2190 C   0  0  0  0  0  0  0  0  0  0  0  0
   57.8795   27.5878   48.6965 H   0  0  0  0  0  0  0  0  0  0  0  0
   59.4980   29.0990   48.8120 C   0  0  0  0  0  0  0  0  0  0  0  0
   59.3720   29.5520   50.2350 C   0  0  0  0  0  0  0  0  0  0  0  0
   59.6051   28.7141   50.9085 H   0  0  0  0  0  0  0  0  0  0  0  0
   60.0745   30.3779   50.4205 H   0  0  0  0  0  0  0  0  0  0  0  0
   58.3439   29.8965   50.4205 H   0  0  0  0  0  0  0  0  0  0  0  0
   60.3780   29.5980   47.9170 N   0  0  0  0  0  0  0  0  0  0  0  0
   61.3080   30.6680   48.1650 C   0  0  0  0  0  0  0  0  0  0  0  0
   62.1860   30.5980   49.2550 C   0  0  0  0  0  0  0  0  0  0  0  0
   62.1669   29.7218   49.9198 H   0  0  0  0  0  0  0  0  0  0  0  0
   63.0850   31.6380   49.4990 C   0  0  0  0  0  0  0  0  0  0  0  0
   63.7617   31.5867   50.3647 H   0  0  0  0  0  0  0  0  0  0  0  0
   63.1270   32.7450   48.6450 C   0  0  0  0  0  0  0  0  0  0  0  0
   63.8334   33.5645   48.8436 H   0  0  0  0  0  0  0  0  0  0  0  0
   62.2700   32.8130   47.5350 C   0  0  0  0  0  0  0  0  0  0  0  0
   62.3310   33.9760   46.6280 C   0  0  0  0  0  0  0  0  0  0  0  0
   63.4270   34.2660   46.0810 O   0  0  0  0  0  0  0  0  0  0  0  0
   61.1800   34.7790   46.3340 N   0  0  0  0  0  0  0  0  0  0  0  0
   59.8790   34.6780   46.9950 C   0  0  0  0  0  0  0  0  0  0  0  0
   60.0287   34.3892   48.0458 H   0  0  0  0  0  0  0  0  0  0  0  0
   59.3748   35.6539   46.9369 H   0  0  0  0  0  0  0  0  0  0  0  0
   59.0190   33.6460   46.3160 C   0  0  0  0  0  0  0  0  0  0  0  0
   58.5890   32.5110   47.0260 C   0  0  0  0  0  0  0  0  0  0  0  0
   58.8932   32.3738   48.0742 H   0  0  0  0  0  0  0  0  0  0  0  0
   57.7770   31.5560   46.4070 C   0  0  0  0  0  0  0  0  0  0  0  0
   57.4504   30.6669   46.9663 H   0  0  0  0  0  0  0  0  0  0  0  0
   57.3790   31.7300   45.0760 C   0  0  0  0  0  0  0  0  0  0  0  0
   56.5690   30.7810   44.4620 O   0  0  0  0  0  0  0  0  0  0  0  0
   57.7980   32.8610   44.3640 C   0  0  0  0  0  0  0  0  0  0  0  0
   57.4823   33.0005   43.3195 H   0  0  0  0  0  0  0  0  0  0  0  0
   58.6160   33.8120   44.9780 C   0  0  0  0  0  0  0  0  0  0  0  0
   58.9471   34.6956   44.4126 H   0  0  0  0  0  0  0  0  0  0  0  0
   61.3440   31.7810   47.3140 C   0  0  0  0  0  0  0  0  0  0  0  0
   60.6432   31.8464   46.4686 H   0  0  0  0  0  0  0  0  0  0  0  0
   60.1510   28.9690   46.7350 C   0  0  0  0  0  0  0  0  0  0  0  0
   60.7330   29.3410   45.5820 C   0  0  0  0  0  0  0  0  0  0  0  0
   61.5301   30.0991   45.5878 H   0  0  0  0  0  0  0  0  0  0  0  0
   60.4122   28.8874   44.6326 H   0  0  0  0  0  0  0  0  0  0  0  0
  1  2  1  0
  2  3  1  0
  3  4  1  0
  4  5  1  0
  5  6  2  0
  5  7  1  0
  7  8  1  0
  8  9  1  0
  9 10  1  0
  9 11  2  0
 11 12  1  0
 12 13  1  0
 12 14  2  0
 14 15  1  0
 15 16  1  0
 15 17  1  0
 15 18  1  0
 14 19  1  0
 19 20  1  0
 20 21  2  0
 21 22  1  0
 21 23  1  0
 23 24  1  0
 23 25  2  0
 25 26  1  0
 25 27  1  0
 27 28  1  0
 28 29  2  0
 28 30  1  0
 30 31  1  0
 31 32  1  0
 31 33  1  0
 31 34  1  0
 34 35  2  0
 35 36  1  0
 35 37  1  0
 37 38  1  0
 37 39  2  0
 39 40  1  0
 39 41  1  0
 41 42  1  0
 41 43  2  0
 43 44  1  0
 27 45  2  0
 45 46  1  0
 19 47  1  0
 47 48  2  0
 48 49  1  0
 48 50  1  0
  8  3  2  0
 47 11  1  0
 45 20  1  0
 43 34  1  0
M  CHG  4   4  -1   7  -1  30  -1  40  -1
M  END
>  <UniqueID>  (11) 
10

>  <SMILES>  (11) 
C=c1/c(=C\c2[n-]c(=O)[n-]c2O)cc(C)n1-c1cccc(C(=O)[N-]Cc2ccc([O-])cc2)c1

>  <Energy>  (11) 
130.4481563276749

>  <Genealogy>  (11) 
C=c1c(=Cc2[n-]c(=O)[n-]c2O)cc(C)n1-c1cccc(C(=O)[N-]Cc2ccc([O-])cc2)c1 (protonated)
C=c1/c(=C\c2[n-]c(=O)[n-]c2O)cc(C)n1-c1cccc(C(=O)[N-]Cc2ccc([O-])cc2)c1 (cis-trans isomerization)
C=c1/c(=C\c2[n-]c(=O)[n-]c2O)cc(C)n1-c1cccc(C(=O)[N-]Cc2ccc([O-])cc2)c1 (3D coordinates assigned)
C=c1/c(=C\c2[n-]c(=O)[n-]c2O)cc(C)n1-c1cccc(C(=O)[N-]Cc2ccc([O-])cc2)c1 (optimized conformer: 130.4481563276749 kcal/mol)

>  <smiles>  (11) 
C=c1c(=Cc2[nH]c(=O)[nH]c2O)cc(C)n1-c1cccc(C(=O)NCc2ccc(O)cc2)c1

>  <score_type>  (11) 
oracle

>  <origin>  (11) 
adg

>  <m_score__min__energy>  (11) 
-17.210000000000001

>  <m_primary>  (11) 
energy

$$$$
11:0
     RDKit          3D

 36 38  0  0  0  0  0  0  0  0999 V2000
   60.7080   30.0650   46.0390 C   0  0  0  0  0  0  0  0  0  0  0  0
   59.4810   29.7860   45.5470 C   0  0  0  0  0  0  0  0  0  0  0  0
   59.1620   28.4560   45.1800 C   0  0  0  0  0  0  0  0  0  0  0  0
   60.0400   27.5510   45.2590 O   0  0  0  0  0  0  0  0  0  0  0  0
   57.8630   28.1690   44.6990 C   0  0  0  0  0  0  0  0  0  0  0  0
   57.4350   26.9400   44.3390 C   0  0  0  0  0  0  0  0  0  0  0  0
   57.2700   25.7800   45.2390 C   0  0  0  0  0  0  0  0  0  0  0  0
   58.3070   24.8390   45.3530 C   0  0  0  0  0  0  0  0  0  0  0  0
   58.1920   23.7630   46.2370 C   0  0  0  0  0  0  0  0  0  0  0  0
   57.0490   23.6280   47.0280 C   0  0  0  0  0  0  0  0  0  0  0  0
   56.9360   22.5580   47.9070 O   0  0  0  0  0  0  0  0  0  0  0  0
   56.0200   24.5700   46.9380 C   0  0  0  0  0  0  0  0  0  0  0  0
   56.1230   25.6510   46.0520 C   0  0  0  0  0  0  0  0  0  0  0  0
   55.0740   26.5700   45.9960 O   0  0  0  0  0  0  0  0  0  0  0  0
   56.9850   29.1920   44.5660 N   0  0  0  0  0  0  0  0  0  0  0  0
   57.2920   30.4680   44.9000 C   0  0  0  0  0  0  0  0  0  0  0  0
   56.4180   31.3630   44.7450 O   0  0  0  0  0  0  0  0  0  0  0  0
   58.5300   30.7760   45.3960 N   0  0  0  0  0  0  0  0  0  0  0  0
   58.8030   32.1500   45.7380 C   0  0  0  0  0  0  0  0  0  0  0  0
   58.8300   33.1330   44.7360 C   0  0  0  0  0  0  0  0  0  0  0  0
   59.0930   34.4660   45.0680 C   0  0  0  0  0  0  0  0  0  0  0  0
   59.3290   34.8220   46.4010 C   0  0  0  0  0  0  0  0  0  0  0  0
   59.5910   36.1470   46.7290 O   0  0  0  0  0  0  0  0  0  0  0  0
   59.3000   33.8450   47.4020 C   0  0  0  0  0  0  0  0  0  0  0  0
   59.0360   32.5120   47.0720 C   0  0  0  0  0  0  0  0  0  0  0  0
   60.9640   31.0954   46.3265 H   0  0  0  0  0  0  0  0  0  0  0  0
   61.4509   29.2617   46.1521 H   0  0  0  0  0  0  0  0  0  0  0  0
   57.1863   26.7885   43.2782 H   0  0  0  0  0  0  0  0  0  0  0  0
   59.2152   24.9500   44.7425 H   0  0  0  0  0  0  0  0  0  0  0  0
   59.0019   23.0222   46.3099 H   0  0  0  0  0  0  0  0  0  0  0  0
   55.1238   24.4621   47.5666 H   0  0  0  0  0  0  0  0  0  0  0  0
   55.1500   27.4600   45.5190 H   0  0  0  0  0  0  0  0  0  0  0  0
   58.6440   32.8544   43.6882 H   0  0  0  0  0  0  0  0  0  0  0  0
   59.1144   35.2347   44.2815 H   0  0  0  0  0  0  0  0  0  0  0  0
   59.4850   34.1256   48.4494 H   0  0  0  0  0  0  0  0  0  0  0  0
   59.0111   31.7459   47.8609 H   0  0  0  0  0  0  0  0  0  0  0  0
  1  2  2  0
  2  3  1  0
  3  4  2  0
  3  5  1  0
  5  6  2  3
  6  7  1  0
  7  8  2  0
  8  9  1  0
  9 10  2  0
 10 11  1  0
 10 12  1  0
 12 13  2  0
 13 14  1  0
  5 15  1  0
 15 16  1  0
 16 17  2  0
 16 18  1  0
 18 19  1  0
 19 20  2  0
 20 21  1  0
 21 22  2  0
 22 23  1  0
 22 24  1  0
 24 25  2  0
 18  2  1  0
 25 19  1  0
 13  7  1  0
  1 26  1  0
  1 27  1  0
  6 28  1  0
  8 29  1  0
  9 30  1  0
 12 31  1  0
 14 32  1  0
 20 33  1  0
 21 34  1  0
 24 35  1  0
 25 36  1  0
M  CHG  3  11  -1  15  -1  23  -1
M  END
>  <UniqueID>  (12) 
11

>  <SMILES>  (12) 
C=c1c(=O)c(=Cc2ccc([O-])cc2O)[n-]c(=O)n1-c1ccc([O-])cc1

>  <Energy>  (12) 
68.60007394546625

>  <Genealogy>  (12) 
C=c1c(=O)c(=Cc2ccc([O-])cc2O)[n-]c(=O)n1-c1ccc([O-])cc1 (protonated)
C=c1c(=O)c(=Cc2ccc([O-])cc2O)[n-]c(=O)n1-c1ccc([O-])cc1 (3D coordinates assigned)
C=c1c(=O)c(=Cc2ccc([O-])cc2O)[n-]c(=O)n1-c1ccc([O-])cc1 (optimized conformer: 68.60007394546625 kcal/mol)

>  <smiles>  (12) 
C=c1c(=O)c(=Cc2ccc(O)cc2O)[nH]c(=O)n1-c1ccc(O)cc1

>  <score_type>  (12) 
oracle

>  <origin>  (12) 
adg

>  <m_score__min__energy>  (12) 
-13.1

>  <m_primary>  (12) 
energy

$$$$
12:0
     RDKit          3D

 75 80  0  0  0  0  0  0  0  0999 V2000
   56.1580   31.0130   51.9010 H   0  0  0  0  0  0  0  0  0  0  0  0
   55.2660   30.8100   51.4660 O   0  0  0  0  0  0  0  0  0  0  0  0
   54.0560   31.0900   52.1000 C   0  0  0  0  0  0  0  0  0  0  0  0
   52.9800   31.5860   51.3480 C   0  0  0  0  0  0  0  0  0  0  0  0
   53.1061   31.7772   50.2721 H   0  0  0  0  0  0  0  0  0  0  0  0
   51.7500   31.8380   51.9590 C   0  0  0  0  0  0  0  0  0  0  0  0
   50.6820   32.3070   51.2020 O   0  0  0  0  0  0  0  0  0  0  0  0
   51.5930   31.6130   53.3290 C   0  0  0  0  0  0  0  0  0  0  0  0
   50.6254   31.8172   53.8107 H   0  0  0  0  0  0  0  0  0  0  0  0
   52.6620   31.1290   54.0900 C   0  0  0  0  0  0  0  0  0  0  0  0
   52.5297   30.9557   55.1682 H   0  0  0  0  0  0  0  0  0  0  0  0
   53.9050   30.8620   53.4880 C   0  0  0  0  0  0  0  0  0  0  0  0
   55.0040   30.2820   54.3100 C   0  0  0  0  0  0  0  0  0  0  0  0
   56.2520   31.0640   54.4800 C   0  0  0  0  0  0  0  0  0  0  0  0
   56.5910   31.4550   55.6270 O   0  0  0  0  0  0  0  0  0  0  0  0
   57.0160   31.4180   53.3620 O   0  0  0  0  0  0  0  0  0  0  0  0
   57.6830   32.6740   53.2220 C   0  0  0  0  0  0  0  0  0  0  0  0
   57.0008   33.4839   53.5197 H   0  0  0  0  0  0  0  0  0  0  0  0
   58.5754   32.6825   53.8651 H   0  0  0  0  0  0  0  0  0  0  0  0
   58.1010   32.8760   51.7990 C   0  0  0  0  0  0  0  0  0  0  0  0
   57.5410   32.2550   50.7400 N   0  0  0  0  0  0  0  0  0  0  0  0
   58.2090   32.6530   49.6680 N   0  0  0  0  0  0  0  0  0  0  0  0
   59.1820   33.4850   50.0140 N   0  0  0  0  0  0  0  0  0  0  0  0
   60.0230   34.2100   49.0710 C   0  0  0  0  0  0  0  0  0  0  0  0
   59.9886   35.2849   49.3021 H   0  0  0  0  0  0  0  0  0  0  0  0
   61.0582   33.8471   49.1529 H   0  0  0  0  0  0  0  0  0  0  0  0
   59.5260   33.9840   47.6700 C   0  0  0  0  0  0  0  0  0  0  0  0
   59.3760   32.6840   47.1630 C   0  0  0  0  0  0  0  0  0  0  0  0
   59.5683   31.8160   47.8107 H   0  0  0  0  0  0  0  0  0  0  0  0
   58.9820   32.4910   45.8340 C   0  0  0  0  0  0  0  0  0  0  0  0
   58.8506   31.4710   45.4438 H   0  0  0  0  0  0  0  0  0  0  0  0
   58.7550   33.5900   45.0010 C   0  0  0  0  0  0  0  0  0  0  0  0
   58.4542   33.4339   43.9545 H   0  0  0  0  0  0  0  0  0  0  0  0
   58.9100   34.8870   45.4970 C   0  0  0  0  0  0  0  0  0  0  0  0
   58.7247   35.7524   44.8438 H   0  0  0  0  0  0  0  0  0  0  0  0
   59.3010   35.0830   46.8250 C   0  0  0  0  0  0  0  0  0  0  0  0
   59.4333   36.1047   47.2105 H   0  0  0  0  0  0  0  0  0  0  0  0
   59.1450   33.6530   51.3480 C   0  0  0  0  0  0  0  0  0  0  0  0
   59.8124   34.2825   51.9549 H   0  0  0  0  0  0  0  0  0  0  0  0
   56.1810   27.7900   53.1210 C   0  0  0  0  0  0  0  0  0  0  0  0
   55.8322   27.1678   52.2836 H   0  0  0  0  0  0  0  0  0  0  0  0
   55.4100   27.8200   54.2140 C   0  0  0  0  0  0  0  0  0  0  0  0
   55.1605   26.8574   54.6842 H   0  0  0  0  0  0  0  0  0  0  0  0
   54.8650   29.0480   54.8420 C   0  0  0  0  0  0  0  0  0  0  0  0
   54.3185   28.9488   55.7915 H   0  0  0  0  0  0  0  0  0  0  0  0
   57.4520   28.5100   52.9310 C   0  0  0  0  0  0  0  0  0  0  0  0
   57.8270   28.9710   51.7110 N   0  0  0  0  0  0  0  0  0  0  0  0
   58.9970   29.6010   51.9250 C   0  0  0  0  0  0  0  0  0  0  0  0
   59.7560   30.2510   50.9610 C   0  0  0  0  0  0  0  0  0  0  0  0
   59.4332   30.2705   49.9096 H   0  0  0  0  0  0  0  0  0  0  0  0
   60.9510   30.8860   51.3610 C   0  0  0  0  0  0  0  0  0  0  0  0
   61.7610   31.6250   50.3670 C   0  0  0  0  0  0  0  0  0  0  0  0
   61.8140   31.1990   49.0240 C   0  0  0  0  0  0  0  0  0  0  0  0
   61.2492   30.3086   48.7107 H   0  0  0  0  0  0  0  0  0  0  0  0
   62.5810   31.9020   48.0860 C   0  0  0  0  0  0  0  0  0  0  0  0
   62.6142   31.5664   47.0390 H   0  0  0  0  0  0  0  0  0  0  0  0
   63.3030   33.0290   48.4820 C   0  0  0  0  0  0  0  0  0  0  0  0
   63.9059   33.5821   47.7468 H   0  0  0  0  0  0  0  0  0  0  0  0
   63.2600   33.4550   49.8130 C   0  0  0  0  0  0  0  0  0  0  0  0
   63.8327   34.3418   50.1223 H   0  0  0  0  0  0  0  0  0  0  0  0
   62.4930   32.7600   50.7530 C   0  0  0  0  0  0  0  0  0  0  0  0
   62.4627   33.1030   51.7977 H   0  0  0  0  0  0  0  0  0  0  0  0
   61.3520   30.8310   52.7230 C   0  0  0  0  0  0  0  0  0  0  0  0
   62.2932   31.3106   53.0296 H   0  0  0  0  0  0  0  0  0  0  0  0
   60.5600   30.1690   53.6920 C   0  0  0  0  0  0  0  0  0  0  0  0
   60.9310   30.0800   55.0430 O   0  0  0  0  0  0  0  0  0  0  0  0
   60.4520   30.9450   56.0670 C   0  0  0  0  0  0  0  0  0  0  0  0
   60.6900   30.5151   57.0512 H   0  0  0  0  0  0  0  0  0  0  0  0
   60.9336   31.9292   55.9706 H   0  0  0  0  0  0  0  0  0  0  0  0
   59.3622   31.0591   55.9706 H   0  0  0  0  0  0  0  0  0  0  0  0
   59.3750   29.5730   53.2500 C   0  0  0  0  0  0  0  0  0  0  0  0
   58.3660   28.8990   53.9130 C   0  0  0  0  0  0  0  0  0  0  0  0
   58.1920   28.7830   55.3320 N   0  0  0  0  0  0  0  0  0  0  0  0
   58.5740   27.9580   55.8480 H   0  0  0  0  0  0  0  0  0  0  0  0
   57.6930   29.5120   55.8830 H   0  0  0  0  0  0  0  0  0  0  0  0
  1  2  1  0
  2  3  1  0
  3  4  2  0
  4  5  1  0
  4  6  1  0
  6  7  1  0
  6  8  2  0
  8  9  1  0
  8 10  1  0
 10 11  1  0
 10 12  2  0
 12 13  1  0
 13 14  1  0
 14 15  2  0
 14 16  1  0
 16 17  1  0
 17 18  1  0
 17 19  1  0
 17 20  1  0
 20 21  1  0
 21 22  2  0
 22 23  1  0
 23 24  1  0
 24 25  1  0
 24 26  1  0
 24 27  1  0
 27 28  2  0
 28 29  1  0
 28 30  1  0
 30 31  1  0
 30 32  2  0
 32 33  1  0
 32 34  1  0
 34 35  1  0
 34 36  2  0
 36 37  1  0
 23 38  1  0
 38 39  1  0
 13 40  2  0
 40 41  1  0
 40 42  1  0
 42 43  1  0
 42 44  2  3
 44 45  1  0
 44 46  1  0
 46 47  1  0
 47 48  1  0
 48 49  2  0
 49 50  1  0
 49 51  1  0
 51 52  1  0
 52 53  2  0
 53 54  1  0
 53 55  1  0
 55 56  1  0
 55 57  2  0
 57 58  1  0
 57 59  1  0
 59 60  1  0
 59 61  2  0
 61 62  1  0
 51 63  2  0
 63 64  1  0
 63 65  1  0
 65 66  1  0
 66 67  1  0
 67 68  1  0
 67 69  1  0
 67 70  1  0
 65 71  2  0
 71 72  1  0
 72 73  1  0
 73 74  1  0
 73 75  1  0
 12  3  1  0
 38 20  2  0
 72 46  2  0
 36 27  1  0
 71 48  1  0
 61 52  1  0
M  CHG  2   7  -1  47  -1
M  END
>  <UniqueID>  (13) 
12

>  <SMILES>  (13) 
COc1cc(-c2ccccc2)cc2[n-]c(C=C/C=C(\C(=O)OCc3cn(Cc4ccccc4)nn3)c3ccc([O-])cc3O)c(N)c12

>  <Energy>  (13) 
171.04828350277023

>  <Genealogy>  (13) 
COc1cc(-c2ccccc2)cc2[n-]c(C=CC=C(C(=O)OCc3cn(Cc4ccccc4)nn3)c3ccc([O-])cc3O)c(N)c12 (protonated)
COc1cc(-c2ccccc2)cc2[n-]c(C=C/C=C(\C(=O)OCc3cn(Cc4ccccc4)nn3)c3ccc([O-])cc3O)c(N)c12 (cis-trans isomerization)
COc1cc(-c2ccccc2)cc2[n-]c(C=C/C=C(\C(=O)OCc3cn(Cc4ccccc4)nn3)c3ccc([O-])cc3O)c(N)c12 (3D coordinates assigned)
COc1cc(-c2ccccc2)cc2[n-]c(C=C/C=C(\C(=O)OCc3cn(Cc4ccccc4)nn3)c3ccc([O-])cc3O)c(N)c12 (optimized conformer: 171.04828350277023 kcal/mol)

>  <smiles>  (13) 
COc1cc(-c2ccccc2)cc2[nH]c(C=CC=C(C(=O)OCc3cn(Cc4ccccc4)nn3)c3ccc(O)cc3O)c(N)c12

>  <score_type>  (13) 
oracle

>  <origin>  (13) 
adg

>  <m_score__min__energy>  (13) 
-14.82

>  <m_primary>  (13) 
energy

$$$$
13:0
     RDKit          3D

 57 60  0  0  0  0  0  0  0  0999 V2000
   55.9100   30.6760   44.4950 O   0  0  0  0  0  0  0  0  0  0  0  0
   57.0660   30.3790   44.8990 C   0  0  0  0  0  0  0  0  0  0  0  0
   57.2770   29.0450   45.5690 C   0  0  0  0  0  0  0  0  0  0  0  0
   58.7490   28.6150   45.5500 C   0  0  0  0  0  0  0  0  0  0  0  0
   59.5590   29.2810   46.6220 C   0  0  0  0  0  0  0  0  0  0  0  0
   60.8110   30.3660   46.3330 S   0  0  0  0  0  0  0  0  0  0  0  0
   61.1670   30.5510   47.9700 C   0  0  0  0  0  0  0  0  0  0  0  0
   62.2160   31.3860   48.4970 N   0  0  0  0  0  0  0  0  0  0  0  0
   63.2020   32.0020   47.5950 C   0  0  0  0  0  0  0  0  0  0  0  0
   63.4300   33.4760   47.9700 C   0  0  0  0  0  0  0  0  0  0  0  0
   63.5390   33.7260   49.4910 C   0  0  0  0  0  0  0  0  0  0  0  0
   63.5490   32.4350   50.3160 C   0  0  0  0  0  0  0  0  0  0  0  0
   62.3460   31.5560   49.9520 C   0  0  0  0  0  0  0  0  0  0  0  0
   60.3410   29.8090   48.7450 N   0  0  0  0  0  0  0  0  0  0  0  0
   59.4480   29.1060   48.0030 C   0  0  0  0  0  0  0  0  0  0  0  0
   58.5140   28.2670   48.6060 O   0  0  0  0  0  0  0  0  0  0  0  0
   58.1190   31.3330   44.7150 N   0  0  0  0  0  0  0  0  0  0  0  0
   58.0800   33.0130   45.1510 S   0  0  0  0  0  0  0  0  0  0  0  0
   56.6510   33.4760   45.1690 O   0  0  0  0  0  0  0  0  0  0  0  0
   58.8280   33.8240   44.1310 O   0  0  0  0  0  0  0  0  0  0  0  0
   58.7560   33.2290   46.7600 C   0  0  0  0  0  0  0  0  0  0  0  0
   58.3370   32.4300   47.8350 C   0  0  0  0  0  0  0  0  0  0  0  0
   58.8310   32.6700   49.1210 C   0  0  0  0  0  0  0  0  0  0  0  0
   59.7510   33.7050   49.3410 C   0  0  0  0  0  0  0  0  0  0  0  0
   60.2560   33.9650   50.6510 N   0  0  0  0  0  0  0  0  0  0  0  0
   59.3180   33.6380   52.0700 S   0  0  0  0  0  0  0  0  0  0  0  0
   60.1780   33.8370   53.2860 O   0  0  0  0  0  0  0  0  0  0  0  0
   58.1610   34.5950   52.1330 O   0  0  0  0  0  0  0  0  0  0  0  0
   58.7210   31.9890   52.0670 C   0  0  0  0  0  0  0  0  0  0  0  0
   59.4990   30.8460   51.9620 C   0  0  0  0  0  0  0  0  0  0  0  0
   58.7400   29.6690   51.9640 C   0  0  0  0  0  0  0  0  0  0  0  0
   57.3710   29.8870   52.0540 C   0  0  0  0  0  0  0  0  0  0  0  0
   57.1030   31.5460   52.1470 S   0  0  0  0  0  0  0  0  0  0  0  0
   60.1940   34.4800   48.2640 C   0  0  0  0  0  0  0  0  0  0  0  0
   59.6920   34.2500   46.9800 C   0  0  0  0  0  0  0  0  0  0  0  0
   56.9420   29.1164   46.6143 H   0  0  0  0  0  0  0  0  0  0  0  0
   56.6976   28.2924   45.0141 H   0  0  0  0  0  0  0  0  0  0  0  0
   58.7996   27.5259   45.6958 H   0  0  0  0  0  0  0  0  0  0  0  0
   59.1708   28.9149   44.5794 H   0  0  0  0  0  0  0  0  0  0  0  0
   64.1543   31.4572   47.6738 H   0  0  0  0  0  0  0  0  0  0  0  0
   62.8203   31.9526   46.5645 H   0  0  0  0  0  0  0  0  0  0  0  0
   64.3634   33.8135   47.4959 H   0  0  0  0  0  0  0  0  0  0  0  0
   62.5507   34.0347   47.6170 H   0  0  0  0  0  0  0  0  0  0  0  0
   64.4716   34.2746   49.6891 H   0  0  0  0  0  0  0  0  0  0  0  0
   62.6500   34.2995   49.7924 H   0  0  0  0  0  0  0  0  0  0  0  0
   64.4772   31.8814   50.1109 H   0  0  0  0  0  0  0  0  0  0  0  0
   63.4903   32.6943   51.3834 H   0  0  0  0  0  0  0  0  0  0  0  0
   62.4738   30.5670   50.4163 H   0  0  0  0  0  0  0  0  0  0  0  0
   61.4358   32.0508   50.3217 H   0  0  0  0  0  0  0  0  0  0  0  0
   58.6110   27.2600   48.5970 H   0  0  0  0  0  0  0  0  0  0  0  0
   57.6191   31.6139   47.6658 H   0  0  0  0  0  0  0  0  0  0  0  0
   58.4969   32.0451   49.9624 H   0  0  0  0  0  0  0  0  0  0  0  0
   60.5962   30.8620   51.8853 H   0  0  0  0  0  0  0  0  0  0  0  0
   59.1862   28.6656   51.9003 H   0  0  0  0  0  0  0  0  0  0  0  0
   56.5944   29.1080   52.0630 H   0  0  0  0  0  0  0  0  0  0  0  0
   60.9392   35.2723   48.4280 H   0  0  0  0  0  0  0  0  0  0  0  0
   60.0323   34.8720   46.1390 H   0  0  0  0  0  0  0  0  0  0  0  0
  1  2  2  0
  2  3  1  0
  3  4  1  0
  4  5  1  0
  5  6  1  0
  6  7  1  0
  7  8  1  0
  8  9  1  0
  9 10  1  0
 10 11  1  0
 11 12  1  0
 12 13  1  0
  7 14  2  0
 14 15  1  0
 15 16  1  0
  2 17  1  0
 17 18  1  0
 18 19  2  0
 18 20  2  0
 18 21  1  0
 21 22  2  0
 22 23  1  0
 23 24  2  0
 24 25  1  0
 25 26  1  0
 26 27  2  0
 26 28  2  0
 26 29  1  0
 29 30  2  0
 30 31  1  0
 31 32  2  0
 32 33  1  0
 24 34  1  0
 34 35  2  0
 15  5  2  0
 35 21  1  0
 13  8  1  0
 33 29  1  0
  3 36  1  0
  3 37  1  0
  4 38  1  0
  4 39  1  0
  9 40  1  0
  9 41  1  0
 10 42  1  0
 10 43  1  0
 11 44  1  0
 11 45  1  0
 12 46  1  0
 12 47  1  0
 13 48  1  0
 13 49  1  0
 16 50  1  0
 22 51  1  0
 23 52  1  0
 30 53  1  0
 31 54  1  0
 32 55  1  0
 34 56  1  0
 35 57  1  0
M  CHG  2  17  -1  25  -1
M  END
>  <UniqueID>  (14) 
13

>  <SMILES>  (14) 
O=C(CCc1sc(N2CCCCC2)nc1O)[N-]S(=O)(=O)c1ccc([N-]S(=O)(=O)c2cccs2)cc1

>  <Energy>  (14) 
121.95874179927455

>  <Genealogy>  (14) 
O=C(CCc1sc(N2CCCCC2)nc1O)[N-]S(=O)(=O)c1ccc([N-]S(=O)(=O)c2cccs2)cc1 (protonated)
O=C(CCc1sc(N2CCCCC2)nc1O)[N-]S(=O)(=O)c1ccc([N-]S(=O)(=O)c2cccs2)cc1 (3D coordinates assigned)
O=C(CCc1sc(N2CCCCC2)nc1O)[N-]S(=O)(=O)c1ccc([N-]S(=O)(=O)c2cccs2)cc1 (nonaromatic ring conformer: 121.95874179927455 kcal/mol)

>  <smiles>  (14) 
O=C(CCc1sc(N2CCCCC2)nc1O)NS(=O)(=O)c1ccc(NS(=O)(=O)c2cccs2)cc1

>  <score_type>  (14) 
oracle

>  <origin>  (14) 
adg

>  <m_score__min__energy>  (14) 
-12.359999999999999

>  <m_primary>  (14) 
energy

$$$$
14:0
     RDKit          3D

 48 50  0  0  0  0  0  0  0  0999 V2000
   59.2940   33.6370   48.2940 C   0  0  0  0  0  0  0  0  0  0  0  0
   58.9030   33.4870   46.8540 C   0  0  0  0  0  0  0  0  0  0  0  0
   59.5690   34.2150   45.8570 C   0  0  0  0  0  0  0  0  0  0  0  0
   59.1750   34.0980   44.5220 C   0  0  0  0  0  0  0  0  0  0  0  0
   58.1080   33.2670   44.1740 C   0  0  0  0  0  0  0  0  0  0  0  0
   57.4200   32.5440   45.1660 C   0  0  0  0  0  0  0  0  0  0  0  0
   56.3120   31.6880   44.8590 N   0  0  0  0  0  0  0  0  0  0  0  0
   56.4350   30.0820   44.2170 S   0  0  0  0  0  0  0  0  0  0  0  0
   56.6420   30.1610   42.7310 O   0  0  0  0  0  0  0  0  0  0  0  0
   55.1580   29.3390   44.4890 O   0  0  0  0  0  0  0  0  0  0  0  0
   57.8160   29.2610   44.9390 C   0  0  0  0  0  0  0  0  0  0  0  0
   59.0880   29.8370   44.8380 C   0  0  0  0  0  0  0  0  0  0  0  0
   60.1940   29.2040   45.4130 C   0  0  0  0  0  0  0  0  0  0  0  0
   60.0320   27.9940   46.0940 C   0  0  0  0  0  0  0  0  0  0  0  0
   58.7640   27.4000   46.1920 C   0  0  0  0  0  0  0  0  0  0  0  0
   58.5980   26.1450   46.9500 C   0  0  0  0  0  0  0  0  0  0  0  0
   59.0700   26.0690   48.1150 O   0  0  0  0  0  0  0  0  0  0  0  0
   57.9360   24.9970   46.4000 N   0  0  0  0  0  0  0  0  0  0  0  0
   56.9300   25.0130   45.3400 C   0  0  0  0  0  0  0  0  0  0  0  0
   55.5590   25.1900   45.9120 C   0  0  0  0  0  0  0  0  0  0  0  0
   55.0640   26.3480   45.9930 O   0  0  0  0  0  0  0  0  0  0  0  0
   54.8390   24.0470   46.3910 N   0  0  0  0  0  0  0  0  0  0  0  0
   53.5260   23.6290   45.9850 C   0  0  0  0  0  0  0  0  0  0  0  0
   52.9410   24.0860   44.7880 C   0  0  0  0  0  0  0  0  0  0  0  0
   51.6680   23.6480   44.4110 C   0  0  0  0  0  0  0  0  0  0  0  0
   50.9730   22.7410   45.2130 C   0  0  0  0  0  0  0  0  0  0  0  0
   51.5560   22.2580   46.3870 C   0  0  0  0  0  0  0  0  0  0  0  0
   52.8310   22.6900   46.7710 C   0  0  0  0  0  0  0  0  0  0  0  0
   53.5390   22.0470   48.2450 Cl  0  0  0  0  0  0  0  0  0  0  0  0
   57.6540   28.0480   45.6240 C   0  0  0  0  0  0  0  0  0  0  0  0
   57.8250   32.6610   46.5020 C   0  0  0  0  0  0  0  0  0  0  0  0
   58.4598   33.3170   48.9357 H   0  0  0  0  0  0  0  0  0  0  0  0
   60.1762   33.0135   48.5013 H   0  0  0  0  0  0  0  0  0  0  0  0
   59.5328   34.6906   48.5013 H   0  0  0  0  0  0  0  0  0  0  0  0
   60.4032   34.8793   46.1270 H   0  0  0  0  0  0  0  0  0  0  0  0
   59.7071   34.6624   43.7421 H   0  0  0  0  0  0  0  0  0  0  0  0
   57.8042   33.1773   43.1206 H   0  0  0  0  0  0  0  0  0  0  0  0
   59.2176   30.7903   44.3047 H   0  0  0  0  0  0  0  0  0  0  0  0
   61.1923   29.6584   45.3295 H   0  0  0  0  0  0  0  0  0  0  0  0
   60.9026   27.5049   46.5554 H   0  0  0  0  0  0  0  0  0  0  0  0
   57.1440   25.8443   44.6522 H   0  0  0  0  0  0  0  0  0  0  0  0
   56.9673   24.0533   44.8037 H   0  0  0  0  0  0  0  0  0  0  0  0
   53.4889   24.7916   44.1461 H   0  0  0  0  0  0  0  0  0  0  0  0
   51.2131   24.0188   43.4806 H   0  0  0  0  0  0  0  0  0  0  0  0
   49.9666   22.4068   44.9206 H   0  0  0  0  0  0  0  0  0  0  0  0
   51.0111   21.5354   47.0122 H   0  0  0  0  0  0  0  0  0  0  0  0
   56.6530   27.6016   45.7171 H   0  0  0  0  0  0  0  0  0  0  0  0
   57.2921   32.0993   47.2833 H   0  0  0  0  0  0  0  0  0  0  0  0
  1  2  1  0
  2  3  2  0
  3  4  1  0
  4  5  2  0
  5  6  1  0
  6  7  1  0
  7  8  1  0
  8  9  2  0
  8 10  2  0
  8 11  1  0
 11 12  2  0
 12 13  1  0
 13 14  2  0
 14 15  1  0
 15 16  1  0
 16 17  2  0
 16 18  1  0
 18 19  1  0
 19 20  1  0
 20 21  2  0
 20 22  1  0
 22 23  1  0
 23 24  2  0
 24 25  1  0
 25 26  2  0
 26 27  1  0
 27 28  2  0
 28 29  1  0
 15 30  2  0
  6 31  2  0
 31  2  1  0
 30 11  1  0
 28 23  1  0
  1 32  1  0
  1 33  1  0
  1 34  1  0
  3 35  1  0
  4 36  1  0
  5 37  1  0
 12 38  1  0
 13 39  1  0
 14 40  1  0
 19 41  1  0
 19 42  1  0
 24 43  1  0
 25 44  1  0
 26 45  1  0
 27 46  1  0
 30 47  1  0
 31 48  1  0
M  CHG  3   7  -1  18  -1  22  -1
M  END
>  <UniqueID>  (15) 
14

>  <SMILES>  (15) 
Cc1cccc([N-]S(=O)(=O)c2cccc(C(=O)[N-]CC(=O)[N-]c3ccccc3Cl)c2)c1

>  <Energy>  (15) 
57.41672067935468

>  <Genealogy>  (15) 
Cc1cccc([N-]S(=O)(=O)c2cccc(C(=O)[N-]CC(=O)[N-]c3ccccc3Cl)c2)c1 (protonated)
Cc1cccc([N-]S(=O)(=O)c2cccc(C(=O)[N-]CC(=O)[N-]c3ccccc3Cl)c2)c1 (3D coordinates assigned)
Cc1cccc([N-]S(=O)(=O)c2cccc(C(=O)[N-]CC(=O)[N-]c3ccccc3Cl)c2)c1 (optimized conformer: 57.41672067935468 kcal/mol)

>  <smiles>  (15) 
Cc1cccc(NS(=O)(=O)c2cccc(C(=O)NCC(=O)Nc3ccccc3Cl)c2)c1

>  <score_type>  (15) 
oracle

>  <origin>  (15) 
adg

>  <m_score__min__energy>  (15) 
-14.720000000000001

>  <m_primary>  (15) 
energy

$$$$
15:0
     RDKit          3D

 66 70  0  0  0  0  0  0  0  0999 V2000
   56.9820   19.6880   43.9680 H   0  0  0  0  0  0  0  0  0  0  0  0
   56.5930   20.4560   43.3740 N   0  0  0  0  0  0  0  0  0  0  0  0
   56.7710   21.7080   43.6550 C   0  0  0  0  0  0  0  0  0  0  0  0
   55.8480   22.6200   43.2480 N   0  0  0  0  0  0  0  0  0  0  0  0
   55.9850   23.9470   43.5100 C   0  0  0  0  0  0  0  0  0  0  0  0
   55.2144   24.6545   43.1699 H   0  0  0  0  0  0  0  0  0  0  0  0
   57.1060   24.4190   44.2130 C   0  0  0  0  0  0  0  0  0  0  0  0
   57.2900   25.8660   44.4710 C   0  0  0  0  0  0  0  0  0  0  0  0
   58.1460   26.6080   43.6410 C   0  0  0  0  0  0  0  0  0  0  0  0
   58.6371   26.1165   42.7882 H   0  0  0  0  0  0  0  0  0  0  0  0
   58.3810   27.9630   43.8860 C   0  0  0  0  0  0  0  0  0  0  0  0
   59.0340   28.5348   43.2103 H   0  0  0  0  0  0  0  0  0  0  0  0
   57.7900   28.6000   44.9880 C   0  0  0  0  0  0  0  0  0  0  0  0
   57.9890   30.0470   45.2680 C   0  0  0  0  0  0  0  0  0  0  0  0
   56.9890   30.8080   45.1380 O   0  0  0  0  0  0  0  0  0  0  0  0
   59.2470   30.6300   45.7030 N   0  0  0  0  0  0  0  0  0  0  0  0
   59.8850   30.5980   44.8720 H   0  0  0  0  0  0  0  0  0  0  0  0
   59.1330   32.0460   46.1080 C   0  0  0  0  0  0  0  0  0  0  0  0
   58.6596   32.6178   45.2963 H   0  0  0  0  0  0  0  0  0  0  0  0
   58.5221   32.1072   47.0207 H   0  0  0  0  0  0  0  0  0  0  0  0
   60.5190   32.6340   46.3980 C   0  0  0  0  0  0  0  0  0  0  0  0
   61.0867   32.7022   45.4583 H   0  0  0  0  0  0  0  0  0  0  0  0
   60.3949   33.6333   46.8407 H   0  0  0  0  0  0  0  0  0  0  0  0
   61.2530   31.7840   47.3450 N   0  0  0  0  0  0  0  0  0  0  0  0
   62.2440   32.3890   48.2060 C   0  0  0  0  0  0  0  0  0  0  0  0
   62.6370   33.5650   47.9690 O   0  0  0  0  0  0  0  0  0  0  0  0
   62.8210   31.6260   49.3800 C   0  0  0  0  0  0  0  0  0  0  0  0
   62.4859   30.6240   49.0739 H   0  0  0  0  0  0  0  0  0  0  0  0
   62.5230   32.1800   50.7700 C   0  0  0  0  0  0  0  0  0  0  0  0
   61.8634   33.0602   50.7571 H   0  0  0  0  0  0  0  0  0  0  0  0
   61.9890   31.5423   51.4898 H   0  0  0  0  0  0  0  0  0  0  0  0
   63.9350   32.5110   51.0290 N   0  0  0  0  0  0  0  0  0  0  0  0
   64.5260   31.6650   52.0830 C   0  0  0  0  0  0  0  0  0  0  0  0
   65.4542   32.1307   52.4457 H   0  0  0  0  0  0  0  0  0  0  0  0
   63.8085   31.5671   52.9110 H   0  0  0  0  0  0  0  0  0  0  0  0
   64.8340   30.3060   51.5380 C   0  0  0  0  0  0  0  0  0  0  0  0
   66.0220   29.9810   51.2760 O   0  0  0  0  0  0  0  0  0  0  0  0
   63.8050   29.4050   51.2900 O   0  0  0  0  0  0  0  0  0  0  0  0
   64.2640   31.9980   49.6900 C   0  0  0  0  0  0  0  0  0  0  0  0
   64.6701   32.7670   49.0164 H   0  0  0  0  0  0  0  0  0  0  0  0
   65.0387   31.2224   49.5991 H   0  0  0  0  0  0  0  0  0  0  0  0
   61.2690   30.3330   47.0990 C   0  0  0  0  0  0  0  0  0  0  0  0
   61.9361   30.1181   46.2512 H   0  0  0  0  0  0  0  0  0  0  0  0
   61.6279   29.8251   48.0063 H   0  0  0  0  0  0  0  0  0  0  0  0
   59.8600   29.8210   46.7730 C   0  0  0  0  0  0  0  0  0  0  0  0
   59.9236   28.7737   46.4427 H   0  0  0  0  0  0  0  0  0  0  0  0
   59.2373   29.8986   47.6764 H   0  0  0  0  0  0  0  0  0  0  0  0
   56.9140   27.8680   45.8050 C   0  0  0  0  0  0  0  0  0  0  0  0
   56.4372   28.3613   46.6648 H   0  0  0  0  0  0  0  0  0  0  0  0
   56.6370   26.5210   45.5440 C   0  0  0  0  0  0  0  0  0  0  0  0
   55.7170   25.8660   46.3750 O   0  0  0  0  0  0  0  0  0  0  0  0
   55.8630   24.5590   46.8630 C   0  0  0  0  0  0  0  0  0  0  0  0
   54.9450   23.5860   46.4510 C   0  0  0  0  0  0  0  0  0  0  0  0
   54.1420   23.8549   45.7490 H   0  0  0  0  0  0  0  0  0  0  0  0
   55.0420   22.2740   46.9260 C   0  0  0  0  0  0  0  0  0  0  0  0
   54.3129   21.5169   46.6016 H   0  0  0  0  0  0  0  0  0  0  0  0
   56.0640   21.9240   47.8120 C   0  0  0  0  0  0  0  0  0  0  0  0
   56.1314   20.8957   48.1967 H   0  0  0  0  0  0  0  0  0  0  0  0
   57.0010   22.8830   48.2090 C   0  0  0  0  0  0  0  0  0  0  0  0
   57.8122   22.6054   48.8981 H   0  0  0  0  0  0  0  0  0  0  0  0
   56.9090   24.1940   47.7320 C   0  0  0  0  0  0  0  0  0  0  0  0
   57.6557   24.9422   48.0364 H   0  0  0  0  0  0  0  0  0  0  0  0
   58.0600   23.4890   44.6540 C   0  0  0  0  0  0  0  0  0  0  0  0
   58.9369   23.8307   45.2234 H   0  0  0  0  0  0  0  0  0  0  0  0
   57.8990   22.1320   44.3720 C   0  0  0  0  0  0  0  0  0  0  0  0
   58.6497   21.4019   44.7089 H   0  0  0  0  0  0  0  0  0  0  0  0
  1  2  1  0
  2  3  2  0
  3  4  1  0
  4  5  1  0
  5  6  1  0
  5  7  2  0
  7  8  1  0
  8  9  2  0
  9 10  1  0
  9 11  1  0
 11 12  1  0
 11 13  2  0
 13 14  1  0
 14 15  2  0
 14 16  1  0
 16 17  1  0
 16 18  1  0
 18 19  1  0
 18 20  1  0
 18 21  1  0
 21 22  1  0
 21 23  1  0
 21 24  1  0
 24 25  1  0
 25 26  2  0
 25 27  1  0
 27 28  1  0
 27 29  1  0
 29 30  1  0
 29 31  1  0
 29 32  1  0
 32 33  1  0
 33 34  1  0
 33 35  1  0
 33 36  1  0
 36 37  2  0
 36 38  1  0
 32 39  1  0
 39 40  1  0
 39 41  1  0
 24 42  1  0
 42 43  1  0
 42 44  1  0
 42 45  1  0
 45 46  1  0
 45 47  1  0
 13 48  1  0
 48 49  1  0
 48 50  2  0
 50 51  1  0
 51 52  1  0
 52 53  2  0
 53 54  1  0
 53 55  1  0
 55 56  1  0
 55 57  2  0
 57 58  1  0
 57 59  1  0
 59 60  1  0
 59 61  2  0
 61 62  1  0
  7 63  1  0
 63 64  1  0
 63 65  2  0
 65 66  1  0
 65  3  1  0
 50  8  1  0
 61 52  1  0
 45 16  1  0
 39 27  1  0
M  CHG  3   4  -1  16   1  38  -1
M  END
>  <UniqueID>  (16) 
15

>  <SMILES>  (16) 
[H]/N=c1\ccc(-c2ccc(C(=O)[NH+]3CCN(C(=O)C4CN(CC(=O)[O-])C4)CC3)cc2Oc2ccccc2)c[n-]1

>  <Energy>  (16) 
165.8118144163979

>  <Genealogy>  (16) 
N=c1ccc(-c2ccc(C(=O)[NH+]3CCN(C(=O)C4CN(CC(=O)[O-])C4)CC3)cc2Oc2ccccc2)c[n-]1 (protonated)
[H]/N=c1\ccc(-c2ccc(C(=O)[NH+]3CCN(C(=O)C4CN(CC(=O)[O-])C4)CC3)cc2Oc2ccccc2)c[n-]1 (cis-trans isomerization)
[H]/N=c1\ccc(-c2ccc(C(=O)[NH+]3CCN(C(=O)C4CN(CC(=O)[O-])C4)CC3)cc2Oc2ccccc2)c[n-]1 (3D coordinates assigned)
[H]/N=c1\ccc(-c2ccc(C(=O)[NH+]3CCN(C(=O)C4CN(CC(=O)[O-])C4)CC3)cc2Oc2ccccc2)c[n-]1 (nonaromatic ring conformer: 165.8118144163979 kcal/mol)

>  <smiles>  (16) 
N=c1ccc(-c2ccc(C(=O)N3CCN(C(=O)C4CN(CC(=O)O)C4)CC3)cc2Oc2ccccc2)c[nH]1

>  <score_type>  (16) 
oracle

>  <origin>  (16) 
adg

>  <m_score__min__energy>  (16) 
-11.609999999999999

>  <m_primary>  (16) 
energy

$$$$
16:0
     RDKit          3D

 63 67  0  0  0  0  0  0  0  0999 V2000
   60.3160   29.0620   47.7040 C   0  0  0  0  0  0  0  0  0  0  0  0
   59.4000   29.7060   46.9660 C   0  0  0  0  0  0  0  0  0  0  0  0
   58.6410   29.1820   45.9060 C   0  0  0  0  0  0  0  0  0  0  0  0
   58.4750   27.9140   45.4790 C   0  0  0  0  0  0  0  0  0  0  0  0
   57.3550   27.0280   45.8380 C   0  0  0  0  0  0  0  0  0  0  0  0
   56.0590   27.3130   45.6100 N   0  0  0  0  0  0  0  0  0  0  0  0
   55.4230   26.1760   45.9630 C   0  0  0  0  0  0  0  0  0  0  0  0
   54.1710   26.0550   45.9070 O   0  0  0  0  0  0  0  0  0  0  0  0
   56.2320   25.1770   46.3720 N   0  0  0  0  0  0  0  0  0  0  0  0
   57.4530   25.7270   46.2740 C   0  0  0  0  0  0  0  0  0  0  0  0
   58.6280   25.0440   46.5790 O   0  0  0  0  0  0  0  0  0  0  0  0
   57.9830   30.2580   45.3310 C   0  0  0  0  0  0  0  0  0  0  0  0
   58.3040   31.3710   46.0800 C   0  0  0  0  0  0  0  0  0  0  0  0
   57.7590   32.7470   45.8460 C   0  0  0  0  0  0  0  0  0  0  0  0
   59.1520   31.0360   47.0780 N   0  0  0  0  0  0  0  0  0  0  0  0
   59.7000   31.9490   48.0440 C   0  0  0  0  0  0  0  0  0  0  0  0
   60.6170   32.9330   47.6490 C   0  0  0  0  0  0  0  0  0  0  0  0
   61.1410   33.8220   48.5900 C   0  0  0  0  0  0  0  0  0  0  0  0
   60.7530   33.7350   49.9300 C   0  0  0  0  0  0  0  0  0  0  0  0
   59.8410   32.7500   50.3400 C   0  0  0  0  0  0  0  0  0  0  0  0
   59.4160   32.6600   51.7530 C   0  0  0  0  0  0  0  0  0  0  0  0
   60.0840   33.2710   52.6320 O   0  0  0  0  0  0  0  0  0  0  0  0
   58.2550   31.9010   52.1400 N   0  0  0  0  0  0  0  0  0  0  0  0
   58.1960   31.3280   53.4930 C   0  0  0  0  0  0  0  0  0  0  0  0
   57.3130   30.0610   53.5520 C   0  0  0  0  0  0  0  0  0  0  0  0
   56.3870   29.9290   52.4040 N   0  0  0  0  0  0  0  0  0  0  0  0
   55.2840   29.0040   52.7310 C   0  0  0  0  0  0  0  0  0  0  0  0
   53.9550   29.6960   52.5820 C   0  0  0  0  0  0  0  0  0  0  0  0
   53.3320   29.7880   51.3260 C   0  0  0  0  0  0  0  0  0  0  0  0
   52.0900   30.4170   51.2020 C   0  0  0  0  0  0  0  0  0  0  0  0
   51.4600   30.9560   52.3270 C   0  0  0  0  0  0  0  0  0  0  0  0
   52.0740   30.8670   53.5790 C   0  0  0  0  0  0  0  0  0  0  0  0
   53.3160   30.2380   53.7090 C   0  0  0  0  0  0  0  0  0  0  0  0
   55.8760   31.2450   51.9810 C   0  0  0  0  0  0  0  0  0  0  0  0
   57.0240   32.0260   51.3460 C   0  0  0  0  0  0  0  0  0  0  0  0
   59.3040   31.8700   49.3870 C   0  0  0  0  0  0  0  0  0  0  0  0
   60.8435   29.5917   48.5109 H   0  0  0  0  0  0  0  0  0  0  0  0
   60.5398   28.0040   47.5024 H   0  0  0  0  0  0  0  0  0  0  0  0
   59.2422   27.5062   44.8044 H   0  0  0  0  0  0  0  0  0  0  0  0
   59.2670   24.7430   45.8550 H   0  0  0  0  0  0  0  0  0  0  0  0
   57.3297   30.2297   44.4465 H   0  0  0  0  0  0  0  0  0  0  0  0
   57.5660   33.2343   46.8131 H   0  0  0  0  0  0  0  0  0  0  0  0
   58.4905   33.3392   45.2766 H   0  0  0  0  0  0  0  0  0  0  0  0
   56.8204   32.6777   45.2766 H   0  0  0  0  0  0  0  0  0  0  0  0
   60.9246   33.0051   46.5953 H   0  0  0  0  0  0  0  0  0  0  0  0
   61.8606   34.5924   48.2759 H   0  0  0  0  0  0  0  0  0  0  0  0
   61.1641   34.4414   50.6662 H   0  0  0  0  0  0  0  0  0  0  0  0
   59.2155   31.0645   53.8109 H   0  0  0  0  0  0  0  0  0  0  0  0
   57.7510   32.0813   54.1598 H   0  0  0  0  0  0  0  0  0  0  0  0
   57.9707   29.1795   53.5712 H   0  0  0  0  0  0  0  0  0  0  0  0
   56.6940   30.1414   54.4577 H   0  0  0  0  0  0  0  0  0  0  0  0
   55.3213   28.1409   52.0501 H   0  0  0  0  0  0  0  0  0  0  0  0
   55.3966   28.6696   53.7729 H   0  0  0  0  0  0  0  0  0  0  0  0
   53.8231   29.3638   50.4378 H   0  0  0  0  0  0  0  0  0  0  0  0
   51.6071   30.4880   50.2162 H   0  0  0  0  0  0  0  0  0  0  0  0
   50.4821   31.4496   52.2270 H   0  0  0  0  0  0  0  0  0  0  0  0
   51.5792   31.2927   54.4644 H   0  0  0  0  0  0  0  0  0  0  0  0
   53.7941   30.1675   54.6972 H   0  0  0  0  0  0  0  0  0  0  0  0
   55.0671   31.1113   51.2476 H   0  0  0  0  0  0  0  0  0  0  0  0
   55.4799   31.7934   52.8484 H   0  0  0  0  0  0  0  0  0  0  0  0
   57.2081   31.6346   50.3346 H   0  0  0  0  0  0  0  0  0  0  0  0
   56.7420   33.0885   51.3053 H   0  0  0  0  0  0  0  0  0  0  0  0
   58.5677   31.1134   49.6958 H   0  0  0  0  0  0  0  0  0  0  0  0
  1  2  2  0
  2  3  1  0
  3  4  2  3
  4  5  1  0
  5  6  1  0
  6  7  1  0
  7  8  2  0
  7  9  1  0
  9 10  1  0
 10 11  1  0
  3 12  1  0
 12 13  2  0
 13 14  1  0
 13 15  1  0
 15 16  1  0
 16 17  2  0
 17 18  1  0
 18 19  2  0
 19 20  1  0
 20 21  1  0
 21 22  2  0
 21 23  1  0
 23 24  1  0
 24 25  1  0
 25 26  1  0
 26 27  1  0
 27 28  1  0
 28 29  2  0
 29 30  1  0
 30 31  2  0
 31 32  1  0
 32 33  2  0
 26 34  1  0
 34 35  1  0
 20 36  2  0
 15  2  1  0
 36 16  1  0
 10  5  2  0
 35 23  1  0
 33 28  1  0
  1 37  1  0
  1 38  1  0
  4 39  1  0
 11 40  1  0
 12 41  1  0
 14 42  1  0
 14 43  1  0
 14 44  1  0
 17 45  1  0
 18 46  1  0
 19 47  1  0
 24 48  1  0
 24 49  1  0
 25 50  1  0
 25 51  1  0
 27 52  1  0
 27 53  1  0
 29 54  1  0
 30 55  1  0
 31 56  1  0
 32 57  1  0
 33 58  1  0
 34 59  1  0
 34 60  1  0
 35 61  1  0
 35 62  1  0
 36 63  1  0
M  CHG  2   6  -1   9  -1
M  END
>  <UniqueID>  (17) 
16

>  <SMILES>  (17) 
C=c1c(=Cc2[n-]c(=O)[n-]c2O)cc(C)n1-c1cccc(C(=O)N2CCN(Cc3ccccc3)CC2)c1

>  <Energy>  (17) 
152.94506745357043

>  <Genealogy>  (17) 
C=c1c(=Cc2[n-]c(=O)[n-]c2O)cc(C)n1-c1cccc(C(=O)N2CCN(Cc3ccccc3)CC2)c1 (protonated)
C=c1c(=Cc2[n-]c(=O)[n-]c2O)cc(C)n1-c1cccc(C(=O)N2CCN(Cc3ccccc3)CC2)c1 (3D coordinates assigned)
C=c1c(=Cc2[n-]c(=O)[n-]c2O)cc(C)n1-c1cccc(C(=O)N2CCN(Cc3ccccc3)CC2)c1 (nonaromatic ring conformer: 152.94506745357043 kcal/mol)

>  <smiles>  (17) 
C=c1c(=Cc2[nH]c(=O)[nH]c2O)cc(C)n1-c1cccc(C(=O)N2CCN(Cc3ccccc3)CC2)c1

>  <score_type>  (17) 
oracle

>  <origin>  (17) 
adg

>  <m_score__min__energy>  (17) 
-14.640000000000001

>  <m_primary>  (17) 
energy

$$$$
17:0
     RDKit          3D

 35 36  0  0  0  0  0  0  0  0999 V2000
   59.7690   25.5104   47.3070 H   0  0  0  0  0  0  0  0  0  0  0  0
   58.7260   25.7370   47.0410 C   0  0  0  0  0  0  0  0  0  0  0  0
   58.4400   26.8290   46.2840 N   0  0  0  0  0  0  0  0  0  0  0  0
   57.1630   27.1500   45.9290 C   0  0  0  0  0  0  0  0  0  0  0  0
   56.9070   28.1960   45.1950 N   0  0  0  0  0  0  0  0  0  0  0  0
   57.3800   28.4520   43.8630 C   0  0  0  0  0  0  0  0  0  0  0  0
   58.3210   27.7800   43.3590 O   0  0  0  0  0  0  0  0  0  0  0  0
   56.7070   29.5060   43.0390 C   0  0  0  0  0  0  0  0  0  0  0  0
   57.4733   30.0902   42.5084 H   0  0  0  0  0  0  0  0  0  0  0  0
   56.0324   29.0114   42.3247 H   0  0  0  0  0  0  0  0  0  0  0  0
   55.8780   30.4490   43.9150 C   0  0  0  0  0  0  0  0  0  0  0  0
   55.4759   31.2628   43.2937 H   0  0  0  0  0  0  0  0  0  0  0  0
   55.0529   29.8826   44.3715 H   0  0  0  0  0  0  0  0  0  0  0  0
   56.7180   31.0210   44.9830 N   0  0  0  0  0  0  0  0  0  0  0  0
   57.3680   30.2880   45.3510 H   0  0  0  0  0  0  0  0  0  0  0  0
   57.4930   32.1910   44.5400 C   0  0  0  0  0  0  0  0  0  0  0  0
   58.0957   31.9070   43.6648 H   0  0  0  0  0  0  0  0  0  0  0  0
   56.7835   32.9940   44.2911 H   0  0  0  0  0  0  0  0  0  0  0  0
   58.4150   32.7020   45.6220 C   0  0  0  0  0  0  0  0  0  0  0  0
   59.1040   31.7970   46.4450 C   0  0  0  0  0  0  0  0  0  0  0  0
   58.9650   30.7148   46.3056 H   0  0  0  0  0  0  0  0  0  0  0  0
   59.9670   32.2660   47.4420 C   0  0  0  0  0  0  0  0  0  0  0  0
   60.5037   31.5522   48.0842 H   0  0  0  0  0  0  0  0  0  0  0  0
   60.1480   33.6410   47.6230 C   0  0  0  0  0  0  0  0  0  0  0  0
   61.2300   34.2270   48.8720 Cl  0  0  0  0  0  0  0  0  0  0  0  0
   59.4640   34.5470   46.8060 C   0  0  0  0  0  0  0  0  0  0  0  0
   59.6049   35.6286   46.9486 H   0  0  0  0  0  0  0  0  0  0  0  0
   58.6020   34.0820   45.8090 C   0  0  0  0  0  0  0  0  0  0  0  0
   58.0679   34.7991   45.1683 H   0  0  0  0  0  0  0  0  0  0  0  0
   56.1050   26.3310   46.3530 C   0  0  0  0  0  0  0  0  0  0  0  0
   54.7910   26.6290   46.0050 O   0  0  0  0  0  0  0  0  0  0  0  0
   56.3790   25.2040   47.1330 C   0  0  0  0  0  0  0  0  0  0  0  0
   55.5577   24.5555   47.4720 H   0  0  0  0  0  0  0  0  0  0  0  0
   57.6970   24.9030   47.4810 C   0  0  0  0  0  0  0  0  0  0  0  0
   57.9220   24.0185   48.0950 H   0  0  0  0  0  0  0  0  0  0  0  0
  1  2  1  0
  2  3  1  0
  3  4  1  0
  4  5  2  0
  5  6  1  0
  6  7  2  0
  6  8  1  0
  8  9  1  0
  8 10  1  0
  8 11  1  0
 11 12  1  0
 11 13  1  0
 11 14  1  0
 14 15  1  0
 14 16  1  0
 16 17  1  0
 16 18  1  0
 16 19  1  0
 19 20  2  0
 20 21  1  0
 20 22  1  0
 22 23  1  0
 22 24  2  0
 24 25  1  0
 24 26  1  0
 26 27  1  0
 26 28  2  0
 28 29  1  0
  4 30  1  0
 30 31  1  0
 30 32  2  0
 32 33  1  0
 32 34  1  0
 34 35  1  0
 34  2  2  0
 28 19  1  0
M  CHG  2   3  -1  31  -1
M  END
>  <UniqueID>  (18) 
17

>  <SMILES>  (18) 
O=C(CCNCc1ccc(Cl)cc1)/N=c1\[n-]cccc1[O-]

>  <Energy>  (18) 
36.85912152354391

>  <Genealogy>  (18) 
O=C(CCNCc1ccc(Cl)cc1)N=c1[n-]cccc1[O-] (protonated)
O=C(CCNCc1ccc(Cl)cc1)/N=c1\[n-]cccc1[O-] (cis-trans isomerization)
O=C(CCNCc1ccc(Cl)cc1)/N=c1\[n-]cccc1[O-] (3D coordinates assigned)
O=C(CCNCc1ccc(Cl)cc1)/N=c1\[n-]cccc1[O-] (optimized conformer: 36.85912152354391 kcal/mol)

>  <smiles>  (18) 
O=C(CCNCc1ccc(Cl)cc1)N=c1[nH]cccc1O

>  <score_type>  (18) 
oracle

>  <origin>  (18) 
adg

>  <m_score__min__energy>  (18) 
-13.550000000000001

>  <m_primary>  (18) 
energy

$$$$
18:0
     RDKit          3D

 66 70  0  0  0  0  0  0  0  0999 V2000
   64.7510   33.1600   49.7140 C   0  0  0  0  0  0  0  0  0  0  0  0
   64.1180   32.2360   48.7520 N   0  0  0  0  0  0  0  0  0  0  0  0
   63.0900   31.3750   49.3940 C   0  0  0  0  0  0  0  0  0  0  0  0
   61.6620   31.9510   49.3030 C   0  0  0  0  0  0  0  0  0  0  0  0
   61.7110   33.4180   49.1940 N   0  0  0  0  0  0  0  0  0  0  0  0
   60.3630   34.0050   49.3290 C   0  0  0  0  0  0  0  0  0  0  0  0
   59.5800   33.8150   48.0560 C   0  0  0  0  0  0  0  0  0  0  0  0
   58.8120   32.6540   47.8770 C   0  0  0  0  0  0  0  0  0  0  0  0
   58.0530   32.4840   46.7150 C   0  0  0  0  0  0  0  0  0  0  0  0
   58.0590   33.4660   45.7130 C   0  0  0  0  0  0  0  0  0  0  0  0
   57.2170   33.2970   44.4780 C   0  0  0  0  0  0  0  0  0  0  0  0
   57.3470   31.9080   43.9370 C   0  0  0  0  0  0  0  0  0  0  0  0
   58.1610   31.6810   42.9970 O   0  0  0  0  0  0  0  0  0  0  0  0
   56.5290   30.8600   44.4870 N   0  0  0  0  0  0  0  0  0  0  0  0
   56.9120   29.6640   44.8300 C   0  0  0  0  0  0  0  0  0  0  0  0
   58.2250   29.3050   44.8050 N   0  0  0  0  0  0  0  0  0  0  0  0
   58.6190   28.0560   45.1610 C   0  0  0  0  0  0  0  0  0  0  0  0
   57.6710   27.1020   45.5570 C   0  0  0  0  0  0  0  0  0  0  0  0
   58.1150   25.7170   45.9770 C   0  0  0  0  0  0  0  0  0  0  0  0
   57.2580   24.6520   45.3170 C   0  0  0  0  0  0  0  0  0  0  0  0
   57.3470   24.5390   43.9170 C   0  0  0  0  0  0  0  0  0  0  0  0
   56.6400   23.5600   43.2240 C   0  0  0  0  0  0  0  0  0  0  0  0
   55.8280   22.6630   43.9110 C   0  0  0  0  0  0  0  0  0  0  0  0
   55.7080   22.7450   45.3050 C   0  0  0  0  0  0  0  0  0  0  0  0
   54.8820   21.8320   45.9800 C   0  0  0  0  0  0  0  0  0  0  0  0
   54.7470   21.8970   47.3660 C   0  0  0  0  0  0  0  0  0  0  0  0
   55.4220   22.8780   48.0870 C   0  0  0  0  0  0  0  0  0  0  0  0
   56.2440   23.7980   47.4330 C   0  0  0  0  0  0  0  0  0  0  0  0
   56.4170   23.7450   46.0310 C   0  0  0  0  0  0  0  0  0  0  0  0
   56.3220   27.4950   45.5800 C   0  0  0  0  0  0  0  0  0  0  0  0
   55.4190   26.6900   45.9260 O   0  0  0  0  0  0  0  0  0  0  0  0
   55.9780   28.7580   45.2190 N   0  0  0  0  0  0  0  0  0  0  0  0
   58.8200   34.6330   45.8980 C   0  0  0  0  0  0  0  0  0  0  0  0
   59.5750   34.8070   47.0610 C   0  0  0  0  0  0  0  0  0  0  0  0
   62.3450   33.8210   47.9180 C   0  0  0  0  0  0  0  0  0  0  0  0
   63.5790   32.9550   47.5760 C   0  0  0  0  0  0  0  0  0  0  0  0
   64.5263   32.8320   50.7396 H   0  0  0  0  0  0  0  0  0  0  0  0
   65.8401   33.1606   49.5595 H   0  0  0  0  0  0  0  0  0  0  0  0
   64.3582   34.1758   49.5595 H   0  0  0  0  0  0  0  0  0  0  0  0
   64.8800   31.6070   48.4030 H   0  0  0  0  0  0  0  0  0  0  0  0
   63.1012   30.3921   48.9003 H   0  0  0  0  0  0  0  0  0  0  0  0
   63.3447   31.3080   50.4620 H   0  0  0  0  0  0  0  0  0  0  0  0
   61.1593   31.5375   48.4163 H   0  0  0  0  0  0  0  0  0  0  0  0
   61.1062   31.6772   50.2119 H   0  0  0  0  0  0  0  0  0  0  0  0
   59.8337   33.5117   50.1576 H   0  0  0  0  0  0  0  0  0  0  0  0
   60.4603   35.0817   49.5318 H   0  0  0  0  0  0  0  0  0  0  0  0
   58.8071   31.8750   48.6536 H   0  0  0  0  0  0  0  0  0  0  0  0
   57.4475   31.5748   46.5857 H   0  0  0  0  0  0  0  0  0  0  0  0
   56.1636   33.4897   44.7297 H   0  0  0  0  0  0  0  0  0  0  0  0
   57.5624   34.0087   43.7136 H   0  0  0  0  0  0  0  0  0  0  0  0
   59.6864   27.7911   45.1387 H   0  0  0  0  0  0  0  0  0  0  0  0
   59.1642   25.5697   45.6814 H   0  0  0  0  0  0  0  0  0  0  0  0
   58.0082   25.6287   47.0682 H   0  0  0  0  0  0  0  0  0  0  0  0
   57.9877   25.2379   43.3593 H   0  0  0  0  0  0  0  0  0  0  0  0
   56.7237   23.4954   42.1291 H   0  0  0  0  0  0  0  0  0  0  0  0
   55.2784   21.8869   43.3582 H   0  0  0  0  0  0  0  0  0  0  0  0
   54.3389   21.0619   45.4126 H   0  0  0  0  0  0  0  0  0  0  0  0
   54.1066   21.1725   47.8903 H   0  0  0  0  0  0  0  0  0  0  0  0
   55.3070   22.9288   49.1798 H   0  0  0  0  0  0  0  0  0  0  0  0
   56.7631   24.5732   48.0157 H   0  0  0  0  0  0  0  0  0  0  0  0
   58.8213   35.4137   45.1231 H   0  0  0  0  0  0  0  0  0  0  0  0
   60.1674   35.7237   47.1979 H   0  0  0  0  0  0  0  0  0  0  0  0
   61.6067   33.7198   47.1089 H   0  0  0  0  0  0  0  0  0  0  0  0
   62.6840   34.8620   48.0251 H   0  0  0  0  0  0  0  0  0  0  0  0
   63.2897   32.2160   46.8143 H   0  0  0  0  0  0  0  0  0  0  0  0
   64.3668   33.6302   47.2106 H   0  0  0  0  0  0  0  0  0  0  0  0
  1  2  1  0
  2  3  1  0
  3  4  1  0
  4  5  1  0
  5  6  1  0
  6  7  1  0
  7  8  2  0
  8  9  1  0
  9 10  2  0
 10 11  1  0
 11 12  1  0
 12 13  2  0
 12 14  1  0
 14 15  2  3
 15 16  1  0
 16 17  1  0
 17 18  2  0
 18 19  1  0
 19 20  1  0
 20 21  2  0
 21 22  1  0
 22 23  2  0
 23 24  1  0
 24 25  2  0
 25 26  1  0
 26 27  2  0
 27 28  1  0
 28 29  2  0
 18 30  1  0
 30 31  2  0
 30 32  1  0
 10 33  1  0
 33 34  2  0
  5 35  1  0
 35 36  1  0
 36  2  1  0
 34  7  1  0
 32 15  1  0
 29 20  1  0
 29 24  1  0
  1 37  1  0
  1 38  1  0
  1 39  1  0
  2 40  1  0
  3 41  1  0
  3 42  1  0
  4 43  1  0
  4 44  1  0
  6 45  1  0
  6 46  1  0
  8 47  1  0
  9 48  1  0
 11 49  1  0
 11 50  1  0
 17 51  1  0
 19 52  1  0
 19 53  1  0
 21 54  1  0
 22 55  1  0
 23 56  1  0
 25 57  1  0
 26 58  1  0
 27 59  1  0
 28 60  1  0
 33 61  1  0
 34 62  1  0
 35 63  1  0
 35 64  1  0
 36 65  1  0
 36 66  1  0
M  CHG  3   2   1  16  -1  32  -1
M  END
>  <UniqueID>  (19) 
18

>  <SMILES>  (19) 
C[NH+]1CCN(Cc2ccc(CC(=O)N=c3[n-]cc(Cc4cccc5ccccc45)c(=O)[n-]3)cc2)CC1

>  <Energy>  (19) 
91.3580562252247

>  <Genealogy>  (19) 
C[NH+]1CCN(Cc2ccc(CC(=O)N=c3[n-]cc(Cc4cccc5ccccc45)c(=O)[n-]3)cc2)CC1 (protonated)
C[NH+]1CCN(Cc2ccc(CC(=O)N=c3[n-]cc(Cc4cccc5ccccc45)c(=O)[n-]3)cc2)CC1 (3D coordinates assigned)
C[NH+]1CCN(Cc2ccc(CC(=O)N=c3[n-]cc(Cc4cccc5ccccc45)c(=O)[n-]3)cc2)CC1 (nonaromatic ring conformer: 91.3580562252247 kcal/mol)

>  <smiles>  (19) 
CN1CCN(Cc2ccc(CC(=O)N=c3[nH]cc(Cc4cccc5ccccc45)c(=O)[nH]3)cc2)CC1

>  <score_type>  (19) 
oracle

>  <origin>  (19) 
adg

>  <m_score__min__energy>  (19) 
-12.5

>  <m_primary>  (19) 
energy

$$$$
19:0
     RDKit          3D

 65 69  0  0  0  0  0  0  0  0999 V2000
   56.2240   31.8870   52.5080 C   0  0  0  0  0  0  0  0  0  0  0  0
   55.6510   30.7350   52.8890 C   0  0  0  0  0  0  0  0  0  0  0  0
   54.2880   30.3980   52.8190 C   0  0  0  0  0  0  0  0  0  0  0  0
   53.2020   31.1460   52.5450 C   0  0  0  0  0  0  0  0  0  0  0  0
   52.4420   31.1320   51.2860 C   0  0  0  0  0  0  0  0  0  0  0  0
   52.5230   30.1410   50.3810 N   0  0  0  0  0  0  0  0  0  0  0  0
   51.5870   30.4760   49.4650 C   0  0  0  0  0  0  0  0  0  0  0  0
   51.3710   29.7870   48.4340 O   0  0  0  0  0  0  0  0  0  0  0  0
   50.8960   31.6010   49.7460 N   0  0  0  0  0  0  0  0  0  0  0  0
   51.4390   31.9970   50.9100 C   0  0  0  0  0  0  0  0  0  0  0  0
   51.0110   33.1100   51.6220 O   0  0  0  0  0  0  0  0  0  0  0  0
   54.2100   29.0430   53.1010 C   0  0  0  0  0  0  0  0  0  0  0  0
   55.4890   28.6190   53.3930 C   0  0  0  0  0  0  0  0  0  0  0  0
   55.8590   27.2160   53.7650 C   0  0  0  0  0  0  0  0  0  0  0  0
   56.3640   29.6420   53.2660 N   0  0  0  0  0  0  0  0  0  0  0  0
   57.7870   29.5550   53.4490 C   0  0  0  0  0  0  0  0  0  0  0  0
   58.3390   29.6040   54.7370 C   0  0  0  0  0  0  0  0  0  0  0  0
   59.7230   29.5220   54.9140 C   0  0  0  0  0  0  0  0  0  0  0  0
   60.5740   29.3870   53.8030 C   0  0  0  0  0  0  0  0  0  0  0  0
   62.0420   29.3130   53.9870 C   0  0  0  0  0  0  0  0  0  0  0  0
   62.5110   28.7580   55.0190 O   0  0  0  0  0  0  0  0  0  0  0  0
   62.9410   29.8480   53.0000 N   0  0  0  0  0  0  0  0  0  0  0  0
   62.8070   31.2500   52.5840 C   0  0  0  0  0  0  0  0  0  0  0  0
   63.2250   31.4100   51.1190 C   0  0  0  0  0  0  0  0  0  0  0  0
   64.6580   30.8630   50.8760 C   0  0  0  0  0  0  0  0  0  0  0  0
   65.6780   31.6880   51.5970 N   0  0  0  0  0  0  0  0  0  0  0  0
   67.0010   31.0250   51.7250 C   0  0  0  0  0  0  0  0  0  0  0  0
   68.0240   31.9570   52.3820 C   0  0  0  0  0  0  0  0  0  0  0  0
   68.2480   33.2390   51.5670 C   0  0  0  0  0  0  0  0  0  0  0  0
   67.1660   33.4540   50.5050 C   0  0  0  0  0  0  0  0  0  0  0  0
   65.7730   33.0730   51.0350 C   0  0  0  0  0  0  0  0  0  0  0  0
   64.6450   29.3650   51.2900 C   0  0  0  0  0  0  0  0  0  0  0  0
   64.2200   29.1750   52.7530 C   0  0  0  0  0  0  0  0  0  0  0  0
   60.0180   29.3510   52.5140 C   0  0  0  0  0  0  0  0  0  0  0  0
   58.6320   29.4260   52.3390 C   0  0  0  0  0  0  0  0  0  0  0  0
   57.3100   32.0236   52.6173 H   0  0  0  0  0  0  0  0  0  0  0  0
   55.6077   32.6947   52.0863 H   0  0  0  0  0  0  0  0  0  0  0  0
   52.8521   31.8285   53.3335 H   0  0  0  0  0  0  0  0  0  0  0  0
   53.3008   28.4239   53.0933 H   0  0  0  0  0  0  0  0  0  0  0  0
   55.8839   27.1216   54.8607 H   0  0  0  0  0  0  0  0  0  0  0  0
   55.1140   26.5190   53.3538 H   0  0  0  0  0  0  0  0  0  0  0  0
   56.8509   26.9771   53.3538 H   0  0  0  0  0  0  0  0  0  0  0  0
   57.6801   29.7074   55.6117 H   0  0  0  0  0  0  0  0  0  0  0  0
   60.1485   29.5633   55.9275 H   0  0  0  0  0  0  0  0  0  0  0  0
   61.7592   31.5645   52.6992 H   0  0  0  0  0  0  0  0  0  0  0  0
   63.4583   31.8746   53.2131 H   0  0  0  0  0  0  0  0  0  0  0  0
   62.5182   30.8573   50.4827 H   0  0  0  0  0  0  0  0  0  0  0  0
   63.2168   32.4818   50.8716 H   0  0  0  0  0  0  0  0  0  0  0  0
   64.9501   30.9338   49.8179 H   0  0  0  0  0  0  0  0  0  0  0  0
   66.8914   30.1205   52.3413 H   0  0  0  0  0  0  0  0  0  0  0  0
   67.3606   30.7658   50.7183 H   0  0  0  0  0  0  0  0  0  0  0  0
   67.6606   32.2325   53.3830 H   0  0  0  0  0  0  0  0  0  0  0  0
   68.9827   31.4205   52.4378 H   0  0  0  0  0  0  0  0  0  0  0  0
   68.2447   34.0986   52.2533 H   0  0  0  0  0  0  0  0  0  0  0  0
   69.2124   33.1409   51.0471 H   0  0  0  0  0  0  0  0  0  0  0  0
   67.1591   34.5140   50.2111 H   0  0  0  0  0  0  0  0  0  0  0  0
   67.3954   32.8104   49.6430 H   0  0  0  0  0  0  0  0  0  0  0  0
   65.5011   33.7848   51.8284 H   0  0  0  0  0  0  0  0  0  0  0  0
   65.0908   33.1074   50.1728 H   0  0  0  0  0  0  0  0  0  0  0  0
   63.9395   28.8239   50.6423 H   0  0  0  0  0  0  0  0  0  0  0  0
   65.6672   28.9738   51.1802 H   0  0  0  0  0  0  0  0  0  0  0  0
   64.1120   28.1007   52.9634 H   0  0  0  0  0  0  0  0  0  0  0  0
   64.9876   29.6108   53.4093 H   0  0  0  0  0  0  0  0  0  0  0  0
   60.6760   29.2633   51.6369 H   0  0  0  0  0  0  0  0  0  0  0  0
   58.2043   29.3835   51.3265 H   0  0  0  0  0  0  0  0  0  0  0  0
  1  2  2  0
  2  3  1  0
  3  4  2  3
  4  5  1  0
  5  6  1  0
  6  7  1  0
  7  8  2  0
  7  9  1  0
  9 10  1  0
 10 11  1  0
  3 12  1  0
 12 13  2  0
 13 14  1  0
 13 15  1  0
 15 16  1  0
 16 17  2  0
 17 18  1  0
 18 19  2  0
 19 20  1  0
 20 21  2  0
 20 22  1  0
 22 23  1  0
 23 24  1  0
 24 25  1  0
 25 26  1  0
 26 27  1  0
 27 28  1  0
 28 29  1  0
 29 30  1  0
 30 31  1  0
 25 32  1  0
 32 33  1  0
 19 34  1  0
 34 35  2  0
 15  2  1  0
 35 16  1  0
 10  5  2  0
 33 22  1  0
 31 26  1  0
  1 36  1  0
  1 37  1  0
  4 38  1  0
 12 39  1  0
 14 40  1  0
 14 41  1  0
 14 42  1  0
 17 43  1  0
 18 44  1  0
 23 45  1  0
 23 46  1  0
 24 47  1  0
 24 48  1  0
 25 49  1  0
 27 50  1  0
 27 51  1  0
 28 52  1  0
 28 53  1  0
 29 54  1  0
 29 55  1  0
 30 56  1  0
 30 57  1  0
 31 58  1  0
 31 59  1  0
 32 60  1  0
 32 61  1  0
 33 62  1  0
 33 63  1  0
 34 64  1  0
 35 65  1  0
M  CHG  3   6  -1   9  -1  11  -1
M  END
>  <UniqueID>  (20) 
19

>  <SMILES>  (20) 
C=c1c(=Cc2[n-]c(=O)[n-]c2[O-])cc(C)n1-c1ccc(C(=O)N2CCC(N3CCCCC3)CC2)cc1

>  <Energy>  (20) 
160.34830124610284

>  <Genealogy>  (20) 
C=c1c(=Cc2[n-]c(=O)[n-]c2[O-])cc(C)n1-c1ccc(C(=O)N2CCC(N3CCCCC3)CC2)cc1 (protonated)
C=c1c(=Cc2[n-]c(=O)[n-]c2[O-])cc(C)n1-c1ccc(C(=O)N2CCC(N3CCCCC3)CC2)cc1 (3D coordinates assigned)
C=c1c(=Cc2[n-]c(=O)[n-]c2[O-])cc(C)n1-c1ccc(C(=O)N2CCC(N3CCCCC3)CC2)cc1 (nonaromatic ring conformer: 160.34830124610284 kcal/mol)

>  <smiles>  (20) 
C=c1c(=Cc2[nH]c(=O)[nH]c2O)cc(C)n1-c1ccc(C(=O)N2CCC(N3CCCCC3)CC2)cc1

>  <score_type>  (20) 
oracle

>  <origin>  (20) 
adg

>  <m_score__min__energy>  (20) 
-17.07

>  <m_primary>  (20) 
energy

$$$$
20:0
     RDKit          3D

 37 39  0  0  0  0  0  0  0  0999 V2000
   59.8970   32.7260   47.5760 C   0  0  0  0  0  0  0  0  0  0  0  0
   60.2810   32.4700   48.9230 O   0  0  0  0  0  0  0  0  0  0  0  0
   59.9770   33.3410   49.9720 C   0  0  0  0  0  0  0  0  0  0  0  0
   59.6780   34.5420   49.7310 O   0  0  0  0  0  0  0  0  0  0  0  0
   60.0170   32.8180   51.3530 C   0  0  0  0  0  0  0  0  0  0  0  0
   59.2780   31.7950   51.8200 C   0  0  0  0  0  0  0  0  0  0  0  0
   59.8460   30.3600   52.5280 S   0  0  0  0  0  0  0  0  0  0  0  0
   58.3010   29.7550   52.7700 C   0  0  0  0  0  0  0  0  0  0  0  0
   58.0020   28.5660   53.3410 N   0  0  0  0  0  0  0  0  0  0  0  0
   56.7030   28.1930   53.4810 C   0  0  0  0  0  0  0  0  0  0  0  0
   56.4150   26.9600   54.0580 O   0  0  0  0  0  0  0  0  0  0  0  0
   55.6630   29.0380   53.0300 C   0  0  0  0  0  0  0  0  0  0  0  0
   54.2470   28.6240   53.1900 C   0  0  0  0  0  0  0  0  0  0  0  0
   53.9010   27.4670   52.8260 O   0  0  0  0  0  0  0  0  0  0  0  0
   53.1920   29.5710   53.7010 C   0  0  0  0  0  0  0  0  0  0  0  0
   52.5170   30.3140   52.5740 C   0  0  0  0  0  0  0  0  0  0  0  0
   52.5250   29.7840   51.2720 C   0  0  0  0  0  0  0  0  0  0  0  0
   51.8980   30.4690   50.2260 C   0  0  0  0  0  0  0  0  0  0  0  0
   51.2680   31.6930   50.4680 C   0  0  0  0  0  0  0  0  0  0  0  0
   50.6450   32.3680   49.4240 O   0  0  0  0  0  0  0  0  0  0  0  0
   51.2680   32.2360   51.7570 C   0  0  0  0  0  0  0  0  0  0  0  0
   50.6490   33.4560   52.0000 O   0  0  0  0  0  0  0  0  0  0  0  0
   51.8930   31.5520   52.8050 C   0  0  0  0  0  0  0  0  0  0  0  0
   56.0190   30.2790   52.4540 C   0  0  0  0  0  0  0  0  0  0  0  0
   55.1290   31.0890   52.0800 O   0  0  0  0  0  0  0  0  0  0  0  0
   57.3410   30.5990   52.3330 N   0  0  0  0  0  0  0  0  0  0  0  0
   57.8770   31.7410   51.8020 C   0  0  0  0  0  0  0  0  0  0  0  0
   57.1620   32.6690   51.3340 O   0  0  0  0  0  0  0  0  0  0  0  0
   58.9818   33.3361   47.5653 H   0  0  0  0  0  0  0  0  0  0  0  0
   60.7045   33.2671   47.0611 H   0  0  0  0  0  0  0  0  0  0  0  0
   59.7081   31.7725   47.0611 H   0  0  0  0  0  0  0  0  0  0  0  0
   60.7076   33.3048   52.0574 H   0  0  0  0  0  0  0  0  0  0  0  0
   52.4342   28.9962   54.2535 H   0  0  0  0  0  0  0  0  0  0  0  0
   53.6804   30.3088   54.3546 H   0  0  0  0  0  0  0  0  0  0  0  0
   53.0271   28.8254   51.0747 H   0  0  0  0  0  0  0  0  0  0  0  0
   51.9007   30.0438   49.2115 H   0  0  0  0  0  0  0  0  0  0  0  0
   51.8961   31.9856   53.8159 H   0  0  0  0  0  0  0  0  0  0  0  0
  1  2  1  0
  2  3  1  0
  3  4  2  0
  3  5  1  0
  5  6  2  3
  6  7  1  0
  7  8  1  0
  8  9  2  0
  9 10  1  0
 10 11  1  0
 10 12  2  0
 12 13  1  0
 13 14  2  0
 13 15  1  0
 15 16  1  0
 16 17  2  0
 17 18  1  0
 18 19  2  0
 19 20  1  0
 19 21  1  0
 21 22  1  0
 21 23  2  0
 12 24  1  0
 24 25  2  0
 24 26  1  0
 26 27  1  0
 27 28  2  0
 27  6  1  0
 26  8  1  0
 23 16  1  0
  1 29  1  0
  1 30  1  0
  1 31  1  0
  5 32  1  0
 15 33  1  0
 15 34  1  0
 17 35  1  0
 18 36  1  0
 23 37  1  0
M  CHG  3  11  -1  20  -1  22  -1
M  END
>  <UniqueID>  (21) 
20

>  <SMILES>  (21) 
COC(=O)C=c1sc2nc([O-])c(C(=O)Cc3ccc([O-])c([O-])c3)c(=O)n2c1=O

>  <Energy>  (21) 
83.66261110171136

>  <Genealogy>  (21) 
COC(=O)C=c1sc2nc([O-])c(C(=O)Cc3ccc([O-])c([O-])c3)c(=O)n2c1=O (protonated)
COC(=O)C=c1sc2nc([O-])c(C(=O)Cc3ccc([O-])c([O-])c3)c(=O)n2c1=O (3D coordinates assigned)
COC(=O)C=c1sc2nc([O-])c(C(=O)Cc3ccc([O-])c([O-])c3)c(=O)n2c1=O (optimized conformer: 83.66261110171136 kcal/mol)

>  <smiles>  (21) 
COC(=O)C=c1sc2nc(O)c(C(=O)Cc3ccc(O)c(O)c3)c(=O)n2c1=O

>  <score_type>  (21) 
oracle

>  <origin>  (21) 
adg

>  <m_score__min__energy>  (21) 
-16.510000000000002

>  <m_primary>  (21) 
energy

$$$$
21:0
     RDKit          3D

 58 61  0  0  0  0  0  0  0  0999 V2000
   54.7640   26.7320   47.1110 H   0  0  0  0  0  0  0  0  0  0  0  0
   55.1430   26.5170   46.1990 O   0  0  0  0  0  0  0  0  0  0  0  0
   55.2060   25.2260   45.6690 C   0  0  0  0  0  0  0  0  0  0  0  0
   54.1970   24.3670   45.9670 N   0  0  0  0  0  0  0  0  0  0  0  0
   54.2030   23.0790   45.5440 C   0  0  0  0  0  0  0  0  0  0  0  0
   53.1940   22.3100   45.8360 N   0  0  0  0  0  0  0  0  0  0  0  0
   52.5470   22.1710   47.1150 C   0  0  0  0  0  0  0  0  0  0  0  0
   51.1560   22.3140   47.1800 C   0  0  0  0  0  0  0  0  0  0  0  0
   50.5824   22.4962   46.2593 H   0  0  0  0  0  0  0  0  0  0  0  0
   50.4900   22.2270   48.4070 C   0  0  0  0  0  0  0  0  0  0  0  0
   49.3952   22.3268   48.4459 H   0  0  0  0  0  0  0  0  0  0  0  0
   51.2150   22.0130   49.5860 C   0  0  0  0  0  0  0  0  0  0  0  0
   50.5290   21.9230   50.8500 C   0  0  0  0  0  0  0  0  0  0  0  0
   49.9780   21.8490   51.8650 N   0  0  0  0  0  0  0  0  0  0  0  0
   52.6090   21.8980   49.5340 C   0  0  0  0  0  0  0  0  0  0  0  0
   53.1817   21.7374   50.4593 H   0  0  0  0  0  0  0  0  0  0  0  0
   53.2750   21.9870   48.3070 C   0  0  0  0  0  0  0  0  0  0  0  0
   54.3720   21.9130   48.2728 H   0  0  0  0  0  0  0  0  0  0  0  0
   55.2460   22.6230   44.8010 N   0  0  0  0  0  0  0  0  0  0  0  0
   56.2880   23.4270   44.4640 C   0  0  0  0  0  0  0  0  0  0  0  0
   57.4070   22.8290   43.6580 C   0  0  0  0  0  0  0  0  0  0  0  0
   58.1704   22.4210   44.3368 H   0  0  0  0  0  0  0  0  0  0  0  0
   57.0114   22.0221   43.0237 H   0  0  0  0  0  0  0  0  0  0  0  0
   57.8581   23.6063   43.0237 H   0  0  0  0  0  0  0  0  0  0  0  0
   56.2790   24.7890   44.8570 C   0  0  0  0  0  0  0  0  0  0  0  0
   57.3960   25.7300   44.4440 C   0  0  0  0  0  0  0  0  0  0  0  0
   58.2563   25.1333   44.1065 H   0  0  0  0  0  0  0  0  0  0  0  0
   57.0164   26.3737   43.6368 H   0  0  0  0  0  0  0  0  0  0  0  0
   57.8360   26.6190   45.5800 C   0  0  0  0  0  0  0  0  0  0  0  0
   58.1210   26.1040   46.6990 O   0  0  0  0  0  0  0  0  0  0  0  0
   57.9290   28.0510   45.4080 N   0  0  0  0  0  0  0  0  0  0  0  0
   57.0360   28.7880   44.5130 C   0  0  0  0  0  0  0  0  0  0  0  0
   56.5116   28.0798   43.8546 H   0  0  0  0  0  0  0  0  0  0  0  0
   56.3019   29.3487   45.1102 H   0  0  0  0  0  0  0  0  0  0  0  0
   57.8520   29.7650   43.6630 C   0  0  0  0  0  0  0  0  0  0  0  0
   58.4352   29.1880   42.9302 H   0  0  0  0  0  0  0  0  0  0  0  0
   57.1404   30.4495   43.1782 H   0  0  0  0  0  0  0  0  0  0  0  0
   58.7830   30.5910   44.4580 N   0  0  0  0  0  0  0  0  0  0  0  0
   58.0850   32.0780   45.0680 S   0  0  0  0  0  0  0  0  0  0  0  0
   58.3110   33.1750   44.0640 O   0  0  0  0  0  0  0  0  0  0  0  0
   56.5990   31.8940   45.2120 O   0  0  0  0  0  0  0  0  0  0  0  0
   58.7440   32.5910   46.6230 C   0  0  0  0  0  0  0  0  0  0  0  0
   59.4370   33.8080   46.7310 C   0  0  0  0  0  0  0  0  0  0  0  0
   59.5862   34.4346   45.8393 H   0  0  0  0  0  0  0  0  0  0  0  0
   59.9380   34.2260   47.9680 C   0  0  0  0  0  0  0  0  0  0  0  0
   60.4907   35.1739   48.0451 H   0  0  0  0  0  0  0  0  0  0  0  0
   59.7370   33.4400   49.1070 C   0  0  0  0  0  0  0  0  0  0  0  0
   60.1353   33.7673   50.0787 H   0  0  0  0  0  0  0  0  0  0  0  0
   59.0290   32.2370   49.0100 C   0  0  0  0  0  0  0  0  0  0  0  0
   58.8669   31.6214   49.9071 H   0  0  0  0  0  0  0  0  0  0  0  0
   58.5270   31.8160   47.7740 C   0  0  0  0  0  0  0  0  0  0  0  0
   57.9608   30.8755   47.7034 H   0  0  0  0  0  0  0  0  0  0  0  0
   59.5960   29.8480   45.4440 C   0  0  0  0  0  0  0  0  0  0  0  0
   60.3753   29.2905   44.9037 H   0  0  0  0  0  0  0  0  0  0  0  0
   60.0195   30.5883   46.1387 H   0  0  0  0  0  0  0  0  0  0  0  0
   58.7820   28.8560   46.2820 C   0  0  0  0  0  0  0  0  0  0  0  0
   59.4673   28.1950   46.8329 H   0  0  0  0  0  0  0  0  0  0  0  0
   58.1521   29.4120   46.9920 H   0  0  0  0  0  0  0  0  0  0  0  0
  1  2  1  0
  2  3  1  0
  3  4  1  0
  4  5  1  0
  5  6  2  0
  6  7  1  0
  7  8  2  0
  8  9  1  0
  8 10  1  0
 10 11  1  0
 10 12  2  0
 12 13  1  0
 13 14  3  0
 12 15  1  0
 15 16  1  0
 15 17  2  0
 17 18  1  0
  5 19  1  0
 19 20  2  0
 20 21  1  0
 21 22  1  0
 21 23  1  0
 21 24  1  0
 20 25  1  0
 25 26  1  0
 26 27  1  0
 26 28  1  0
 26 29  1  0
 29 30  2  0
 29 31  1  0
 31 32  1  0
 32 33  1  0
 32 34  1  0
 32 35  1  0
 35 36  1  0
 35 37  1  0
 35 38  1  0
 38 39  1  0
 39 40  2  0
 39 41  2  0
 39 42  1  0
 42 43  2  0
 43 44  1  0
 43 45  1  0
 45 46  1  0
 45 47  2  0
 47 48  1  0
 47 49  1  0
 49 50  1  0
 49 51  2  0
 51 52  1  0
 38 53  1  0
 53 54  1  0
 53 55  1  0
 53 56  1  0
 56 57  1  0
 56 58  1  0
 25  3  2  0
 56 31  1  0
 17  7  1  0
 51 42  1  0
M  CHG  1   4  -1
M  END
>  <UniqueID>  (22) 
21

>  <SMILES>  (22) 
Cc1n/c(=N\c2ccc(C#N)cc2)[n-]c(O)c1CC(=O)N1CCN(S(=O)(=O)c2ccccc2)CC1

>  <Energy>  (22) 
76.39631143995604

>  <Genealogy>  (22) 
Cc1nc(=Nc2ccc(C#N)cc2)[n-]c(O)c1CC(=O)N1CCN(S(=O)(=O)c2ccccc2)CC1 (protonated)
Cc1n/c(=N\c2ccc(C#N)cc2)[n-]c(O)c1CC(=O)N1CCN(S(=O)(=O)c2ccccc2)CC1 (cis-trans isomerization)
Cc1n/c(=N\c2ccc(C#N)cc2)[n-]c(O)c1CC(=O)N1CCN(S(=O)(=O)c2ccccc2)CC1 (3D coordinates assigned)
Cc1n/c(=N\c2ccc(C#N)cc2)[n-]c(O)c1CC(=O)N1CCN(S(=O)(=O)c2ccccc2)CC1 (nonaromatic ring conformer: 76.39631143995604 kcal/mol)

>  <smiles>  (22) 
Cc1nc(=Nc2ccc(C#N)cc2)[nH]c(O)c1CC(=O)N1CCN(S(=O)(=O)c2ccccc2)CC1

>  <score_type>  (22) 
oracle

>  <origin>  (22) 
adg

>  <m_score__min__energy>  (22) 
-11.56

>  <m_primary>  (22) 
energy

$$$$
22:0
     RDKit          3D

 42 45  0  0  0  0  0  0  0  0999 V2000
   59.7220   34.0400   49.2680 C   0  0  0  0  0  0  0  0  0  0  0  0
   59.4560   33.8010   47.8150 C   0  0  0  0  0  0  0  0  0  0  0  0
   59.5920   34.8500   46.8920 C   0  0  0  0  0  0  0  0  0  0  0  0
   59.3130   34.6380   45.5420 C   0  0  0  0  0  0  0  0  0  0  0  0
   58.8890   33.3800   45.1020 C   0  0  0  0  0  0  0  0  0  0  0  0
   58.7580   32.3230   46.0110 C   0  0  0  0  0  0  0  0  0  0  0  0
   58.3070   31.0020   45.5390 C   0  0  0  0  0  0  0  0  0  0  0  0
   57.0920   30.9210   44.9390 N   0  0  0  0  0  0  0  0  0  0  0  0
   56.6180   29.7500   44.4460 C   0  0  0  0  0  0  0  0  0  0  0  0
   55.1450   29.7130   43.7350 S   0  0  0  0  0  0  0  0  0  0  0  0
   57.3700   28.6210   44.5340 N   0  0  0  0  0  0  0  0  0  0  0  0
   58.6010   28.6440   45.1100 C   0  0  0  0  0  0  0  0  0  0  0  0
   59.2820   27.5830   45.1490 O   0  0  0  0  0  0  0  0  0  0  0  0
   59.1100   29.8440   45.6470 C   0  0  0  0  0  0  0  0  0  0  0  0
   60.5090   29.8950   46.2350 C   0  0  0  0  0  0  0  0  0  0  0  0
   60.4570   29.8040   47.7330 C   0  0  0  0  0  0  0  0  0  0  0  0
   59.6050   28.9980   48.4810 C   0  0  0  0  0  0  0  0  0  0  0  0
   59.8720   29.1210   49.8010 N   0  0  0  0  0  0  0  0  0  0  0  0
   60.8860   30.0000   49.8930 C   0  0  0  0  0  0  0  0  0  0  0  0
   61.5330   30.4200   51.0540 C   0  0  0  0  0  0  0  0  0  0  0  0
   62.6010   31.3260   50.9210 C   0  0  0  0  0  0  0  0  0  0  0  0
   62.9880   31.7970   49.6440 C   0  0  0  0  0  0  0  0  0  0  0  0
   64.1100   32.6850   49.5130 C   0  0  0  0  0  0  0  0  0  0  0  0
   65.0140   33.3970   49.3940 N   0  0  0  0  0  0  0  0  0  0  0  0
   62.3040   31.3640   48.4910 C   0  0  0  0  0  0  0  0  0  0  0  0
   61.2650   30.4490   48.6540 C   0  0  0  0  0  0  0  0  0  0  0  0
   59.0190   32.5420   47.3740 C   0  0  0  0  0  0  0  0  0  0  0  0
   59.0381   33.4255   49.8719 H   0  0  0  0  0  0  0  0  0  0  0  0
   60.7620   33.7670   49.5001 H   0  0  0  0  0  0  0  0  0  0  0  0
   59.5614   35.1032   49.5001 H   0  0  0  0  0  0  0  0  0  0  0  0
   59.9197   35.8426   47.2347 H   0  0  0  0  0  0  0  0  0  0  0  0
   59.4267   35.4618   44.8220 H   0  0  0  0  0  0  0  0  0  0  0  0
   58.6577   33.2204   44.0385 H   0  0  0  0  0  0  0  0  0  0  0  0
   57.0070   27.7210   44.1460 H   0  0  0  0  0  0  0  0  0  0  0  0
   61.0971   29.0526   45.8420 H   0  0  0  0  0  0  0  0  0  0  0  0
   60.9769   30.8501   45.9540 H   0  0  0  0  0  0  0  0  0  0  0  0
   58.8229   28.3506   48.0577 H   0  0  0  0  0  0  0  0  0  0  0  0
   59.3990   28.6210   50.5860 H   0  0  0  0  0  0  0  0  0  0  0  0
   61.2185   30.0547   52.0428 H   0  0  0  0  0  0  0  0  0  0  0  0
   63.1392   31.6708   51.8163 H   0  0  0  0  0  0  0  0  0  0  0  0
   62.5810   31.7362   47.4936 H   0  0  0  0  0  0  0  0  0  0  0  0
   58.8806   31.7249   48.0973 H   0  0  0  0  0  0  0  0  0  0  0  0
  1  2  1  0
  2  3  2  0
  3  4  1  0
  4  5  2  0
  5  6  1  0
  6  7  1  0
  7  8  1  0
  8  9  1  0
  9 10  2  0
  9 11  1  0
 11 12  1  0
 12 13  2  0
 12 14  1  0
 14 15  1  0
 15 16  1  0
 16 17  2  0
 17 18  1  0
 18 19  1  0
 19 20  2  0
 20 21  1  0
 21 22  2  0
 22 23  1  0
 23 24  3  0
 22 25  1  0
 25 26  2  0
  6 27  2  0
 27  2  1  0
 14  7  2  0
 26 16  1  0
 26 19  1  0
  1 28  1  0
  1 29  1  0
  1 30  1  0
  3 31  1  0
  4 32  1  0
  5 33  1  0
 11 34  1  0
 15 35  1  0
 15 36  1  0
 17 37  1  0
 18 38  1  0
 20 39  1  0
 21 40  1  0
 25 41  1  0
 27 42  1  0
M  CHG  1   8  -1
M  END
>  <UniqueID>  (23) 
22

>  <SMILES>  (23) 
Cc1cccc(-c2[n-]c(=S)[nH]c(=O)c2Cc2c[nH]c3ccc(C#N)cc23)c1

>  <Energy>  (23) 
82.48505032708864

>  <Genealogy>  (23) 
Cc1cccc(-c2[n-]c(=S)[nH]c(=O)c2Cc2c[nH]c3ccc(C#N)cc23)c1 (protonated)
Cc1cccc(-c2[n-]c(=S)[nH]c(=O)c2Cc2c[nH]c3ccc(C#N)cc23)c1 (3D coordinates assigned)
Cc1cccc(-c2[n-]c(=S)[nH]c(=O)c2Cc2c[nH]c3ccc(C#N)cc23)c1 (optimized conformer: 82.48505032708864 kcal/mol)

>  <smiles>  (23) 
Cc1cccc(-c2[nH]c(=S)[nH]c(=O)c2Cc2c[nH]c3ccc(C#N)cc23)c1

>  <score_type>  (23) 
oracle

>  <origin>  (23) 
adg

>  <m_score__min__energy>  (23) 
-9.75

>  <m_primary>  (23) 
energy

$$$$
23:0
     RDKit          3D

 52 55  0  0  0  0  0  0  0  0999 V2000
   56.9873   20.8125   42.6956 H   0  0  0  0  0  0  0  0  0  0  0  0
   57.1520   21.7540   43.2400 C   0  0  0  0  0  0  0  0  0  0  0  0
   56.3300   22.8570   42.9940 C   0  0  0  0  0  0  0  0  0  0  0  0
   55.5221   22.7839   42.2511 H   0  0  0  0  0  0  0  0  0  0  0  0
   56.5310   24.0510   43.6880 C   0  0  0  0  0  0  0  0  0  0  0  0
   55.8789   24.9147   43.4910 H   0  0  0  0  0  0  0  0  0  0  0  0
   57.5630   24.1560   44.6380 C   0  0  0  0  0  0  0  0  0  0  0  0
   57.7710   25.4170   45.3920 C   0  0  0  0  0  0  0  0  0  0  0  0
   58.5580   25.4230   46.5510 C   0  0  0  0  0  0  0  0  0  0  0  0
   58.9977   24.4906   46.9348 H   0  0  0  0  0  0  0  0  0  0  0  0
   58.7730   26.6320   47.2080 C   0  0  0  0  0  0  0  0  0  0  0  0
   59.4930   26.6720   48.2390 O   0  0  0  0  0  0  0  0  0  0  0  0
   58.2100   27.7710   46.7330 N   0  0  0  0  0  0  0  0  0  0  0  0
   57.4230   27.7630   45.6260 C   0  0  0  0  0  0  0  0  0  0  0  0
   56.9060   28.8910   45.2230 N   0  0  0  0  0  0  0  0  0  0  0  0
   57.5190   30.1890   45.2620 C   0  0  0  0  0  0  0  0  0  0  0  0
   57.3750   31.0920   44.1930 C   0  0  0  0  0  0  0  0  0  0  0  0
   56.8198   30.7905   43.2925 H   0  0  0  0  0  0  0  0  0  0  0  0
   57.9340   32.3700   44.2700 C   0  0  0  0  0  0  0  0  0  0  0  0
   57.8352   33.0630   43.4215 H   0  0  0  0  0  0  0  0  0  0  0  0
   58.6220   32.7740   45.4270 C   0  0  0  0  0  0  0  0  0  0  0  0
   59.1950   34.1640   45.5210 C   0  0  0  0  0  0  0  0  0  0  0  0
   58.4100   34.8965   45.2816 H   0  0  0  0  0  0  0  0  0  0  0  0
   60.0277   34.2554   44.8081 H   0  0  0  0  0  0  0  0  0  0  0  0
   59.7120   34.4270   46.9130 C   0  0  0  0  0  0  0  0  0  0  0  0
   58.9300   34.9850   47.7310 O   0  0  0  0  0  0  0  0  0  0  0  0
   61.0500   34.0580   47.3350 N   0  0  0  0  0  0  0  0  0  0  0  0
   62.0440   33.5570   46.3680 C   0  0  0  0  0  0  0  0  0  0  0  0
   61.7413   32.5530   46.0359 H   0  0  0  0  0  0  0  0  0  0  0  0
   62.0812   34.2616   45.5241 H   0  0  0  0  0  0  0  0  0  0  0  0
   63.4490   33.4740   46.9770 C   0  0  0  0  0  0  0  0  0  0  0  0
   64.1192   32.9733   46.2628 H   0  0  0  0  0  0  0  0  0  0  0  0
   63.7951   34.4967   47.1875 H   0  0  0  0  0  0  0  0  0  0  0  0
   63.4450   32.6860   48.2940 C   0  0  0  0  0  0  0  0  0  0  0  0
   63.3782   31.6138   48.0576 H   0  0  0  0  0  0  0  0  0  0  0  0
   64.3743   32.9399   48.8250 H   0  0  0  0  0  0  0  0  0  0  0  0
   62.2720   33.0540   49.2310 C   0  0  0  0  0  0  0  0  0  0  0  0
   61.6008   32.1859   49.3081 H   0  0  0  0  0  0  0  0  0  0  0  0
   62.7053   33.3296   50.2038 H   0  0  0  0  0  0  0  0  0  0  0  0
   61.4580   34.2570   48.7380 C   0  0  0  0  0  0  0  0  0  0  0  0
   60.5608   34.3694   49.3644 H   0  0  0  0  0  0  0  0  0  0  0  0
   62.0800   35.1618   48.8051 H   0  0  0  0  0  0  0  0  0  0  0  0
   58.7240   31.8850   46.5120 C   0  0  0  0  0  0  0  0  0  0  0  0
   59.2437   32.1983   47.4295 H   0  0  0  0  0  0  0  0  0  0  0  0
   58.1680   30.6050   46.4300 C   0  0  0  0  0  0  0  0  0  0  0  0
   58.2410   29.9210   47.2883 H   0  0  0  0  0  0  0  0  0  0  0  0
   57.2220   26.5870   44.9490 N   0  0  0  0  0  0  0  0  0  0  0  0
   56.6600   26.5690   44.0710 H   0  0  0  0  0  0  0  0  0  0  0  0
   58.3900   23.0420   44.8730 C   0  0  0  0  0  0  0  0  0  0  0  0
   59.2048   23.1113   45.6087 H   0  0  0  0  0  0  0  0  0  0  0  0
   58.1820   21.8480   44.1770 C   0  0  0  0  0  0  0  0  0  0  0  0
   58.8313   20.9808   44.3681 H   0  0  0  0  0  0  0  0  0  0  0  0
  1  2  1  0
  2  3  2  0
  3  4  1  0
  3  5  1  0
  5  6  1  0
  5  7  2  0
  7  8  1  0
  8  9  2  0
  9 10  1  0
  9 11  1  0
 11 12  2  0
 11 13  1  0
 13 14  1  0
 14 15  2  0
 15 16  1  0
 16 17  2  0
 17 18  1  0
 17 19  1  0
 19 20  1  0
 19 21  2  0
 21 22  1  0
 22 23  1  0
 22 24  1  0
 22 25  1  0
 25 26  2  0
 25 27  1  0
 27 28  1  0
 28 29  1  0
 28 30  1  0
 28 31  1  0
 31 32  1  0
 31 33  1  0
 31 34  1  0
 34 35  1  0
 34 36  1  0
 34 37  1  0
 37 38  1  0
 37 39  1  0
 37 40  1  0
 40 41  1  0
 40 42  1  0
 21 43  1  0
 43 44  1  0
 43 45  2  0
 45 46  1  0
 14 47  1  0
 47 48  1  0
  7 49  1  0
 49 50  1  0
 49 51  2  0
 51 52  1  0
 51  2  1  0
 47  8  1  0
 45 16  1  0
 40 27  1  0
M  CHG  1  13  -1
M  END
>  <UniqueID>  (24) 
23

>  <SMILES>  (24) 
O=C(Cc1ccc(/N=c2/[n-]c(=O)cc(-c3ccccc3)[nH]2)cc1)N1CCCCC1

>  <Energy>  (24) 
71.2258600417128

>  <Genealogy>  (24) 
O=C(Cc1ccc(N=c2[n-]c(=O)cc(-c3ccccc3)[nH]2)cc1)N1CCCCC1 (protonated)
O=C(Cc1ccc(/N=c2/[n-]c(=O)cc(-c3ccccc3)[nH]2)cc1)N1CCCCC1 (cis-trans isomerization)
O=C(Cc1ccc(/N=c2/[n-]c(=O)cc(-c3ccccc3)[nH]2)cc1)N1CCCCC1 (3D coordinates assigned)
O=C(Cc1ccc(/N=c2/[n-]c(=O)cc(-c3ccccc3)[nH]2)cc1)N1CCCCC1 (nonaromatic ring conformer: 71.2258600417128 kcal/mol)

>  <smiles>  (24) 
O=C(Cc1ccc(N=c2[nH]c(-c3ccccc3)cc(=O)[nH]2)cc1)N1CCCCC1

>  <score_type>  (24) 
oracle

>  <origin>  (24) 
adg

>  <m_score__min__energy>  (24) 
-10.890000000000001

>  <m_primary>  (24) 
energy

$$$$
24:0
     RDKit          3D

 60 64  0  0  1  0  0  0  0  0999 V2000
   57.8310   32.3060   41.1120 C   0  0  0  0  0  0  0  0  0  0  0  0
   57.7860   32.1280   42.5930 C   0  0  0  0  0  0  0  0  0  0  0  0
   58.3110   33.0960   43.3680 N   0  0  0  0  0  0  0  0  0  0  0  0
   58.2780   32.9500   44.7020 C   0  0  0  0  0  0  0  0  0  0  0  0
   58.7800   33.8790   45.4170 N   0  0  0  0  0  0  0  0  0  0  0  0
   59.7350   33.6470   46.4490 C   0  0  0  0  0  0  0  0  0  0  0  0
   59.2860   33.2600   47.5770 O   0  0  0  0  0  0  0  0  0  0  0  0
   61.1320   33.8280   46.2680 N   0  0  0  0  0  0  0  0  0  0  0  0
   61.9580   33.5520   47.4080 C   0  0  0  0  0  0  0  0  0  0  0  0
   62.9900   32.6330   47.2860 C   0  0  0  0  0  0  0  0  0  0  0  0
   63.8280   32.3080   48.3190 C   0  0  0  0  0  0  0  0  0  0  0  0
   63.6300   32.9250   49.5290 C   0  0  0  0  0  0  0  0  0  0  0  0
   64.5340   32.5860   50.6820 C   0  0  0  0  0  0  0  0  0  0  0  0
   64.3000   31.1940   51.1630 C   0  0  0  0  0  0  0  0  0  0  0  0
   63.0010   30.6830   51.1590 C   0  0  0  0  0  0  0  0  0  0  0  0
   62.7040   29.4160   51.5850 C   0  0  0  0  0  0  0  0  0  0  0  0
   63.7080   28.6370   52.0230 N   0  0  0  0  0  0  0  0  0  0  0  0
   64.9860   29.0980   52.0430 C   0  0  0  0  0  0  0  0  0  0  0  0
   65.2880   30.3740   51.6150 C   0  0  0  0  0  0  0  0  0  0  0  0
   62.6050   33.8410   49.6630 C   0  0  0  0  0  0  0  0  0  0  0  0
   61.7550   34.1760   48.6270 C   0  0  0  0  0  0  0  0  0  0  0  0
   57.7210   31.8390   45.3040 C   0  0  0  0  0  0  0  0  0  0  0  0
   57.1830   30.8480   44.4930 C   0  0  0  0  0  0  0  0  0  0  0  0
   56.6150   29.7130   45.0590 O   0  0  0  0  0  0  0  0  0  0  0  0
   57.4240   28.7430   45.6410 C   0  0  0  0  0  0  0  0  0  0  0  0
   57.3750   27.4390   45.1370 C   0  0  0  0  0  0  0  0  0  0  0  0
   58.1900   26.4680   45.7240 C   0  0  0  0  0  0  0  0  0  0  0  0
   59.0300   26.7320   46.7660 C   0  0  0  0  0  0  0  0  0  0  0  0
   59.0780   28.0170   47.2650 C   0  0  0  0  0  0  0  0  0  0  0  0
   58.2750   28.9960   46.6920 C   0  0  0  0  0  0  0  0  0  0  0  0
   58.5420   30.1400   47.3890 C   0  0  0  0  0  0  0  0  0  0  0  0
   59.4870   29.8750   48.3680 C   0  0  0  0  0  0  0  0  0  0  0  0
   60.0300   30.7830   49.2960 O   0  0  0  0  0  0  0  0  0  0  0  0
   59.8050   28.5510   48.2710 N   0  0  0  0  0  0  0  0  0  0  0  0
   60.7690   27.9170   49.1440 C   0  0  0  0  0  0  0  0  0  0  0  0
   57.2360   31.0300   43.1440 N   0  0  0  0  0  0  0  0  0  0  0  0
   58.0943   33.3476   40.8757 H   0  0  0  0  0  0  0  0  0  0  0  0
   58.5867   31.6307   40.6843 H   0  0  0  0  0  0  0  0  0  0  0  0
   56.8452   32.0710   40.6843 H   0  0  0  0  0  0  0  0  0  0  0  0
   61.5020   34.1420   45.3560 H   0  0  0  0  0  0  0  0  0  0  0  0
   63.1423   32.1422   46.3134 H   0  0  0  0  0  0  0  0  0  0  0  0
   64.6360   31.5741   48.1832 H   0  0  0  0  0  0  0  0  0  0  0  0
   65.5805   32.6816   50.3569 H   0  0  0  0  0  0  0  0  0  0  0  0
   64.3181   33.2796   51.5080 H   0  0  0  0  0  0  0  0  0  0  0  0
   62.1828   31.3241   50.7991 H   0  0  0  0  0  0  0  0  0  0  0  0
   61.6687   29.0446   51.5692 H   0  0  0  0  0  0  0  0  0  0  0  0
   65.7922   28.4436   52.4061 H   0  0  0  0  0  0  0  0  0  0  0  0
   66.3287   30.7294   51.6390 H   0  0  0  0  0  0  0  0  0  0  0  0
   62.4589   34.3260   50.6395 H   0  0  0  0  0  0  0  0  0  0  0  0
   60.9478   34.9104   48.7653 H   0  0  0  0  0  0  0  0  0  0  0  0
   57.7038   31.7412   46.3995 H   0  0  0  0  0  0  0  0  0  0  0  0
   56.7104   27.1842   44.2983 H   0  0  0  0  0  0  0  0  0  0  0  0
   58.1527   25.4426   45.3275 H   0  0  0  0  0  0  0  0  0  0  0  0
   59.6554   25.9374   47.1988 H   0  0  0  0  0  0  0  0  0  0  0  0
   58.0787   31.1201   47.2023 H   0  0  0  0  0  0  0  0  0  0  0  0
   59.9630   31.7760   49.0340 H   0  0  0  0  0  0  0  0  0  0  0  0
   60.4905   28.1002   50.1923 H   0  0  0  0  0  0  0  0  0  0  0  0
   60.7812   26.8340   48.9517 H   0  0  0  0  0  0  0  0  0  0  0  0
   61.7682   28.3348   48.9517 H   0  0  0  0  0  0  0  0  0  0  0  0
   56.8230   30.2680   42.5510 H   0  0  0  0  0  0  0  0  0  0  0  0
  1  2  1  0
  2  3  2  0
  3  4  1  0
  4  5  2  0
  5  6  1  0
  6  7  2  0
  6  8  1  0
  8  9  1  0
  9 10  2  0
 10 11  1  0
 11 12  2  0
 12 13  1  0
 13 14  1  0
 14 15  2  0
 15 16  1  0
 16 17  2  0
 17 18  1  0
 18 19  2  0
 12 20  1  0
 20 21  2  0
  4 22  1  0
 22 23  2  0
 23 24  1  0
 24 25  1  0
 25 26  2  0
 26 27  1  0
 27 28  2  0
 28 29  1  0
 29 30  2  0
 30 31  1  0
 31 32  2  0
 32 33  1  0
 32 34  1  0
 34 35  1  0
 23 36  1  0
 36  2  1  0
 21  9  1  0
 30 25  1  0
 19 14  1  0
 34 29  1  0
  1 37  1  0
  1 38  1  0
  1 39  1  0
  8 40  1  0
 10 41  1  0
 11 42  1  0
 13 43  1  0
 13 44  1  0
 15 45  1  0
 16 46  1  0
 18 47  1  0
 19 48  1  0
 20 49  1  0
 21 50  1  0
 22 51  1  0
 26 52  1  0
 27 53  1  0
 28 54  1  0
 31 55  1  0
 33 56  1  0
 35 57  1  0
 35 58  1  0
 35 59  1  0
 36 60  1  0
M  END
>  <smiles>  (25) 
Cc1nc(=NC(=O)Nc2ccc(Cc3ccncc3)cc2)cc(Oc2cccc3c2cc(O)n3C)[nH]1

>  <score_type>  (25) 
oracle

>  <origin>  (25) 
adg

>  <m_score__min__energy>  (25) 
-9.8699999999999992

>  <m_primary>  (25) 
energy

$$$$
25:0
     RDKit          3D

 26 27  0  0  0  0  0  0  0  0999 V2000
   57.7590   32.2280   42.2050 C   0  0  0  0  0  0  0  0  0  0  0  0
   57.8160   32.1410   43.5380 C   0  0  0  0  0  0  0  0  0  0  0  0
   57.8780   33.2260   44.3360 N   0  0  0  0  0  0  0  0  0  0  0  0
   57.9270   32.7770   45.6050 C   0  0  0  0  0  0  0  0  0  0  0  0
   57.9480   33.6670   46.8030 C   0  0  0  0  0  0  0  0  0  0  0  0
   57.8760   31.3970   45.6360 C   0  0  0  0  0  0  0  0  0  0  0  0
   57.8070   30.9790   44.3120 C   0  0  0  0  0  0  0  0  0  0  0  0
   57.7740   29.7050   43.8770 C   0  0  0  0  0  0  0  0  0  0  0  0
   57.5470   28.5440   44.7660 C   0  0  0  0  0  0  0  0  0  0  0  0
   56.2630   28.2190   45.2400 C   0  0  0  0  0  0  0  0  0  0  0  0
   55.1600   28.9860   44.8790 O   0  0  0  0  0  0  0  0  0  0  0  0
   56.0900   27.1330   46.0400 N   0  0  0  0  0  0  0  0  0  0  0  0
   57.1400   26.3350   46.3730 C   0  0  0  0  0  0  0  0  0  0  0  0
   56.9630   25.3330   47.1140 O   0  0  0  0  0  0  0  0  0  0  0  0
   58.3820   26.6150   45.9040 N   0  0  0  0  0  0  0  0  0  0  0  0
   58.6070   27.6910   45.1070 C   0  0  0  0  0  0  0  0  0  0  0  0
   59.7740   27.9160   44.6870 O   0  0  0  0  0  0  0  0  0  0  0  0
   57.7096   31.3135   41.5958 H   0  0  0  0  0  0  0  0  0  0  0  0
   57.7615   33.2141   41.7176 H   0  0  0  0  0  0  0  0  0  0  0  0
   57.8840   34.2270   44.0340 H   0  0  0  0  0  0  0  0  0  0  0  0
   57.9335   33.0535   47.7159 H   0  0  0  0  0  0  0  0  0  0  0  0
   58.8609   34.2805   46.7880 H   0  0  0  0  0  0  0  0  0  0  0  0
   57.0651   34.3229   46.7880 H   0  0  0  0  0  0  0  0  0  0  0  0
   57.8877   30.7564   46.5302 H   0  0  0  0  0  0  0  0  0  0  0  0
   57.9238   29.5173   42.8035 H   0  0  0  0  0  0  0  0  0  0  0  0
   55.1330   26.9040   46.3940 H   0  0  0  0  0  0  0  0  0  0  0  0
  1  2  2  0
  2  3  1  0
  3  4  1  0
  4  5  1  0
  4  6  2  0
  6  7  1  0
  7  8  2  3
  8  9  1  0
  9 10  2  0
 10 11  1  0
 10 12  1  0
 12 13  1  0
 13 14  2  0
 13 15  1  0
 15 16  1  0
 16 17  2  0
  7  2  1  0
 16  9  1  0
  1 18  1  0
  1 19  1  0
  3 20  1  0
  5 21  1  0
  5 22  1  0
  5 23  1  0
  6 24  1  0
  8 25  1  0
 12 26  1  0
M  CHG  2  11  -1  15  -1
M  END
>  <UniqueID>  (26) 
24

>  <SMILES>  (26) 
C=c1[nH]c(C)cc1=Cc1c([O-])[nH]c(=O)[n-]c1=O

>  <Energy>  (26) 
61.938351774437734

>  <Genealogy>  (26) 
C=c1[nH]c(C)cc1=Cc1c([O-])[nH]c(=O)[n-]c1=O (protonated)
C=c1[nH]c(C)cc1=Cc1c([O-])[nH]c(=O)[n-]c1=O (3D coordinates assigned)
C=c1[nH]c(C)cc1=Cc1c([O-])[nH]c(=O)[n-]c1=O (optimized conformer: 61.938351774437734 kcal/mol)

>  <smiles>  (26) 
C=c1[nH]c(C)cc1=Cc1c(O)[nH]c(=O)[nH]c1=O

>  <score_type>  (26) 
oracle

>  <origin>  (26) 
adg

>  <m_score__min__energy>  (26) 
-11.890000000000001

>  <m_primary>  (26) 
energy

$$$$
26:0
     RDKit          3D

 47 49  0  0  0  0  0  0  0  0999 V2000
   55.1700   28.9950   44.5040 N   0  0  0  0  0  0  0  0  0  0  0  0
   56.0750   29.9120   43.8930 C   0  0  0  0  0  0  0  0  0  0  0  0
   56.0050   30.1070   42.6500 O   0  0  0  0  0  0  0  0  0  0  0  0
   57.0510   30.6580   44.7240 C   0  0  0  0  0  0  0  0  0  0  0  0
   57.2770   32.0110   44.4220 C   0  0  0  0  0  0  0  0  0  0  0  0
   58.2040   32.7630   45.1420 C   0  0  0  0  0  0  0  0  0  0  0  0
   58.9330   32.1850   46.1900 C   0  0  0  0  0  0  0  0  0  0  0  0
   59.9030   32.9600   46.9240 N   0  0  0  0  0  0  0  0  0  0  0  0
   59.6460   33.8370   47.9190 C   0  0  0  0  0  0  0  0  0  0  0  0
   60.8250   34.3870   48.3780 C   0  0  0  0  0  0  0  0  0  0  0  0
   61.8400   33.8260   47.6300 C   0  0  0  0  0  0  0  0  0  0  0  0
   61.2420   32.9530   46.7450 C   0  0  0  0  0  0  0  0  0  0  0  0
   58.7030   30.8390   46.5130 C   0  0  0  0  0  0  0  0  0  0  0  0
   57.7620   30.0640   45.8050 C   0  0  0  0  0  0  0  0  0  0  0  0
   57.5340   28.6930   46.2180 N   0  0  0  0  0  0  0  0  0  0  0  0
   58.7440   27.9330   46.4980 C   0  0  0  0  0  0  0  0  0  0  0  0
   59.6090   28.2800   47.5680 C   0  0  0  0  0  0  0  0  0  0  0  0
   60.7440   27.5200   47.8500 C   0  0  0  0  0  0  0  0  0  0  0  0
   61.0310   26.3850   47.1000 C   0  0  0  0  0  0  0  0  0  0  0  0
   60.1810   25.9970   46.0680 C   0  0  0  0  0  0  0  0  0  0  0  0
   59.0330   26.7500   45.7550 C   0  0  0  0  0  0  0  0  0  0  0  0
   58.1330   26.2490   44.6430 C   0  0  0  0  0  0  0  0  0  0  0  0
   57.6170   24.8180   44.8860 C   0  0  0  0  0  0  0  0  0  0  0  0
   56.0980   24.7320   45.1090 C   0  0  0  0  0  0  0  0  0  0  0  0
   55.5760   25.9110   45.8730 C   0  0  0  0  0  0  0  0  0  0  0  0
   54.3980   26.3130   45.6890 O   0  0  0  0  0  0  0  0  0  0  0  0
   56.3960   26.5750   46.7770 O   0  0  0  0  0  0  0  0  0  0  0  0
   55.5160   28.1200   44.9550 H   0  0  0  0  0  0  0  0  0  0  0  0
   56.7136   32.4846   43.6045 H   0  0  0  0  0  0  0  0  0  0  0  0
   58.3648   33.8204   44.8850 H   0  0  0  0  0  0  0  0  0  0  0  0
   58.6447   34.0770   48.3060 H   0  0  0  0  0  0  0  0  0  0  0  0
   60.9347   35.1283   49.1833 H   0  0  0  0  0  0  0  0  0  0  0  0
   62.9162   34.0344   47.7216 H   0  0  0  0  0  0  0  0  0  0  0  0
   61.7765   32.3415   46.0031 H   0  0  0  0  0  0  0  0  0  0  0  0
   59.2690   30.3787   47.3362 H   0  0  0  0  0  0  0  0  0  0  0  0
   56.9460   28.6820   47.0830 H   0  0  0  0  0  0  0  0  0  0  0  0
   56.9690   28.2230   45.4760 H   0  0  0  0  0  0  0  0  0  0  0  0
   59.3809   29.1620   48.1845 H   0  0  0  0  0  0  0  0  0  0  0  0
   61.4146   27.8197   48.6688 H   0  0  0  0  0  0  0  0  0  0  0  0
   61.9309   25.7928   47.3224 H   0  0  0  0  0  0  0  0  0  0  0  0
   60.4093   25.0899   45.4892 H   0  0  0  0  0  0  0  0  0  0  0  0
   57.2685   26.9242   44.5604 H   0  0  0  0  0  0  0  0  0  0  0  0
   58.7296   26.2316   43.7190 H   0  0  0  0  0  0  0  0  0  0  0  0
   57.8736   24.2041   44.0101 H   0  0  0  0  0  0  0  0  0  0  0  0
   58.0957   24.4588   45.8089 H   0  0  0  0  0  0  0  0  0  0  0  0
   55.5969   24.6925   44.1306 H   0  0  0  0  0  0  0  0  0  0  0  0
   55.8914   23.8263   45.6981 H   0  0  0  0  0  0  0  0  0  0  0  0
  1  2  1  0
  2  3  2  0
  2  4  1  0
  4  5  2  0
  5  6  1  0
  6  7  2  0
  7  8  1  0
  8  9  1  0
  9 10  2  0
 10 11  1  0
 11 12  2  0
  7 13  1  0
 13 14  2  0
 14 15  1  0
 15 16  1  0
 16 17  2  0
 17 18  1  0
 18 19  2  0
 19 20  1  0
 20 21  2  0
 21 22  1  0
 22 23  1  0
 23 24  1  0
 24 25  1  0
 25 26  2  0
 25 27  1  0
 14  4  1  0
 21 16  1  0
 12  8  1  0
  1 28  1  0
  5 29  1  0
  6 30  1  0
  9 31  1  0
 10 32  1  0
 11 33  1  0
 12 34  1  0
 13 35  1  0
 15 36  1  0
 15 37  1  0
 17 38  1  0
 18 39  1  0
 19 40  1  0
 20 41  1  0
 22 42  1  0
 22 43  1  0
 23 44  1  0
 23 45  1  0
 24 46  1  0
 24 47  1  0
M  CHG  3   1  -1  15   1  27  -1
M  END
>  <UniqueID>  (27) 
25

>  <SMILES>  (27) 
[NH-]C(=O)c1ccc(-n2cccc2)cc1[NH2+]c1ccccc1CCCC(=O)[O-]

>  <Energy>  (27) 
87.10513833941349

>  <Genealogy>  (27) 
[NH-]C(=O)c1ccc(-n2cccc2)cc1[NH2+]c1ccccc1CCCC(=O)[O-] (protonated)
[NH-]C(=O)c1ccc(-n2cccc2)cc1[NH2+]c1ccccc1CCCC(=O)[O-] (3D coordinates assigned)
[NH-]C(=O)c1ccc(-n2cccc2)cc1[NH2+]c1ccccc1CCCC(=O)[O-] (optimized conformer: 87.10513833941349 kcal/mol)

>  <smiles>  (27) 
NC(=O)c1ccc(-n2cccc2)cc1Nc1ccccc1CCCC(=O)O

>  <score_type>  (27) 
oracle

>  <origin>  (27) 
adg

>  <m_score__min__energy>  (27) 
-11.279999999999999

>  <m_primary>  (27) 
energy

$$$$
27:0
     RDKit          3D

 58 61  0  0  0  0  0  0  0  0999 V2000
   58.9360   25.7180   45.8710 C   0  0  0  0  0  0  0  0  0  0  0  0
   58.1980   26.9540   45.4620 C   0  0  0  0  0  0  0  0  0  0  0  0
   58.8500   27.9880   44.8590 N   0  0  0  0  0  0  0  0  0  0  0  0
   58.0210   29.0110   44.5670 C   0  0  0  0  0  0  0  0  0  0  0  0
   58.4330   30.0750   43.9440 N   0  0  0  0  0  0  0  0  0  0  0  0
   57.6260   31.1670   43.4800 C   0  0  0  0  0  0  0  0  0  0  0  0
   56.6320   30.9120   42.7460 O   0  0  0  0  0  0  0  0  0  0  0  0
   58.0600   32.5990   43.6540 C   0  0  0  0  0  0  0  0  0  0  0  0
   58.3940   32.9090   45.0910 C   0  0  0  0  0  0  0  0  0  0  0  0
   57.9720   32.0530   46.1200 C   0  0  0  0  0  0  0  0  0  0  0  0
   58.2720   32.3470   47.4540 C   0  0  0  0  0  0  0  0  0  0  0  0
   58.9960   33.5050   47.7820 C   0  0  0  0  0  0  0  0  0  0  0  0
   59.3080   33.8150   49.1970 C   0  0  0  0  0  0  0  0  0  0  0  0
   59.7390   34.9630   49.4950 O   0  0  0  0  0  0  0  0  0  0  0  0
   59.1080   32.8450   50.2420 N   0  0  0  0  0  0  0  0  0  0  0  0
   59.6190   31.4740   50.0980 C   0  0  0  0  0  0  0  0  0  0  0  0
   58.5950   30.4680   50.6420 C   0  0  0  0  0  0  0  0  0  0  0  0
   57.9820   30.9360   51.8950 N   0  0  0  0  0  0  0  0  0  0  0  0
   56.9350   30.1410   52.4870 C   0  0  0  0  0  0  0  0  0  0  0  0
   56.9630   28.8870   52.3430 O   0  0  0  0  0  0  0  0  0  0  0  0
   55.8060   30.7760   53.2780 C   0  0  1  0  0  0  0  0  0  0  0  0
   54.4470   30.4990   52.6880 C   0  0  0  0  0  0  0  0  0  0  0  0
   53.5340   30.4730   53.9030 C   0  0  0  0  0  0  0  0  0  0  0  0
   54.3090   30.3910   55.0790 O   0  0  0  0  0  0  0  0  0  0  0  0
   55.6480   30.2200   54.6860 C   0  0  0  0  0  0  0  0  0  0  0  0
   58.5040   32.1450   52.5460 C   0  0  0  0  0  0  0  0  0  0  0  0
   58.5730   33.2950   51.5350 C   0  0  0  0  0  0  0  0  0  0  0  0
   59.4500   34.3400   46.7470 C   0  0  0  0  0  0  0  0  0  0  0  0
   59.1450   34.0500   45.4150 C   0  0  0  0  0  0  0  0  0  0  0  0
   56.4340   28.6710   45.0190 S   0  0  0  0  0  0  0  0  0  0  0  0
   56.8220   27.1560   45.6440 C   0  0  0  0  0  0  0  0  0  0  0  0
   55.8410   26.2410   46.2530 C   0  0  0  0  0  0  0  0  0  0  0  0
   54.6140   26.3390   45.9890 O   0  0  0  0  0  0  0  0  0  0  0  0
   56.2700   25.2520   47.1310 O   0  0  0  0  0  0  0  0  0  0  0  0
   58.9715   25.6585   46.9688 H   0  0  0  0  0  0  0  0  0  0  0  0
   58.4183   24.8331   45.4724 H   0  0  0  0  0  0  0  0  0  0  0  0
   59.9606   25.7539   45.4724 H   0  0  0  0  0  0  0  0  0  0  0  0
   58.9505   32.7796   43.0340 H   0  0  0  0  0  0  0  0  0  0  0  0
   57.2278   33.2495   43.3470 H   0  0  0  0  0  0  0  0  0  0  0  0
   57.4015   31.1448   45.8757 H   0  0  0  0  0  0  0  0  0  0  0  0
   57.9387   31.6668   48.2516 H   0  0  0  0  0  0  0  0  0  0  0  0
   59.8042   31.2649   49.0341 H   0  0  0  0  0  0  0  0  0  0  0  0
   60.5551   31.3776   50.6676 H   0  0  0  0  0  0  0  0  0  0  0  0
   57.8043   30.3234   49.8911 H   0  0  0  0  0  0  0  0  0  0  0  0
   59.1201   29.5241   50.8499 H   0  0  0  0  0  0  0  0  0  0  0  0
   56.0931   31.8378   53.2643 H   0  0  0  0  0  0  0  0  0  0  0  0
   54.1510   31.2961   51.9902 H   0  0  0  0  0  0  0  0  0  0  0  0
   54.4136   29.5663   52.1058 H   0  0  0  0  0  0  0  0  0  0  0  0
   52.9303   31.3923   53.9264 H   0  0  0  0  0  0  0  0  0  0  0  0
   52.8714   29.5971   53.8418 H   0  0  0  0  0  0  0  0  0  0  0  0
   56.3107   30.7619   55.3767 H   0  0  0  0  0  0  0  0  0  0  0  0
   55.9160   29.1533   54.7052 H   0  0  0  0  0  0  0  0  0  0  0  0
   57.8393   32.4282   53.3755 H   0  0  0  0  0  0  0  0  0  0  0  0
   59.5140   31.9410   52.9311 H   0  0  0  0  0  0  0  0  0  0  0  0
   57.5608   33.6977   51.3822 H   0  0  0  0  0  0  0  0  0  0  0  0
   59.2456   34.0673   51.9365 H   0  0  0  0  0  0  0  0  0  0  0  0
   60.0507   35.2295   46.9877 H   0  0  0  0  0  0  0  0  0  0  0  0
   59.4952   34.7194   44.6155 H   0  0  0  0  0  0  0  0  0  0  0  0
  1  2  1  0
  2  3  1  0
  3  4  1  0
  4  5  2  3
  5  6  1  0
  6  7  2  0
  6  8  1  0
  8  9  1  0
  9 10  2  0
 10 11  1  0
 11 12  2  0
 12 13  1  0
 13 14  2  0
 13 15  1  0
 15 16  1  0
 16 17  1  0
 17 18  1  0
 18 19  1  0
 19 20  2  0
 19 21  1  0
 21 22  1  0
 22 23  1  0
 23 24  1  0
 24 25  1  0
 18 26  1  0
 26 27  1  0
 12 28  1  0
 28 29  2  0
  4 30  1  0
 30 31  1  0
 31 32  1  0
 32 33  2  0
 32 34  1  0
 31  2  2  0
 29  9  1  0
 27 15  1  0
 25 21  1  0
  1 35  1  0
  1 36  1  0
  1 37  1  0
  8 38  1  0
  8 39  1  0
 10 40  1  0
 11 41  1  0
 16 42  1  0
 16 43  1  0
 17 44  1  0
 17 45  1  0
 21 46  1  1
 22 47  1  0
 22 48  1  0
 23 49  1  0
 23 50  1  0
 25 51  1  0
 25 52  1  0
 26 53  1  0
 26 54  1  0
 27 55  1  0
 27 56  1  0
 28 57  1  0
 29 58  1  0
M  CHG  2   3  -1  34  -1
M  END
>  <UniqueID>  (28) 
26

>  <SMILES>  (28) 
Cc1[n-]c(=NC(=O)Cc2ccc(C(=O)N3CCN(C(=O)[C@H]4CCOC4)CC3)cc2)sc1C(=O)[O-]

>  <Energy>  (28) 
104.6162461319724

>  <Genealogy>  (28) 
Cc1[n-]c(=NC(=O)Cc2ccc(C(=O)N3CCN(C(=O)C4CCOC4)CC3)cc2)sc1C(=O)[O-] (protonated)
Cc1[n-]c(=NC(=O)Cc2ccc(C(=O)N3CCN(C(=O)[C@H]4CCOC4)CC3)cc2)sc1C(=O)[O-] (chirality)
Cc1[n-]c(=NC(=O)Cc2ccc(C(=O)N3CCN(C(=O)[C@H]4CCOC4)CC3)cc2)sc1C(=O)[O-] (3D coordinates assigned)
Cc1[n-]c(=NC(=O)Cc2ccc(C(=O)N3CCN(C(=O)[C@H]4CCOC4)CC3)cc2)sc1C(=O)[O-] (nonaromatic ring conformer: 104.6162461319724 kcal/mol)

>  <smiles>  (28) 
Cc1[nH]c(=NC(=O)Cc2ccc(C(=O)N3CCN(C(=O)C4CCOC4)CC3)cc2)sc1C(=O)O

>  <score_type>  (28) 
oracle

>  <origin>  (28) 
adg

>  <m_score__min__energy>  (28) 
-13.82

>  <m_primary>  (28) 
energy

$$$$
28:0
     RDKit          3D

 44 46  0  0  0  0  0  0  0  0999 V2000
   57.0250   33.8260   45.7040 C   0  0  0  0  0  0  0  0  0  0  0  0
   57.9640   33.7280   44.5110 C   0  0  0  0  0  0  0  0  0  0  0  0
   58.1050   32.3640   44.1300 O   0  0  0  0  0  0  0  0  0  0  0  0
   57.4890   31.3160   44.8180 C   0  0  0  0  0  0  0  0  0  0  0  0
   56.2730   31.0600   44.6090 O   0  0  0  0  0  0  0  0  0  0  0  0
   58.2640   30.5050   45.7870 C   0  0  0  0  0  0  0  0  0  0  0  0
   59.3890   30.9080   46.5210 C   0  0  0  0  0  0  0  0  0  0  0  0
   60.0140   32.2740   46.4520 C   0  0  0  0  0  0  0  0  0  0  0  0
   59.8260   29.8940   47.3180 N   0  0  0  0  0  0  0  0  0  0  0  0
   60.9500   29.9360   48.2660 C   0  0  0  0  0  0  0  0  0  0  0  0
   60.4530   29.8340   49.6860 C   0  0  0  0  0  0  0  0  0  0  0  0
   61.3430   29.5430   50.7340 C   0  0  0  0  0  0  0  0  0  0  0  0
   60.8770   29.4460   52.0480 C   0  0  0  0  0  0  0  0  0  0  0  0
   59.5210   29.6340   52.3280 C   0  0  0  0  0  0  0  0  0  0  0  0
   58.6230   29.9140   51.2890 C   0  0  0  0  0  0  0  0  0  0  0  0
   57.2670   30.0970   51.5530 O   0  0  0  0  0  0  0  0  0  0  0  0
   59.0880   30.0100   49.9730 C   0  0  0  0  0  0  0  0  0  0  0  0
   58.9820   28.8590   47.1020 C   0  0  0  0  0  0  0  0  0  0  0  0
   59.0020   27.5940   47.7010 C   0  0  0  0  0  0  0  0  0  0  0  0
   58.0200   26.6640   47.3280 C   0  0  0  0  0  0  0  0  0  0  0  0
   57.0330   26.9940   46.3690 C   0  0  0  0  0  0  0  0  0  0  0  0
   56.0080   25.9980   45.9850 C   0  0  0  0  0  0  0  0  0  0  0  0
   56.3410   24.8320   45.6480 O   0  0  0  0  0  0  0  0  0  0  0  0
   54.6600   26.3380   45.9920 O   0  0  0  0  0  0  0  0  0  0  0  0
   57.0370   28.2800   45.7840 C   0  0  0  0  0  0  0  0  0  0  0  0
   58.0240   29.1930   46.1740 C   0  0  0  0  0  0  0  0  0  0  0  0
   57.6075   33.7652   46.6351 H   0  0  0  0  0  0  0  0  0  0  0  0
   56.4875   34.7851   45.6697 H   0  0  0  0  0  0  0  0  0  0  0  0
   56.3010   32.9985   45.6697 H   0  0  0  0  0  0  0  0  0  0  0  0
   57.5495   34.3029   43.6697 H   0  0  0  0  0  0  0  0  0  0  0  0
   58.9482   34.1364   44.7841 H   0  0  0  0  0  0  0  0  0  0  0  0
   60.1862   32.6503   47.4712 H   0  0  0  0  0  0  0  0  0  0  0  0
   60.9732   32.2118   45.9172 H   0  0  0  0  0  0  0  0  0  0  0  0
   59.3398   32.9591   45.9172 H   0  0  0  0  0  0  0  0  0  0  0  0
   61.6283   29.0950   48.0595 H   0  0  0  0  0  0  0  0  0  0  0  0
   61.4800   30.8922   48.1444 H   0  0  0  0  0  0  0  0  0  0  0  0
   62.4110   29.3909   50.5191 H   0  0  0  0  0  0  0  0  0  0  0  0
   61.5796   29.2211   52.8640 H   0  0  0  0  0  0  0  0  0  0  0  0
   59.1583   29.5622   53.3640 H   0  0  0  0  0  0  0  0  0  0  0  0
   56.6340   29.3110   51.6460 H   0  0  0  0  0  0  0  0  0  0  0  0
   58.3813   30.2245   49.1578 H   0  0  0  0  0  0  0  0  0  0  0  0
   59.7689   27.3354   48.4460 H   0  0  0  0  0  0  0  0  0  0  0  0
   58.0172   25.6645   47.7873 H   0  0  0  0  0  0  0  0  0  0  0  0
   56.2794   28.5584   45.0367 H   0  0  0  0  0  0  0  0  0  0  0  0
  1  2  1  0
  2  3  1  0
  3  4  1  0
  4  5  2  0
  4  6  1  0
  6  7  2  0
  7  8  1  0
  7  9  1  0
  9 10  1  0
 10 11  1  0
 11 12  2  0
 12 13  1  0
 13 14  2  0
 14 15  1  0
 15 16  1  0
 15 17  2  0
  9 18  1  0
 18 19  2  0
 19 20  1  0
 20 21  2  0
 21 22  1  0
 22 23  2  0
 22 24  1  0
 21 25  1  0
 25 26  2  0
 26  6  1  0
 17 11  1  0
 26 18  1  0
  1 27  1  0
  1 28  1  0
  1 29  1  0
  2 30  1  0
  2 31  1  0
  8 32  1  0
  8 33  1  0
  8 34  1  0
 10 35  1  0
 10 36  1  0
 12 37  1  0
 13 38  1  0
 14 39  1  0
 16 40  1  0
 17 41  1  0
 19 42  1  0
 20 43  1  0
 25 44  1  0
M  CHG  1  24  -1
M  END
>  <UniqueID>  (29) 
27

>  <SMILES>  (29) 
CCOC(=O)c1c(C)n(Cc2cccc(O)c2)c2ccc(C(=O)[O-])cc12

>  <Energy>  (29) 
76.14639693196783

>  <Genealogy>  (29) 
CCOC(=O)c1c(C)n(Cc2cccc(O)c2)c2ccc(C(=O)[O-])cc12 (protonated)
CCOC(=O)c1c(C)n(Cc2cccc(O)c2)c2ccc(C(=O)[O-])cc12 (3D coordinates assigned)
CCOC(=O)c1c(C)n(Cc2cccc(O)c2)c2ccc(C(=O)[O-])cc12 (optimized conformer: 76.14639693196783 kcal/mol)

>  <smiles>  (29) 
CCOC(=O)c1c(C)n(Cc2cccc(O)c2)c2ccc(C(=O)O)cc12

>  <score_type>  (29) 
oracle

>  <origin>  (29) 
adg

>  <m_score__min__energy>  (29) 
-9.8499999999999996

>  <m_primary>  (29) 
energy

$$$$
29:0
     RDKit          3D

 42 45  0  0  0  0  0  0  0  0999 V2000
   58.1418   27.6450   48.3222 H   0  0  0  0  0  0  0  0  0  0  0  0
   58.8830   28.4190   48.0740 C   0  0  0  0  0  0  0  0  0  0  0  0
   59.0060   28.8630   46.7520 C   0  0  0  0  0  0  0  0  0  0  0  0
   58.1490   28.3010   45.7490 N   0  0  0  0  0  0  0  0  0  0  0  0
   56.7720   28.6400   45.5430 C   0  0  0  0  0  0  0  0  0  0  0  0
   55.9100   27.7250   45.6040 O   0  0  0  0  0  0  0  0  0  0  0  0
   56.4010   29.9960   45.2400 N   0  0  0  0  0  0  0  0  0  0  0  0
   56.9350   30.8590   44.4150 C   0  0  0  0  0  0  0  0  0  0  0  0
   56.8160   30.7430   43.0150 C   0  0  0  0  0  0  0  0  0  0  0  0
   56.2563   29.9025   42.5787 H   0  0  0  0  0  0  0  0  0  0  0  0
   57.4080   31.6940   42.1820 C   0  0  0  0  0  0  0  0  0  0  0  0
   57.3191   31.5927   41.0903 H   0  0  0  0  0  0  0  0  0  0  0  0
   58.0920   32.7420   42.7060 N   0  0  0  0  0  0  0  0  0  0  0  0
   58.5210   33.4320   42.0470 H   0  0  0  0  0  0  0  0  0  0  0  0
   58.2150   32.9110   44.0520 C   0  0  0  0  0  0  0  0  0  0  0  0
   58.9200   34.0140   44.5610 C   0  0  0  0  0  0  0  0  0  0  0  0
   59.3745   34.7391   43.8698 H   0  0  0  0  0  0  0  0  0  0  0  0
   59.0470   34.1950   45.9390 C   0  0  0  0  0  0  0  0  0  0  0  0
   59.6010   35.0612   46.3298 H   0  0  0  0  0  0  0  0  0  0  0  0
   58.4730   33.2800   46.8220 C   0  0  0  0  0  0  0  0  0  0  0  0
   58.5746   33.4280   47.9073 H   0  0  0  0  0  0  0  0  0  0  0  0
   57.7700   32.1770   46.3330 C   0  0  0  0  0  0  0  0  0  0  0  0
   57.3209   31.4605   47.0366 H   0  0  0  0  0  0  0  0  0  0  0  0
   57.6310   31.9740   44.9420 C   0  0  0  0  0  0  0  0  0  0  0  0
   59.9930   29.8110   46.4310 C   0  0  0  0  0  0  0  0  0  0  0  0
   60.1329   30.1220   45.3852 H   0  0  0  0  0  0  0  0  0  0  0  0
   60.8010   30.3630   47.4370 C   0  0  0  0  0  0  0  0  0  0  0  0
   61.7590   31.3420   47.1260 C   0  0  0  0  0  0  0  0  0  0  0  0
   61.8829   31.6754   46.0851 H   0  0  0  0  0  0  0  0  0  0  0  0
   62.5620   31.8990   48.1410 C   0  0  0  0  0  0  0  0  0  0  0  0
   63.5220   32.8880   47.8800 O   0  0  0  0  0  0  0  0  0  0  0  0
   63.4250   33.8480   46.8340 C   0  0  0  0  0  0  0  0  0  0  0  0
   63.3234   34.8538   47.2677 H   0  0  0  0  0  0  0  0  0  0  0  0
   64.3319   33.8064   46.2129 H   0  0  0  0  0  0  0  0  0  0  0  0
   62.5447   33.6258   46.2129 H   0  0  0  0  0  0  0  0  0  0  0  0
   62.4030   31.4590   49.4590 C   0  0  0  0  0  0  0  0  0  0  0  0
   63.0314   31.8867   50.2541 H   0  0  0  0  0  0  0  0  0  0  0  0
   61.4560   30.4830   49.7780 C   0  0  0  0  0  0  0  0  0  0  0  0
   61.3440   30.1474   50.8195 H   0  0  0  0  0  0  0  0  0  0  0  0
   60.6480   29.9300   48.7750 C   0  0  0  0  0  0  0  0  0  0  0  0
   59.6930   28.9500   49.0810 C   0  0  0  0  0  0  0  0  0  0  0  0
   59.5812   28.5981   50.1172 H   0  0  0  0  0  0  0  0  0  0  0  0
  1  2  1  0
  2  3  2  0
  3  4  1  0
  4  5  1  0
  5  6  2  0
  5  7  1  0
  7  8  2  0
  8  9  1  0
  9 10  1  0
  9 11  2  0
 11 12  1  0
 11 13  1  0
 13 14  1  0
 13 15  1  0
 15 16  2  0
 16 17  1  0
 16 18  1  0
 18 19  1  0
 18 20  2  0
 20 21  1  0
 20 22  1  0
 22 23  1  0
 22 24  2  0
  3 25  1  0
 25 26  1  0
 25 27  2  0
 27 28  1  0
 28 29  1  0
 28 30  2  0
 30 31  1  0
 31 32  1  0
 32 33  1  0
 32 34  1  0
 32 35  1  0
 30 36  1  0
 36 37  1  0
 36 38  2  0
 38 39  1  0
 38 40  1  0
 40 41  2  0
 41 42  1  0
 41  2  1  0
 24  8  1  0
 40 27  1  0
 24 15  1  0
M  CHG  1   4  -1
M  END
>  <UniqueID>  (30) 
28

>  <SMILES>  (30) 
COc1ccc2ccc([N-]C(=O)/N=c3\cc[nH]c4ccccc34)cc2c1

>  <Energy>  (30) 
64.08950476471621

>  <Genealogy>  (30) 
COc1ccc2ccc([N-]C(=O)N=c3cc[nH]c4ccccc34)cc2c1 (protonated)
COc1ccc2ccc([N-]C(=O)/N=c3\cc[nH]c4ccccc34)cc2c1 (cis-trans isomerization)
COc1ccc2ccc([N-]C(=O)/N=c3\cc[nH]c4ccccc34)cc2c1 (3D coordinates assigned)
COc1ccc2ccc([N-]C(=O)/N=c3\cc[nH]c4ccccc34)cc2c1 (optimized conformer: 64.08950476471621 kcal/mol)

>  <smiles>  (30) 
COc1ccc2ccc(NC(=O)N=c3cc[nH]c4ccccc34)cc2c1

>  <score_type>  (30) 
oracle

>  <origin>  (30) 
adg

>  <m_score__min__energy>  (30) 
-10.029999999999999

>  <m_primary>  (30) 
energy

$$$$
30:0
     RDKit          3D

 50 53  0  0  0  0  0  0  0  0999 V2000
   54.3510   29.4620   51.5890 C   0  0  0  0  0  0  0  0  0  0  0  0
   54.4210   29.8910   52.8600 C   0  0  0  0  0  0  0  0  0  0  0  0
   53.3690   30.4430   53.6130 C   0  0  0  0  0  0  0  0  0  0  0  0
   52.1430   30.8660   53.2460 C   0  0  0  0  0  0  0  0  0  0  0  0
   51.6660   31.0090   51.8610 C   0  0  0  0  0  0  0  0  0  0  0  0
   51.8820   30.1260   50.8710 N   0  0  0  0  0  0  0  0  0  0  0  0
   51.4010   30.7320   49.7660 C   0  0  0  0  0  0  0  0  0  0  0  0
   51.4240   30.1980   48.6260 O   0  0  0  0  0  0  0  0  0  0  0  0
   50.9060   31.9690   49.9870 N   0  0  0  0  0  0  0  0  0  0  0  0
   51.0950   32.1340   51.3100 C   0  0  0  0  0  0  0  0  0  0  0  0
   50.7590   33.2920   51.9990 O   0  0  0  0  0  0  0  0  0  0  0  0
   53.8280   30.5320   54.9130 C   0  0  0  0  0  0  0  0  0  0  0  0
   55.1390   30.1070   54.9060 C   0  0  0  0  0  0  0  0  0  0  0  0
   56.0360   30.1270   56.1070 C   0  0  0  0  0  0  0  0  0  0  0  0
   55.5090   29.7200   53.6620 N   0  0  0  0  0  0  0  0  0  0  0  0
   56.8570   29.2610   53.2830 C   0  0  0  0  0  0  0  0  0  0  0  0
   57.4510   30.1770   52.2440 C   0  0  0  0  0  0  0  0  0  0  0  0
   58.2590   29.6650   51.2230 C   0  0  0  0  0  0  0  0  0  0  0  0
   58.8300   30.5150   50.2730 C   0  0  0  0  0  0  0  0  0  0  0  0
   58.6060   31.9110   50.3130 C   0  0  0  0  0  0  0  0  0  0  0  0
   59.2050   32.8040   49.3240 N   0  0  0  0  0  0  0  0  0  0  0  0
   58.6260   32.8730   47.9640 C   0  0  0  0  0  0  0  0  0  0  0  0
   59.3960   33.7940   47.0140 C   0  0  0  0  0  0  0  0  0  0  0  0
   59.8640   34.9390   47.6850 O   0  0  0  0  0  0  0  0  0  0  0  0
   60.8700   34.5430   48.5860 C   0  0  0  0  0  0  0  0  0  0  0  0
   60.2790   33.7310   49.7420 C   0  0  0  0  0  0  0  0  0  0  0  0
   57.7880   32.4110   51.3540 C   0  0  0  0  0  0  0  0  0  0  0  0
   57.2200   31.5550   52.3000 C   0  0  0  0  0  0  0  0  0  0  0  0
   55.2437   29.0461   51.0989 H   0  0  0  0  0  0  0  0  0  0  0  0
   53.4010   29.5266   51.0382 H   0  0  0  0  0  0  0  0  0  0  0  0
   51.4390   31.1265   54.0501 H   0  0  0  0  0  0  0  0  0  0  0  0
   52.3510   29.1950   50.9320 H   0  0  0  0  0  0  0  0  0  0  0  0
   53.2560   30.8765   55.7872 H   0  0  0  0  0  0  0  0  0  0  0  0
   55.4248   30.1134   57.0214 H   0  0  0  0  0  0  0  0  0  0  0  0
   56.6907   29.2432   56.0904 H   0  0  0  0  0  0  0  0  0  0  0  0
   56.6507   31.0391   56.0904 H   0  0  0  0  0  0  0  0  0  0  0  0
   57.5022   29.2567   54.1739 H   0  0  0  0  0  0  0  0  0  0  0  0
   56.7839   28.2464   52.8644 H   0  0  0  0  0  0  0  0  0  0  0  0
   58.4464   28.5825   51.1679 H   0  0  0  0  0  0  0  0  0  0  0  0
   59.4645   30.0916   49.4805 H   0  0  0  0  0  0  0  0  0  0  0  0
   58.6207   31.8593   47.5368 H   0  0  0  0  0  0  0  0  0  0  0  0
   57.6134   33.2903   48.0662 H   0  0  0  0  0  0  0  0  0  0  0  0
   60.2542   33.2452   46.5990 H   0  0  0  0  0  0  0  0  0  0  0  0
   58.7159   34.1140   46.2108 H   0  0  0  0  0  0  0  0  0  0  0  0
   61.6084   33.9260   48.0530 H   0  0  0  0  0  0  0  0  0  0  0  0
   61.3480   35.4442   48.9976 H   0  0  0  0  0  0  0  0  0  0  0  0
   61.0864   33.1431   50.2029 H   0  0  0  0  0  0  0  0  0  0  0  0
   59.8312   34.4485   50.4453 H   0  0  0  0  0  0  0  0  0  0  0  0
   57.5963   33.4922   51.4191 H   0  0  0  0  0  0  0  0  0  0  0  0
   56.5847   31.9688   53.0970 H   0  0  0  0  0  0  0  0  0  0  0  0
  1  2  2  0
  2  3  1  0
  3  4  2  3
  4  5  1  0
  5  6  1  0
  6  7  1  0
  7  8  2  0
  7  9  1  0
  9 10  1  0
 10 11  1  0
  3 12  1  0
 12 13  2  0
 13 14  1  0
 13 15  1  0
 15 16  1  0
 16 17  1  0
 17 18  2  0
 18 19  1  0
 19 20  2  0
 20 21  1  0
 21 22  1  0
 22 23  1  0
 23 24  1  0
 24 25  1  0
 25 26  1  0
 20 27  1  0
 27 28  2  0
 15  2  1  0
 28 17  1  0
 10  5  2  0
 26 21  1  0
  1 29  1  0
  1 30  1  0
  4 31  1  0
  6 32  1  0
 12 33  1  0
 14 34  1  0
 14 35  1  0
 14 36  1  0
 16 37  1  0
 16 38  1  0
 18 39  1  0
 19 40  1  0
 22 41  1  0
 22 42  1  0
 23 43  1  0
 23 44  1  0
 25 45  1  0
 25 46  1  0
 26 47  1  0
 26 48  1  0
 27 49  1  0
 28 50  1  0
M  CHG  2   9  -1  11  -1
M  END
>  <UniqueID>  (31) 
29

>  <SMILES>  (31) 
C=c1c(=Cc2[nH]c(=O)[n-]c2[O-])cc(C)n1Cc1ccc(N2CCOCC2)cc1

>  <Energy>  (31) 
130.68330285390206

>  <Genealogy>  (31) 
C=c1c(=Cc2[nH]c(=O)[n-]c2[O-])cc(C)n1Cc1ccc(N2CCOCC2)cc1 (protonated)
C=c1c(=Cc2[nH]c(=O)[n-]c2[O-])cc(C)n1Cc1ccc(N2CCOCC2)cc1 (3D coordinates assigned)
C=c1c(=Cc2[nH]c(=O)[n-]c2[O-])cc(C)n1Cc1ccc(N2CCOCC2)cc1 (nonaromatic ring conformer: 130.68330285390206 kcal/mol)

>  <smiles>  (31) 
C=c1c(=Cc2[nH]c(=O)[nH]c2O)cc(C)n1Cc1ccc(N2CCOCC2)cc1

>  <score_type>  (31) 
oracle

>  <origin>  (31) 
adg

>  <m_score__min__energy>  (31) 
-14.539999999999999

>  <m_primary>  (31) 
energy

$$$$
31:0
     RDKit          3D

 38 39  0  0  0  0  0  0  0  0999 V2000
   55.0370   26.1390   46.0030 N   0  0  0  0  0  0  0  0  0  0  0  0
   56.3950   25.8260   45.7030 C   0  0  0  0  0  0  0  0  0  0  0  0
   56.7900   24.6340   45.8070 O   0  0  0  0  0  0  0  0  0  0  0  0
   57.3120   26.9000   45.1740 C   0  0  2  0  0  0  0  0  0  0  0  0
   58.8070   26.6790   45.5080 C   0  0  0  0  0  0  0  0  0  0  0  0
   59.3950   27.8410   46.2730 C   0  0  0  0  0  0  0  0  0  0  0  0
   59.1680   27.9610   47.6540 C   0  0  0  0  0  0  0  0  0  0  0  0
   59.7010   29.0400   48.3660 C   0  0  0  0  0  0  0  0  0  0  0  0
   60.4660   30.0080   47.7080 C   0  0  0  0  0  0  0  0  0  0  0  0
   60.9900   31.0780   48.4300 O   0  0  0  0  0  0  0  0  0  0  0  0
   60.6980   29.8930   46.3300 C   0  0  0  0  0  0  0  0  0  0  0  0
   60.1660   28.8160   45.6160 C   0  0  0  0  0  0  0  0  0  0  0  0
   56.8600   28.2310   45.5920 N   0  0  0  0  0  0  0  0  0  0  0  0
   56.3910   29.3480   44.8190 C   0  0  0  0  0  0  0  0  0  0  0  0
   55.1590   29.6120   44.8520 O   0  0  0  0  0  0  0  0  0  0  0  0
   57.2770   30.2070   43.9490 C   0  0  0  0  0  0  0  0  0  0  0  0
   57.6800   31.5030   44.6110 C   0  0  0  0  0  0  0  0  0  0  0  0
   57.8080   31.5610   46.0100 C   0  0  0  0  0  0  0  0  0  0  0  0
   58.1970   32.7470   46.6390 C   0  0  0  0  0  0  0  0  0  0  0  0
   58.4840   33.8810   45.8790 C   0  0  0  0  0  0  0  0  0  0  0  0
   58.3980   33.8280   44.4860 C   0  0  0  0  0  0  0  0  0  0  0  0
   58.0110   32.6450   43.8480 C   0  0  0  0  0  0  0  0  0  0  0  0
   57.9650   32.6120   42.4580 O   0  0  0  0  0  0  0  0  0  0  0  0
   54.7780   27.0700   46.4010 H   0  0  0  0  0  0  0  0  0  0  0  0
   57.2481   26.8323   44.0779 H   0  0  0  0  0  0  0  0  0  0  0  0
   58.9037   25.7680   46.1168 H   0  0  0  0  0  0  0  0  0  0  0  0
   59.3561   26.5847   44.5595 H   0  0  0  0  0  0  0  0  0  0  0  0
   58.5680   27.2024   48.1779 H   0  0  0  0  0  0  0  0  0  0  0  0
   59.5179   29.1276   49.4471 H   0  0  0  0  0  0  0  0  0  0  0  0
   61.9770   31.3050   48.3970 H   0  0  0  0  0  0  0  0  0  0  0  0
   61.3002   30.6524   45.8097 H   0  0  0  0  0  0  0  0  0  0  0  0
   60.3513   28.7307   44.5351 H   0  0  0  0  0  0  0  0  0  0  0  0
   58.1877   29.6390   43.7080 H   0  0  0  0  0  0  0  0  0  0  0  0
   56.7014   30.4642   43.0476 H   0  0  0  0  0  0  0  0  0  0  0  0
   57.6003   30.6657   46.6144 H   0  0  0  0  0  0  0  0  0  0  0  0
   58.2770   32.7863   47.7354 H   0  0  0  0  0  0  0  0  0  0  0  0
   58.7780   34.8168   46.3768 H   0  0  0  0  0  0  0  0  0  0  0  0
   58.6356   34.7203   43.8882 H   0  0  0  0  0  0  0  0  0  0  0  0
  1  2  1  0
  2  3  2  0
  2  4  1  0
  4  5  1  0
  5  6  1  0
  6  7  2  0
  7  8  1  0
  8  9  2  0
  9 10  1  0
  9 11  1  0
 11 12  2  0
  4 13  1  0
 13 14  1  0
 14 15  2  0
 14 16  1  0
 16 17  1  0
 17 18  2  0
 18 19  1  0
 19 20  2  0
 20 21  1  0
 21 22  2  0
 22 23  1  0
 12  6  1  0
 22 17  1  0
  1 24  1  0
  4 25  1  6
  5 26  1  0
  5 27  1  0
  7 28  1  0
  8 29  1  0
 10 30  1  0
 11 31  1  0
 12 32  1  0
 16 33  1  0
 16 34  1  0
 18 35  1  0
 19 36  1  0
 20 37  1  0
 21 38  1  0
M  CHG  3   1  -1  13  -1  23  -1
M  END
>  <UniqueID>  (32) 
30

>  <SMILES>  (32) 
[NH-]C(=O)[C@H](Cc1ccc(O)cc1)[N-]C(=O)Cc1ccccc1[O-]

>  <Energy>  (32) 
39.286636841119694

>  <Genealogy>  (32) 
[NH-]C(=O)C(Cc1ccc(O)cc1)[N-]C(=O)Cc1ccccc1[O-] (protonated)
[NH-]C(=O)[C@H](Cc1ccc(O)cc1)[N-]C(=O)Cc1ccccc1[O-] (chirality)
[NH-]C(=O)[C@H](Cc1ccc(O)cc1)[N-]C(=O)Cc1ccccc1[O-] (3D coordinates assigned)
[NH-]C(=O)[C@H](Cc1ccc(O)cc1)[N-]C(=O)Cc1ccccc1[O-] (optimized conformer: 39.286636841119694 kcal/mol)

>  <smiles>  (32) 
NC(=O)C(Cc1ccc(O)cc1)NC(=O)Cc1ccccc1O

>  <score_type>  (32) 
oracle

>  <origin>  (32) 
adg

>  <m_score__min__energy>  (32) 
-15.25

>  <m_primary>  (32) 
energy

$$$$
32:0
     RDKit          3D

 64 68  0  0  0  0  0  0  0  0999 V2000
   58.1740   30.5110   54.1840 O   0  0  0  0  0  0  0  0  0  0  0  0
   57.5800   30.8710   53.1310 C   0  0  0  0  0  0  0  0  0  0  0  0
   58.1930   31.9050   52.2610 C   0  0  0  0  0  0  0  0  0  0  0  0
   58.2830   33.2400   52.6920 C   0  0  0  0  0  0  0  0  0  0  0  0
   58.8740   34.2060   51.8760 C   0  0  0  0  0  0  0  0  0  0  0  0
   59.3900   33.8520   50.6280 C   0  0  0  0  0  0  0  0  0  0  0  0
   59.3120   32.5250   50.1800 C   0  0  0  0  0  0  0  0  0  0  0  0
   59.8750   32.1400   48.8280 C   0  0  0  0  0  0  0  0  0  0  0  0
   59.2330   32.8280   47.6880 N   0  0  0  0  0  0  0  0  0  0  0  0
   59.8310   34.1410   47.3830 C   0  0  0  0  0  0  0  0  0  0  0  0
   59.1040   34.8330   46.2070 C   0  0  0  0  0  0  0  0  0  0  0  0
   58.1470   33.9410   45.5180 N   0  0  0  0  0  0  0  0  0  0  0  0
   58.8160   32.9140   44.6870 C   0  0  0  0  0  0  0  0  0  0  0  0
   58.1350   31.5830   44.8660 C   0  0  0  0  0  0  0  0  0  0  0  0
   58.6950   30.6000   45.7010 C   0  0  0  0  0  0  0  0  0  0  0  0
   58.0710   29.3560   45.8380 C   0  0  0  0  0  0  0  0  0  0  0  0
   56.8870   29.0850   45.1480 C   0  0  0  0  0  0  0  0  0  0  0  0
   56.3230   30.0540   44.3110 C   0  0  0  0  0  0  0  0  0  0  0  0
   55.1470   29.7670   43.6230 O   0  0  0  0  0  0  0  0  0  0  0  0
   56.9490   31.3010   44.1690 C   0  0  0  0  0  0  0  0  0  0  0  0
   57.1530   33.3780   46.4640 C   0  0  0  0  0  0  0  0  0  0  0  0
   57.7710   32.9260   47.8060 C   0  0  0  0  0  0  0  0  0  0  0  0
   58.7220   31.5530   51.0070 C   0  0  0  0  0  0  0  0  0  0  0  0
   56.3040   30.2920   52.8130 N   0  0  0  0  0  0  0  0  0  0  0  0
   55.8230   29.1610   53.6280 C   0  0  0  0  0  0  0  0  0  0  0  0
   54.4790   28.5940   53.1330 C   0  0  0  0  0  0  0  0  0  0  0  0
   53.5570   29.6950   52.6850 C   0  0  0  0  0  0  0  0  0  0  0  0
   52.1800   29.6430   52.9470 C   0  0  0  0  0  0  0  0  0  0  0  0
   51.3390   30.6560   52.4750 C   0  0  0  0  0  0  0  0  0  0  0  0
   51.8660   31.7170   51.7300 C   0  0  0  0  0  0  0  0  0  0  0  0
   51.0280   32.7220   51.2650 O   0  0  0  0  0  0  0  0  0  0  0  0
   53.2370   31.7650   51.4540 C   0  0  0  0  0  0  0  0  0  0  0  0
   54.0850   30.7560   51.9320 C   0  0  0  0  0  0  0  0  0  0  0  0
   55.5570   30.7610   51.6360 C   0  0  0  0  0  0  0  0  0  0  0  0
   57.8856   33.5248   53.6774 H   0  0  0  0  0  0  0  0  0  0  0  0
   58.9334   35.2500   52.2175 H   0  0  0  0  0  0  0  0  0  0  0  0
   59.8600   34.6174   49.9929 H   0  0  0  0  0  0  0  0  0  0  0  0
   60.9477   32.3835   48.8186 H   0  0  0  0  0  0  0  0  0  0  0  0
   59.6818   31.0648   48.6988 H   0  0  0  0  0  0  0  0  0  0  0  0
   59.7605   34.7820   48.2742 H   0  0  0  0  0  0  0  0  0  0  0  0
   60.8815   33.9846   47.0965 H   0  0  0  0  0  0  0  0  0  0  0  0
   58.5550   35.7029   46.5967 H   0  0  0  0  0  0  0  0  0  0  0  0
   59.8687   35.1271   45.4730 H   0  0  0  0  0  0  0  0  0  0  0  0
   58.7636   33.2107   43.6291 H   0  0  0  0  0  0  0  0  0  0  0  0
   59.8674   32.8264   44.9982 H   0  0  0  0  0  0  0  0  0  0  0  0
   59.6261   30.8100   46.2477 H   0  0  0  0  0  0  0  0  0  0  0  0
   58.5136   28.5891   46.4907 H   0  0  0  0  0  0  0  0  0  0  0  0
   56.3967   28.1070   45.2630 H   0  0  0  0  0  0  0  0  0  0  0  0
   55.1620   29.4270   42.6680 H   0  0  0  0  0  0  0  0  0  0  0  0
   56.5086   32.0621   43.5082 H   0  0  0  0  0  0  0  0  0  0  0  0
   56.3941   34.1469   46.6710 H   0  0  0  0  0  0  0  0  0  0  0  0
   56.7211   32.4852   45.9882 H   0  0  0  0  0  0  0  0  0  0  0  0
   57.5184   33.6586   48.5867 H   0  0  0  0  0  0  0  0  0  0  0  0
   57.3667   31.9379   48.0709 H   0  0  0  0  0  0  0  0  0  0  0  0
   58.6739   30.5071   50.6696 H   0  0  0  0  0  0  0  0  0  0  0  0
   56.5756   28.3594   53.5948 H   0  0  0  0  0  0  0  0  0  0  0  0
   55.6670   29.5342   54.6509 H   0  0  0  0  0  0  0  0  0  0  0  0
   54.6652   27.9155   52.2875 H   0  0  0  0  0  0  0  0  0  0  0  0
   54.0006   28.0551   53.9641 H   0  0  0  0  0  0  0  0  0  0  0  0
   51.7614   28.8052   53.5239 H   0  0  0  0  0  0  0  0  0  0  0  0
   50.2608   30.6186   52.6899 H   0  0  0  0  0  0  0  0  0  0  0  0
   53.6497   32.5949   50.8616 H   0  0  0  0  0  0  0  0  0  0  0  0
   55.7605   30.0944   50.7850 H   0  0  0  0  0  0  0  0  0  0  0  0
   55.8741   31.7850   51.3892 H   0  0  0  0  0  0  0  0  0  0  0  0
  1  2  2  0
  2  3  1  0
  3  4  2  0
  4  5  1  0
  5  6  2  0
  6  7  1  0
  7  8  1  0
  8  9  1  0
  9 10  1  0
 10 11  1  0
 11 12  1  0
 12 13  1  0
 13 14  1  0
 14 15  2  0
 15 16  1  0
 16 17  2  0
 17 18  1  0
 18 19  1  0
 18 20  2  0
 12 21  1  0
 21 22  1  0
  7 23  2  0
  2 24  1  0
 24 25  1  0
 25 26  1  0
 26 27  1  0
 27 28  2  0
 28 29  1  0
 29 30  2  0
 30 31  1  0
 30 32  1  0
 32 33  2  0
 33 34  1  0
 23  3  1  0
 34 24  1  0
 22  9  1  0
 33 27  1  0
 20 14  1  0
  4 35  1  0
  5 36  1  0
  6 37  1  0
  8 38  1  0
  8 39  1  0
 10 40  1  0
 10 41  1  0
 11 42  1  0
 11 43  1  0
 13 44  1  0
 13 45  1  0
 15 46  1  0
 16 47  1  0
 17 48  1  0
 19 49  1  0
 20 50  1  0
 21 51  1  0
 21 52  1  0
 22 53  1  0
 22 54  1  0
 23 55  1  0
 25 56  1  0
 25 57  1  0
 26 58  1  0
 26 59  1  0
 28 60  1  0
 29 61  1  0
 32 62  1  0
 34 63  1  0
 34 64  1  0
M  CHG  1  31  -1
M  END
>  <UniqueID>  (33) 
31

>  <SMILES>  (33) 
O=C(c1cccc(CN2CCN(Cc3cccc(O)c3)CC2)c1)N1CCc2ccc([O-])cc2C1

>  <Energy>  (33) 
90.39367390471557

>  <Genealogy>  (33) 
O=C(c1cccc(CN2CCN(Cc3cccc(O)c3)CC2)c1)N1CCc2ccc([O-])cc2C1 (protonated)
O=C(c1cccc(CN2CCN(Cc3cccc(O)c3)CC2)c1)N1CCc2ccc([O-])cc2C1 (3D coordinates assigned)
O=C(c1cccc(CN2CCN(Cc3cccc(O)c3)CC2)c1)N1CCc2ccc([O-])cc2C1 (nonaromatic ring conformer: 90.39367390471557 kcal/mol)

>  <smiles>  (33) 
O=C(c1cccc(CN2CCN(Cc3cccc(O)c3)CC2)c1)N1CCc2ccc(O)cc2C1

>  <score_type>  (33) 
oracle

>  <origin>  (33) 
adg

>  <m_score__min__energy>  (33) 
-15.56

>  <m_primary>  (33) 
energy

$$$$
33:0
     RDKit          3D

 58 60  0  0  0  0  0  0  0  0999 V2000
   57.3430   30.9880   42.6280 C   0  0  0  0  0  0  0  0  0  0  0  0
   56.4210   29.8240   42.9970 C   0  0  0  0  0  0  0  0  0  0  0  0
   55.4450   30.1720   44.1250 C   0  0  0  0  0  0  0  0  0  0  0  0
   57.1760   28.5920   43.2710 N   0  0  0  0  0  0  0  0  0  0  0  0
   57.8950   28.2480   44.4740 C   0  0  0  0  0  0  0  0  0  0  0  0
   59.2890   28.4280   44.4980 C   0  0  0  0  0  0  0  0  0  0  0  0
   60.0270   28.1440   45.6490 C   0  0  0  0  0  0  0  0  0  0  0  0
   59.3890   27.6690   46.8020 C   0  0  0  0  0  0  0  0  0  0  0  0
   60.1820   27.4440   48.0600 C   0  0  0  0  0  0  0  0  0  0  0  0
   60.5450   28.7260   48.6520 N   0  0  0  0  0  0  0  0  0  0  0  0
   59.7630   29.9130   48.4820 C   0  0  0  0  0  0  0  0  0  0  0  0
   58.8000   30.1540   49.2600 O   0  0  0  0  0  0  0  0  0  0  0  0
   60.1040   30.8340   47.4380 N   0  0  0  0  0  0  0  0  0  0  0  0
   59.1980   31.8320   46.9340 C   0  0  0  0  0  0  0  0  0  0  0  0
   58.3390   31.5320   45.8600 C   0  0  0  0  0  0  0  0  0  0  0  0
   57.5030   32.5150   45.3210 C   0  0  0  0  0  0  0  0  0  0  0  0
   57.5390   33.8130   45.8220 C   0  0  0  0  0  0  0  0  0  0  0  0
   58.4020   34.1360   46.8700 C   0  0  0  0  0  0  0  0  0  0  0  0
   59.2250   33.1530   47.4430 C   0  0  0  0  0  0  0  0  0  0  0  0
   60.1150   33.5360   48.5570 C   0  0  0  0  0  0  0  0  0  0  0  0
   59.6210   33.6430   49.7120 O   0  0  0  0  0  0  0  0  0  0  0  0
   61.5300   33.7460   48.3520 N   0  0  0  0  0  0  0  0  0  0  0  0
   62.2230   33.0840   47.2350 C   0  0  0  0  0  0  0  0  0  0  0  0
   63.7470   33.2170   47.3590 C   0  0  0  0  0  0  0  0  0  0  0  0
   64.2020   32.9000   48.7880 C   0  0  0  0  0  0  0  0  0  0  0  0
   63.4840   33.7570   49.8560 C   0  0  0  0  0  0  0  0  0  0  0  0
   62.3030   34.5650   49.2970 C   0  0  0  0  0  0  0  0  0  0  0  0
   57.9990   27.4950   46.7900 C   0  0  0  0  0  0  0  0  0  0  0  0
   57.2560   27.7850   45.6390 C   0  0  0  0  0  0  0  0  0  0  0  0
   57.7192   31.4630   43.5461 H   0  0  0  0  0  0  0  0  0  0  0  0
   58.1903   30.6112   42.0363 H   0  0  0  0  0  0  0  0  0  0  0  0
   56.7823   31.7266   42.0363 H   0  0  0  0  0  0  0  0  0  0  0  0
   55.7988   29.6287   42.1112 H   0  0  0  0  0  0  0  0  0  0  0  0
   55.9308   29.9988   45.0966 H   0  0  0  0  0  0  0  0  0  0  0  0
   55.1533   31.2295   44.0442 H   0  0  0  0  0  0  0  0  0  0  0  0
   54.5500   29.5376   44.0442 H   0  0  0  0  0  0  0  0  0  0  0  0
   57.0420   27.8240   42.5710 H   0  0  0  0  0  0  0  0  0  0  0  0
   59.8047   28.7970   43.5992 H   0  0  0  0  0  0  0  0  0  0  0  0
   61.1167   28.2943   45.6502 H   0  0  0  0  0  0  0  0  0  0  0  0
   59.5755   26.8700   48.7760 H   0  0  0  0  0  0  0  0  0  0  0  0
   61.0973   26.8846   47.8167 H   0  0  0  0  0  0  0  0  0  0  0  0
   61.0650   30.7730   47.0360 H   0  0  0  0  0  0  0  0  0  0  0  0
   58.3252   30.5151   45.4408 H   0  0  0  0  0  0  0  0  0  0  0  0
   56.8160   32.2620   44.5000 H   0  0  0  0  0  0  0  0  0  0  0  0
   56.8858   34.5860   45.3909 H   0  0  0  0  0  0  0  0  0  0  0  0
   58.4378   35.1677   47.2498 H   0  0  0  0  0  0  0  0  0  0  0  0
   61.9567   32.0167   47.2316 H   0  0  0  0  0  0  0  0  0  0  0  0
   61.9097   33.5694   46.2989 H   0  0  0  0  0  0  0  0  0  0  0  0
   64.2289   32.5154   46.6622 H   0  0  0  0  0  0  0  0  0  0  0  0
   64.0335   34.2511   47.1169 H   0  0  0  0  0  0  0  0  0  0  0  0
   63.9964   31.8392   48.9939 H   0  0  0  0  0  0  0  0  0  0  0  0
   65.2759   33.1303   48.8496 H   0  0  0  0  0  0  0  0  0  0  0  0
   63.1071   33.0883   50.6440 H   0  0  0  0  0  0  0  0  0  0  0  0
   64.2189   34.4797   50.2403 H   0  0  0  0  0  0  0  0  0  0  0  0
   61.6507   34.8762   50.1262 H   0  0  0  0  0  0  0  0  0  0  0  0
   62.6903   35.4503   48.7715 H   0  0  0  0  0  0  0  0  0  0  0  0
   57.4872   27.1277   47.6918 H   0  0  0  0  0  0  0  0  0  0  0  0
   56.1644   27.6498   45.6457 H   0  0  0  0  0  0  0  0  0  0  0  0
  1  2  1  0
  2  3  1  0
  2  4  1  0
  4  5  1  0
  5  6  2  0
  6  7  1  0
  7  8  2  0
  8  9  1  0
  9 10  1  0
 10 11  1  0
 11 12  2  0
 11 13  1  0
 13 14  1  0
 14 15  2  0
 15 16  1  0
 16 17  2  0
 17 18  1  0
 18 19  2  0
 19 20  1  0
 20 21  2  0
 20 22  1  0
 22 23  1  0
 23 24  1  0
 24 25  1  0
 25 26  1  0
 26 27  1  0
  8 28  1  0
 28 29  2  0
 29  5  1  0
 19 14  1  0
 27 22  1  0
  1 30  1  0
  1 31  1  0
  1 32  1  0
  2 33  1  0
  3 34  1  0
  3 35  1  0
  3 36  1  0
  4 37  1  0
  6 38  1  0
  7 39  1  0
  9 40  1  0
  9 41  1  0
 13 42  1  0
 15 43  1  0
 16 44  1  0
 17 45  1  0
 18 46  1  0
 23 47  1  0
 23 48  1  0
 24 49  1  0
 24 50  1  0
 25 51  1  0
 25 52  1  0
 26 53  1  0
 26 54  1  0
 27 55  1  0
 27 56  1  0
 28 57  1  0
 29 58  1  0
M  CHG  1  10  -1
M  END
>  <UniqueID>  (34) 
32

>  <SMILES>  (34) 
CC(C)Nc1ccc(C[N-]C(=O)Nc2ccccc2C(=O)N2CCCCC2)cc1

>  <Energy>  (34) 
67.88838870891932

>  <Genealogy>  (34) 
CC(C)Nc1ccc(C[N-]C(=O)Nc2ccccc2C(=O)N2CCCCC2)cc1 (protonated)
CC(C)Nc1ccc(C[N-]C(=O)Nc2ccccc2C(=O)N2CCCCC2)cc1 (3D coordinates assigned)
CC(C)Nc1ccc(C[N-]C(=O)Nc2ccccc2C(=O)N2CCCCC2)cc1 (nonaromatic ring conformer: 67.88838870891932 kcal/mol)

>  <smiles>  (34) 
CC(C)Nc1ccc(CNC(=O)Nc2ccccc2C(=O)N2CCCCC2)cc1

>  <score_type>  (34) 
oracle

>  <origin>  (34) 
adg

>  <m_score__min__energy>  (34) 
-10.75

>  <m_primary>  (34) 
energy

$$$$
34:0
     RDKit          3D

 43 45  0  0  0  0  0  0  0  0999 V2000
   59.9090   36.3920   45.9850 N   0  0  0  0  0  0  0  0  0  0  0  0
   59.6170   35.2560   46.7950 C   0  0  0  0  0  0  0  0  0  0  0  0
   60.4820   34.8180   47.5990 O   0  0  0  0  0  0  0  0  0  0  0  0
   58.3020   34.5580   46.6560 C   0  0  0  0  0  0  0  0  0  0  0  0
   58.5140   33.1400   46.2060 C   0  0  0  0  0  0  0  0  0  0  0  0
   58.1780   32.7550   44.8990 C   0  0  0  0  0  0  0  0  0  0  0  0
   58.4090   31.4460   44.4660 C   0  0  0  0  0  0  0  0  0  0  0  0
   58.9940   30.5050   45.3350 C   0  0  0  0  0  0  0  0  0  0  0  0
   59.2490   29.1810   44.9420 O   0  0  0  0  0  0  0  0  0  0  0  0
   58.5190   28.0770   45.3930 C   0  0  0  0  0  0  0  0  0  0  0  0
   59.2030   27.0640   46.0710 C   0  0  0  0  0  0  0  0  0  0  0  0
   58.5130   25.9800   46.6140 C   0  0  0  0  0  0  0  0  0  0  0  0
   57.1190   25.8910   46.4800 C   0  0  0  0  0  0  0  0  0  0  0  0
   56.3550   24.8170   47.0500 N   0  0  0  0  0  0  0  0  0  0  0  0
   56.7320   23.1220   47.0010 S   0  0  0  0  0  0  0  0  0  0  0  0
   56.9440   22.5830   48.3890 O   0  0  0  0  0  0  0  0  0  0  0  0
   58.0100   22.9480   46.2300 O   0  0  0  0  0  0  0  0  0  0  0  0
   55.4470   22.2100   46.1580 C   0  0  0  0  0  0  0  0  0  0  0  0
   55.7180   22.1210   44.6920 C   0  0  0  0  0  0  0  0  0  0  0  0
   56.2250   21.0370   44.0780 N   0  0  0  0  0  0  0  0  0  0  0  0
   56.2660   21.3690   42.7990 N   0  0  0  0  0  0  0  0  0  0  0  0
   55.7990   22.5980   42.6380 N   0  0  0  0  0  0  0  0  0  0  0  0
   55.4430   23.0980   43.8100 N   0  0  0  0  0  0  0  0  0  0  0  0
   56.4380   26.8800   45.7610 C   0  0  0  0  0  0  0  0  0  0  0  0
   57.1210   27.9730   45.1980 C   0  0  0  0  0  0  0  0  0  0  0  0
   56.3630   28.9670   44.4000 C   0  0  0  0  0  0  0  0  0  0  0  0
   55.1410   29.5160   44.8890 N   0  0  0  0  0  0  0  0  0  0  0  0
   56.8130   29.3620   43.2910 O   0  0  0  0  0  0  0  0  0  0  0  0
   59.3290   30.8920   46.6370 C   0  0  0  0  0  0  0  0  0  0  0  0
   59.0990   32.2010   47.0700 C   0  0  0  0  0  0  0  0  0  0  0  0
   59.7630   37.3600   46.3490 H   0  0  0  0  0  0  0  0  0  0  0  0
   57.7859   34.5579   47.6274 H   0  0  0  0  0  0  0  0  0  0  0  0
   57.6922   35.0854   45.9077 H   0  0  0  0  0  0  0  0  0  0  0  0
   57.7303   33.4875   44.2112 H   0  0  0  0  0  0  0  0  0  0  0  0
   58.1329   31.1501   43.4431 H   0  0  0  0  0  0  0  0  0  0  0  0
   60.2963   27.1221   46.1775 H   0  0  0  0  0  0  0  0  0  0  0  0
   59.0636   25.1922   47.1491 H   0  0  0  0  0  0  0  0  0  0  0  0
   55.3961   21.1936   46.5754 H   0  0  0  0  0  0  0  0  0  0  0  0
   54.4933   22.7384   46.3036 H   0  0  0  0  0  0  0  0  0  0  0  0
   55.3482   26.8010   45.6339 H   0  0  0  0  0  0  0  0  0  0  0  0
   54.8080   29.3070   45.8560 H   0  0  0  0  0  0  0  0  0  0  0  0
   59.7770   30.1603   47.3255 H   0  0  0  0  0  0  0  0  0  0  0  0
   59.3776   32.4966   48.0923 H   0  0  0  0  0  0  0  0  0  0  0  0
  1  2  1  0
  2  3  2  0
  2  4  1  0
  4  5  1  0
  5  6  2  0
  6  7  1  0
  7  8  2  0
  8  9  1  0
  9 10  1  0
 10 11  2  0
 11 12  1  0
 12 13  2  0
 13 14  1  0
 14 15  1  0
 15 16  2  0
 15 17  2  0
 15 18  1  0
 18 19  1  0
 19 20  1  0
 20 21  2  0
 21 22  1  0
 22 23  1  0
 13 24  1  0
 24 25  2  0
 25 26  1  0
 26 27  1  0
 26 28  2  0
  8 29  1  0
 29 30  2  0
 30  5  1  0
 25 10  1  0
 23 19  2  0
  1 31  1  0
  4 32  1  0
  4 33  1  0
  6 34  1  0
  7 35  1  0
 11 36  1  0
 12 37  1  0
 18 38  1  0
 18 39  1  0
 24 40  1  0
 27 41  1  0
 29 42  1  0
 30 43  1  0
M  CHG  4   1  -1  14  -1  22  -1  27  -1
M  END
>  <UniqueID>  (35) 
33

>  <SMILES>  (35) 
[NH-]C(=O)Cc1ccc(Oc2ccc([N-]S(=O)(=O)Cc3nn[n-]n3)cc2C([NH-])=O)cc1

>  <Energy>  (35) 
89.64172766465637

>  <Genealogy>  (35) 
[NH-]C(=O)Cc1ccc(Oc2ccc([N-]S(=O)(=O)Cc3nn[n-]n3)cc2C([NH-])=O)cc1 (protonated)
[NH-]C(=O)Cc1ccc(Oc2ccc([N-]S(=O)(=O)Cc3nn[n-]n3)cc2C([NH-])=O)cc1 (3D coordinates assigned)
[NH-]C(=O)Cc1ccc(Oc2ccc([N-]S(=O)(=O)Cc3nn[n-]n3)cc2C([NH-])=O)cc1 (optimized conformer: 89.64172766465637 kcal/mol)

>  <smiles>  (35) 
NC(=O)Cc1ccc(Oc2ccc(NS(=O)(=O)Cc3nn[nH]n3)cc2C(N)=O)cc1

>  <score_type>  (35) 
oracle

>  <origin>  (35) 
adg

>  <m_score__min__energy>  (35) 
-15.91

>  <m_primary>  (35) 
energy

$$$$
35:0
     RDKit          3D

 29 30  0  0  0  0  0  0  0  0999 V2000
   55.9060   28.5630   45.8110 H   0  0  0  0  0  0  0  0  0  0  0  0
   55.5930   29.0580   44.9840 O   0  0  0  0  0  0  0  0  0  0  0  0
   56.4180   29.9660   44.3220 C   0  0  0  0  0  0  0  0  0  0  0  0
   56.1680   30.3120   42.9880 C   0  0  0  0  0  0  0  0  0  0  0  0
   55.3134   29.8688   42.4558 H   0  0  0  0  0  0  0  0  0  0  0  0
   57.0030   31.2190   42.3340 C   0  0  0  0  0  0  0  0  0  0  0  0
   56.8129   31.4945   41.2862 H   0  0  0  0  0  0  0  0  0  0  0  0
   58.0810   31.7720   43.0240 C   0  0  0  0  0  0  0  0  0  0  0  0
   58.7462   32.4889   42.5204 H   0  0  0  0  0  0  0  0  0  0  0  0
   58.3110   31.4260   44.3190 N   0  0  0  0  0  0  0  0  0  0  0  0
   57.5130   30.5430   44.9860 C   0  0  0  0  0  0  0  0  0  0  0  0
   57.7530   30.2200   46.2250 N   0  0  0  0  0  0  0  0  0  0  0  0
   58.9130   29.5380   46.7290 C   0  0  0  0  0  0  0  0  0  0  0  0
   60.0480   29.6980   46.2040 O   0  0  0  0  0  0  0  0  0  0  0  0
   58.7660   28.6110   47.8940 C   0  0  0  0  0  0  0  0  0  0  0  0
   59.1541   29.1030   48.7981 H   0  0  0  0  0  0  0  0  0  0  0  0
   57.7007   28.3671   48.0194 H   0  0  0  0  0  0  0  0  0  0  0  0
   59.6930   27.0630   47.6090 S   0  0  0  0  0  0  0  0  0  0  0  0
   58.3700   26.2510   46.7060 C   0  0  0  0  0  0  0  0  0  0  0  0
   58.6240   25.0690   46.0010 C   0  0  0  0  0  0  0  0  0  0  0  0
   59.6355   24.6368   45.9991 H   0  0  0  0  0  0  0  0  0  0  0  0
   57.5930   24.4370   45.2990 C   0  0  0  0  0  0  0  0  0  0  0  0
   57.7947   23.5095   44.7431 H   0  0  0  0  0  0  0  0  0  0  0  0
   56.3060   24.9830   45.3030 C   0  0  0  0  0  0  0  0  0  0  0  0
   55.4963   24.4854   44.7492 H   0  0  0  0  0  0  0  0  0  0  0  0
   56.0470   26.1620   46.0110 C   0  0  0  0  0  0  0  0  0  0  0  0
   54.7680   26.7040   46.0160 O   0  0  0  0  0  0  0  0  0  0  0  0
   57.0770   26.7930   46.7160 C   0  0  0  0  0  0  0  0  0  0  0  0
   56.8724   27.7156   47.2790 H   0  0  0  0  0  0  0  0  0  0  0  0
  1  2  1  0
  2  3  1  0
  3  4  2  0
  4  5  1  0
  4  6  1  0
  6  7  1  0
  6  8  2  0
  8  9  1  0
  8 10  1  0
 10 11  1  0
 11 12  2  0
 12 13  1  0
 13 14  2  0
 13 15  1  0
 15 16  1  0
 15 17  1  0
 15 18  1  0
 18 19  1  0
 19 20  2  0
 20 21  1  0
 20 22  1  0
 22 23  1  0
 22 24  2  0
 24 25  1  0
 24 26  1  0
 26 27  1  0
 26 28  2  0
 28 29  1  0
 11  3  1  0
 28 19  1  0
M  CHG  2  10  -1  27  -1
M  END
>  <UniqueID>  (36) 
34

>  <SMILES>  (36) 
O=C(CSc1cccc([O-])c1)/N=c1\[n-]cccc1O

>  <Energy>  (36) 
27.569646873163787

>  <Genealogy>  (36) 
O=C(CSc1cccc([O-])c1)N=c1[n-]cccc1O (protonated)
O=C(CSc1cccc([O-])c1)/N=c1\[n-]cccc1O (cis-trans isomerization)
O=C(CSc1cccc([O-])c1)/N=c1\[n-]cccc1O (3D coordinates assigned)
O=C(CSc1cccc([O-])c1)/N=c1\[n-]cccc1O (optimized conformer: 27.569646873163787 kcal/mol)

>  <smiles>  (36) 
O=C(CSc1cccc(O)c1)N=c1[nH]cccc1O

>  <score_type>  (36) 
oracle

>  <origin>  (36) 
adg

>  <m_score__min__energy>  (36) 
-12

>  <m_primary>  (36) 
energy

$$$$
36:0
     RDKit          3D

 28 29  0  0  0  0  0  0  0  0999 V2000
   59.8650   27.6780   45.7480 H   0  0  0  0  0  0  0  0  0  0  0  0
   59.6240   26.8330   46.2510 O   0  0  0  0  0  0  0  0  0  0  0  0
   58.2970   26.4360   46.3670 C   0  0  0  0  0  0  0  0  0  0  0  0
   57.9170   25.3120   46.9360 O   0  0  0  0  0  0  0  0  0  0  0  0
   56.6040   25.2390   46.8820 C   0  0  0  0  0  0  0  0  0  0  0  0
   55.9928   24.4138   47.2762 H   0  0  0  0  0  0  0  0  0  0  0  0
   56.1190   26.3650   46.2510 C   0  0  0  0  0  0  0  0  0  0  0  0
   54.7800   26.6490   46.0090 O   0  0  0  0  0  0  0  0  0  0  0  0
   57.2030   27.1480   45.9130 C   0  0  0  0  0  0  0  0  0  0  0  0
   57.1960   28.4500   45.2250 C   0  0  0  0  0  0  0  0  0  0  0  0
   56.1010   28.9710   44.8790 O   0  0  0  0  0  0  0  0  0  0  0  0
   58.4370   29.1140   44.9540 N   0  0  0  0  0  0  0  0  0  0  0  0
   58.7320   30.3060   45.3730 C   0  0  0  0  0  0  0  0  0  0  0  0
   59.5483   30.4479   46.0965 H   0  0  0  0  0  0  0  0  0  0  0  0
   57.9630   31.4870   44.8730 C   0  0  0  0  0  0  0  0  0  0  0  0
   58.0748   31.5557   43.7809 H   0  0  0  0  0  0  0  0  0  0  0  0
   56.9032   31.3596   45.1386 H   0  0  0  0  0  0  0  0  0  0  0  0
   58.4740   32.7550   45.5040 C   0  0  0  0  0  0  0  0  0  0  0  0
   58.5400   32.8740   46.9020 C   0  0  0  0  0  0  0  0  0  0  0  0
   58.2454   32.0268   47.5388 H   0  0  0  0  0  0  0  0  0  0  0  0
   58.9790   34.0660   47.4870 C   0  0  0  0  0  0  0  0  0  0  0  0
   59.0355   34.1521   48.5822 H   0  0  0  0  0  0  0  0  0  0  0  0
   59.3460   35.1480   46.6820 C   0  0  0  0  0  0  0  0  0  0  0  0
   59.6953   36.0835   47.1434 H   0  0  0  0  0  0  0  0  0  0  0  0
   59.2690   35.0410   45.2910 C   0  0  0  0  0  0  0  0  0  0  0  0
   59.5531   35.8950   44.6586 H   0  0  0  0  0  0  0  0  0  0  0  0
   58.8320   33.8520   44.7010 C   0  0  0  0  0  0  0  0  0  0  0  0
   58.7680   33.7742   43.6056 H   0  0  0  0  0  0  0  0  0  0  0  0
  1  2  1  0
  2  3  1  0
  3  4  1  0
  4  5  1  0
  5  6  1  0
  5  7  2  0
  7  8  1  0
  7  9  1  0
  9 10  1  0
 10 11  2  0
 10 12  1  0
 12 13  2  0
 13 14  1  0
 13 15  1  0
 15 16  1  0
 15 17  1  0
 15 18  1  0
 18 19  2  0
 19 20  1  0
 19 21  1  0
 21 22  1  0
 21 23  2  0
 23 24  1  0
 23 25  1  0
 25 26  1  0
 25 27  2  0
 27 28  1  0
  9  3  2  0
 27 18  1  0
M  CHG  1   8  -1
M  END
>  <UniqueID>  (37) 
35

>  <SMILES>  (37) 
O=C(/N=C/Cc1ccccc1)c1c([O-])coc1O

>  <Energy>  (37) 
53.876203370936466

>  <Genealogy>  (37) 
O=C(N=CCc1ccccc1)c1c([O-])coc1O (protonated)
O=C(/N=C/Cc1ccccc1)c1c([O-])coc1O (cis-trans isomerization)
O=C(/N=C/Cc1ccccc1)c1c([O-])coc1O (3D coordinates assigned)
O=C(/N=C/Cc1ccccc1)c1c([O-])coc1O (optimized conformer: 53.876203370936466 kcal/mol)

>  <smiles>  (37) 
O=C(N=CCc1ccccc1)c1c(O)coc1O

>  <score_type>  (37) 
oracle

>  <origin>  (37) 
adg

>  <m_score__min__energy>  (37) 
-10.25

>  <m_primary>  (37) 
energy

$$$$
37:0
     RDKit          3D

 48 49  0  0  0  0  0  0  0  0999 V2000
   58.0360   32.3860   43.9350 C   0  0  0  0  0  0  0  0  0  0  0  0
   57.6710   31.1650   43.0980 C   0  0  0  0  0  0  0  0  0  0  0  0
   56.9580   30.1520   43.9360 C   0  0  0  0  0  0  0  0  0  0  0  0
   57.4530   28.9210   44.3150 C   0  0  0  0  0  0  0  0  0  0  0  0
   56.4740   28.4320   45.1560 C   0  0  0  0  0  0  0  0  0  0  0  0
   56.4990   27.1570   45.8820 C   0  0  0  0  0  0  0  0  0  0  0  0
   55.4530   26.4610   45.9840 O   0  0  0  0  0  0  0  0  0  0  0  0
   57.7180   26.6870   46.4600 N   0  0  0  0  0  0  0  0  0  0  0  0
   59.0210   27.1400   45.9820 C   0  0  0  0  0  0  0  0  0  0  0  0
   59.3740   28.4650   46.6010 C   0  0  0  0  0  0  0  0  0  0  0  0
   60.3340   29.2930   46.0000 C   0  0  0  0  0  0  0  0  0  0  0  0
   60.5720   30.5760   46.4990 C   0  0  0  0  0  0  0  0  0  0  0  0
   59.8440   31.0590   47.6020 C   0  0  0  0  0  0  0  0  0  0  0  0
   60.0500   32.4340   48.1180 C   0  0  0  0  0  0  0  0  0  0  0  0
   59.2880   33.3590   47.7220 O   0  0  0  0  0  0  0  0  0  0  0  0
   61.1200   32.7360   49.0300 N   0  0  0  0  0  0  0  0  0  0  0  0
   61.4440   34.1030   49.4380 C   0  0  0  0  0  0  0  0  0  0  0  0
   62.9610   34.3170   49.4410 C   0  0  0  0  0  0  0  0  0  0  0  0
   63.6680   33.1110   48.9540 N   0  0  0  0  0  0  0  0  0  0  0  0
   63.7820   33.1220   47.4850 C   0  0  0  0  0  0  0  0  0  0  0  0
   65.0110   33.0280   49.5480 C   0  0  0  0  0  0  0  0  0  0  0  0
   58.9040   30.2150   48.2170 C   0  0  0  0  0  0  0  0  0  0  0  0
   58.6640   28.9320   47.7160 C   0  0  0  0  0  0  0  0  0  0  0  0
   55.5060   29.3150   45.2410 O   0  0  0  0  0  0  0  0  0  0  0  0
   55.7660   30.3700   44.5250 N   0  0  0  0  0  0  0  0  0  0  0  0
   57.9607   32.1342   45.0031 H   0  0  0  0  0  0  0  0  0  0  0  0
   59.0658   32.6951   43.7029 H   0  0  0  0  0  0  0  0  0  0  0  0
   57.3448   33.2096   43.7029 H   0  0  0  0  0  0  0  0  0  0  0  0
   57.0167   31.4756   42.2701 H   0  0  0  0  0  0  0  0  0  0  0  0
   58.5936   30.7150   42.7026 H   0  0  0  0  0  0  0  0  0  0  0  0
   58.3991   28.4446   44.0185 H   0  0  0  0  0  0  0  0  0  0  0  0
   59.7854   26.3974   46.2544 H   0  0  0  0  0  0  0  0  0  0  0  0
   58.9799   27.2560   44.8889 H   0  0  0  0  0  0  0  0  0  0  0  0
   60.9024   28.9300   45.1311 H   0  0  0  0  0  0  0  0  0  0  0  0
   61.3339   31.2132   46.0263 H   0  0  0  0  0  0  0  0  0  0  0  0
   61.8170   31.9970   49.2700 H   0  0  0  0  0  0  0  0  0  0  0  0
   60.9801   34.8102   48.7347 H   0  0  0  0  0  0  0  0  0  0  0  0
   61.0590   34.2714   50.4546 H   0  0  0  0  0  0  0  0  0  0  0  0
   63.2057   35.1664   48.7863 H   0  0  0  0  0  0  0  0  0  0  0  0
   63.2842   34.5200   50.4727 H   0  0  0  0  0  0  0  0  0  0  0  0
   64.8395   33.2241   47.2001 H   0  0  0  0  0  0  0  0  0  0  0  0
   63.3821   32.1811   47.0791 H   0  0  0  0  0  0  0  0  0  0  0  0
   63.2095   33.9691   47.0791 H   0  0  0  0  0  0  0  0  0  0  0  0
   64.9278   33.0331   50.6448 H   0  0  0  0  0  0  0  0  0  0  0  0
   65.4994   32.0980   49.2217 H   0  0  0  0  0  0  0  0  0  0  0  0
   65.6102   33.8908   49.2217 H   0  0  0  0  0  0  0  0  0  0  0  0
   58.3518   30.5669   49.1009 H   0  0  0  0  0  0  0  0  0  0  0  0
   57.9153   28.2866   48.1985 H   0  0  0  0  0  0  0  0  0  0  0  0
  1  2  1  0
  2  3  1  0
  3  4  1  0
  4  5  2  0
  5  6  1  0
  6  7  2  0
  6  8  1  0
  8  9  1  0
  9 10  1  0
 10 11  2  0
 11 12  1  0
 12 13  2  0
 13 14  1  0
 14 15  2  0
 14 16  1  0
 16 17  1  0
 17 18  1  0
 18 19  1  0
 19 20  1  0
 19 21  1  0
 13 22  1  0
 22 23  2  0
  5 24  1  0
 24 25  1  0
 25  3  2  0
 23 10  1  0
  1 26  1  0
  1 27  1  0
  1 28  1  0
  2 29  1  0
  2 30  1  0
  4 31  1  0
  9 32  1  0
  9 33  1  0
 11 34  1  0
 12 35  1  0
 16 36  1  0
 17 37  1  0
 17 38  1  0
 18 39  1  0
 18 40  1  0
 20 41  1  0
 20 42  1  0
 20 43  1  0
 21 44  1  0
 21 45  1  0
 21 46  1  0
 22 47  1  0
 23 48  1  0
M  CHG  1   8  -1
M  END
>  <UniqueID>  (38) 
36

>  <SMILES>  (38) 
CCc1cc(C(=O)[N-]Cc2ccc(C(=O)NCCN(C)C)cc2)on1

>  <Energy>  (38) 
74.57350232647063

>  <Genealogy>  (38) 
CCc1cc(C(=O)[N-]Cc2ccc(C(=O)NCCN(C)C)cc2)on1 (protonated)
CCc1cc(C(=O)[N-]Cc2ccc(C(=O)NCCN(C)C)cc2)on1 (3D coordinates assigned)
CCc1cc(C(=O)[N-]Cc2ccc(C(=O)NCCN(C)C)cc2)on1 (optimized conformer: 74.57350232647063 kcal/mol)

>  <smiles>  (38) 
CCc1cc(C(=O)NCc2ccc(C(=O)NCCN(C)C)cc2)on1

>  <score_type>  (38) 
oracle

>  <origin>  (38) 
adg

>  <m_score__min__energy>  (38) 
-9.6500000000000004

>  <m_primary>  (38) 
energy

$$$$
38:0
     RDKit          3D

 45 47  0  0  0  0  0  0  0  0999 V2000
   58.0860   26.9620   47.5130 C   0  0  0  0  0  0  0  0  0  0  0  0
   58.0570   27.3040   46.2150 C   0  0  0  0  0  0  0  0  0  0  0  0
   57.8790   26.4620   45.1080 C   0  0  0  0  0  0  0  0  0  0  0  0
   57.5420   25.1570   45.0270 C   0  0  0  0  0  0  0  0  0  0  0  0
   56.1640   24.6360   44.9610 C   0  0  0  0  0  0  0  0  0  0  0  0
   55.1110   25.2750   45.6430 C   0  0  0  0  0  0  0  0  0  0  0  0
   55.3100   26.4560   46.3610 O   0  0  0  0  0  0  0  0  0  0  0  0
   53.8620   24.7450   45.5970 N   0  0  0  0  0  0  0  0  0  0  0  0
   53.6060   23.5990   44.9150 C   0  0  0  0  0  0  0  0  0  0  0  0
   52.4370   23.1340   44.8860 O   0  0  0  0  0  0  0  0  0  0  0  0
   54.6070   22.9550   44.2660 N   0  0  0  0  0  0  0  0  0  0  0  0
   55.8760   23.4380   44.2800 C   0  0  0  0  0  0  0  0  0  0  0  0
   56.7860   22.8020   43.6820 O   0  0  0  0  0  0  0  0  0  0  0  0
   58.1220   27.2870   44.0150 C   0  0  0  0  0  0  0  0  0  0  0  0
   58.0720   26.9060   42.5690 C   0  0  0  0  0  0  0  0  0  0  0  0
   58.3810   28.5390   44.4340 N   0  0  0  0  0  0  0  0  0  0  0  0
   58.3180   28.5550   45.7580 N   0  0  0  0  0  0  0  0  0  0  0  0
   58.5970   29.7550   46.5570 C   0  0  0  0  0  0  0  0  0  0  0  0
   58.1290   31.0010   45.8520 C   0  0  0  0  0  0  0  0  0  0  0  0
   57.0960   30.9350   45.1320 O   0  0  0  0  0  0  0  0  0  0  0  0
   58.8220   32.2580   46.0100 N   0  0  0  0  0  0  0  0  0  0  0  0
   60.2280   32.2780   46.4490 C   0  0  0  0  0  0  0  0  0  0  0  0
   60.8080   33.6960   46.4340 C   0  0  0  0  0  0  0  0  0  0  0  0
   59.8830   34.6660   47.1780 C   0  0  0  0  0  0  0  0  0  0  0  0
   58.4120   34.5910   46.7090 C   0  0  0  0  0  0  0  0  0  0  0  0
   58.1570   33.5180   45.6420 C   0  0  0  0  0  0  0  0  0  0  0  0
   58.2350   27.7342   48.2821 H   0  0  0  0  0  0  0  0  0  0  0  0
   57.9608   25.9096   47.8074 H   0  0  0  0  0  0  0  0  0  0  0  0
   58.3614   24.4233   45.0088 H   0  0  0  0  0  0  0  0  0  0  0  0
   54.7360   26.7180   47.1520 H   0  0  0  0  0  0  0  0  0  0  0  0
   57.9293   25.8188   42.4810 H   0  0  0  0  0  0  0  0  0  0  0  0
   57.2344   27.4264   42.0815 H   0  0  0  0  0  0  0  0  0  0  0  0
   59.0155   27.1926   42.0815 H   0  0  0  0  0  0  0  0  0  0  0  0
   58.0762   29.6721   47.5224 H   0  0  0  0  0  0  0  0  0  0  0  0
   59.6843   29.8279   46.7072 H   0  0  0  0  0  0  0  0  0  0  0  0
   60.2872   31.8798   47.4727 H   0  0  0  0  0  0  0  0  0  0  0  0
   60.8133   31.6615   45.7508 H   0  0  0  0  0  0  0  0  0  0  0  0
   61.7930   33.6887   46.9235 H   0  0  0  0  0  0  0  0  0  0  0  0
   60.9040   34.0285   45.3899 H   0  0  0  0  0  0  0  0  0  0  0  0
   59.9195   34.4289   48.2515 H   0  0  0  0  0  0  0  0  0  0  0  0
   60.2407   35.6843   46.9655 H   0  0  0  0  0  0  0  0  0  0  0  0
   57.7804   34.3693   47.5819 H   0  0  0  0  0  0  0  0  0  0  0  0
   58.1713   35.5619   46.2514 H   0  0  0  0  0  0  0  0  0  0  0  0
   57.0743   33.3441   45.5549 H   0  0  0  0  0  0  0  0  0  0  0  0
   58.5631   33.8676   44.6813 H   0  0  0  0  0  0  0  0  0  0  0  0
  1  2  2  0
  2  3  1  0
  3  4  2  3
  4  5  1  0
  5  6  2  0
  6  7  1  0
  6  8  1  0
  8  9  1  0
  9 10  2  0
  9 11  1  0
 11 12  1  0
 12 13  2  0
  3 14  1  0
 14 15  1  0
 14 16  2  0
 16 17  1  0
 17 18  1  0
 18 19  1  0
 19 20  2  0
 19 21  1  0
 21 22  1  0
 22 23  1  0
 23 24  1  0
 24 25  1  0
 25 26  1  0
 17  2  1  0
 26 21  1  0
 12  5  1  0
  1 27  1  0
  1 28  1  0
  4 29  1  0
  7 30  1  0
 15 31  1  0
 15 32  1  0
 15 33  1  0
 18 34  1  0
 18 35  1  0
 22 36  1  0
 22 37  1  0
 23 38  1  0
 23 39  1  0
 24 40  1  0
 24 41  1  0
 25 42  1  0
 25 43  1  0
 26 44  1  0
 26 45  1  0
M  CHG  2   8  -1  11  -1
M  END
>  <UniqueID>  (39) 
37

>  <SMILES>  (39) 
C=c1c(=Cc2c(O)[n-]c(=O)[n-]c2=O)c(C)nn1CC(=O)N1CCCCC1

>  <Energy>  (39) 
92.88241571354152

>  <Genealogy>  (39) 
C=c1c(=Cc2c(O)[n-]c(=O)[n-]c2=O)c(C)nn1CC(=O)N1CCCCC1 (protonated)
C=c1c(=Cc2c(O)[n-]c(=O)[n-]c2=O)c(C)nn1CC(=O)N1CCCCC1 (3D coordinates assigned)
C=c1c(=Cc2c(O)[n-]c(=O)[n-]c2=O)c(C)nn1CC(=O)N1CCCCC1 (nonaromatic ring conformer: 92.88241571354152 kcal/mol)

>  <smiles>  (39) 
C=c1c(=Cc2c(O)[nH]c(=O)[nH]c2=O)c(C)nn1CC(=O)N1CCCCC1

>  <score_type>  (39) 
oracle

>  <origin>  (39) 
adg

>  <m_score__min__energy>  (39) 
-13.460000000000001

>  <m_primary>  (39) 
energy

$$$$
39:0
     RDKit          3D

 46 48  0  0  0  0  0  0  0  0999 V2000
   62.4726   34.3934   49.4467 H   0  0  0  0  0  0  0  0  0  0  0  0
   61.6440   34.1540   48.7640 C   0  0  0  0  0  0  0  0  0  0  0  0
   61.8810   33.4410   47.5890 C   0  0  0  0  0  0  0  0  0  0  0  0
   63.6500   32.8860   47.1410 Br  0  0  0  0  0  0  0  0  0  0  0  0
   60.8490   33.1370   46.7580 N   0  0  0  0  0  0  0  0  0  0  0  0
   59.5650   33.4990   47.0260 C   0  0  0  0  0  0  0  0  0  0  0  0
   58.6390   33.1760   46.1670 N   0  0  0  0  0  0  0  0  0  0  0  0
   58.1490   31.8640   45.8570 C   0  0  0  0  0  0  0  0  0  0  0  0
   57.0590   31.7550   45.2340 O   0  0  0  0  0  0  0  0  0  0  0  0
   58.9500   30.7010   46.1180 N   0  0  0  0  0  0  0  0  0  0  0  0
   59.9820   30.8370   46.2160 H   0  0  0  0  0  0  0  0  0  0  0  0
   58.4320   29.3600   46.1630 C   0  0  0  0  0  0  0  0  0  0  0  0
   57.8330   28.8160   45.0180 C   0  0  0  0  0  0  0  0  0  0  0  0
   57.7424   29.4261   44.1072 H   0  0  0  0  0  0  0  0  0  0  0  0
   57.3500   27.5040   45.0250 C   0  0  0  0  0  0  0  0  0  0  0  0
   56.8682   27.0930   44.1256 H   0  0  0  0  0  0  0  0  0  0  0  0
   57.4770   26.7110   46.1720 C   0  0  0  0  0  0  0  0  0  0  0  0
   56.9020   25.0410   46.1690 S   0  0  0  0  0  0  0  0  0  0  0  0
   57.2760   24.3850   47.4680 O   0  0  0  0  0  0  0  0  0  0  0  0
   55.4020   25.0340   46.0580 O   0  0  0  0  0  0  0  0  0  0  0  0
   57.5880   24.1270   44.8430 N   0  0  0  0  0  0  0  0  0  0  0  0
   58.0130   22.7910   45.3080 C   0  0  0  0  0  0  0  0  0  0  0  0
   57.2547   22.3926   45.9981 H   0  0  0  0  0  0  0  0  0  0  0  0
   58.9836   22.8899   45.8160 H   0  0  0  0  0  0  0  0  0  0  0  0
   58.1760   21.8220   44.1280 C   0  0  0  0  0  0  0  0  0  0  0  0
   58.5076   20.8468   44.5140 H   0  0  0  0  0  0  0  0  0  0  0  0
   58.9162   22.2529   43.4378 H   0  0  0  0  0  0  0  0  0  0  0  0
   56.9100   21.6330   43.3770 N   0  0  0  0  0  0  0  0  0  0  0  0
   56.2660   20.3570   43.7230 C   0  0  0  0  0  0  0  0  0  0  0  0
   56.2154   20.2567   44.8172 H   0  0  0  0  0  0  0  0  0  0  0  0
   55.2486   20.3346   43.3053 H   0  0  0  0  0  0  0  0  0  0  0  0
   56.8523   19.5253   43.3053 H   0  0  0  0  0  0  0  0  0  0  0  0
   55.9520   22.7520   43.5330 C   0  0  0  0  0  0  0  0  0  0  0  0
   55.3431   22.5792   44.4326 H   0  0  0  0  0  0  0  0  0  0  0  0
   55.3180   22.7932   42.6350 H   0  0  0  0  0  0  0  0  0  0  0  0
   56.6800   24.0960   43.6730 C   0  0  0  0  0  0  0  0  0  0  0  0
   55.9308   24.8935   43.7860 H   0  0  0  0  0  0  0  0  0  0  0  0
   57.2911   24.2421   42.7701 H   0  0  0  0  0  0  0  0  0  0  0  0
   58.0840   27.2470   47.3160 C   0  0  0  0  0  0  0  0  0  0  0  0
   58.1807   26.6320   48.2229 H   0  0  0  0  0  0  0  0  0  0  0  0
   58.5670   28.5580   47.3110 C   0  0  0  0  0  0  0  0  0  0  0  0
   59.0551   28.9650   48.2088 H   0  0  0  0  0  0  0  0  0  0  0  0
   59.2960   34.2420   48.1960 C   0  0  0  0  0  0  0  0  0  0  0  0
   58.2700   34.5676   48.4226 H   0  0  0  0  0  0  0  0  0  0  0  0
   60.3430   34.5600   49.0630 C   0  0  0  0  0  0  0  0  0  0  0  0
   60.1423   35.1306   49.9818 H   0  0  0  0  0  0  0  0  0  0  0  0
  1  2  1  0
  2  3  2  0
  3  4  1  0
  3  5  1  0
  5  6  1  0
  6  7  2  0
  7  8  1  0
  8  9  2  0
  8 10  1  0
 10 11  1  0
 10 12  1  0
 12 13  2  0
 13 14  1  0
 13 15  1  0
 15 16  1  0
 15 17  2  0
 17 18  1  0
 18 19  2  0
 18 20  2  0
 18 21  1  0
 21 22  1  0
 22 23  1  0
 22 24  1  0
 22 25  1  0
 25 26  1  0
 25 27  1  0
 25 28  1  0
 28 29  1  0
 29 30  1  0
 29 31  1  0
 29 32  1  0
 28 33  1  0
 33 34  1  0
 33 35  1  0
 33 36  1  0
 36 37  1  0
 36 38  1  0
 17 39  1  0
 39 40  1  0
 39 41  2  0
 41 42  1  0
  6 43  1  0
 43 44  1  0
 43 45  2  0
 45 46  1  0
 45  2  1  0
 41 12  1  0
 36 21  1  0
M  CHG  1   5  -1
M  END
>  <UniqueID>  (40) 
38

>  <SMILES>  (40) 
CN1CCN(S(=O)(=O)c2ccc(NC(=O)/N=c3\cccc(Br)[n-]3)cc2)CC1

>  <Energy>  (40) 
67.93218743164957

>  <Genealogy>  (40) 
CN1CCN(S(=O)(=O)c2ccc(NC(=O)N=c3cccc(Br)[n-]3)cc2)CC1 (protonated)
CN1CCN(S(=O)(=O)c2ccc(NC(=O)/N=c3\cccc(Br)[n-]3)cc2)CC1 (cis-trans isomerization)
CN1CCN(S(=O)(=O)c2ccc(NC(=O)/N=c3\cccc(Br)[n-]3)cc2)CC1 (3D coordinates assigned)
CN1CCN(S(=O)(=O)c2ccc(NC(=O)/N=c3\cccc(Br)[n-]3)cc2)CC1 (nonaromatic ring conformer: 67.93218743164957 kcal/mol)

>  <smiles>  (40) 
CN1CCN(S(=O)(=O)c2ccc(NC(=O)N=c3cccc(Br)[nH]3)cc2)CC1

>  <score_type>  (40) 
oracle

>  <origin>  (40) 
adg

>  <m_score__min__energy>  (40) 
-10.710000000000001

>  <m_primary>  (40) 
energy

$$$$
40:0
     RDKit          3D

 33 34  0  0  0  0  0  0  0  0999 V2000
   61.5620   33.6150   50.9330 H   0  0  0  0  0  0  0  0  0  0  0  0
   62.0680   33.6180   50.0540 O   0  0  0  0  0  0  0  0  0  0  0  0
   61.4170   33.7640   48.8290 C   0  0  0  0  0  0  0  0  0  0  0  0
   62.1290   33.7010   47.6190 C   0  0  0  0  0  0  0  0  0  0  0  0
   63.5050   33.5030   47.6200 O   0  0  0  0  0  0  0  0  0  0  0  0
   61.4560   33.8440   46.4020 C   0  0  0  0  0  0  0  0  0  0  0  0
   62.0207   33.8103   45.4586 H   0  0  0  0  0  0  0  0  0  0  0  0
   60.0670   34.0300   46.3750 C   0  0  0  0  0  0  0  0  0  0  0  0
   59.3910   34.2270   45.0750 C   0  0  0  0  0  0  0  0  0  0  0  0
   59.6911   35.1009   44.4781 H   0  0  0  0  0  0  0  0  0  0  0  0
   58.4410   33.4280   44.5620 C   0  0  0  0  0  0  0  0  0  0  0  0
   58.4956   33.2041   43.4864 H   0  0  0  0  0  0  0  0  0  0  0  0
   57.3260   32.8240   45.3270 C   0  0  0  0  0  0  0  0  0  0  0  0
   56.7380   33.4850   46.2230 O   0  0  0  0  0  0  0  0  0  0  0  0
   56.9250   31.4660   45.1070 N   0  0  0  0  0  0  0  0  0  0  0  0
   57.6570   30.5150   44.2790 C   0  0  0  0  0  0  0  0  0  0  0  0
   57.2211   30.4959   43.2692 H   0  0  0  0  0  0  0  0  0  0  0  0
   58.7124   30.8187   44.2160 H   0  0  0  0  0  0  0  0  0  0  0  0
   57.5640   29.1440   44.8920 C   0  0  0  0  0  0  0  0  0  0  0  0
   58.7350   28.4120   45.1500 C   0  0  0  0  0  0  0  0  0  0  0  0
   59.7169   28.8529   44.9233 H   0  0  0  0  0  0  0  0  0  0  0  0
   58.6590   27.1270   45.6930 C   0  0  0  0  0  0  0  0  0  0  0  0
   59.5807   26.5630   45.8989 H   0  0  0  0  0  0  0  0  0  0  0  0
   57.4160   26.5570   45.9750 C   0  0  0  0  0  0  0  0  0  0  0  0
   57.3480   25.2780   46.5180 O   0  0  0  0  0  0  0  0  0  0  0  0
   56.2410   27.2710   45.7110 C   0  0  0  0  0  0  0  0  0  0  0  0
   55.0040   26.6990   45.9870 O   0  0  0  0  0  0  0  0  0  0  0  0
   56.3100   28.5590   45.1640 C   0  0  0  0  0  0  0  0  0  0  0  0
   55.1360   29.2530   44.8900 O   0  0  0  0  0  0  0  0  0  0  0  0
   59.3640   34.1260   47.5880 C   0  0  0  0  0  0  0  0  0  0  0  0
   58.2804   34.3147   47.5785 H   0  0  0  0  0  0  0  0  0  0  0  0
   60.0340   33.9830   48.8070 C   0  0  0  0  0  0  0  0  0  0  0  0
   59.3220   34.0620   49.9980 O   0  0  0  0  0  0  0  0  0  0  0  0
  1  2  1  0
  2  3  1  0
  3  4  2  0
  4  5  1  0
  4  6  1  0
  6  7  1  0
  6  8  2  0
  8  9  1  0
  9 10  1  0
  9 11  2  0
 11 12  1  0
 11 13  1  0
 13 14  2  0
 13 15  1  0
 15 16  1  0
 16 17  1  0
 16 18  1  0
 16 19  1  0
 19 20  2  0
 20 21  1  0
 20 22  1  0
 22 23  1  0
 22 24  2  0
 24 25  1  0
 24 26  1  0
 26 27  1  0
 26 28  2  0
 28 29  1  0
  8 30  1  0
 30 31  1  0
 30 32  2  0
 32 33  1  0
 32  3  1  0
 28 19  1  0
M  CHG  6   5  -1  15  -1  25  -1  27  -1  29  -1  33  -1
M  END
>  <UniqueID>  (41) 
39

>  <SMILES>  (41) 
O=C(/C=C\c1cc([O-])c(O)c([O-])c1)[N-]Cc1ccc([O-])c([O-])c1[O-]

>  <Energy>  (41) 
41.36032576222749

>  <Genealogy>  (41) 
O=C(C=Cc1cc([O-])c(O)c([O-])c1)[N-]Cc1ccc([O-])c([O-])c1[O-] (protonated)
O=C(/C=C\c1cc([O-])c(O)c([O-])c1)[N-]Cc1ccc([O-])c([O-])c1[O-] (cis-trans isomerization)
O=C(/C=C\c1cc([O-])c(O)c([O-])c1)[N-]Cc1ccc([O-])c([O-])c1[O-] (3D coordinates assigned)
O=C(/C=C\c1cc([O-])c(O)c([O-])c1)[N-]Cc1ccc([O-])c([O-])c1[O-] (optimized conformer: 41.36032576222749 kcal/mol)

>  <smiles>  (41) 
O=C(C=Cc1cc(O)c(O)c(O)c1)NCc1ccc(O)c(O)c1O

>  <score_type>  (41) 
oracle

>  <origin>  (41) 
adg

>  <m_score__min__energy>  (41) 
-18.48

>  <m_primary>  (41) 
energy

$$$$
41:0
     RDKit          3D

 47 50  0  0  0  0  0  0  0  0999 V2000
   59.0070   26.7060   47.7390 C   0  0  0  0  0  0  0  0  0  0  0  0
   58.7310   26.9790   46.2840 C   0  0  0  0  0  0  0  0  0  0  0  0
   58.3110   25.9190   45.4610 C   0  0  0  0  0  0  0  0  0  0  0  0
   58.0250   26.1370   44.1130 C   0  0  0  0  0  0  0  0  0  0  0  0
   58.1600   27.4130   43.5670 C   0  0  0  0  0  0  0  0  0  0  0  0
   58.5900   28.4750   44.3650 C   0  0  0  0  0  0  0  0  0  0  0  0
   58.8860   28.2740   45.7250 C   0  0  0  0  0  0  0  0  0  0  0  0
   59.3680   29.4170   46.5330 C   0  0  0  0  0  0  0  0  0  0  0  0
   58.5580   30.0320   47.2790 O   0  0  0  0  0  0  0  0  0  0  0  0
   60.7560   29.7960   46.5030 N   0  0  0  0  0  0  0  0  0  0  0  0
   61.2650   31.0320   47.0360 C   0  0  0  0  0  0  0  0  0  0  0  0
   62.6490   31.2070   47.1560 C   0  0  0  0  0  0  0  0  0  0  0  0
   63.1690   32.4080   47.6370 C   0  0  0  0  0  0  0  0  0  0  0  0
   62.3150   33.4560   47.9820 C   0  0  0  0  0  0  0  0  0  0  0  0
   60.9200   33.3200   47.8460 C   0  0  0  0  0  0  0  0  0  0  0  0
   60.0260   34.4610   48.1920 C   0  0  0  0  0  0  0  0  0  0  0  0
   59.9090   34.8110   49.3980 O   0  0  0  0  0  0  0  0  0  0  0  0
   59.2620   35.2410   47.1540 C   0  0  0  0  0  0  0  0  0  0  0  0
   58.7620   34.3600   46.0970 N   0  0  0  0  0  0  0  0  0  0  0  0
   59.2710   34.3730   44.5080 S   0  0  0  0  0  0  0  0  0  0  0  0
   58.3510   33.0980   43.9540 C   0  0  0  0  0  0  0  0  0  0  0  0
   58.2620   32.5430   42.6820 C   0  0  0  0  0  0  0  0  0  0  0  0
   57.3950   31.4530   42.5040 C   0  0  0  0  0  0  0  0  0  0  0  0
   56.6490   30.9480   43.5890 C   0  0  0  0  0  0  0  0  0  0  0  0
   56.7620   31.5290   44.8650 C   0  0  0  0  0  0  0  0  0  0  0  0
   57.6260   32.6170   45.0360 C   0  0  0  0  0  0  0  0  0  0  0  0
   57.8780   33.3300   46.2260 C   0  0  0  0  0  0  0  0  0  0  0  0
   57.3400   33.0360   47.3280 O   0  0  0  0  0  0  0  0  0  0  0  0
   60.4060   32.0970   47.3680 C   0  0  0  0  0  0  0  0  0  0  0  0
   58.3618   27.3442   48.3606 H   0  0  0  0  0  0  0  0  0  0  0  0
   58.7988   25.6486   47.9596 H   0  0  0  0  0  0  0  0  0  0  0  0
   60.0620   26.9257   47.9596 H   0  0  0  0  0  0  0  0  0  0  0  0
   58.2070   24.9088   45.8838 H   0  0  0  0  0  0  0  0  0  0  0  0
   57.6925   25.3011   43.4800 H   0  0  0  0  0  0  0  0  0  0  0  0
   57.9273   27.5832   42.5055 H   0  0  0  0  0  0  0  0  0  0  0  0
   58.6982   29.4778   43.9260 H   0  0  0  0  0  0  0  0  0  0  0  0
   61.4450   29.1310   46.0880 H   0  0  0  0  0  0  0  0  0  0  0  0
   63.3301   30.3922   46.8691 H   0  0  0  0  0  0  0  0  0  0  0  0
   64.2569   32.5297   47.7449 H   0  0  0  0  0  0  0  0  0  0  0  0
   62.7356   34.3979   48.3640 H   0  0  0  0  0  0  0  0  0  0  0  0
   58.4104   35.7431   47.6363 H   0  0  0  0  0  0  0  0  0  0  0  0
   59.9402   35.9799   46.7021 H   0  0  0  0  0  0  0  0  0  0  0  0
   58.8507   32.9442   41.8439 H   0  0  0  0  0  0  0  0  0  0  0  0
   57.2970   30.9897   41.5112 H   0  0  0  0  0  0  0  0  0  0  0  0
   55.9736   30.0933   43.4363 H   0  0  0  0  0  0  0  0  0  0  0  0
   56.1821   31.1356   45.7129 H   0  0  0  0  0  0  0  0  0  0  0  0
   59.3190   31.9733   47.2529 H   0  0  0  0  0  0  0  0  0  0  0  0
  1  2  1  0
  2  3  2  0
  3  4  1  0
  4  5  2  0
  5  6  1  0
  6  7  2  0
  7  8  1  0
  8  9  2  0
  8 10  1  0
 10 11  1  0
 11 12  2  0
 12 13  1  0
 13 14  2  0
 14 15  1  0
 15 16  1  0
 16 17  2  0
 16 18  1  0
 18 19  1  0
 19 20  1  0
 20 21  1  0
 21 22  2  0
 22 23  1  0
 23 24  2  0
 24 25  1  0
 25 26  2  0
 26 27  1  0
 27 28  2  0
 15 29  2  0
  7  2  1  0
 29 11  1  0
 27 19  1  0
 26 21  1  0
  1 30  1  0
  1 31  1  0
  1 32  1  0
  3 33  1  0
  4 34  1  0
  5 35  1  0
  6 36  1  0
 10 37  1  0
 12 38  1  0
 13 39  1  0
 14 40  1  0
 18 41  1  0
 18 42  1  0
 22 43  1  0
 23 44  1  0
 24 45  1  0
 25 46  1  0
 29 47  1  0
M  END
>  <UniqueID>  (42) 
40

>  <SMILES>  (42) 
Cc1ccccc1C(=O)Nc1cccc(C(=O)Cn2sc3ccccc3c2=O)c1

>  <Energy>  (42) 
99.93836811608222

>  <Genealogy>  (42) 
Cc1ccccc1C(=O)Nc1cccc(C(=O)Cn2sc3ccccc3c2=O)c1 (3D coordinates assigned)
Cc1ccccc1C(=O)Nc1cccc(C(=O)Cn2sc3ccccc3c2=O)c1 (optimized conformer: 99.93836811608222 kcal/mol)

>  <smiles>  (42) 
Cc1ccccc1C(=O)Nc1cccc(C(=O)Cn2sc3ccccc3c2=O)c1

>  <score_type>  (42) 
oracle

>  <origin>  (42) 
adg

>  <m_score__min__energy>  (42) 
-9.5

>  <m_primary>  (42) 
energy

$$$$
42:0
     RDKit          3D

 27 28  0  0  0  0  0  0  0  0999 V2000
   59.2340   36.7600   47.1200 H   0  0  0  0  0  0  0  0  0  0  0  0
   59.6680   36.0840   46.5050 O   0  0  0  0  0  0  0  0  0  0  0  0
   59.0270   34.8970   46.1600 C   0  0  0  0  0  0  0  0  0  0  0  0
   58.5170   34.0460   47.1500 C   0  0  0  0  0  0  0  0  0  0  0  0
   58.6224   34.3141   48.2116 H   0  0  0  0  0  0  0  0  0  0  0  0
   57.8740   32.8560   46.7910 C   0  0  0  0  0  0  0  0  0  0  0  0
   57.4930   32.1816   47.5721 H   0  0  0  0  0  0  0  0  0  0  0  0
   57.7140   32.5210   45.4420 C   0  0  0  0  0  0  0  0  0  0  0  0
   57.1030   31.2720   45.0930 N   0  0  0  0  0  0  0  0  0  0  0  0
   57.6520   30.0910   45.1640 C   0  0  0  0  0  0  0  0  0  0  0  0
   56.7940   28.9020   44.9870 C   0  0  0  0  0  0  0  0  0  0  0  0
   55.5460   29.0420   44.8730 O   0  0  0  0  0  0  0  0  0  0  0  0
   57.3820   27.5200   44.8880 C   0  0  0  0  0  0  0  0  0  0  0  0
   56.7300   26.8231   45.4351 H   0  0  0  0  0  0  0  0  0  0  0  0
   57.4504   27.2707   43.8188 H   0  0  0  0  0  0  0  0  0  0  0  0
   58.7750   27.4220   45.4600 C   0  0  0  0  0  0  0  0  0  0  0  0
   59.3310   26.3340   45.4840 O   0  0  0  0  0  0  0  0  0  0  0  0
   59.4760   28.6210   46.0410 C   0  0  0  0  0  0  0  0  0  0  0  0
   59.1533   28.7553   47.0840 H   0  0  0  0  0  0  0  0  0  0  0  0
   60.5614   28.4493   45.9911 H   0  0  0  0  0  0  0  0  0  0  0  0
   59.1480   29.8870   45.2500 C   0  0  0  0  0  0  0  0  0  0  0  0
   59.6024   30.7541   45.7516 H   0  0  0  0  0  0  0  0  0  0  0  0
   59.5497   29.7816   44.2314 H   0  0  0  0  0  0  0  0  0  0  0  0
   58.2540   33.3590   44.4510 C   0  0  0  0  0  0  0  0  0  0  0  0
   58.1714   33.0790   43.3904 H   0  0  0  0  0  0  0  0  0  0  0  0
   58.8960   34.5480   44.8110 C   0  0  0  0  0  0  0  0  0  0  0  0
   59.2993   35.2111   44.0315 H   0  0  0  0  0  0  0  0  0  0  0  0
  1  2  1  0
  2  3  1  0
  3  4  2  0
  4  5  1  0
  4  6  1  0
  6  7  1  0
  6  8  2  0
  8  9  1  0
  9 10  2  0
 10 11  1  0
 11 12  2  0
 11 13  1  0
 13 14  1  0
 13 15  1  0
 13 16  1  0
 16 17  2  0
 16 18  1  0
 18 19  1  0
 18 20  1  0
 18 21  1  0
 21 22  1  0
 21 23  1  0
  8 24  1  0
 24 25  1  0
 24 26  2  0
 26 27  1  0
 26  3  1  0
 21 10  1  0
M  END
>  <UniqueID>  (43) 
41

>  <SMILES>  (43) 
O=C1CC/C(=N\c2ccc(O)cc2)C(=O)C1

>  <Energy>  (43) 
34.2710926063713

>  <Genealogy>  (43) 
O=C1CC/C(=N\c2ccc(O)cc2)C(=O)C1 (cis-trans isomerization)
O=C1CC/C(=N\c2ccc(O)cc2)C(=O)C1 (3D coordinates assigned)
O=C1CC/C(=N\c2ccc(O)cc2)C(=O)C1 (nonaromatic ring conformer: 34.2710926063713 kcal/mol)

>  <smiles>  (43) 
O=C1CCC(=Nc2ccc(O)cc2)C(=O)C1

>  <score_type>  (43) 
oracle

>  <origin>  (43) 
adg

>  <m_score__min__energy>  (43) 
-6.5800000000000001

>  <m_primary>  (43) 
energy

$$$$
43:0
     RDKit          3D

 67 70  0  0  0  0  0  0  0  0999 V2000
   56.8940   21.6860   43.1830 C   0  0  0  0  0  0  0  0  0  0  0  0
   56.1610   22.9980   42.9230 C   0  0  0  0  0  0  0  0  0  0  0  0
   55.7130   23.6370   44.2130 C   0  0  0  0  0  0  0  0  0  0  0  0
   54.5380   23.3970   44.6060 O   0  0  0  0  0  0  0  0  0  0  0  0
   56.5520   24.5390   44.9780 N   0  0  0  0  0  0  0  0  0  0  0  0
   55.9100   25.5550   45.8330 C   0  0  0  0  0  0  0  0  0  0  0  0
   56.7170   25.7780   47.1110 C   0  0  0  0  0  0  0  0  0  0  0  0
   58.1220   25.9980   46.7640 N   0  0  0  0  0  0  0  0  0  0  0  0
   58.7260   27.2930   46.9470 C   0  0  0  0  0  0  0  0  0  0  0  0
   59.7370   27.4690   47.9070 C   0  0  0  0  0  0  0  0  0  0  0  0
   60.3760   28.7030   48.0470 C   0  0  0  0  0  0  0  0  0  0  0  0
   60.0120   29.7750   47.2300 C   0  0  0  0  0  0  0  0  0  0  0  0
   59.0050   29.6160   46.2780 C   0  0  0  0  0  0  0  0  0  0  0  0
   58.3580   28.3780   46.1260 C   0  0  0  0  0  0  0  0  0  0  0  0
   57.2760   28.2380   45.1920 N   0  0  0  0  0  0  0  0  0  0  0  0
   56.4080   29.3060   44.7940 C   0  0  0  0  0  0  0  0  0  0  0  0
   55.1610   29.1430   44.8660 O   0  0  0  0  0  0  0  0  0  0  0  0
   56.9500   30.5550   44.2370 C   0  0  0  0  0  0  0  0  0  0  0  0
   57.1890   30.8150   42.8990 C   0  0  0  0  0  0  0  0  0  0  0  0
   57.7150   32.0900   42.8530 C   0  0  0  0  0  0  0  0  0  0  0  0
   57.7690   32.5200   44.1650 C   0  0  0  0  0  0  0  0  0  0  0  0
   58.2590   33.8480   44.6390 C   0  0  0  0  0  0  0  0  0  0  0  0
   58.1900   33.9210   46.4630 S   0  0  0  0  0  0  0  0  0  0  0  0
   59.6320   35.0220   46.7020 C   0  0  0  0  0  0  0  0  0  0  0  0
   60.7440   34.2920   47.4030 C   0  0  0  0  0  0  0  0  0  0  0  0
   60.7330   34.1400   48.7970 C   0  0  0  0  0  0  0  0  0  0  0  0
   61.7880   33.4900   49.4460 C   0  0  0  0  0  0  0  0  0  0  0  0
   62.8680   32.9740   48.7100 C   0  0  0  0  0  0  0  0  0  0  0  0
   63.9970   32.3050   49.3940 C   0  0  0  0  0  0  0  0  0  0  0  0
   63.8180   31.2020   49.9820 O   0  0  0  0  0  0  0  0  0  0  0  0
   65.2630   32.9020   49.3940 O   0  0  0  0  0  0  0  0  0  0  0  0
   66.2760   32.5510   50.3300 C   0  0  0  0  0  0  0  0  0  0  0  0
   62.8690   33.1170   47.3120 C   0  0  0  0  0  0  0  0  0  0  0  0
   61.8200   33.7760   46.6660 C   0  0  0  0  0  0  0  0  0  0  0  0
   57.3020   31.5900   44.9640 O   0  0  0  0  0  0  0  0  0  0  0  0
   58.7790   24.9540   45.9760 C   0  0  0  0  0  0  0  0  0  0  0  0
   57.9890   24.7030   44.6870 C   0  0  0  0  0  0  0  0  0  0  0  0
   56.9840   21.5249   44.2674 H   0  0  0  0  0  0  0  0  0  0  0  0
   56.3293   20.8554   42.7345 H   0  0  0  0  0  0  0  0  0  0  0  0
   57.8974   21.7315   42.7345 H   0  0  0  0  0  0  0  0  0  0  0  0
   56.8365   23.6882   42.3963 H   0  0  0  0  0  0  0  0  0  0  0  0
   55.2712   22.7849   42.3124 H   0  0  0  0  0  0  0  0  0  0  0  0
   55.8434   26.5028   45.2787 H   0  0  0  0  0  0  0  0  0  0  0  0
   54.9056   25.2005   46.1079 H   0  0  0  0  0  0  0  0  0  0  0  0
   56.3275   26.6588   47.6425 H   0  0  0  0  0  0  0  0  0  0  0  0
   56.6318   24.8936   47.7595 H   0  0  0  0  0  0  0  0  0  0  0  0
   60.0275   26.6279   48.5536 H   0  0  0  0  0  0  0  0  0  0  0  0
   61.1664   28.8303   48.8013 H   0  0  0  0  0  0  0  0  0  0  0  0
   60.5194   30.7451   47.3371 H   0  0  0  0  0  0  0  0  0  0  0  0
   58.7154   30.4655   45.6420 H   0  0  0  0  0  0  0  0  0  0  0  0
   56.9990   30.1442   42.0482 H   0  0  0  0  0  0  0  0  0  0  0  0
   58.0266   32.6481   41.9578 H   0  0  0  0  0  0  0  0  0  0  0  0
   59.2976   33.9932   44.3072 H   0  0  0  0  0  0  0  0  0  0  0  0
   57.6208   34.6401   44.2204 H   0  0  0  0  0  0  0  0  0  0  0  0
   59.9890   35.3685   45.7209 H   0  0  0  0  0  0  0  0  0  0  0  0
   59.3255   35.8792   47.3195 H   0  0  0  0  0  0  0  0  0  0  0  0
   59.8900   34.5341   49.3835 H   0  0  0  0  0  0  0  0  0  0  0  0
   61.7720   33.3820   50.5406 H   0  0  0  0  0  0  0  0  0  0  0  0
   65.8925   32.6839   51.3524 H   0  0  0  0  0  0  0  0  0  0  0  0
   66.5652   31.5003   50.1805 H   0  0  0  0  0  0  0  0  0  0  0  0
   67.1533   33.1976   50.1805 H   0  0  0  0  0  0  0  0  0  0  0  0
   63.7019   32.7070   46.7219 H   0  0  0  0  0  0  0  0  0  0  0  0
   61.8381   33.8909   45.5722 H   0  0  0  0  0  0  0  0  0  0  0  0
   59.7997   25.2758   45.7221 H   0  0  0  0  0  0  0  0  0  0  0  0
   58.8191   24.0255   46.5644 H   0  0  0  0  0  0  0  0  0  0  0  0
   58.1244   25.5581   44.0085 H   0  0  0  0  0  0  0  0  0  0  0  0
   58.3619   23.7803   44.2184 H   0  0  0  0  0  0  0  0  0  0  0  0
  1  2  1  0
  2  3  1  0
  3  4  2  0
  3  5  1  0
  5  6  1  0
  6  7  1  0
  7  8  1  0
  8  9  1  0
  9 10  2  0
 10 11  1  0
 11 12  2  0
 12 13  1  0
 13 14  2  0
 14 15  1  0
 15 16  1  0
 16 17  2  0
 16 18  1  0
 18 19  2  0
 19 20  1  0
 20 21  2  0
 21 22  1  0
 22 23  1  0
 23 24  1  0
 24 25  1  0
 25 26  2  0
 26 27  1  0
 27 28  2  0
 28 29  1  0
 29 30  2  0
 29 31  1  0
 31 32  1  0
 28 33  1  0
 33 34  2  0
 21 35  1  0
  8 36  1  0
 36 37  1  0
 37  5  1  0
 14  9  1  0
 35 18  1  0
 34 25  1  0
  1 38  1  0
  1 39  1  0
  1 40  1  0
  2 41  1  0
  2 42  1  0
  6 43  1  0
  6 44  1  0
  7 45  1  0
  7 46  1  0
 10 47  1  0
 11 48  1  0
 12 49  1  0
 13 50  1  0
 19 51  1  0
 20 52  1  0
 22 53  1  0
 22 54  1  0
 24 55  1  0
 24 56  1  0
 26 57  1  0
 27 58  1  0
 32 59  1  0
 32 60  1  0
 32 61  1  0
 33 62  1  0
 34 63  1  0
 36 64  1  0
 36 65  1  0
 37 66  1  0
 37 67  1  0
M  CHG  1  15  -1
M  END
>  <UniqueID>  (44) 
42

>  <SMILES>  (44) 
CCC(=O)N1CCN(c2ccccc2[N-]C(=O)c2ccc(CSCc3ccc(C(=O)OC)cc3)o2)CC1

>  <Energy>  (44) 
96.8166231906845

>  <Genealogy>  (44) 
CCC(=O)N1CCN(c2ccccc2[N-]C(=O)c2ccc(CSCc3ccc(C(=O)OC)cc3)o2)CC1 (protonated)
CCC(=O)N1CCN(c2ccccc2[N-]C(=O)c2ccc(CSCc3ccc(C(=O)OC)cc3)o2)CC1 (3D coordinates assigned)
CCC(=O)N1CCN(c2ccccc2[N-]C(=O)c2ccc(CSCc3ccc(C(=O)OC)cc3)o2)CC1 (nonaromatic ring conformer: 96.8166231906845 kcal/mol)

>  <smiles>  (44) 
CCC(=O)N1CCN(c2ccccc2NC(=O)c2ccc(CSCc3ccc(C(=O)OC)cc3)o2)CC1

>  <score_type>  (44) 
oracle

>  <origin>  (44) 
adg

>  <m_score__min__energy>  (44) 
-11.789999999999999

>  <m_primary>  (44) 
energy

$$$$
44:0
     RDKit          3D

 50 52  0  0  0  0  0  0  0  0999 V2000
   55.2520   29.3380   44.8810 N   0  0  0  0  0  0  0  0  0  0  0  0
   56.9100   29.3410   44.3970 S   0  0  0  0  0  0  0  0  0  0  0  0
   57.6450   28.2390   45.1090 O   0  0  0  0  0  0  0  0  0  0  0  0
   56.9960   29.1000   42.9160 O   0  0  0  0  0  0  0  0  0  0  0  0
   57.6370   30.8920   44.7990 C   0  0  0  0  0  0  0  0  0  0  0  0
   57.1240   32.0800   44.2610 C   0  0  0  0  0  0  0  0  0  0  0  0
   57.6930   33.3090   44.6040 C   0  0  0  0  0  0  0  0  0  0  0  0
   58.7720   33.3600   45.4910 C   0  0  0  0  0  0  0  0  0  0  0  0
   59.2890   32.1770   46.0380 C   0  0  0  0  0  0  0  0  0  0  0  0
   60.6220   32.2200   47.1890 S   0  0  0  0  0  0  0  0  0  0  0  0
   61.2470   33.5890   47.2050 O   0  0  0  0  0  0  0  0  0  0  0  0
   61.6600   31.2200   46.7620 O   0  0  0  0  0  0  0  0  0  0  0  0
   60.0320   31.8180   48.7820 N   0  0  0  0  0  0  0  0  0  0  0  0
   58.9230   32.7140   49.1500 C   0  0  0  0  0  0  0  0  0  0  0  0
   58.2970   32.3010   50.5000 C   0  0  0  0  0  0  0  0  0  0  0  0
   59.2460   31.6170   51.4040 N   0  0  0  0  0  0  0  0  0  0  0  0
   59.0820   29.8660   51.4090 S   0  0  0  0  0  0  0  0  0  0  0  0
   57.6400   29.4680   51.5780 O   0  0  0  0  0  0  0  0  0  0  0  0
   59.8730   29.2470   52.5290 O   0  0  0  0  0  0  0  0  0  0  0  0
   59.6610   29.2260   49.8940 N   0  0  0  0  0  0  0  0  0  0  0  0
   60.4060   27.9750   50.1300 C   0  0  0  0  0  0  0  0  0  0  0  0
   60.6840   27.2440   48.8010 C   0  0  0  0  0  0  0  0  0  0  0  0
   60.4250   28.0850   47.6940 O   0  0  0  0  0  0  0  0  0  0  0  0
   59.0460   28.4060   47.6480 C   0  0  0  0  0  0  0  0  0  0  0  0
   58.5320   28.9790   48.9860 C   0  0  0  0  0  0  0  0  0  0  0  0
   60.6370   32.0630   51.2170 C   0  0  0  0  0  0  0  0  0  0  0  0
   61.1350   31.8820   49.7650 C   0  0  0  0  0  0  0  0  0  0  0  0
   58.7170   30.9450   45.6900 C   0  0  0  0  0  0  0  0  0  0  0  0
   55.1570   28.6250   45.6380 H   0  0  0  0  0  0  0  0  0  0  0  0
   56.2713   32.0447   43.5670 H   0  0  0  0  0  0  0  0  0  0  0  0
   57.2909   34.2387   44.1750 H   0  0  0  0  0  0  0  0  0  0  0  0
   59.2162   34.3296   45.7603 H   0  0  0  0  0  0  0  0  0  0  0  0
   59.6750   30.8370   48.7270 H   0  0  0  0  0  0  0  0  0  0  0  0
   59.3043   33.7426   49.2309 H   0  0  0  0  0  0  0  0  0  0  0  0
   58.1484   32.6480   48.3717 H   0  0  0  0  0  0  0  0  0  0  0  0
   57.9267   33.2061   51.0037 H   0  0  0  0  0  0  0  0  0  0  0  0
   57.4894   31.5878   50.2781 H   0  0  0  0  0  0  0  0  0  0  0  0
   61.3628   28.2117   50.6183 H   0  0  0  0  0  0  0  0  0  0  0  0
   59.7998   27.3196   50.7727 H   0  0  0  0  0  0  0  0  0  0  0  0
   61.7385   26.9320   48.7763 H   0  0  0  0  0  0  0  0  0  0  0  0
   60.0205   26.3689   48.7380 H   0  0  0  0  0  0  0  0  0  0  0  0
   58.8831   29.1534   46.8575 H   0  0  0  0  0  0  0  0  0  0  0  0
   58.4915   27.4780   47.4446 H   0  0  0  0  0  0  0  0  0  0  0  0
   58.0023   29.9245   48.7978 H   0  0  0  0  0  0  0  0  0  0  0  0
   57.8474   28.2538   49.4501 H   0  0  0  0  0  0  0  0  0  0  0  0
   60.7025   33.1290   51.4805 H   0  0  0  0  0  0  0  0  0  0  0  0
   61.2733   31.4421   51.8647 H   0  0  0  0  0  0  0  0  0  0  0  0
   61.7849   32.7315   49.5084 H   0  0  0  0  0  0  0  0  0  0  0  0
   61.6748   30.9247   49.7181 H   0  0  0  0  0  0  0  0  0  0  0  0
   59.1184   30.0150   46.1189 H   0  0  0  0  0  0  0  0  0  0  0  0
  1  2  1  0
  2  3  2  0
  2  4  2  0
  2  5  1  0
  5  6  2  0
  6  7  1  0
  7  8  2  0
  8  9  1  0
  9 10  1  0
 10 11  2  0
 10 12  2  0
 10 13  1  0
 13 14  1  0
 14 15  1  0
 15 16  1  0
 16 17  1  0
 17 18  2  0
 17 19  2  0
 17 20  1  0
 20 21  1  0
 21 22  1  0
 22 23  1  0
 23 24  1  0
 24 25  1  0
 16 26  1  0
 26 27  1  0
  9 28  2  0
 28  5  1  0
 27 13  1  0
 25 20  1  0
  1 29  1  0
  6 30  1  0
  7 31  1  0
  8 32  1  0
 13 33  1  0
 14 34  1  0
 14 35  1  0
 15 36  1  0
 15 37  1  0
 21 38  1  0
 21 39  1  0
 22 40  1  0
 22 41  1  0
 24 42  1  0
 24 43  1  0
 25 44  1  0
 25 45  1  0
 26 46  1  0
 26 47  1  0
 27 48  1  0
 27 49  1  0
 28 50  1  0
M  CHG  2   1  -1  13   1
M  END
>  <UniqueID>  (45) 
43

>  <SMILES>  (45) 
[NH-]S(=O)(=O)c1cccc(S(=O)(=O)[NH+]2CCN(S(=O)(=O)N3CCOCC3)CC2)c1

>  <Energy>  (45) 
65.01937379870542

>  <Genealogy>  (45) 
[NH-]S(=O)(=O)c1cccc(S(=O)(=O)[NH+]2CCN(S(=O)(=O)N3CCOCC3)CC2)c1 (protonated)
[NH-]S(=O)(=O)c1cccc(S(=O)(=O)[NH+]2CCN(S(=O)(=O)N3CCOCC3)CC2)c1 (3D coordinates assigned)
[NH-]S(=O)(=O)c1cccc(S(=O)(=O)[NH+]2CCN(S(=O)(=O)N3CCOCC3)CC2)c1 (nonaromatic ring conformer: 65.01937379870542 kcal/mol)

>  <smiles>  (45) 
NS(=O)(=O)c1cccc(S(=O)(=O)N2CCN(S(=O)(=O)N3CCOCC3)CC2)c1

>  <score_type>  (45) 
oracle

>  <origin>  (45) 
adg

>  <m_score__min__energy>  (45) 
-11.029999999999999

>  <m_primary>  (45) 
energy

$$$$
45:0
     RDKit          3D

 63 67  0  0  0  0  0  0  0  0999 V2000
   59.2860   27.1860   47.3110 C   0  0  0  0  0  0  0  0  0  0  0  0
   58.8080   28.0470   46.4020 C   0  0  0  0  0  0  0  0  0  0  0  0
   58.1830   27.7370   45.1830 C   0  0  0  0  0  0  0  0  0  0  0  0
   57.7080   26.5710   44.7050 C   0  0  0  0  0  0  0  0  0  0  0  0
   57.0710   25.5110   45.5060 C   0  0  0  0  0  0  0  0  0  0  0  0
   57.6860   24.3870   45.9190 N   0  0  0  0  0  0  0  0  0  0  0  0
   56.7970   23.8390   46.7720 C   0  0  0  0  0  0  0  0  0  0  0  0
   57.0120   22.7520   47.3690 O   0  0  0  0  0  0  0  0  0  0  0  0
   55.6690   24.5580   46.9540 N   0  0  0  0  0  0  0  0  0  0  0  0
   55.8660   25.6180   46.1550 C   0  0  0  0  0  0  0  0  0  0  0  0
   54.9660   26.6710   46.0250 O   0  0  0  0  0  0  0  0  0  0  0  0
   58.0940   28.9280   44.4780 C   0  0  0  0  0  0  0  0  0  0  0  0
   58.5860   29.9190   45.3060 C   0  0  0  0  0  0  0  0  0  0  0  0
   58.6540   31.3750   44.9590 C   0  0  0  0  0  0  0  0  0  0  0  0
   59.0180   29.3860   46.4670 N   0  0  0  0  0  0  0  0  0  0  0  0
   59.6690   30.1120   47.5200 C   0  0  0  0  0  0  0  0  0  0  0  0
   60.7840   30.9130   47.2330 C   0  0  0  0  0  0  0  0  0  0  0  0
   61.4460   31.5880   48.2620 C   0  0  0  0  0  0  0  0  0  0  0  0
   60.9860   31.4890   49.5870 C   0  0  0  0  0  0  0  0  0  0  0  0
   61.6840   32.1860   50.6880 C   0  0  0  0  0  0  0  0  0  0  0  0
   61.0930   33.1400   51.2660 O   0  0  0  0  0  0  0  0  0  0  0  0
   63.0320   31.8350   51.0820 N   0  0  0  0  0  0  0  0  0  0  0  0
   63.9770   31.2800   50.1000 C   0  0  0  0  0  0  0  0  0  0  0  0
   65.4380   31.6030   50.4660 C   0  0  0  0  0  0  0  0  0  0  0  0
   65.5650   33.0690   50.9620 C   0  0  0  0  0  0  0  0  0  0  0  0
   66.9640   33.4930   51.2840 N   0  0  0  0  0  0  0  0  0  0  0  0
   67.1600   34.9590   51.3450 C   0  0  0  0  0  0  0  0  0  0  0  0
   68.6390   35.3020   51.6470 C   0  0  0  0  0  0  0  0  0  0  0  0
   69.3660   34.2220   52.2100 O   0  0  0  0  0  0  0  0  0  0  0  0
   68.5910   33.5930   53.2030 C   0  0  0  0  0  0  0  0  0  0  0  0
   67.4150   32.8470   52.5490 C   0  0  0  0  0  0  0  0  0  0  0  0
   64.6600   33.3000   52.2110 C   0  0  0  0  0  0  0  0  0  0  0  0
   63.5520   32.2510   52.3900 C   0  0  0  0  0  0  0  0  0  0  0  0
   59.8770   30.6720   49.8700 C   0  0  0  0  0  0  0  0  0  0  0  0
   59.2200   29.9910   48.8420 C   0  0  0  0  0  0  0  0  0  0  0  0
   58.1440   29.2150   49.1300 F   0  0  0  0  0  0  0  0  0  0  0  0
   59.7563   27.5626   48.2313 H   0  0  0  0  0  0  0  0  0  0  0  0
   59.2080   26.1027   47.1368 H   0  0  0  0  0  0  0  0  0  0  0  0
   57.8038   26.3948   43.6234 H   0  0  0  0  0  0  0  0  0  0  0  0
   57.7066   29.0586   43.4568 H   0  0  0  0  0  0  0  0  0  0  0  0
   58.6818   31.9712   45.8830 H   0  0  0  0  0  0  0  0  0  0  0  0
   59.5622   31.5694   44.3696 H   0  0  0  0  0  0  0  0  0  0  0  0
   57.7679   31.6533   44.3696 H   0  0  0  0  0  0  0  0  0  0  0  0
   61.1380   31.0100   46.1960 H   0  0  0  0  0  0  0  0  0  0  0  0
   62.3313   32.1998   48.0343 H   0  0  0  0  0  0  0  0  0  0  0  0
   63.8522   30.1877   50.0637 H   0  0  0  0  0  0  0  0  0  0  0  0
   63.7608   31.7354   49.1223 H   0  0  0  0  0  0  0  0  0  0  0  0
   65.7703   30.9215   51.2629 H   0  0  0  0  0  0  0  0  0  0  0  0
   66.0647   31.4755   49.5710 H   0  0  0  0  0  0  0  0  0  0  0  0
   65.2344   33.6909   50.1171 H   0  0  0  0  0  0  0  0  0  0  0  0
   66.8769   35.4015   50.3785 H   0  0  0  0  0  0  0  0  0  0  0  0
   66.5313   35.3663   52.1505 H   0  0  0  0  0  0  0  0  0  0  0  0
   69.1270   35.5977   50.7066 H   0  0  0  0  0  0  0  0  0  0  0  0
   68.6381   36.1137   52.3893 H   0  0  0  0  0  0  0  0  0  0  0  0
   69.2165   32.8764   53.7555 H   0  0  0  0  0  0  0  0  0  0  0  0
   68.2000   34.3531   53.8953 H   0  0  0  0  0  0  0  0  0  0  0  0
   67.7303   31.8169   52.3265 H   0  0  0  0  0  0  0  0  0  0  0  0
   66.5715   32.8674   53.2547 H   0  0  0  0  0  0  0  0  0  0  0  0
   65.2981   33.2837   53.1068 H   0  0  0  0  0  0  0  0  0  0  0  0
   64.1577   34.2673   52.0622 H   0  0  0  0  0  0  0  0  0  0  0  0
   63.9623   31.3748   52.9133 H   0  0  0  0  0  0  0  0  0  0  0  0
   62.7332   32.6905   52.9786 H   0  0  0  0  0  0  0  0  0  0  0  0
   59.5246   30.5684   50.9069 H   0  0  0  0  0  0  0  0  0  0  0  0
  1  2  2  0
  2  3  1  0
  3  4  2  3
  4  5  1  0
  5  6  1  0
  6  7  1  0
  7  8  2  0
  7  9  1  0
  9 10  1  0
 10 11  1  0
  3 12  1  0
 12 13  2  0
 13 14  1  0
 13 15  1  0
 15 16  1  0
 16 17  2  0
 17 18  1  0
 18 19  2  0
 19 20  1  0
 20 21  2  0
 20 22  1  0
 22 23  1  0
 23 24  1  0
 24 25  1  0
 25 26  1  0
 26 27  1  0
 27 28  1  0
 28 29  1  0
 29 30  1  0
 30 31  1  0
 25 32  1  0
 32 33  1  0
 19 34  1  0
 34 35  2  0
 35 36  1  0
 15  2  1  0
 35 16  1  0
 10  5  2  0
 33 22  1  0
 31 26  1  0
  1 37  1  0
  1 38  1  0
  4 39  1  0
 12 40  1  0
 14 41  1  0
 14 42  1  0
 14 43  1  0
 17 44  1  0
 18 45  1  0
 23 46  1  0
 23 47  1  0
 24 48  1  0
 24 49  1  0
 25 50  1  0
 27 51  1  0
 27 52  1  0
 28 53  1  0
 28 54  1  0
 30 55  1  0
 30 56  1  0
 31 57  1  0
 31 58  1  0
 32 59  1  0
 32 60  1  0
 33 61  1  0
 33 62  1  0
 34 63  1  0
M  CHG  3   6  -1   9  -1  11  -1
M  END
>  <UniqueID>  (46) 
44

>  <SMILES>  (46) 
C=c1c(=Cc2[n-]c(=O)[n-]c2[O-])cc(C)n1-c1ccc(C(=O)N2CCC(N3CCOCC3)CC2)cc1F

>  <Energy>  (46) 
167.2018929404184

>  <Genealogy>  (46) 
C=c1c(=Cc2[n-]c(=O)[n-]c2[O-])cc(C)n1-c1ccc(C(=O)N2CCC(N3CCOCC3)CC2)cc1F (protonated)
C=c1c(=Cc2[n-]c(=O)[n-]c2[O-])cc(C)n1-c1ccc(C(=O)N2CCC(N3CCOCC3)CC2)cc1F (3D coordinates assigned)
C=c1c(=Cc2[n-]c(=O)[n-]c2[O-])cc(C)n1-c1ccc(C(=O)N2CCC(N3CCOCC3)CC2)cc1F (nonaromatic ring conformer: 167.2018929404184 kcal/mol)

>  <smiles>  (46) 
C=c1c(=Cc2[nH]c(=O)[nH]c2O)cc(C)n1-c1ccc(C(=O)N2CCC(N3CCOCC3)CC2)cc1F

>  <score_type>  (46) 
oracle

>  <origin>  (46) 
adg

>  <m_score__min__energy>  (46) 
-15.92

>  <m_primary>  (46) 
energy

$$$$
46:0
     RDKit          3D

 21 22  0  0  0  0  0  0  0  0999 V2000
   56.8060   19.7960   43.0250 H   0  0  0  0  0  0  0  0  0  0  0  0
   56.2500   20.6430   43.0120 O   0  0  0  0  0  0  0  0  0  0  0  0
   56.5780   21.7190   43.8280 C   0  0  0  0  0  0  0  0  0  0  0  0
   55.6440   22.6160   44.2450 N   0  0  0  0  0  0  0  0  0  0  0  0
   56.1940   23.5670   45.0320 C   0  0  0  0  0  0  0  0  0  0  0  0
   55.5430   24.5560   45.5690 N   0  0  0  0  0  0  0  0  0  0  0  0
   55.9170   25.9440   45.6520 C   0  0  0  0  0  0  0  0  0  0  0  0
   55.2030   26.7080   46.3540 O   0  0  0  0  0  0  0  0  0  0  0  0
   57.0810   26.5440   44.9080 C   0  0  0  0  0  0  0  0  0  0  0  0
   57.9794   25.9389   45.0993 H   0  0  0  0  0  0  0  0  0  0  0  0
   56.8408   26.5532   43.8346 H   0  0  0  0  0  0  0  0  0  0  0  0
   57.3380   27.9540   45.3490 C   0  0  0  0  0  0  0  0  0  0  0  0
   58.4950   28.3780   45.8910 N   0  0  0  0  0  0  0  0  0  0  0  0
   58.2580   29.6820   46.1490 C   0  0  0  0  0  0  0  0  0  0  0  0
   59.1220   30.4380   46.6640 O   0  0  0  0  0  0  0  0  0  0  0  0
   57.0230   30.1130   45.8130 N   0  0  0  0  0  0  0  0  0  0  0  0
   56.4520   29.0060   45.3130 C   0  0  0  0  0  0  0  0  0  0  0  0
   55.1490   28.9560   44.8370 O   0  0  0  0  0  0  0  0  0  0  0  0
   57.8460   23.3370   45.2280 S   0  0  0  0  0  0  0  0  0  0  0  0
   57.8750   21.9510   44.2720 C   0  0  0  0  0  0  0  0  0  0  0  0
   58.7599   21.3398   44.0407 H   0  0  0  0  0  0  0  0  0  0  0  0
  1  2  1  0
  2  3  1  0
  3  4  1  0
  4  5  1  0
  5  6  2  0
  6  7  1  0
  7  8  2  0
  7  9  1  0
  9 10  1  0
  9 11  1  0
  9 12  1  0
 12 13  1  0
 13 14  1  0
 14 15  2  0
 14 16  1  0
 16 17  1  0
 17 18  1  0
  5 19  1  0
 19 20  1  0
 20 21  1  0
 20  3  2  0
 17 12  2  0
M  CHG  4   4  -1  13  -1  16  -1  18  -1
M  END
>  <UniqueID>  (47) 
45

>  <SMILES>  (47) 
O=C(Cc1[n-]c(=O)[n-]c1[O-])/N=c1\[n-]c(O)cs1

>  <Energy>  (47) 
82.47053453893825

>  <Genealogy>  (47) 
O=C(Cc1[n-]c(=O)[n-]c1[O-])N=c1[n-]c(O)cs1 (protonated)
O=C(Cc1[n-]c(=O)[n-]c1[O-])/N=c1\[n-]c(O)cs1 (cis-trans isomerization)
O=C(Cc1[n-]c(=O)[n-]c1[O-])/N=c1\[n-]c(O)cs1 (3D coordinates assigned)
O=C(Cc1[n-]c(=O)[n-]c1[O-])/N=c1\[n-]c(O)cs1 (optimized conformer: 82.47053453893825 kcal/mol)

>  <smiles>  (47) 
O=C(Cc1[nH]c(=O)[nH]c1O)N=c1[nH]c(O)cs1

>  <score_type>  (47) 
oracle

>  <origin>  (47) 
adg

>  <m_score__min__energy>  (47) 
-15.65

>  <m_primary>  (47) 
energy

$$$$
47:0
     RDKit          3D

 63 66  0  0  0  0  0  0  0  0999 V2000
   58.8450   24.2360   46.0210 O   0  0  0  0  0  0  0  0  0  0  0  0
   58.7330   25.4830   45.8740 C   0  0  0  0  0  0  0  0  0  0  0  0
   57.7910   26.0340   44.8350 C   0  0  0  0  0  0  0  0  0  0  0  0
   56.9730   27.1830   45.3630 C   0  0  0  0  0  0  0  0  0  0  0  0
   56.0570   26.9290   46.1930 O   0  0  0  0  0  0  0  0  0  0  0  0
   57.1800   28.5890   44.9230 C   0  0  0  0  0  0  0  0  0  0  0  0
   58.4920   29.0970   44.8830 C   0  0  0  0  0  0  0  0  0  0  0  0
   58.7360   30.4130   44.4870 C   0  0  0  0  0  0  0  0  0  0  0  0
   57.6780   31.2480   44.1100 C   0  0  0  0  0  0  0  0  0  0  0  0
   57.9530   32.6710   43.6960 C   0  0  0  0  0  0  0  0  0  0  0  0
   57.2790   33.6140   44.6160 N   0  0  0  0  0  0  0  0  0  0  0  0
   57.1000   33.0160   45.9470 C   0  0  0  0  0  0  0  0  0  0  0  0
   58.3170   33.3710   46.7850 C   0  0  0  0  0  0  0  0  0  0  0  0
   58.9240   34.5870   46.1100 C   0  0  0  0  0  0  0  0  0  0  0  0
   58.0960   34.8160   44.8520 C   0  0  0  0  0  0  0  0  0  0  0  0
   56.3690   30.7470   44.1280 C   0  0  0  0  0  0  0  0  0  0  0  0
   56.1160   29.4290   44.5250 C   0  0  0  0  0  0  0  0  0  0  0  0
   54.8040   28.9690   44.4940 O   0  0  0  0  0  0  0  0  0  0  0  0
   59.5820   26.3870   46.6770 C   0  0  0  0  0  0  0  0  0  0  0  0
   60.5540   26.9740   46.1290 O   0  0  0  0  0  0  0  0  0  0  0  0
   59.3340   26.5590   48.0820 N   0  0  0  0  0  0  0  0  0  0  0  0
   59.9610   27.5700   48.8910 C   0  0  0  0  0  0  0  0  0  0  0  0
   60.7470   27.1820   49.9870 C   0  0  0  0  0  0  0  0  0  0  0  0
   61.3610   28.1430   50.7930 C   0  0  0  0  0  0  0  0  0  0  0  0
   61.1860   29.5020   50.5230 C   0  0  0  0  0  0  0  0  0  0  0  0
   60.3820   29.9070   49.4490 C   0  0  0  0  0  0  0  0  0  0  0  0
   60.1510   31.6240   49.1380 S   0  0  0  0  0  0  0  0  0  0  0  0
   58.6740   31.9130   49.1310 O   0  0  0  0  0  0  0  0  0  0  0  0
   60.8040   32.4390   50.2220 O   0  0  0  0  0  0  0  0  0  0  0  0
   60.8410   32.0390   47.5820 N   0  0  0  0  0  0  0  0  0  0  0  0
   61.8850   31.0800   47.2090 C   0  0  0  0  0  0  0  0  0  0  0  0
   63.2250   31.6340   47.6700 C   0  0  0  0  0  0  0  0  0  0  0  0
   62.9830   33.1040   47.9520 C   0  0  0  0  0  0  0  0  0  0  0  0
   61.5100   33.3420   47.6480 C   0  0  0  0  0  0  0  0  0  0  0  0
   59.7650   28.9410   48.6390 C   0  0  0  0  0  0  0  0  0  0  0  0
   58.3787   26.3837   43.9734 H   0  0  0  0  0  0  0  0  0  0  0  0
   57.0981   25.2300   44.5462 H   0  0  0  0  0  0  0  0  0  0  0  0
   59.3347   28.4495   45.1671 H   0  0  0  0  0  0  0  0  0  0  0  0
   59.7669   30.7965   44.4711 H   0  0  0  0  0  0  0  0  0  0  0  0
   59.0376   32.8528   43.7208 H   0  0  0  0  0  0  0  0  0  0  0  0
   57.5673   32.8279   42.6778 H   0  0  0  0  0  0  0  0  0  0  0  0
   56.1912   33.4182   46.4184 H   0  0  0  0  0  0  0  0  0  0  0  0
   56.9954   31.9240   45.8660 H   0  0  0  0  0  0  0  0  0  0  0  0
   58.0186   33.6110   47.8162 H   0  0  0  0  0  0  0  0  0  0  0  0
   59.0308   32.5364   46.8475 H   0  0  0  0  0  0  0  0  0  0  0  0
   58.8651   35.4630   46.7727 H   0  0  0  0  0  0  0  0  0  0  0  0
   59.9871   34.4320   45.8739 H   0  0  0  0  0  0  0  0  0  0  0  0
   57.4422   35.6898   44.9901 H   0  0  0  0  0  0  0  0  0  0  0  0
   58.7549   35.0035   43.9914 H   0  0  0  0  0  0  0  0  0  0  0  0
   55.5330   31.3956   43.8274 H   0  0  0  0  0  0  0  0  0  0  0  0
   58.7320   25.8550   48.5670 H   0  0  0  0  0  0  0  0  0  0  0  0
   60.8803   26.1137   50.2127 H   0  0  0  0  0  0  0  0  0  0  0  0
   61.9843   27.8286   51.6431 H   0  0  0  0  0  0  0  0  0  0  0  0
   61.6799   30.2555   51.1542 H   0  0  0  0  0  0  0  0  0  0  0  0
   61.6940   30.1129   47.6970 H   0  0  0  0  0  0  0  0  0  0  0  0
   61.8906   30.9286   46.1195 H   0  0  0  0  0  0  0  0  0  0  0  0
   63.5606   31.1182   48.5818 H   0  0  0  0  0  0  0  0  0  0  0  0
   64.0083   31.4886   46.9115 H   0  0  0  0  0  0  0  0  0  0  0  0
   63.1996   33.3336   49.0057 H   0  0  0  0  0  0  0  0  0  0  0  0
   63.6337   33.7480   47.3423 H   0  0  0  0  0  0  0  0  0  0  0  0
   61.0591   33.9525   48.4442 H   0  0  0  0  0  0  0  0  0  0  0  0
   61.4000   33.8752   46.6922 H   0  0  0  0  0  0  0  0  0  0  0  0
   59.1246   29.2571   47.8024 H   0  0  0  0  0  0  0  0  0  0  0  0
  1  2  2  0
  2  3  1  0
  3  4  1  0
  4  5  2  0
  4  6  1  0
  6  7  2  0
  7  8  1  0
  8  9  2  0
  9 10  1  0
 10 11  1  0
 11 12  1  0
 12 13  1  0
 13 14  1  0
 14 15  1  0
  9 16  1  0
 16 17  2  0
 17 18  1  0
  2 19  1  0
 19 20  2  0
 19 21  1  0
 21 22  1  0
 22 23  2  0
 23 24  1  0
 24 25  2  0
 25 26  1  0
 26 27  1  0
 27 28  2  0
 27 29  2  0
 27 30  1  0
 30 31  1  0
 31 32  1  0
 32 33  1  0
 33 34  1  0
 26 35  2  0
 17  6  1  0
 35 22  1  0
 15 11  1  0
 34 30  1  0
  3 36  1  0
  3 37  1  0
  7 38  1  0
  8 39  1  0
 10 40  1  0
 10 41  1  0
 12 42  1  0
 12 43  1  0
 13 44  1  0
 13 45  1  0
 14 46  1  0
 14 47  1  0
 15 48  1  0
 15 49  1  0
 16 50  1  0
 21 51  1  0
 23 52  1  0
 24 53  1  0
 25 54  1  0
 31 55  1  0
 31 56  1  0
 32 57  1  0
 32 58  1  0
 33 59  1  0
 33 60  1  0
 34 61  1  0
 34 62  1  0
 35 63  1  0
M  CHG  1  18  -1
M  END
>  <UniqueID>  (48) 
46

>  <SMILES>  (48) 
O=C(CC(=O)c1ccc(CN2CCCC2)cc1[O-])C(=O)Nc1cccc(S(=O)(=O)N2CCCC2)c1

>  <Energy>  (48) 
75.42494365465915

>  <Genealogy>  (48) 
O=C(CC(=O)c1ccc(CN2CCCC2)cc1[O-])C(=O)Nc1cccc(S(=O)(=O)N2CCCC2)c1 (protonated)
O=C(CC(=O)c1ccc(CN2CCCC2)cc1[O-])C(=O)Nc1cccc(S(=O)(=O)N2CCCC2)c1 (3D coordinates assigned)
O=C(CC(=O)c1ccc(CN2CCCC2)cc1[O-])C(=O)Nc1cccc(S(=O)(=O)N2CCCC2)c1 (nonaromatic ring conformer: 75.42494365465915 kcal/mol)

>  <smiles>  (48) 
O=C(CC(=O)c1ccc(CN2CCCC2)cc1O)C(=O)Nc1cccc(S(=O)(=O)N2CCCC2)c1

>  <score_type>  (48) 
oracle

>  <origin>  (48) 
adg

>  <m_score__min__energy>  (48) 
-13.35

>  <m_primary>  (48) 
energy

$$$$
48:0
     RDKit          3D

 49 52  0  0  0  0  0  0  0  0999 V2000
   59.7810   35.3550   45.6170 O   0  0  0  0  0  0  0  0  0  0  0  0
   59.7650   34.7070   46.6950 C   0  0  0  0  0  0  0  0  0  0  0  0
   58.5040   34.4600   47.3260 N   0  0  0  0  0  0  0  0  0  0  0  0
   57.8070   33.1800   47.3430 C   0  0  0  0  0  0  0  0  0  0  0  0
   57.9310   32.5310   45.9920 C   0  0  0  0  0  0  0  0  0  0  0  0
   58.2590   31.1670   45.9180 C   0  0  0  0  0  0  0  0  0  0  0  0
   58.3150   30.5070   44.6840 C   0  0  0  0  0  0  0  0  0  0  0  0
   58.6010   29.0980   44.6700 N   0  0  0  0  0  0  0  0  0  0  0  0
   60.0030   28.3730   45.3920 S   0  0  0  0  0  0  0  0  0  0  0  0
   61.1920   28.5910   44.4960 O   0  0  0  0  0  0  0  0  0  0  0  0
   59.7760   26.8950   45.5580 O   0  0  0  0  0  0  0  0  0  0  0  0
   60.3350   29.1280   46.9490 C   0  0  0  0  0  0  0  0  0  0  0  0
   61.1390   30.2670   47.0330 C   0  0  0  0  0  0  0  0  0  0  0  0
   61.4200   30.8380   48.2750 C   0  0  0  0  0  0  0  0  0  0  0  0
   60.8930   30.2810   49.4410 C   0  0  0  0  0  0  0  0  0  0  0  0
   61.2480   31.0020   50.9970 Cl  0  0  0  0  0  0  0  0  0  0  0  0
   60.0840   29.1500   49.3610 C   0  0  0  0  0  0  0  0  0  0  0  0
   59.8010   28.5750   48.1210 C   0  0  0  0  0  0  0  0  0  0  0  0
   58.0700   31.2290   43.5060 C   0  0  0  0  0  0  0  0  0  0  0  0
   57.7380   32.5820   43.5690 C   0  0  0  0  0  0  0  0  0  0  0  0
   57.6550   33.2410   44.8050 C   0  0  0  0  0  0  0  0  0  0  0  0
   57.2920   34.5910   44.8550 O   0  0  0  0  0  0  0  0  0  0  0  0
   61.0440   34.2260   47.2570 C   0  0  0  0  0  0  0  0  0  0  0  0
   62.0850   33.8370   46.3940 C   0  0  0  0  0  0  0  0  0  0  0  0
   63.3230   33.4360   46.9090 C   0  0  0  0  0  0  0  0  0  0  0  0
   63.5300   33.4270   48.2920 C   0  0  0  0  0  0  0  0  0  0  0  0
   62.5130   33.8510   49.1580 C   0  0  0  0  0  0  0  0  0  0  0  0
   61.2750   34.2470   48.6440 C   0  0  0  0  0  0  0  0  0  0  0  0
   62.7590   33.8830   50.5350 O   0  0  0  0  0  0  0  0  0  0  0  0
   64.0870   33.7670   51.0480 C   0  0  0  0  0  0  0  0  0  0  0  0
   64.8880   32.7470   50.2270 C   0  0  0  0  0  0  0  0  0  0  0  0
   64.7510   33.0100   48.8280 O   0  0  0  0  0  0  0  0  0  0  0  0
   58.2547   32.5275   48.1070 H   0  0  0  0  0  0  0  0  0  0  0  0
   56.7448   33.3409   47.5794 H   0  0  0  0  0  0  0  0  0  0  0  0
   58.4747   30.6099   46.8416 H   0  0  0  0  0  0  0  0  0  0  0  0
   61.5520   30.7154   46.1174 H   0  0  0  0  0  0  0  0  0  0  0  0
   62.0596   31.7309   48.3352 H   0  0  0  0  0  0  0  0  0  0  0  0
   59.6667   28.7085   50.2780 H   0  0  0  0  0  0  0  0  0  0  0  0
   59.1569   27.6851   48.0634 H   0  0  0  0  0  0  0  0  0  0  0  0
   58.1400   30.7263   42.5301 H   0  0  0  0  0  0  0  0  0  0  0  0
   57.5393   33.1379   42.6408 H   0  0  0  0  0  0  0  0  0  0  0  0
   57.6480   35.2080   45.5710 H   0  0  0  0  0  0  0  0  0  0  0  0
   61.9245   33.8482   45.3058 H   0  0  0  0  0  0  0  0  0  0  0  0
   64.1306   33.1289   46.2282 H   0  0  0  0  0  0  0  0  0  0  0  0
   60.4782   34.5764   49.3271 H   0  0  0  0  0  0  0  0  0  0  0  0
   64.5838   34.7469   50.9938 H   0  0  0  0  0  0  0  0  0  0  0  0
   64.0385   33.4264   52.0928 H   0  0  0  0  0  0  0  0  0  0  0  0
   65.9502   32.8129   50.5052 H   0  0  0  0  0  0  0  0  0  0  0  0
   64.5018   31.7390   50.4384 H   0  0  0  0  0  0  0  0  0  0  0  0
  1  2  2  0
  2  3  1  0
  3  4  1  0
  4  5  1  0
  5  6  2  0
  6  7  1  0
  7  8  1  0
  8  9  1  0
  9 10  2  0
  9 11  2  0
  9 12  1  0
 12 13  2  0
 13 14  1  0
 14 15  2  0
 15 16  1  0
 15 17  1  0
 17 18  2  0
  7 19  2  0
 19 20  1  0
 20 21  2  0
 21 22  1  0
  2 23  1  0
 23 24  2  0
 24 25  1  0
 25 26  2  0
 26 27  1  0
 27 28  2  0
 27 29  1  0
 29 30  1  0
 30 31  1  0
 31 32  1  0
 21  5  1  0
 28 23  1  0
 18 12  1  0
 32 26  1  0
  4 33  1  0
  4 34  1  0
  6 35  1  0
 13 36  1  0
 14 37  1  0
 17 38  1  0
 18 39  1  0
 19 40  1  0
 20 41  1  0
 22 42  1  0
 24 43  1  0
 25 44  1  0
 28 45  1  0
 30 46  1  0
 30 47  1  0
 31 48  1  0
 31 49  1  0
M  CHG  2   3  -1   8  -1
M  END
>  <UniqueID>  (49) 
47

>  <SMILES>  (49) 
O=C([N-]Cc1cc([N-]S(=O)(=O)c2ccc(Cl)cc2)ccc1O)c1ccc2c(c1)OCCO2

>  <Energy>  (49) 
61.68412600276569

>  <Genealogy>  (49) 
O=C([N-]Cc1cc([N-]S(=O)(=O)c2ccc(Cl)cc2)ccc1O)c1ccc2c(c1)OCCO2 (protonated)
O=C([N-]Cc1cc([N-]S(=O)(=O)c2ccc(Cl)cc2)ccc1O)c1ccc2c(c1)OCCO2 (3D coordinates assigned)
O=C([N-]Cc1cc([N-]S(=O)(=O)c2ccc(Cl)cc2)ccc1O)c1ccc2c(c1)OCCO2 (nonaromatic ring conformer: 61.68412600276569 kcal/mol)

>  <smiles>  (49) 
O=C(NCc1cc(NS(=O)(=O)c2ccc(Cl)cc2)ccc1O)c1ccc2c(c1)OCCO2

>  <score_type>  (49) 
oracle

>  <origin>  (49) 
adg

>  <m_score__min__energy>  (49) 
-12.220000000000001

>  <m_primary>  (49) 
energy

$$$$
49:0
     RDKit          3D

 37 39  0  0  0  0  0  0  0  0999 V2000
   59.1060   35.8130   47.9980 H   0  0  0  0  0  0  0  0  0  0  0  0
   59.2410   35.6840   47.0020 O   0  0  0  0  0  0  0  0  0  0  0  0
   58.9610   34.4770   46.3640 C   0  0  0  0  0  0  0  0  0  0  0  0
   58.8660   34.4580   44.9680 C   0  0  0  0  0  0  0  0  0  0  0  0
   59.0152   35.3863   44.3970 H   0  0  0  0  0  0  0  0  0  0  0  0
   58.5830   33.2680   44.2960 C   0  0  0  0  0  0  0  0  0  0  0  0
   58.5286   33.2596   43.1974 H   0  0  0  0  0  0  0  0  0  0  0  0
   58.3680   32.0850   45.0130 C   0  0  0  0  0  0  0  0  0  0  0  0
   58.1170   30.8290   44.2780 C   0  0  0  0  0  0  0  0  0  0  0  0
   58.6287   30.6918   43.3140 H   0  0  0  0  0  0  0  0  0  0  0  0
   57.3100   29.8420   44.7000 C   0  0  0  0  0  0  0  0  0  0  0  0
   57.7820   28.6960   45.2230 N   0  0  0  0  0  0  0  0  0  0  0  0
   56.6740   27.9640   45.5020 C   0  0  0  0  0  0  0  0  0  0  0  0
   56.7180   26.7310   46.0540 C   0  0  0  0  0  0  0  0  0  0  0  0
   55.7320   25.7680   45.7520 C   0  0  0  0  0  0  0  0  0  0  0  0
   54.9171   26.0237   45.0587 H   0  0  0  0  0  0  0  0  0  0  0  0
   55.7780   24.4930   46.3230 C   0  0  0  0  0  0  0  0  0  0  0  0
   55.0008   23.7550   46.0753 H   0  0  0  0  0  0  0  0  0  0  0  0
   56.8100   24.1480   47.2110 C   0  0  0  0  0  0  0  0  0  0  0  0
   56.8530   22.9280   47.7570 C   0  0  0  0  0  0  0  0  0  0  0  0
   57.6642   22.6646   48.4517 H   0  0  0  0  0  0  0  0  0  0  0  0
   56.0772   22.1879   47.5114 H   0  0  0  0  0  0  0  0  0  0  0  0
   57.7950   25.1000   47.5170 C   0  0  0  0  0  0  0  0  0  0  0  0
   58.6082   24.8399   48.2105 H   0  0  0  0  0  0  0  0  0  0  0  0
   57.7510   26.3750   46.9480 C   0  0  0  0  0  0  0  0  0  0  0  0
   58.5300   27.1099   47.1993 H   0  0  0  0  0  0  0  0  0  0  0  0
   55.5200   28.5900   45.1660 N   0  0  0  0  0  0  0  0  0  0  0  0
   55.9320   29.7630   44.6610 C   0  0  0  0  0  0  0  0  0  0  0  0
   55.1420   30.6220   44.1880 O   0  0  0  0  0  0  0  0  0  0  0  0
   58.4960   32.0930   46.4120 C   0  0  0  0  0  0  0  0  0  0  0  0
   58.3734   31.1568   46.9763 H   0  0  0  0  0  0  0  0  0  0  0  0
   58.7800   33.2900   47.0980 C   0  0  0  0  0  0  0  0  0  0  0  0
   58.8910   33.3350   48.4980 O   0  0  0  0  0  0  0  0  0  0  0  0
   58.8560   32.1930   49.3470 C   0  0  0  0  0  0  0  0  0  0  0  0
   58.8659   32.5171   50.3981 H   0  0  0  0  0  0  0  0  0  0  0  0
   57.9398   31.6172   49.1495 H   0  0  0  0  0  0  0  0  0  0  0  0
   59.7352   31.5622   49.1495 H   0  0  0  0  0  0  0  0  0  0  0  0
  1  2  1  0
  2  3  1  0
  3  4  2  0
  4  5  1  0
  4  6  1  0
  6  7  1  0
  6  8  2  0
  8  9  1  0
  9 10  1  0
  9 11  2  0
 11 12  1  0
 12 13  1  0
 13 14  2  3
 14 15  1  0
 15 16  1  0
 15 17  2  0
 17 18  1  0
 17 19  1  0
 19 20  2  0
 20 21  1  0
 20 22  1  0
 19 23  1  0
 23 24  1  0
 23 25  2  0
 25 26  1  0
 13 27  1  0
 27 28  1  0
 28 29  2  0
  8 30  1  0
 30 31  1  0
 30 32  2  0
 32 33  1  0
 33 34  1  0
 34 35  1  0
 34 36  1  0
 34 37  1  0
 32  3  1  0
 28 11  1  0
 25 14  1  0
M  CHG  2  12  -1  27  -1
M  END
>  <UniqueID>  (50) 
48

>  <SMILES>  (50) 
C=c1ccc(=c2[n-]c(=O)/c(=C\c3ccc(O)c(OC)c3)[n-]2)cc1

>  <Energy>  (50) 
81.12411971266714

>  <Genealogy>  (50) 
C=c1ccc(=c2[n-]c(=O)c(=Cc3ccc(O)c(OC)c3)[n-]2)cc1 (protonated)
C=c1ccc(=c2[n-]c(=O)/c(=C\c3ccc(O)c(OC)c3)[n-]2)cc1 (cis-trans isomerization)
C=c1ccc(=c2[n-]c(=O)/c(=C\c3ccc(O)c(OC)c3)[n-]2)cc1 (3D coordinates assigned)
C=c1ccc(=c2[n-]c(=O)/c(=C\c3ccc(O)c(OC)c3)[n-]2)cc1 (optimized conformer: 81.12411971266714 kcal/mol)

>  <smiles>  (50) 
C=c1ccc(=c2[nH]c(=O)c(=Cc3ccc(O)c(OC)c3)[nH]2)cc1

>  <score_type>  (50) 
oracle

>  <origin>  (50) 
adg

>  <m_score__min__energy>  (50) 
-10.869999999999999

>  <m_primary>  (50) 
energy

$$$$
50:0
     RDKit          3D

 70 74  0  0  1  0  0  0  0  0999 V2000
   58.2340   34.2470   52.6840 C   0  0  0  0  0  0  0  0  0  0  0  0
   58.0540   32.9190   52.0300 C   0  0  0  0  0  0  0  0  0  0  0  0
   56.9320   32.1920   52.3030 C   0  0  0  0  0  0  0  0  0  0  0  0
   56.7730   30.9600   51.7140 C   0  0  0  0  0  0  0  0  0  0  0  0
   57.7710   30.5320   50.8750 C   0  0  0  0  0  0  0  0  0  0  0  0
   58.9210   31.2830   50.5990 C   0  0  0  0  0  0  0  0  0  0  0  0
   59.8870   30.6790   49.6760 C   0  0  0  0  0  0  0  0  0  0  0  0
   59.0820   32.5190   51.1880 C   0  0  0  0  0  0  0  0  0  0  0  0
   60.2690   33.4090   50.9420 C   0  0  0  0  0  0  0  0  0  0  0  0
   58.8790   34.9560   45.6060 N   0  0  0  0  0  0  0  0  0  0  0  0
   59.7680   34.5950   46.4540 C   0  0  0  0  0  0  0  0  0  0  0  0
   59.5060   34.6050   47.7690 N   0  0  0  0  0  0  0  0  0  0  0  0
   60.4330   34.2350   48.6950 C   0  0  0  0  0  0  0  0  0  0  0  0
   60.1580   34.2320   49.8650 N   0  0  0  0  0  0  0  0  0  0  0  0
   57.6180   34.3070   45.3620 C   0  0  0  0  0  0  0  0  0  0  0  0
   57.7740   32.8120   45.3780 C   0  0  0  0  0  0  0  0  0  0  0  0
   57.6660   32.0540   44.2390 C   0  0  0  0  0  0  0  0  0  0  0  0
   57.8150   30.6700   44.2280 C   0  0  0  0  0  0  0  0  0  0  0  0
   58.0870   30.0530   45.4430 C   0  0  0  0  0  0  0  0  0  0  0  0
   58.2150   28.6550   45.4360 N   0  0  0  0  0  0  0  0  0  0  0  0
   58.7570   27.8670   46.5230 C   0  0  0  0  0  0  0  0  0  0  0  0
   57.6360   27.0170   47.0710 C   0  0  0  0  0  0  0  0  0  0  0  0
   57.0780   26.1600   45.9700 C   0  0  0  0  0  0  0  0  0  0  0  0
   55.6360   26.2990   45.9460 N   0  0  0  0  0  0  0  0  0  0  0  0
   57.6750   26.4550   44.6390 C   0  0  0  0  0  0  0  0  0  0  0  0
   57.7550   27.8970   44.2670 C   0  0  0  0  0  0  0  0  0  0  0  0
   58.1900   30.8330   46.5700 C   0  0  0  0  0  0  0  0  0  0  0  0
   58.0440   32.1990   46.5920 C   0  0  0  0  0  0  0  0  0  0  0  0
   60.9670   34.2170   45.9920 N   0  0  0  0  0  0  0  0  0  0  0  0
   61.8870   33.8500   46.9060 C   0  0  0  0  0  0  0  0  0  0  0  0
   63.1110   33.4600   46.4340 C   0  0  0  0  0  0  0  0  0  0  0  0
   64.0510   33.0860   47.3610 C   0  0  0  0  0  0  0  0  0  0  0  0
   63.8560   33.0740   48.7110 C   0  0  0  0  0  0  0  0  0  0  0  0
   64.9050   32.6680   49.5920 C   0  0  0  0  0  0  0  0  0  0  0  0
   65.7570   32.3530   50.3130 N   0  0  0  0  0  0  0  0  0  0  0  0
   62.5890   33.4770   49.1960 C   0  0  0  0  0  0  0  0  0  0  0  0
   61.6810   33.8390   48.2570 C   0  0  0  0  0  0  0  0  0  0  0  0
   58.2172   34.1228   53.7768 H   0  0  0  0  0  0  0  0  0  0  0  0
   59.1988   34.6783   52.3788 H   0  0  0  0  0  0  0  0  0  0  0  0
   57.4188   34.9195   52.3788 H   0  0  0  0  0  0  0  0  0  0  0  0
   56.1648   32.5865   52.9854 H   0  0  0  0  0  0  0  0  0  0  0  0
   55.8830   30.3431   51.9072 H   0  0  0  0  0  0  0  0  0  0  0  0
   57.6624   29.5485   50.3944 H   0  0  0  0  0  0  0  0  0  0  0  0
   60.6821   30.1819   50.2510 H   0  0  0  0  0  0  0  0  0  0  0  0
   59.3756   29.9395   49.0423 H   0  0  0  0  0  0  0  0  0  0  0  0
   60.3280   31.4625   49.0423 H   0  0  0  0  0  0  0  0  0  0  0  0
   60.4175   34.0340   51.8349 H   0  0  0  0  0  0  0  0  0  0  0  0
   61.1160   32.7397   50.7309 H   0  0  0  0  0  0  0  0  0  0  0  0
   58.5440   34.9160   48.0420 H   0  0  0  0  0  0  0  0  0  0  0  0
   56.9030   34.6032   46.1437 H   0  0  0  0  0  0  0  0  0  0  0  0
   57.2508   34.6121   44.3710 H   0  0  0  0  0  0  0  0  0  0  0  0
   57.4513   32.5648   43.2888 H   0  0  0  0  0  0  0  0  0  0  0  0
   57.7215   30.0900   43.2980 H   0  0  0  0  0  0  0  0  0  0  0  0
   59.5689   27.2241   46.1522 H   0  0  0  0  0  0  0  0  0  0  0  0
   59.1670   28.5199   47.3076 H   0  0  0  0  0  0  0  0  0  0  0  0
   58.0219   26.3750   47.8765 H   0  0  0  0  0  0  0  0  0  0  0  0
   56.8429   27.6663   47.4702 H   0  0  0  0  0  0  0  0  0  0  0  0
   57.3472   25.1154   46.1853 H   0  0  0  0  0  0  0  0  0  0  0  0
   55.2840   26.0820   45.0100 H   0  0  0  0  0  0  0  0  0  0  0  0
   55.1730   25.8210   46.7370 H   0  0  0  0  0  0  0  0  0  0  0  0
   58.6966   26.0472   44.6298 H   0  0  0  0  0  0  0  0  0  0  0  0
   57.0016   25.9939   43.9015 H   0  0  0  0  0  0  0  0  0  0  0  0
   58.4655   28.0272   43.4374 H   0  0  0  0  0  0  0  0  0  0  0  0
   56.7664   28.2592   43.9483 H   0  0  0  0  0  0  0  0  0  0  0  0
   58.4048   30.3272   47.5229 H   0  0  0  0  0  0  0  0  0  0  0  0
   58.1365   32.7761   47.5239 H   0  0  0  0  0  0  0  0  0  0  0  0
   61.1420   34.2190   44.9650 H   0  0  0  0  0  0  0  0  0  0  0  0
   63.3320   33.4469   45.3565 H   0  0  0  0  0  0  0  0  0  0  0  0
   65.0367   32.7720   46.9871 H   0  0  0  0  0  0  0  0  0  0  0  0
   62.3551   33.4954   50.2707 H   0  0  0  0  0  0  0  0  0  0  0  0
  1  2  1  0
  2  3  2  0
  3  4  1  0
  4  5  2  0
  5  6  1  0
  6  7  1  0
  6  8  2  0
  8  9  1  0
  9 10  1  0
 10 11  2  0
 11 12  1  0
 12 13  1  0
 13 14  2  0
 14 15  1  0
 15 16  1  0
 16 17  2  0
 17 18  1  0
 18 19  2  0
 19 20  1  0
 20 21  1  0
 21 22  1  0
 22 23  1  0
 23 24  1  0
 23 25  1  0
 25 26  1  0
 19 27  1  0
 27 28  2  0
 13 29  1  0
 29 30  1  0
 30 31  2  0
 31 32  1  0
 32 33  2  0
 33 34  1  0
 34 35  3  0
 33 36  1  0
 36 37  2  0
  8  2  1  0
 37 11  1  0
 28 16  1  0
 37 30  1  0
 26 20  1  0
  1 38  1  0
  1 39  1  0
  1 40  1  0
  3 41  1  0
  4 42  1  0
  5 43  1  0
  7 44  1  0
  7 45  1  0
  7 46  1  0
  9 47  1  0
  9 48  1  0
 12 49  1  0
 15 50  1  0
 15 51  1  0
 17 52  1  0
 18 53  1  0
 21 54  1  0
 21 55  1  0
 22 56  1  0
 22 57  1  0
 23 58  1  0
 24 59  1  0
 24 60  1  0
 25 61  1  0
 25 62  1  0
 26 63  1  0
 26 64  1  0
 27 65  1  0
 28 66  1  0
 29 67  1  0
 31 68  1  0
 32 69  1  0
 36 70  1  0
M  END
>  <smiles>  (51) 
Cc1cccc(C)c1CN=c1[nH]c(=NCc2ccc(N3CCC(N)CC3)cc2)[nH]c2ccc(C#N)cc12

>  <score_type>  (51) 
oracle

>  <origin>  (51) 
adg

>  <m_score__min__energy>  (51) 
-10.75

>  <m_primary>  (51) 
energy

$$$$
51:0
     RDKit          3D

 46 48  0  0  0  0  0  0  0  0999 V2000
   57.3830   30.4440   51.2440 O   0  0  0  0  0  0  0  0  0  0  0  0
   58.1190   31.4630   51.1690 C   0  0  0  0  0  0  0  0  0  0  0  0
   59.0390   31.6580   50.0230 C   0  0  0  0  0  0  0  0  0  0  0  0
   60.2760   32.1710   50.1900 C   0  0  0  0  0  0  0  0  0  0  0  0
   61.2640   32.3770   49.1060 C   0  0  0  0  0  0  0  0  0  0  0  0
   61.7120   33.6670   48.7700 C   0  0  0  0  0  0  0  0  0  0  0  0
   62.6860   33.8410   47.7840 C   0  0  0  0  0  0  0  0  0  0  0  0
   63.2360   32.7290   47.1400 C   0  0  0  0  0  0  0  0  0  0  0  0
   62.8120   31.4410   47.4820 C   0  0  0  0  0  0  0  0  0  0  0  0
   61.8390   31.2610   48.4700 C   0  0  0  0  0  0  0  0  0  0  0  0
   61.4460   30.0030   48.7970 F   0  0  0  0  0  0  0  0  0  0  0  0
   58.5620   31.3770   48.6490 C   0  0  0  0  0  0  0  0  0  0  0  0
   58.8250   30.2710   48.1000 O   0  0  0  0  0  0  0  0  0  0  0  0
   57.8100   32.3610   47.9310 N   0  0  0  0  0  0  0  0  0  0  0  0
   58.2920   33.0780   46.7840 C   0  0  0  0  0  0  0  0  0  0  0  0
   59.0130   34.2610   46.9960 C   0  0  0  0  0  0  0  0  0  0  0  0
   59.4870   35.0060   45.9150 C   0  0  0  0  0  0  0  0  0  0  0  0
   59.2720   34.5590   44.6110 C   0  0  0  0  0  0  0  0  0  0  0  0
   58.5940   33.3590   44.3840 C   0  0  0  0  0  0  0  0  0  0  0  0
   58.0890   32.6100   45.4620 C   0  0  0  0  0  0  0  0  0  0  0  0
   57.4760   31.2890   45.1960 C   0  0  0  0  0  0  0  0  0  0  0  0
   56.2670   31.2600   44.8350 O   0  0  0  0  0  0  0  0  0  0  0  0
   58.2150   30.0520   45.3330 N   0  0  0  0  0  0  0  0  0  0  0  0
   57.5280   28.7830   45.0580 C   0  0  0  0  0  0  0  0  0  0  0  0
   58.2270   27.6370   45.7930 C   0  0  0  0  0  0  0  0  0  0  0  0
   59.6060   27.6130   45.4810 O   0  0  0  0  0  0  0  0  0  0  0  0
   60.2250   28.7830   45.9800 C   0  0  0  0  0  0  0  0  0  0  0  0
   59.6850   30.0340   45.2750 C   0  0  0  0  0  0  0  0  0  0  0  0
   58.0787   32.2200   51.9660 H   0  0  0  0  0  0  0  0  0  0  0  0
   60.5733   32.4582   51.2094 H   0  0  0  0  0  0  0  0  0  0  0  0
   61.2933   34.5434   49.2863 H   0  0  0  0  0  0  0  0  0  0  0  0
   63.0204   34.8536   47.5142 H   0  0  0  0  0  0  0  0  0  0  0  0
   64.0029   32.8671   46.3636 H   0  0  0  0  0  0  0  0  0  0  0  0
   63.2449   30.5674   46.9726 H   0  0  0  0  0  0  0  0  0  0  0  0
   59.2069   34.6052   48.0226 H   0  0  0  0  0  0  0  0  0  0  0  0
   60.0303   35.9460   46.0913 H   0  0  0  0  0  0  0  0  0  0  0  0
   59.6371   35.1527   43.7600 H   0  0  0  0  0  0  0  0  0  0  0  0
   58.4540   32.9972   43.3547 H   0  0  0  0  0  0  0  0  0  0  0  0
   56.4849   28.8523   45.4003 H   0  0  0  0  0  0  0  0  0  0  0  0
   57.5544   28.5862   43.9761 H   0  0  0  0  0  0  0  0  0  0  0  0
   58.1041   27.7748   46.8774 H   0  0  0  0  0  0  0  0  0  0  0  0
   57.7753   26.6852   45.4766 H   0  0  0  0  0  0  0  0  0  0  0  0
   60.0253   28.8635   47.0587 H   0  0  0  0  0  0  0  0  0  0  0  0
   61.3067   28.7144   45.7925 H   0  0  0  0  0  0  0  0  0  0  0  0
   60.0798   30.9316   45.7735 H   0  0  0  0  0  0  0  0  0  0  0  0
   60.0037   30.0199   44.2223 H   0  0  0  0  0  0  0  0  0  0  0  0
  1  2  2  0
  2  3  1  0
  3  4  2  3
  4  5  1  0
  5  6  2  0
  6  7  1  0
  7  8  2  0
  8  9  1  0
  9 10  2  0
 10 11  1  0
  3 12  1  0
 12 13  2  0
 12 14  1  0
 14 15  1  0
 15 16  2  0
 16 17  1  0
 17 18  2  0
 18 19  1  0
 19 20  2  0
 20 21  1  0
 21 22  2  0
 21 23  1  0
 23 24  1  0
 24 25  1  0
 25 26  1  0
 26 27  1  0
 27 28  1  0
 10  5  1  0
 20 15  1  0
 28 23  1  0
  2 29  1  0
  4 30  1  0
  6 31  1  0
  7 32  1  0
  8 33  1  0
  9 34  1  0
 16 35  1  0
 17 36  1  0
 18 37  1  0
 19 38  1  0
 24 39  1  0
 24 40  1  0
 25 41  1  0
 25 42  1  0
 27 43  1  0
 27 44  1  0
 28 45  1  0
 28 46  1  0
M  CHG  1  14  -1
M  END
>  <UniqueID>  (52) 
49

>  <SMILES>  (52) 
O=CC(=Cc1ccccc1F)C(=O)[N-]c1ccccc1C(=O)N1CCOCC1

>  <Energy>  (52) 
70.55177925808444

>  <Genealogy>  (52) 
O=CC(=Cc1ccccc1F)C(=O)[N-]c1ccccc1C(=O)N1CCOCC1 (protonated)
O=CC(=Cc1ccccc1F)C(=O)[N-]c1ccccc1C(=O)N1CCOCC1 (3D coordinates assigned)
O=CC(=Cc1ccccc1F)C(=O)[N-]c1ccccc1C(=O)N1CCOCC1 (nonaromatic ring conformer: 70.55177925808444 kcal/mol)

>  <smiles>  (52) 
O=CC(=Cc1ccccc1F)C(=O)Nc1ccccc1C(=O)N1CCOCC1

>  <score_type>  (52) 
oracle

>  <origin>  (52) 
adg

>  <m_score__min__energy>  (52) 
-10.970000000000001

>  <m_primary>  (52) 
energy

$$$$
52:0
     RDKit          3D

 63 68  0  0  0  0  0  0  0  0999 V2000
   59.1810   33.5300   51.7940 C   0  0  0  0  0  0  0  0  0  0  0  0
   60.4200   33.2950   51.0040 C   0  0  0  0  0  0  0  0  0  0  0  0
   60.7110   34.0910   49.8950 C   0  0  0  0  0  0  0  0  0  0  0  0
   61.8610   33.5900   49.3530 C   0  0  0  0  0  0  0  0  0  0  0  0
   62.5660   34.0140   48.2510 C   0  0  0  0  0  0  0  0  0  0  0  0
   63.7190   33.3580   47.8740 C   0  0  0  0  0  0  0  0  0  0  0  0
   64.1200   32.2930   48.6250 C   0  0  0  0  0  0  0  0  0  0  0  0
   63.4050   31.8720   49.7320 C   0  0  0  0  0  0  0  0  0  0  0  0
   62.2330   32.5200   50.1360 C   0  0  0  0  0  0  0  0  0  0  0  0
   61.3570   32.3350   51.1470 N   0  0  0  0  0  0  0  0  0  0  0  0
   61.4290   31.2680   52.0550 C   0  0  0  0  0  0  0  0  0  0  0  0
   61.1060   31.5350   53.2680 O   0  0  0  0  0  0  0  0  0  0  0  0
   61.8200   29.9050   51.8140 C   0  0  0  0  0  0  0  0  0  0  0  0
   62.9930   29.3930   52.2950 N   0  0  0  0  0  0  0  0  0  0  0  0
   63.0950   28.1100   52.0070 N   0  0  0  0  0  0  0  0  0  0  0  0
   64.2270   27.2870   52.3810 C   0  0  0  0  0  0  0  0  0  0  0  0
   63.8020   25.9110   52.7600 C   0  0  0  0  0  0  0  0  0  0  0  0
   63.5860   25.5500   53.9370 O   0  0  0  0  0  0  0  0  0  0  0  0
   63.6470   25.0040   51.7100 O   0  0  0  0  0  0  0  0  0  0  0  0
   61.9790   27.8000   51.3390 C   0  0  0  0  0  0  0  0  0  0  0  0
   61.7440   26.6420   50.9060 O   0  0  0  0  0  0  0  0  0  0  0  0
   61.1840   28.8850   51.2120 N   0  0  0  0  0  0  0  0  0  0  0  0
   59.8910   28.8200   50.5820 C   0  0  0  0  0  0  0  0  0  0  0  0
   59.7760   29.8680   49.5020 C   0  0  0  0  0  0  0  0  0  0  0  0
   60.7070   29.9710   48.4910 C   0  0  0  0  0  0  0  0  0  0  0  0
   60.5290   30.9650   47.5280 C   0  0  0  0  0  0  0  0  0  0  0  0
   59.4580   31.8370   47.5600 C   0  0  0  0  0  0  0  0  0  0  0  0
   59.2440   32.8830   46.5710 C   0  0  0  0  0  0  0  0  0  0  0  0
   59.7370   34.1410   46.8540 C   0  0  0  0  0  0  0  0  0  0  0  0
   59.5750   35.1980   45.9870 C   0  0  0  0  0  0  0  0  0  0  0  0
   58.8920   34.9400   44.8140 C   0  0  0  0  0  0  0  0  0  0  0  0
   58.4000   33.6850   44.5310 C   0  0  0  0  0  0  0  0  0  0  0  0
   58.5650   32.6330   45.4000 C   0  0  0  0  0  0  0  0  0  0  0  0
   58.0570   31.3040   45.1020 C   0  0  0  0  0  0  0  0  0  0  0  0
   56.8400   30.9370   44.9640 N   0  0  0  0  0  0  0  0  0  0  0  0
   56.3100   29.8840   44.7270 C   0  0  0  0  0  0  0  0  0  0  0  0
   55.1980   29.3370   44.5580 O   0  0  0  0  0  0  0  0  0  0  0  0
   57.8730   28.8090   44.5960 S   0  0  0  0  0  0  0  0  0  0  0  0
   58.9860   30.2120   44.9360 N   0  0  0  0  0  0  0  0  0  0  0  0
   58.5230   31.7310   48.5770 C   0  0  0  0  0  0  0  0  0  0  0  0
   58.7050   30.7430   49.5300 C   0  0  0  0  0  0  0  0  0  0  0  0
   59.4166   33.4853   52.8675 H   0  0  0  0  0  0  0  0  0  0  0  0
   58.7726   34.5216   51.5492 H   0  0  0  0  0  0  0  0  0  0  0  0
   58.4379   32.7568   51.5492 H   0  0  0  0  0  0  0  0  0  0  0  0
   60.1301   34.9508   49.5299 H   0  0  0  0  0  0  0  0  0  0  0  0
   62.2099   34.8773   47.6697 H   0  0  0  0  0  0  0  0  0  0  0  0
   64.2963   33.6834   46.9960 H   0  0  0  0  0  0  0  0  0  0  0  0
   65.0366   31.7541   48.3431 H   0  0  0  0  0  0  0  0  0  0  0  0
   63.7666   31.0074   50.3080 H   0  0  0  0  0  0  0  0  0  0  0  0
   64.9202   27.2248   51.5292 H   0  0  0  0  0  0  0  0  0  0  0  0
   64.7156   27.7486   53.2517 H   0  0  0  0  0  0  0  0  0  0  0  0
   63.0190   25.1490   50.9470 H   0  0  0  0  0  0  0  0  0  0  0  0
   59.7555   27.8238   50.1356 H   0  0  0  0  0  0  0  0  0  0  0  0
   59.1160   29.0043   51.3405 H   0  0  0  0  0  0  0  0  0  0  0  0
   61.5677   29.2876   48.4445 H   0  0  0  0  0  0  0  0  0  0  0  0
   61.2659   31.0573   46.7165 H   0  0  0  0  0  0  0  0  0  0  0  0
   60.2749   34.3035   47.7997 H   0  0  0  0  0  0  0  0  0  0  0  0
   59.9699   36.1986   46.2168 H   0  0  0  0  0  0  0  0  0  0  0  0
   58.7379   35.7543   44.0907 H   0  0  0  0  0  0  0  0  0  0  0  0
   57.8616   33.5206   43.5860 H   0  0  0  0  0  0  0  0  0  0  0  0
   59.9870   30.2110   44.9890 H   0  0  0  0  0  0  0  0  0  0  0  0
   57.6607   32.4122   48.6260 H   0  0  0  0  0  0  0  0  0  0  0  0
   57.9685   30.6503   50.3417 H   0  0  0  0  0  0  0  0  0  0  0  0
  1  2  1  0
  2  3  2  0
  3  4  1  0
  4  5  2  0
  5  6  1  0
  6  7  2  0
  7  8  1  0
  8  9  2  0
  9 10  1  0
 10 11  1  0
 11 12  2  0
 11 13  1  0
 13 14  2  0
 14 15  1  0
 15 16  1  0
 16 17  1  0
 17 18  2  0
 17 19  1  0
 15 20  1  0
 20 21  2  0
 20 22  1  0
 22 23  1  0
 23 24  1  0
 24 25  2  0
 25 26  1  0
 26 27  2  0
 27 28  1  0
 28 29  2  0
 29 30  1  0
 30 31  2  0
 31 32  1  0
 32 33  2  0
 33 34  1  0
 34 35  2  0
 35 36  1  0
 36 37  2  0
 36 38  1  0
 38 39  1  0
 27 40  1  0
 40 41  2  0
 10  2  1  0
 22 13  1  0
 41 24  1  0
  9  4  1  0
 33 28  1  0
 39 34  1  0
  1 42  1  0
  1 43  1  0
  1 44  1  0
  3 45  1  0
  5 46  1  0
  6 47  1  0
  7 48  1  0
  8 49  1  0
 16 50  1  0
 16 51  1  0
 19 52  1  0
 23 53  1  0
 23 54  1  0
 25 55  1  0
 26 56  1  0
 29 57  1  0
 30 58  1  0
 31 59  1  0
 32 60  1  0
 39 61  1  0
 40 62  1  0
 41 63  1  0
M  END
>  <smiles>  (53) 
Cc1cc2ccccc2n1C(=O)c1nn(CC(=O)O)c(=O)n1Cc1ccc(-c2ccccc2-c2nc(=O)s[nH]2)cc1

>  <score_type>  (53) 
oracle

>  <origin>  (53) 
adg

>  <m_score__min__energy>  (53) 
-11.49

>  <m_primary>  (53) 
energy

$$$$
53:0
     RDKit          3D

 64 69  0  0  0  0  0  0  0  0999 V2000
   61.3406   25.8031   46.0846 H   0  0  0  0  0  0  0  0  0  0  0  0
   60.4180   26.3690   46.2810 C   0  0  0  0  0  0  0  0  0  0  0  0
   59.2500   25.7510   46.0980 C   0  0  0  0  0  0  0  0  0  0  0  0
   58.7650   24.4290   45.8150 C   0  0  0  0  0  0  0  0  0  0  0  0
   59.2630   23.2890   45.6200 O   0  0  0  0  0  0  0  0  0  0  0  0
   57.4530   24.9790   45.8150 N   0  0  0  0  0  0  0  0  0  0  0  0
   56.1280   25.0060   45.7080 C   0  0  0  0  0  0  0  0  0  0  0  0
   55.3770   23.9810   45.4600 N   0  0  0  0  0  0  0  0  0  0  0  0
   55.3680   23.3180   44.1620 C   0  0  0  0  0  0  0  0  0  0  0  0
   54.2773   23.2619   44.0311 H   0  0  0  0  0  0  0  0  0  0  0  0
   56.5430   23.7150   43.2900 C   0  0  0  0  0  0  0  0  0  0  0  0
   56.4179   23.7922   42.1999 H   0  0  0  0  0  0  0  0  0  0  0  0
   57.2458   24.5610   43.2689 H   0  0  0  0  0  0  0  0  0  0  0  0
   56.5200   22.3510   43.9640 C   0  0  0  0  0  0  0  0  0  0  0  0
   56.3780   21.4417   43.3615 H   0  0  0  0  0  0  0  0  0  0  0  0
   57.1989   21.8013   44.6326 H   0  0  0  0  0  0  0  0  0  0  0  0
   55.6930   26.3090   45.8980 N   0  0  0  0  0  0  0  0  0  0  0  0
   56.8620   27.0200   46.1310 C   0  0  0  0  0  0  0  0  0  0  0  0
   56.9630   28.3010   46.3180 N   0  0  0  0  0  0  0  0  0  0  0  0
   57.0600   29.2980   45.2870 C   0  0  0  0  0  0  0  0  0  0  0  0
   56.6340   28.9680   43.9970 C   0  0  0  0  0  0  0  0  0  0  0  0
   56.2326   27.9642   43.7938 H   0  0  0  0  0  0  0  0  0  0  0  0
   56.7150   29.9050   42.9650 C   0  0  0  0  0  0  0  0  0  0  0  0
   56.3568   29.6449   41.9580 H   0  0  0  0  0  0  0  0  0  0  0  0
   57.2500   31.1720   43.2090 C   0  0  0  0  0  0  0  0  0  0  0  0
   57.2980   31.9100   42.3947 H   0  0  0  0  0  0  0  0  0  0  0  0
   57.7280   31.5120   44.4880 C   0  0  0  0  0  0  0  0  0  0  0  0
   58.3080   32.8570   44.7240 C   0  0  0  0  0  0  0  0  0  0  0  0
   58.4780   33.6410   43.7530 O   0  0  0  0  0  0  0  0  0  0  0  0
   58.6950   33.2880   46.0330 N   0  0  0  0  0  0  0  0  0  0  0  0
   59.0480   34.2590   46.1770 H   0  0  0  0  0  0  0  0  0  0  0  0
   58.7330   32.6280   46.8420 H   0  0  0  0  0  0  0  0  0  0  0  0
   57.6280   30.5650   45.5250 C   0  0  0  0  0  0  0  0  0  0  0  0
   57.9968   30.8167   46.5303 H   0  0  0  0  0  0  0  0  0  0  0  0
   57.8900   26.1770   46.0640 N   0  0  0  0  0  0  0  0  0  0  0  0
   60.5430   27.7690   46.7320 C   0  0  0  0  0  0  0  0  0  0  0  0
   60.7510   28.7760   45.7780 C   0  0  0  0  0  0  0  0  0  0  0  0
   60.8376   28.5112   44.7139 H   0  0  0  0  0  0  0  0  0  0  0  0
   60.8490   30.1140   46.1710 C   0  0  0  0  0  0  0  0  0  0  0  0
   61.0298   30.8944   45.4171 H   0  0  0  0  0  0  0  0  0  0  0  0
   60.7180   30.4650   47.5200 C   0  0  0  0  0  0  0  0  0  0  0  0
   60.8200   32.1580   48.0110 S   0  0  0  0  0  0  0  0  0  0  0  0
   60.8890   33.0270   46.7850 O   0  0  0  0  0  0  0  0  0  0  0  0
   59.5760   32.5250   48.7710 O   0  0  0  0  0  0  0  0  0  0  0  0
   62.2180   32.4550   49.0150 N   0  0  0  0  0  0  0  0  0  0  0  0
   62.6720   31.2030   49.6430 C   0  0  0  0  0  0  0  0  0  0  0  0
   61.8134   30.6999   50.1118 H   0  0  0  0  0  0  0  0  0  0  0  0
   63.1130   30.5548   48.8714 H   0  0  0  0  0  0  0  0  0  0  0  0
   63.7350   31.4990   50.7160 C   0  0  0  0  0  0  0  0  0  0  0  0
   63.2393   31.5615   51.6960 H   0  0  0  0  0  0  0  0  0  0  0  0
   64.4741   30.6848   50.6880 H   0  0  0  0  0  0  0  0  0  0  0  0
   64.4830   32.8190   50.4560 C   0  0  0  0  0  0  0  0  0  0  0  0
   63.9088   33.6498   50.8920 H   0  0  0  0  0  0  0  0  0  0  0  0
   65.4790   32.7545   50.9185 H   0  0  0  0  0  0  0  0  0  0  0  0
   64.6570   33.0640   48.9560 C   0  0  0  0  0  0  0  0  0  0  0  0
   65.1497   34.0363   48.8084 H   0  0  0  0  0  0  0  0  0  0  0  0
   65.2666   32.2466   48.5434 H   0  0  0  0  0  0  0  0  0  0  0  0
   63.2990   33.0730   48.2170 C   0  0  0  0  0  0  0  0  0  0  0  0
   63.0238   34.1150   47.9967 H   0  0  0  0  0  0  0  0  0  0  0  0
   63.4148   32.4829   47.2959 H   0  0  0  0  0  0  0  0  0  0  0  0
   60.4850   29.4650   48.4740 C   0  0  0  0  0  0  0  0  0  0  0  0
   60.3765   29.7347   49.5349 H   0  0  0  0  0  0  0  0  0  0  0  0
   60.3900   28.1270   48.0830 C   0  0  0  0  0  0  0  0  0  0  0  0
   60.1945   27.3495   48.8362 H   0  0  0  0  0  0  0  0  0  0  0  0
  1  2  1  0
  2  3  2  3
  3  4  1  0
  4  5  2  0
  4  6  1  0
  6  7  1  0
  7  8  2  3
  8  9  1  0
  9 10  1  0
  9 11  1  0
 11 12  1  0
 11 13  1  0
 11 14  1  0
 14 15  1  0
 14 16  1  0
  7 17  1  0
 17 18  1  0
 18 19  2  0
 19 20  1  0
 20 21  2  0
 21 22  1  0
 21 23  1  0
 23 24  1  0
 23 25  2  0
 25 26  1  0
 25 27  1  0
 27 28  1  0
 28 29  2  0
 28 30  1  0
 30 31  1  0
 30 32  1  0
 27 33  2  0
 33 34  1  0
 18 35  1  0
  2 36  1  0
 36 37  2  0
 37 38  1  0
 37 39  1  0
 39 40  1  0
 39 41  2  0
 41 42  1  0
 42 43  2  0
 42 44  2  0
 42 45  1  0
 45 46  1  0
 46 47  1  0
 46 48  1  0
 46 49  1  0
 49 50  1  0
 49 51  1  0
 49 52  1  0
 52 53  1  0
 52 54  1  0
 52 55  1  0
 55 56  1  0
 55 57  1  0
 55 58  1  0
 58 59  1  0
 58 60  1  0
 41 61  1  0
 61 62  1  0
 61 63  2  0
 63 64  1  0
 35  3  1  0
 63 36  1  0
 35  6  1  0
 58 45  1  0
 14  9  1  0
 33 20  1  0
M  CHG  1  17  -1
M  END
>  <UniqueID>  (54) 
50

>  <SMILES>  (54) 
NC(=O)c1cccc(/N=c2\[n-]c(=NC3CC3)n3n2C(=Cc2ccc(S(=O)(=O)N4CCCCC4)cc2)C3=O)c1

>  <Energy>  (54) 
456.2803300368815

>  <Genealogy>  (54) 
NC(=O)c1cccc(N=c2[n-]c(=NC3CC3)n3n2C(=Cc2ccc(S(=O)(=O)N4CCCCC4)cc2)C3=O)c1 (protonated)
NC(=O)c1cccc(/N=c2\[n-]c(=NC3CC3)n3n2C(=Cc2ccc(S(=O)(=O)N4CCCCC4)cc2)C3=O)c1 (cis-trans isomerization)
NC(=O)c1cccc(/N=c2\[n-]c(=NC3CC3)n3n2C(=Cc2ccc(S(=O)(=O)N4CCCCC4)cc2)C3=O)c1 (3D coordinates assigned)
NC(=O)c1cccc(/N=c2\[n-]c(=NC3CC3)n3n2C(=Cc2ccc(S(=O)(=O)N4CCCCC4)cc2)C3=O)c1 (nonaromatic ring conformer: 456.2803300368815 kcal/mol)

>  <smiles>  (54) 
NC(=O)c1cccc(N=c2[nH]c(=NC3CC3)n3n2C(=Cc2ccc(S(=O)(=O)N4CCCCC4)cc2)C3=O)c1

>  <score_type>  (54) 
oracle

>  <origin>  (54) 
adg

>  <m_score__min__energy>  (54) 
-12.34

>  <m_primary>  (54) 
energy

$$$$
54:0
     RDKit          3D

 66 69  0  0  0  0  0  0  0  0999 V2000
   57.0330   34.2180   44.9000 C   0  0  0  0  0  0  0  0  0  0  0  0
   57.6800   33.1040   45.2670 C   0  0  0  0  0  0  0  0  0  0  0  0
   57.7180   31.9150   44.3330 C   0  0  0  0  0  0  0  0  0  0  0  0
   57.0610   30.7800   44.8990 O   0  0  0  0  0  0  0  0  0  0  0  0
   57.6770   29.7860   45.6760 C   0  0  0  0  0  0  0  0  0  0  0  0
   58.3660   30.0750   46.8680 C   0  0  0  0  0  0  0  0  0  0  0  0
   58.9730   29.0530   47.6040 C   0  0  0  0  0  0  0  0  0  0  0  0
   59.6460   29.3830   48.7890 O   0  0  0  0  0  0  0  0  0  0  0  0
   60.6250   30.3810   48.9110 C   0  0  0  0  0  0  0  0  0  0  0  0
   60.8300   31.0770   50.1150 C   0  0  0  0  0  0  0  0  0  0  0  0
   61.8210   32.0580   50.2010 C   0  0  0  0  0  0  0  0  0  0  0  0
   62.6230   32.3520   49.0920 C   0  0  0  0  0  0  0  0  0  0  0  0
   63.8840   33.5750   49.2270 S   0  0  0  0  0  0  0  0  0  0  0  0
   64.1140   34.2160   47.8870 O   0  0  0  0  0  0  0  0  0  0  0  0
   63.4110   34.6350   50.1820 O   0  0  0  0  0  0  0  0  0  0  0  0
   65.3660   32.8620   49.8360 N   0  0  0  0  0  0  0  0  0  0  0  0
   65.1200   31.5310   50.4460 C   0  0  0  0  0  0  0  0  0  0  0  0
   65.0240   31.5880   51.9820 C   0  0  0  0  0  0  0  0  0  0  0  0
   64.4640   32.8140   52.3970 O   0  0  0  0  0  0  0  0  0  0  0  0
   65.3530   33.8840   52.1290 C   0  0  0  0  0  0  0  0  0  0  0  0
   66.0710   33.7700   50.7630 C   0  0  0  0  0  0  0  0  0  0  0  0
   62.4380   31.6400   47.8980 C   0  0  0  0  0  0  0  0  0  0  0  0
   61.4470   30.6580   47.8120 C   0  0  0  0  0  0  0  0  0  0  0  0
   58.8590   27.7230   47.1650 C   0  0  0  0  0  0  0  0  0  0  0  0
   58.1790   27.4180   45.9740 C   0  0  0  0  0  0  0  0  0  0  0  0
   58.0690   26.0140   45.5090 C   0  0  0  0  0  0  0  0  0  0  0  0
   59.0250   25.2120   45.6970 O   0  0  0  0  0  0  0  0  0  0  0  0
   56.9270   25.5970   44.7460 N   0  0  0  0  0  0  0  0  0  0  0  0
   56.0120   24.7150   45.0430 C   0  0  0  0  0  0  0  0  0  0  0  0
   56.2470   23.4200   44.6890 N   0  0  0  0  0  0  0  0  0  0  0  0
   55.3760   22.4140   44.9610 C   0  0  0  0  0  0  0  0  0  0  0  0
   54.1850   22.6850   45.6300 C   0  0  0  0  0  0  0  0  0  0  0  0
   53.8860   24.0020   45.9790 C   0  0  0  0  0  0  0  0  0  0  0  0
   54.7810   25.0320   45.6750 C   0  0  0  0  0  0  0  0  0  0  0  0
   54.3980   26.3400   45.9540 O   0  0  0  0  0  0  0  0  0  0  0  0
   57.5950   28.4610   45.2370 C   0  0  0  0  0  0  0  0  0  0  0  0
   58.4600   33.0660   46.5280 C   0  0  0  0  0  0  0  0  0  0  0  0
   57.8690   33.0690   47.6450 O   0  0  0  0  0  0  0  0  0  0  0  0
   59.8580   33.0390   46.4770 O   0  0  0  0  0  0  0  0  0  0  0  0
   60.6520   34.2160   46.5580 C   0  0  0  0  0  0  0  0  0  0  0  0
   57.0031   35.0849   45.5765 H   0  0  0  0  0  0  0  0  0  0  0  0
   56.5316   34.2660   43.9221 H   0  0  0  0  0  0  0  0  0  0  0  0
   57.2171   32.1846   43.3915 H   0  0  0  0  0  0  0  0  0  0  0  0
   58.7709   31.6501   44.1562 H   0  0  0  0  0  0  0  0  0  0  0  0
   58.4277   31.1140   47.2240 H   0  0  0  0  0  0  0  0  0  0  0  0
   60.2078   30.8484   50.9928 H   0  0  0  0  0  0  0  0  0  0  0  0
   61.9718   32.6022   51.1450 H   0  0  0  0  0  0  0  0  0  0  0  0
   65.9840   32.7270   49.0020 H   0  0  0  0  0  0  0  0  0  0  0  0
   64.1750   31.1316   50.0492 H   0  0  0  0  0  0  0  0  0  0  0  0
   65.9740   30.8864   50.1909 H   0  0  0  0  0  0  0  0  0  0  0  0
   64.3895   30.7620   52.3359 H   0  0  0  0  0  0  0  0  0  0  0  0
   66.0353   31.4976   52.4051 H   0  0  0  0  0  0  0  0  0  0  0  0
   64.7802   34.8230   52.1428 H   0  0  0  0  0  0  0  0  0  0  0  0
   66.1324   33.8559   52.9047 H   0  0  0  0  0  0  0  0  0  0  0  0
   66.1253   34.7695   50.3069 H   0  0  0  0  0  0  0  0  0  0  0  0
   67.0744   33.3566   50.9425 H   0  0  0  0  0  0  0  0  0  0  0  0
   63.0744   31.8549   47.0269 H   0  0  0  0  0  0  0  0  0  0  0  0
   61.3120   30.0989   46.8743 H   0  0  0  0  0  0  0  0  0  0  0  0
   59.3065   26.9129   47.7596 H   0  0  0  0  0  0  0  0  0  0  0  0
   55.6114   21.3847   44.6527 H   0  0  0  0  0  0  0  0  0  0  0  0
   53.4889   21.8708   45.8800 H   0  0  0  0  0  0  0  0  0  0  0  0
   52.9422   24.2310   46.4955 H   0  0  0  0  0  0  0  0  0  0  0  0
   57.0652   28.2322   44.3005 H   0  0  0  0  0  0  0  0  0  0  0  0
   60.8237   34.4705   47.6143 H   0  0  0  0  0  0  0  0  0  0  0  0
   61.6178   34.0417   46.0612 H   0  0  0  0  0  0  0  0  0  0  0  0
   60.1287   35.0462   46.0612 H   0  0  0  0  0  0  0  0  0  0  0  0
  1  2  2  0
  2  3  1  0
  3  4  1  0
  4  5  1  0
  5  6  2  0
  6  7  1  0
  7  8  1  0
  8  9  1  0
  9 10  2  0
 10 11  1  0
 11 12  2  0
 12 13  1  0
 13 14  2  0
 13 15  2  0
 13 16  1  0
 16 17  1  0
 17 18  1  0
 18 19  1  0
 19 20  1  0
 20 21  1  0
 12 22  1  0
 22 23  2  0
  7 24  2  0
 24 25  1  0
 25 26  1  0
 26 27  2  0
 26 28  1  0
 28 29  2  3
 29 30  1  0
 30 31  1  0
 31 32  2  0
 32 33  1  0
 33 34  2  0
 34 35  1  0
 25 36  2  0
  2 37  1  0
 37 38  2  0
 37 39  1  0
 39 40  1  0
 36  5  1  0
 23  9  1  0
 34 29  1  0
 21 16  1  0
  1 41  1  0
  1 42  1  0
  3 43  1  0
  3 44  1  0
  6 45  1  0
 10 46  1  0
 11 47  1  0
 16 48  1  0
 17 49  1  0
 17 50  1  0
 18 51  1  0
 18 52  1  0
 20 53  1  0
 20 54  1  0
 21 55  1  0
 21 56  1  0
 22 57  1  0
 23 58  1  0
 24 59  1  0
 31 60  1  0
 32 61  1  0
 33 62  1  0
 36 63  1  0
 40 64  1  0
 40 65  1  0
 40 66  1  0
M  CHG  3  16   1  30  -1  35  -1
M  END
>  <UniqueID>  (55) 
51

>  <SMILES>  (55) 
C=C(COc1cc(Oc2ccc(S(=O)(=O)[NH+]3CCOCC3)cc2)cc(C(=O)N=c2[n-]cccc2[O-])c1)C(=O)OC

>  <Energy>  (55) 
96.81271942692086

>  <Genealogy>  (55) 
C=C(COc1cc(Oc2ccc(S(=O)(=O)[NH+]3CCOCC3)cc2)cc(C(=O)N=c2[n-]cccc2[O-])c1)C(=O)OC (protonated)
C=C(COc1cc(Oc2ccc(S(=O)(=O)[NH+]3CCOCC3)cc2)cc(C(=O)N=c2[n-]cccc2[O-])c1)C(=O)OC (3D coordinates assigned)
C=C(COc1cc(Oc2ccc(S(=O)(=O)[NH+]3CCOCC3)cc2)cc(C(=O)N=c2[n-]cccc2[O-])c1)C(=O)OC (nonaromatic ring conformer: 96.81271942692086 kcal/mol)

>  <smiles>  (55) 
C=C(COc1cc(Oc2ccc(S(=O)(=O)N3CCOCC3)cc2)cc(C(=O)N=c2[nH]cccc2O)c1)C(=O)OC

>  <score_type>  (55) 
oracle

>  <origin>  (55) 
adg

>  <m_score__min__energy>  (55) 
-12.94

>  <m_primary>  (55) 
energy

$$$$
55:0
     RDKit          3D

 66 70  0  0  1  0  0  0  0  0999 V2000
   65.4330   32.4160   52.1090 C   0  0  0  0  0  0  0  0  0  0  0  0
   65.0720   33.3160   51.0740 N   0  0  0  0  0  0  0  0  0  0  0  0
   65.1980   32.7410   49.7950 C   0  0  0  0  0  0  0  0  0  0  0  0
   63.9900   32.6870   48.9340 C   0  0  0  0  0  0  0  0  0  0  0  0
   62.8240   33.3820   49.4810 N   0  0  0  0  0  0  0  0  0  0  0  0
   61.8080   33.7040   48.5040 C   0  0  0  0  0  0  0  0  0  0  0  0
   62.1370   33.4980   47.1680 C   0  0  0  0  0  0  0  0  0  0  0  0
   61.2200   33.8220   46.1920 C   0  0  0  0  0  0  0  0  0  0  0  0
   59.9690   34.3540   46.5630 C   0  0  0  0  0  0  0  0  0  0  0  0
   59.0210   34.6810   45.4810 C   0  0  0  0  0  0  0  0  0  0  0  0
   59.2500   35.5620   44.6230 O   0  0  0  0  0  0  0  0  0  0  0  0
   57.7970   33.9060   45.4770 N   0  0  0  0  0  0  0  0  0  0  0  0
   57.8370   32.7090   45.0290 C   0  0  0  0  0  0  0  0  0  0  0  0
   57.7930   31.5220   45.7250 C   0  0  0  0  0  0  0  0  0  0  0  0
   57.8660   30.5060   44.7820 C   0  0  0  0  0  0  0  0  0  0  0  0
   57.8530   29.0840   45.1120 C   0  0  0  0  0  0  0  0  0  0  0  0
   58.9660   28.2950   45.1350 C   0  0  0  0  0  0  0  0  0  0  0  0
   58.8700   26.9650   45.4600 C   0  0  0  0  0  0  0  0  0  0  0  0
   57.6510   26.3490   45.7810 C   0  0  0  0  0  0  0  0  0  0  0  0
   57.6600   24.9720   46.0670 N   0  0  0  0  0  0  0  0  0  0  0  0
   56.6470   24.0260   45.9090 C   0  0  0  0  0  0  0  0  0  0  0  0
   56.9290   22.4470   46.3100 S   0  0  0  0  0  0  0  0  0  0  0  0
   55.3450   24.3080   45.4190 N   0  0  0  0  0  0  0  0  0  0  0  0
   54.2850   23.7610   45.8760 C   0  0  0  0  0  0  0  0  0  0  0  0
   54.2450   23.1490   47.1080 C   0  0  0  0  0  0  0  0  0  0  0  0
   53.0670   22.5980   47.5190 C   0  0  0  0  0  0  0  0  0  0  0  0
   51.9610   22.6450   46.7500 N   0  0  0  0  0  0  0  0  0  0  0  0
   51.9790   23.2440   45.5330 C   0  0  0  0  0  0  0  0  0  0  0  0
   53.1540   23.8130   45.0820 C   0  0  0  0  0  0  0  0  0  0  0  0
   56.5550   27.1680   45.7470 C   0  0  0  0  0  0  0  0  0  0  0  0
   55.2960   26.7110   46.0310 O   0  0  0  0  0  0  0  0  0  0  0  0
   56.6480   28.5260   45.4160 C   0  0  0  0  0  0  0  0  0  0  0  0
   57.9510   31.0860   43.5480 N   0  0  0  0  0  0  0  0  0  0  0  0
   57.9330   32.4040   43.7150 N   0  0  0  0  0  0  0  0  0  0  0  0
   59.6530   34.5550   47.8980 C   0  0  0  0  0  0  0  0  0  0  0  0
   60.5860   34.2240   48.8860 C   0  0  0  0  0  0  0  0  0  0  0  0
   62.6970   33.7150   50.8690 C   0  0  0  0  0  0  0  0  0  0  0  0
   64.0380   34.2390   51.3220 C   0  0  0  0  0  0  0  0  0  0  0  0
   65.2446   32.8857   53.0856 H   0  0  0  0  0  0  0  0  0  0  0  0
   64.8336   31.4978   52.0220 H   0  0  0  0  0  0  0  0  0  0  0  0
   66.5008   32.1665   52.0220 H   0  0  0  0  0  0  0  0  0  0  0  0
   65.9619   33.3163   49.2514 H   0  0  0  0  0  0  0  0  0  0  0  0
   65.4440   31.6868   49.9903 H   0  0  0  0  0  0  0  0  0  0  0  0
   64.2384   33.1432   47.9644 H   0  0  0  0  0  0  0  0  0  0  0  0
   63.7117   31.6260   48.8512 H   0  0  0  0  0  0  0  0  0  0  0  0
   63.1175   33.0814   46.8941 H   0  0  0  0  0  0  0  0  0  0  0  0
   61.4628   33.6664   45.1305 H   0  0  0  0  0  0  0  0  0  0  0  0
   57.7152   31.4021   46.8157 H   0  0  0  0  0  0  0  0  0  0  0  0
   59.9474   28.7280   44.8913 H   0  0  0  0  0  0  0  0  0  0  0  0
   59.7866   26.3569   45.4692 H   0  0  0  0  0  0  0  0  0  0  0  0
   58.5870   24.5940   46.4560 H   0  0  0  0  0  0  0  0  0  0  0  0
   55.1406   23.1053   47.7452 H   0  0  0  0  0  0  0  0  0  0  0  0
   53.0184   22.1039   48.5006 H   0  0  0  0  0  0  0  0  0  0  0  0
   51.0460   22.2280   47.0550 H   0  0  0  0  0  0  0  0  0  0  0  0
   51.0704   23.2761   44.9139 H   0  0  0  0  0  0  0  0  0  0  0  0
   53.1898   24.3040   44.0983 H   0  0  0  0  0  0  0  0  0  0  0  0
   55.0890   26.0360   46.7460 H   0  0  0  0  0  0  0  0  0  0  0  0
   55.7402   29.1471   45.4014 H   0  0  0  0  0  0  0  0  0  0  0  0
   58.0220   30.6000   42.6290 H   0  0  0  0  0  0  0  0  0  0  0  0
   57.9860   33.0690   42.9410 H   0  0  0  0  0  0  0  0  0  0  0  0
   58.6746   34.9722   48.1783 H   0  0  0  0  0  0  0  0  0  0  0  0
   60.3509   34.3752   49.9499 H   0  0  0  0  0  0  0  0  0  0  0  0
   61.9249   34.4870   51.0031 H   0  0  0  0  0  0  0  0  0  0  0  0
   62.4003   32.8347   51.4582 H   0  0  0  0  0  0  0  0  0  0  0  0
   64.2565   35.1719   50.7817 H   0  0  0  0  0  0  0  0  0  0  0  0
   63.9880   34.4124   52.4071 H   0  0  0  0  0  0  0  0  0  0  0  0
  1  2  1  0
  2  3  1  0
  3  4  1  0
  4  5  1  0
  5  6  1  0
  6  7  2  0
  7  8  1  0
  8  9  2  0
  9 10  1  0
 10 11  2  0
 10 12  1  0
 12 13  2  0
 13 14  1  0
 14 15  2  0
 15 16  1  0
 16 17  2  0
 17 18  1  0
 18 19  2  0
 19 20  1  0
 20 21  1  0
 21 22  2  0
 21 23  1  0
 23 24  2  3
 24 25  1  0
 25 26  2  0
 26 27  1  0
 27 28  1  0
 28 29  2  0
 19 30  1  0
 30 31  1  0
 30 32  2  0
 15 33  1  0
 33 34  1  0
  9 35  1  0
 35 36  2  0
  5 37  1  0
 37 38  1  0
 38  2  1  0
 36  6  1  0
 34 13  1  0
 32 16  1  0
 29 24  1  0
  1 39  1  0
  1 40  1  0
  1 41  1  0
  3 42  1  0
  3 43  1  0
  4 44  1  0
  4 45  1  0
  7 46  1  0
  8 47  1  0
 14 48  1  0
 17 49  1  0
 18 50  1  0
 20 51  1  0
 25 52  1  0
 26 53  1  0
 27 54  1  0
 28 55  1  0
 29 56  1  0
 31 57  1  0
 32 58  1  0
 33 59  1  0
 34 60  1  0
 35 61  1  0
 36 62  1  0
 37 63  1  0
 37 64  1  0
 38 65  1  0
 38 66  1  0
M  END
>  <smiles>  (56) 
CN1CCN(c2ccc(C(=O)N=c3cc(-c4ccc(NC(=S)N=c5cc[nH]cc5)c(O)c4)[nH][nH]3)cc2)CC1

>  <score_type>  (56) 
oracle

>  <origin>  (56) 
adg

>  <m_score__min__energy>  (56) 
-10.880000000000001

>  <m_primary>  (56) 
energy

$$$$
56:0
     RDKit          3D

 54 57  0  0  0  0  0  0  0  0999 V2000
   58.2660   29.9970   46.5980 C   0  0  0  0  0  0  0  0  0  0  0  0
   58.0540   30.9650   45.4600 C   0  0  0  0  0  0  0  0  0  0  0  0
   57.9740   30.4580   44.1510 C   0  0  0  0  0  0  0  0  0  0  0  0
   57.8250   31.3220   43.0610 C   0  0  0  0  0  0  0  0  0  0  0  0
   57.7550   32.7000   43.2640 C   0  0  0  0  0  0  0  0  0  0  0  0
   57.8110   33.2200   44.5570 C   0  0  0  0  0  0  0  0  0  0  0  0
   57.9380   32.3660   45.6690 C   0  0  0  0  0  0  0  0  0  0  0  0
   57.9530   32.9730   47.0220 C   0  0  0  0  0  0  0  0  0  0  0  0
   56.8850   33.4620   47.4820 O   0  0  0  0  0  0  0  0  0  0  0  0
   59.1640   32.9380   47.8790 C   0  0  0  0  0  0  0  0  0  0  0  0
   60.4170   33.2080   47.2970 C   0  0  0  0  0  0  0  0  0  0  0  0
   61.5860   33.1250   48.0580 C   0  0  0  0  0  0  0  0  0  0  0  0
   63.2780   33.4890   47.2480 Br  0  0  0  0  0  0  0  0  0  0  0  0
   61.5170   32.7710   49.4070 C   0  0  0  0  0  0  0  0  0  0  0  0
   60.2820   32.5070   50.0000 C   0  0  0  0  0  0  0  0  0  0  0  0
   59.0950   32.5850   49.2490 C   0  0  0  0  0  0  0  0  0  0  0  0
   57.8250   32.3790   49.8900 N   0  0  0  0  0  0  0  0  0  0  0  0
   57.6550   31.4840   51.3640 S   0  0  0  0  0  0  0  0  0  0  0  0
   56.3030   30.8290   51.4030 O   0  0  0  0  0  0  0  0  0  0  0  0
   57.7960   32.4000   52.5480 O   0  0  0  0  0  0  0  0  0  0  0  0
   58.9300   30.2740   51.4340 C   0  0  0  0  0  0  0  0  0  0  0  0
   59.2770   29.5240   50.3050 C   0  0  0  0  0  0  0  0  0  0  0  0
   60.3130   28.5890   50.3800 C   0  0  0  0  0  0  0  0  0  0  0  0
   61.0040   28.4140   51.5940 C   0  0  0  0  0  0  0  0  0  0  0  0
   62.0900   27.4670   51.7110 N   0  0  0  0  0  0  0  0  0  0  0  0
   61.9000   26.0870   51.2480 C   0  0  0  0  0  0  0  0  0  0  0  0
   62.7990   25.1330   52.0430 C   0  0  0  0  0  0  0  0  0  0  0  0
   64.1400   25.5850   52.0380 O   0  0  0  0  0  0  0  0  0  0  0  0
   64.2300   26.8130   52.7350 C   0  0  0  0  0  0  0  0  0  0  0  0
   63.4600   27.9140   52.0000 C   0  0  0  0  0  0  0  0  0  0  0  0
   60.6400   29.1580   52.6770 N   0  0  0  0  0  0  0  0  0  0  0  0
   59.6350   30.0720   52.6250 C   0  0  0  0  0  0  0  0  0  0  0  0
   58.1502   30.5258   47.5556 H   0  0  0  0  0  0  0  0  0  0  0  0
   57.5238   29.1876   46.5340 H   0  0  0  0  0  0  0  0  0  0  0  0
   59.2785   29.5719   46.5340 H   0  0  0  0  0  0  0  0  0  0  0  0
   58.0291   29.3724   43.9826 H   0  0  0  0  0  0  0  0  0  0  0  0
   57.7629   30.9136   42.0415 H   0  0  0  0  0  0  0  0  0  0  0  0
   57.6555   33.3777   42.4033 H   0  0  0  0  0  0  0  0  0  0  0  0
   57.7554   34.3080   44.7094 H   0  0  0  0  0  0  0  0  0  0  0  0
   60.4763   33.4866   46.2345 H   0  0  0  0  0  0  0  0  0  0  0  0
   62.4385   32.7001   50.0035 H   0  0  0  0  0  0  0  0  0  0  0  0
   60.2360   32.2353   51.0649 H   0  0  0  0  0  0  0  0  0  0  0  0
   56.9490   32.7020   49.4240 H   0  0  0  0  0  0  0  0  0  0  0  0
   58.7348   29.6702   49.3591 H   0  0  0  0  0  0  0  0  0  0  0  0
   60.5867   27.9938   49.4964 H   0  0  0  0  0  0  0  0  0  0  0  0
   60.8482   25.7978   51.3898 H   0  0  0  0  0  0  0  0  0  0  0  0
   62.1660   26.0262   50.1824 H   0  0  0  0  0  0  0  0  0  0  0  0
   62.4400   25.0805   53.0814 H   0  0  0  0  0  0  0  0  0  0  0  0
   62.7603   24.1389   51.5738 H   0  0  0  0  0  0  0  0  0  0  0  0
   63.8063   26.6877   53.7423 H   0  0  0  0  0  0  0  0  0  0  0  0
   65.2885   27.1055   52.7982 H   0  0  0  0  0  0  0  0  0  0  0  0
   63.4232   28.8148   52.6302 H   0  0  0  0  0  0  0  0  0  0  0  0
   63.9718   28.1398   51.0529 H   0  0  0  0  0  0  0  0  0  0  0  0
   59.3757   30.6540   53.5217 H   0  0  0  0  0  0  0  0  0  0  0  0
  1  2  1  0
  2  3  2  0
  3  4  1  0
  4  5  2  0
  5  6  1  0
  6  7  2  0
  7  8  1  0
  8  9  2  0
  8 10  1  0
 10 11  2  0
 11 12  1  0
 12 13  1  0
 12 14  2  0
 14 15  1  0
 15 16  2  0
 16 17  1  0
 17 18  1  0
 18 19  2  0
 18 20  2  0
 18 21  1  0
 21 22  2  0
 22 23  1  0
 23 24  2  0
 24 25  1  0
 25 26  1  0
 26 27  1  0
 27 28  1  0
 28 29  1  0
 29 30  1  0
 24 31  1  0
 31 32  2  0
  7  2  1  0
 16 10  1  0
 32 21  1  0
 30 25  1  0
  1 33  1  0
  1 34  1  0
  1 35  1  0
  3 36  1  0
  4 37  1  0
  5 38  1  0
  6 39  1  0
 11 40  1  0
 14 41  1  0
 15 42  1  0
 17 43  1  0
 22 44  1  0
 23 45  1  0
 26 46  1  0
 26 47  1  0
 27 48  1  0
 27 49  1  0
 29 50  1  0
 29 51  1  0
 30 52  1  0
 30 53  1  0
 32 54  1  0
M  END
>  <UniqueID>  (57) 
52

>  <SMILES>  (57) 
Cc1ccccc1C(=O)c1cc(Br)ccc1NS(=O)(=O)c1ccc(N2CCOCC2)nc1

>  <Energy>  (57) 
77.01134131270412

>  <Genealogy>  (57) 
Cc1ccccc1C(=O)c1cc(Br)ccc1NS(=O)(=O)c1ccc(N2CCOCC2)nc1 (3D coordinates assigned)
Cc1ccccc1C(=O)c1cc(Br)ccc1NS(=O)(=O)c1ccc(N2CCOCC2)nc1 (nonaromatic ring conformer: 77.01134131270412 kcal/mol)

>  <smiles>  (57) 
Cc1ccccc1C(=O)c1cc(Br)ccc1NS(=O)(=O)c1ccc(N2CCOCC2)nc1

>  <score_type>  (57) 
oracle

>  <origin>  (57) 
adg

>  <m_score__min__energy>  (57) 
-9.8000000000000007

>  <m_primary>  (57) 
energy

$$$$
57:0
     RDKit          3D

 45 47  0  0  0  0  0  0  0  0999 V2000
   63.5440   32.1870   47.5590 N   0  0  0  0  0  0  0  0  0  0  0  0
   62.7450   33.7110   47.4080 S   0  0  0  0  0  0  0  0  0  0  0  0
   63.3910   34.5110   46.3110 O   0  0  0  0  0  0  0  0  0  0  0  0
   62.8730   34.4720   48.6980 O   0  0  0  0  0  0  0  0  0  0  0  0
   61.0450   33.4500   47.0340 C   0  0  0  0  0  0  0  0  0  0  0  0
   60.1380   34.5140   47.1070 C   0  0  0  0  0  0  0  0  0  0  0  0
   58.7870   34.3020   46.8290 C   0  0  0  0  0  0  0  0  0  0  0  0
   58.3330   33.0290   46.4780 C   0  0  0  0  0  0  0  0  0  0  0  0
   59.2280   31.9460   46.3960 C   0  0  0  0  0  0  0  0  0  0  0  0
   58.7230   30.5970   46.0320 C   0  0  0  0  0  0  0  0  0  0  0  0
   59.5380   29.4620   46.0800 C   0  0  0  0  0  0  0  0  0  0  0  0
   59.0020   28.2250   45.7220 C   0  0  0  0  0  0  0  0  0  0  0  0
   59.7540   27.2150   45.7690 O   0  0  0  0  0  0  0  0  0  0  0  0
   57.6870   28.1130   45.3250 N   0  0  0  0  0  0  0  0  0  0  0  0
   57.1070   26.7980   44.9370 C   0  0  1  0  0  0  0  0  0  0  0  0
   57.8010   26.2310   43.6800 C   0  0  0  0  0  0  0  0  0  0  0  0
   57.2470   24.8390   43.3590 C   0  0  0  0  0  0  0  0  0  0  0  0
   57.4550   23.8240   44.5180 C   0  0  2  0  0  0  0  0  0  0  0  0
   56.2120   22.9220   44.6760 C   0  0  0  0  0  0  0  0  0  0  0  0
   55.8800   22.3030   43.4620 O   0  0  0  0  0  0  0  0  0  0  0  0
   57.8460   24.4980   45.8600 C   0  0  0  0  0  0  0  0  0  0  0  0
   57.0670   25.7970   46.1280 C   0  0  0  0  0  0  0  0  0  0  0  0
   56.9180   29.2540   45.2660 C   0  0  0  0  0  0  0  0  0  0  0  0
   55.7180   29.2110   44.8840 O   0  0  0  0  0  0  0  0  0  0  0  0
   57.4400   30.4560   45.6170 N   0  0  0  0  0  0  0  0  0  0  0  0
   60.5890   32.1700   46.6900 C   0  0  0  0  0  0  0  0  0  0  0  0
   64.5180   32.3180   47.2080 H   0  0  0  0  0  0  0  0  0  0  0  0
   60.4908   35.5184   47.3839 H   0  0  0  0  0  0  0  0  0  0  0  0
   58.0774   35.1405   46.8866 H   0  0  0  0  0  0  0  0  0  0  0  0
   57.2657   32.8712   46.2636 H   0  0  0  0  0  0  0  0  0  0  0  0
   60.5885   29.5435   46.3960 H   0  0  0  0  0  0  0  0  0  0  0  0
   56.0544   26.9625   44.6631 H   0  0  0  0  0  0  0  0  0  0  0  0
   58.8834   26.1592   43.8625 H   0  0  0  0  0  0  0  0  0  0  0  0
   57.6101   26.9010   42.8287 H   0  0  0  0  0  0  0  0  0  0  0  0
   57.7560   24.4568   42.4619 H   0  0  0  0  0  0  0  0  0  0  0  0
   56.1633   24.9429   43.2012 H   0  0  0  0  0  0  0  0  0  0  0  0
   58.3139   23.1951   44.2409 H   0  0  0  0  0  0  0  0  0  0  0  0
   56.4232   22.1477   45.4282 H   0  0  0  0  0  0  0  0  0  0  0  0
   55.3643   23.5474   44.9927 H   0  0  0  0  0  0  0  0  0  0  0  0
   55.5200   21.4060   43.6890 H   0  0  0  0  0  0  0  0  0  0  0  0
   58.9205   24.7322   45.8350 H   0  0  0  0  0  0  0  0  0  0  0  0
   57.5988   23.7929   46.6673 H   0  0  0  0  0  0  0  0  0  0  0  0
   57.5013   26.2882   47.0112 H   0  0  0  0  0  0  0  0  0  0  0  0
   56.0142   25.5184   46.2831 H   0  0  0  0  0  0  0  0  0  0  0  0
   61.3000   31.3316   46.6489 H   0  0  0  0  0  0  0  0  0  0  0  0
  1  2  1  0
  2  3  2  0
  2  4  2  0
  2  5  1  0
  5  6  2  0
  6  7  1  0
  7  8  2  0
  8  9  1  0
  9 10  1  0
 10 11  2  0
 11 12  1  0
 12 13  2  0
 12 14  1  0
 14 15  1  0
 15 16  1  0
 16 17  1  0
 17 18  1  0
 18 19  1  0
 19 20  1  0
 18 21  1  0
 21 22  1  0
 14 23  1  0
 23 24  2  0
 23 25  1  0
  9 26  2  0
 26  5  1  0
 25 10  1  0
 22 15  1  0
  1 27  1  0
  6 28  1  0
  7 29  1  0
  8 30  1  0
 11 31  1  0
 15 32  1  6
 16 33  1  0
 16 34  1  0
 17 35  1  0
 17 36  1  0
 18 37  1  6
 19 38  1  0
 19 39  1  0
 20 40  1  0
 21 41  1  0
 21 42  1  0
 22 43  1  0
 22 44  1  0
 26 45  1  0
M  CHG  2   1  -1  25  -1
M  END
>  <UniqueID>  (58) 
53

>  <SMILES>  (58) 
[NH-]S(=O)(=O)c1cccc(-c2cc(=O)n(C3CCC(CO)CC3)c(=O)[n-]2)c1

>  <Energy>  (58) 
61.09981845313166

>  <Genealogy>  (58) 
[NH-]S(=O)(=O)c1cccc(-c2cc(=O)n(C3CCC(CO)CC3)c(=O)[n-]2)c1 (protonated)
[NH-]S(=O)(=O)c1cccc(-c2cc(=O)n(C3CCC(CO)CC3)c(=O)[n-]2)c1 (3D coordinates assigned)
[NH-]S(=O)(=O)c1cccc(-c2cc(=O)n(C3CCC(CO)CC3)c(=O)[n-]2)c1 (nonaromatic ring conformer: 61.09981845313166 kcal/mol)

>  <smiles>  (58) 
NS(=O)(=O)c1cccc(-c2cc(=O)n(C3CCC(CO)CC3)c(=O)[nH]2)c1

>  <score_type>  (58) 
oracle

>  <origin>  (58) 
adg

>  <m_score__min__energy>  (58) 
-11.970000000000001

>  <m_primary>  (58) 
energy

$$$$
58:0
     RDKit          3D

 47 49  0  0  0  0  0  0  0  0999 V2000
   64.8570   33.0680   49.0560 C   0  0  0  0  0  0  0  0  0  0  0  0
   63.6680   32.2810   48.7070 C   0  0  0  0  0  0  0  0  0  0  0  0
   63.0470   32.3100   47.4790 C   0  0  0  0  0  0  0  0  0  0  0  0
   61.9340   31.5660   47.1680 C   0  0  0  0  0  0  0  0  0  0  0  0
   61.3610   30.7270   48.0930 C   0  0  0  0  0  0  0  0  0  0  0  0
   60.2760   29.9430   47.9200 O   0  0  0  0  0  0  0  0  0  0  0  0
   60.0640   28.5960   47.8460 C   0  0  0  0  0  0  0  0  0  0  0  0
   60.4010   28.0040   46.5100 C   0  0  0  0  0  0  0  0  0  0  0  0
   58.8580   28.0460   45.5140 S   0  0  0  0  0  0  0  0  0  0  0  0
   58.4910   29.7620   45.1860 C   0  0  0  0  0  0  0  0  0  0  0  0
   58.4390   30.2700   43.9430 N   0  0  0  0  0  0  0  0  0  0  0  0
   58.1670   31.5560   43.6580 C   0  0  0  0  0  0  0  0  0  0  0  0
   58.1280   31.9960   42.4800 O   0  0  0  0  0  0  0  0  0  0  0  0
   57.9240   32.4090   44.7140 C   0  0  0  0  0  0  0  0  0  0  0  0
   57.6270   33.8180   44.4010 C   0  0  0  0  0  0  0  0  0  0  0  0
   57.9690   31.9190   45.9990 C   0  0  0  0  0  0  0  0  0  0  0  0
   57.7240   32.8270   47.1120 C   0  0  0  0  0  0  0  0  0  0  0  0
   56.6480   33.4680   47.2380 O   0  0  0  0  0  0  0  0  0  0  0  0
   58.7210   33.0610   48.1730 C   0  0  0  0  0  0  0  0  0  0  0  0
   58.6640   32.3460   49.3760 C   0  0  0  0  0  0  0  0  0  0  0  0
   59.6100   32.5880   50.3800 C   0  0  0  0  0  0  0  0  0  0  0  0
   60.6150   33.5390   50.1960 C   0  0  0  0  0  0  0  0  0  0  0  0
   60.6270   34.2130   48.9980 C   0  0  0  0  0  0  0  0  0  0  0  0
   59.7170   34.0050   47.9850 C   0  0  0  0  0  0  0  0  0  0  0  0
   59.7930   34.9010   46.4830 Cl  0  0  0  0  0  0  0  0  0  0  0  0
   58.2470   30.6220   46.2260 N   0  0  0  0  0  0  0  0  0  0  0  0
   61.9790   30.6820   49.3550 C   0  0  0  0  0  0  0  0  0  0  0  0
   63.0920   31.4310   49.6540 C   0  0  0  0  0  0  0  0  0  0  0  0
   64.9484   33.1285   50.1505 H   0  0  0  0  0  0  0  0  0  0  0  0
   65.7525   32.5837   48.6395 H   0  0  0  0  0  0  0  0  0  0  0  0
   64.7611   34.0816   48.6395 H   0  0  0  0  0  0  0  0  0  0  0  0
   63.4655   32.9664   46.7018 H   0  0  0  0  0  0  0  0  0  0  0  0
   61.4949   31.6435   46.1624 H   0  0  0  0  0  0  0  0  0  0  0  0
   60.6845   28.1045   48.6098 H   0  0  0  0  0  0  0  0  0  0  0  0
   58.9886   28.4310   48.0081 H   0  0  0  0  0  0  0  0  0  0  0  0
   61.1862   28.5975   46.0189 H   0  0  0  0  0  0  0  0  0  0  0  0
   60.7779   26.9759   46.6150 H   0  0  0  0  0  0  0  0  0  0  0  0
   57.5077   34.3841   45.3365 H   0  0  0  0  0  0  0  0  0  0  0  0
   58.4546   34.2461   43.8164 H   0  0  0  0  0  0  0  0  0  0  0  0
   56.6970   33.8756   43.8164 H   0  0  0  0  0  0  0  0  0  0  0  0
   57.8762   31.5944   49.5323 H   0  0  0  0  0  0  0  0  0  0  0  0
   59.5605   32.0232   51.3226 H   0  0  0  0  0  0  0  0  0  0  0  0
   61.3646   33.7403   50.9755 H   0  0  0  0  0  0  0  0  0  0  0  0
   61.4128   34.9659   48.8382 H   0  0  0  0  0  0  0  0  0  0  0  0
   58.3020   30.1980   47.1610 H   0  0  0  0  0  0  0  0  0  0  0  0
   61.5573   30.0248   50.1297 H   0  0  0  0  0  0  0  0  0  0  0  0
   63.5372   31.3598   50.6573 H   0  0  0  0  0  0  0  0  0  0  0  0
  1  2  1  0
  2  3  2  0
  3  4  1  0
  4  5  2  0
  5  6  1  0
  6  7  1  0
  7  8  1  0
  8  9  1  0
  9 10  1  0
 10 11  2  0
 11 12  1  0
 12 13  2  0
 12 14  1  0
 14 15  1  0
 14 16  2  0
 16 17  1  0
 17 18  2  0
 17 19  1  0
 19 20  2  0
 20 21  1  0
 21 22  2  0
 22 23  1  0
 23 24  2  0
 24 25  1  0
 16 26  1  0
  5 27  1  0
 27 28  2  0
 28  2  1  0
 26 10  1  0
 24 19  1  0
  1 29  1  0
  1 30  1  0
  1 31  1  0
  3 32  1  0
  4 33  1  0
  7 34  1  0
  7 35  1  0
  8 36  1  0
  8 37  1  0
 15 38  1  0
 15 39  1  0
 15 40  1  0
 20 41  1  0
 21 42  1  0
 22 43  1  0
 23 44  1  0
 26 45  1  0
 27 46  1  0
 28 47  1  0
M  END
>  <smiles>  (59) 
Cc1ccc(OCCSc2nc(=O)c(C)c(C(=O)c3ccccc3Cl)[nH]2)cc1

>  <score_type>  (59) 
oracle

>  <origin>  (59) 
adg

>  <m_score__min__energy>  (59) 
-8.7200000000000006

>  <m_primary>  (59) 
energy

$$$$
59:0
     RDKit          3D

 73 77  0  0  0  0  0  0  0  0999 V2000
   60.8090   26.8550   46.2260 O   0  0  0  0  0  0  0  0  0  0  0  0
   59.9320   27.2800   47.0230 C   0  0  0  0  0  0  0  0  0  0  0  0
   60.3280   28.0290   48.2440 C   0  0  0  0  0  0  0  0  0  0  0  0
   60.7710   29.2940   48.2690 C   0  0  0  0  0  0  0  0  0  0  0  0
   59.9380   30.4850   48.5260 C   0  0  0  0  0  0  0  0  0  0  0  0
   59.8040   31.4770   47.5360 C   0  0  0  0  0  0  0  0  0  0  0  0
   59.1280   32.6680   47.8150 C   0  0  0  0  0  0  0  0  0  0  0  0
   58.6050   32.8930   49.0870 C   0  0  0  0  0  0  0  0  0  0  0  0
   58.7510   31.9250   50.0830 C   0  0  0  0  0  0  0  0  0  0  0  0
   59.4130   30.7160   49.8100 C   0  0  0  0  0  0  0  0  0  0  0  0
   59.5210   29.7320   50.8040 O   0  0  0  0  0  0  0  0  0  0  0  0
   58.4860   29.4770   51.7100 C   0  0  0  0  0  0  0  0  0  0  0  0
   57.3520   29.9910   51.5030 O   0  0  0  0  0  0  0  0  0  0  0  0
   58.6760   28.5610   52.8630 C   0  0  0  0  0  0  0  0  0  0  0  0
   57.5650   28.3290   53.6990 C   0  0  0  0  0  0  0  0  0  0  0  0
   57.6250   27.3980   54.7360 C   0  0  0  0  0  0  0  0  0  0  0  0
   58.7970   26.6810   54.9630 C   0  0  0  0  0  0  0  0  0  0  0  0
   59.9130   26.8980   54.1580 C   0  0  0  0  0  0  0  0  0  0  0  0
   59.8810   27.8410   53.1110 C   0  0  0  0  0  0  0  0  0  0  0  0
   61.1430   28.0700   52.3760 C   0  0  0  0  0  0  0  0  0  0  0  0
   61.1900   27.8010   51.1470 O   0  0  0  0  0  0  0  0  0  0  0  0
   62.3300   28.4660   53.0790 N   0  0  0  0  0  0  0  0  0  0  0  0
   63.1210   29.6770   52.8340 C   0  0  0  0  0  0  0  0  0  0  0  0
   62.4380   30.9520   53.3740 C   0  0  0  0  0  0  0  0  0  0  0  0
   63.0450   32.1860   52.7040 C   0  0  0  0  0  0  0  0  0  0  0  0
   62.7410   32.2160   51.2540 N   0  0  0  0  0  0  0  0  0  0  0  0
   63.6190   33.1710   50.5480 C   0  0  0  0  0  0  0  0  0  0  0  0
   63.2040   33.2910   49.1050 C   0  0  0  0  0  0  0  0  0  0  0  0
   62.1010   34.0820   48.7350 C   0  0  0  0  0  0  0  0  0  0  0  0
   61.7380   34.2060   47.3880 C   0  0  0  0  0  0  0  0  0  0  0  0
   62.4770   33.5430   46.4030 C   0  0  0  0  0  0  0  0  0  0  0  0
   63.5740   32.7530   46.7640 C   0  0  0  0  0  0  0  0  0  0  0  0
   63.9380   32.6270   48.1080 C   0  0  0  0  0  0  0  0  0  0  0  0
   62.7120   30.8790   50.5960 C   0  0  0  0  0  0  0  0  0  0  0  0
   63.5210   29.8040   51.3430 C   0  0  0  0  0  0  0  0  0  0  0  0
   58.5050   27.0590   46.6890 C   0  0  0  0  0  0  0  0  0  0  0  0
   57.8750   25.8700   47.0970 C   0  0  0  0  0  0  0  0  0  0  0  0
   56.5320   25.6370   46.7870 C   0  0  0  0  0  0  0  0  0  0  0  0
   55.8050   26.5820   46.0580 C   0  0  0  0  0  0  0  0  0  0  0  0
   54.4690   26.3390   45.7600 O   0  0  0  0  0  0  0  0  0  0  0  0
   56.4210   27.7630   45.6290 C   0  0  0  0  0  0  0  0  0  0  0  0
   55.6910   28.6960   44.8940 O   0  0  0  0  0  0  0  0  0  0  0  0
   57.7690   27.9990   45.9420 C   0  0  0  0  0  0  0  0  0  0  0  0
   60.2513   27.5020   49.2065 H   0  0  0  0  0  0  0  0  0  0  0  0
   61.8427   29.4577   48.0828 H   0  0  0  0  0  0  0  0  0  0  0  0
   60.2340   31.3137   46.5368 H   0  0  0  0  0  0  0  0  0  0  0  0
   59.0086   33.4288   47.0295 H   0  0  0  0  0  0  0  0  0  0  0  0
   58.0773   33.8329   49.3065 H   0  0  0  0  0  0  0  0  0  0  0  0
   58.3449   32.1103   51.0883 H   0  0  0  0  0  0  0  0  0  0  0  0
   56.6349   28.8917   53.5307 H   0  0  0  0  0  0  0  0  0  0  0  0
   56.7456   27.2300   55.3751 H   0  0  0  0  0  0  0  0  0  0  0  0
   58.8415   25.9434   55.7778 H   0  0  0  0  0  0  0  0  0  0  0  0
   60.8334   26.3245   54.3423 H   0  0  0  0  0  0  0  0  0  0  0  0
   64.0530   29.5709   53.4085 H   0  0  0  0  0  0  0  0  0  0  0  0
   61.3607   30.9101   53.1555 H   0  0  0  0  0  0  0  0  0  0  0  0
   62.5925   31.0151   54.4613 H   0  0  0  0  0  0  0  0  0  0  0  0
   62.6314   33.0896   53.1756 H   0  0  0  0  0  0  0  0  0  0  0  0
   64.1372   32.1469   52.8289 H   0  0  0  0  0  0  0  0  0  0  0  0
   63.5455   34.1569   51.0303 H   0  0  0  0  0  0  0  0  0  0  0  0
   64.6558   32.8065   50.5939 H   0  0  0  0  0  0  0  0  0  0  0  0
   61.5202   34.6062   49.5082 H   0  0  0  0  0  0  0  0  0  0  0  0
   60.8730   34.8239   47.1052 H   0  0  0  0  0  0  0  0  0  0  0  0
   62.1958   33.6426   45.3442 H   0  0  0  0  0  0  0  0  0  0  0  0
   64.1518   32.2295   45.9880 H   0  0  0  0  0  0  0  0  0  0  0  0
   64.8022   32.0057   48.3858 H   0  0  0  0  0  0  0  0  0  0  0  0
   61.6657   30.5453   50.5336 H   0  0  0  0  0  0  0  0  0  0  0  0
   63.1744   30.9984   49.6051 H   0  0  0  0  0  0  0  0  0  0  0  0
   63.3546   28.8343   50.8510 H   0  0  0  0  0  0  0  0  0  0  0  0
   64.5788   30.1037   51.3091 H   0  0  0  0  0  0  0  0  0  0  0  0
   58.4430   25.1179   47.6641 H   0  0  0  0  0  0  0  0  0  0  0  0
   56.0461   24.7072   47.1178 H   0  0  0  0  0  0  0  0  0  0  0  0
   54.7630   28.4890   44.5440 H   0  0  0  0  0  0  0  0  0  0  0  0
   58.2542   28.9255   45.6011 H   0  0  0  0  0  0  0  0  0  0  0  0
  1  2  2  0
  2  3  1  0
  3  4  2  3
  4  5  1  0
  5  6  2  0
  6  7  1  0
  7  8  2  0
  8  9  1  0
  9 10  2  0
 10 11  1  0
 11 12  1  0
 12 13  2  0
 12 14  1  0
 14 15  2  0
 15 16  1  0
 16 17  2  0
 17 18  1  0
 18 19  2  0
 19 20  1  0
 20 21  2  0
 20 22  1  0
 22 23  1  0
 23 24  1  0
 24 25  1  0
 25 26  1  0
 26 27  1  0
 27 28  1  0
 28 29  2  0
 29 30  1  0
 30 31  2  0
 31 32  1  0
 32 33  2  0
 26 34  1  0
 34 35  1  0
  2 36  1  0
 36 37  2  0
 37 38  1  0
 38 39  2  0
 39 40  1  0
 39 41  1  0
 41 42  1  0
 41 43  2  0
 10  5  1  0
 19 14  1  0
 35 23  1  0
 43 36  1  0
 33 28  1  0
  3 44  1  0
  4 45  1  0
  6 46  1  0
  7 47  1  0
  8 48  1  0
  9 49  1  0
 15 50  1  0
 16 51  1  0
 17 52  1  0
 18 53  1  0
 23 54  1  0
 24 55  1  0
 24 56  1  0
 25 57  1  0
 25 58  1  0
 27 59  1  0
 27 60  1  0
 29 61  1  0
 30 62  1  0
 31 63  1  0
 32 64  1  0
 33 65  1  0
 34 66  1  0
 34 67  1  0
 35 68  1  0
 35 69  1  0
 37 70  1  0
 38 71  1  0
 42 72  1  0
 43 73  1  0
M  CHG  2  22  -1  40  -1
M  END
>  <UniqueID>  (60) 
54

>  <SMILES>  (60) 
O=C(C=Cc1ccccc1OC(=O)c1ccccc1C(=O)[N-]C1CCN(Cc2ccccc2)CC1)c1ccc([O-])c(O)c1

>  <Energy>  (60) 
115.01188909087749

>  <Genealogy>  (60) 
O=C(C=Cc1ccccc1OC(=O)c1ccccc1C(=O)[N-]C1CCN(Cc2ccccc2)CC1)c1ccc([O-])c(O)c1 (protonated)
O=C(C=Cc1ccccc1OC(=O)c1ccccc1C(=O)[N-]C1CCN(Cc2ccccc2)CC1)c1ccc([O-])c(O)c1 (3D coordinates assigned)
O=C(C=Cc1ccccc1OC(=O)c1ccccc1C(=O)[N-]C1CCN(Cc2ccccc2)CC1)c1ccc([O-])c(O)c1 (nonaromatic ring conformer: 115.01188909087749 kcal/mol)

>  <smiles>  (60) 
O=C(C=Cc1ccccc1OC(=O)c1ccccc1C(=O)NC1CCN(Cc2ccccc2)CC1)c1ccc(O)c(O)c1

>  <score_type>  (60) 
oracle

>  <origin>  (60) 
adg

>  <m_score__min__energy>  (60) 
-14.970000000000001

>  <m_primary>  (60) 
energy

$$$$
60:0
     RDKit          3D

 69 73  0  0  0  0  0  0  0  0999 V2000
   65.5680   31.1880   50.8990 C   0  0  0  0  0  0  0  0  0  0  0  0
   64.4460   31.9400   50.2300 C   0  0  0  0  0  0  0  0  0  0  0  0
   64.7510   33.1170   49.5250 C   0  0  0  0  0  0  0  0  0  0  0  0
   63.7480   33.8420   48.8870 C   0  0  0  0  0  0  0  0  0  0  0  0
   62.4270   33.4060   48.9450 C   0  0  0  0  0  0  0  0  0  0  0  0
   62.0870   32.2420   49.6550 C   0  0  0  0  0  0  0  0  0  0  0  0
   60.7400   31.7540   49.6340 N   0  0  0  0  0  0  0  0  0  0  0  0
   60.0130   31.3800   48.4590 C   0  0  0  0  0  0  0  0  0  0  0  0
   58.8480   30.9000   48.5550 O   0  0  0  0  0  0  0  0  0  0  0  0
   60.6730   31.5350   47.1190 C   0  0  0  0  0  0  0  0  0  0  0  0
   59.8360   32.2990   46.1790 N   0  0  0  0  0  0  0  0  0  0  0  0
   60.0710   33.7150   46.0030 C   0  0  0  0  0  0  0  0  0  0  0  0
   61.0930   34.2590   46.5090 O   0  0  0  0  0  0  0  0  0  0  0  0
   59.0980   34.5730   45.2330 C   0  0  0  0  0  0  0  0  0  0  0  0
   57.3780   34.2370   45.7680 S   0  0  0  0  0  0  0  0  0  0  0  0
   57.5160   32.5090   45.3430 C   0  0  0  0  0  0  0  0  0  0  0  0
   56.6530   31.8240   44.6330 O   0  0  0  0  0  0  0  0  0  0  0  0
   57.1510   30.6230   44.4310 C   0  0  0  0  0  0  0  0  0  0  0  0
   56.4570   29.5700   43.6290 C   0  0  0  0  0  0  0  0  0  0  0  0
   58.4070   30.5150   45.0210 C   0  0  0  0  0  0  0  0  0  0  0  0
   59.3880   29.3890   44.8250 C   0  0  0  0  0  0  0  0  0  0  0  0
   58.8220   28.1250   45.3360 N   0  0  0  0  0  0  0  0  0  0  0  0
   59.8490   27.0760   45.4780 C   0  0  0  0  0  0  0  0  0  0  0  0
   59.1460   25.7170   45.6340 C   0  0  0  0  0  0  0  0  0  0  0  0
   57.8690   25.8790   46.3540 N   0  0  0  0  0  0  0  0  0  0  0  0
   56.6640   25.2490   45.8660 C   0  0  0  0  0  0  0  0  0  0  0  0
   55.5530   25.8370   46.0060 O   0  0  0  0  0  0  0  0  0  0  0  0
   56.6900   23.9430   45.1700 C   0  0  0  0  0  0  0  0  0  0  0  0
   56.4650   23.8820   43.7830 C   0  0  0  0  0  0  0  0  0  0  0  0
   56.4930   22.6540   43.1140 C   0  0  0  0  0  0  0  0  0  0  0  0
   56.7370   21.4760   43.8230 C   0  0  0  0  0  0  0  0  0  0  0  0
   56.9410   21.5230   45.2030 C   0  0  0  0  0  0  0  0  0  0  0  0
   56.9120   22.7490   45.8760 C   0  0  0  0  0  0  0  0  0  0  0  0
   57.7860   26.9830   47.3150 C   0  0  0  0  0  0  0  0  0  0  0  0
   58.0710   28.3200   46.6000 C   0  0  0  0  0  0  0  0  0  0  0  0
   58.6130   31.7420   45.6450 C   0  0  0  0  0  0  0  0  0  0  0  0
   63.0980   31.5030   50.3150 C   0  0  0  0  0  0  0  0  0  0  0  0
   62.7480   30.2390   51.0670 C   0  0  0  0  0  0  0  0  0  0  0  0
   65.4586   31.2613   51.9911 H   0  0  0  0  0  0  0  0  0  0  0  0
   65.5321   30.1309   50.5971 H   0  0  0  0  0  0  0  0  0  0  0  0
   66.5322   31.6230   50.5971 H   0  0  0  0  0  0  0  0  0  0  0  0
   65.7921   33.4688   49.4768 H   0  0  0  0  0  0  0  0  0  0  0  0
   63.9996   34.7604   48.3364 H   0  0  0  0  0  0  0  0  0  0  0  0
   61.6416   33.9785   48.4298 H   0  0  0  0  0  0  0  0  0  0  0  0
   61.6293   32.0619   47.2526 H   0  0  0  0  0  0  0  0  0  0  0  0
   60.8286   30.5308   46.6978 H   0  0  0  0  0  0  0  0  0  0  0  0
   59.3314   35.6331   45.4111 H   0  0  0  0  0  0  0  0  0  0  0  0
   59.1885   34.3380   44.1622 H   0  0  0  0  0  0  0  0  0  0  0  0
   55.9805   28.8470   44.3074 H   0  0  0  0  0  0  0  0  0  0  0  0
   55.6899   30.0382   42.9947 H   0  0  0  0  0  0  0  0  0  0  0  0
   57.1898   29.0497   42.9947 H   0  0  0  0  0  0  0  0  0  0  0  0
   59.6080   29.2813   43.7526 H   0  0  0  0  0  0  0  0  0  0  0  0
   60.3117   29.6176   45.3768 H   0  0  0  0  0  0  0  0  0  0  0  0
   60.4894   27.0612   44.5837 H   0  0  0  0  0  0  0  0  0  0  0  0
   60.4732   27.2791   46.3607 H   0  0  0  0  0  0  0  0  0  0  0  0
   58.9494   25.2940   44.6378 H   0  0  0  0  0  0  0  0  0  0  0  0
   59.7970   25.0421   46.2091 H   0  0  0  0  0  0  0  0  0  0  0  0
   56.2657   24.8061   43.2206 H   0  0  0  0  0  0  0  0  0  0  0  0
   56.3226   22.6162   42.0279 H   0  0  0  0  0  0  0  0  0  0  0  0
   56.7684   20.5118   43.2944 H   0  0  0  0  0  0  0  0  0  0  0  0
   57.1250   20.5940   45.7625 H   0  0  0  0  0  0  0  0  0  0  0  0
   57.0640   22.7783   46.9651 H   0  0  0  0  0  0  0  0  0  0  0  0
   56.7774   27.0108   47.7532 H   0  0  0  0  0  0  0  0  0  0  0  0
   58.5310   26.8298   48.1097 H   0  0  0  0  0  0  0  0  0  0  0  0
   57.1139   28.8120   46.3722 H   0  0  0  0  0  0  0  0  0  0  0  0
   58.6870   28.9387   47.2692 H   0  0  0  0  0  0  0  0  0  0  0  0
   62.8008   30.4296   52.1491 H   0  0  0  0  0  0  0  0  0  0  0  0
   61.7287   29.9235   50.7995 H   0  0  0  0  0  0  0  0  0  0  0  0
   63.4599   29.4442   50.7995 H   0  0  0  0  0  0  0  0  0  0  0  0
  1  2  1  0
  2  3  2  0
  3  4  1  0
  4  5  2  0
  5  6  1  0
  6  7  1  0
  7  8  1  0
  8  9  2  0
  8 10  1  0
 10 11  1  0
 11 12  1  0
 12 13  2  0
 12 14  1  0
 14 15  1  0
 15 16  1  0
 16 17  1  0
 17 18  1  0
 18 19  1  0
 18 20  2  0
 20 21  1  0
 21 22  1  0
 22 23  1  0
 23 24  1  0
 24 25  1  0
 25 26  1  0
 26 27  2  0
 26 28  1  0
 28 29  2  0
 29 30  1  0
 30 31  2  0
 31 32  1  0
 32 33  2  0
 25 34  1  0
 34 35  1  0
 20 36  1  0
  6 37  2  0
 37 38  1  0
 37  2  1  0
 36 11  1  0
 36 16  2  0
 35 22  1  0
 33 28  1  0
  1 39  1  0
  1 40  1  0
  1 41  1  0
  3 42  1  0
  4 43  1  0
  5 44  1  0
 10 45  1  0
 10 46  1  0
 14 47  1  0
 14 48  1  0
 19 49  1  0
 19 50  1  0
 19 51  1  0
 21 52  1  0
 21 53  1  0
 23 54  1  0
 23 55  1  0
 24 56  1  0
 24 57  1  0
 29 58  1  0
 30 59  1  0
 31 60  1  0
 32 61  1  0
 33 62  1  0
 34 63  1  0
 34 64  1  0
 35 65  1  0
 35 66  1  0
 38 67  1  0
 38 68  1  0
 38 69  1  0
M  CHG  1   7  -1
M  END
>  <UniqueID>  (61) 
55

>  <SMILES>  (61) 
Cc1cccc([N-]C(=O)CN2C(=O)CSc3oc(C)c(CN4CCN(C(=O)c5ccccc5)CC4)c32)c1C

>  <Energy>  (61) 
123.97230669644428

>  <Genealogy>  (61) 
Cc1cccc([N-]C(=O)CN2C(=O)CSc3oc(C)c(CN4CCN(C(=O)c5ccccc5)CC4)c32)c1C (protonated)
Cc1cccc([N-]C(=O)CN2C(=O)CSc3oc(C)c(CN4CCN(C(=O)c5ccccc5)CC4)c32)c1C (3D coordinates assigned)
Cc1cccc([N-]C(=O)CN2C(=O)CSc3oc(C)c(CN4CCN(C(=O)c5ccccc5)CC4)c32)c1C (nonaromatic ring conformer: 123.97230669644428 kcal/mol)

>  <smiles>  (61) 
Cc1cccc(NC(=O)CN2C(=O)CSc3oc(C)c(CN4CCN(C(=O)c5ccccc5)CC4)c32)c1C

>  <score_type>  (61) 
oracle

>  <origin>  (61) 
adg

>  <m_score__min__energy>  (61) 
-11.43

>  <m_primary>  (61) 
energy

$$$$
61:0
     RDKit          3D

 57 60  0  0  0  0  0  0  0  0999 V2000
   55.1240   29.9320   51.5770 O   0  0  0  0  0  0  0  0  0  0  0  0
   54.4400   30.0280   52.9110 S   0  0  0  0  0  0  0  0  0  0  0  0
   54.1320   28.6430   53.4050 O   0  0  0  0  0  0  0  0  0  0  0  0
   55.4970   30.8150   54.0420 N   0  0  0  0  0  0  0  0  0  0  0  0
   56.9110   30.8920   53.8420 C   0  0  0  0  0  0  0  0  0  0  0  0
   57.7540   30.2580   54.7600 C   0  0  0  0  0  0  0  0  0  0  0  0
   59.1320   30.2190   54.5440 C   0  0  0  0  0  0  0  0  0  0  0  0
   59.6770   30.8050   53.4010 C   0  0  0  0  0  0  0  0  0  0  0  0
   58.8500   31.4630   52.4780 C   0  0  0  0  0  0  0  0  0  0  0  0
   59.4170   32.0390   51.2890 N   0  0  0  0  0  0  0  0  0  0  0  0
   59.2650   33.4780   51.0520 C   0  0  0  0  0  0  0  0  0  0  0  0
   59.7900   33.8600   49.6670 C   0  0  0  0  0  0  0  0  0  0  0  0
   61.1250   33.2640   49.4590 N   0  0  0  0  0  0  0  0  0  0  0  0
   61.7380   33.7800   48.2130 C   0  0  0  0  0  0  0  0  0  0  0  0
   61.3420   32.9330   46.9900 C   0  0  0  0  0  0  0  0  0  0  0  0
   60.0200   33.3420   46.3870 C   0  0  0  0  0  0  0  0  0  0  0  0
   59.9420   34.5080   45.6040 C   0  0  0  0  0  0  0  0  0  0  0  0
   58.7250   34.9020   45.0400 C   0  0  0  0  0  0  0  0  0  0  0  0
   57.5770   34.1320   45.2440 C   0  0  0  0  0  0  0  0  0  0  0  0
   57.6460   32.9660   46.0090 C   0  0  0  0  0  0  0  0  0  0  0  0
   58.8600   32.5650   46.5770 C   0  0  0  0  0  0  0  0  0  0  0  0
   58.8970   31.4290   47.3190 F   0  0  0  0  0  0  0  0  0  0  0  0
   61.1050   31.7750   49.5010 C   0  0  0  0  0  0  0  0  0  0  0  0
   59.8680   31.1730   50.1970 C   0  0  0  0  0  0  0  0  0  0  0  0
   57.4670   31.5480   52.7210 C   0  0  0  0  0  0  0  0  0  0  0  0
   56.6730   32.3150   51.8660 O   0  0  0  0  0  0  0  0  0  0  0  0
   52.9480   30.9500   52.7190 C   0  0  0  0  0  0  0  0  0  0  0  0
   52.0790   31.0960   53.8090 C   0  0  0  0  0  0  0  0  0  0  0  0
   50.8670   31.7760   53.6570 C   0  0  0  0  0  0  0  0  0  0  0  0
   50.5180   32.3150   52.4150 C   0  0  0  0  0  0  0  0  0  0  0  0
   51.3820   32.1760   51.3250 C   0  0  0  0  0  0  0  0  0  0  0  0
   51.0320   32.7060   50.0900 O   0  0  0  0  0  0  0  0  0  0  0  0
   52.5960   31.4960   51.4750 C   0  0  0  0  0  0  0  0  0  0  0  0
   57.3281   29.7870   55.6582 H   0  0  0  0  0  0  0  0  0  0  0  0
   59.7892   29.7259   55.2754 H   0  0  0  0  0  0  0  0  0  0  0  0
   60.7611   30.7508   53.2225 H   0  0  0  0  0  0  0  0  0  0  0  0
   58.1998   33.7439   51.1196 H   0  0  0  0  0  0  0  0  0  0  0  0
   59.8452   34.0231   51.8111 H   0  0  0  0  0  0  0  0  0  0  0  0
   59.0985   33.4856   48.8978 H   0  0  0  0  0  0  0  0  0  0  0  0
   59.8647   34.9551   49.5950 H   0  0  0  0  0  0  0  0  0  0  0  0
   61.4028   34.8154   48.0531 H   0  0  0  0  0  0  0  0  0  0  0  0
   62.8314   33.7321   48.3236 H   0  0  0  0  0  0  0  0  0  0  0  0
   62.1237   33.0388   46.2234 H   0  0  0  0  0  0  0  0  0  0  0  0
   61.2376   31.8929   47.3324 H   0  0  0  0  0  0  0  0  0  0  0  0
   60.8444   35.1137   45.4344 H   0  0  0  0  0  0  0  0  0  0  0  0
   58.6711   35.8191   44.4350 H   0  0  0  0  0  0  0  0  0  0  0  0
   56.6193   34.4443   44.8021 H   0  0  0  0  0  0  0  0  0  0  0  0
   56.7416   32.3598   46.1658 H   0  0  0  0  0  0  0  0  0  0  0  0
   61.1334   31.4014   48.4668 H   0  0  0  0  0  0  0  0  0  0  0  0
   61.9791   31.4663   50.0932 H   0  0  0  0  0  0  0  0  0  0  0  0
   59.0565   31.0658   49.4622 H   0  0  0  0  0  0  0  0  0  0  0  0
   60.1382   30.1909   50.6124 H   0  0  0  0  0  0  0  0  0  0  0  0
   55.7720   32.0000   51.5320 H   0  0  0  0  0  0  0  0  0  0  0  0
   52.3516   30.6740   54.7876 H   0  0  0  0  0  0  0  0  0  0  0  0
   50.1876   31.8870   54.5150 H   0  0  0  0  0  0  0  0  0  0  0  0
   49.5635   32.8485   52.2956 H   0  0  0  0  0  0  0  0  0  0  0  0
   53.2754   31.3893   50.6165 H   0  0  0  0  0  0  0  0  0  0  0  0
  1  2  2  0
  2  3  2  0
  2  4  1  0
  4  5  1  0
  5  6  2  0
  6  7  1  0
  7  8  2  0
  8  9  1  0
  9 10  1  0
 10 11  1  0
 11 12  1  0
 12 13  1  0
 13 14  1  0
 14 15  1  0
 15 16  1  0
 16 17  2  0
 17 18  1  0
 18 19  2  0
 19 20  1  0
 20 21  2  0
 21 22  1  0
 13 23  1  0
 23 24  1  0
  9 25  2  0
 25 26  1  0
  2 27  1  0
 27 28  2  0
 28 29  1  0
 29 30  2  0
 30 31  1  0
 31 32  1  0
 31 33  2  0
 25  5  1  0
 33 27  1  0
 24 10  1  0
 21 16  1  0
  6 34  1  0
  7 35  1  0
  8 36  1  0
 11 37  1  0
 11 38  1  0
 12 39  1  0
 12 40  1  0
 14 41  1  0
 14 42  1  0
 15 43  1  0
 15 44  1  0
 17 45  1  0
 18 46  1  0
 19 47  1  0
 20 48  1  0
 23 49  1  0
 23 50  1  0
 24 51  1  0
 24 52  1  0
 26 53  1  0
 28 54  1  0
 29 55  1  0
 30 56  1  0
 33 57  1  0
M  CHG  2   4  -1  32  -1
M  END
>  <UniqueID>  (62) 
56

>  <SMILES>  (62) 
O=S(=O)([N-]c1cccc(N2CCN(CCc3ccccc3F)CC2)c1O)c1cccc([O-])c1

>  <Energy>  (62) 
79.04844967148057

>  <Genealogy>  (62) 
O=S(=O)([N-]c1cccc(N2CCN(CCc3ccccc3F)CC2)c1O)c1cccc([O-])c1 (protonated)
O=S(=O)([N-]c1cccc(N2CCN(CCc3ccccc3F)CC2)c1O)c1cccc([O-])c1 (3D coordinates assigned)
O=S(=O)([N-]c1cccc(N2CCN(CCc3ccccc3F)CC2)c1O)c1cccc([O-])c1 (nonaromatic ring conformer: 79.04844967148057 kcal/mol)

>  <smiles>  (62) 
O=S(=O)(Nc1cccc(N2CCN(CCc3ccccc3F)CC2)c1O)c1cccc(O)c1

>  <score_type>  (62) 
oracle

>  <origin>  (62) 
adg

>  <m_score__min__energy>  (62) 
-13.470000000000001

>  <m_primary>  (62) 
energy

$$$$
62:0
     RDKit          3D

 31 33  0  0  0  0  0  0  0  0999 V2000
   60.9328   31.3282   46.7727 H   0  0  0  0  0  0  0  0  0  0  0  0
   60.7160   30.2730   46.5500 C   0  0  0  0  0  0  0  0  0  0  0  0
   61.4593   29.4971   46.7857 H   0  0  0  0  0  0  0  0  0  0  0  0
   59.5370   29.9300   45.9870 C   0  0  0  0  0  0  0  0  0  0  0  0
   59.2690   28.5700   45.7050 C   0  0  0  0  0  0  0  0  0  0  0  0
   60.1230   27.6760   45.9750 O   0  0  0  0  0  0  0  0  0  0  0  0
   58.0390   28.2210   45.1160 C   0  0  0  0  0  0  0  0  0  0  0  0
   57.7290   26.9370   44.8480 C   0  0  0  0  0  0  0  0  0  0  0  0
   57.8836   26.5750   43.8208 H   0  0  0  0  0  0  0  0  0  0  0  0
   57.1950   25.9830   45.8430 C   0  0  0  0  0  0  0  0  0  0  0  0
   57.9220   24.9690   46.3440 N   0  0  0  0  0  0  0  0  0  0  0  0
   57.0500   24.3220   47.1480 C   0  0  0  0  0  0  0  0  0  0  0  0
   57.3710   23.3040   47.8160 O   0  0  0  0  0  0  0  0  0  0  0  0
   55.8080   24.8460   47.1740 N   0  0  0  0  0  0  0  0  0  0  0  0
   55.9090   25.8890   46.3350 C   0  0  0  0  0  0  0  0  0  0  0  0
   54.8350   26.7010   45.9940 O   0  0  0  0  0  0  0  0  0  0  0  0
   57.1420   29.2030   44.8520 N   0  0  0  0  0  0  0  0  0  0  0  0
   57.3940   30.5060   45.1190 C   0  0  0  0  0  0  0  0  0  0  0  0
   56.5140   31.3650   44.8400 O   0  0  0  0  0  0  0  0  0  0  0  0
   58.5850   30.8820   45.6810 N   0  0  0  0  0  0  0  0  0  0  0  0
   58.8030   32.2850   45.9400 C   0  0  0  0  0  0  0  0  0  0  0  0
   58.9040   33.1830   44.8670 C   0  0  0  0  0  0  0  0  0  0  0  0
   58.8160   32.8151   43.8341 H   0  0  0  0  0  0  0  0  0  0  0  0
   59.1160   34.5430   45.1060 C   0  0  0  0  0  0  0  0  0  0  0  0
   59.1949   35.2433   44.2614 H   0  0  0  0  0  0  0  0  0  0  0  0
   59.2280   35.0150   46.4170 C   0  0  0  0  0  0  0  0  0  0  0  0
   59.3934   36.0865   46.6029 H   0  0  0  0  0  0  0  0  0  0  0  0
   59.1300   34.1270   47.4920 C   0  0  0  0  0  0  0  0  0  0  0  0
   59.2196   34.5010   48.5226 H   0  0  0  0  0  0  0  0  0  0  0  0
   58.9180   32.7620   47.2600 C   0  0  0  0  0  0  0  0  0  0  0  0
   58.7970   31.6670   48.6300 Cl  0  0  0  0  0  0  0  0  0  0  0  0
  1  2  1  0
  2  3  1  0
  2  4  2  0
  4  5  1  0
  5  6  2  0
  5  7  1  0
  7  8  2  0
  8  9  1  0
  8 10  1  0
 10 11  1  0
 11 12  1  0
 12 13  2  0
 12 14  1  0
 14 15  1  0
 15 16  1  0
  7 17  1  0
 17 18  1  0
 18 19  2  0
 18 20  1  0
 20 21  1  0
 21 22  2  0
 22 23  1  0
 22 24  1  0
 24 25  1  0
 24 26  2  0
 26 27  1  0
 26 28  1  0
 28 29  1  0
 28 30  2  0
 30 31  1  0
 20  4  1  0
 30 21  1  0
 15 10  2  0
M  CHG  4  11  -1  14  -1  16  -1  17  -1
M  END
>  <UniqueID>  (63) 
57

>  <SMILES>  (63) 
C=c1c(=O)/c(=C/c2[n-]c(=O)[n-]c2[O-])[n-]c(=O)n1-c1ccccc1Cl

>  <Energy>  (63) 
86.69779955059188

>  <Genealogy>  (63) 
C=c1c(=O)c(=Cc2[n-]c(=O)[n-]c2[O-])[n-]c(=O)n1-c1ccccc1Cl (protonated)
C=c1c(=O)/c(=C/c2[n-]c(=O)[n-]c2[O-])[n-]c(=O)n1-c1ccccc1Cl (cis-trans isomerization)
C=c1c(=O)/c(=C/c2[n-]c(=O)[n-]c2[O-])[n-]c(=O)n1-c1ccccc1Cl (3D coordinates assigned)
C=c1c(=O)/c(=C/c2[n-]c(=O)[n-]c2[O-])[n-]c(=O)n1-c1ccccc1Cl (optimized conformer: 86.69779955059188 kcal/mol)

>  <smiles>  (63) 
C=c1c(=O)c(=Cc2[nH]c(=O)[nH]c2O)[nH]c(=O)n1-c1ccccc1Cl

>  <score_type>  (63) 
oracle

>  <origin>  (63) 
adg

>  <m_score__min__energy>  (63) 
-17.359999999999999

>  <m_primary>  (63) 
energy

$$$$
63:0
     RDKit          3D

 47 49  0  0  1  0  0  0  0  0999 V2000
   59.6720   35.3150   46.4960 C   0  0  0  0  0  0  0  0  0  0  0  0
   58.9450   34.7450   45.2950 C   0  0  0  0  0  0  0  0  0  0  0  0
   57.8370   33.8520   45.8180 C   0  0  0  0  0  0  0  0  0  0  0  0
   57.6820   32.7530   44.8320 C   0  0  0  0  0  0  0  0  0  0  0  0
   58.1470   33.0290   43.5430 C   0  0  0  0  0  0  0  0  0  0  0  0
   57.9890   31.9840   42.6270 C   0  0  0  0  0  0  0  0  0  0  0  0
   58.4060   32.2240   41.4630 O   0  0  0  0  0  0  0  0  0  0  0  0
   57.4300   30.8180   42.9930 N   0  0  0  0  0  0  0  0  0  0  0  0
   56.9950   30.5950   44.2470 C   0  0  0  0  0  0  0  0  0  0  0  0
   56.2690   29.0000   44.6040 S   0  0  0  0  0  0  0  0  0  0  0  0
   57.5860   27.7790   44.8950 C   0  0  0  0  0  0  0  0  0  0  0  0
   58.3520   28.2120   46.0660 C   0  0  0  0  0  0  0  0  0  0  0  0
   58.1270   27.7120   47.2220 O   0  0  0  0  0  0  0  0  0  0  0  0
   59.3870   29.1980   46.0340 N   0  0  0  0  0  0  0  0  0  0  0  0
   59.4850   30.1000   46.9480 C   0  0  0  0  0  0  0  0  0  0  0  0
   58.9360   30.2370   48.1590 N   0  0  0  0  0  0  0  0  0  0  0  0
   59.2310   31.2850   48.8700 C   0  0  0  0  0  0  0  0  0  0  0  0
   60.0750   32.2220   48.4060 C   0  0  0  0  0  0  0  0  0  0  0  0
   60.6060   33.4840   48.9190 C   0  0  0  0  0  0  0  0  0  0  0  0
   62.0660   33.4380   49.1860 C   0  0  0  0  0  0  0  0  0  0  0  0
   63.0020   33.0970   48.2320 C   0  0  0  0  0  0  0  0  0  0  0  0
   64.3530   33.0860   48.5980 C   0  0  0  0  0  0  0  0  0  0  0  0
   64.7300   33.4140   49.8970 C   0  0  0  0  0  0  0  0  0  0  0  0
   66.0420   33.4100   50.2740 F   0  0  0  0  0  0  0  0  0  0  0  0
   63.7970   33.7570   50.8590 C   0  0  0  0  0  0  0  0  0  0  0  0
   62.4800   33.7610   50.4770 C   0  0  0  0  0  0  0  0  0  0  0  0
   60.5630   31.6080   46.7360 S   0  0  0  0  0  0  0  0  0  0  0  0
   57.1290   31.5630   45.1410 N   0  0  0  0  0  0  0  0  0  0  0  0
   59.2010   34.9457   47.4189 H   0  0  0  0  0  0  0  0  0  0  0  0
   60.7255   34.9997   46.4705 H   0  0  0  0  0  0  0  0  0  0  0  0
   59.6172   36.4133   46.4705 H   0  0  0  0  0  0  0  0  0  0  0  0
   58.5181   35.5601   44.6922 H   0  0  0  0  0  0  0  0  0  0  0  0
   59.6360   34.1739   44.6575 H   0  0  0  0  0  0  0  0  0  0  0  0
   58.1102   33.4440   46.8023 H   0  0  0  0  0  0  0  0  0  0  0  0
   56.8984   34.4123   45.9406 H   0  0  0  0  0  0  0  0  0  0  0  0
   58.6017   33.9928   43.2704 H   0  0  0  0  0  0  0  0  0  0  0  0
   57.3520   30.0910   42.2440 H   0  0  0  0  0  0  0  0  0  0  0  0
   57.1433   26.7897   45.0831 H   0  0  0  0  0  0  0  0  0  0  0  0
   58.2414   27.7058   44.0146 H   0  0  0  0  0  0  0  0  0  0  0  0
   58.2640   29.4680   48.5030 H   0  0  0  0  0  0  0  0  0  0  0  0
   58.7825   31.4064   49.8671 H   0  0  0  0  0  0  0  0  0  0  0  0
   60.4107   34.2728   48.1776 H   0  0  0  0  0  0  0  0  0  0  0  0
   60.1043   33.6847   49.8771 H   0  0  0  0  0  0  0  0  0  0  0  0
   62.6940   32.8398   47.2078 H   0  0  0  0  0  0  0  0  0  0  0  0
   65.1195   32.8171   47.8563 H   0  0  0  0  0  0  0  0  0  0  0  0
   64.0982   34.0151   51.8850 H   0  0  0  0  0  0  0  0  0  0  0  0
   61.7170   34.0309   51.2220 H   0  0  0  0  0  0  0  0  0  0  0  0
  1  2  1  0
  2  3  1  0
  3  4  1  0
  4  5  2  0
  5  6  1  0
  6  7  2  0
  6  8  1  0
  8  9  1  0
  9 10  1  0
 10 11  1  0
 11 12  1  0
 12 13  2  0
 12 14  1  0
 14 15  2  0
 15 16  1  0
 16 17  1  0
 17 18  2  0
 18 19  1  0
 19 20  1  0
 20 21  2  0
 21 22  1  0
 22 23  2  0
 23 24  1  0
 23 25  1  0
 25 26  2  0
 18 27  1  0
  9 28  2  0
 28  4  1  0
 27 15  1  0
 26 20  1  0
  1 29  1  0
  1 30  1  0
  1 31  1  0
  2 32  1  0
  2 33  1  0
  3 34  1  0
  3 35  1  0
  5 36  1  0
  8 37  1  0
 11 38  1  0
 11 39  1  0
 16 40  1  0
 17 41  1  0
 19 42  1  0
 19 43  1  0
 21 44  1  0
 22 45  1  0
 25 46  1  0
 26 47  1  0
M  END
>  <smiles>  (64) 
CCCc1cc(=O)[nH]c(SCC(=O)N=c2[nH]cc(Cc3ccc(F)cc3)s2)n1

>  <score_type>  (64) 
oracle

>  <origin>  (64) 
adg

>  <m_score__min__energy>  (64) 
-9.3699999999999992

>  <m_primary>  (64) 
energy

$$$$
64:0
     RDKit          3D

 31 32  0  0  0  0  0  0  0  0999 V2000
   54.7200   28.9520   45.6300 H   0  0  0  0  0  0  0  0  0  0  0  0
   55.5720   28.6430   45.1800 O   0  0  0  0  0  0  0  0  0  0  0  0
   56.2410   27.5030   45.6210 C   0  0  0  0  0  0  0  0  0  0  0  0
   55.5320   26.4680   46.1450 N   0  0  0  0  0  0  0  0  0  0  0  0
   56.1530   25.3460   46.5890 C   0  0  0  0  0  0  0  0  0  0  0  0
   55.4750   24.4000   47.0650 O   0  0  0  0  0  0  0  0  0  0  0  0
   57.5050   25.2480   46.5280 N   0  0  0  0  0  0  0  0  0  0  0  0
   58.2600   26.2530   46.0160 C   0  0  0  0  0  0  0  0  0  0  0  0
   59.5150   26.1380   46.0070 O   0  0  0  0  0  0  0  0  0  0  0  0
   57.6380   27.4140   45.5180 C   0  0  0  0  0  0  0  0  0  0  0  0
   58.4150   28.5570   44.9800 C   0  0  0  0  0  0  0  0  0  0  0  0
   59.3107   28.3147   44.3893 H   0  0  0  0  0  0  0  0  0  0  0  0
   58.1260   29.8810   45.1470 C   0  0  0  0  0  0  0  0  0  0  0  0
   58.4690   30.5120   46.3850 C   0  0  0  0  0  0  0  0  0  0  0  0
   58.9990   29.7430   47.5760 C   0  0  0  0  0  0  0  0  0  0  0  0
   58.6643   30.2287   48.5045 H   0  0  0  0  0  0  0  0  0  0  0  0
   58.6194   28.7110   47.5446 H   0  0  0  0  0  0  0  0  0  0  0  0
   60.0985   29.7304   47.5446 H   0  0  0  0  0  0  0  0  0  0  0  0
   58.4010   31.9090   46.5020 C   0  0  0  0  0  0  0  0  0  0  0  0
   58.7020   32.3873   47.4457 H   0  0  0  0  0  0  0  0  0  0  0  0
   57.9590   32.7010   45.4440 C   0  0  0  0  0  0  0  0  0  0  0  0
   57.9600   34.1980   45.5670 C   0  0  0  0  0  0  0  0  0  0  0  0
   57.9602   34.4785   46.6306 H   0  0  0  0  0  0  0  0  0  0  0  0
   58.8584   34.6053   45.0802 H   0  0  0  0  0  0  0  0  0  0  0  0
   57.0621   34.6065   45.0802 H   0  0  0  0  0  0  0  0  0  0  0  0
   57.5320   32.0950   44.2640 C   0  0  0  0  0  0  0  0  0  0  0  0
   57.1910   32.7226   43.4274 H   0  0  0  0  0  0  0  0  0  0  0  0
   57.5290   30.6950   44.1230 C   0  0  0  0  0  0  0  0  0  0  0  0
   56.8520   30.1920   43.0720 C   0  0  0  0  0  0  0  0  0  0  0  0
   56.8150   29.1045   42.9111 H   0  0  0  0  0  0  0  0  0  0  0  0
   56.3364   30.8690   42.3749 H   0  0  0  0  0  0  0  0  0  0  0  0
  1  2  1  0
  2  3  1  0
  3  4  1  0
  4  5  1  0
  5  6  2  0
  5  7  1  0
  7  8  1  0
  8  9  2  0
  8 10  1  0
 10 11  1  0
 11 12  1  0
 11 13  2  0
 13 14  1  0
 14 15  1  0
 15 16  1  0
 15 17  1  0
 15 18  1  0
 14 19  2  0
 19 20  1  0
 19 21  1  0
 21 22  1  0
 22 23  1  0
 22 24  1  0
 22 25  1  0
 21 26  2  0
 26 27  1  0
 26 28  1  0
 28 29  2  0
 29 30  1  0
 29 31  1  0
 10  3  2  0
 28 13  1  0
M  CHG  2   4  -1   7  -1
M  END
>  <UniqueID>  (65) 
58

>  <SMILES>  (65) 
C=c1cc(C)cc(C)/c1=C/c1c(O)[n-]c(=O)[n-]c1=O

>  <Energy>  (65) 
58.6852497245885

>  <Genealogy>  (65) 
C=c1cc(C)cc(C)c1=Cc1c(O)[n-]c(=O)[n-]c1=O (protonated)
C=c1cc(C)cc(C)/c1=C/c1c(O)[n-]c(=O)[n-]c1=O (cis-trans isomerization)
C=c1cc(C)cc(C)/c1=C/c1c(O)[n-]c(=O)[n-]c1=O (3D coordinates assigned)
C=c1cc(C)cc(C)/c1=C/c1c(O)[n-]c(=O)[n-]c1=O (optimized conformer: 58.6852497245885 kcal/mol)

>  <smiles>  (65) 
C=c1cc(C)cc(C)c1=Cc1c(O)[nH]c(=O)[nH]c1=O

>  <score_type>  (65) 
oracle

>  <origin>  (65) 
adg

>  <m_score__min__energy>  (65) 
-12.16

>  <m_primary>  (65) 
energy

$$$$
65:0
     RDKit          3D

 48 50  0  0  0  0  0  0  0  0999 V2000
   59.3820   33.3110   49.0830 O   0  0  0  0  0  0  0  0  0  0  0  0
   59.9960   33.1890   47.9870 C   0  0  0  0  0  0  0  0  0  0  0  0
   61.4220   33.0040   47.9910 N   0  0  0  0  0  0  0  0  0  0  0  0
   62.1750   32.8100   49.2280 C   0  0  0  0  0  0  0  0  0  0  0  0
   63.6510   32.9810   48.9810 C   0  0  0  0  0  0  0  0  0  0  0  0
   64.0350   33.4680   47.8830 O   0  0  0  0  0  0  0  0  0  0  0  0
   64.6290   32.5440   49.9420 N   0  0  0  0  0  0  0  0  0  0  0  0
   64.3160   31.8500   51.1810 C   0  0  0  0  0  0  0  0  0  0  0  0
   65.6570   31.4110   51.7540 C   0  0  0  0  0  0  0  0  0  0  0  0
   66.7130   32.2470   51.0370 C   0  0  0  0  0  0  0  0  0  0  0  0
   66.0580   32.7280   49.7480 C   0  0  0  0  0  0  0  0  0  0  0  0
   59.2350   33.2630   46.7170 C   0  0  0  0  0  0  0  0  0  0  0  0
   59.0650   34.5000   46.0710 C   0  0  0  0  0  0  0  0  0  0  0  0
   58.3500   34.5820   44.8740 C   0  0  0  0  0  0  0  0  0  0  0  0
   57.7920   33.4330   44.3100 C   0  0  0  0  0  0  0  0  0  0  0  0
   57.9460   32.1920   44.9420 C   0  0  0  0  0  0  0  0  0  0  0  0
   57.2230   30.7400   44.2380 S   0  0  0  0  0  0  0  0  0  0  0  0
   57.0540   30.9460   42.7580 O   0  0  0  0  0  0  0  0  0  0  0  0
   55.8600   30.5330   44.8370 O   0  0  0  0  0  0  0  0  0  0  0  0
   58.1870   29.3070   44.5050 N   0  0  0  0  0  0  0  0  0  0  0  0
   57.7800   28.2020   43.6390 C   0  0  0  0  0  0  0  0  0  0  0  0
   58.1950   26.9240   44.3520 C   0  0  0  0  0  0  0  0  0  0  0  0
   58.3800   27.3180   45.8100 C   0  0  0  0  0  0  0  0  0  0  0  0
   58.0580   28.8030   45.8700 C   0  0  0  0  0  0  0  0  0  0  0  0
   58.6550   32.1130   46.1490 C   0  0  0  0  0  0  0  0  0  0  0  0
   61.9580   33.0520   47.0960 H   0  0  0  0  0  0  0  0  0  0  0  0
   61.8447   33.5495   49.9723 H   0  0  0  0  0  0  0  0  0  0  0  0
   61.9927   31.7905   49.5986 H   0  0  0  0  0  0  0  0  0  0  0  0
   63.8022   32.5258   51.8805 H   0  0  0  0  0  0  0  0  0  0  0  0
   63.6463   30.9942   51.0104 H   0  0  0  0  0  0  0  0  0  0  0  0
   65.6903   31.5998   52.8372 H   0  0  0  0  0  0  0  0  0  0  0  0
   65.8260   30.3342   51.6060 H   0  0  0  0  0  0  0  0  0  0  0  0
   67.0097   33.1045   51.6589 H   0  0  0  0  0  0  0  0  0  0  0  0
   67.6228   31.6627   50.8349 H   0  0  0  0  0  0  0  0  0  0  0  0
   66.2881   33.7894   49.5735 H   0  0  0  0  0  0  0  0  0  0  0  0
   66.4246   32.1709   48.8732 H   0  0  0  0  0  0  0  0  0  0  0  0
   59.4983   35.4100   46.5115 H   0  0  0  0  0  0  0  0  0  0  0  0
   58.2262   35.5541   44.3744 H   0  0  0  0  0  0  0  0  0  0  0  0
   57.2300   33.5023   43.3670 H   0  0  0  0  0  0  0  0  0  0  0  0
   56.6904   28.2175   43.4888 H   0  0  0  0  0  0  0  0  0  0  0  0
   58.2509   28.2772   42.6477 H   0  0  0  0  0  0  0  0  0  0  0  0
   57.4114   26.1580   44.2566 H   0  0  0  0  0  0  0  0  0  0  0  0
   59.1133   26.4958   43.9238 H   0  0  0  0  0  0  0  0  0  0  0  0
   57.6926   26.7487   46.4529 H   0  0  0  0  0  0  0  0  0  0  0  0
   59.3990   27.1053   46.1655 H   0  0  0  0  0  0  0  0  0  0  0  0
   57.0322   28.9556   46.2368 H   0  0  0  0  0  0  0  0  0  0  0  0
   58.7360   29.3312   46.5565 H   0  0  0  0  0  0  0  0  0  0  0  0
   58.7590   31.1429   46.6571 H   0  0  0  0  0  0  0  0  0  0  0  0
  1  2  2  0
  2  3  1  0
  3  4  1  0
  4  5  1  0
  5  6  2  0
  5  7  1  0
  7  8  1  0
  8  9  1  0
  9 10  1  0
 10 11  1  0
  2 12  1  0
 12 13  2  0
 13 14  1  0
 14 15  2  0
 15 16  1  0
 16 17  1  0
 17 18  2  0
 17 19  2  0
 17 20  1  0
 20 21  1  0
 21 22  1  0
 22 23  1  0
 23 24  1  0
 16 25  2  0
 11  7  1  0
 25 12  1  0
 24 20  1  0
  3 26  1  0
  4 27  1  0
  4 28  1  0
  8 29  1  0
  8 30  1  0
  9 31  1  0
  9 32  1  0
 10 33  1  0
 10 34  1  0
 11 35  1  0
 11 36  1  0
 13 37  1  0
 14 38  1  0
 15 39  1  0
 21 40  1  0
 21 41  1  0
 22 42  1  0
 22 43  1  0
 23 44  1  0
 23 45  1  0
 24 46  1  0
 24 47  1  0
 25 48  1  0
M  END
>  <UniqueID>  (66) 
59

>  <SMILES>  (66) 
O=C(NCC(=O)N1CCCC1)c1cccc(S(=O)(=O)N2CCCC2)c1

>  <Energy>  (66) 
47.742503636790715

>  <Genealogy>  (66) 
O=C(NCC(=O)N1CCCC1)c1cccc(S(=O)(=O)N2CCCC2)c1 (3D coordinates assigned)
O=C(NCC(=O)N1CCCC1)c1cccc(S(=O)(=O)N2CCCC2)c1 (nonaromatic ring conformer: 47.742503636790715 kcal/mol)

>  <smiles>  (66) 
O=C(NCC(=O)N1CCCC1)c1cccc(S(=O)(=O)N2CCCC2)c1

>  <score_type>  (66) 
oracle

>  <origin>  (66) 
adg

>  <m_score__min__energy>  (66) 
-9.5099999999999998

>  <m_primary>  (66) 
energy

$$$$
66:0
     RDKit          3D

 50 53  0  0  0  0  0  0  0  0999 V2000
   59.5390   30.4900   50.5880 N   0  0  0  0  0  0  0  0  0  0  0  0
   59.0310   30.7830   49.2890 C   0  0  0  0  0  0  0  0  0  0  0  0
   58.5460   29.8510   48.5930 O   0  0  0  0  0  0  0  0  0  0  0  0
   59.0020   32.1630   48.7760 C   0  0  0  0  0  0  0  0  0  0  0  0
   59.3770   33.3450   49.4270 C   0  0  0  0  0  0  0  0  0  0  0  0
   59.8950   33.4740   50.8020 C   0  0  0  0  0  0  0  0  0  0  0  0
   59.2760   34.1840   51.6370 O   0  0  0  0  0  0  0  0  0  0  0  0
   61.1280   32.8610   51.1990 N   0  0  0  0  0  0  0  0  0  0  0  0
   62.4490   33.3950   50.9010 C   0  0  0  0  0  0  0  0  0  0  0  0
   62.7720   33.1490   49.4570 C   0  0  0  0  0  0  0  0  0  0  0  0
   63.1380   34.2150   48.6250 C   0  0  0  0  0  0  0  0  0  0  0  0
   63.3990   33.9900   47.2710 C   0  0  0  0  0  0  0  0  0  0  0  0
   63.2920   32.7050   46.7400 C   0  0  0  0  0  0  0  0  0  0  0  0
   62.9100   31.6410   47.5600 C   0  0  0  0  0  0  0  0  0  0  0  0
   62.6410   31.8610   48.9140 C   0  0  0  0  0  0  0  0  0  0  0  0
   59.2770   34.3990   48.5840 N   0  0  0  0  0  0  0  0  0  0  0  0
   58.8620   33.9020   47.4090 C   0  0  0  0  0  0  0  0  0  0  0  0
   58.6190   34.6090   46.2350 C   0  0  0  0  0  0  0  0  0  0  0  0
   58.1790   33.8900   45.1100 C   0  0  0  0  0  0  0  0  0  0  0  0
   57.9880   32.4850   45.1790 C   0  0  0  0  0  0  0  0  0  0  0  0
   57.5200   31.7270   44.0580 N   0  0  0  0  0  0  0  0  0  0  0  0
   56.8910   30.1120   44.1300 S   0  0  0  0  0  0  0  0  0  0  0  0
   56.6600   29.6140   42.7320 O   0  0  0  0  0  0  0  0  0  0  0  0
   55.5760   30.1180   44.8570 O   0  0  0  0  0  0  0  0  0  0  0  0
   58.0470   29.0460   44.9240 C   0  0  0  0  0  0  0  0  0  0  0  0
   59.4160   29.2010   44.6680 C   0  0  0  0  0  0  0  0  0  0  0  0
   60.3440   28.3460   45.2710 C   0  0  0  0  0  0  0  0  0  0  0  0
   59.9120   27.3410   46.1400 C   0  0  0  0  0  0  0  0  0  0  0  0
   60.8120   26.5180   46.7240 F   0  0  0  0  0  0  0  0  0  0  0  0
   58.5460   27.1890   46.4040 C   0  0  0  0  0  0  0  0  0  0  0  0
   57.6160   28.0350   45.7950 C   0  0  0  0  0  0  0  0  0  0  0  0
   58.2540   31.8060   46.3830 C   0  0  0  0  0  0  0  0  0  0  0  0
   58.6950   32.5460   47.4810 C   0  0  0  0  0  0  0  0  0  0  0  0
   59.7060   31.2500   51.2810 H   0  0  0  0  0  0  0  0  0  0  0  0
   59.6350   29.4980   50.8920 H   0  0  0  0  0  0  0  0  0  0  0  0
   62.4611   34.4767   51.1006 H   0  0  0  0  0  0  0  0  0  0  0  0
   63.1979   32.8975   51.5348 H   0  0  0  0  0  0  0  0  0  0  0  0
   63.2200   35.2310   49.0385 H   0  0  0  0  0  0  0  0  0  0  0  0
   63.6898   34.8291   46.6218 H   0  0  0  0  0  0  0  0  0  0  0  0
   63.5084   32.5295   45.6759 H   0  0  0  0  0  0  0  0  0  0  0  0
   62.8207   30.6284   47.1398 H   0  0  0  0  0  0  0  0  0  0  0  0
   62.3263   31.0240   49.5547 H   0  0  0  0  0  0  0  0  0  0  0  0
   59.4740   35.4000   48.8030 H   0  0  0  0  0  0  0  0  0  0  0  0
   58.7669   35.6980   46.1888 H   0  0  0  0  0  0  0  0  0  0  0  0
   57.9808   34.4211   44.1673 H   0  0  0  0  0  0  0  0  0  0  0  0
   59.7613   29.9967   43.9915 H   0  0  0  0  0  0  0  0  0  0  0  0
   61.4171   28.4651   45.0605 H   0  0  0  0  0  0  0  0  0  0  0  0
   58.2041   26.4020   47.0923 H   0  0  0  0  0  0  0  0  0  0  0  0
   56.5426   27.9078   45.9992 H   0  0  0  0  0  0  0  0  0  0  0  0
   58.1174   30.7170   46.4568 H   0  0  0  0  0  0  0  0  0  0  0  0
  1  2  1  0
  2  3  2  0
  2  4  1  0
  4  5  2  0
  5  6  1  0
  6  7  2  0
  6  8  1  0
  8  9  1  0
  9 10  1  0
 10 11  2  0
 11 12  1  0
 12 13  2  0
 13 14  1  0
 14 15  2  0
  5 16  1  0
 16 17  1  0
 17 18  2  0
 18 19  1  0
 19 20  2  0
 20 21  1  0
 21 22  1  0
 22 23  2  0
 22 24  2  0
 22 25  1  0
 25 26  2  0
 26 27  1  0
 27 28  2  0
 28 29  1  0
 28 30  1  0
 30 31  2  0
 20 32  1  0
 32 33  2  0
 33  4  1  0
 15 10  1  0
 33 17  1  0
 31 25  1  0
  1 34  1  0
  1 35  1  0
  9 36  1  0
  9 37  1  0
 11 38  1  0
 12 39  1  0
 13 40  1  0
 14 41  1  0
 15 42  1  0
 16 43  1  0
 18 44  1  0
 19 45  1  0
 26 46  1  0
 27 47  1  0
 30 48  1  0
 31 49  1  0
 32 50  1  0
M  CHG  2   8  -1  21  -1
M  END
>  <UniqueID>  (67) 
60

>  <SMILES>  (67) 
NC(=O)c1c(C(=O)[N-]Cc2ccccc2)[nH]c2ccc([N-]S(=O)(=O)c3ccc(F)cc3)cc12

>  <Energy>  (67) 
99.00250246522079

>  <Genealogy>  (67) 
NC(=O)c1c(C(=O)[N-]Cc2ccccc2)[nH]c2ccc([N-]S(=O)(=O)c3ccc(F)cc3)cc12 (protonated)
NC(=O)c1c(C(=O)[N-]Cc2ccccc2)[nH]c2ccc([N-]S(=O)(=O)c3ccc(F)cc3)cc12 (3D coordinates assigned)
NC(=O)c1c(C(=O)[N-]Cc2ccccc2)[nH]c2ccc([N-]S(=O)(=O)c3ccc(F)cc3)cc12 (optimized conformer: 99.00250246522079 kcal/mol)

>  <smiles>  (67) 
NC(=O)c1c(C(=O)NCc2ccccc2)[nH]c2ccc(NS(=O)(=O)c3ccc(F)cc3)cc12

>  <score_type>  (67) 
oracle

>  <origin>  (67) 
adg

>  <m_score__min__energy>  (67) 
-12.640000000000001

>  <m_primary>  (67) 
energy

$$$$
67:0
     RDKit          3D

 42 44  0  0  0  0  0  0  0  0999 V2000
   57.3980   23.8440   48.2840 N   0  0  0  0  0  0  0  0  0  0  0  0
   56.7230   24.3140   46.7640 S   0  0  0  0  0  0  0  0  0  0  0  0
   57.1910   23.3700   45.6920 O   0  0  0  0  0  0  0  0  0  0  0  0
   55.2230   24.2530   46.8400 O   0  0  0  0  0  0  0  0  0  0  0  0
   57.2350   25.9540   46.3800 C   0  0  0  0  0  0  0  0  0  0  0  0
   58.5390   26.3720   46.6770 C   0  0  0  0  0  0  0  0  0  0  0  0
   58.9540   27.6690   46.3640 C   0  0  0  0  0  0  0  0  0  0  0  0
   58.0680   28.5670   45.7390 C   0  0  0  0  0  0  0  0  0  0  0  0
   58.4480   29.8830   45.4110 C   0  0  0  0  0  0  0  0  0  0  0  0
   59.6000   30.3010   45.7140 O   0  0  0  0  0  0  0  0  0  0  0  0
   57.5280   30.7380   44.7680 C   0  0  0  0  0  0  0  0  0  0  0  0
   57.8790   32.1270   44.3850 C   0  0  0  0  0  0  0  0  0  0  0  0
   57.4160   32.6030   43.3130 O   0  0  0  0  0  0  0  0  0  0  0  0
   58.7610   32.9170   45.1980 N   0  0  0  0  0  0  0  0  0  0  0  0
   59.0700   34.3130   44.8930 C   0  0  0  0  0  0  0  0  0  0  0  0
   59.6300   35.0280   46.1270 C   0  0  0  0  0  0  0  0  0  0  0  0
   59.8970   34.1010   47.1810 O   0  0  0  0  0  0  0  0  0  0  0  0
   61.0650   33.3340   47.3180 C   0  0  0  0  0  0  0  0  0  0  0  0
   62.2610   33.8590   46.8110 C   0  0  0  0  0  0  0  0  0  0  0  0
   63.4550   33.1390   46.9190 C   0  0  0  0  0  0  0  0  0  0  0  0
   63.4640   31.8870   47.5390 C   0  0  0  0  0  0  0  0  0  0  0  0
   62.2790   31.3560   48.0540 C   0  0  0  0  0  0  0  0  0  0  0  0
   61.0820   32.0730   47.9470 C   0  0  0  0  0  0  0  0  0  0  0  0
   56.2340   30.2620   44.5090 C   0  0  0  0  0  0  0  0  0  0  0  0
   55.8840   28.9930   44.8390 N   0  0  0  0  0  0  0  0  0  0  0  0
   56.7560   28.1400   45.4360 C   0  0  0  0  0  0  0  0  0  0  0  0
   56.3480   26.8390   45.7530 C   0  0  0  0  0  0  0  0  0  0  0  0
   57.4020   22.8000   48.3060 H   0  0  0  0  0  0  0  0  0  0  0  0
   59.2401   25.6750   47.1594 H   0  0  0  0  0  0  0  0  0  0  0  0
   59.9777   27.9899   46.6071 H   0  0  0  0  0  0  0  0  0  0  0  0
   59.2310   32.4840   46.0220 H   0  0  0  0  0  0  0  0  0  0  0  0
   59.8161   34.3492   44.0856 H   0  0  0  0  0  0  0  0  0  0  0  0
   58.1444   34.8193   44.5817 H   0  0  0  0  0  0  0  0  0  0  0  0
   60.5645   35.5393   45.8528 H   0  0  0  0  0  0  0  0  0  0  0  0
   58.8821   35.7532   46.4803 H   0  0  0  0  0  0  0  0  0  0  0  0
   62.2608   34.8454   46.3241 H   0  0  0  0  0  0  0  0  0  0  0  0
   64.3882   33.5589   46.5153 H   0  0  0  0  0  0  0  0  0  0  0  0
   64.4030   31.3201   47.6215 H   0  0  0  0  0  0  0  0  0  0  0  0
   62.2868   30.3717   48.5449 H   0  0  0  0  0  0  0  0  0  0  0  0
   60.1517   31.6511   48.3550 H   0  0  0  0  0  0  0  0  0  0  0  0
   55.4955   30.9242   44.0335 H   0  0  0  0  0  0  0  0  0  0  0  0
   55.3271   26.5102   45.5089 H   0  0  0  0  0  0  0  0  0  0  0  0
  1  2  1  0
  2  3  2  0
  2  4  2  0
  2  5  1  0
  5  6  2  0
  6  7  1  0
  7  8  2  0
  8  9  1  0
  9 10  2  0
  9 11  1  0
 11 12  1  0
 12 13  2  0
 12 14  1  0
 14 15  1  0
 15 16  1  0
 16 17  1  0
 17 18  1  0
 18 19  2  0
 19 20  1  0
 20 21  2  0
 21 22  1  0
 22 23  2  0
 11 24  2  0
 24 25  1  0
 25 26  1  0
 26 27  2  0
 27  5  1  0
 26  8  1  0
 23 18  1  0
  1 28  1  0
  6 29  1  0
  7 30  1  0
 14 31  1  0
 15 32  1  0
 15 33  1  0
 16 34  1  0
 16 35  1  0
 19 36  1  0
 20 37  1  0
 21 38  1  0
 22 39  1  0
 23 40  1  0
 24 41  1  0
 27 42  1  0
M  CHG  2   1  -1  25  -1
M  END
>  <UniqueID>  (68) 
61

>  <SMILES>  (68) 
[NH-]S(=O)(=O)c1ccc2c(=O)c(C(=O)NCCOc3ccccc3)c[n-]c2c1

>  <Energy>  (68) 
50.721104192033714

>  <Genealogy>  (68) 
[NH-]S(=O)(=O)c1ccc2c(=O)c(C(=O)NCCOc3ccccc3)c[n-]c2c1 (protonated)
[NH-]S(=O)(=O)c1ccc2c(=O)c(C(=O)NCCOc3ccccc3)c[n-]c2c1 (3D coordinates assigned)
[NH-]S(=O)(=O)c1ccc2c(=O)c(C(=O)NCCOc3ccccc3)c[n-]c2c1 (optimized conformer: 50.721104192033714 kcal/mol)

>  <smiles>  (68) 
NS(=O)(=O)c1ccc2c(=O)c(C(=O)NCCOc3ccccc3)c[nH]c2c1

>  <score_type>  (68) 
oracle

>  <origin>  (68) 
adg

>  <m_score__min__energy>  (68) 
-11.42

>  <m_primary>  (68) 
energy

$$$$
68:0
     RDKit          3D

 51 53  0  0  0  0  0  0  0  0999 V2000
   57.3370   32.1990   41.5010 C   0  0  0  0  0  0  0  0  0  0  0  0
   57.4110   31.5280   42.8370 C   0  0  0  0  0  0  0  0  0  0  0  0
   56.9420   29.9420   43.1320 S   0  0  0  0  0  0  0  0  0  0  0  0
   57.3370   29.9460   44.7580 C   0  0  0  0  0  0  0  0  0  0  0  0
   57.0500   28.8550   45.6400 N   0  0  0  0  0  0  0  0  0  0  0  0
   57.8260   27.6590   45.7400 C   0  0  0  0  0  0  0  0  0  0  0  0
   58.6600   27.3640   44.8440 O   0  0  0  0  0  0  0  0  0  0  0  0
   57.6620   26.7600   46.9230 C   0  0  0  0  0  0  0  0  0  0  0  0
   56.9650   25.4870   46.5050 C   0  0  0  0  0  0  0  0  0  0  0  0
   57.6680   24.2720   46.6060 C   0  0  0  0  0  0  0  0  0  0  0  0
   57.0600   23.0630   46.2660 C   0  0  0  0  0  0  0  0  0  0  0  0
   55.7420   23.0480   45.8130 C   0  0  0  0  0  0  0  0  0  0  0  0
   55.0220   24.2410   45.7150 C   0  0  0  0  0  0  0  0  0  0  0  0
   55.6130   25.4610   46.0730 C   0  0  0  0  0  0  0  0  0  0  0  0
   54.8260   26.6140   45.9930 O   0  0  0  0  0  0  0  0  0  0  0  0
   57.8200   31.2070   45.1160 C   0  0  0  0  0  0  0  0  0  0  0  0
   58.1470   31.5900   46.5010 C   0  0  0  0  0  0  0  0  0  0  0  0
   57.5030   32.5390   47.0270 O   0  0  0  0  0  0  0  0  0  0  0  0
   59.1520   30.8770   47.2610 N   0  0  0  0  0  0  0  0  0  0  0  0
   59.9240   29.7900   46.6370 C   0  0  0  0  0  0  0  0  0  0  0  0
   60.7220   29.0070   47.6820 C   0  0  0  0  0  0  0  0  0  0  0  0
   59.8640   28.7730   48.8540 N   0  0  0  0  0  0  0  0  0  0  0  0
   60.4860   27.8020   49.7590 C   0  0  0  0  0  0  0  0  0  0  0  0
   59.5480   30.0300   49.5730 C   0  0  0  0  0  0  0  0  0  0  0  0
   59.4620   31.2650   48.6490 C   0  0  0  0  0  0  0  0  0  0  0  0
   57.8630   32.1030   44.0250 C   0  0  0  0  0  0  0  0  0  0  0  0
   58.2380   33.5550   44.1280 C   0  0  0  0  0  0  0  0  0  0  0  0
   57.2174   33.2834   41.6415 H   0  0  0  0  0  0  0  0  0  0  0  0
   58.2623   32.0018   40.9399 H   0  0  0  0  0  0  0  0  0  0  0  0
   56.4769   31.8049   40.9399 H   0  0  0  0  0  0  0  0  0  0  0  0
   58.6518   26.5158   47.3361 H   0  0  0  0  0  0  0  0  0  0  0  0
   57.0576   27.2712   47.6868 H   0  0  0  0  0  0  0  0  0  0  0  0
   58.7103   24.2755   46.9575 H   0  0  0  0  0  0  0  0  0  0  0  0
   57.6212   22.1212   46.3555 H   0  0  0  0  0  0  0  0  0  0  0  0
   55.2683   22.0957   45.5324 H   0  0  0  0  0  0  0  0  0  0  0  0
   53.9831   24.2232   45.3541 H   0  0  0  0  0  0  0  0  0  0  0  0
   55.1430   27.4910   45.5920 H   0  0  0  0  0  0  0  0  0  0  0  0
   59.2309   29.1045   46.1273 H   0  0  0  0  0  0  0  0  0  0  0  0
   60.6304   30.2323   45.9191 H   0  0  0  0  0  0  0  0  0  0  0  0
   61.0406   28.0431   47.2583 H   0  0  0  0  0  0  0  0  0  0  0  0
   61.6132   29.5795   47.9787 H   0  0  0  0  0  0  0  0  0  0  0  0
   60.2962   28.0983   50.8012 H   0  0  0  0  0  0  0  0  0  0  0  0
   60.0580   26.8051   49.5775 H   0  0  0  0  0  0  0  0  0  0  0  0
   61.5706   27.7740   49.5775 H   0  0  0  0  0  0  0  0  0  0  0  0
   58.5797   29.9068   50.0801 H   0  0  0  0  0  0  0  0  0  0  0  0
   60.3701   30.2127   50.2807 H   0  0  0  0  0  0  0  0  0  0  0  0
   58.6713   31.9344   49.0187 H   0  0  0  0  0  0  0  0  0  0  0  0
   60.4379   31.7724   48.6571 H   0  0  0  0  0  0  0  0  0  0  0  0
   58.3117   33.8404   45.1878 H   0  0  0  0  0  0  0  0  0  0  0  0
   59.2080   33.7190   43.6358 H   0  0  0  0  0  0  0  0  0  0  0  0
   57.4687   34.1682   43.6358 H   0  0  0  0  0  0  0  0  0  0  0  0
  1  2  1  0
  2  3  1  0
  3  4  1  0
  4  5  1  0
  5  6  1  0
  6  7  2  0
  6  8  1  0
  8  9  1  0
  9 10  2  0
 10 11  1  0
 11 12  2  0
 12 13  1  0
 13 14  2  0
 14 15  1  0
  4 16  2  0
 16 17  1  0
 17 18  2  0
 17 19  1  0
 19 20  1  0
 20 21  1  0
 21 22  1  0
 22 23  1  0
 22 24  1  0
 24 25  1  0
 16 26  1  0
 26 27  1  0
 26  2  2  0
 14  9  1  0
 25 19  1  0
  1 28  1  0
  1 29  1  0
  1 30  1  0
  8 31  1  0
  8 32  1  0
 10 33  1  0
 11 34  1  0
 12 35  1  0
 13 36  1  0
 15 37  1  0
 20 38  1  0
 20 39  1  0
 21 40  1  0
 21 41  1  0
 23 42  1  0
 23 43  1  0
 23 44  1  0
 24 45  1  0
 24 46  1  0
 25 47  1  0
 25 48  1  0
 27 49  1  0
 27 50  1  0
 27 51  1  0
M  CHG  1   5  -1
M  END
>  <UniqueID>  (69) 
62

>  <SMILES>  (69) 
Cc1sc([N-]C(=O)Cc2ccccc2O)c(C(=O)N2CCN(C)CC2)c1C

>  <Energy>  (69) 
90.53727487754504

>  <Genealogy>  (69) 
Cc1sc([N-]C(=O)Cc2ccccc2O)c(C(=O)N2CCN(C)CC2)c1C (protonated)
Cc1sc([N-]C(=O)Cc2ccccc2O)c(C(=O)N2CCN(C)CC2)c1C (3D coordinates assigned)
Cc1sc([N-]C(=O)Cc2ccccc2O)c(C(=O)N2CCN(C)CC2)c1C (nonaromatic ring conformer: 90.53727487754504 kcal/mol)

>  <smiles>  (69) 
Cc1sc(NC(=O)Cc2ccccc2O)c(C(=O)N2CCN(C)CC2)c1C

>  <score_type>  (69) 
oracle

>  <origin>  (69) 
adg

>  <m_score__min__energy>  (69) 
-10.94

>  <m_primary>  (69) 
energy

$$$$
69:0
     RDKit          3D

 37 39  0  0  0  0  0  0  0  0999 V2000
   57.1520   33.8180   46.6440 O   0  0  0  0  0  0  0  0  0  0  0  0
   58.3570   33.9610   46.3030 C   0  0  0  0  0  0  0  0  0  0  0  0
   59.2310   34.9220   47.0100 C   0  0  0  0  0  0  0  0  0  0  0  0
   60.1910   34.6030   47.8920 C   0  0  0  0  0  0  0  0  0  0  0  0
   61.1970   33.5350   47.7110 C   0  0  0  0  0  0  0  0  0  0  0  0
   62.5210   33.8440   47.3490 C   0  0  0  0  0  0  0  0  0  0  0  0
   63.4510   32.8230   47.1350 C   0  0  0  0  0  0  0  0  0  0  0  0
   63.0640   31.4860   47.2620 C   0  0  0  0  0  0  0  0  0  0  0  0
   61.7450   31.1700   47.5940 C   0  0  0  0  0  0  0  0  0  0  0  0
   60.8090   32.1870   47.8080 C   0  0  0  0  0  0  0  0  0  0  0  0
   59.5300   31.8600   48.1250 F   0  0  0  0  0  0  0  0  0  0  0  0
   58.9030   33.1750   45.2330 N   0  0  0  0  0  0  0  0  0  0  0  0
   58.2250   32.0660   44.6210 C   0  0  0  0  0  0  0  0  0  0  0  0
   57.7700   32.1820   43.3000 C   0  0  0  0  0  0  0  0  0  0  0  0
   57.1250   31.1130   42.6780 C   0  0  0  0  0  0  0  0  0  0  0  0
   56.9400   29.9090   43.3620 C   0  0  0  0  0  0  0  0  0  0  0  0
   57.4100   29.7570   44.6790 C   0  0  0  0  0  0  0  0  0  0  0  0
   57.2280   28.4720   45.4010 C   0  0  0  0  0  0  0  0  0  0  0  0
   56.0330   27.8250   45.3640 N   0  0  0  0  0  0  0  0  0  0  0  0
   55.8660   26.6510   46.0250 C   0  0  0  0  0  0  0  0  0  0  0  0
   54.7570   26.0590   45.9850 O   0  0  0  0  0  0  0  0  0  0  0  0
   56.8960   26.1170   46.7270 N   0  0  0  0  0  0  0  0  0  0  0  0
   58.0910   26.7560   46.7690 C   0  0  0  0  0  0  0  0  0  0  0  0
   59.0470   26.2600   47.4210 O   0  0  0  0  0  0  0  0  0  0  0  0
   58.2560   27.9290   46.1080 N   0  0  0  0  0  0  0  0  0  0  0  0
   58.0600   30.8430   45.2990 C   0  0  0  0  0  0  0  0  0  0  0  0
   59.0814   35.9902   46.7944 H   0  0  0  0  0  0  0  0  0  0  0  0
   60.2327   35.1834   48.8255 H   0  0  0  0  0  0  0  0  0  0  0  0
   62.8257   34.8947   47.2338 H   0  0  0  0  0  0  0  0  0  0  0  0
   64.4883   33.0718   46.8664 H   0  0  0  0  0  0  0  0  0  0  0  0
   63.7982   30.6830   47.1005 H   0  0  0  0  0  0  0  0  0  0  0  0
   61.4409   30.1170   47.6876 H   0  0  0  0  0  0  0  0  0  0  0  0
   59.8040   33.4930   44.8070 H   0  0  0  0  0  0  0  0  0  0  0  0
   57.9227   33.1225   42.7503 H   0  0  0  0  0  0  0  0  0  0  0  0
   56.7608   31.2184   41.6454 H   0  0  0  0  0  0  0  0  0  0  0  0
   56.4230   29.0737   42.8670 H   0  0  0  0  0  0  0  0  0  0  0  0
   58.4429   30.7339   46.3244 H   0  0  0  0  0  0  0  0  0  0  0  0
  1  2  2  0
  2  3  1  0
  3  4  2  3
  4  5  1  0
  5  6  2  0
  6  7  1  0
  7  8  2  0
  8  9  1  0
  9 10  2  0
 10 11  1  0
  2 12  1  0
 12 13  1  0
 13 14  2  0
 14 15  1  0
 15 16  2  0
 16 17  1  0
 17 18  1  0
 18 19  2  0
 19 20  1  0
 20 21  2  0
 20 22  1  0
 22 23  1  0
 23 24  2  0
 23 25  1  0
 17 26  2  0
 10  5  1  0
 26 13  1  0
 25 18  1  0
  3 27  1  0
  4 28  1  0
  6 29  1  0
  7 30  1  0
  8 31  1  0
  9 32  1  0
 12 33  1  0
 14 34  1  0
 15 35  1  0
 16 36  1  0
 26 37  1  0
M  CHG  2  22  -1  25  -1
M  END
>  <UniqueID>  (70) 
63

>  <SMILES>  (70) 
O=C(C=Cc1ccccc1F)Nc1cccc(-c2nc(=O)[n-]c(=O)[n-]2)c1

>  <Energy>  (70) 
53.838449939098304

>  <Genealogy>  (70) 
O=C(C=Cc1ccccc1F)Nc1cccc(-c2nc(=O)[n-]c(=O)[n-]2)c1 (protonated)
O=C(C=Cc1ccccc1F)Nc1cccc(-c2nc(=O)[n-]c(=O)[n-]2)c1 (3D coordinates assigned)
O=C(C=Cc1ccccc1F)Nc1cccc(-c2nc(=O)[n-]c(=O)[n-]2)c1 (optimized conformer: 53.838449939098304 kcal/mol)

>  <smiles>  (70) 
O=C(C=Cc1ccccc1F)Nc1cccc(-c2nc(=O)[nH]c(=O)[nH]2)c1

>  <score_type>  (70) 
oracle

>  <origin>  (70) 
adg

>  <m_score__min__energy>  (70) 
-12.449999999999999

>  <m_primary>  (70) 
energy

$$$$
70:0
     RDKit          3D

 59 62  0  0  0  0  0  0  0  0999 V2000
   59.9900   32.5340   52.2340 C   0  0  0  0  0  0  0  0  0  0  0  0
   58.6160   33.1050   51.8340 C   0  0  0  0  0  0  0  0  0  0  0  0
   57.7690   32.1800   51.0440 N   0  0  1  0  0  0  0  0  0  0  0  0
   58.5080   31.4190   50.0630 C   0  0  0  0  0  0  0  0  0  0  0  0
   59.1450   31.9980   48.9560 C   0  0  0  0  0  0  0  0  0  0  0  0
   59.7910   31.1730   48.0250 C   0  0  0  0  0  0  0  0  0  0  0  0
   59.7950   29.7710   48.1900 C   0  0  0  0  0  0  0  0  0  0  0  0
   60.3700   28.8860   47.1130 C   0  0  0  0  0  0  0  0  0  0  0  0
   59.3020   28.2770   46.3130 N   0  0  0  0  0  0  0  0  0  0  0  0
   58.3520   28.9300   45.7030 C   0  0  0  0  0  0  0  0  0  0  0  0
   58.6050   30.1660   45.1880 N   0  0  0  0  0  0  0  0  0  0  0  0
   57.6960   30.8680   44.4680 C   0  0  0  0  0  0  0  0  0  0  0  0
   58.0770   32.1830   43.9180 C   0  0  0  0  0  0  0  0  0  0  0  0
   58.1570   32.3210   42.6670 O   0  0  0  0  0  0  0  0  0  0  0  0
   58.3480   33.3070   44.7760 N   0  0  0  0  0  0  0  0  0  0  0  0
   57.3810   33.6850   45.8180 C   0  0  0  0  0  0  0  0  0  0  0  0
   58.0970   34.1010   47.1150 C   0  0  0  0  0  0  0  0  0  0  0  0
   59.4600   34.7880   46.8760 C   0  0  0  0  0  0  0  0  0  0  0  0
   59.5910   35.3490   45.4560 C   0  0  0  0  0  0  0  0  0  0  0  0
   59.4470   34.2200   44.4270 C   0  0  0  0  0  0  0  0  0  0  0  0
   56.4230   30.3290   44.2650 C   0  0  0  0  0  0  0  0  0  0  0  0
   56.1140   29.0780   44.7990 C   0  0  0  0  0  0  0  0  0  0  0  0
   57.0730   28.3500   45.5270 C   0  0  0  0  0  0  0  0  0  0  0  0
   56.7150   27.0120   46.0740 C   0  0  0  0  0  0  0  0  0  0  0  0
   57.5880   26.3250   46.6740 O   0  0  0  0  0  0  0  0  0  0  0  0
   55.4190   26.5060   45.9280 O   0  0  0  0  0  0  0  0  0  0  0  0
   55.1540   25.1430   45.6230 C   0  0  0  0  0  0  0  0  0  0  0  0
   59.1630   29.2010   49.3120 C   0  0  0  0  0  0  0  0  0  0  0  0
   58.5140   30.0290   50.2250 C   0  0  0  0  0  0  0  0  0  0  0  0
   57.7540   29.5370   51.3190 N   0  0  0  0  0  0  0  0  0  0  0  0
   57.0370   30.9320   52.0140 S   0  0  0  0  0  0  0  0  0  0  0  0
   55.5470   30.9120   51.8130 O   0  0  0  0  0  0  0  0  0  0  0  0
   57.3760   31.0470   53.4750 O   0  0  0  0  0  0  0  0  0  0  0  0
   60.0684   32.5014   53.3307 H   0  0  0  0  0  0  0  0  0  0  0  0
   60.0966   31.5171   51.8284 H   0  0  0  0  0  0  0  0  0  0  0  0
   60.7860   33.1758   51.8284 H   0  0  0  0  0  0  0  0  0  0  0  0
   58.0724   33.3668   52.7538 H   0  0  0  0  0  0  0  0  0  0  0  0
   58.8154   33.9730   51.1884 H   0  0  0  0  0  0  0  0  0  0  0  0
   57.0100   32.7190   50.5640 H   0  0  0  0  0  0  0  0  0  0  0  0
   59.1378   33.0895   48.8195 H   0  0  0  0  0  0  0  0  0  0  0  0
   60.2990   31.6217   47.1587 H   0  0  0  0  0  0  0  0  0  0  0  0
   61.0133   29.4895   46.4558 H   0  0  0  0  0  0  0  0  0  0  0  0
   60.9536   28.0847   47.5898 H   0  0  0  0  0  0  0  0  0  0  0  0
   56.7746   34.5285   45.4562 H   0  0  0  0  0  0  0  0  0  0  0  0
   56.7437   32.8150   46.0348 H   0  0  0  0  0  0  0  0  0  0  0  0
   57.4469   34.7993   47.6625 H   0  0  0  0  0  0  0  0  0  0  0  0
   58.2951   33.1805   47.6837 H   0  0  0  0  0  0  0  0  0  0  0  0
   59.5696   35.6144   47.5937 H   0  0  0  0  0  0  0  0  0  0  0  0
   60.2456   34.0299   47.0107 H   0  0  0  0  0  0  0  0  0  0  0  0
   58.8034   36.0980   45.2868 H   0  0  0  0  0  0  0  0  0  0  0  0
   60.5812   35.8146   45.3430 H   0  0  0  0  0  0  0  0  0  0  0  0
   59.2453   34.6605   43.4395 H   0  0  0  0  0  0  0  0  0  0  0  0
   60.3835   33.6430   44.4156 H   0  0  0  0  0  0  0  0  0  0  0  0
   55.6703   30.8869   43.6886 H   0  0  0  0  0  0  0  0  0  0  0  0
   55.1093   28.6559   44.6493 H   0  0  0  0  0  0  0  0  0  0  0  0
   55.0432   24.5730   46.5573 H   0  0  0  0  0  0  0  0  0  0  0  0
   54.2252   25.0721   45.0379 H   0  0  0  0  0  0  0  0  0  0  0  0
   55.9885   24.7292   45.0379 H   0  0  0  0  0  0  0  0  0  0  0  0
   59.1817   28.1120   49.4660 H   0  0  0  0  0  0  0  0  0  0  0  0
  1  2  1  0
  2  3  1  0
  3  4  1  0
  4  5  2  0
  5  6  1  0
  6  7  2  0
  7  8  1  0
  8  9  1  0
  9 10  2  3
 10 11  1  0
 11 12  1  0
 12 13  1  0
 13 14  2  0
 13 15  1  0
 15 16  1  0
 16 17  1  0
 17 18  1  0
 18 19  1  0
 19 20  1  0
 12 21  2  0
 21 22  1  0
 22 23  2  0
 23 24  1  0
 24 25  2  0
 24 26  1  0
 26 27  1  0
  7 28  1  0
 28 29  2  0
 29 30  1  0
 30 31  1  0
 31 32  2  0
 31 33  2  0
 31  3  1  0
 29  4  1  0
 23 10  1  0
 20 15  1  0
  1 34  1  0
  1 35  1  0
  1 36  1  0
  2 37  1  0
  2 38  1  0
  3 39  1  6
  5 40  1  0
  6 41  1  0
  8 42  1  0
  8 43  1  0
 16 44  1  0
 16 45  1  0
 17 46  1  0
 17 47  1  0
 18 48  1  0
 18 49  1  0
 19 50  1  0
 19 51  1  0
 20 52  1  0
 20 53  1  0
 21 54  1  0
 22 55  1  0
 27 56  1  0
 27 57  1  0
 27 58  1  0
 28 59  1  0
M  CHG  3   3   1  11  -1  30  -1
M  END
>  <UniqueID>  (71) 
64

>  <SMILES>  (71) 
CC[N@H+]1c2ccc(CN=c3[n-]c(C(=O)N4CCCCC4)ccc3C(=O)OC)cc2[N-]S1(=O)=O

>  <Energy>  (71) 
82.36167669650982

>  <Genealogy>  (71) 
CC[NH+]1c2ccc(CN=c3[n-]c(C(=O)N4CCCCC4)ccc3C(=O)OC)cc2[N-]S1(=O)=O (protonated)
CC[N@H+]1c2ccc(CN=c3[n-]c(C(=O)N4CCCCC4)ccc3C(=O)OC)cc2[N-]S1(=O)=O (chirality)
CC[N@H+]1c2ccc(CN=c3[n-]c(C(=O)N4CCCCC4)ccc3C(=O)OC)cc2[N-]S1(=O)=O (3D coordinates assigned)
CC[N@H+]1c2ccc(CN=c3[n-]c(C(=O)N4CCCCC4)ccc3C(=O)OC)cc2[N-]S1(=O)=O (nonaromatic ring conformer: 82.36167669650982 kcal/mol)

>  <smiles>  (71) 
CCN1c2ccc(CN=c3[nH]c(C(=O)N4CCCCC4)ccc3C(=O)OC)cc2NS1(=O)=O

>  <score_type>  (71) 
oracle

>  <origin>  (71) 
adg

>  <m_score__min__energy>  (71) 
-11.369999999999999

>  <m_primary>  (71) 
energy

$$$$
71:0
     RDKit          3D

 35 36  0  0  0  0  0  0  0  0999 V2000
   55.5020   30.4670   53.3000 N   0  0  0  0  0  0  0  0  0  0  0  0
   56.6030   31.1630   52.7180 C   0  0  0  0  0  0  0  0  0  0  0  0
   57.0130   32.2280   53.2520 O   0  0  0  0  0  0  0  0  0  0  0  0
   57.2210   30.6540   51.5260 N   0  0  0  0  0  0  0  0  0  0  0  0
   58.3970   31.2310   50.9290 C   0  0  0  0  0  0  0  0  0  0  0  0
   59.0920   32.0560   51.5810 O   0  0  0  0  0  0  0  0  0  0  0  0
   58.8250   30.8430   49.5630 C   0  0  0  0  0  0  0  0  0  0  0  0
   59.1650   29.5120   49.2570 C   0  0  0  0  0  0  0  0  0  0  0  0
   59.5670   29.1620   47.9650 C   0  0  0  0  0  0  0  0  0  0  0  0
   59.6280   30.1290   46.9530 C   0  0  0  0  0  0  0  0  0  0  0  0
   60.1030   29.7550   45.5770 C   0  0  0  0  0  0  0  0  0  0  0  0
   58.7040   29.6620   44.4020 S   0  0  0  0  0  0  0  0  0  0  0  0
   58.0160   28.1470   45.0880 C   0  0  0  0  0  0  0  0  0  0  0  0
   58.8850   27.0870   45.3770 C   0  0  0  0  0  0  0  0  0  0  0  0
   58.3890   25.8890   45.8960 C   0  0  0  0  0  0  0  0  0  0  0  0
   57.0220   25.7470   46.1400 C   0  0  0  0  0  0  0  0  0  0  0  0
   56.1470   26.8020   45.8680 C   0  0  0  0  0  0  0  0  0  0  0  0
   54.7880   26.6500   46.1200 O   0  0  0  0  0  0  0  0  0  0  0  0
   56.6340   28.0090   45.3450 C   0  0  0  0  0  0  0  0  0  0  0  0
   55.7330   29.0420   45.0870 O   0  0  0  0  0  0  0  0  0  0  0  0
   59.2780   31.4560   47.2500 C   0  0  0  0  0  0  0  0  0  0  0  0
   58.8780   31.8080   48.5410 C   0  0  0  0  0  0  0  0  0  0  0  0
   55.0430   30.8340   54.1630 H   0  0  0  0  0  0  0  0  0  0  0  0
   55.1440   29.5850   52.8710 H   0  0  0  0  0  0  0  0  0  0  0  0
   56.8110   29.7930   51.1010 H   0  0  0  0  0  0  0  0  0  0  0  0
   59.1140   28.7415   50.0404 H   0  0  0  0  0  0  0  0  0  0  0  0
   59.8375   28.1196   47.7410 H   0  0  0  0  0  0  0  0  0  0  0  0
   60.8183   30.5130   45.2252 H   0  0  0  0  0  0  0  0  0  0  0  0
   60.5828   28.7665   45.6290 H   0  0  0  0  0  0  0  0  0  0  0  0
   59.9639   27.1988   45.1942 H   0  0  0  0  0  0  0  0  0  0  0  0
   59.0756   25.0573   46.1125 H   0  0  0  0  0  0  0  0  0  0  0  0
   56.6326   24.8023   46.5474 H   0  0  0  0  0  0  0  0  0  0  0  0
   54.7430   28.9690   45.2810 H   0  0  0  0  0  0  0  0  0  0  0  0
   59.3191   32.2222   46.4618 H   0  0  0  0  0  0  0  0  0  0  0  0
   58.6018   32.8498   48.7607 H   0  0  0  0  0  0  0  0  0  0  0  0
  1  2  1  0
  2  3  2  0
  2  4  1  0
  4  5  1  0
  5  6  2  0
  5  7  1  0
  7  8  2  0
  8  9  1  0
  9 10  2  0
 10 11  1  0
 11 12  1  0
 12 13  1  0
 13 14  2  0
 14 15  1  0
 15 16  2  0
 16 17  1  0
 17 18  1  0
 17 19  2  0
 19 20  1  0
 10 21  1  0
 21 22  2  0
 22  7  1  0
 19 13  1  0
  1 23  1  0
  1 24  1  0
  4 25  1  0
  8 26  1  0
  9 27  1  0
 11 28  1  0
 11 29  1  0
 14 30  1  0
 15 31  1  0
 16 32  1  0
 20 33  1  0
 21 34  1  0
 22 35  1  0
M  CHG  1  18  -1
M  END
>  <UniqueID>  (72) 
65

>  <SMILES>  (72) 
NC(=O)NC(=O)c1ccc(CSc2cccc([O-])c2O)cc1

>  <Energy>  (72) 
32.323315752158386

>  <Genealogy>  (72) 
NC(=O)NC(=O)c1ccc(CSc2cccc([O-])c2O)cc1 (protonated)
NC(=O)NC(=O)c1ccc(CSc2cccc([O-])c2O)cc1 (3D coordinates assigned)
NC(=O)NC(=O)c1ccc(CSc2cccc([O-])c2O)cc1 (optimized conformer: 32.323315752158386 kcal/mol)

>  <smiles>  (72) 
NC(=O)NC(=O)c1ccc(CSc2cccc(O)c2O)cc1

>  <score_type>  (72) 
oracle

>  <origin>  (72) 
adg

>  <m_score__min__energy>  (72) 
-12.15

>  <m_primary>  (72) 
energy

$$$$
72:0
     RDKit          3D

 55 58  0  0  0  0  0  0  0  0999 V2000
   57.8590   27.7560   46.5270 O   0  0  0  0  0  0  0  0  0  0  0  0
   56.7130   27.5220   46.0580 C   0  0  0  0  0  0  0  0  0  0  0  0
   55.9910   26.3600   46.4750 N   0  0  0  0  0  0  0  0  0  0  0  0
   55.7420   25.2100   45.6560 C   0  0  0  0  0  0  0  0  0  0  0  0
   54.4140   24.8430   45.4060 C   0  0  0  0  0  0  0  0  0  0  0  0
   54.1230   23.7330   44.6090 C   0  0  0  0  0  0  0  0  0  0  0  0
   55.1590   22.9690   44.0700 C   0  0  0  0  0  0  0  0  0  0  0  0
   56.4880   23.3030   44.3430 C   0  0  0  0  0  0  0  0  0  0  0  0
   56.7900   24.4110   45.1440 C   0  0  0  0  0  0  0  0  0  0  0  0
   58.4760   24.6940   45.5670 Cl  0  0  0  0  0  0  0  0  0  0  0  0
   56.1490   28.3740   45.0520 N   0  0  0  0  0  0  0  0  0  0  0  0
   56.6570   29.6730   44.7130 C   0  0  0  0  0  0  0  0  0  0  0  0
   56.5850   30.3100   43.4880 C   0  0  0  0  0  0  0  0  0  0  0  0
   57.2430   31.4820   43.5570 N   0  0  0  0  0  0  0  0  0  0  0  0
   57.7340   31.5910   44.8100 C   0  0  0  0  0  0  0  0  0  0  0  0
   58.5630   32.7140   45.2870 C   0  0  0  0  0  0  0  0  0  0  0  0
   59.0650   33.5090   44.4460 O   0  0  0  0  0  0  0  0  0  0  0  0
   58.7960   32.9270   46.6910 N   0  0  0  0  0  0  0  0  0  0  0  0
   59.2090   31.8310   47.5700 C   0  0  0  0  0  0  0  0  0  0  0  0
   60.6080   32.1110   48.1270 C   0  0  0  0  0  0  0  0  0  0  0  0
   60.7040   33.5080   48.8030 C   0  0  0  0  0  0  0  0  0  0  0  0
   62.1000   33.7360   49.2920 N   0  0  0  0  0  0  0  0  0  0  0  0
   63.0350   32.7270   48.7450 C   0  0  0  0  0  0  0  0  0  0  0  0
   64.4870   33.0660   49.1480 C   0  0  0  0  0  0  0  0  0  0  0  0
   64.5550   34.0360   50.1770 O   0  0  0  0  0  0  0  0  0  0  0  0
   63.6900   33.6700   51.2300 C   0  0  0  0  0  0  0  0  0  0  0  0
   62.2180   33.7370   50.7720 C   0  0  0  0  0  0  0  0  0  0  0  0
   60.2360   34.5830   47.7750 C   0  0  0  0  0  0  0  0  0  0  0  0
   58.8320   34.2790   47.2460 C   0  0  0  0  0  0  0  0  0  0  0  0
   57.4010   30.4730   45.5560 C   0  0  0  0  0  0  0  0  0  0  0  0
   53.5936   25.4331   45.8404 H   0  0  0  0  0  0  0  0  0  0  0  0
   53.0766   23.4611   44.4062 H   0  0  0  0  0  0  0  0  0  0  0  0
   54.9294   22.1040   43.4304 H   0  0  0  0  0  0  0  0  0  0  0  0
   57.3020   22.6917   43.9261 H   0  0  0  0  0  0  0  0  0  0  0  0
   55.3330   28.0100   44.5110 H   0  0  0  0  0  0  0  0  0  0  0  0
   56.0708   29.9202   42.5971 H   0  0  0  0  0  0  0  0  0  0  0  0
   57.3810   32.1500   42.7660 H   0  0  0  0  0  0  0  0  0  0  0  0
   58.4956   31.7421   48.4026 H   0  0  0  0  0  0  0  0  0  0  0  0
   59.2279   30.8928   46.9960 H   0  0  0  0  0  0  0  0  0  0  0  0
   60.8533   31.3397   48.8719 H   0  0  0  0  0  0  0  0  0  0  0  0
   61.3155   32.0948   47.2849 H   0  0  0  0  0  0  0  0  0  0  0  0
   60.0485   33.5731   49.6840 H   0  0  0  0  0  0  0  0  0  0  0  0
   62.7708   31.7354   49.1410 H   0  0  0  0  0  0  0  0  0  0  0  0
   62.9593   32.7275   47.6476 H   0  0  0  0  0  0  0  0  0  0  0  0
   64.9792   32.1465   49.4978 H   0  0  0  0  0  0  0  0  0  0  0  0
   64.9890   33.4840   48.2630 H   0  0  0  0  0  0  0  0  0  0  0  0
   63.9230   32.6434   51.5489 H   0  0  0  0  0  0  0  0  0  0  0  0
   63.8334   34.3701   52.0663 H   0  0  0  0  0  0  0  0  0  0  0  0
   61.6805   32.8648   51.1725 H   0  0  0  0  0  0  0  0  0  0  0  0
   61.7853   34.6756   51.1487 H   0  0  0  0  0  0  0  0  0  0  0  0
   60.2277   35.5674   48.2658 H   0  0  0  0  0  0  0  0  0  0  0  0
   60.9344   34.5753   46.9252 H   0  0  0  0  0  0  0  0  0  0  0  0
   58.1066   34.3556   48.0694 H   0  0  0  0  0  0  0  0  0  0  0  0
   58.5751   35.0028   46.4585 H   0  0  0  0  0  0  0  0  0  0  0  0
   57.6726   30.2659   46.6016 H   0  0  0  0  0  0  0  0  0  0  0  0
  1  2  2  0
  2  3  1  0
  3  4  1  0
  4  5  2  0
  5  6  1  0
  6  7  2  0
  7  8  1  0
  8  9  2  0
  9 10  1  0
  2 11  1  0
 11 12  1  0
 12 13  2  0
 13 14  1  0
 14 15  1  0
 15 16  1  0
 16 17  2  0
 16 18  1  0
 18 19  1  0
 19 20  1  0
 20 21  1  0
 21 22  1  0
 22 23  1  0
 23 24  1  0
 24 25  1  0
 25 26  1  0
 26 27  1  0
 21 28  1  0
 28 29  1  0
 15 30  2  0
  9  4  1  0
 30 12  1  0
 29 18  1  0
 27 22  1  0
  5 31  1  0
  6 32  1  0
  7 33  1  0
  8 34  1  0
 11 35  1  0
 13 36  1  0
 14 37  1  0
 19 38  1  0
 19 39  1  0
 20 40  1  0
 20 41  1  0
 21 42  1  0
 23 43  1  0
 23 44  1  0
 24 45  1  0
 24 46  1  0
 26 47  1  0
 26 48  1  0
 27 49  1  0
 27 50  1  0
 28 51  1  0
 28 52  1  0
 29 53  1  0
 29 54  1  0
 30 55  1  0
M  CHG  1   3  -1
M  END
>  <UniqueID>  (73) 
66

>  <SMILES>  (73) 
O=C([N-]c1ccccc1Cl)Nc1c[nH]c(C(=O)N2CCC(N3CCOCC3)CC2)c1

>  <Energy>  (73) 
107.5031503638161

>  <Genealogy>  (73) 
O=C([N-]c1ccccc1Cl)Nc1c[nH]c(C(=O)N2CCC(N3CCOCC3)CC2)c1 (protonated)
O=C([N-]c1ccccc1Cl)Nc1c[nH]c(C(=O)N2CCC(N3CCOCC3)CC2)c1 (3D coordinates assigned)
O=C([N-]c1ccccc1Cl)Nc1c[nH]c(C(=O)N2CCC(N3CCOCC3)CC2)c1 (nonaromatic ring conformer: 107.5031503638161 kcal/mol)

>  <smiles>  (73) 
O=C(Nc1c[nH]c(C(=O)N2CCC(N3CCOCC3)CC2)c1)Nc1ccccc1Cl

>  <score_type>  (73) 
oracle

>  <origin>  (73) 
adg

>  <m_score__min__energy>  (73) 
-10.199999999999999

>  <m_primary>  (73) 
energy

$$$$
73:0
     RDKit          3D

 48 51  0  0  0  0  0  0  0  0999 V2000
   59.9850   33.7670   50.1150 O   0  0  0  0  0  0  0  0  0  0  0  0
   59.1120   33.0380   49.5680 C   0  0  0  0  0  0  0  0  0  0  0  0
   58.4000   32.1460   50.3810 N   0  0  0  0  0  0  0  0  0  0  0  0
   58.6170   32.0200   51.8230 C   0  0  0  0  0  0  0  0  0  0  0  0
   57.4300   31.3470   52.3880 C   0  0  0  0  0  0  0  0  0  0  0  0
   56.9890   31.1830   53.6620 C   0  0  0  0  0  0  0  0  0  0  0  0
   55.8390   30.4900   53.6840 N   0  0  0  0  0  0  0  0  0  0  0  0
   55.5600   30.2150   52.3900 C   0  0  0  0  0  0  0  0  0  0  0  0
   54.3490   29.4510   51.9920 C   0  0  0  0  0  0  0  0  0  0  0  0
   53.1820   30.3630   52.1150 C   0  0  0  0  0  0  0  0  0  0  0  0
   52.8250   31.0510   50.9540 C   0  0  0  0  0  0  0  0  0  0  0  0
   51.7650   31.9250   50.9200 C   0  0  0  0  0  0  0  0  0  0  0  0
   51.0540   32.1020   52.1010 C   0  0  0  0  0  0  0  0  0  0  0  0
   51.4050   31.4190   53.2640 C   0  0  0  0  0  0  0  0  0  0  0  0
   52.4730   30.5460   53.2740 C   0  0  0  0  0  0  0  0  0  0  0  0
   56.5100   30.7250   51.6010 N   0  0  0  0  0  0  0  0  0  0  0  0
   58.8800   33.1490   48.1320 C   0  0  0  0  0  0  0  0  0  0  0  0
   59.1040   34.3630   47.4940 C   0  0  0  0  0  0  0  0  0  0  0  0
   58.9010   34.5290   46.1330 C   0  0  0  0  0  0  0  0  0  0  0  0
   58.4690   33.4480   45.4260 C   0  0  0  0  0  0  0  0  0  0  0  0
   58.2800   33.5830   44.1830 O   0  0  0  0  0  0  0  0  0  0  0  0
   58.2510   32.2610   46.0520 N   0  0  0  0  0  0  0  0  0  0  0  0
   57.7990   31.1770   45.2470 C   0  0  0  0  0  0  0  0  0  0  0  0
   56.6540   31.2240   44.4920 C   0  0  0  0  0  0  0  0  0  0  0  0
   56.2810   30.1300   43.7340 C   0  0  0  0  0  0  0  0  0  0  0  0
   57.0550   28.9830   43.7280 C   0  0  0  0  0  0  0  0  0  0  0  0
   58.2100   28.9110   44.4780 C   0  0  0  0  0  0  0  0  0  0  0  0
   58.5730   30.0110   45.2330 C   0  0  0  0  0  0  0  0  0  0  0  0
   58.4530   32.1260   47.3700 N   0  0  0  0  0  0  0  0  0  0  0  0
   57.6740   31.5400   49.9200 H   0  0  0  0  0  0  0  0  0  0  0  0
   59.5182   31.4198   52.0171 H   0  0  0  0  0  0  0  0  0  0  0  0
   58.7604   33.0087   52.2834 H   0  0  0  0  0  0  0  0  0  0  0  0
   57.5042   31.5661   54.5552 H   0  0  0  0  0  0  0  0  0  0  0  0
   55.2810   30.2200   54.5300 H   0  0  0  0  0  0  0  0  0  0  0  0
   54.4478   29.1064   50.9521 H   0  0  0  0  0  0  0  0  0  0  0  0
   54.2196   28.5689   52.6363 H   0  0  0  0  0  0  0  0  0  0  0  0
   53.4107   30.8884   50.0372 H   0  0  0  0  0  0  0  0  0  0  0  0
   51.4914   32.4607   49.9990 H   0  0  0  0  0  0  0  0  0  0  0  0
   50.1988   32.7936   52.1181 H   0  0  0  0  0  0  0  0  0  0  0  0
   50.8238   31.5779   54.1843 H   0  0  0  0  0  0  0  0  0  0  0  0
   52.7499   30.0080   54.1926 H   0  0  0  0  0  0  0  0  0  0  0  0
   59.4537   35.2200   48.0883 H   0  0  0  0  0  0  0  0  0  0  0  0
   59.0819   35.4969   45.6426 H   0  0  0  0  0  0  0  0  0  0  0  0
   56.0332   32.1321   44.4901 H   0  0  0  0  0  0  0  0  0  0  0  0
   55.3619   30.1715   43.1310 H   0  0  0  0  0  0  0  0  0  0  0  0
   56.7461   28.1205   43.1192 H   0  0  0  0  0  0  0  0  0  0  0  0
   58.8275   28.0006   44.4757 H   0  0  0  0  0  0  0  0  0  0  0  0
   59.4915   29.9687   45.8367 H   0  0  0  0  0  0  0  0  0  0  0  0
  1  2  2  0
  2  3  1  0
  3  4  1  0
  4  5  1  0
  5  6  2  0
  6  7  1  0
  7  8  1  0
  8  9  1  0
  9 10  1  0
 10 11  2  0
 11 12  1  0
 12 13  2  0
 13 14  1  0
 14 15  2  0
  8 16  2  0
  2 17  1  0
 17 18  1  0
 18 19  2  0
 19 20  1  0
 20 21  2  0
 20 22  1  0
 22 23  1  0
 23 24  2  0
 24 25  1  0
 25 26  2  0
 26 27  1  0
 27 28  2  0
 22 29  1  0
 16  5  1  0
 29 17  2  0
 15 10  1  0
 28 23  1  0
  3 30  1  0
  4 31  1  0
  4 32  1  0
  6 33  1  0
  7 34  1  0
  9 35  1  0
  9 36  1  0
 11 37  1  0
 12 38  1  0
 13 39  1  0
 14 40  1  0
 15 41  1  0
 18 42  1  0
 19 43  1  0
 24 44  1  0
 25 45  1  0
 26 46  1  0
 27 47  1  0
 28 48  1  0
M  END
>  <smiles>  (74) 
O=C(NCc1c[nH]c(Cc2ccccc2)n1)c1ccc(=O)n(-c2ccccc2)n1

>  <score_type>  (74) 
oracle

>  <origin>  (74) 
adg

>  <m_score__min__energy>  (74) 
-9.1500000000000004

>  <m_primary>  (74) 
energy

$$$$
74:0
     RDKit          3D

 60 64  0  0  0  0  0  0  0  0999 V2000
   57.8869   28.3060   43.1325 H   0  0  0  0  0  0  0  0  0  0  0  0
   58.0350   28.5700   44.1900 C   0  0  0  0  0  0  0  0  0  0  0  0
   56.8470   29.0420   44.9390 C   0  0  0  0  0  0  0  0  0  0  0  0
   55.9650   28.1980   45.2530 O   0  0  0  0  0  0  0  0  0  0  0  0
   56.6440   30.4400   45.2050 N   0  0  0  0  0  0  0  0  0  0  0  0
   57.3230   31.4640   44.7690 C   0  0  0  0  0  0  0  0  0  0  0  0
   57.4280   31.6420   43.3850 C   0  0  0  0  0  0  0  0  0  0  0  0
   56.9416   30.9316   42.7003 H   0  0  0  0  0  0  0  0  0  0  0  0
   58.1500   32.7210   42.8740 C   0  0  0  0  0  0  0  0  0  0  0  0
   58.2268   32.8654   41.7862 H   0  0  0  0  0  0  0  0  0  0  0  0
   58.7580   33.5930   43.7190 N   0  0  0  0  0  0  0  0  0  0  0  0
   58.6920   33.4560   45.0720 C   0  0  0  0  0  0  0  0  0  0  0  0
   59.4090   34.4280   45.9250 C   0  0  0  0  0  0  0  0  0  0  0  0
   59.6480   35.5800   45.4690 O   0  0  0  0  0  0  0  0  0  0  0  0
   59.8940   34.0920   47.2760 C   0  0  0  0  0  0  0  0  0  0  0  0
   59.0970   33.9720   48.4080 C   0  0  0  0  0  0  0  0  0  0  0  0
   58.0053   34.1061   48.4239 H   0  0  0  0  0  0  0  0  0  0  0  0
   59.8530   33.6670   49.4880 N   0  0  0  0  0  0  0  0  0  0  0  0
   59.3560   33.4100   50.8420 C   0  0  0  0  0  0  0  0  0  0  0  0
   60.0151   33.9087   51.5679 H   0  0  0  0  0  0  0  0  0  0  0  0
   58.3311   33.8019   50.9196 H   0  0  0  0  0  0  0  0  0  0  0  0
   59.3280   31.8980   51.1420 C   0  0  1  0  0  0  0  0  0  0  0  0
   60.2589   31.4683   50.7436 H   0  0  0  0  0  0  0  0  0  0  0  0
   59.2510   31.6720   52.5910 N   0  0  0  0  0  0  0  0  0  0  0  0
   60.0760   32.1250   53.0490 H   0  0  0  0  0  0  0  0  0  0  0  0
   59.3130   30.2340   52.8920 C   0  0  0  0  0  0  0  0  0  0  0  0
   58.9208   30.0644   53.9056 H   0  0  0  0  0  0  0  0  0  0  0  0
   60.3622   29.9122   52.8172 H   0  0  0  0  0  0  0  0  0  0  0  0
   58.4840   29.4080   51.8910 C   0  0  0  0  0  0  0  0  0  0  0  0
   57.9857   28.5855   52.4251 H   0  0  0  0  0  0  0  0  0  0  0  0
   59.1558   29.0056   51.1184 H   0  0  0  0  0  0  0  0  0  0  0  0
   57.5090   30.2180   51.2720 O   0  0  0  0  0  0  0  0  0  0  0  0
   58.1320   31.1880   50.4440 C   0  0  0  0  0  0  0  0  0  0  0  0
   57.3849   31.9469   50.1685 H   0  0  0  0  0  0  0  0  0  0  0  0
   58.5271   30.6649   49.5607 H   0  0  0  0  0  0  0  0  0  0  0  0
   61.1250   33.5690   49.0450 C   0  0  0  0  0  0  0  0  0  0  0  0
   62.2660   33.2380   49.7830 C   0  0  0  0  0  0  0  0  0  0  0  0
   62.2064   33.0565   50.8663 H   0  0  0  0  0  0  0  0  0  0  0  0
   63.4900   33.1440   49.1010 C   0  0  0  0  0  0  0  0  0  0  0  0
   64.4070   32.8979   49.6564 H   0  0  0  0  0  0  0  0  0  0  0  0
   63.5520   33.3630   47.7080 C   0  0  0  0  0  0  0  0  0  0  0  0
   64.5152   33.2770   47.1837 H   0  0  0  0  0  0  0  0  0  0  0  0
   62.3920   33.6900   46.9870 C   0  0  0  0  0  0  0  0  0  0  0  0
   62.4480   33.8350   45.6400 F   0  0  0  0  0  0  0  0  0  0  0  0
   61.1890   33.8120   47.6920 C   0  0  0  0  0  0  0  0  0  0  0  0
   57.9900   32.3680   45.6210 C   0  0  0  0  0  0  0  0  0  0  0  0
   57.9614   32.2228   46.7110 H   0  0  0  0  0  0  0  0  0  0  0  0
   59.2770   28.4350   44.6850 C   0  0  0  0  0  0  0  0  0  0  0  0
   60.0279   27.9300   44.0595 H   0  0  0  0  0  0  0  0  0  0  0  0
   59.6970   28.9180   46.0070 C   0  0  0  0  0  0  0  0  0  0  0  0
   59.2330   28.2840   47.1700 C   0  0  0  0  0  0  0  0  0  0  0  0
   58.5787   27.4032   47.0915 H   0  0  0  0  0  0  0  0  0  0  0  0
   59.6010   28.7700   48.4280 C   0  0  0  0  0  0  0  0  0  0  0  0
   59.2295   28.2765   49.3382 H   0  0  0  0  0  0  0  0  0  0  0  0
   60.4410   29.8830   48.5300 C   0  0  0  0  0  0  0  0  0  0  0  0
   60.7287   30.2652   49.5205 H   0  0  0  0  0  0  0  0  0  0  0  0
   60.9160   30.5110   47.3740 C   0  0  0  0  0  0  0  0  0  0  0  0
   61.5786   31.3852   47.4560 H   0  0  0  0  0  0  0  0  0  0  0  0
   60.5490   30.0280   46.1140 C   0  0  0  0  0  0  0  0  0  0  0  0
   60.9286   30.5187   45.2056 H   0  0  0  0  0  0  0  0  0  0  0  0
  1  2  1  0
  2  3  1  0
  3  4  2  0
  3  5  1  0
  5  6  2  0
  6  7  1  0
  7  8  1  0
  7  9  2  0
  9 10  1  0
  9 11  1  0
 11 12  1  0
 12 13  1  0
 13 14  2  0
 13 15  1  0
 15 16  2  0
 16 17  1  0
 16 18  1  0
 18 19  1  0
 19 20  1  0
 19 21  1  0
 19 22  1  0
 22 23  1  6
 22 24  1  0
 24 25  1  0
 24 26  1  0
 26 27  1  0
 26 28  1  0
 26 29  1  0
 29 30  1  0
 29 31  1  0
 29 32  1  0
 32 33  1  0
 33 34  1  0
 33 35  1  0
 18 36  1  0
 36 37  2  0
 37 38  1  0
 37 39  1  0
 39 40  1  0
 39 41  2  0
 41 42  1  0
 41 43  1  0
 43 44  1  0
 43 45  2  0
 12 46  2  0
 46 47  1  0
  2 48  2  3
 48 49  1  0
 48 50  1  0
 50 51  2  0
 51 52  1  0
 51 53  1  0
 53 54  1  0
 53 55  2  0
 55 56  1  0
 55 57  1  0
 57 58  1  0
 57 59  2  0
 59 60  1  0
 46  6  1  0
 59 50  1  0
 45 15  1  0
 33 22  1  0
 45 36  1  0
M  CHG  1  11  -1
M  END
>  <UniqueID>  (75) 
67

>  <SMILES>  (75) 
O=C(C=Cc1ccccc1)/N=c1/cc[n-]c(C(=O)c2cn(C[C@@H]3COCCN3)c3cccc(F)c23)c1

>  <Energy>  (75) 
126.55048767888505

>  <Genealogy>  (75) 
O=C(C=Cc1ccccc1)N=c1cc[n-]c(C(=O)c2cn(CC3COCCN3)c3cccc(F)c23)c1 (protonated)
O=C(C=Cc1ccccc1)N=c1cc[n-]c(C(=O)c2cn(C[C@@H]3COCCN3)c3cccc(F)c23)c1 (chirality)
O=C(C=Cc1ccccc1)/N=c1/cc[n-]c(C(=O)c2cn(C[C@@H]3COCCN3)c3cccc(F)c23)c1 (cis-trans isomerization)
O=C(C=Cc1ccccc1)/N=c1/cc[n-]c(C(=O)c2cn(C[C@@H]3COCCN3)c3cccc(F)c23)c1 (3D coordinates assigned)
O=C(C=Cc1ccccc1)/N=c1/cc[n-]c(C(=O)c2cn(C[C@@H]3COCCN3)c3cccc(F)c23)c1 (nonaromatic ring conformer: 126.55048767888505 kcal/mol)

>  <smiles>  (75) 
O=C(C=Cc1ccccc1)N=c1cc[nH]c(C(=O)c2cn(CC3COCCN3)c3cccc(F)c23)c1

>  <score_type>  (75) 
oracle

>  <origin>  (75) 
adg

>  <m_score__min__energy>  (75) 
-11.4

>  <m_primary>  (75) 
energy

$$$$
75:0
     RDKit          3D

 60 63  0  0  0  0  0  0  0  0999 V2000
   57.0320   21.2310   43.0080 C   0  0  0  0  0  0  0  0  0  0  0  0
   56.0480   22.2530   43.1170 O   0  0  0  0  0  0  0  0  0  0  0  0
   56.1340   23.3490   43.9890 C   0  0  0  0  0  0  0  0  0  0  0  0
   55.2020   23.4470   45.0290 C   0  0  0  0  0  0  0  0  0  0  0  0
   55.2390   24.5260   45.9130 C   0  0  0  0  0  0  0  0  0  0  0  0
   56.2130   25.5170   45.7710 C   0  0  0  0  0  0  0  0  0  0  0  0
   57.1710   25.4270   44.7550 C   0  0  0  0  0  0  0  0  0  0  0  0
   58.1440   26.4750   44.6300 N   0  0  0  0  0  0  0  0  0  0  0  0
   58.4460   27.4680   45.6170 C   0  0  0  0  0  0  0  0  0  0  0  0
   59.5590   27.4590   46.2140 O   0  0  0  0  0  0  0  0  0  0  0  0
   57.4270   28.5310   45.9170 C   0  0  0  0  0  0  0  0  0  0  0  0
   57.5290   29.6910   44.9730 C   0  0  0  0  0  0  0  0  0  0  0  0
   56.9930   29.6840   43.6850 C   0  0  0  0  0  0  0  0  0  0  0  0
   57.2520   31.2040   43.0050 S   0  0  0  0  0  0  0  0  0  0  0  0
   58.0230   31.7940   44.3750 C   0  0  0  0  0  0  0  0  0  0  0  0
   58.4300   33.0230   44.5010 N   0  0  0  0  0  0  0  0  0  0  0  0
   57.8360   34.0030   45.3640 C   0  0  0  0  0  0  0  0  0  0  0  0
   56.6230   34.3280   45.2310 O   0  0  0  0  0  0  0  0  0  0  0  0
   58.6520   34.5900   46.4400 C   0  0  0  0  0  0  0  0  0  0  0  0
   59.9920   34.6680   46.4360 C   0  0  0  0  0  0  0  0  0  0  0  0
   60.9180   33.5650   46.7810 C   0  0  0  0  0  0  0  0  0  0  0  0
   62.3110   33.7510   46.8080 C   0  0  0  0  0  0  0  0  0  0  0  0
   63.1560   32.6910   47.1410 C   0  0  0  0  0  0  0  0  0  0  0  0
   62.6250   31.4300   47.4150 C   0  0  0  0  0  0  0  0  0  0  0  0
   61.2420   31.2050   47.3290 C   0  0  0  0  0  0  0  0  0  0  0  0
   60.7270   29.8840   47.5670 N   0  0  0  0  0  0  0  0  0  0  0  0
   59.8970   29.4230   49.0200 S   0  0  0  0  0  0  0  0  0  0  0  0
   60.7730   28.5020   49.8220 O   0  0  0  0  0  0  0  0  0  0  0  0
   58.6360   28.6860   48.6600 O   0  0  0  0  0  0  0  0  0  0  0  0
   59.5340   30.8490   49.9880 C   0  0  0  0  0  0  0  0  0  0  0  0
   60.5700   31.7210   50.3550 C   0  0  0  0  0  0  0  0  0  0  0  0
   60.2930   32.8580   51.1230 C   0  0  0  0  0  0  0  0  0  0  0  0
   58.9830   33.1260   51.5290 C   0  0  0  0  0  0  0  0  0  0  0  0
   57.9460   32.2610   51.1640 C   0  0  0  0  0  0  0  0  0  0  0  0
   58.2190   31.1250   50.3930 C   0  0  0  0  0  0  0  0  0  0  0  0
   60.3940   32.2830   47.0100 C   0  0  0  0  0  0  0  0  0  0  0  0
   58.0940   30.8680   45.3550 N   0  0  0  0  0  0  0  0  0  0  0  0
   57.1170   24.3500   43.8490 C   0  0  0  0  0  0  0  0  0  0  0  0
   57.3407   20.9104   44.0140 H   0  0  0  0  0  0  0  0  0  0  0  0
   56.6110   20.3733   42.4629 H   0  0  0  0  0  0  0  0  0  0  0  0
   57.9050   21.6192   42.4629 H   0  0  0  0  0  0  0  0  0  0  0  0
   54.4350   22.6678   45.1502 H   0  0  0  0  0  0  0  0  0  0  0  0
   54.4991   24.5963   46.7239 H   0  0  0  0  0  0  0  0  0  0  0  0
   56.2271   26.3730   46.4617 H   0  0  0  0  0  0  0  0  0  0  0  0
   56.4216   28.0926   45.8332 H   0  0  0  0  0  0  0  0  0  0  0  0
   57.6156   28.9041   46.9345 H   0  0  0  0  0  0  0  0  0  0  0  0
   56.4897   28.8353   43.1987 H   0  0  0  0  0  0  0  0  0  0  0  0
   58.1226   34.9959   47.3146 H   0  0  0  0  0  0  0  0  0  0  0  0
   60.4398   35.6320   46.1527 H   0  0  0  0  0  0  0  0  0  0  0  0
   62.7370   34.7358   46.5657 H   0  0  0  0  0  0  0  0  0  0  0  0
   64.2434   32.8502   47.1875 H   0  0  0  0  0  0  0  0  0  0  0  0
   63.2953   30.6059   47.7006 H   0  0  0  0  0  0  0  0  0  0  0  0
   60.7290   29.1910   46.7840 H   0  0  0  0  0  0  0  0  0  0  0  0
   61.6023   31.5107   50.0385 H   0  0  0  0  0  0  0  0  0  0  0  0
   61.1071   33.5410   51.4071 H   0  0  0  0  0  0  0  0  0  0  0  0
   58.7671   34.0176   52.1359 H   0  0  0  0  0  0  0  0  0  0  0  0
   56.9150   32.4737   51.4832 H   0  0  0  0  0  0  0  0  0  0  0  0
   57.4017   30.4478   50.1042 H   0  0  0  0  0  0  0  0  0  0  0  0
   59.3086   32.1186   46.9395 H   0  0  0  0  0  0  0  0  0  0  0  0
   57.8460   24.2895   43.0274 H   0  0  0  0  0  0  0  0  0  0  0  0
  1  2  1  0
  2  3  1  0
  3  4  2  0
  4  5  1  0
  5  6  2  0
  6  7  1  0
  7  8  1  0
  8  9  1  0
  9 10  2  0
  9 11  1  0
 11 12  1  0
 12 13  2  0
 13 14  1  0
 14 15  1  0
 15 16  2  3
 16 17  1  0
 17 18  2  0
 17 19  1  0
 19 20  2  3
 20 21  1  0
 21 22  2  0
 22 23  1  0
 23 24  2  0
 24 25  1  0
 25 26  1  0
 26 27  1  0
 27 28  2  0
 27 29  2  0
 27 30  1  0
 30 31  2  0
 31 32  1  0
 32 33  2  0
 33 34  1  0
 34 35  2  0
 25 36  2  0
 15 37  1  0
  7 38  2  0
 38  3  1  0
 37 12  1  0
 36 21  1  0
 35 30  1  0
  1 39  1  0
  1 40  1  0
  1 41  1  0
  4 42  1  0
  5 43  1  0
  6 44  1  0
 11 45  1  0
 11 46  1  0
 13 47  1  0
 19 48  1  0
 20 49  1  0
 22 50  1  0
 23 51  1  0
 24 52  1  0
 26 53  1  0
 31 54  1  0
 32 55  1  0
 33 56  1  0
 34 57  1  0
 35 58  1  0
 36 59  1  0
 38 60  1  0
M  CHG  2   8  -1  37  -1
M  END
>  <UniqueID>  (76) 
68

>  <SMILES>  (76) 
COc1cccc([N-]C(=O)Cc2csc(=NC(=O)C=Cc3cccc(NS(=O)(=O)c4ccccc4)c3)[n-]2)c1

>  <Energy>  (76) 
108.34270147425872

>  <Genealogy>  (76) 
COc1cccc([N-]C(=O)Cc2csc(=NC(=O)C=Cc3cccc(NS(=O)(=O)c4ccccc4)c3)[n-]2)c1 (protonated)
COc1cccc([N-]C(=O)Cc2csc(=NC(=O)C=Cc3cccc(NS(=O)(=O)c4ccccc4)c3)[n-]2)c1 (3D coordinates assigned)
COc1cccc([N-]C(=O)Cc2csc(=NC(=O)C=Cc3cccc(NS(=O)(=O)c4ccccc4)c3)[n-]2)c1 (optimized conformer: 108.34270147425872 kcal/mol)

>  <smiles>  (76) 
COc1cccc(NC(=O)Cc2csc(=NC(=O)C=Cc3cccc(NS(=O)(=O)c4ccccc4)c3)[nH]2)c1

>  <score_type>  (76) 
oracle

>  <origin>  (76) 
adg

>  <m_score__min__energy>  (76) 
-13.09

>  <m_primary>  (76) 
energy

$$$$
76:0
     RDKit          3D

 48 50  0  0  0  0  0  0  0  0999 V2000
   63.6390   33.0890   47.2910 C   0  0  0  0  0  0  0  0  0  0  0  0
   63.9130   33.3970   48.7380 C   0  0  0  0  0  0  0  0  0  0  0  0
   65.1550   33.0460   49.2910 C   0  0  0  0  0  0  0  0  0  0  0  0
   65.4300   33.2940   50.6420 C   0  0  0  0  0  0  0  0  0  0  0  0
   66.9800   32.8220   51.3300 S   0  0  0  0  0  0  0  0  0  0  0  0
   67.0960   33.4320   52.9950 C   0  0  0  0  0  0  0  0  0  0  0  0
   68.1000   33.3940   50.5060 O   0  0  0  0  0  0  0  0  0  0  0  0
   67.1000   31.3230   51.3320 O   0  0  0  0  0  0  0  0  0  0  0  0
   64.4530   33.8880   51.4490 C   0  0  0  0  0  0  0  0  0  0  0  0
   63.2230   34.2610   50.9040 C   0  0  0  0  0  0  0  0  0  0  0  0
   62.9540   34.0460   49.5480 C   0  0  0  0  0  0  0  0  0  0  0  0
   61.7150   34.4600   49.0400 O   0  0  0  0  0  0  0  0  0  0  0  0
   60.7940   33.6080   48.4130 C   0  0  0  0  0  0  0  0  0  0  0  0
   60.1800   32.5410   49.0950 C   0  0  0  0  0  0  0  0  0  0  0  0
   59.2660   31.7150   48.4340 C   0  0  0  0  0  0  0  0  0  0  0  0
   58.9520   31.9410   47.0820 C   0  0  0  0  0  0  0  0  0  0  0  0
   58.0230   31.0980   46.3760 N   0  0  0  0  0  0  0  0  0  0  0  0
   58.3730   29.8060   45.8520 C   0  0  0  0  0  0  0  0  0  0  0  0
   59.4460   29.1060   46.4270 C   0  0  0  0  0  0  0  0  0  0  0  0
   59.8160   27.8520   45.9400 C   0  0  0  0  0  0  0  0  0  0  0  0
   59.1180   27.2830   44.8760 C   0  0  0  0  0  0  0  0  0  0  0  0
   58.0480   27.9660   44.2950 C   0  0  0  0  0  0  0  0  0  0  0  0
   57.6590   29.2330   44.7700 C   0  0  0  0  0  0  0  0  0  0  0  0
   56.5340   29.9390   44.1070 C   0  0  0  0  0  0  0  0  0  0  0  0
   55.8890   29.3760   42.9620 N   0  0  0  0  0  0  0  0  0  0  0  0
   56.1270   31.0450   44.5520 O   0  0  0  0  0  0  0  0  0  0  0  0
   59.5880   32.9890   46.4000 C   0  0  0  0  0  0  0  0  0  0  0  0
   60.5010   33.8150   47.0610 C   0  0  0  0  0  0  0  0  0  0  0  0
   62.9093   32.2687   47.2225 H   0  0  0  0  0  0  0  0  0  0  0  0
   63.2327   33.9835   46.7963 H   0  0  0  0  0  0  0  0  0  0  0  0
   64.5747   32.7896   46.7963 H   0  0  0  0  0  0  0  0  0  0  0  0
   65.9191   32.5719   48.6575 H   0  0  0  0  0  0  0  0  0  0  0  0
   66.9384   32.6033   53.7009 H   0  0  0  0  0  0  0  0  0  0  0  0
   68.0930   33.8674   53.1574 H   0  0  0  0  0  0  0  0  0  0  0  0
   66.3284   34.2030   53.1574 H   0  0  0  0  0  0  0  0  0  0  0  0
   64.6549   34.0616   52.5163 H   0  0  0  0  0  0  0  0  0  0  0  0
   62.4602   34.7271   51.5451 H   0  0  0  0  0  0  0  0  0  0  0  0
   60.4202   32.3562   50.1524 H   0  0  0  0  0  0  0  0  0  0  0  0
   58.7898   30.8837   48.9745 H   0  0  0  0  0  0  0  0  0  0  0  0
   57.0210   31.3870   46.3310 H   0  0  0  0  0  0  0  0  0  0  0  0
   59.9991   29.5498   47.2679 H   0  0  0  0  0  0  0  0  0  0  0  0
   60.6590   27.3121   46.3959 H   0  0  0  0  0  0  0  0  0  0  0  0
   59.4108   26.2941   44.4935 H   0  0  0  0  0  0  0  0  0  0  0  0
   57.5024   27.5089   43.4563 H   0  0  0  0  0  0  0  0  0  0  0  0
   56.2600   28.5180   42.4980 H   0  0  0  0  0  0  0  0  0  0  0  0
   55.0690   29.8580   42.5340 H   0  0  0  0  0  0  0  0  0  0  0  0
   59.3663   33.1619   45.3365 H   0  0  0  0  0  0  0  0  0  0  0  0
   60.9925   34.6334   46.5145 H   0  0  0  0  0  0  0  0  0  0  0  0
  1  2  1  0
  2  3  2  0
  3  4  1  0
  4  5  1  0
  5  6  1  0
  5  7  2  0
  5  8  2  0
  4  9  2  0
  9 10  1  0
 10 11  2  0
 11 12  1  0
 12 13  1  0
 13 14  2  0
 14 15  1  0
 15 16  2  0
 16 17  1  0
 17 18  1  0
 18 19  2  0
 19 20  1  0
 20 21  2  0
 21 22  1  0
 22 23  2  0
 23 24  1  0
 24 25  1  0
 24 26  2  0
 16 27  1  0
 27 28  2  0
 11  2  1  0
 28 13  1  0
 23 18  1  0
  1 29  1  0
  1 30  1  0
  1 31  1  0
  3 32  1  0
  6 33  1  0
  6 34  1  0
  6 35  1  0
  9 36  1  0
 10 37  1  0
 14 38  1  0
 15 39  1  0
 17 40  1  0
 19 41  1  0
 20 42  1  0
 21 43  1  0
 22 44  1  0
 25 45  1  0
 25 46  1  0
 27 47  1  0
 28 48  1  0
M  END
>  <UniqueID>  (77) 
69

>  <SMILES>  (77) 
Cc1cc(S(C)(=O)=O)ccc1Oc1ccc(Nc2ccccc2C(N)=O)cc1

>  <Energy>  (77) 
65.93218230623413

>  <Genealogy>  (77) 
Cc1cc(S(C)(=O)=O)ccc1Oc1ccc(Nc2ccccc2C(N)=O)cc1 (3D coordinates assigned)
Cc1cc(S(C)(=O)=O)ccc1Oc1ccc(Nc2ccccc2C(N)=O)cc1 (optimized conformer: 65.93218230623413 kcal/mol)

>  <smiles>  (77) 
Cc1cc(S(C)(=O)=O)ccc1Oc1ccc(Nc2ccccc2C(N)=O)cc1

>  <score_type>  (77) 
oracle

>  <origin>  (77) 
adg

>  <m_score__min__energy>  (77) 
-8.6199999999999992

>  <m_primary>  (77) 
energy

$$$$
77:0
     RDKit          3D

 36 38  0  0  0  0  0  0  0  0999 V2000
   59.8606   30.1175   47.6420 H   0  0  0  0  0  0  0  0  0  0  0  0
   59.3470   29.8600   46.7040 C   0  0  0  0  0  0  0  0  0  0  0  0
   59.2079   28.8052   46.4248 H   0  0  0  0  0  0  0  0  0  0  0  0
   58.8900   30.8330   45.9000 C   0  0  0  0  0  0  0  0  0  0  0  0
   58.2220   30.6600   44.6840 C   0  0  0  0  0  0  0  0  0  0  0  0
   57.8880   29.4980   44.0890 C   0  0  0  0  0  0  0  0  0  0  0  0
   57.9236   29.4463   42.9908 H   0  0  0  0  0  0  0  0  0  0  0  0
   57.4760   28.2880   44.8340 C   0  0  0  0  0  0  0  0  0  0  0  0
   56.1430   28.1340   45.2430 C   0  0  0  0  0  0  0  0  0  0  0  0
   55.1930   29.1000   44.9210 O   0  0  0  0  0  0  0  0  0  0  0  0
   55.7680   27.0340   45.9490 N   0  0  0  0  0  0  0  0  0  0  0  0
   54.7690   26.9260   46.2370 H   0  0  0  0  0  0  0  0  0  0  0  0
   56.6740   26.0760   46.2820 C   0  0  0  0  0  0  0  0  0  0  0  0
   56.3110   25.0600   46.9310 O   0  0  0  0  0  0  0  0  0  0  0  0
   57.9750   26.2160   45.9200 N   0  0  0  0  0  0  0  0  0  0  0  0
   58.3980   27.2970   45.2170 C   0  0  0  0  0  0  0  0  0  0  0  0
   59.6210   27.4070   44.9320 O   0  0  0  0  0  0  0  0  0  0  0  0
   57.9190   31.9340   44.2210 C   0  0  0  0  0  0  0  0  0  0  0  0
   57.3820   32.1859   43.2946 H   0  0  0  0  0  0  0  0  0  0  0  0
   58.4230   32.8230   45.1500 C   0  0  0  0  0  0  0  0  0  0  0  0
   58.3010   34.3130   45.0570 C   0  0  0  0  0  0  0  0  0  0  0  0
   58.2659   34.7419   46.0693 H   0  0  0  0  0  0  0  0  0  0  0  0
   59.1689   34.7189   44.5167 H   0  0  0  0  0  0  0  0  0  0  0  0
   57.3786   34.5724   44.5167 H   0  0  0  0  0  0  0  0  0  0  0  0
   59.0030   32.1560   46.1730 N   0  0  0  0  0  0  0  0  0  0  0  0
   59.6320   32.7560   47.3180 C   0  0  0  0  0  0  0  0  0  0  0  0
   59.0050   32.7010   48.5720 C   0  0  0  0  0  0  0  0  0  0  0  0
   58.0282   32.2058   48.6752 H   0  0  0  0  0  0  0  0  0  0  0  0
   59.6170   33.2730   49.6900 C   0  0  0  0  0  0  0  0  0  0  0  0
   59.1215   33.2278   50.6710 H   0  0  0  0  0  0  0  0  0  0  0  0
   60.8590   33.9030   49.5630 C   0  0  0  0  0  0  0  0  0  0  0  0
   61.4520   34.4590   50.6480 F   0  0  0  0  0  0  0  0  0  0  0  0
   61.4880   33.9620   48.3150 C   0  0  0  0  0  0  0  0  0  0  0  0
   62.4644   34.4586   48.2153 H   0  0  0  0  0  0  0  0  0  0  0  0
   60.8780   33.3910   47.1940 C   0  0  0  0  0  0  0  0  0  0  0  0
   61.4900   33.4720   45.9860 F   0  0  0  0  0  0  0  0  0  0  0  0
  1  2  1  0
  2  3  1  0
  2  4  2  0
  4  5  1  0
  5  6  2  0
  6  7  1  0
  6  8  1  0
  8  9  2  0
  9 10  1  0
  9 11  1  0
 11 12  1  0
 11 13  1  0
 13 14  2  0
 13 15  1  0
 15 16  1  0
 16 17  2  0
  5 18  1  0
 18 19  1  0
 18 20  2  0
 20 21  1  0
 21 22  1  0
 21 23  1  0
 21 24  1  0
 20 25  1  0
 25 26  1  0
 26 27  2  0
 27 28  1  0
 27 29  1  0
 29 30  1  0
 29 31  2  0
 31 32  1  0
 31 33  1  0
 33 34  1  0
 33 35  2  0
 35 36  1  0
 25  4  1  0
 35 26  1  0
 16  8  1  0
M  CHG  2  10  -1  15  -1
M  END
>  <UniqueID>  (78) 
70

>  <SMILES>  (78) 
C=c1/c(=C/c2c([O-])[nH]c(=O)[n-]c2=O)cc(C)n1-c1ccc(F)cc1F

>  <Energy>  (78) 
83.7930352468177

>  <Genealogy>  (78) 
C=c1c(=Cc2c([O-])[nH]c(=O)[n-]c2=O)cc(C)n1-c1ccc(F)cc1F (protonated)
C=c1/c(=C/c2c([O-])[nH]c(=O)[n-]c2=O)cc(C)n1-c1ccc(F)cc1F (cis-trans isomerization)
C=c1/c(=C/c2c([O-])[nH]c(=O)[n-]c2=O)cc(C)n1-c1ccc(F)cc1F (3D coordinates assigned)
C=c1/c(=C/c2c([O-])[nH]c(=O)[n-]c2=O)cc(C)n1-c1ccc(F)cc1F (optimized conformer: 83.7930352468177 kcal/mol)

>  <smiles>  (78) 
C=c1c(=Cc2c(O)[nH]c(=O)[nH]c2=O)cc(C)n1-c1ccc(F)cc1F

>  <score_type>  (78) 
oracle

>  <origin>  (78) 
adg

>  <m_score__min__energy>  (78) 
-13.31

>  <m_primary>  (78) 
energy

$$$$
78:0
     RDKit          3D

 55 57  0  0  0  0  0  0  0  0999 V2000
   64.7450   33.0410   49.6090 C   0  0  0  0  0  0  0  0  0  0  0  0
   63.7030   32.0160   49.1750 C   0  0  0  0  0  0  0  0  0  0  0  0
   62.5380   32.6900   48.5050 C   0  0  0  0  0  0  0  0  0  0  0  0
   62.5420   33.3010   47.2590 C   0  0  0  0  0  0  0  0  0  0  0  0
   63.7300   33.4680   46.3620 C   0  0  0  0  0  0  0  0  0  0  0  0
   61.3100   33.7560   46.9600 N   0  0  0  0  0  0  0  0  0  0  0  0
   60.5070   33.4320   47.9910 C   0  0  0  0  0  0  0  0  0  0  0  0
   59.0500   33.7770   48.0380 C   0  0  0  0  0  0  0  0  0  0  0  0
   58.6920   34.5440   46.8540 N   0  0  0  0  0  0  0  0  0  0  0  0
   58.6290   34.0110   45.5250 C   0  0  0  0  0  0  0  0  0  0  0  0
   59.6890   33.9400   44.8480 O   0  0  0  0  0  0  0  0  0  0  0  0
   57.3490   33.4890   44.9330 C   0  0  0  0  0  0  0  0  0  0  0  0
   57.2700   32.0050   45.1040 C   0  0  0  0  0  0  0  0  0  0  0  0
   56.2800   31.2990   44.4990 N   0  0  0  0  0  0  0  0  0  0  0  0
   56.1790   29.9560   44.6650 C   0  0  0  0  0  0  0  0  0  0  0  0
   55.2460   29.3250   44.1010 O   0  0  0  0  0  0  0  0  0  0  0  0
   57.1010   29.2800   45.4650 C   0  0  0  0  0  0  0  0  0  0  0  0
   58.1290   30.0140   46.0790 C   0  0  0  0  0  0  0  0  0  0  0  0
   59.1350   29.3730   46.8970 N   0  0  0  0  0  0  0  0  0  0  0  0
   59.9170   28.2540   46.3440 C   0  0  0  0  0  0  0  0  0  0  0  0
   60.3710   27.3130   47.4640 C   0  0  0  0  0  0  0  0  0  0  0  0
   61.0090   28.0380   48.4970 O   0  0  0  0  0  0  0  0  0  0  0  0
   60.0650   28.8840   49.1260 C   0  0  0  0  0  0  0  0  0  0  0  0
   59.5790   29.9730   48.1650 C   0  0  0  0  0  0  0  0  0  0  0  0
   58.1780   31.3610   45.8850 N   0  0  0  0  0  0  0  0  0  0  0  0
   61.2310   32.7610   48.9700 C   0  0  0  0  0  0  0  0  0  0  0  0
   60.7230   32.2800   50.3020 C   0  0  0  0  0  0  0  0  0  0  0  0
   60.1840   33.4420   51.1320 C   0  0  0  0  0  0  0  0  0  0  0  0
   64.7851   33.0805   50.7076 H   0  0  0  0  0  0  0  0  0  0  0  0
   65.7307   32.7507   49.2163 H   0  0  0  0  0  0  0  0  0  0  0  0
   64.4710   34.0313   49.2163 H   0  0  0  0  0  0  0  0  0  0  0  0
   64.1646   31.3087   48.4702 H   0  0  0  0  0  0  0  0  0  0  0  0
   63.3381   31.4849   50.0665 H   0  0  0  0  0  0  0  0  0  0  0  0
   64.6358   33.5953   46.9730 H   0  0  0  0  0  0  0  0  0  0  0  0
   63.8383   32.5763   45.7271 H   0  0  0  0  0  0  0  0  0  0  0  0
   63.5883   34.3551   45.7271 H   0  0  0  0  0  0  0  0  0  0  0  0
   61.0300   34.2620   46.0880 H   0  0  0  0  0  0  0  0  0  0  0  0
   58.4555   32.8520   48.0687 H   0  0  0  0  0  0  0  0  0  0  0  0
   58.8450   34.3762   48.9374 H   0  0  0  0  0  0  0  0  0  0  0  0
   56.4947   33.9596   45.4415 H   0  0  0  0  0  0  0  0  0  0  0  0
   57.3250   33.7291   43.8598 H   0  0  0  0  0  0  0  0  0  0  0  0
   57.0241   28.1926   45.6120 H   0  0  0  0  0  0  0  0  0  0  0  0
   59.2939   27.6942   45.6310 H   0  0  0  0  0  0  0  0  0  0  0  0
   60.8052   28.6572   45.8356 H   0  0  0  0  0  0  0  0  0  0  0  0
   59.4940   26.7927   47.8764 H   0  0  0  0  0  0  0  0  0  0  0  0
   61.0848   26.5865   47.0484 H   0  0  0  0  0  0  0  0  0  0  0  0
   59.2042   28.2823   49.4530 H   0  0  0  0  0  0  0  0  0  0  0  0
   60.5470   29.3671   49.9887 H   0  0  0  0  0  0  0  0  0  0  0  0
   58.7387   30.5140   48.6245 H   0  0  0  0  0  0  0  0  0  0  0  0
   60.4077   30.6673   47.9619 H   0  0  0  0  0  0  0  0  0  0  0  0
   59.9164   31.5504   50.1376 H   0  0  0  0  0  0  0  0  0  0  0  0
   61.5566   31.8149   50.8486 H   0  0  0  0  0  0  0  0  0  0  0  0
   60.2918   33.2095   52.2017 H   0  0  0  0  0  0  0  0  0  0  0  0
   60.7506   34.3549   50.8962 H   0  0  0  0  0  0  0  0  0  0  0  0
   59.1211   33.5990   50.8962 H   0  0  0  0  0  0  0  0  0  0  0  0
  1  2  1  0
  2  3  1  0
  3  4  2  0
  4  5  1  0
  4  6  1  0
  6  7  1  0
  7  8  1  0
  8  9  1  0
  9 10  1  0
 10 11  2  0
 10 12  1  0
 12 13  1  0
 13 14  2  0
 14 15  1  0
 15 16  2  0
 15 17  1  0
 17 18  2  0
 18 19  1  0
 19 20  1  0
 20 21  1  0
 21 22  1  0
 22 23  1  0
 23 24  1  0
 18 25  1  0
  7 26  2  0
 26 27  1  0
 27 28  1  0
 26  3  1  0
 25 13  1  0
 24 19  1  0
  1 29  1  0
  1 30  1  0
  1 31  1  0
  2 32  1  0
  2 33  1  0
  5 34  1  0
  5 35  1  0
  5 36  1  0
  6 37  1  0
  8 38  1  0
  8 39  1  0
 12 40  1  0
 12 41  1  0
 17 42  1  0
 20 43  1  0
 20 44  1  0
 21 45  1  0
 21 46  1  0
 23 47  1  0
 23 48  1  0
 24 49  1  0
 24 50  1  0
 27 51  1  0
 27 52  1  0
 28 53  1  0
 28 54  1  0
 28 55  1  0
M  CHG  2   9  -1  25  -1
M  END
>  <UniqueID>  (79) 
71

>  <SMILES>  (79) 
CCc1c(C)[nH]c(C[N-]C(=O)Cc2nc(=O)cc(N3CCOCC3)[n-]2)c1CC

>  <Energy>  (79) 
72.60207801302178

>  <Genealogy>  (79) 
CCc1c(C)[nH]c(C[N-]C(=O)Cc2nc(=O)cc(N3CCOCC3)[n-]2)c1CC (protonated)
CCc1c(C)[nH]c(C[N-]C(=O)Cc2nc(=O)cc(N3CCOCC3)[n-]2)c1CC (3D coordinates assigned)
CCc1c(C)[nH]c(C[N-]C(=O)Cc2nc(=O)cc(N3CCOCC3)[n-]2)c1CC (nonaromatic ring conformer: 72.60207801302178 kcal/mol)

>  <smiles>  (79) 
CCc1c(C)[nH]c(CNC(=O)Cc2nc(=O)cc(N3CCOCC3)[nH]2)c1CC

>  <score_type>  (79) 
oracle

>  <origin>  (79) 
adg

>  <m_score__min__energy>  (79) 
-11.359999999999999

>  <m_primary>  (79) 
energy

$$$$
79:0
     RDKit          3D

 42 44  0  0  0  0  0  0  0  0999 V2000
   57.4170   34.3737   46.4704 H   0  0  0  0  0  0  0  0  0  0  0  0
   57.5650   33.6560   45.6500 C   0  0  0  0  0  0  0  0  0  0  0  0
   57.0120   32.4160   45.7230 N   0  0  0  0  0  0  0  0  0  0  0  0
   57.1720   31.4950   44.7310 C   0  0  0  0  0  0  0  0  0  0  0  0
   56.6340   30.3140   44.8210 N   0  0  0  0  0  0  0  0  0  0  0  0
   57.3620   29.0780   44.8000 C   0  0  0  0  0  0  0  0  0  0  0  0
   57.4460   28.4510   43.7090 O   0  0  0  0  0  0  0  0  0  0  0  0
   58.0740   28.5540   45.9930 C   0  0  0  0  0  0  0  0  0  0  0  0
   59.2220   29.1020   46.2950 N   0  0  0  0  0  0  0  0  0  0  0  0
   59.5730   29.7620   47.5200 C   0  0  0  0  0  0  0  0  0  0  0  0
   59.7350   29.0640   48.5560 O   0  0  0  0  0  0  0  0  0  0  0  0
   59.8090   31.2220   47.5780 C   0  0  0  0  0  0  0  0  0  0  0  0
   60.8030   31.8100   46.7750 C   0  0  0  0  0  0  0  0  0  0  0  0
   61.4009   31.1829   46.0973 H   0  0  0  0  0  0  0  0  0  0  0  0
   61.0350   33.1880   46.8340 C   0  0  0  0  0  0  0  0  0  0  0  0
   61.8202   33.6400   46.2102 H   0  0  0  0  0  0  0  0  0  0  0  0
   60.2710   33.9910   47.6840 C   0  0  0  0  0  0  0  0  0  0  0  0
   60.4566   35.0742   47.7308 H   0  0  0  0  0  0  0  0  0  0  0  0
   59.2710   33.4190   48.4750 C   0  0  0  0  0  0  0  0  0  0  0  0
   58.6688   34.0528   49.1425 H   0  0  0  0  0  0  0  0  0  0  0  0
   59.0350   32.0420   48.4190 C   0  0  0  0  0  0  0  0  0  0  0  0
   58.2400   31.5976   49.0358 H   0  0  0  0  0  0  0  0  0  0  0  0
   57.4260   27.4910   46.8710 C   0  0  0  0  0  0  0  0  0  0  0  0
   58.0969   27.2893   47.7191 H   0  0  0  0  0  0  0  0  0  0  0  0
   56.4504   27.8927   47.1824 H   0  0  0  0  0  0  0  0  0  0  0  0
   57.1480   26.1780   46.1630 C   0  0  0  0  0  0  0  0  0  0  0  0
   58.1980   25.2940   45.8400 C   0  0  0  0  0  0  0  0  0  0  0  0
   59.2305   25.5464   46.1232 H   0  0  0  0  0  0  0  0  0  0  0  0
   57.9370   24.1000   45.1630 C   0  0  0  0  0  0  0  0  0  0  0  0
   58.7620   23.4121   44.9259 H   0  0  0  0  0  0  0  0  0  0  0  0
   56.6330   23.7780   44.7870 C   0  0  0  0  0  0  0  0  0  0  0  0
   56.4296   22.8339   44.2604 H   0  0  0  0  0  0  0  0  0  0  0  0
   55.5860   24.6540   45.0790 C   0  0  0  0  0  0  0  0  0  0  0  0
   54.5591   24.3996   44.7778 H   0  0  0  0  0  0  0  0  0  0  0  0
   55.8370   25.8540   45.7530 C   0  0  0  0  0  0  0  0  0  0  0  0
   54.7770   26.7160   46.0120 O   0  0  0  0  0  0  0  0  0  0  0  0
   57.9160   31.8290   43.5930 C   0  0  0  0  0  0  0  0  0  0  0  0
   58.0443   31.0988   42.7804 H   0  0  0  0  0  0  0  0  0  0  0  0
   58.4940   33.0970   43.4980 C   0  0  0  0  0  0  0  0  0  0  0  0
   59.0838   33.3692   42.6103 H   0  0  0  0  0  0  0  0  0  0  0  0
   58.3210   34.0180   44.5330 C   0  0  0  0  0  0  0  0  0  0  0  0
   58.7752   35.0178   44.4693 H   0  0  0  0  0  0  0  0  0  0  0  0
  1  2  1  0
  2  3  1  0
  3  4  1  0
  4  5  2  0
  5  6  1  0
  6  7  2  0
  6  8  1  0
  8  9  2  3
  9 10  1  0
 10 11  2  0
 10 12  1  0
 12 13  2  0
 13 14  1  0
 13 15  1  0
 15 16  1  0
 15 17  2  0
 17 18  1  0
 17 19  1  0
 19 20  1  0
 19 21  2  0
 21 22  1  0
  8 23  1  0
 23 24  1  0
 23 25  1  0
 23 26  1  0
 26 27  2  0
 27 28  1  0
 27 29  1  0
 29 30  1  0
 29 31  2  0
 31 32  1  0
 31 33  1  0
 33 34  1  0
 33 35  2  0
 35 36  1  0
  4 37  1  0
 37 38  1  0
 37 39  2  0
 39 40  1  0
 39 41  1  0
 41 42  1  0
 41  2  2  0
 21 12  1  0
 35 26  1  0
M  CHG  2   3  -1  36  -1
M  END
>  <UniqueID>  (80) 
72

>  <SMILES>  (80) 
O=C(/N=c1/cccc[n-]1)C(Cc1ccccc1[O-])=NC(=O)c1ccccc1

>  <Energy>  (80) 
62.90015932016354

>  <Genealogy>  (80) 
O=C(N=c1cccc[n-]1)C(Cc1ccccc1[O-])=NC(=O)c1ccccc1 (protonated)
O=C(/N=c1/cccc[n-]1)C(Cc1ccccc1[O-])=NC(=O)c1ccccc1 (cis-trans isomerization)
O=C(/N=c1/cccc[n-]1)C(Cc1ccccc1[O-])=NC(=O)c1ccccc1 (3D coordinates assigned)
O=C(/N=c1/cccc[n-]1)C(Cc1ccccc1[O-])=NC(=O)c1ccccc1 (optimized conformer: 62.90015932016354 kcal/mol)

>  <smiles>  (80) 
O=C(N=c1cccc[nH]1)C(Cc1ccccc1O)=NC(=O)c1ccccc1

>  <score_type>  (80) 
oracle

>  <origin>  (80) 
adg

>  <m_score__min__energy>  (80) 
-13.6

>  <m_primary>  (80) 
energy

$$$$
80:0
     RDKit          3D

 29 30  0  0  0  0  0  0  0  0999 V2000
   57.3490   19.3110   46.1080 C   0  0  0  0  0  0  0  0  0  0  0  0
   56.4780   20.4320   46.2050 O   0  0  0  0  0  0  0  0  0  0  0  0
   56.6870   21.7070   45.6440 C   0  0  0  0  0  0  0  0  0  0  0  0
   56.5320   21.8360   44.2510 C   0  0  0  0  0  0  0  0  0  0  0  0
   56.1840   20.7400   43.4600 O   0  0  0  0  0  0  0  0  0  0  0  0
   56.7260   23.0710   43.6310 C   0  0  0  0  0  0  0  0  0  0  0  0
   57.0770   24.1900   44.3800 C   0  0  0  0  0  0  0  0  0  0  0  0
   57.2330   24.0970   45.7710 C   0  0  0  0  0  0  0  0  0  0  0  0
   57.6260   25.3000   46.5470 C   0  0  0  0  0  0  0  0  0  0  0  0
   58.0510   25.1600   47.7270 O   0  0  0  0  0  0  0  0  0  0  0  0
   57.5780   26.6640   45.9650 C   0  0  0  0  0  0  0  0  0  0  0  0
   58.7810   27.3460   45.7100 C   0  0  0  0  0  0  0  0  0  0  0  0
   58.7650   28.6290   45.1570 C   0  0  0  0  0  0  0  0  0  0  0  0
   57.5500   29.2490   44.8620 C   0  0  0  0  0  0  0  0  0  0  0  0
   56.3450   28.5930   45.1290 C   0  0  0  0  0  0  0  0  0  0  0  0
   55.1400   29.2250   44.8440 O   0  0  0  0  0  0  0  0  0  0  0  0
   56.3530   27.3070   45.6860 C   0  0  0  0  0  0  0  0  0  0  0  0
   55.1410   26.6900   45.9820 O   0  0  0  0  0  0  0  0  0  0  0  0
   57.0400   22.8510   46.4070 C   0  0  0  0  0  0  0  0  0  0  0  0
   57.1830   22.7710   47.7880 O   0  0  0  0  0  0  0  0  0  0  0  0
   57.6168   18.9663   47.1177 H   0  0  0  0  0  0  0  0  0  0  0  0
   56.8425   18.4990   45.5657 H   0  0  0  0  0  0  0  0  0  0  0  0
   58.2610   19.6011   45.5657 H   0  0  0  0  0  0  0  0  0  0  0  0
   56.7760   19.9230   43.3740 H   0  0  0  0  0  0  0  0  0  0  0  0
   56.6005   23.1606   42.5419 H   0  0  0  0  0  0  0  0  0  0  0  0
   57.2335   25.1557   43.8771 H   0  0  0  0  0  0  0  0  0  0  0  0
   59.7417   26.8659   45.9476 H   0  0  0  0  0  0  0  0  0  0  0  0
   59.7116   29.1512   44.9538 H   0  0  0  0  0  0  0  0  0  0  0  0
   57.5406   30.2556   44.4186 H   0  0  0  0  0  0  0  0  0  0  0  0
  1  2  1  0
  2  3  1  0
  3  4  2  0
  4  5  1  0
  4  6  1  0
  6  7  2  0
  7  8  1  0
  8  9  1  0
  9 10  2  0
  9 11  1  0
 11 12  2  0
 12 13  1  0
 13 14  2  0
 14 15  1  0
 15 16  1  0
 15 17  2  0
 17 18  1  0
  8 19  2  0
 19 20  1  0
 19  3  1  0
 17 11  1  0
  1 21  1  0
  1 22  1  0
  1 23  1  0
  5 24  1  0
  6 25  1  0
  7 26  1  0
 12 27  1  0
 13 28  1  0
 14 29  1  0
M  CHG  3  16  -1  18  -1  20  -1
M  END
>  <UniqueID>  (81) 
73

>  <SMILES>  (81) 
COc1c(O)ccc(C(=O)c2cccc([O-])c2[O-])c1[O-]

>  <Energy>  (81) 
42.04245078379379

>  <Genealogy>  (81) 
COc1c(O)ccc(C(=O)c2cccc([O-])c2[O-])c1[O-] (protonated)
COc1c(O)ccc(C(=O)c2cccc([O-])c2[O-])c1[O-] (3D coordinates assigned)
COc1c(O)ccc(C(=O)c2cccc([O-])c2[O-])c1[O-] (optimized conformer: 42.04245078379379 kcal/mol)

>  <smiles>  (81) 
COc1c(O)ccc(C(=O)c2cccc(O)c2O)c1O

>  <score_type>  (81) 
oracle

>  <origin>  (81) 
adg

>  <m_score__min__energy>  (81) 
-16.050000000000001

>  <m_primary>  (81) 
energy

$$$$
81:0
     RDKit          3D

 49 51  0  0  0  0  0  0  0  0999 V2000
   58.8360   34.4150   51.8390 N   0  0  0  0  0  0  0  0  0  0  0  0
   58.2870   33.0920   51.8340 C   0  0  0  0  0  0  0  0  0  0  0  0
   57.0580   32.8550   52.4680 C   0  0  0  0  0  0  0  0  0  0  0  0
   56.5000   31.5760   52.4730 C   0  0  0  0  0  0  0  0  0  0  0  0
   57.1710   30.5190   51.8570 C   0  0  0  0  0  0  0  0  0  0  0  0
   58.4030   30.7370   51.2350 C   0  0  0  0  0  0  0  0  0  0  0  0
   58.9620   32.0290   51.1960 C   0  0  0  0  0  0  0  0  0  0  0  0
   60.2400   32.2720   50.5850 N   0  0  0  0  0  0  0  0  0  0  0  0
   60.6160   33.4030   49.7880 C   0  0  0  0  0  0  0  0  0  0  0  0
   61.5190   34.1870   50.1880 O   0  0  0  0  0  0  0  0  0  0  0  0
   59.9830   33.6230   48.4680 C   0  0  0  0  0  0  0  0  0  0  0  0
   58.9950   32.7390   47.9950 C   0  0  0  0  0  0  0  0  0  0  0  0
   58.3890   32.9510   46.7550 C   0  0  0  0  0  0  0  0  0  0  0  0
   58.7500   34.0520   45.9640 C   0  0  0  0  0  0  0  0  0  0  0  0
   58.1160   34.2500   44.6100 C   0  0  0  0  0  0  0  0  0  0  0  0
   58.3960   33.1320   43.7140 N   0  0  0  0  0  0  0  0  0  0  0  0
   57.5780   31.9680   43.5230 C   0  0  0  0  0  0  0  0  0  0  0  0
   57.7520   31.2690   42.4900 O   0  0  0  0  0  0  0  0  0  0  0  0
   56.5080   31.5630   44.4940 C   0  0  0  0  0  0  0  0  0  0  0  0
   56.9480   30.3780   45.2210 N   0  0  0  0  0  0  0  0  0  0  0  0
   56.3610   29.0710   45.1550 C   0  0  0  0  0  0  0  0  0  0  0  0
   55.1600   28.9730   44.7910 O   0  0  0  0  0  0  0  0  0  0  0  0
   57.0940   27.8450   45.5460 C   0  0  0  0  0  0  0  0  0  0  0  0
   58.4970   27.7990   45.4860 C   0  0  0  0  0  0  0  0  0  0  0  0
   59.1840   26.6390   45.8560 C   0  0  0  0  0  0  0  0  0  0  0  0
   58.4770   25.5100   46.2770 C   0  0  0  0  0  0  0  0  0  0  0  0
   57.0820   25.5350   46.3170 C   0  0  0  0  0  0  0  0  0  0  0  0
   56.3870   26.6920   45.9450 C   0  0  0  0  0  0  0  0  0  0  0  0
   54.9970   26.6890   45.9850 O   0  0  0  0  0  0  0  0  0  0  0  0
   59.7500   34.9240   46.4210 C   0  0  0  0  0  0  0  0  0  0  0  0
   60.3570   34.7160   47.6630 C   0  0  0  0  0  0  0  0  0  0  0  0
   58.2810   35.2390   52.1670 H   0  0  0  0  0  0  0  0  0  0  0  0
   59.8190   34.5860   51.5280 H   0  0  0  0  0  0  0  0  0  0  0  0
   56.5308   33.6830   52.9645 H   0  0  0  0  0  0  0  0  0  0  0  0
   55.5307   31.4010   52.9628 H   0  0  0  0  0  0  0  0  0  0  0  0
   56.7290   29.5117   51.8611 H   0  0  0  0  0  0  0  0  0  0  0  0
   58.9392   29.8948   50.7732 H   0  0  0  0  0  0  0  0  0  0  0  0
   58.6980   31.8745   48.6069 H   0  0  0  0  0  0  0  0  0  0  0  0
   57.6223   32.2490   46.3954 H   0  0  0  0  0  0  0  0  0  0  0  0
   57.0271   34.3416   44.7362 H   0  0  0  0  0  0  0  0  0  0  0  0
   58.5392   35.1618   44.1632 H   0  0  0  0  0  0  0  0  0  0  0  0
   56.3244   32.3834   45.2033 H   0  0  0  0  0  0  0  0  0  0  0  0
   55.5783   31.3403   43.9498 H   0  0  0  0  0  0  0  0  0  0  0  0
   59.0586   28.6815   45.1457 H   0  0  0  0  0  0  0  0  0  0  0  0
   60.2830   26.6152   45.8156 H   0  0  0  0  0  0  0  0  0  0  0  0
   59.0197   24.6014   46.5769 H   0  0  0  0  0  0  0  0  0  0  0  0
   56.5268   24.6427   46.6419 H   0  0  0  0  0  0  0  0  0  0  0  0
   60.0582   35.7766   45.7980 H   0  0  0  0  0  0  0  0  0  0  0  0
   61.1331   35.4119   48.0142 H   0  0  0  0  0  0  0  0  0  0  0  0
  1  2  1  0
  2  3  2  0
  3  4  1  0
  4  5  2  0
  5  6  1  0
  6  7  2  0
  7  8  1  0
  8  9  1  0
  9 10  2  0
  9 11  1  0
 11 12  2  0
 12 13  1  0
 13 14  2  0
 14 15  1  0
 15 16  1  0
 16 17  1  0
 17 18  2  0
 17 19  1  0
 19 20  1  0
 20 21  1  0
 21 22  2  0
 21 23  1  0
 23 24  2  0
 24 25  1  0
 25 26  2  0
 26 27  1  0
 27 28  2  0
 28 29  1  0
 14 30  1  0
 30 31  2  0
  7  2  1  0
 31 11  1  0
 28 23  1  0
  1 32  1  0
  1 33  1  0
  3 34  1  0
  4 35  1  0
  5 36  1  0
  6 37  1  0
 12 38  1  0
 13 39  1  0
 15 40  1  0
 15 41  1  0
 19 42  1  0
 19 43  1  0
 24 44  1  0
 25 45  1  0
 26 46  1  0
 27 47  1  0
 30 48  1  0
 31 49  1  0
M  CHG  4   8  -1  16  -1  20  -1  29  -1
M  END
>  <UniqueID>  (82) 
74

>  <SMILES>  (82) 
Nc1ccccc1[N-]C(=O)c1ccc(C[N-]C(=O)C[N-]C(=O)c2ccccc2[O-])cc1

>  <Energy>  (82) 
55.87443792700396

>  <Genealogy>  (82) 
Nc1ccccc1[N-]C(=O)c1ccc(C[N-]C(=O)C[N-]C(=O)c2ccccc2[O-])cc1 (protonated)
Nc1ccccc1[N-]C(=O)c1ccc(C[N-]C(=O)C[N-]C(=O)c2ccccc2[O-])cc1 (3D coordinates assigned)
Nc1ccccc1[N-]C(=O)c1ccc(C[N-]C(=O)C[N-]C(=O)c2ccccc2[O-])cc1 (optimized conformer: 55.87443792700396 kcal/mol)

>  <smiles>  (82) 
Nc1ccccc1NC(=O)c1ccc(CNC(=O)CNC(=O)c2ccccc2O)cc1

>  <score_type>  (82) 
oracle

>  <origin>  (82) 
adg

>  <m_score__min__energy>  (82) 
-17.399999999999999

>  <m_primary>  (82) 
energy

$$$$
82:0
     RDKit          3D

 52 55  0  0  0  0  0  0  0  0999 V2000
   60.0750   33.8100   52.8890 C   0  0  0  0  0  0  0  0  0  0  0  0
   60.1780   33.9350   51.4740 O   0  0  0  0  0  0  0  0  0  0  0  0
   61.3790   33.8430   50.7540 C   0  0  0  0  0  0  0  0  0  0  0  0
   62.5980   33.4990   51.3710 C   0  0  0  0  0  0  0  0  0  0  0  0
   63.7750   33.4320   50.6190 C   0  0  0  0  0  0  0  0  0  0  0  0
   63.7520   33.7190   49.2530 C   0  0  0  0  0  0  0  0  0  0  0  0
   62.5500   34.0640   48.6330 C   0  0  0  0  0  0  0  0  0  0  0  0
   61.3540   34.0950   49.3720 C   0  0  0  0  0  0  0  0  0  0  0  0
   60.1270   34.5040   48.7500 N   0  0  0  0  0  0  0  0  0  0  0  0
   59.5540   34.0530   47.6650 C   0  0  0  0  0  0  0  0  0  0  0  0
   59.4260   34.9260   46.6280 N   0  0  0  0  0  0  0  0  0  0  0  0
   58.9370   34.5660   45.4150 C   0  0  0  0  0  0  0  0  0  0  0  0
   58.5450   33.2500   45.1860 C   0  0  0  0  0  0  0  0  0  0  0  0
   57.9010   32.7610   43.5850 S   0  0  0  0  0  0  0  0  0  0  0  0
   57.7410   31.0440   44.0700 C   0  0  0  0  0  0  0  0  0  0  0  0
   56.4810   30.5140   44.3680 C   0  0  0  0  0  0  0  0  0  0  0  0
   56.3520   29.1710   44.7340 C   0  0  0  0  0  0  0  0  0  0  0  0
   57.4860   28.3390   44.8100 C   0  0  0  0  0  0  0  0  0  0  0  0
   57.3480   26.9130   45.1910 C   0  0  0  0  0  0  0  0  0  0  0  0
   58.1670   26.0640   44.7430 O   0  0  0  0  0  0  0  0  0  0  0  0
   56.2850   26.5080   46.0730 N   0  0  0  0  0  0  0  0  0  0  0  0
   55.5170   25.4640   45.9500 C   0  0  0  0  0  0  0  0  0  0  0  0
   56.0560   24.1860   46.1440 C   0  0  0  0  0  0  0  0  0  0  0  0
   55.2570   23.0940   46.0120 N   0  0  0  0  0  0  0  0  0  0  0  0
   53.9410   23.2180   45.6980 C   0  0  0  0  0  0  0  0  0  0  0  0
   53.3990   24.4890   45.5050 C   0  0  0  0  0  0  0  0  0  0  0  0
   54.1960   25.5820   45.6350 N   0  0  0  0  0  0  0  0  0  0  0  0
   58.7500   28.8840   44.5140 C   0  0  0  0  0  0  0  0  0  0  0  0
   58.8740   30.2280   44.1500 C   0  0  0  0  0  0  0  0  0  0  0  0
   58.6210   32.3270   46.2280 C   0  0  0  0  0  0  0  0  0  0  0  0
   59.0860   32.7150   47.4940 C   0  0  0  0  0  0  0  0  0  0  0  0
   58.8830   31.7630   48.6060 C   0  0  0  0  0  0  0  0  0  0  0  0
   58.9560   32.2050   49.9620 N   0  0  0  0  0  0  0  0  0  0  0  0
   58.6910   30.5420   48.3620 O   0  0  0  0  0  0  0  0  0  0  0  0
   60.7037   34.5730   53.3712 H   0  0  0  0  0  0  0  0  0  0  0  0
   59.0277   33.9514   53.1943 H   0  0  0  0  0  0  0  0  0  0  0  0
   60.4140   32.8091   53.1943 H   0  0  0  0  0  0  0  0  0  0  0  0
   62.6240   33.2822   52.4491 H   0  0  0  0  0  0  0  0  0  0  0  0
   64.7214   33.1524   51.1050 H   0  0  0  0  0  0  0  0  0  0  0  0
   64.6808   33.6733   48.6655 H   0  0  0  0  0  0  0  0  0  0  0  0
   62.5382   34.3127   47.5616 H   0  0  0  0  0  0  0  0  0  0  0  0
   58.8503   35.3136   44.6127 H   0  0  0  0  0  0  0  0  0  0  0  0
   55.5893   31.1559   44.3142 H   0  0  0  0  0  0  0  0  0  0  0  0
   55.3576   28.7610   44.9643 H   0  0  0  0  0  0  0  0  0  0  0  0
   57.1188   24.0666   46.4015 H   0  0  0  0  0  0  0  0  0  0  0  0
   53.3082   22.3239   45.5968 H   0  0  0  0  0  0  0  0  0  0  0  0
   52.3354   24.6054   45.2497 H   0  0  0  0  0  0  0  0  0  0  0  0
   59.6458   28.2481   44.5695 H   0  0  0  0  0  0  0  0  0  0  0  0
   59.8667   30.6454   43.9256 H   0  0  0  0  0  0  0  0  0  0  0  0
   58.3136   31.2849   46.0563 H   0  0  0  0  0  0  0  0  0  0  0  0
   58.8380   31.5230   50.7450 H   0  0  0  0  0  0  0  0  0  0  0  0
   59.0880   33.2160   50.1890 H   0  0  0  0  0  0  0  0  0  0  0  0
  1  2  1  0
  2  3  1  0
  3  4  2  0
  4  5  1  0
  5  6  2  0
  6  7  1  0
  7  8  2  0
  8  9  1  0
  9 10  2  3
 10 11  1  0
 11 12  1  0
 12 13  2  0
 13 14  1  0
 14 15  1  0
 15 16  2  0
 16 17  1  0
 17 18  2  0
 18 19  1  0
 19 20  2  0
 19 21  1  0
 21 22  2  3
 22 23  1  0
 23 24  2  0
 24 25  1  0
 25 26  2  0
 26 27  1  0
 18 28  1  0
 28 29  2  0
 13 30  1  0
 30 31  2  0
 31 32  1  0
 32 33  1  0
 32 34  2  0
  8  3  1  0
 31 10  1  0
 29 15  1  0
 27 22  1  0
  1 35  1  0
  1 36  1  0
  1 37  1  0
  4 38  1  0
  5 39  1  0
  6 40  1  0
  7 41  1  0
 12 42  1  0
 16 43  1  0
 17 44  1  0
 23 45  1  0
 25 46  1  0
 26 47  1  0
 28 48  1  0
 29 49  1  0
 30 50  1  0
 33 51  1  0
 33 52  1  0
M  CHG  2  11  -1  27  -1
M  END
>  <UniqueID>  (83) 
75

>  <SMILES>  (83) 
COc1ccccc1N=c1[n-]cc(Sc2ccc(C(=O)N=c3cncc[n-]3)cc2)cc1C(N)=O

>  <Energy>  (83) 
77.41575786851791

>  <Genealogy>  (83) 
COc1ccccc1N=c1[n-]cc(Sc2ccc(C(=O)N=c3cncc[n-]3)cc2)cc1C(N)=O (protonated)
COc1ccccc1N=c1[n-]cc(Sc2ccc(C(=O)N=c3cncc[n-]3)cc2)cc1C(N)=O (3D coordinates assigned)
COc1ccccc1N=c1[n-]cc(Sc2ccc(C(=O)N=c3cncc[n-]3)cc2)cc1C(N)=O (optimized conformer: 77.41575786851791 kcal/mol)

>  <smiles>  (83) 
COc1ccccc1N=c1[nH]cc(Sc2ccc(C(=O)N=c3cncc[nH]3)cc2)cc1C(N)=O

>  <score_type>  (83) 
oracle

>  <origin>  (83) 
adg

>  <m_score__min__energy>  (83) 
-12.199999999999999

>  <m_primary>  (83) 
energy

$$$$
83:0
     RDKit          3D

 67 70  0  0  0  0  0  0  0  0999 V2000
   56.3623   28.0306   44.9212 H   0  0  0  0  0  0  0  0  0  0  0  0
   56.8430   27.2960   45.5840 C   0  0  0  0  0  0  0  0  0  0  0  0
   55.9660   26.3100   46.2420 C   0  0  0  0  0  0  0  0  0  0  0  0
   54.7380   26.3180   45.9600 O   0  0  0  0  0  0  0  0  0  0  0  0
   56.4550   25.3390   47.1800 N   0  0  0  0  0  0  0  0  0  0  0  0
   57.5590   24.4150   46.9370 C   0  0  0  0  0  0  0  0  0  0  0  0
   58.3769   24.9563   46.4389 H   0  0  0  0  0  0  0  0  0  0  0  0
   57.8937   24.0104   47.9036 H   0  0  0  0  0  0  0  0  0  0  0  0
   57.1180   23.2450   46.0470 C   0  0  0  0  0  0  0  0  0  0  0  0
   57.4635   22.3023   46.4964 H   0  0  0  0  0  0  0  0  0  0  0  0
   56.0207   23.2595   45.9712 H   0  0  0  0  0  0  0  0  0  0  0  0
   57.6840   23.3660   44.6830 N   0  0  0  0  0  0  0  0  0  0  0  0
   56.8320   24.1720   43.7820 C   0  0  0  0  0  0  0  0  0  0  0  0
   56.4872   25.0656   44.3229 H   0  0  0  0  0  0  0  0  0  0  0  0
   57.4311   24.4492   42.9021 H   0  0  0  0  0  0  0  0  0  0  0  0
   55.6070   23.3810   43.2960 C   0  0  0  0  0  0  0  0  0  0  0  0
   54.9745   23.1283   44.1598 H   0  0  0  0  0  0  0  0  0  0  0  0
   55.0467   24.0012   42.5809 H   0  0  0  0  0  0  0  0  0  0  0  0
   56.0210   22.1440   42.6240 N   0  0  0  0  0  0  0  0  0  0  0  0
   56.6090   22.3870   41.7890 H   0  0  0  0  0  0  0  0  0  0  0  0
   56.8090   21.3070   43.5320 C   0  0  0  0  0  0  0  0  0  0  0  0
   56.1755   21.0026   44.3782 H   0  0  0  0  0  0  0  0  0  0  0  0
   57.1629   20.4285   42.9726 H   0  0  0  0  0  0  0  0  0  0  0  0
   58.0380   22.0640   44.0730 C   0  0  0  0  0  0  0  0  0  0  0  0
   58.5284   21.4401   44.8348 H   0  0  0  0  0  0  0  0  0  0  0  0
   58.7050   22.2661   43.2220 H   0  0  0  0  0  0  0  0  0  0  0  0
   58.1770   27.3770   45.7220 C   0  0  0  0  0  0  0  0  0  0  0  0
   58.7860   26.9907   44.8914 H   0  0  0  0  0  0  0  0  0  0  0  0
   58.9100   27.9370   46.8860 C   0  0  0  0  0  0  0  0  0  0  0  0
   58.6490   29.2660   47.2630 C   0  0  0  0  0  0  0  0  0  0  0  0
   57.9534   29.8753   46.6672 H   0  0  0  0  0  0  0  0  0  0  0  0
   59.2650   29.8190   48.3870 C   0  0  0  0  0  0  0  0  0  0  0  0
   59.0236   30.8478   48.6924 H   0  0  0  0  0  0  0  0  0  0  0  0
   60.1900   29.0700   49.1290 C   0  0  0  0  0  0  0  0  0  0  0  0
   60.7850   29.5890   50.3250 N   0  0  0  0  0  0  0  0  0  0  0  0
   60.5020   30.8710   50.9030 C   0  0  0  0  0  0  0  0  0  0  0  0
   59.7500   30.9390   51.9100 O   0  0  0  0  0  0  0  0  0  0  0  0
   61.0660   32.0790   50.3700 N   0  0  0  0  0  0  0  0  0  0  0  0
   60.7150   32.6900   49.1190 C   0  0  0  0  0  0  0  0  0  0  0  0
   59.5540   33.4710   48.9740 C   0  0  0  0  0  0  0  0  0  0  0  0
   58.8979   33.6412   49.8404 H   0  0  0  0  0  0  0  0  0  0  0  0
   59.2290   34.0320   47.7360 C   0  0  0  0  0  0  0  0  0  0  0  0
   58.3335   34.6638   47.6410 H   0  0  0  0  0  0  0  0  0  0  0  0
   60.0340   33.7960   46.6170 C   0  0  0  0  0  0  0  0  0  0  0  0
   59.6440   34.3510   45.3870 O   0  0  0  0  0  0  0  0  0  0  0  0
   58.3060   34.3860   44.8950 C   0  0  0  0  0  0  0  0  0  0  0  0
   57.6315   34.7043   45.7036 H   0  0  0  0  0  0  0  0  0  0  0  0
   58.2547   35.0954   44.0559 H   0  0  0  0  0  0  0  0  0  0  0  0
   57.8860   33.0250   44.4070 C   0  0  0  0  0  0  0  0  0  0  0  0
   57.9680   32.7120   43.0390 C   0  0  0  0  0  0  0  0  0  0  0  0
   58.3476   33.4600   42.3274 H   0  0  0  0  0  0  0  0  0  0  0  0
   57.5690   31.4540   42.5800 C   0  0  0  0  0  0  0  0  0  0  0  0
   57.6251   31.2172   41.5073 H   0  0  0  0  0  0  0  0  0  0  0  0
   57.0980   30.4950   43.4840 C   0  0  0  0  0  0  0  0  0  0  0  0
   56.7788   29.5069   43.1209 H   0  0  0  0  0  0  0  0  0  0  0  0
   57.0330   30.7930   44.8500 C   0  0  0  0  0  0  0  0  0  0  0  0
   56.6688   30.0360   45.5601 H   0  0  0  0  0  0  0  0  0  0  0  0
   57.4300   32.0510   45.3140 C   0  0  0  0  0  0  0  0  0  0  0  0
   57.3857   32.2792   46.3892 H   0  0  0  0  0  0  0  0  0  0  0  0
   61.1910   33.0050   46.7570 C   0  0  0  0  0  0  0  0  0  0  0  0
   61.8355   32.8181   45.8854 H   0  0  0  0  0  0  0  0  0  0  0  0
   61.5240   32.4560   48.0000 C   0  0  0  0  0  0  0  0  0  0  0  0
   62.4274   31.8363   48.0991 H   0  0  0  0  0  0  0  0  0  0  0  0
   60.4870   27.7600   48.7330 C   0  0  0  0  0  0  0  0  0  0  0  0
   61.2052   27.1629   49.3141 H   0  0  0  0  0  0  0  0  0  0  0  0
   59.8760   27.2060   47.6030 C   0  0  0  0  0  0  0  0  0  0  0  0
   60.1519   26.1936   47.2730 H   0  0  0  0  0  0  0  0  0  0  0  0
  1  2  1  0
  2  3  1  0
  3  4  2  0
  3  5  1  0
  5  6  1  0
  6  7  1  0
  6  8  1  0
  6  9  1  0
  9 10  1  0
  9 11  1  0
  9 12  1  0
 12 13  1  0
 13 14  1  0
 13 15  1  0
 13 16  1  0
 16 17  1  0
 16 18  1  0
 16 19  1  0
 19 20  1  0
 19 21  1  0
 21 22  1  0
 21 23  1  0
 21 24  1  0
 24 25  1  0
 24 26  1  0
  2 27  2  0
 27 28  1  0
 27 29  1  0
 29 30  2  0
 30 31  1  0
 30 32  1  0
 32 33  1  0
 32 34  2  0
 34 35  1  0
 35 36  1  0
 36 37  2  0
 36 38  1  0
 38 39  1  0
 39 40  2  0
 40 41  1  0
 40 42  1  0
 42 43  1  0
 42 44  2  0
 44 45  1  0
 45 46  1  0
 46 47  1  0
 46 48  1  0
 46 49  1  0
 49 50  2  0
 50 51  1  0
 50 52  1  0
 52 53  1  0
 52 54  2  0
 54 55  1  0
 54 56  1  0
 56 57  1  0
 56 58  2  0
 58 59  1  0
 44 60  1  0
 60 61  1  0
 60 62  2  0
 62 63  1  0
 34 64  1  0
 64 65  1  0
 64 66  2  0
 66 67  1  0
 24 12  1  0
 66 29  1  0
 62 39  1  0
 58 49  1  0
M  CHG  3   5  -1  35  -1  38  -1
M  END
>  <UniqueID>  (84) 
76

>  <SMILES>  (84) 
O=C(/C=C\c1ccc([N-]C(=O)[N-]c2ccc(OCc3ccccc3)cc2)cc1)[N-]CCN1CCNCC1

>  <Energy>  (84) 
89.72614537015713

>  <Genealogy>  (84) 
O=C(C=Cc1ccc([N-]C(=O)[N-]c2ccc(OCc3ccccc3)cc2)cc1)[N-]CCN1CCNCC1 (protonated)
O=C(/C=C\c1ccc([N-]C(=O)[N-]c2ccc(OCc3ccccc3)cc2)cc1)[N-]CCN1CCNCC1 (cis-trans isomerization)
O=C(/C=C\c1ccc([N-]C(=O)[N-]c2ccc(OCc3ccccc3)cc2)cc1)[N-]CCN1CCNCC1 (3D coordinates assigned)
O=C(/C=C\c1ccc([N-]C(=O)[N-]c2ccc(OCc3ccccc3)cc2)cc1)[N-]CCN1CCNCC1 (nonaromatic ring conformer: 89.72614537015713 kcal/mol)

>  <smiles>  (84) 
O=C(C=Cc1ccc(NC(=O)Nc2ccc(OCc3ccccc3)cc2)cc1)NCCN1CCNCC1

>  <score_type>  (84) 
oracle

>  <origin>  (84) 
adg

>  <m_score__min__energy>  (84) 
-13.619999999999999

>  <m_primary>  (84) 
energy

$$$$
84:0
     RDKit          3D

 59 62  0  0  0  0  0  0  0  0999 V2000
   60.1410   28.2750   46.9980 C   0  0  0  0  0  0  0  0  0  0  0  0
   59.4750   28.8020   45.7040 C   0  0  0  0  0  0  0  0  0  0  0  0
   60.4410   28.5120   44.5360 C   0  0  0  0  0  0  0  0  0  0  0  0
   59.2470   30.3470   45.8400 C   0  0  0  0  0  0  0  0  0  0  0  0
   57.7750   30.7630   45.6200 C   0  0  1  0  0  0  0  0  0  0  0  0
   57.6590   32.2260   45.5870 N   0  0  0  0  0  0  0  0  0  0  0  0
   58.4170   33.1200   46.4290 C   0  0  0  0  0  0  0  0  0  0  0  0
   58.9260   34.3080   45.8760 C   0  0  0  0  0  0  0  0  0  0  0  0
   59.6530   35.2080   46.6640 C   0  0  0  0  0  0  0  0  0  0  0  0
   59.8450   34.9540   48.0250 C   0  0  0  0  0  0  0  0  0  0  0  0
   59.3080   33.7910   48.6020 C   0  0  0  0  0  0  0  0  0  0  0  0
   59.4370   33.5310   49.9730 O   0  0  0  0  0  0  0  0  0  0  0  0
   58.8010   32.4870   50.6620 C   0  0  0  0  0  0  0  0  0  0  0  0
   57.7910   32.7210   51.6160 C   0  0  0  0  0  0  0  0  0  0  0  0
   57.1490   31.6440   52.2360 C   0  0  0  0  0  0  0  0  0  0  0  0
   57.4950   30.3280   51.9020 C   0  0  0  0  0  0  0  0  0  0  0  0
   58.4920   30.0890   50.9560 C   0  0  0  0  0  0  0  0  0  0  0  0
   59.1430   31.1660   50.3380 C   0  0  0  0  0  0  0  0  0  0  0  0
   58.6430   32.8560   47.7950 C   0  0  0  0  0  0  0  0  0  0  0  0
   57.2690   30.1480   44.3020 C   0  0  0  0  0  0  0  0  0  0  0  0
   57.3240   28.6090   44.3360 C   0  0  0  0  0  0  0  0  0  0  0  0
   58.1820   28.1220   45.4280 N   0  0  0  0  0  0  0  0  0  0  0  0
   57.6730   27.0710   46.2680 C   0  0  0  0  0  0  0  0  0  0  0  0
   57.7170   27.2290   47.5160 O   0  0  0  0  0  0  0  0  0  0  0  0
   57.1210   25.8180   45.6860 C   0  0  0  0  0  0  0  0  0  0  0  0
   57.9930   24.8010   45.2500 C   0  0  0  0  0  0  0  0  0  0  0  0
   57.4940   23.6120   44.7150 C   0  0  0  0  0  0  0  0  0  0  0  0
   56.1150   23.4130   44.6030 C   0  0  0  0  0  0  0  0  0  0  0  0
   55.6310   22.2220   44.0650 O   0  0  0  0  0  0  0  0  0  0  0  0
   55.2330   24.4120   45.0300 C   0  0  0  0  0  0  0  0  0  0  0  0
   55.7240   25.6060   45.5710 C   0  0  0  0  0  0  0  0  0  0  0  0
   54.8140   26.5680   45.9950 O   0  0  0  0  0  0  0  0  0  0  0  0
   59.6189   28.6882   47.8736 H   0  0  0  0  0  0  0  0  0  0  0  0
   60.0814   27.1768   47.0200 H   0  0  0  0  0  0  0  0  0  0  0  0
   61.1960   28.5855   47.0200 H   0  0  0  0  0  0  0  0  0  0  0  0
   61.4223   28.2174   44.9363 H   0  0  0  0  0  0  0  0  0  0  0  0
   60.0364   27.6957   43.9196 H   0  0  0  0  0  0  0  0  0  0  0  0
   60.5529   29.4162   43.9196 H   0  0  0  0  0  0  0  0  0  0  0  0
   59.5519   30.6585   46.8499 H   0  0  0  0  0  0  0  0  0  0  0  0
   59.8472   30.8376   45.0596 H   0  0  0  0  0  0  0  0  0  0  0  0
   57.1588   30.3920   46.4523 H   0  0  0  0  0  0  0  0  0  0  0  0
   57.0560   32.6570   44.8470 H   0  0  0  0  0  0  0  0  0  0  0  0
   58.7512   34.5326   44.8134 H   0  0  0  0  0  0  0  0  0  0  0  0
   60.0743   36.1175   46.2110 H   0  0  0  0  0  0  0  0  0  0  0  0
   60.4153   35.6631   48.6430 H   0  0  0  0  0  0  0  0  0  0  0  0
   57.5070   33.7520   51.8736 H   0  0  0  0  0  0  0  0  0  0  0  0
   56.3692   31.8310   52.9890 H   0  0  0  0  0  0  0  0  0  0  0  0
   56.9810   29.4841   52.3853 H   0  0  0  0  0  0  0  0  0  0  0  0
   58.7672   29.0564   50.6951 H   0  0  0  0  0  0  0  0  0  0  0  0
   59.9287   30.9733   49.5927 H   0  0  0  0  0  0  0  0  0  0  0  0
   58.2949   31.9085   48.2320 H   0  0  0  0  0  0  0  0  0  0  0  0
   56.2285   30.4644   44.1368 H   0  0  0  0  0  0  0  0  0  0  0  0
   57.9201   30.4974   43.4872 H   0  0  0  0  0  0  0  0  0  0  0  0
   56.3059   28.2184   44.4806 H   0  0  0  0  0  0  0  0  0  0  0  0
   57.7473   28.2585   43.3831 H   0  0  0  0  0  0  0  0  0  0  0  0
   59.0804   24.9456   45.3321 H   0  0  0  0  0  0  0  0  0  0  0  0
   58.1892   22.8281   44.3800 H   0  0  0  0  0  0  0  0  0  0  0  0
   55.1290   22.1960   43.1830 H   0  0  0  0  0  0  0  0  0  0  0  0
   54.1475   24.2581   44.9400 H   0  0  0  0  0  0  0  0  0  0  0  0
  1  2  1  0
  2  3  1  0
  2  4  1  0
  4  5  1  0
  5  6  1  0
  6  7  1  0
  7  8  2  0
  8  9  1  0
  9 10  2  0
 10 11  1  0
 11 12  1  0
 12 13  1  0
 13 14  2  0
 14 15  1  0
 15 16  2  0
 16 17  1  0
 17 18  2  0
 11 19  2  0
  5 20  1  0
 20 21  1  0
 21 22  1  0
 22 23  1  0
 23 24  2  0
 23 25  1  0
 25 26  2  0
 26 27  1  0
 27 28  2  0
 28 29  1  0
 28 30  1  0
 30 31  2  0
 31 32  1  0
 22  2  1  0
 31 25  1  0
 19  7  1  0
 18 13  1  0
  1 33  1  0
  1 34  1  0
  1 35  1  0
  3 36  1  0
  3 37  1  0
  3 38  1  0
  4 39  1  0
  4 40  1  0
  5 41  1  1
  6 42  1  0
  8 43  1  0
  9 44  1  0
 10 45  1  0
 14 46  1  0
 15 47  1  0
 16 48  1  0
 17 49  1  0
 18 50  1  0
 19 51  1  0
 20 52  1  0
 20 53  1  0
 21 54  1  0
 21 55  1  0
 26 56  1  0
 27 57  1  0
 29 58  1  0
 30 59  1  0
M  CHG  1  32  -1
M  END
>  <UniqueID>  (85) 
77

>  <SMILES>  (85) 
CC1(C)C[C@@H](Nc2cccc(Oc3ccccc3)c2)CCN1C(=O)c1ccc(O)cc1[O-]

>  <Energy>  (85) 
85.53134799000203

>  <Genealogy>  (85) 
CC1(C)CC(Nc2cccc(Oc3ccccc3)c2)CCN1C(=O)c1ccc(O)cc1[O-] (protonated)
CC1(C)C[C@@H](Nc2cccc(Oc3ccccc3)c2)CCN1C(=O)c1ccc(O)cc1[O-] (chirality)
CC1(C)C[C@@H](Nc2cccc(Oc3ccccc3)c2)CCN1C(=O)c1ccc(O)cc1[O-] (3D coordinates assigned)
CC1(C)C[C@@H](Nc2cccc(Oc3ccccc3)c2)CCN1C(=O)c1ccc(O)cc1[O-] (nonaromatic ring conformer: 85.53134799000203 kcal/mol)

>  <smiles>  (85) 
CC1(C)CC(Nc2cccc(Oc3ccccc3)c2)CCN1C(=O)c1ccc(O)cc1O

>  <score_type>  (85) 
oracle

>  <origin>  (85) 
adg

>  <m_score__min__energy>  (85) 
-14.199999999999999

>  <m_primary>  (85) 
energy

$$$$
85:0
     RDKit          3D

 62 65  0  0  0  0  0  0  0  0999 V2000
   58.3500   26.0720   47.4840 C   0  0  0  0  0  0  0  0  0  0  0  0
   59.0020   27.4170   47.5260 C   0  0  0  0  0  0  0  0  0  0  0  0
   59.2040   28.1270   48.6510 N   0  0  0  0  0  0  0  0  0  0  0  0
   59.8410   29.2460   48.3390 N   0  0  0  0  0  0  0  0  0  0  0  0
   60.1890   30.2810   49.3140 C   0  0  0  0  0  0  0  0  0  0  0  0
   59.1600   30.3550   50.4130 C   0  0  0  0  0  0  0  0  0  0  0  0
   58.4430   29.3420   50.6440 O   0  0  0  0  0  0  0  0  0  0  0  0
   59.0250   31.5350   51.2380 N   0  0  0  0  0  0  0  0  0  0  0  0
   60.0700   32.5740   51.2230 C   0  0  0  0  0  0  0  0  0  0  0  0
   59.9490   33.5100   52.4290 C   0  0  0  0  0  0  0  0  0  0  0  0
   58.5400   34.1080   52.5350 C   0  0  0  0  0  0  0  0  0  0  0  0
   57.4120   33.0880   52.2700 C   0  0  0  0  0  0  0  0  0  0  0  0
   57.9090   31.6390   52.1910 C   0  0  0  0  0  0  0  0  0  0  0  0
   60.0470   29.2800   47.0020 C   0  0  0  0  0  0  0  0  0  0  0  0
   60.7550   30.3900   46.2790 C   0  0  0  0  0  0  0  0  0  0  0  0
   59.5100   28.1250   46.4450 C   0  0  0  0  0  0  0  0  0  0  0  0
   59.5820   27.6590   45.0170 C   0  0  0  0  0  0  0  0  0  0  0  0
   58.2000   27.7220   44.3710 C   0  0  0  0  0  0  0  0  0  0  0  0
   57.2950   28.4820   45.2280 N   0  0  0  0  0  0  0  0  0  0  0  0
   56.6300   29.8170   44.3380 S   0  0  0  0  0  0  0  0  0  0  0  0
   55.1640   29.9480   44.6470 O   0  0  0  0  0  0  0  0  0  0  0  0
   56.7880   29.5590   42.8660 O   0  0  0  0  0  0  0  0  0  0  0  0
   57.4800   31.3010   44.7570 C   0  0  0  0  0  0  0  0  0  0  0  0
   57.7810   32.2530   43.7700 C   0  0  0  0  0  0  0  0  0  0  0  0
   58.4080   33.4520   44.1140 C   0  0  0  0  0  0  0  0  0  0  0  0
   58.7340   33.7190   45.4520 C   0  0  0  0  0  0  0  0  0  0  0  0
   59.3580   34.9250   45.8090 C   0  0  0  0  0  0  0  0  0  0  0  0
   59.6770   35.1790   47.1480 C   0  0  0  0  0  0  0  0  0  0  0  0
   59.3760   34.2360   48.1350 C   0  0  0  0  0  0  0  0  0  0  0  0
   58.7530   33.0330   47.7920 C   0  0  0  0  0  0  0  0  0  0  0  0
   58.4280   32.7640   46.4520 C   0  0  0  0  0  0  0  0  0  0  0  0
   57.8010   31.5610   46.0960 C   0  0  0  0  0  0  0  0  0  0  0  0
   58.1774   25.7160   48.5104 H   0  0  0  0  0  0  0  0  0  0  0  0
   57.3883   26.1471   46.9554 H   0  0  0  0  0  0  0  0  0  0  0  0
   59.0047   25.3635   46.9554 H   0  0  0  0  0  0  0  0  0  0  0  0
   58.9190   27.8520   49.6180 H   0  0  0  0  0  0  0  0  0  0  0  0
   61.1693   30.0457   49.7542 H   0  0  0  0  0  0  0  0  0  0  0  0
   60.2216   31.2520   48.7981 H   0  0  0  0  0  0  0  0  0  0  0  0
   61.0569   32.0886   51.2450 H   0  0  0  0  0  0  0  0  0  0  0  0
   59.9480   33.1726   50.3082 H   0  0  0  0  0  0  0  0  0  0  0  0
   60.1667   32.9424   53.3457 H   0  0  0  0  0  0  0  0  0  0  0  0
   60.6659   34.3343   52.3005 H   0  0  0  0  0  0  0  0  0  0  0  0
   58.4102   34.5138   53.5492 H   0  0  0  0  0  0  0  0  0  0  0  0
   58.4607   34.8840   51.7594 H   0  0  0  0  0  0  0  0  0  0  0  0
   56.6771   33.1609   53.0852 H   0  0  0  0  0  0  0  0  0  0  0  0
   56.9730   33.3351   51.2921 H   0  0  0  0  0  0  0  0  0  0  0  0
   58.2500   31.3172   53.1861 H   0  0  0  0  0  0  0  0  0  0  0  0
   57.0849   30.9954   51.8497 H   0  0  0  0  0  0  0  0  0  0  0  0
   61.1963   31.0818   47.0115 H   0  0  0  0  0  0  0  0  0  0  0  0
   61.5508   29.9675   45.6480 H   0  0  0  0  0  0  0  0  0  0  0  0
   60.0364   30.9335   45.6480 H   0  0  0  0  0  0  0  0  0  0  0  0
   60.2741   28.3061   44.4582 H   0  0  0  0  0  0  0  0  0  0  0  0
   59.9405   26.6192   44.9966 H   0  0  0  0  0  0  0  0  0  0  0  0
   58.2760   28.2145   43.3904 H   0  0  0  0  0  0  0  0  0  0  0  0
   57.8101   26.7018   44.2404 H   0  0  0  0  0  0  0  0  0  0  0  0
   57.5214   32.0531   42.7199 H   0  0  0  0  0  0  0  0  0  0  0  0
   58.6471   34.1895   43.3336 H   0  0  0  0  0  0  0  0  0  0  0  0
   59.5963   35.6705   45.0361 H   0  0  0  0  0  0  0  0  0  0  0  0
   60.1665   36.1244   47.4247 H   0  0  0  0  0  0  0  0  0  0  0  0
   59.6304   34.4415   49.1853 H   0  0  0  0  0  0  0  0  0  0  0  0
   58.5166   32.2952   48.5729 H   0  0  0  0  0  0  0  0  0  0  0  0
   57.5602   30.8185   46.8711 H   0  0  0  0  0  0  0  0  0  0  0  0
  1  2  1  0
  2  3  2  0
  3  4  1  0
  4  5  1  0
  5  6  1  0
  6  7  2  0
  6  8  1  0
  8  9  1  0
  9 10  1  0
 10 11  1  0
 11 12  1  0
 12 13  1  0
  4 14  1  0
 14 15  1  0
 14 16  2  0
 16 17  1  0
 17 18  1  0
 18 19  1  0
 19 20  1  0
 20 21  2  0
 20 22  2  0
 20 23  1  0
 23 24  2  0
 24 25  1  0
 25 26  2  0
 26 27  1  0
 27 28  2  0
 28 29  1  0
 29 30  2  0
 30 31  1  0
 31 32  2  0
 16  2  1  0
 32 23  1  0
 13  8  1  0
 31 26  1  0
  1 33  1  0
  1 34  1  0
  1 35  1  0
  3 36  1  0
  5 37  1  0
  5 38  1  0
  9 39  1  0
  9 40  1  0
 10 41  1  0
 10 42  1  0
 11 43  1  0
 11 44  1  0
 12 45  1  0
 12 46  1  0
 13 47  1  0
 13 48  1  0
 15 49  1  0
 15 50  1  0
 15 51  1  0
 17 52  1  0
 17 53  1  0
 18 54  1  0
 18 55  1  0
 24 56  1  0
 25 57  1  0
 27 58  1  0
 28 59  1  0
 29 60  1  0
 30 61  1  0
 32 62  1  0
M  CHG  2   3   1  19  -1
M  END
>  <UniqueID>  (86) 
78

>  <SMILES>  (86) 
Cc1[nH+]n(CC(=O)N2CCCCC2)c(C)c1CC[N-]S(=O)(=O)c1ccc2ccccc2c1

>  <Energy>  (86) 
91.31214490795035

>  <Genealogy>  (86) 
Cc1[nH+]n(CC(=O)N2CCCCC2)c(C)c1CC[N-]S(=O)(=O)c1ccc2ccccc2c1 (protonated)
Cc1[nH+]n(CC(=O)N2CCCCC2)c(C)c1CC[N-]S(=O)(=O)c1ccc2ccccc2c1 (3D coordinates assigned)
Cc1[nH+]n(CC(=O)N2CCCCC2)c(C)c1CC[N-]S(=O)(=O)c1ccc2ccccc2c1 (nonaromatic ring conformer: 91.31214490795035 kcal/mol)

>  <smiles>  (86) 
Cc1nn(CC(=O)N2CCCCC2)c(C)c1CCNS(=O)(=O)c1ccc2ccccc2c1

>  <score_type>  (86) 
oracle

>  <origin>  (86) 
adg

>  <m_score__min__energy>  (86) 
-9.9499999999999993

>  <m_primary>  (86) 
energy

$$$$
86:0
     RDKit          3D

 26 28  0  0  0  0  0  0  0  0999 V2000
   58.7720   27.9590   47.3680 O   0  0  0  0  0  0  0  0  0  0  0  0
   58.0330   27.5110   46.4490 C   0  0  0  0  0  0  0  0  0  0  0  0
   57.9530   28.2730   45.1570 C   0  0  0  0  0  0  0  0  0  0  0  0
   58.0390   29.7520   45.3850 C   0  0  0  0  0  0  0  0  0  0  0  0
   59.1420   30.3610   45.8980 N   0  0  0  0  0  0  0  0  0  0  0  0
   58.8000   31.6560   45.8700 C   0  0  0  0  0  0  0  0  0  0  0  0
   59.5580   32.7480   46.2850 C   0  0  0  0  0  0  0  0  0  0  0  0
   58.9880   34.0280   46.1520 C   0  0  0  0  0  0  0  0  0  0  0  0
   57.6900   34.1790   45.6100 C   0  0  0  0  0  0  0  0  0  0  0  0
   56.9550   33.0510   45.1980 C   0  0  0  0  0  0  0  0  0  0  0  0
   57.5510   31.8010   45.3490 C   0  0  0  0  0  0  0  0  0  0  0  0
   57.0440   30.6040   45.0210 N   0  0  0  0  0  0  0  0  0  0  0  0
   57.3550   26.2160   46.6630 C   0  0  0  0  0  0  0  0  0  0  0  0
   58.0060   25.1350   47.1320 N   0  0  0  0  0  0  0  0  0  0  0  0
   57.0650   24.1690   47.1410 C   0  0  0  0  0  0  0  0  0  0  0  0
   57.3030   22.9930   47.5190 O   0  0  0  0  0  0  0  0  0  0  0  0
   55.8490   24.5650   46.7160 N   0  0  0  0  0  0  0  0  0  0  0  0
   56.0340   25.8620   46.4250 C   0  0  0  0  0  0  0  0  0  0  0  0
   54.9960   26.6880   46.0020 O   0  0  0  0  0  0  0  0  0  0  0  0
   58.7844   27.9627   44.5070 H   0  0  0  0  0  0  0  0  0  0  0  0
   56.9839   28.0523   44.6857 H   0  0  0  0  0  0  0  0  0  0  0  0
   60.5671   32.6148   46.7022 H   0  0  0  0  0  0  0  0  0  0  0  0
   59.5545   34.9153   46.4710 H   0  0  0  0  0  0  0  0  0  0  0  0
   57.2525   35.1833   45.5099 H   0  0  0  0  0  0  0  0  0  0  0  0
   55.9460   33.1532   44.7720 H   0  0  0  0  0  0  0  0  0  0  0  0
   55.1450   27.4780   45.3940 H   0  0  0  0  0  0  0  0  0  0  0  0
  1  2  2  0
  2  3  1  0
  3  4  1  0
  4  5  2  0
  5  6  1  0
  6  7  2  0
  7  8  1  0
  8  9  2  0
  9 10  1  0
 10 11  2  0
 11 12  1  0
  2 13  1  0
 13 14  1  0
 14 15  1  0
 15 16  2  0
 15 17  1  0
 17 18  1  0
 18 19  1  0
 12  4  1  0
 18 13  2  0
 11  6  1  0
  3 20  1  0
  3 21  1  0
  7 22  1  0
  8 23  1  0
  9 24  1  0
 10 25  1  0
 19 26  1  0
M  CHG  3  12  -1  14  -1  17  -1
M  END
>  <UniqueID>  (87) 
79

>  <SMILES>  (87) 
O=C(Cc1nc2ccccc2[n-]1)c1[n-]c(=O)[n-]c1O

>  <Energy>  (87) 
94.61155840709799

>  <Genealogy>  (87) 
O=C(Cc1nc2ccccc2[n-]1)c1[n-]c(=O)[n-]c1O (protonated)
O=C(Cc1nc2ccccc2[n-]1)c1[n-]c(=O)[n-]c1O (3D coordinates assigned)
O=C(Cc1nc2ccccc2[n-]1)c1[n-]c(=O)[n-]c1O (optimized conformer: 94.61155840709799 kcal/mol)

>  <smiles>  (87) 
O=C(Cc1nc2ccccc2[nH]1)c1[nH]c(=O)[nH]c1O

>  <score_type>  (87) 
oracle

>  <origin>  (87) 
adg

>  <m_score__min__energy>  (87) 
-12.77

>  <m_primary>  (87) 
energy

$$$$
87:0
     RDKit          3D

 45 48  0  0  0  0  0  0  0  0999 V2000
   51.0300   32.6880   51.3070 N   0  0  0  0  0  0  0  0  0  0  0  0
   51.5490   31.4510   50.8230 C   0  0  0  0  0  0  0  0  0  0  0  0
   51.0520   30.9430   49.7820 O   0  0  0  0  0  0  0  0  0  0  0  0
   52.6590   30.7700   51.5320 C   0  0  0  0  0  0  0  0  0  0  0  0
   52.3910   29.7080   52.4140 C   0  0  0  0  0  0  0  0  0  0  0  0
   53.4350   29.0580   53.0740 C   0  0  0  0  0  0  0  0  0  0  0  0
   54.7560   29.4590   52.8680 C   0  0  0  0  0  0  0  0  0  0  0  0
   55.0500   30.5260   52.0030 C   0  0  0  0  0  0  0  0  0  0  0  0
   56.4630   30.9330   51.7920 C   0  0  0  0  0  0  0  0  0  0  0  0
   56.9300   32.2030   52.1760 C   0  0  0  0  0  0  0  0  0  0  0  0
   58.2690   32.5470   51.9640 C   0  0  0  0  0  0  0  0  0  0  0  0
   58.6750   33.6900   52.3110 O   0  0  0  0  0  0  0  0  0  0  0  0
   59.1450   31.6180   51.3740 C   0  0  0  0  0  0  0  0  0  0  0  0
   60.5010   31.9140   51.1400 C   0  0  0  0  0  0  0  0  0  0  0  0
   61.3510   30.9560   50.5590 C   0  0  0  0  0  0  0  0  0  0  0  0
   62.7360   31.2670   50.3070 N   0  0  0  0  0  0  0  0  0  0  0  0
   63.7720   30.8460   51.2590 C   0  0  0  0  0  0  0  0  0  0  0  0
   65.0710   31.6310   51.0270 C   0  0  0  0  0  0  0  0  0  0  0  0
   64.7660   33.0330   50.7030 N   0  0  0  0  0  0  0  0  0  0  0  0
   64.0400   33.1760   49.4210 C   0  0  0  0  0  0  0  0  0  0  0  0
   63.1420   31.9680   49.0840 C   0  0  0  0  0  0  0  0  0  0  0  0
   60.8300   29.7020   50.2020 C   0  0  0  0  0  0  0  0  0  0  0  0
   59.4850   29.4000   50.4310 C   0  0  0  0  0  0  0  0  0  0  0  0
   58.6420   30.3490   51.0150 C   0  0  0  0  0  0  0  0  0  0  0  0
   57.3350   30.0480   51.2340 N   0  0  0  0  0  0  0  0  0  0  0  0
   53.9930   31.1690   51.3290 C   0  0  0  0  0  0  0  0  0  0  0  0
   51.3900   33.6010   50.9470 H   0  0  0  0  0  0  0  0  0  0  0  0
   51.3526   29.3877   52.5847 H   0  0  0  0  0  0  0  0  0  0  0  0
   53.2158   28.2261   53.7595 H   0  0  0  0  0  0  0  0  0  0  0  0
   55.5727   28.9357   53.3868 H   0  0  0  0  0  0  0  0  0  0  0  0
   56.2431   32.9246   52.6424 H   0  0  0  0  0  0  0  0  0  0  0  0
   60.8990   32.9023   51.4137 H   0  0  0  0  0  0  0  0  0  0  0  0
   63.4171   31.0294   52.2839 H   0  0  0  0  0  0  0  0  0  0  0  0
   63.9742   29.7748   51.1120 H   0  0  0  0  0  0  0  0  0  0  0  0
   65.6856   31.5941   51.9385 H   0  0  0  0  0  0  0  0  0  0  0  0
   65.6183   31.1792   50.1866 H   0  0  0  0  0  0  0  0  0  0  0  0
   65.6630   33.5690   50.6480 H   0  0  0  0  0  0  0  0  0  0  0  0
   64.1930   33.4470   51.4760 H   0  0  0  0  0  0  0  0  0  0  0  0
   63.4081   34.0746   49.4772 H   0  0  0  0  0  0  0  0  0  0  0  0
   64.7975   33.2475   48.6266 H   0  0  0  0  0  0  0  0  0  0  0  0
   62.2444   32.3215   48.5555 H   0  0  0  0  0  0  0  0  0  0  0  0
   63.7093   31.2717   48.4488 H   0  0  0  0  0  0  0  0  0  0  0  0
   61.4862   28.9509   49.7381 H   0  0  0  0  0  0  0  0  0  0  0  0
   59.0889   28.4128   50.1508 H   0  0  0  0  0  0  0  0  0  0  0  0
   54.2134   31.9936   50.6351 H   0  0  0  0  0  0  0  0  0  0  0  0
  1  2  1  0
  2  3  2  0
  2  4  1  0
  4  5  2  0
  5  6  1  0
  6  7  2  0
  7  8  1  0
  8  9  1  0
  9 10  2  0
 10 11  1  0
 11 12  2  0
 11 13  1  0
 13 14  2  0
 14 15  1  0
 15 16  1  0
 16 17  1  0
 17 18  1  0
 18 19  1  0
 19 20  1  0
 20 21  1  0
 15 22  2  0
 22 23  1  0
 23 24  2  0
 24 25  1  0
  8 26  2  0
 26  4  1  0
 25  9  1  0
 24 13  1  0
 21 16  1  0
  1 27  1  0
  5 28  1  0
  6 29  1  0
  7 30  1  0
 10 31  1  0
 14 32  1  0
 17 33  1  0
 17 34  1  0
 18 35  1  0
 18 36  1  0
 19 37  1  0
 19 38  1  0
 20 39  1  0
 20 40  1  0
 21 41  1  0
 21 42  1  0
 22 43  1  0
 23 44  1  0
 26 45  1  0
M  CHG  3   1  -1  19   1  25  -1
M  END
>  <UniqueID>  (88) 
80

>  <SMILES>  (88) 
[NH-]C(=O)c1cccc(-c2cc(=O)c3cc(N4CC[NH2+]CC4)ccc3[n-]2)c1

>  <Energy>  (88) 
65.69518229140182

>  <Genealogy>  (88) 
[NH-]C(=O)c1cccc(-c2cc(=O)c3cc(N4CC[NH2+]CC4)ccc3[n-]2)c1 (protonated)
[NH-]C(=O)c1cccc(-c2cc(=O)c3cc(N4CC[NH2+]CC4)ccc3[n-]2)c1 (3D coordinates assigned)
[NH-]C(=O)c1cccc(-c2cc(=O)c3cc(N4CC[NH2+]CC4)ccc3[n-]2)c1 (nonaromatic ring conformer: 65.69518229140182 kcal/mol)

>  <smiles>  (88) 
NC(=O)c1cccc(-c2cc(=O)c3cc(N4CCNCC4)ccc3[nH]2)c1

>  <score_type>  (88) 
oracle

>  <origin>  (88) 
adg

>  <m_score__min__energy>  (88) 
-11.31

>  <m_primary>  (88) 
energy

$$$$
88:0
     RDKit          3D

 45 47  0  0  0  0  0  0  0  0999 V2000
   58.0633   29.6918   44.3715 H   0  0  0  0  0  0  0  0  0  0  0  0
   57.8130   28.6210   44.3440 C   0  0  0  0  0  0  0  0  0  0  0  0
   57.2094   28.2183   43.5173 H   0  0  0  0  0  0  0  0  0  0  0  0
   58.2440   27.8060   45.3190 C   0  0  0  0  0  0  0  0  0  0  0  0
   58.0060   26.4320   45.4170 C   0  0  0  0  0  0  0  0  0  0  0  0
   57.3570   25.6470   44.5330 C   0  0  0  0  0  0  0  0  0  0  0  0
   57.7156   25.6270   43.4933 H   0  0  0  0  0  0  0  0  0  0  0  0
   56.1880   24.8110   44.8870 C   0  0  0  0  0  0  0  0  0  0  0  0
   55.1260   25.3610   45.6210 C   0  0  0  0  0  0  0  0  0  0  0  0
   55.1420   26.7010   45.9920 O   0  0  0  0  0  0  0  0  0  0  0  0
   54.0660   24.5860   45.9670 N   0  0  0  0  0  0  0  0  0  0  0  0
   54.0170   23.2730   45.6270 C   0  0  0  0  0  0  0  0  0  0  0  0
   53.0220   22.5760   45.9540 O   0  0  0  0  0  0  0  0  0  0  0  0
   55.0440   22.7090   44.9410 N   0  0  0  0  0  0  0  0  0  0  0  0
   56.1280   23.4410   44.5730 C   0  0  0  0  0  0  0  0  0  0  0  0
   57.0770   22.8740   43.9680 O   0  0  0  0  0  0  0  0  0  0  0  0
   58.6020   26.0140   46.5990 C   0  0  0  0  0  0  0  0  0  0  0  0
   58.6160   24.9906   47.0021 H   0  0  0  0  0  0  0  0  0  0  0  0
   59.1740   27.1340   47.1700 C   0  0  0  0  0  0  0  0  0  0  0  0
   59.9310   27.1370   48.4630 C   0  0  0  0  0  0  0  0  0  0  0  0
   59.2213   27.1342   49.3034 H   0  0  0  0  0  0  0  0  0  0  0  0
   60.5673   26.2414   48.5174 H   0  0  0  0  0  0  0  0  0  0  0  0
   60.5602   28.0376   48.5174 H   0  0  0  0  0  0  0  0  0  0  0  0
   58.9540   28.2220   46.3980 N   0  0  0  0  0  0  0  0  0  0  0  0
   59.4020   29.5590   46.6860 C   0  0  0  0  0  0  0  0  0  0  0  0
   60.7330   29.9300   46.4770 C   0  0  0  0  0  0  0  0  0  0  0  0
   61.4568   29.1942   46.0966 H   0  0  0  0  0  0  0  0  0  0  0  0
   61.1310   31.1990   46.7440 N   0  0  0  0  0  0  0  0  0  0  0  0
   60.2570   32.1370   47.2020 C   0  0  0  0  0  0  0  0  0  0  0  0
   60.7080   33.4750   47.5010 N   0  0  0  0  0  0  0  0  0  0  0  0
   61.7480   33.7160   48.4700 C   0  0  0  0  0  0  0  0  0  0  0  0
   61.4430   34.1220   49.6240 O   0  0  0  0  0  0  0  0  0  0  0  0
   63.2010   33.5750   48.1120 C   0  0  0  0  0  0  0  0  0  0  0  0
   63.5382   34.4867   47.5971 H   0  0  0  0  0  0  0  0  0  0  0  0
   63.7839   33.4253   49.0327 H   0  0  0  0  0  0  0  0  0  0  0  0
   63.3960   32.4260   47.2340 N   0  0  0  0  0  0  0  0  0  0  0  0
   63.0450   31.5720   47.7260 H   0  0  0  0  0  0  0  0  0  0  0  0
   62.7820   32.5570   46.3980 H   0  0  0  0  0  0  0  0  0  0  0  0
   59.9700   34.6190   46.9580 C   0  0  0  0  0  0  0  0  0  0  0  0
   59.5771   35.2281   47.7855 H   0  0  0  0  0  0  0  0  0  0  0  0
   60.6442   35.2306   46.3405 H   0  0  0  0  0  0  0  0  0  0  0  0
   59.1348   34.2569   46.3405 H   0  0  0  0  0  0  0  0  0  0  0  0
   58.9580   31.7870   47.4180 N   0  0  0  0  0  0  0  0  0  0  0  0
   58.5170   30.5260   47.1680 C   0  0  0  0  0  0  0  0  0  0  0  0
   57.4628   30.2669   47.3453 H   0  0  0  0  0  0  0  0  0  0  0  0
  1  2  1  0
  2  3  1  0
  2  4  2  0
  4  5  1  0
  5  6  2  0
  6  7  1  0
  6  8  1  0
  8  9  2  0
  9 10  1  0
  9 11  1  0
 11 12  1  0
 12 13  2  0
 12 14  1  0
 14 15  1  0
 15 16  2  0
  5 17  1  0
 17 18  1  0
 17 19  2  0
 19 20  1  0
 20 21  1  0
 20 22  1  0
 20 23  1  0
 19 24  1  0
 24 25  1  0
 25 26  2  0
 26 27  1  0
 26 28  1  0
 28 29  2  0
 29 30  1  0
 30 31  1  0
 31 32  2  0
 31 33  1  0
 33 34  1  0
 33 35  1  0
 33 36  1  0
 36 37  1  0
 36 38  1  0
 30 39  1  0
 39 40  1  0
 39 41  1  0
 39 42  1  0
 29 43  1  0
 43 44  2  0
 44 45  1  0
 24  4  1  0
 44 25  1  0
 15  8  1  0
M  CHG  3  10  -1  11  -1  14  -1
M  END
>  <UniqueID>  (89) 
81

>  <SMILES>  (89) 
C=c1/c(=C/c2c([O-])[n-]c(=O)[n-]c2=O)cc(C)n1-c1cnc(N(C)C(=O)CN)nc1

>  <Energy>  (89) 
95.58620738580208

>  <Genealogy>  (89) 
C=c1c(=Cc2c([O-])[n-]c(=O)[n-]c2=O)cc(C)n1-c1cnc(N(C)C(=O)CN)nc1 (protonated)
C=c1/c(=C/c2c([O-])[n-]c(=O)[n-]c2=O)cc(C)n1-c1cnc(N(C)C(=O)CN)nc1 (cis-trans isomerization)
C=c1/c(=C/c2c([O-])[n-]c(=O)[n-]c2=O)cc(C)n1-c1cnc(N(C)C(=O)CN)nc1 (3D coordinates assigned)
C=c1/c(=C/c2c([O-])[n-]c(=O)[n-]c2=O)cc(C)n1-c1cnc(N(C)C(=O)CN)nc1 (optimized conformer: 95.58620738580208 kcal/mol)

>  <smiles>  (89) 
C=c1c(=Cc2c(O)[nH]c(=O)[nH]c2=O)cc(C)n1-c1cnc(N(C)C(=O)CN)nc1

>  <score_type>  (89) 
oracle

>  <origin>  (89) 
adg

>  <m_score__min__energy>  (89) 
-14.710000000000001

>  <m_primary>  (89) 
energy

$$$$
