0:0
     RDKit          3D

 47 49  0  0  0  0  0  0  0  0999 V2000
   55.1300   29.3480   44.8580 N   0  0  0  0  0  0  0  0  0  0  0  0
   56.6900   29.4330   44.1200 S   0  0  0  0  0  0  0  0  0  0  0  0
   57.5570   28.3280   44.6580 O   0  0  0  0  0  0  0  0  0  0  0  0
   56.5530   29.2580   42.6340 O   0  0  0  0  0  0  0  0  0  0  0  0
   57.4230   30.9950   44.4710 C   0  0  0  0  0  0  0  0  0  0  0  0
   57.5950   31.9390   43.4500 C   0  0  0  0  0  0  0  0  0  0  0  0
   58.1900   33.1710   43.7280 C   0  0  0  0  0  0  0  0  0  0  0  0
   58.6220   33.4670   45.0240 C   0  0  0  0  0  0  0  0  0  0  0  0
   58.4620   32.5270   46.0600 C   0  0  0  0  0  0  0  0  0  0  0  0
   58.9230   32.8380   47.4370 C   0  0  0  0  0  0  0  0  0  0  0  0
   59.4820   34.0930   47.7390 C   0  0  0  0  0  0  0  0  0  0  0  0
   59.9190   34.3830   49.0340 C   0  0  0  0  0  0  0  0  0  0  0  0
   59.8050   33.4260   50.0530 C   0  0  0  0  0  0  0  0  0  0  0  0
   60.2900   33.7390   51.4490 C   0  0  0  0  0  0  0  0  0  0  0  0
   60.8100   32.5460   52.1380 N   0  0  0  0  0  0  0  0  0  0  0  0
   62.2600   32.3650   51.9600 C   0  0  0  0  0  0  0  0  0  0  0  0
   62.5630   31.3330   50.8650 C   0  0  0  0  0  0  0  0  0  0  0  0
   62.7330   31.9900   49.5180 C   0  0  0  0  0  0  0  0  0  0  0  0
   63.4700   33.1830   49.4100 C   0  0  0  0  0  0  0  0  0  0  0  0
   63.6610   33.7860   48.1630 C   0  0  0  0  0  0  0  0  0  0  0  0
   63.1250   33.2010   47.0140 C   0  0  0  0  0  0  0  0  0  0  0  0
   62.4010   32.0100   47.1080 C   0  0  0  0  0  0  0  0  0  0  0  0
   62.2060   31.4020   48.3530 C   0  0  0  0  0  0  0  0  0  0  0  0
   61.5060   30.2400   48.4190 F   0  0  0  0  0  0  0  0  0  0  0  0
   59.2470   32.1730   49.7570 C   0  0  0  0  0  0  0  0  0  0  0  0
   58.8110   31.8810   48.4610 C   0  0  0  0  0  0  0  0  0  0  0  0
   57.8610   31.2880   45.7690 C   0  0  0  0  0  0  0  0  0  0  0  0
   55.1980   28.6550   45.6360 H   0  0  0  0  0  0  0  0  0  0  0  0
   57.2606   31.7090   42.4276 H   0  0  0  0  0  0  0  0  0  0  0  0
   58.3192   33.9111   42.9246 H   0  0  0  0  0  0  0  0  0  0  0  0
   59.0896   34.4399   45.2357 H   0  0  0  0  0  0  0  0  0  0  0  0
   59.5759   34.8525   46.9489 H   0  0  0  0  0  0  0  0  0  0  0  0
   60.3552   35.3681   49.2558 H   0  0  0  0  0  0  0  0  0  0  0  0
   61.0921   34.4891   51.3854 H   0  0  0  0  0  0  0  0  0  0  0  0
   59.4337   34.1164   52.0272 H   0  0  0  0  0  0  0  0  0  0  0  0
   60.6010   32.6190   53.1620 H   0  0  0  0  0  0  0  0  0  0  0  0
   62.7095   33.3287   51.6784 H   0  0  0  0  0  0  0  0  0  0  0  0
   62.6832   32.0002   52.9075 H   0  0  0  0  0  0  0  0  0  0  0  0
   63.4904   30.8004   51.1225 H   0  0  0  0  0  0  0  0  0  0  0  0
   61.7148   30.6353   50.8041 H   0  0  0  0  0  0  0  0  0  0  0  0
   63.8987   33.6444   50.3119 H   0  0  0  0  0  0  0  0  0  0  0  0
   64.2339   34.7219   48.0871 H   0  0  0  0  0  0  0  0  0  0  0  0
   63.2730   33.6783   46.0341 H   0  0  0  0  0  0  0  0  0  0  0  0
   61.9831   31.5490   46.2009 H   0  0  0  0  0  0  0  0  0  0  0  0
   59.1520   31.4159   50.5493 H   0  0  0  0  0  0  0  0  0  0  0  0
   58.3769   30.8946   48.2407 H   0  0  0  0  0  0  0  0  0  0  0  0
   57.7340   30.5429   46.5682 H   0  0  0  0  0  0  0  0  0  0  0  0
  1  2  1  0
  2  3  2  0
  2  4  2  0
  2  5  1  0
  5  6  2  0
  6  7  1  0
  7  8  2  0
  8  9  1  0
  9 10  1  0
 10 11  2  0
 11 12  1  0
 12 13  2  0
 13 14  1  0
 14 15  1  0
 15 16  1  0
 16 17  1  0
 17 18  1  0
 18 19  2  0
 19 20  1  0
 20 21  2  0
 21 22  1  0
 22 23  2  0
 23 24  1  0
 13 25  1  0
 25 26  2  0
  9 27  2  0
 27  5  1  0
 26 10  1  0
 23 18  1  0
  1 28  1  0
  6 29  1  0
  7 30  1  0
  8 31  1  0
 11 32  1  0
 12 33  1  0
 14 34  1  0
 14 35  1  0
 15 36  1  0
 16 37  1  0
 16 38  1  0
 17 39  1  0
 17 40  1  0
 19 41  1  0
 20 42  1  0
 21 43  1  0
 22 44  1  0
 25 45  1  0
 26 46  1  0
 27 47  1  0
M  CHG  1   1  -1
M  END
>  <UniqueID>  (1) 
1

>  <SMILES>  (1) 
[NH-]S(=O)(=O)c1cccc(-c2ccc(CNCCc3ccccc3F)cc2)c1

>  <Energy>  (1) 
53.18528831749775

>  <Genealogy>  (1) 
[NH-]S(=O)(=O)c1cccc(-c2ccc(CNCCc3ccccc3F)cc2)c1 (protonated)
[NH-]S(=O)(=O)c1cccc(-c2ccc(CNCCc3ccccc3F)cc2)c1 (3D coordinates assigned)
[NH-]S(=O)(=O)c1cccc(-c2ccc(CNCCc3ccccc3F)cc2)c1 (optimized conformer: 53.18528831749775 kcal/mol)

>  <smiles>  (1) 
NS(=O)(=O)c1cccc(-c2ccc(CNCCc3ccccc3F)cc2)c1

>  <score_type>  (1) 
oracle

>  <origin>  (1) 
adg

>  <m_score__min__energy>  (1) 
-12.44

>  <m_primary>  (1) 
energy

$$$$
1:0
     RDKit          3D

 33 35  0  0  0  0  0  0  0  0999 V2000
   60.4600   30.1190   46.0240 C   0  0  0  0  0  0  0  0  0  0  0  0
   59.2620   29.6570   45.6070 C   0  0  0  0  0  0  0  0  0  0  0  0
   59.0990   28.2750   45.3470 C   0  0  0  0  0  0  0  0  0  0  0  0
   60.0640   27.4730   45.5010 O   0  0  0  0  0  0  0  0  0  0  0  0
   57.8450   27.8020   44.9180 C   0  0  0  0  0  0  0  0  0  0  0  0
   57.6410   26.4980   44.6400 C   0  0  0  0  0  0  0  0  0  0  0  0
   57.2120   25.5030   45.6520 C   0  0  0  0  0  0  0  0  0  0  0  0
   55.9640   25.6390   46.2800 C   0  0  0  0  0  0  0  0  0  0  0  0
   55.1350   26.7160   45.9860 O   0  0  0  0  0  0  0  0  0  0  0  0
   55.5590   24.7200   47.1930 N   0  0  0  0  0  0  0  0  0  0  0  0
   56.3370   23.6530   47.5070 C   0  0  0  0  0  0  0  0  0  0  0  0
   55.8240   22.5660   48.6110 S   0  0  0  0  0  0  0  0  0  0  0  0
   57.5350   23.4820   46.8930 N   0  0  0  0  0  0  0  0  0  0  0  0
   57.9860   24.3710   45.9710 C   0  0  0  0  0  0  0  0  0  0  0  0
   59.0850   24.1560   45.3960 O   0  0  0  0  0  0  0  0  0  0  0  0
   56.8320   28.6910   44.7570 N   0  0  0  0  0  0  0  0  0  0  0  0
   56.9830   30.0140   45.0040 C   0  0  0  0  0  0  0  0  0  0  0  0
   55.9950   30.7800   44.8360 O   0  0  0  0  0  0  0  0  0  0  0  0
   58.1880   30.5080   45.4260 N   0  0  0  0  0  0  0  0  0  0  0  0
   58.2940   31.9250   45.6740 C   0  0  0  0  0  0  0  0  0  0  0  0
   58.4190   32.3920   46.9920 C   0  0  0  0  0  0  0  0  0  0  0  0
   58.5220   33.7620   47.2470 C   0  0  0  0  0  0  0  0  0  0  0  0
   58.5010   34.6740   46.1880 C   0  0  0  0  0  0  0  0  0  0  0  0
   58.3750   34.2170   44.8720 C   0  0  0  0  0  0  0  0  0  0  0  0
   58.2710   32.8470   44.6100 C   0  0  0  0  0  0  0  0  0  0  0  0
   58.1010   32.2560   42.7960 Br  0  0  0  0  0  0  0  0  0  0  0  0
   60.5951   31.1914   46.2282 H   0  0  0  0  0  0  0  0  0  0  0  0
   61.3010   29.4230   46.1595 H   0  0  0  0  0  0  0  0  0  0  0  0
   57.8015   26.1545   43.6074 H   0  0  0  0  0  0  0  0  0  0  0  0
   58.4359   31.6765   47.8274 H   0  0  0  0  0  0  0  0  0  0  0  0
   58.6196   34.1229   48.2815 H   0  0  0  0  0  0  0  0  0  0  0  0
   58.5836   35.7522   46.3897 H   0  0  0  0  0  0  0  0  0  0  0  0
   58.3577   34.9372   44.0407 H   0  0  0  0  0  0  0  0  0  0  0  0
  1  2  2  0
  2  3  1  0
  3  4  2  0
  3  5  1  0
  5  6  2  3
  6  7  1  0
  7  8  2  0
  8  9  1  0
  8 10  1  0
 10 11  1  0
 11 12  2  0
 11 13  1  0
 13 14  1  0
 14 15  2  0
  5 16  1  0
 16 17  1  0
 17 18  2  0
 17 19  1  0
 19 20  1  0
 20 21  2  0
 21 22  1  0
 22 23  2  0
 23 24  1  0
 24 25  2  0
 25 26  1  0
 19  2  1  0
 25 20  1  0
 14  7  1  0
  1 27  1  0
  1 28  1  0
  6 29  1  0
 21 30  1  0
 22 31  1  0
 23 32  1  0
 24 33  1  0
M  CHG  4   9  -1  10  -1  13  -1  16  -1
M  END
>  <UniqueID>  (2) 
2

>  <SMILES>  (2) 
C=c1c(=O)c(=Cc2c([O-])[n-]c(=S)[n-]c2=O)[n-]c(=O)n1-c1ccccc1Br

>  <Energy>  (2) 
63.1293252849561

>  <Genealogy>  (2) 
C=c1c(=O)c(=Cc2c([O-])[n-]c(=S)[n-]c2=O)[n-]c(=O)n1-c1ccccc1Br (protonated)
C=c1c(=O)c(=Cc2c([O-])[n-]c(=S)[n-]c2=O)[n-]c(=O)n1-c1ccccc1Br (3D coordinates assigned)
C=c1c(=O)c(=Cc2c([O-])[n-]c(=S)[n-]c2=O)[n-]c(=O)n1-c1ccccc1Br (optimized conformer: 63.1293252849561 kcal/mol)

>  <smiles>  (2) 
C=c1c(=O)c(=Cc2c(O)[nH]c(=S)[nH]c2=O)[nH]c(=O)n1-c1ccccc1Br

>  <score_type>  (2) 
oracle

>  <origin>  (2) 
adg

>  <m_score__min__energy>  (2) 
-17.629999999999999

>  <m_primary>  (2) 
energy

$$$$
2:0
     RDKit          3D

 38 39  0  0  0  0  0  0  0  0999 V2000
   63.0420   33.8280   46.5210 C   0  0  0  0  0  0  0  0  0  0  0  0
   62.8200   32.5600   47.1240 O   0  0  0  0  0  0  0  0  0  0  0  0
   61.5400   32.0470   47.3510 C   0  0  0  0  0  0  0  0  0  0  0  0
   61.3140   30.8110   47.2450 O   0  0  0  0  0  0  0  0  0  0  0  0
   60.4200   32.9810   47.6750 C   0  0  0  0  0  0  0  0  0  0  0  0
   59.4520   33.0480   46.5230 C   0  0  0  0  0  0  0  0  0  0  0  0
   58.9430   31.8590   45.9720 C   0  0  0  0  0  0  0  0  0  0  0  0
   58.0590   31.8990   44.8770 C   0  0  0  0  0  0  0  0  0  0  0  0
   57.5310   30.7350   44.2980 O   0  0  0  0  0  0  0  0  0  0  0  0
   56.9530   29.6710   45.0010 C   0  0  0  0  0  0  0  0  0  0  0  0
   55.7000   29.5350   45.0440 O   0  0  0  0  0  0  0  0  0  0  0  0
   57.8470   28.7110   45.6780 C   0  0  0  0  0  0  0  0  0  0  0  0
   57.4570   27.6800   46.4440 C   0  0  0  0  0  0  0  0  0  0  0  0
   57.1710   26.3190   45.9510 C   0  0  0  0  0  0  0  0  0  0  0  0
   58.2410   25.4770   45.6130 C   0  0  0  0  0  0  0  0  0  0  0  0
   58.0000   24.1930   45.1150 C   0  0  0  0  0  0  0  0  0  0  0  0
   56.6880   23.7480   44.9330 C   0  0  0  0  0  0  0  0  0  0  0  0
   55.6150   24.5910   45.2370 C   0  0  0  0  0  0  0  0  0  0  0  0
   55.8490   25.8780   45.7330 C   0  0  0  0  0  0  0  0  0  0  0  0
   54.7690   26.7140   45.9970 O   0  0  0  0  0  0  0  0  0  0  0  0
   57.7230   33.1340   44.3130 C   0  0  0  0  0  0  0  0  0  0  0  0
   58.2360   34.3190   44.8460 C   0  0  0  0  0  0  0  0  0  0  0  0
   59.0990   34.2820   45.9440 C   0  0  0  0  0  0  0  0  0  0  0  0
   59.6060   35.4750   46.4500 O   0  0  0  0  0  0  0  0  0  0  0  0
   63.1751   34.5884   47.3046 H   0  0  0  0  0  0  0  0  0  0  0  0
   63.9460   33.7835   45.8959 H   0  0  0  0  0  0  0  0  0  0  0  0
   62.1766   34.0933   45.8959 H   0  0  0  0  0  0  0  0  0  0  0  0
   59.8941   32.6212   48.5716 H   0  0  0  0  0  0  0  0  0  0  0  0
   60.8303   33.9848   47.8592 H   0  0  0  0  0  0  0  0  0  0  0  0
   59.2378   30.8895   46.3999 H   0  0  0  0  0  0  0  0  0  0  0  0
   58.9293   28.8532   45.5427 H   0  0  0  0  0  0  0  0  0  0  0  0
   57.3417   27.8639   47.5224 H   0  0  0  0  0  0  0  0  0  0  0  0
   59.2753   25.8290   45.7405 H   0  0  0  0  0  0  0  0  0  0  0  0
   58.8438   23.5326   44.8663 H   0  0  0  0  0  0  0  0  0  0  0  0
   56.4994   22.7341   44.5504 H   0  0  0  0  0  0  0  0  0  0  0  0
   54.5832   24.2411   45.0857 H   0  0  0  0  0  0  0  0  0  0  0  0
   57.0501   33.1725   43.4437 H   0  0  0  0  0  0  0  0  0  0  0  0
   57.9593   35.2854   44.3993 H   0  0  0  0  0  0  0  0  0  0  0  0
  1  2  1  0
  2  3  1  0
  3  4  2  0
  3  5  1  0
  5  6  1  0
  6  7  2  0
  7  8  1  0
  8  9  1  0
  9 10  1  0
 10 11  2  0
 10 12  1  0
 12 13  2  3
 13 14  1  0
 14 15  2  0
 15 16  1  0
 16 17  2  0
 17 18  1  0
 18 19  2  0
 19 20  1  0
  8 21  2  0
 21 22  1  0
 22 23  2  0
 23 24  1  0
 23  6  1  0
 19 14  1  0
  1 25  1  0
  1 26  1  0
  1 27  1  0
  5 28  1  0
  5 29  1  0
  7 30  1  0
 12 31  1  0
 13 32  1  0
 15 33  1  0
 16 34  1  0
 17 35  1  0
 18 36  1  0
 21 37  1  0
 22 38  1  0
M  CHG  2  20  -1  24  -1
M  END
>  <UniqueID>  (3) 
3

>  <SMILES>  (3) 
COC(=O)Cc1cc(OC(=O)C=Cc2ccccc2[O-])ccc1[O-]

>  <Energy>  (3) 
48.189058042717896

>  <Genealogy>  (3) 
COC(=O)Cc1cc(OC(=O)C=Cc2ccccc2[O-])ccc1[O-] (protonated)
COC(=O)Cc1cc(OC(=O)C=Cc2ccccc2[O-])ccc1[O-] (3D coordinates assigned)
COC(=O)Cc1cc(OC(=O)C=Cc2ccccc2[O-])ccc1[O-] (optimized conformer: 48.189058042717896 kcal/mol)

>  <smiles>  (3) 
COC(=O)Cc1cc(OC(=O)C=Cc2ccccc2O)ccc1O

>  <score_type>  (3) 
oracle

>  <origin>  (3) 
adg

>  <m_score__min__energy>  (3) 
-12.26

>  <m_primary>  (3) 
energy

$$$$
3:0
     RDKit          3D

 55 58  0  0  0  0  0  0  0  0999 V2000
   50.6920   21.8180   45.2370 C   0  0  0  0  0  0  0  0  0  0  0  0
   52.1340   22.0120   45.2550 N   0  0  0  0  0  0  0  0  0  0  0  0
   52.7400   23.3080   45.2390 C   0  0  0  0  0  0  0  0  0  0  0  0
   52.0260   24.3390   45.0950 O   0  0  0  0  0  0  0  0  0  0  0  0
   54.2380   23.4310   45.2910 C   0  0  0  0  0  0  0  0  0  0  0  0
   54.8250   23.3630   46.6970 C   0  0  0  0  0  0  0  0  0  0  0  0
   55.3680   24.7270   46.6190 N   0  0  0  0  0  0  0  0  0  0  0  0
   56.8520   24.8190   46.6540 C   0  0  0  0  0  0  0  0  0  0  0  0
   57.4740   26.1290   46.1860 C   0  0  0  0  0  0  0  0  0  0  0  0
   58.8610   26.2250   45.9730 C   0  0  0  0  0  0  0  0  0  0  0  0
   59.4270   27.4200   45.5220 C   0  0  0  0  0  0  0  0  0  0  0  0
   58.6160   28.5200   45.2430 C   0  0  0  0  0  0  0  0  0  0  0  0
   57.2210   28.4200   45.3820 C   0  0  0  0  0  0  0  0  0  0  0  0
   56.3540   29.5280   45.0940 N   0  0  0  0  0  0  0  0  0  0  0  0
   56.7310   30.7560   44.4570 C   0  0  0  0  0  0  0  0  0  0  0  0
   56.3320   30.9710   43.2820 O   0  0  0  0  0  0  0  0  0  0  0  0
   57.6180   31.7470   45.1150 C   0  0  0  0  0  0  0  0  0  0  0  0
   57.9150   32.9610   44.4740 C   0  0  0  0  0  0  0  0  0  0  0  0
   58.7530   33.8990   45.0830 C   0  0  0  0  0  0  0  0  0  0  0  0
   59.3160   33.6350   46.3450 C   0  0  0  0  0  0  0  0  0  0  0  0
   60.1610   34.5430   47.0010 O   0  0  0  0  0  0  0  0  0  0  0  0
   61.4370   34.2200   47.5520 C   0  0  2  0  0  0  0  0  0  0  0  0
   62.3940   33.8360   46.4440 C   0  0  0  0  0  0  0  0  0  0  0  0
   63.3000   32.8560   47.1210 C   0  0  0  0  0  0  0  0  0  0  0  0
   62.4270   32.2840   48.2230 C   0  0  0  0  0  0  0  0  0  0  0  0
   61.3210   33.1320   48.4410 O   0  0  0  0  0  0  0  0  0  0  0  0
   59.0320   32.4180   46.9760 C   0  0  0  0  0  0  0  0  0  0  0  0
   58.1960   31.4780   46.3670 C   0  0  0  0  0  0  0  0  0  0  0  0
   56.6600   27.2280   45.8550 C   0  0  0  0  0  0  0  0  0  0  0  0
   54.7670   24.8620   45.2850 C   0  0  0  0  0  0  0  0  0  0  0  0
   50.3159   21.7674   46.2695 H   0  0  0  0  0  0  0  0  0  0  0  0
   50.2152   22.6601   44.7140 H   0  0  0  0  0  0  0  0  0  0  0  0
   50.4547   20.8798   44.7140 H   0  0  0  0  0  0  0  0  0  0  0  0
   54.4748   22.7042   44.5000 H   0  0  0  0  0  0  0  0  0  0  0  0
   54.0651   23.2391   47.4826 H   0  0  0  0  0  0  0  0  0  0  0  0
   55.5049   22.5355   46.9480 H   0  0  0  0  0  0  0  0  0  0  0  0
   57.1706   24.6529   47.6937 H   0  0  0  0  0  0  0  0  0  0  0  0
   57.2026   24.0631   45.9359 H   0  0  0  0  0  0  0  0  0  0  0  0
   59.5044   25.3532   46.1628 H   0  0  0  0  0  0  0  0  0  0  0  0
   60.5161   27.4937   45.3864 H   0  0  0  0  0  0  0  0  0  0  0  0
   59.0688   29.4669   44.9138 H   0  0  0  0  0  0  0  0  0  0  0  0
   57.4845   33.1751   43.4846 H   0  0  0  0  0  0  0  0  0  0  0  0
   58.9735   34.8484   44.5731 H   0  0  0  0  0  0  0  0  0  0  0  0
   61.8167   35.1013   48.0897 H   0  0  0  0  0  0  0  0  0  0  0  0
   61.8609   33.3686   45.6029 H   0  0  0  0  0  0  0  0  0  0  0  0
   62.9256   34.6945   46.0077 H   0  0  0  0  0  0  0  0  0  0  0  0
   63.6218   32.0687   46.4234 H   0  0  0  0  0  0  0  0  0  0  0  0
   64.2271   33.3130   47.4973 H   0  0  0  0  0  0  0  0  0  0  0  0
   62.0703   31.2866   47.9265 H   0  0  0  0  0  0  0  0  0  0  0  0
   63.0144   32.2055   49.1497 H   0  0  0  0  0  0  0  0  0  0  0  0
   59.4711   32.1995   47.9606 H   0  0  0  0  0  0  0  0  0  0  0  0
   57.9894   30.5222   46.8708 H   0  0  0  0  0  0  0  0  0  0  0  0
   55.5688   27.1494   45.9694 H   0  0  0  0  0  0  0  0  0  0  0  0
   53.9727   25.6216   45.2381 H   0  0  0  0  0  0  0  0  0  0  0  0
   55.4021   25.1886   44.4483 H   0  0  0  0  0  0  0  0  0  0  0  0
  1  2  1  0
  2  3  1  0
  3  4  2  0
  3  5  1  0
  5  6  1  0
  6  7  1  0
  7  8  1  0
  8  9  1  0
  9 10  2  0
 10 11  1  0
 11 12  2  0
 12 13  1  0
 13 14  1  0
 14 15  1  0
 15 16  2  0
 15 17  1  0
 17 18  2  0
 18 19  1  0
 19 20  2  0
 20 21  1  0
 21 22  1  0
 22 23  1  0
 23 24  1  0
 24 25  1  0
 25 26  1  0
 20 27  1  0
 27 28  2  0
 13 29  2  0
  7 30  1  0
 30  5  1  0
 29  9  1  0
 28 17  1  0
 26 22  1  0
  1 31  1  0
  1 32  1  0
  1 33  1  0
  5 34  1  0
  6 35  1  0
  6 36  1  0
  8 37  1  0
  8 38  1  0
 10 39  1  0
 11 40  1  0
 12 41  1  0
 18 42  1  0
 19 43  1  0
 22 44  1  1
 23 45  1  0
 23 46  1  0
 24 47  1  0
 24 48  1  0
 25 49  1  0
 25 50  1  0
 27 51  1  0
 28 52  1  0
 29 53  1  0
 30 54  1  0
 30 55  1  0
M  CHG  2   2  -1  14  -1
M  END
>  <UniqueID>  (4) 
4

>  <SMILES>  (4) 
C[N-]C(=O)C1CN(Cc2cccc([N-]C(=O)c3ccc(O[C@@H]4CCCO4)cc3)c2)C1

>  <Energy>  (4) 
138.65162040351737

>  <Genealogy>  (4) 
C[N-]C(=O)C1CN(Cc2cccc([N-]C(=O)c3ccc(OC4CCCO4)cc3)c2)C1 (protonated)
C[N-]C(=O)C1CN(Cc2cccc([N-]C(=O)c3ccc(O[C@@H]4CCCO4)cc3)c2)C1 (chirality)
C[N-]C(=O)C1CN(Cc2cccc([N-]C(=O)c3ccc(O[C@@H]4CCCO4)cc3)c2)C1 (3D coordinates assigned)
C[N-]C(=O)C1CN(Cc2cccc([N-]C(=O)c3ccc(O[C@@H]4CCCO4)cc3)c2)C1 (nonaromatic ring conformer: 138.65162040351737 kcal/mol)

>  <smiles>  (4) 
CNC(=O)C1CN(Cc2cccc(NC(=O)c3ccc(OC4CCCO4)cc3)c2)C1

>  <score_type>  (4) 
oracle

>  <origin>  (4) 
adg

>  <m_score__min__energy>  (4) 
-11.9

>  <m_primary>  (4) 
energy

$$$$
4:0
     RDKit          3D

 54 57  0  0  0  0  0  0  0  0999 V2000
   54.5230   27.0930   46.7410 H   0  0  0  0  0  0  0  0  0  0  0  0
   55.1370   26.6740   46.0060 N   0  0  0  0  0  0  0  0  0  0  0  0
   56.5550   26.8360   46.0390 C   0  0  0  0  0  0  0  0  0  0  0  0
   57.2910   25.8300   46.2310 O   0  0  0  0  0  0  0  0  0  0  0  0
   57.1660   28.1550   45.7500 C   0  0  0  0  0  0  0  0  0  0  0  0
   56.4520   29.0040   44.8870 C   0  0  0  0  0  0  0  0  0  0  0  0
   55.6131   28.6024   44.2997 H   0  0  0  0  0  0  0  0  0  0  0  0
   56.7860   30.3110   44.7710 N   0  0  0  0  0  0  0  0  0  0  0  0
   57.7930   30.8630   45.4900 C   0  0  0  0  0  0  0  0  0  0  0  0
   58.0710   32.2230   45.3380 C   0  0  0  0  0  0  0  0  0  0  0  0
   57.4837   32.8216   44.6261 H   0  0  0  0  0  0  0  0  0  0  0  0
   59.0940   32.8370   46.0850 C   0  0  0  0  0  0  0  0  0  0  0  0
   59.3690   34.2070   45.9500 O   0  0  0  0  0  0  0  0  0  0  0  0
   58.9400   35.0170   44.8620 C   0  0  0  0  0  0  0  0  0  0  0  0
   58.4582   35.9267   45.2498 H   0  0  0  0  0  0  0  0  0  0  0  0
   59.8087   35.2957   44.2475 H   0  0  0  0  0  0  0  0  0  0  0  0
   58.2213   34.4549   44.2475 H   0  0  0  0  0  0  0  0  0  0  0  0
   59.8550   32.0590   46.9860 C   0  0  0  0  0  0  0  0  0  0  0  0
   60.9350   32.6940   47.8540 C   0  0  1  0  0  0  0  0  0  0  0  0
   60.5642   33.7118   48.0453 H   0  0  0  0  0  0  0  0  0  0  0  0
   61.1600   31.9190   49.1560 C   0  0  0  0  0  0  0  0  0  0  0  0
   60.4372   31.0945   49.2445 H   0  0  0  0  0  0  0  0  0  0  0  0
   61.0239   32.5551   50.0430 H   0  0  0  0  0  0  0  0  0  0  0  0
   62.5770   31.3780   49.0550 C   0  0  0  0  0  0  0  0  0  0  0  0
   62.5644   30.3572   48.6454 H   0  0  0  0  0  0  0  0  0  0  0  0
   63.0551   31.3358   50.0448 H   0  0  0  0  0  0  0  0  0  0  0  0
   63.3110   32.2770   48.1520 N   0  0  2  0  0  0  0  0  0  0  0  0
   64.0840   31.7540   47.6720 H   0  0  0  0  0  0  0  0  0  0  0  0
   63.8670   33.3790   48.9300 C   0  0  0  0  0  0  0  0  0  0  0  0
   63.4460   34.5610   48.7770 O   0  0  0  0  0  0  0  0  0  0  0  0
   64.7900   33.0860   50.0400 C   0  0  0  0  0  0  0  0  0  0  0  0
   64.4465   33.1902   51.0798 H   0  0  0  0  0  0  0  0  0  0  0  0
   66.0400   32.6950   49.7900 C   0  0  0  0  0  0  0  0  0  0  0  0
   66.7252   32.4775   50.6226 H   0  0  0  0  0  0  0  0  0  0  0  0
   66.3861   32.5900   48.7512 H   0  0  0  0  0  0  0  0  0  0  0  0
   62.3080   32.7170   47.1600 C   0  0  0  0  0  0  0  0  0  0  0  0
   62.3056   32.0328   46.2987 H   0  0  0  0  0  0  0  0  0  0  0  0
   62.5413   33.7274   46.7932 H   0  0  0  0  0  0  0  0  0  0  0  0
   59.5950   30.6760   47.0980 C   0  0  0  0  0  0  0  0  0  0  0  0
   60.2109   30.0643   47.7736 H   0  0  0  0  0  0  0  0  0  0  0  0
   58.5630   30.0650   46.3620 C   0  0  0  0  0  0  0  0  0  0  0  0
   58.3110   28.6700   46.4340 C   0  0  0  0  0  0  0  0  0  0  0  0
   59.1640   27.9160   47.0880 N   0  0  0  0  0  0  0  0  0  0  0  0
   59.5730   28.0000   48.4590 C   0  0  0  0  0  0  0  0  0  0  0  0
   60.6350   27.2140   48.9340 C   0  0  0  0  0  0  0  0  0  0  0  0
   61.1359   26.5035   48.2600 H   0  0  0  0  0  0  0  0  0  0  0  0
   61.0570   27.3320   50.2600 C   0  0  0  0  0  0  0  0  0  0  0  0
   61.8655   26.6896   50.6391 H   0  0  0  0  0  0  0  0  0  0  0  0
   60.4510   28.2680   51.1070 C   0  0  0  0  0  0  0  0  0  0  0  0
   60.8820   28.3830   52.3940 F   0  0  0  0  0  0  0  0  0  0  0  0
   59.4280   29.0940   50.6230 C   0  0  0  0  0  0  0  0  0  0  0  0
   58.6960   30.3140   51.6540 Cl  0  0  0  0  0  0  0  0  0  0  0  0
   58.9890   28.9600   49.2970 C   0  0  0  0  0  0  0  0  0  0  0  0
   58.1866   29.6083   48.9151 H   0  0  0  0  0  0  0  0  0  0  0  0
  1  2  1  0
  2  3  1  0
  3  4  2  0
  3  5  1  0
  5  6  2  0
  6  7  1  0
  6  8  1  0
  8  9  1  0
  9 10  2  0
 10 11  1  0
 10 12  1  0
 12 13  1  0
 13 14  1  0
 14 15  1  0
 14 16  1  0
 14 17  1  0
 12 18  2  0
 18 19  1  0
 19 20  1  1
 19 21  1  0
 21 22  1  0
 21 23  1  0
 21 24  1  0
 24 25  1  0
 24 26  1  0
 24 27  1  0
 27 28  1  6
 27 29  1  0
 29 30  2  0
 29 31  1  0
 31 32  1  0
 31 33  2  0
 33 34  1  0
 33 35  1  0
 27 36  1  0
 36 37  1  0
 36 38  1  0
 18 39  1  0
 39 40  1  0
 39 41  2  0
 41 42  1  0
 42 43  2  0
 43 44  1  0
 44 45  2  0
 45 46  1  0
 45 47  1  0
 47 48  1  0
 47 49  2  0
 49 50  1  0
 49 51  1  0
 51 52  1  0
 51 53  2  0
 53 54  1  0
 42  5  1  0
 53 44  1  0
 41  9  1  0
 36 19  1  0
M  CHG  3   2  -1   8  -1  27   1
M  END
>  <UniqueID>  (5) 
5

>  <SMILES>  (5) 
C=CC(=O)[N@H+]1CC[C@H](c2cc3/c(=N/c4ccc(F)c(Cl)c4)c(C([NH-])=O)c[n-]c3cc2OC)C1

>  <Energy>  (5) 
95.72704526755277

>  <Genealogy>  (5) 
C=CC(=O)[NH+]1CCC(c2cc3c(=Nc4ccc(F)c(Cl)c4)c(C([NH-])=O)c[n-]c3cc2OC)C1 (protonated)
C=CC(=O)[N@H+]1CC[C@H](c2cc3c(=Nc4ccc(F)c(Cl)c4)c(C([NH-])=O)c[n-]c3cc2OC)C1 (chirality)
C=CC(=O)[N@H+]1CC[C@H](c2cc3/c(=N/c4ccc(F)c(Cl)c4)c(C([NH-])=O)c[n-]c3cc2OC)C1 (cis-trans isomerization)
C=CC(=O)[N@H+]1CC[C@H](c2cc3/c(=N/c4ccc(F)c(Cl)c4)c(C([NH-])=O)c[n-]c3cc2OC)C1 (3D coordinates assigned)
C=CC(=O)[N@H+]1CC[C@H](c2cc3/c(=N/c4ccc(F)c(Cl)c4)c(C([NH-])=O)c[n-]c3cc2OC)C1 (nonaromatic ring conformer: 95.72704526755277 kcal/mol)

>  <smiles>  (5) 
C=CC(=O)N1CCC(c2cc3c(=Nc4ccc(F)c(Cl)c4)c(C(N)=O)c[nH]c3cc2OC)C1

>  <score_type>  (5) 
oracle

>  <origin>  (5) 
adg

>  <m_score__min__energy>  (5) 
-12.17

>  <m_primary>  (5) 
energy

$$$$
5:0
     RDKit          3D

 57 60  0  0  0  0  0  0  0  0999 V2000
   59.7526   28.1545   49.2934 H   0  0  0  0  0  0  0  0  0  0  0  0
   59.3780   27.8960   48.2920 C   0  0  0  0  0  0  0  0  0  0  0  0
   59.1303   26.8519   48.0500 H   0  0  0  0  0  0  0  0  0  0  0  0
   59.2230   28.8550   47.3650 C   0  0  0  0  0  0  0  0  0  0  0  0
   58.7570   28.6590   46.0590 C   0  0  0  0  0  0  0  0  0  0  0  0
   58.4400   27.4920   45.4680 C   0  0  0  0  0  0  0  0  0  0  0  0
   59.1597   27.0587   44.7578 H   0  0  0  0  0  0  0  0  0  0  0  0
   57.1850   26.7610   45.7170 C   0  0  0  0  0  0  0  0  0  0  0  0
   57.1430   25.5050   46.1970 N   0  0  0  0  0  0  0  0  0  0  0  0
   55.8200   25.2720   46.3440 C   0  0  0  0  0  0  0  0  0  0  0  0
   55.3710   24.1750   46.7700 O   0  0  0  0  0  0  0  0  0  0  0  0
   55.0210   26.3080   46.0130 N   0  0  0  0  0  0  0  0  0  0  0  0
   55.9000   27.2460   45.6280 C   0  0  0  0  0  0  0  0  0  0  0  0
   55.5320   28.5320   45.2450 O   0  0  0  0  0  0  0  0  0  0  0  0
   58.7540   29.9070   45.4550 C   0  0  0  0  0  0  0  0  0  0  0  0
   58.4544   30.1351   44.4214 H   0  0  0  0  0  0  0  0  0  0  0  0
   59.1990   30.8070   46.4000 C   0  0  0  0  0  0  0  0  0  0  0  0
   59.4290   32.2610   46.1230 C   0  0  0  0  0  0  0  0  0  0  0  0
   59.5153   32.8063   47.0744 H   0  0  0  0  0  0  0  0  0  0  0  0
   60.3574   32.3819   45.5456 H   0  0  0  0  0  0  0  0  0  0  0  0
   58.5832   32.6625   45.5456 H   0  0  0  0  0  0  0  0  0  0  0  0
   59.4870   30.1750   47.5650 N   0  0  0  0  0  0  0  0  0  0  0  0
   60.0510   30.8170   48.7650 C   0  0  0  0  0  0  0  0  0  0  0  0
   60.9361   30.2526   49.0937 H   0  0  0  0  0  0  0  0  0  0  0  0
   60.3281   31.8516   48.5142 H   0  0  0  0  0  0  0  0  0  0  0  0
   59.0400   30.8450   49.8820 C   0  0  0  0  0  0  0  0  0  0  0  0
   58.9680   29.7890   50.8040 C   0  0  0  0  0  0  0  0  0  0  0  0
   59.6605   28.9389   50.7158 H   0  0  0  0  0  0  0  0  0  0  0  0
   58.0230   29.8100   51.8330 C   0  0  0  0  0  0  0  0  0  0  0  0
   57.9773   28.9776   52.5507 H   0  0  0  0  0  0  0  0  0  0  0  0
   57.1320   30.8870   51.9560 C   0  0  0  0  0  0  0  0  0  0  0  0
   56.1490   30.9290   53.0610 C   0  0  0  0  0  0  0  0  0  0  0  0
   56.5430   31.2190   54.2220 O   0  0  0  0  0  0  0  0  0  0  0  0
   54.7530   30.6610   52.8320 N   0  0  0  0  0  0  0  0  0  0  0  0
   54.0790   31.2620   51.6700 C   0  0  0  0  0  0  0  0  0  0  0  0
   54.3485   32.3270   51.6142 H   0  0  0  0  0  0  0  0  0  0  0  0
   54.4065   30.7222   50.7692 H   0  0  0  0  0  0  0  0  0  0  0  0
   52.5510   31.1410   51.7680 C   0  0  0  0  0  0  0  0  0  0  0  0
   52.0871   31.8411   51.0577 H   0  0  0  0  0  0  0  0  0  0  0  0
   52.2621   30.1070   51.5286 H   0  0  0  0  0  0  0  0  0  0  0  0
   52.0900   31.4580   53.1300 N   0  0  0  0  0  0  0  0  0  0  0  0
   50.8670   32.2030   53.3260 C   0  0  0  0  0  0  0  0  0  0  0  0
   50.1320   32.4840   52.3390 O   0  0  0  0  0  0  0  0  0  0  0  0
   50.4320   32.6440   54.6910 C   0  0  0  0  0  0  0  0  0  0  0  0
   50.9888   32.0795   55.4535 H   0  0  0  0  0  0  0  0  0  0  0  0
   50.6334   33.7188   54.8106 H   0  0  0  0  0  0  0  0  0  0  0  0
   49.3546   32.4573   54.8106 H   0  0  0  0  0  0  0  0  0  0  0  0
   52.8000   30.8940   54.2910 C   0  0  0  0  0  0  0  0  0  0  0  0
   53.2012   31.7185   54.8987 H   0  0  0  0  0  0  0  0  0  0  0  0
   52.0860   30.2896   54.8697 H   0  0  0  0  0  0  0  0  0  0  0  0
   53.9550   29.9870   53.8610 C   0  0  0  0  0  0  0  0  0  0  0  0
   54.5907   29.7664   54.7312 H   0  0  0  0  0  0  0  0  0  0  0  0
   53.5504   29.0489   53.4532 H   0  0  0  0  0  0  0  0  0  0  0  0
   57.2160   31.9530   51.0460 C   0  0  0  0  0  0  0  0  0  0  0  0
   56.5375   32.8129   51.1471 H   0  0  0  0  0  0  0  0  0  0  0  0
   58.1570   31.9280   50.0120 C   0  0  0  0  0  0  0  0  0  0  0  0
   58.2054   32.7620   49.2964 H   0  0  0  0  0  0  0  0  0  0  0  0
  1  2  1  0
  2  3  1  0
  2  4  2  0
  4  5  1  0
  5  6  2  0
  6  7  1  0
  6  8  1  0
  8  9  1  0
  9 10  1  0
 10 11  2  0
 10 12  1  0
 12 13  1  0
 13 14  1  0
  5 15  1  0
 15 16  1  0
 15 17  2  0
 17 18  1  0
 18 19  1  0
 18 20  1  0
 18 21  1  0
 17 22  1  0
 22 23  1  0
 23 24  1  0
 23 25  1  0
 23 26  1  0
 26 27  2  0
 27 28  1  0
 27 29  1  0
 29 30  1  0
 29 31  2  0
 31 32  1  0
 32 33  2  0
 32 34  1  0
 34 35  1  0
 35 36  1  0
 35 37  1  0
 35 38  1  0
 38 39  1  0
 38 40  1  0
 38 41  1  0
 41 42  1  0
 42 43  2  0
 42 44  1  0
 44 45  1  0
 44 46  1  0
 44 47  1  0
 41 48  1  0
 48 49  1  0
 48 50  1  0
 48 51  1  0
 51 52  1  0
 51 53  1  0
 31 54  1  0
 54 55  1  0
 54 56  2  0
 56 57  1  0
 22  4  1  0
 56 26  1  0
 13  8  2  0
 51 34  1  0
M  CHG  3   9  -1  12  -1  14  -1
M  END
>  <UniqueID>  (6) 
6

>  <SMILES>  (6) 
C=c1/c(=C/c2[n-]c(=O)[n-]c2[O-])cc(C)n1Cc1ccc(C(=O)N2CCN(C(C)=O)CC2)cc1

>  <Energy>  (6) 
129.2742199083263

>  <Genealogy>  (6) 
C=c1c(=Cc2[n-]c(=O)[n-]c2[O-])cc(C)n1Cc1ccc(C(=O)N2CCN(C(C)=O)CC2)cc1 (protonated)
C=c1/c(=C/c2[n-]c(=O)[n-]c2[O-])cc(C)n1Cc1ccc(C(=O)N2CCN(C(C)=O)CC2)cc1 (cis-trans isomerization)
C=c1/c(=C/c2[n-]c(=O)[n-]c2[O-])cc(C)n1Cc1ccc(C(=O)N2CCN(C(C)=O)CC2)cc1 (3D coordinates assigned)
C=c1/c(=C/c2[n-]c(=O)[n-]c2[O-])cc(C)n1Cc1ccc(C(=O)N2CCN(C(C)=O)CC2)cc1 (nonaromatic ring conformer: 129.2742199083263 kcal/mol)

>  <smiles>  (6) 
C=c1c(=Cc2[nH]c(=O)[nH]c2O)cc(C)n1Cc1ccc(C(=O)N2CCN(C(C)=O)CC2)cc1

>  <score_type>  (6) 
oracle

>  <origin>  (6) 
adg

>  <m_score__min__energy>  (6) 
-16.100000000000001

>  <m_primary>  (6) 
energy

$$$$
6:0
     RDKit          3D

 49 52  0  0  0  0  0  0  0  0999 V2000
   60.2298   35.2126   45.7904 H   0  0  0  0  0  0  0  0  0  0  0  0
   59.4430   34.4440   45.8080 C   0  0  0  0  0  0  0  0  0  0  0  0
   58.7130   33.7420   44.4630 S   0  0  0  0  0  0  0  0  0  0  0  0
   57.7110   32.7640   45.3880 C   0  0  0  0  0  0  0  0  0  0  0  0
   56.8750   31.9090   44.8760 N   0  0  0  0  0  0  0  0  0  0  0  0
   57.0500   30.4910   44.7140 C   0  0  0  0  0  0  0  0  0  0  0  0
   56.0560   29.7400   44.8920 O   0  0  0  0  0  0  0  0  0  0  0  0
   58.3660   29.8660   44.3530 C   0  0  0  0  0  0  0  0  0  0  0  0
   58.9128   29.6063   45.2715 H   0  0  0  0  0  0  0  0  0  0  0  0
   58.1895   28.9555   43.7615 H   0  0  0  0  0  0  0  0  0  0  0  0
   58.9601   30.5781   43.7615 H   0  0  0  0  0  0  0  0  0  0  0  0
   57.9150   32.9430   46.7100 N   0  0  0  0  0  0  0  0  0  0  0  0
   58.8730   33.8780   46.9490 C   0  0  0  0  0  0  0  0  0  0  0  0
   59.3270   34.2060   48.3370 C   0  0  0  0  0  0  0  0  0  0  0  0
   60.3599   34.5828   48.3031 H   0  0  0  0  0  0  0  0  0  0  0  0
   58.6639   34.9738   48.7621 H   0  0  0  0  0  0  0  0  0  0  0  0
   59.2740   32.9780   49.1970 C   0  0  0  0  0  0  0  0  0  0  0  0
   59.8760   32.8400   50.3970 N   0  0  0  0  0  0  0  0  0  0  0  0
   60.8910   33.7030   50.9960 C   0  0  0  0  0  0  0  0  0  0  0  0
   60.8218   33.6441   52.0922 H   0  0  0  0  0  0  0  0  0  0  0  0
   61.8896   33.3731   50.6734 H   0  0  0  0  0  0  0  0  0  0  0  0
   60.7260   34.7416   50.6734 H   0  0  0  0  0  0  0  0  0  0  0  0
   59.4920   31.6080   50.7950 C   0  0  0  0  0  0  0  0  0  0  0  0
   59.9610   30.8460   52.3530 S   0  0  0  0  0  0  0  0  0  0  0  0
   61.5040   30.0830   51.7230 C   0  0  0  0  0  0  0  0  0  0  0  0
   62.2824   30.8592   51.6835 H   0  0  0  0  0  0  0  0  0  0  0  0
   61.7572   29.2632   52.4113 H   0  0  0  0  0  0  0  0  0  0  0  0
   61.3720   29.4750   50.3520 C   0  0  0  0  0  0  0  0  0  0  0  0
   61.1850   28.2310   50.2780 O   0  0  0  0  0  0  0  0  0  0  0  0
   61.4940   30.2280   49.1310 N   0  0  0  0  0  0  0  0  0  0  0  0
   62.3620   31.3120   48.8100 C   0  0  0  0  0  0  0  0  0  0  0  0
   63.2190   32.0230   49.6620 C   0  0  0  0  0  0  0  0  0  0  0  0
   63.3013   31.7560   50.7259 H   0  0  0  0  0  0  0  0  0  0  0  0
   63.9700   33.0830   49.1290 C   0  0  0  0  0  0  0  0  0  0  0  0
   64.6628   33.6418   49.7753 H   0  0  0  0  0  0  0  0  0  0  0  0
   63.8410   33.4340   47.7730 C   0  0  0  0  0  0  0  0  0  0  0  0
   64.4413   34.2578   47.3595 H   0  0  0  0  0  0  0  0  0  0  0  0
   62.9490   32.7360   46.9480 C   0  0  0  0  0  0  0  0  0  0  0  0
   62.8290   33.0118   45.8899 H   0  0  0  0  0  0  0  0  0  0  0  0
   62.2160   31.6830   47.4980 C   0  0  0  0  0  0  0  0  0  0  0  0
   61.1830   30.8550   46.8230 C   0  0  0  0  0  0  0  0  0  0  0  0
   61.6212   30.2727   45.9991 H   0  0  0  0  0  0  0  0  0  0  0  0
   60.3804   31.4542   46.3682 H   0  0  0  0  0  0  0  0  0  0  0  0
   60.6800   29.9270   47.9500 C   0  0  0  0  0  0  0  0  0  0  0  0
   60.8064   28.8736   47.6597 H   0  0  0  0  0  0  0  0  0  0  0  0
   59.6109   30.0894   48.1517 H   0  0  0  0  0  0  0  0  0  0  0  0
   58.6800   31.0190   49.8940 N   0  0  0  0  0  0  0  0  0  0  0  0
   58.5420   31.8880   48.9050 N   0  0  0  0  0  0  0  0  0  0  0  0
   57.9580   31.7310   48.0540 H   0  0  0  0  0  0  0  0  0  0  0  0
  1  2  1  0
  2  3  1  0
  3  4  1  0
  4  5  2  0
  5  6  1  0
  6  7  2  0
  6  8  1  0
  8  9  1  0
  8 10  1  0
  8 11  1  0
  4 12  1  0
 12 13  1  0
 13 14  1  0
 14 15  1  0
 14 16  1  0
 14 17  1  0
 17 18  1  0
 18 19  1  0
 19 20  1  0
 19 21  1  0
 19 22  1  0
 18 23  1  0
 23 24  1  0
 24 25  1  0
 25 26  1  0
 25 27  1  0
 25 28  1  0
 28 29  2  0
 28 30  1  0
 30 31  1  0
 31 32  2  0
 32 33  1  0
 32 34  1  0
 34 35  1  0
 34 36  2  0
 36 37  1  0
 36 38  1  0
 38 39  1  0
 38 40  2  0
 40 41  1  0
 41 42  1  0
 41 43  1  0
 41 44  1  0
 44 45  1  0
 44 46  1  0
 23 47  2  0
 47 48  1  0
 48 49  1  0
 13  2  2  0
 48 17  2  0
 44 30  1  0
 40 31  1  0
M  CHG  2  12  -1  48   1
M  END
>  <UniqueID>  (7) 
7

>  <SMILES>  (7) 
CC(=O)/N=c1\[n-]c(Cc2[nH+]nc(SCC(=O)N3CCc4ccccc43)n2C)cs1

>  <Energy>  (7) 
127.30902899161778

>  <Genealogy>  (7) 
CC(=O)N=c1[n-]c(Cc2[nH+]nc(SCC(=O)N3CCc4ccccc43)n2C)cs1 (protonated)
CC(=O)/N=c1\[n-]c(Cc2[nH+]nc(SCC(=O)N3CCc4ccccc43)n2C)cs1 (cis-trans isomerization)
CC(=O)/N=c1\[n-]c(Cc2[nH+]nc(SCC(=O)N3CCc4ccccc43)n2C)cs1 (3D coordinates assigned)
CC(=O)/N=c1\[n-]c(Cc2[nH+]nc(SCC(=O)N3CCc4ccccc43)n2C)cs1 (nonaromatic ring conformer: 127.30902899161778 kcal/mol)

>  <smiles>  (7) 
CC(=O)N=c1[nH]c(Cc2nnc(SCC(=O)N3CCc4ccccc43)n2C)cs1

>  <score_type>  (7) 
oracle

>  <origin>  (7) 
adg

>  <m_score__min__energy>  (7) 
-10.220000000000001

>  <m_primary>  (7) 
energy

$$$$
7:0
     RDKit          3D

 60 63  0  0  0  0  0  0  0  0999 V2000
   56.2650   29.7140   42.6090 C   0  0  0  0  0  0  0  0  0  0  0  0
   56.9130   30.6230   43.6540 C   0  0  0  0  0  0  0  0  0  0  0  0
   57.5100   29.8130   44.7770 C   0  0  0  0  0  0  0  0  0  0  0  0
   58.5550   30.3410   45.5480 C   0  0  0  0  0  0  0  0  0  0  0  0
   59.0910   29.5880   46.6100 C   0  0  0  0  0  0  0  0  0  0  0  0
   60.2410   30.1190   47.4030 C   0  0  0  0  0  0  0  0  0  0  0  0
   61.2970   30.7890   46.7610 C   0  0  0  0  0  0  0  0  0  0  0  0
   62.3540   31.3390   47.5040 C   0  0  0  0  0  0  0  0  0  0  0  0
   62.3750   31.2390   48.8990 C   0  0  0  0  0  0  0  0  0  0  0  0
   63.3960   31.9120   49.5990 O   0  0  0  0  0  0  0  0  0  0  0  0
   63.2610   33.1960   50.2160 C   0  0  0  0  0  0  0  0  0  0  0  0
   62.5590   34.2040   49.2830 C   0  0  0  0  0  0  0  0  0  0  0  0
   61.0200   34.2240   49.3910 C   0  0  0  0  0  0  0  0  0  0  0  0
   60.3630   33.6320   48.2020 N   0  0  0  0  0  0  0  0  0  0  0  0
   58.8990   33.5090   48.3770 C   0  0  0  0  0  0  0  0  0  0  0  0
   58.2230   33.1560   47.0450 C   0  0  0  0  0  0  0  0  0  0  0  0
   58.4290   34.2050   46.0180 N   0  0  0  0  0  0  0  0  0  0  0  0
   58.4590   33.6080   44.6700 C   0  0  0  0  0  0  0  0  0  0  0  0
   59.6160   35.0610   46.2600 C   0  0  0  0  0  0  0  0  0  0  0  0
   60.7680   34.2910   46.9290 C   0  0  0  0  0  0  0  0  0  0  0  0
   61.3390   30.5380   49.5490 C   0  0  0  0  0  0  0  0  0  0  0  0
   60.2810   29.9910   48.8070 C   0  0  0  0  0  0  0  0  0  0  0  0
   58.5700   28.3540   46.8880 N   0  0  0  0  0  0  0  0  0  0  0  0
   57.5380   27.8240   46.1620 C   0  0  0  0  0  0  0  0  0  0  0  0
   56.9800   26.4980   46.5150 C   0  0  0  0  0  0  0  0  0  0  0  0
   55.6990   26.1390   46.2900 N   0  0  0  0  0  0  0  0  0  0  0  0
   55.6060   24.9270   46.7460 O   0  0  0  0  0  0  0  0  0  0  0  0
   56.7600   24.5610   47.2270 C   0  0  0  0  0  0  0  0  0  0  0  0
   56.9780   23.4350   47.7450 O   0  0  0  0  0  0  0  0  0  0  0  0
   57.6970   25.5200   47.1120 N   0  0  0  0  0  0  0  0  0  0  0  0
   56.9980   28.5510   45.0910 C   0  0  0  0  0  0  0  0  0  0  0  0
   55.6982   28.9189   43.1155 H   0  0  0  0  0  0  0  0  0  0  0  0
   55.5840   30.3059   41.9799 H   0  0  0  0  0  0  0  0  0  0  0  0
   57.0467   29.2632   41.9799 H   0  0  0  0  0  0  0  0  0  0  0  0
   57.7074   31.2137   43.1744 H   0  0  0  0  0  0  0  0  0  0  0  0
   56.1399   31.2851   44.0711 H   0  0  0  0  0  0  0  0  0  0  0  0
   58.9551   31.3408   45.3238 H   0  0  0  0  0  0  0  0  0  0  0  0
   61.2953   30.8834   45.6651 H   0  0  0  0  0  0  0  0  0  0  0  0
   63.1746   31.8542   46.9832 H   0  0  0  0  0  0  0  0  0  0  0  0
   62.6683   33.0891   51.1365 H   0  0  0  0  0  0  0  0  0  0  0  0
   64.2682   33.5778   50.4391 H   0  0  0  0  0  0  0  0  0  0  0  0
   62.9319   35.2104   49.5243 H   0  0  0  0  0  0  0  0  0  0  0  0
   62.7927   33.8887   48.2554 H   0  0  0  0  0  0  0  0  0  0  0  0
   60.7208   33.6518   50.2816 H   0  0  0  0  0  0  0  0  0  0  0  0
   60.7022   35.2747   49.4617 H   0  0  0  0  0  0  0  0  0  0  0  0
   58.6880   32.7169   49.1105 H   0  0  0  0  0  0  0  0  0  0  0  0
   58.5023   34.4718   48.7316 H   0  0  0  0  0  0  0  0  0  0  0  0
   58.6434   32.2096   46.6741 H   0  0  0  0  0  0  0  0  0  0  0  0
   57.1417   33.0692   47.2273 H   0  0  0  0  0  0  0  0  0  0  0  0
   58.5140   32.5127   44.7552 H   0  0  0  0  0  0  0  0  0  0  0  0
   57.5457   33.8879   44.1246 H   0  0  0  0  0  0  0  0  0  0  0  0
   59.3397   33.9781   44.1246 H   0  0  0  0  0  0  0  0  0  0  0  0
   59.9685   35.4568   45.2961 H   0  0  0  0  0  0  0  0  0  0  0  0
   59.3130   35.8697   46.9413 H   0  0  0  0  0  0  0  0  0  0  0  0
   61.1251   33.5185   46.2321 H   0  0  0  0  0  0  0  0  0  0  0  0
   61.5555   35.0200   47.1709 H   0  0  0  0  0  0  0  0  0  0  0  0
   61.3600   30.4193   50.6424 H   0  0  0  0  0  0  0  0  0  0  0  0
   59.4728   29.4557   49.3268 H   0  0  0  0  0  0  0  0  0  0  0  0
   58.9570   27.8130   47.6930 H   0  0  0  0  0  0  0  0  0  0  0  0
   56.1727   28.1285   44.4990 H   0  0  0  0  0  0  0  0  0  0  0  0
  1  2  1  0
  2  3  1  0
  3  4  2  0
  4  5  1  0
  5  6  1  0
  6  7  2  0
  7  8  1  0
  8  9  2  0
  9 10  1  0
 10 11  1  0
 11 12  1  0
 12 13  1  0
 13 14  1  0
 14 15  1  0
 15 16  1  0
 16 17  1  0
 17 18  1  0
 17 19  1  0
 19 20  1  0
  9 21  1  0
 21 22  2  0
  5 23  2  0
 23 24  1  0
 24 25  1  0
 25 26  2  0
 26 27  1  0
 27 28  1  0
 28 29  2  0
 28 30  1  0
 24 31  2  0
 31  3  1  0
 22  6  1  0
 30 25  1  0
 20 14  1  0
  1 32  1  0
  1 33  1  0
  1 34  1  0
  2 35  1  0
  2 36  1  0
  4 37  1  0
  7 38  1  0
  8 39  1  0
 11 40  1  0
 11 41  1  0
 12 42  1  0
 12 43  1  0
 13 44  1  0
 13 45  1  0
 15 46  1  0
 15 47  1  0
 16 48  1  0
 16 49  1  0
 18 50  1  0
 18 51  1  0
 18 52  1  0
 19 53  1  0
 19 54  1  0
 20 55  1  0
 20 56  1  0
 21 57  1  0
 22 58  1  0
 23 59  1  0
 31 60  1  0
M  CHG  2  23   1  30  -1
M  END
>  <UniqueID>  (8) 
8

>  <SMILES>  (8) 
CCc1cc(-c2ccc(OCCCN3CCN(C)CC3)cc2)[nH+]c(-c2noc(=O)[n-]2)c1

>  <Energy>  (8) 
113.00922008473792

>  <Genealogy>  (8) 
CCc1cc(-c2ccc(OCCCN3CCN(C)CC3)cc2)[nH+]c(-c2noc(=O)[n-]2)c1 (protonated)
CCc1cc(-c2ccc(OCCCN3CCN(C)CC3)cc2)[nH+]c(-c2noc(=O)[n-]2)c1 (3D coordinates assigned)
CCc1cc(-c2ccc(OCCCN3CCN(C)CC3)cc2)[nH+]c(-c2noc(=O)[n-]2)c1 (nonaromatic ring conformer: 113.00922008473792 kcal/mol)

>  <smiles>  (8) 
CCc1cc(-c2ccc(OCCCN3CCN(C)CC3)cc2)nc(-c2noc(=O)[nH]2)c1

>  <score_type>  (8) 
oracle

>  <origin>  (8) 
adg

>  <m_score__min__energy>  (8) 
-9.7400000000000002

>  <m_primary>  (8) 
energy

$$$$
8:0
     RDKit          3D

 54 57  0  0  0  0  0  0  0  0999 V2000
   57.3730   22.1650   44.2470 C   0  0  0  0  0  0  0  0  0  0  0  0
   58.0100   21.9120   45.3920 C   0  0  0  0  0  0  0  0  0  0  0  0
   57.2860   21.8570   46.7070 C   0  0  0  0  0  0  0  0  0  0  0  0
   57.4320   23.1250   47.4220 N   0  0  0  0  0  0  0  0  0  0  0  0
   57.2520   24.3030   46.9070 C   0  0  0  0  0  0  0  0  0  0  0  0
   55.9840   24.7520   46.7070 N   0  0  0  0  0  0  0  0  0  0  0  0
   55.7410   25.9680   46.1560 C   0  0  0  0  0  0  0  0  0  0  0  0
   54.5490   26.3410   45.9890 O   0  0  0  0  0  0  0  0  0  0  0  0
   56.8160   26.7960   45.7910 C   0  0  0  0  0  0  0  0  0  0  0  0
   56.6300   28.0600   45.2010 C   0  0  0  0  0  0  0  0  0  0  0  0
   57.7360   28.8430   44.8470 C   0  0  0  0  0  0  0  0  0  0  0  0
   57.4750   30.3860   44.0370 S   0  0  0  0  0  0  0  0  0  0  0  0
   58.7830   30.8700   43.4760 O   0  0  0  0  0  0  0  0  0  0  0  0
   56.4880   30.2560   42.9120 O   0  0  0  0  0  0  0  0  0  0  0  0
   56.9030   31.5230   45.2120 N   0  0  0  0  0  0  0  0  0  0  0  0
   57.7650   32.1490   46.1670 C   0  0  0  0  0  0  0  0  0  0  0  0
   58.7220   31.4110   46.8830 C   0  0  0  0  0  0  0  0  0  0  0  0
   59.5900   32.0570   47.7660 C   0  0  0  0  0  0  0  0  0  0  0  0
   59.5440   33.4540   47.9160 C   0  0  0  0  0  0  0  0  0  0  0  0
   60.4970   34.1630   48.8090 C   0  0  0  0  0  0  0  0  0  0  0  0
   60.0950   34.6040   49.9140 O   0  0  0  0  0  0  0  0  0  0  0  0
   61.8850   34.3280   48.4770 N   0  0  0  0  0  0  0  0  0  0  0  0
   63.0150   33.8490   49.2190 C   0  0  0  0  0  0  0  0  0  0  0  0
   63.3370   34.3490   50.4940 C   0  0  0  0  0  0  0  0  0  0  0  0
   64.4490   33.8540   51.1860 C   0  0  0  0  0  0  0  0  0  0  0  0
   65.2630   32.8610   50.6110 C   0  0  0  0  0  0  0  0  0  0  0  0
   66.4410   32.3000   51.3670 C   0  0  0  0  0  0  0  0  0  0  0  0
   66.2920   32.5030   52.7290 F   0  0  0  0  0  0  0  0  0  0  0  0
   67.5970   32.9310   50.9450 F   0  0  0  0  0  0  0  0  0  0  0  0
   66.5620   30.9390   51.1430 F   0  0  0  0  0  0  0  0  0  0  0  0
   64.9040   32.3290   49.3600 C   0  0  0  0  0  0  0  0  0  0  0  0
   63.7920   32.8200   48.6730 C   0  0  0  0  0  0  0  0  0  0  0  0
   58.5580   34.1820   47.2250 C   0  0  0  0  0  0  0  0  0  0  0  0
   57.6710   33.5290   46.3620 C   0  0  0  0  0  0  0  0  0  0  0  0
   59.0330   28.3600   45.0720 C   0  0  0  0  0  0  0  0  0  0  0  0
   59.2250   27.1050   45.6600 C   0  0  0  0  0  0  0  0  0  0  0  0
   58.1240   26.3190   46.0140 C   0  0  0  0  0  0  0  0  0  0  0  0
   58.3100   25.0920   46.5670 N   0  0  0  0  0  0  0  0  0  0  0  0
   57.9338   22.1981   43.3013 H   0  0  0  0  0  0  0  0  0  0  0  0
   56.2871   22.3405   44.2489 H   0  0  0  0  0  0  0  0  0  0  0  0
   59.0961   21.7388   45.3723 H   0  0  0  0  0  0  0  0  0  0  0  0
   56.2184   21.6640   46.5254 H   0  0  0  0  0  0  0  0  0  0  0  0
   57.7168   21.0505   47.3185 H   0  0  0  0  0  0  0  0  0  0  0  0
   55.6122   28.4345   45.0172 H   0  0  0  0  0  0  0  0  0  0  0  0
   58.7879   30.3213   46.7478 H   0  0  0  0  0  0  0  0  0  0  0  0
   60.3146   31.4687   48.3481 H   0  0  0  0  0  0  0  0  0  0  0  0
   62.7126   35.1320   50.9491 H   0  0  0  0  0  0  0  0  0  0  0  0
   64.6879   34.2443   52.1863 H   0  0  0  0  0  0  0  0  0  0  0  0
   65.5040   31.5194   48.9189 H   0  0  0  0  0  0  0  0  0  0  0  0
   63.5241   32.3948   47.6945 H   0  0  0  0  0  0  0  0  0  0  0  0
   58.4840   35.2707   47.3640 H   0  0  0  0  0  0  0  0  0  0  0  0
   56.8962   34.1050   45.8348 H   0  0  0  0  0  0  0  0  0  0  0  0
   59.9024   28.9698   44.7853 H   0  0  0  0  0  0  0  0  0  0  0  0
   60.2446   26.7357   45.8443 H   0  0  0  0  0  0  0  0  0  0  0  0
  1  2  2  0
  2  3  1  0
  3  4  1  0
  4  5  2  3
  5  6  1  0
  6  7  1  0
  7  8  2  0
  7  9  1  0
  9 10  2  0
 10 11  1  0
 11 12  1  0
 12 13  2  0
 12 14  2  0
 12 15  1  0
 15 16  1  0
 16 17  2  0
 17 18  1  0
 18 19  2  0
 19 20  1  0
 20 21  2  0
 20 22  1  0
 22 23  1  0
 23 24  2  0
 24 25  1  0
 25 26  2  0
 26 27  1  0
 27 28  1  0
 27 29  1  0
 27 30  1  0
 26 31  1  0
 31 32  2  0
 19 33  1  0
 33 34  2  0
 11 35  2  0
 35 36  1  0
 36 37  2  0
 37 38  1  0
 38  5  1  0
 37  9  1  0
 34 16  1  0
 32 23  1  0
  1 39  1  0
  1 40  1  0
  2 41  1  0
  3 42  1  0
  3 43  1  0
 10 44  1  0
 17 45  1  0
 18 46  1  0
 24 47  1  0
 25 48  1  0
 31 49  1  0
 32 50  1  0
 33 51  1  0
 34 52  1  0
 35 53  1  0
 36 54  1  0
M  CHG  4   6  -1  15  -1  22  -1  38  -1
M  END
>  <UniqueID>  (9) 
9

>  <SMILES>  (9) 
C=CCN=c1[n-]c(=O)c2cc(S(=O)(=O)[N-]c3ccc(C(=O)[N-]c4ccc(C(F)(F)F)cc4)cc3)ccc2[n-]1

>  <Energy>  (9) 
70.04930991015475

>  <Genealogy>  (9) 
C=CCN=c1[n-]c(=O)c2cc(S(=O)(=O)[N-]c3ccc(C(=O)[N-]c4ccc(C(F)(F)F)cc4)cc3)ccc2[n-]1 (protonated)
C=CCN=c1[n-]c(=O)c2cc(S(=O)(=O)[N-]c3ccc(C(=O)[N-]c4ccc(C(F)(F)F)cc4)cc3)ccc2[n-]1 (3D coordinates assigned)
C=CCN=c1[n-]c(=O)c2cc(S(=O)(=O)[N-]c3ccc(C(=O)[N-]c4ccc(C(F)(F)F)cc4)cc3)ccc2[n-]1 (optimized conformer: 70.04930991015475 kcal/mol)

>  <smiles>  (9) 
C=CCN=c1[nH]c(=O)c2cc(S(=O)(=O)Nc3ccc(C(=O)Nc4ccc(C(F)(F)F)cc4)cc3)ccc2[nH]1

>  <score_type>  (9) 
oracle

>  <origin>  (9) 
adg

>  <m_score__min__energy>  (9) 
-14.58

>  <m_primary>  (9) 
energy

$$$$
9:0
     RDKit          3D

 44 46  0  0  0  0  0  0  0  0999 V2000
   59.6300   29.4460   47.6740 C   0  0  0  0  0  0  0  0  0  0  0  0
   59.3110   30.5000   46.9060 C   0  0  0  0  0  0  0  0  0  0  0  0
   58.6770   30.4890   45.6510 C   0  0  0  0  0  0  0  0  0  0  0  0
   58.3530   29.4710   44.8300 C   0  0  0  0  0  0  0  0  0  0  0  0
   57.6340   28.2440   45.2260 C   0  0  0  0  0  0  0  0  0  0  0  0
   56.2310   28.2140   45.3040 C   0  0  0  0  0  0  0  0  0  0  0  0
   55.4810   29.3380   44.9680 O   0  0  0  0  0  0  0  0  0  0  0  0
   55.6010   27.0830   45.7150 N   0  0  0  0  0  0  0  0  0  0  0  0
   56.3040   25.9770   46.0700 C   0  0  0  0  0  0  0  0  0  0  0  0
   55.6980   24.9400   46.4430 O   0  0  0  0  0  0  0  0  0  0  0  0
   57.6620   25.9930   46.0310 N   0  0  0  0  0  0  0  0  0  0  0  0
   58.3400   27.0990   45.6280 C   0  0  0  0  0  0  0  0  0  0  0  0
   59.6000   27.0800   45.6090 O   0  0  0  0  0  0  0  0  0  0  0  0
   58.4180   31.8140   45.3370 C   0  0  0  0  0  0  0  0  0  0  0  0
   58.9400   32.5790   46.3590 C   0  0  0  0  0  0  0  0  0  0  0  0
   58.8790   34.0740   46.4330 C   0  0  0  0  0  0  0  0  0  0  0  0
   59.4750   31.7840   47.3110 N   0  0  0  0  0  0  0  0  0  0  0  0
   60.0760   32.2350   48.5340 C   0  0  0  0  0  0  0  0  0  0  0  0
   59.2840   32.3770   49.6790 C   0  0  0  0  0  0  0  0  0  0  0  0
   59.8480   32.8130   50.8880 C   0  0  0  0  0  0  0  0  0  0  0  0
   59.0240   32.9440   52.0580 N   0  0  0  0  0  0  0  0  0  0  0  0
   58.5500   34.2730   52.4450 C   0  0  0  0  0  0  0  0  0  0  0  0
   59.0390   31.8880   53.0680 C   0  0  0  0  0  0  0  0  0  0  0  0
   61.2200   33.1170   50.9410 C   0  0  0  0  0  0  0  0  0  0  0  0
   61.9630   33.7150   52.4180 Cl  0  0  0  0  0  0  0  0  0  0  0  0
   62.0110   32.9810   49.7940 C   0  0  0  0  0  0  0  0  0  0  0  0
   61.4460   32.5420   48.5920 C   0  0  0  0  0  0  0  0  0  0  0  0
   62.4620   32.4130   47.1640 Cl  0  0  0  0  0  0  0  0  0  0  0  0
   60.1286   29.6017   48.6421 H   0  0  0  0  0  0  0  0  0  0  0  0
   59.3927   28.4267   47.3352 H   0  0  0  0  0  0  0  0  0  0  0  0
   58.6495   29.5619   43.7746 H   0  0  0  0  0  0  0  0  0  0  0  0
   55.3520   30.0950   45.6290 H   0  0  0  0  0  0  0  0  0  0  0  0
   57.8955   32.1848   44.4428 H   0  0  0  0  0  0  0  0  0  0  0  0
   58.8662   34.3887   47.4869 H   0  0  0  0  0  0  0  0  0  0  0  0
   59.7604   34.5021   45.9332 H   0  0  0  0  0  0  0  0  0  0  0  0
   57.9656   34.4289   45.9332 H   0  0  0  0  0  0  0  0  0  0  0  0
   58.2099   32.1448   49.6310 H   0  0  0  0  0  0  0  0  0  0  0  0
   58.5234   34.3477   53.5421 H   0  0  0  0  0  0  0  0  0  0  0  0
   59.2311   35.0370   52.0419 H   0  0  0  0  0  0  0  0  0  0  0  0
   57.5392   34.4335   52.0419 H   0  0  0  0  0  0  0  0  0  0  0  0
   59.0326   32.3398   54.0709 H   0  0  0  0  0  0  0  0  0  0  0  0
   58.1498   31.2519   52.9467 H   0  0  0  0  0  0  0  0  0  0  0  0
   59.9459   31.2774   52.9467 H   0  0  0  0  0  0  0  0  0  0  0  0
   63.0836   33.2209   49.8382 H   0  0  0  0  0  0  0  0  0  0  0  0
  1  2  2  0
  2  3  1  0
  3  4  2  3
  4  5  1  0
  5  6  2  0
  6  7  1  0
  6  8  1  0
  8  9  1  0
  9 10  2  0
  9 11  1  0
 11 12  1  0
 12 13  2  0
  3 14  1  0
 14 15  2  0
 15 16  1  0
 15 17  1  0
 17 18  1  0
 18 19  2  0
 19 20  1  0
 20 21  1  0
 21 22  1  0
 21 23  1  0
 20 24  2  0
 24 25  1  0
 24 26  1  0
 26 27  2  0
 27 28  1  0
 17  2  1  0
 27 18  1  0
 12  5  1  0
  1 29  1  0
  1 30  1  0
  4 31  1  0
  7 32  1  0
 14 33  1  0
 16 34  1  0
 16 35  1  0
 16 36  1  0
 19 37  1  0
 22 38  1  0
 22 39  1  0
 22 40  1  0
 23 41  1  0
 23 42  1  0
 23 43  1  0
 26 44  1  0
M  CHG  2   8  -1  11  -1
M  END
>  <UniqueID>  (10) 
10

>  <SMILES>  (10) 
C=c1c(=Cc2c(O)[n-]c(=O)[n-]c2=O)cc(C)n1-c1cc(N(C)C)c(Cl)cc1Cl

>  <Energy>  (10) 
98.85717644553681

>  <Genealogy>  (10) 
C=c1c(=Cc2c(O)[n-]c(=O)[n-]c2=O)cc(C)n1-c1cc(N(C)C)c(Cl)cc1Cl (protonated)
C=c1c(=Cc2c(O)[n-]c(=O)[n-]c2=O)cc(C)n1-c1cc(N(C)C)c(Cl)cc1Cl (3D coordinates assigned)
C=c1c(=Cc2c(O)[n-]c(=O)[n-]c2=O)cc(C)n1-c1cc(N(C)C)c(Cl)cc1Cl (optimized conformer: 98.85717644553681 kcal/mol)

>  <smiles>  (10) 
C=c1c(=Cc2c(O)[nH]c(=O)[nH]c2=O)cc(C)n1-c1cc(N(C)C)c(Cl)cc1Cl

>  <score_type>  (10) 
oracle

>  <origin>  (10) 
adg

>  <m_score__min__energy>  (10) 
-13.359999999999999

>  <m_primary>  (10) 
energy

$$$$
10:0
     RDKit          3D

 45 47  0  0  0  0  0  0  0  0999 V2000
   57.3150   29.7880   45.9170 H   0  0  0  0  0  0  0  0  0  0  0  0
   57.7420   28.9170   45.6250 O   0  0  0  0  0  0  0  0  0  0  0  0
   57.1900   27.6910   45.9890 C   0  0  0  0  0  0  0  0  0  0  0  0
   55.9040   27.4060   45.6520 N   0  0  0  0  0  0  0  0  0  0  0  0
   55.3370   26.2190   45.9880 C   0  0  0  0  0  0  0  0  0  0  0  0
   54.1440   25.9800   45.6700 O   0  0  0  0  0  0  0  0  0  0  0  0
   56.0600   25.2880   46.6620 N   0  0  0  0  0  0  0  0  0  0  0  0
   57.3470   25.5230   47.0220 C   0  0  0  0  0  0  0  0  0  0  0  0
   57.9960   24.6200   47.6150 O   0  0  0  0  0  0  0  0  0  0  0  0
   57.9480   26.7570   46.7100 C   0  0  0  0  0  0  0  0  0  0  0  0
   59.3560   27.0550   47.0550 C   0  0  0  0  0  0  0  0  0  0  0  0
   60.1153   26.2851   46.8533 H   0  0  0  0  0  0  0  0  0  0  0  0
   59.7580   28.2190   47.6030 C   0  0  0  0  0  0  0  0  0  0  0  0
   59.5640   28.6070   48.9190 C   0  0  0  0  0  0  0  0  0  0  0  0
   59.0803   28.0186   49.7126 H   0  0  0  0  0  0  0  0  0  0  0  0
   60.0950   29.8740   49.0410 C   0  0  0  0  0  0  0  0  0  0  0  0
   60.0280   30.6940   50.2950 C   0  0  0  0  0  0  0  0  0  0  0  0
   60.0822   30.0302   51.1705 H   0  0  0  0  0  0  0  0  0  0  0  0
   60.8715   31.3997   50.3171 H   0  0  0  0  0  0  0  0  0  0  0  0
   59.0811   31.2535   50.3171 H   0  0  0  0  0  0  0  0  0  0  0  0
   60.5990   30.2980   47.8560 N   0  0  0  0  0  0  0  0  0  0  0  0
   61.1860   31.6260   47.6070 C   0  0  0  0  0  0  0  0  0  0  0  0
   61.5021   32.0670   48.5639 H   0  0  0  0  0  0  0  0  0  0  0  0
   62.0510   31.5120   46.9371 H   0  0  0  0  0  0  0  0  0  0  0  0
   60.1790   32.5350   46.9510 C   0  0  0  0  0  0  0  0  0  0  0  0
   60.1430   33.9010   47.2730 C   0  0  0  0  0  0  0  0  0  0  0  0
   60.8444   34.3065   48.0171 H   0  0  0  0  0  0  0  0  0  0  0  0
   59.2220   34.7470   46.6540 C   0  0  0  0  0  0  0  0  0  0  0  0
   59.1995   35.8158   46.9131 H   0  0  0  0  0  0  0  0  0  0  0  0
   58.3290   34.2420   45.7070 C   0  0  0  0  0  0  0  0  0  0  0  0
   57.6082   34.9164   45.2215 H   0  0  0  0  0  0  0  0  0  0  0  0
   58.3450   32.8780   45.3700 C   0  0  0  0  0  0  0  0  0  0  0  0
   57.3980   32.3460   44.3640 C   0  0  0  0  0  0  0  0  0  0  0  0
   57.4210   32.7800   43.1800 O   0  0  0  0  0  0  0  0  0  0  0  0
   56.4750   31.3600   44.7300 O   0  0  0  0  0  0  0  0  0  0  0  0
   56.0390   30.3460   43.8330 C   0  0  0  0  0  0  0  0  0  0  0  0
   55.6682   29.4837   44.4066 H   0  0  0  0  0  0  0  0  0  0  0  0
   55.2307   30.7398   43.1993 H   0  0  0  0  0  0  0  0  0  0  0  0
   56.8809   30.0303   43.1993 H   0  0  0  0  0  0  0  0  0  0  0  0
   59.2750   32.0290   46.0000 C   0  0  0  0  0  0  0  0  0  0  0  0
   59.2946   30.9590   45.7457 H   0  0  0  0  0  0  0  0  0  0  0  0
   60.3940   29.2890   46.9640 C   0  0  0  0  0  0  0  0  0  0  0  0
   60.7540   29.3280   45.6710 C   0  0  0  0  0  0  0  0  0  0  0  0
   61.2511   30.2214   45.2652 H   0  0  0  0  0  0  0  0  0  0  0  0
   60.5518   28.4665   45.0176 H   0  0  0  0  0  0  0  0  0  0  0  0
  1  2  1  0
  2  3  1  0
  3  4  1  0
  4  5  1  0
  5  6  2  0
  5  7  1  0
  7  8  1  0
  8  9  2  0
  8 10  1  0
 10 11  1  0
 11 12  1  0
 11 13  2  0
 13 14  1  0
 14 15  1  0
 14 16  2  0
 16 17  1  0
 17 18  1  0
 17 19  1  0
 17 20  1  0
 16 21  1  0
 21 22  1  0
 22 23  1  0
 22 24  1  0
 22 25  1  0
 25 26  2  0
 26 27  1  0
 26 28  1  0
 28 29  1  0
 28 30  2  0
 30 31  1  0
 30 32  1  0
 32 33  1  0
 33 34  2  0
 33 35  1  0
 35 36  1  0
 36 37  1  0
 36 38  1  0
 36 39  1  0
 32 40  2  0
 40 41  1  0
 21 42  1  0
 42 43  2  0
 43 44  1  0
 43 45  1  0
 10  3  2  0
 42 13  1  0
 40 25  1  0
M  CHG  2   4  -1   7  -1
M  END
>  <UniqueID>  (11) 
11

>  <SMILES>  (11) 
C=c1/c(=C/c2c(O)[n-]c(=O)[n-]c2=O)cc(C)n1Cc1cccc(C(=O)OC)c1

>  <Energy>  (11) 
83.27929408399969

>  <Genealogy>  (11) 
C=c1c(=Cc2c(O)[n-]c(=O)[n-]c2=O)cc(C)n1Cc1cccc(C(=O)OC)c1 (protonated)
C=c1/c(=C/c2c(O)[n-]c(=O)[n-]c2=O)cc(C)n1Cc1cccc(C(=O)OC)c1 (cis-trans isomerization)
C=c1/c(=C/c2c(O)[n-]c(=O)[n-]c2=O)cc(C)n1Cc1cccc(C(=O)OC)c1 (3D coordinates assigned)
C=c1/c(=C/c2c(O)[n-]c(=O)[n-]c2=O)cc(C)n1Cc1cccc(C(=O)OC)c1 (optimized conformer: 83.27929408399969 kcal/mol)

>  <smiles>  (11) 
C=c1c(=Cc2c(O)[nH]c(=O)[nH]c2=O)cc(C)n1Cc1cccc(C(=O)OC)c1

>  <score_type>  (11) 
oracle

>  <origin>  (11) 
adg

>  <m_score__min__energy>  (11) 
-13.09

>  <m_primary>  (11) 
energy

$$$$
11:0
     RDKit          3D

 53 55  0  0  0  0  0  0  0  0999 V2000
   55.1209   28.5795   45.5973 H   0  0  0  0  0  0  0  0  0  0  0  0
   56.0900   28.9530   45.2350 C   0  0  0  0  0  0  0  0  0  0  0  0
   56.2220   30.2560   44.8700 N   0  0  0  0  0  0  0  0  0  0  0  0
   57.4040   30.7660   44.4240 C   0  0  0  0  0  0  0  0  0  0  0  0
   57.5070   32.0180   44.0840 N   0  0  0  0  0  0  0  0  0  0  0  0
   57.0120   33.1440   44.8760 C   0  0  0  0  0  0  0  0  0  0  0  0
   56.9256   34.0299   44.2297 H   0  0  0  0  0  0  0  0  0  0  0  0
   56.0291   32.8788   45.2927 H   0  0  0  0  0  0  0  0  0  0  0  0
   57.9540   33.4500   46.0120 C   0  0  0  0  0  0  0  0  0  0  0  0
   57.9310   32.6810   47.1860 C   0  0  0  0  0  0  0  0  0  0  0  0
   57.2068   31.8594   47.2885 H   0  0  0  0  0  0  0  0  0  0  0  0
   58.8250   32.9550   48.2260 C   0  0  0  0  0  0  0  0  0  0  0  0
   58.7992   32.3498   49.1442 H   0  0  0  0  0  0  0  0  0  0  0  0
   59.7550   33.9990   48.1030 C   0  0  0  0  0  0  0  0  0  0  0  0
   60.7370   34.2880   49.2080 C   0  0  0  0  0  0  0  0  0  0  0  0
   61.2691   35.2244   48.9842 H   0  0  0  0  0  0  0  0  0  0  0  0
   60.1885   34.3821   50.1568 H   0  0  0  0  0  0  0  0  0  0  0  0
   61.7160   33.1890   49.3280 N   0  0  0  0  0  0  0  0  0  0  0  0
   62.5340   33.2980   50.5680 C   0  0  0  0  0  0  0  0  0  0  0  0
   62.0174   33.9676   51.2714 H   0  0  0  0  0  0  0  0  0  0  0  0
   62.6490   32.2835   50.9774 H   0  0  0  0  0  0  0  0  0  0  0  0
   63.9420   33.8520   50.3090 C   0  0  0  0  0  0  0  0  0  0  0  0
   63.8574   34.8654   49.8896 H   0  0  0  0  0  0  0  0  0  0  0  0
   64.4896   33.8717   51.2628 H   0  0  0  0  0  0  0  0  0  0  0  0
   64.7160   32.9630   49.3210 C   0  0  0  0  0  0  0  0  0  0  0  0
   65.4294   33.5909   48.7671 H   0  0  0  0  0  0  0  0  0  0  0  0
   65.2279   32.1843   49.9055 H   0  0  0  0  0  0  0  0  0  0  0  0
   63.7950   32.2560   48.3110 C   0  0  0  0  0  0  0  0  0  0  0  0
   64.3265   32.1465   47.3542 H   0  0  0  0  0  0  0  0  0  0  0  0
   63.5228   31.2694   48.7142 H   0  0  0  0  0  0  0  0  0  0  0  0
   62.5120   33.0630   48.0830 C   0  0  0  0  0  0  0  0  0  0  0  0
   62.7815   34.0689   47.7286 H   0  0  0  0  0  0  0  0  0  0  0  0
   61.9012   32.5334   47.3370 H   0  0  0  0  0  0  0  0  0  0  0  0
   59.7760   34.7690   46.9300 C   0  0  0  0  0  0  0  0  0  0  0  0
   60.5003   35.5904   46.8272 H   0  0  0  0  0  0  0  0  0  0  0  0
   58.8810   34.4970   45.8920 C   0  0  0  0  0  0  0  0  0  0  0  0
   58.9031   35.1063   44.9765 H   0  0  0  0  0  0  0  0  0  0  0  0
   58.5280   29.9370   44.3480 C   0  0  0  0  0  0  0  0  0  0  0  0
   59.4902   30.3377   43.9965 H   0  0  0  0  0  0  0  0  0  0  0  0
   58.4180   28.5970   44.7220 C   0  0  0  0  0  0  0  0  0  0  0  0
   59.3010   27.9424   44.6799 H   0  0  0  0  0  0  0  0  0  0  0  0
   57.1900   28.0830   45.1500 C   0  0  0  0  0  0  0  0  0  0  0  0
   57.1130   26.7090   45.5530 N   0  0  0  0  0  0  0  0  0  0  0  0
   55.9820   26.0640   46.1490 C   0  0  0  0  0  0  0  0  0  0  0  0
   54.8280   26.3450   45.7310 O   0  0  0  0  0  0  0  0  0  0  0  0
   56.1510   25.1530   47.2410 N   0  0  0  0  0  0  0  0  0  0  0  0
   56.5600   23.7620   47.0810 C   0  0  0  0  0  0  0  0  0  0  0  0
   55.7190   23.1828   46.6720 H   0  0  0  0  0  0  0  0  0  0  0  0
   56.8546   23.3641   48.0633 H   0  0  0  0  0  0  0  0  0  0  0  0
   57.7490   23.6570   46.1320 C   0  0  0  0  0  0  0  0  0  0  0  0
   58.6778   23.5750   46.7156 H   0  0  0  0  0  0  0  0  0  0  0  0
   57.6344   22.7655   45.4979 H   0  0  0  0  0  0  0  0  0  0  0  0
   57.7924   24.5548   45.4979 H   0  0  0  0  0  0  0  0  0  0  0  0
  1  2  1  0
  2  3  1  0
  3  4  1  0
  4  5  2  0
  5  6  1  0
  6  7  1  0
  6  8  1  0
  6  9  1  0
  9 10  2  0
 10 11  1  0
 10 12  1  0
 12 13  1  0
 12 14  2  0
 14 15  1  0
 15 16  1  0
 15 17  1  0
 15 18  1  0
 18 19  1  0
 19 20  1  0
 19 21  1  0
 19 22  1  0
 22 23  1  0
 22 24  1  0
 22 25  1  0
 25 26  1  0
 25 27  1  0
 25 28  1  0
 28 29  1  0
 28 30  1  0
 28 31  1  0
 31 32  1  0
 31 33  1  0
 14 34  1  0
 34 35  1  0
 34 36  2  0
 36 37  1  0
  4 38  1  0
 38 39  1  0
 38 40  2  0
 40 41  1  0
 40 42  1  0
 42 43  1  0
 43 44  1  0
 44 45  2  0
 44 46  1  0
 46 47  1  0
 47 48  1  0
 47 49  1  0
 47 50  1  0
 50 51  1  0
 50 52  1  0
 50 53  1  0
 42  2  2  0
 36  9  1  0
 31 18  1  0
M  CHG  3   3  -1  43  -1  46  -1
M  END
>  <UniqueID>  (12) 
12

>  <SMILES>  (12) 
CC[N-]C(=O)[N-]c1cc/c(=N/Cc2ccc(CN3CCCCC3)cc2)[n-]c1

>  <Energy>  (12) 
59.0459320047663

>  <Genealogy>  (12) 
CC[N-]C(=O)[N-]c1ccc(=NCc2ccc(CN3CCCCC3)cc2)[n-]c1 (protonated)
CC[N-]C(=O)[N-]c1cc/c(=N/Cc2ccc(CN3CCCCC3)cc2)[n-]c1 (cis-trans isomerization)
CC[N-]C(=O)[N-]c1cc/c(=N/Cc2ccc(CN3CCCCC3)cc2)[n-]c1 (3D coordinates assigned)
CC[N-]C(=O)[N-]c1cc/c(=N/Cc2ccc(CN3CCCCC3)cc2)[n-]c1 (nonaromatic ring conformer: 59.0459320047663 kcal/mol)

>  <smiles>  (12) 
CCNC(=O)Nc1ccc(=NCc2ccc(CN3CCCCC3)cc2)[nH]c1

>  <score_type>  (12) 
oracle

>  <origin>  (12) 
adg

>  <m_score__min__energy>  (12) 
-14.1

>  <m_primary>  (12) 
energy

$$$$
12:0
     RDKit          3D

 67 71  0  0  0  0  0  0  0  0999 V2000
   63.6800   33.8250   48.5720 C   0  0  0  0  0  0  0  0  0  0  0  0
   62.6610   33.1300   47.2830 S   0  0  0  0  0  0  0  0  0  0  0  0
   62.9640   33.8330   45.9880 O   0  0  0  0  0  0  0  0  0  0  0  0
   62.9530   31.6660   47.1220 O   0  0  0  0  0  0  0  0  0  0  0  0
   60.9860   33.3670   47.6700 N   0  0  0  0  0  0  0  0  0  0  0  0
   59.9280   33.5840   46.7270 C   0  0  0  0  0  0  0  0  0  0  0  0
   59.7930   34.7900   46.0150 C   0  0  0  0  0  0  0  0  0  0  0  0
   58.7650   34.9440   45.0820 C   0  0  0  0  0  0  0  0  0  0  0  0
   57.8590   33.9070   44.8550 C   0  0  0  0  0  0  0  0  0  0  0  0
   57.9640   32.7070   45.5790 C   0  0  0  0  0  0  0  0  0  0  0  0
   57.0840   31.6000   45.3410 N   0  0  0  0  0  0  0  0  0  0  0  0
   57.0250   30.8160   44.1420 C   0  0  0  0  0  0  0  0  0  0  0  0
   57.2490   31.3450   43.0190 O   0  0  0  0  0  0  0  0  0  0  0  0
   56.5720   29.3840   44.2030 C   0  0  0  0  0  0  0  0  0  0  0  0
   57.6840   28.4800   44.5700 N   0  0  0  0  0  0  0  0  0  0  0  0
   59.0080   29.0990   44.2990 C   0  0  0  0  0  0  0  0  0  0  0  0
   59.6610   29.6780   45.5630 C   0  0  0  0  0  0  0  0  0  0  0  0
   59.9090   28.5620   46.6040 C   0  0  0  0  0  0  0  0  0  0  0  0
   59.9940   29.1000   48.0120 C   0  0  0  0  0  0  0  0  0  0  0  0
   58.9040   29.2280   48.8530 C   0  0  0  0  0  0  0  0  0  0  0  0
   59.3020   30.0360   49.9050 C   0  0  0  0  0  0  0  0  0  0  0  0
   58.4230   30.5450   50.9900 C   0  0  0  0  0  0  0  0  0  0  0  0
   57.8900   31.8450   50.9460 C   0  0  0  0  0  0  0  0  0  0  0  0
   57.0540   32.2870   51.9760 C   0  0  0  0  0  0  0  0  0  0  0  0
   56.7680   31.4680   53.0210 N   0  0  0  0  0  0  0  0  0  0  0  0
   57.2770   30.2120   53.1010 C   0  0  0  0  0  0  0  0  0  0  0  0
   58.1140   29.7300   52.0930 C   0  0  0  0  0  0  0  0  0  0  0  0
   60.6330   30.3630   49.6540 C   0  0  0  0  0  0  0  0  0  0  0  0
   61.4270   31.3860   50.3500 C   0  0  0  0  0  0  0  0  0  0  0  0
   60.8890   32.6620   50.5750 C   0  0  0  0  0  0  0  0  0  0  0  0
   61.6430   33.6350   51.2380 C   0  0  0  0  0  0  0  0  0  0  0  0
   62.9370   33.3340   51.6860 C   0  0  0  0  0  0  0  0  0  0  0  0
   63.6690   34.2760   52.3320 F   0  0  0  0  0  0  0  0  0  0  0  0
   63.4790   32.0620   51.4610 C   0  0  0  0  0  0  0  0  0  0  0  0
   62.7290   31.0910   50.7880 C   0  0  0  0  0  0  0  0  0  0  0  0
   61.0390   29.7980   48.5020 N   0  0  0  0  0  0  0  0  0  0  0  0
   58.8500   27.4390   46.5190 C   0  0  0  0  0  0  0  0  0  0  0  0
   57.5280   27.9670   45.9560 C   0  0  0  0  0  0  0  0  0  0  0  0
   59.0080   32.5520   46.5020 C   0  0  0  0  0  0  0  0  0  0  0  0
   63.2704   33.5456   49.5539 H   0  0  0  0  0  0  0  0  0  0  0  0
   64.7050   33.4369   48.4784 H   0  0  0  0  0  0  0  0  0  0  0  0
   63.6929   34.9209   48.4784 H   0  0  0  0  0  0  0  0  0  0  0  0
   60.4993   35.6142   46.1937 H   0  0  0  0  0  0  0  0  0  0  0  0
   58.6691   35.8869   44.5236 H   0  0  0  0  0  0  0  0  0  0  0  0
   57.0610   34.0291   44.1078 H   0  0  0  0  0  0  0  0  0  0  0  0
   55.7741   29.2930   44.9547 H   0  0  0  0  0  0  0  0  0  0  0  0
   56.2056   29.0946   43.2070 H   0  0  0  0  0  0  0  0  0  0  0  0
   59.6752   28.3327   43.8776 H   0  0  0  0  0  0  0  0  0  0  0  0
   58.8488   29.9303   43.5964 H   0  0  0  0  0  0  0  0  0  0  0  0
   60.6213   30.1422   45.2942 H   0  0  0  0  0  0  0  0  0  0  0  0
   58.9862   30.4287   46.0001 H   0  0  0  0  0  0  0  0  0  0  0  0
   60.8867   28.1262   46.3508 H   0  0  0  0  0  0  0  0  0  0  0  0
   57.9114   28.7751   48.7133 H   0  0  0  0  0  0  0  0  0  0  0  0
   58.1296   32.5119   50.1047 H   0  0  0  0  0  0  0  0  0  0  0  0
   56.6271   33.3001   51.9398 H   0  0  0  0  0  0  0  0  0  0  0  0
   57.0295   29.5730   53.9615 H   0  0  0  0  0  0  0  0  0  0  0  0
   58.5309   28.7144   52.1617 H   0  0  0  0  0  0  0  0  0  0  0  0
   59.8717   32.8975   50.2290 H   0  0  0  0  0  0  0  0  0  0  0  0
   61.2211   34.6365   51.4081 H   0  0  0  0  0  0  0  0  0  0  0  0
   64.4941   31.8265   51.8133 H   0  0  0  0  0  0  0  0  0  0  0  0
   63.1592   30.0959   50.6017 H   0  0  0  0  0  0  0  0  0  0  0  0
   61.9520   29.9760   48.0270 H   0  0  0  0  0  0  0  0  0  0  0  0
   59.2259   26.6401   45.8629 H   0  0  0  0  0  0  0  0  0  0  0  0
   58.6679   27.0541   47.5332 H   0  0  0  0  0  0  0  0  0  0  0  0
   56.7910   27.1504   45.9526 H   0  0  0  0  0  0  0  0  0  0  0  0
   57.1932   28.7991   46.5929 H   0  0  0  0  0  0  0  0  0  0  0  0
   59.1059   31.6073   47.0569 H   0  0  0  0  0  0  0  0  0  0  0  0
  1  2  1  0
  2  3  2  0
  2  4  2  0
  2  5  1  0
  5  6  1  0
  6  7  2  0
  7  8  1  0
  8  9  2  0
  9 10  1  0
 10 11  1  0
 11 12  1  0
 12 13  2  0
 12 14  1  0
 14 15  1  0
 15 16  1  0
 16 17  1  0
 17 18  1  0
 18 19  1  0
 19 20  2  0
 20 21  1  0
 21 22  1  0
 22 23  2  0
 23 24  1  0
 24 25  2  0
 25 26  1  0
 26 27  2  0
 21 28  2  0
 28 29  1  0
 29 30  2  0
 30 31  1  0
 31 32  2  0
 32 33  1  0
 32 34  1  0
 34 35  2  0
 28 36  1  0
 18 37  1  0
 37 38  1  0
 10 39  2  0
 39  6  1  0
 38 15  1  0
 36 19  1  0
 27 22  1  0
 35 29  1  0
  1 40  1  0
  1 41  1  0
  1 42  1  0
  7 43  1  0
  8 44  1  0
  9 45  1  0
 14 46  1  0
 14 47  1  0
 16 48  1  0
 16 49  1  0
 17 50  1  0
 17 51  1  0
 18 52  1  0
 20 53  1  0
 23 54  1  0
 24 55  1  0
 26 56  1  0
 27 57  1  0
 30 58  1  0
 31 59  1  0
 34 60  1  0
 35 61  1  0
 36 62  1  0
 37 63  1  0
 37 64  1  0
 38 65  1  0
 38 66  1  0
 39 67  1  0
M  CHG  2   5  -1  11  -1
M  END
>  <UniqueID>  (13) 
13

>  <SMILES>  (13) 
CS(=O)(=O)[N-]c1cccc([N-]C(=O)CN2CCC(c3cc(-c4ccncc4)c(-c4ccc(F)cc4)[nH]3)CC2)c1

>  <Energy>  (13) 
120.98194150822054

>  <Genealogy>  (13) 
CS(=O)(=O)[N-]c1cccc([N-]C(=O)CN2CCC(c3cc(-c4ccncc4)c(-c4ccc(F)cc4)[nH]3)CC2)c1 (protonated)
CS(=O)(=O)[N-]c1cccc([N-]C(=O)CN2CCC(c3cc(-c4ccncc4)c(-c4ccc(F)cc4)[nH]3)CC2)c1 (3D coordinates assigned)
CS(=O)(=O)[N-]c1cccc([N-]C(=O)CN2CCC(c3cc(-c4ccncc4)c(-c4ccc(F)cc4)[nH]3)CC2)c1 (nonaromatic ring conformer: 120.98194150822054 kcal/mol)

>  <smiles>  (13) 
CS(=O)(=O)Nc1cccc(NC(=O)CN2CCC(c3cc(-c4ccncc4)c(-c4ccc(F)cc4)[nH]3)CC2)c1

>  <score_type>  (13) 
oracle

>  <origin>  (13) 
adg

>  <m_score__min__energy>  (13) 
-14.4

>  <m_primary>  (13) 
energy

$$$$
13:0
     RDKit          3D

 85 86  0  0  0  0  0  0  0  0999 V2000
   56.1480   29.8460   43.8420 C   0  0  0  0  0  0  0  0  0  0  0  0
   57.0980   31.0230   43.6290 C   0  0  0  0  0  0  0  0  0  0  0  0
   57.0970   32.0200   44.8020 C   0  0  0  0  0  0  0  0  0  0  0  0
   57.7570   33.3800   44.5030 C   0  0  0  0  0  0  0  0  0  0  0  0
   59.1760   33.4990   45.0880 C   0  0  0  0  0  0  0  0  0  0  0  0
   59.4780   34.9150   45.6030 C   0  0  0  0  0  0  0  0  0  0  0  0
   59.2690   35.0470   47.1210 C   0  0  0  0  0  0  0  0  0  0  0  0
   59.5070   33.7270   47.8730 C   0  0  0  0  0  0  0  0  0  0  0  0
   59.6710   33.9230   49.3920 C   0  0  0  0  0  0  0  0  0  0  0  0
   61.1280   34.1930   49.7910 C   0  0  0  0  0  0  0  0  0  0  0  0
   61.6580   33.2970   50.8630 N   0  0  0  0  0  0  0  0  0  0  0  0
   63.1430   33.4610   50.8830 C   0  0  0  0  0  0  0  0  0  0  0  0
   63.8510   32.7370   49.7210 C   0  0  0  0  0  0  0  0  0  0  0  0
   63.0590   31.5360   49.1840 C   0  0  0  0  0  0  0  0  0  0  0  0
   62.8330   31.6600   47.6680 C   0  0  0  0  0  0  0  0  0  0  0  0
   63.6620   32.7920   47.0430 C   0  0  0  0  0  0  0  0  0  0  0  0
   62.7940   33.8540   46.3700 C   0  0  0  0  0  0  0  0  0  0  0  0
   61.0740   33.6450   52.1980 C   0  0  0  0  0  0  0  0  0  0  0  0
   60.5610   32.4270   53.0110 C   0  0  1  0  0  0  0  0  0  0  0  0
   59.9800   32.8170   54.2270 O   0  0  0  0  0  0  0  0  0  0  0  0
   59.5820   31.5530   52.2600 C   0  0  0  0  0  0  0  0  0  0  0  0
   59.8710   31.1140   50.9630 C   0  0  0  0  0  0  0  0  0  0  0  0
   58.9180   30.3490   50.2710 C   0  0  0  0  0  0  0  0  0  0  0  0
   59.1860   29.7820   48.9210 C   0  0  0  0  0  0  0  0  0  0  0  0
   59.6930   28.4770   48.7500 C   0  0  0  0  0  0  0  0  0  0  0  0
   59.9080   27.9620   47.4680 C   0  0  0  0  0  0  0  0  0  0  0  0
   59.6070   28.7260   46.3310 C   0  0  0  0  0  0  0  0  0  0  0  0
   59.8710   28.1820   44.9480 C   0  0  0  0  0  0  0  0  0  0  0  0
   59.6060   26.8250   44.9340 F   0  0  0  0  0  0  0  0  0  0  0  0
   59.0670   28.8080   44.0130 F   0  0  0  0  0  0  0  0  0  0  0  0
   61.1930   28.3900   44.5920 F   0  0  0  0  0  0  0  0  0  0  0  0
   59.1520   30.0450   46.4970 C   0  0  0  0  0  0  0  0  0  0  0  0
   58.9340   30.5630   47.7760 C   0  0  0  0  0  0  0  0  0  0  0  0
   57.7210   30.1020   50.8670 N   0  0  0  0  0  0  0  0  0  0  0  0
   57.4320   30.5620   52.1130 C   0  0  0  0  0  0  0  0  0  0  0  0
   56.1740   30.3430   52.6810 O   0  0  0  0  0  0  0  0  0  0  0  0
   55.7960   29.0960   53.2560 C   0  0  0  0  0  0  0  0  0  0  0  0
   58.3690   31.2600   52.8100 N   0  0  0  0  0  0  0  0  0  0  0  0
   56.0108   29.6760   44.9201 H   0  0  0  0  0  0  0  0  0  0  0  0
   55.1756   30.0713   43.3796 H   0  0  0  0  0  0  0  0  0  0  0  0
   56.5734   28.9431   43.3796 H   0  0  0  0  0  0  0  0  0  0  0  0
   58.1182   30.6312   43.5035 H   0  0  0  0  0  0  0  0  0  0  0  0
   56.7526   31.5659   42.7369 H   0  0  0  0  0  0  0  0  0  0  0  0
   56.0520   32.2045   45.0918 H   0  0  0  0  0  0  0  0  0  0  0  0
   57.6968   31.5565   45.5992 H   0  0  0  0  0  0  0  0  0  0  0  0
   57.8151   33.5096   43.4122 H   0  0  0  0  0  0  0  0  0  0  0  0
   57.1390   34.1577   44.9755 H   0  0  0  0  0  0  0  0  0  0  0  0
   59.2747   32.7903   45.9234 H   0  0  0  0  0  0  0  0  0  0  0  0
   59.8915   33.2740   44.2834 H   0  0  0  0  0  0  0  0  0  0  0  0
   60.5244   35.1599   45.3684 H   0  0  0  0  0  0  0  0  0  0  0  0
   58.7800   35.6064   45.1083 H   0  0  0  0  0  0  0  0  0  0  0  0
   59.9687   35.8026   47.5076 H   0  0  0  0  0  0  0  0  0  0  0  0
   58.2212   35.3379   47.2867 H   0  0  0  0  0  0  0  0  0  0  0  0
   58.6486   33.0624   47.6956 H   0  0  0  0  0  0  0  0  0  0  0  0
   60.4447   33.2953   47.4930 H   0  0  0  0  0  0  0  0  0  0  0  0
   59.0539   34.7774   49.7070 H   0  0  0  0  0  0  0  0  0  0  0  0
   59.3535   32.9935   49.8872 H   0  0  0  0  0  0  0  0  0  0  0  0
   61.7569   34.0673   48.8973 H   0  0  0  0  0  0  0  0  0  0  0  0
   61.1544   35.2144   50.1985 H   0  0  0  0  0  0  0  0  0  0  0  0
   63.3768   34.5340   50.8203 H   0  0  0  0  0  0  0  0  0  0  0  0
   63.5083   33.0117   51.8183 H   0  0  0  0  0  0  0  0  0  0  0  0
   63.9979   33.4542   48.9000 H   0  0  0  0  0  0  0  0  0  0  0  0
   64.8055   32.3518   50.1091 H   0  0  0  0  0  0  0  0  0  0  0  0
   63.6210   30.6131   49.3899 H   0  0  0  0  0  0  0  0  0  0  0  0
   62.0795   31.5096   49.6839 H   0  0  0  0  0  0  0  0  0  0  0  0
   63.1150   30.7103   47.1900 H   0  0  0  0  0  0  0  0  0  0  0  0
   61.7704   31.8933   47.5053 H   0  0  0  0  0  0  0  0  0  0  0  0
   64.2557   33.2723   47.8348 H   0  0  0  0  0  0  0  0  0  0  0  0
   64.3034   32.3464   46.2684 H   0  0  0  0  0  0  0  0  0  0  0  0
   62.2966   34.4626   47.1395 H   0  0  0  0  0  0  0  0  0  0  0  0
   63.4257   34.5004   45.7430 H   0  0  0  0  0  0  0  0  0  0  0  0
   62.0348   33.3636   45.7430 H   0  0  0  0  0  0  0  0  0  0  0  0
   61.8493   34.1523   52.7909 H   0  0  0  0  0  0  0  0  0  0  0  0
   60.1989   34.2818   52.0012 H   0  0  0  0  0  0  0  0  0  0  0  0
   61.4638   31.8280   53.2011 H   0  0  0  0  0  0  0  0  0  0  0  0
   60.5800   33.4910   54.6450 H   0  0  0  0  0  0  0  0  0  0  0  0
   60.8326   31.3650   50.4914 H   0  0  0  0  0  0  0  0  0  0  0  0
   59.9209   27.8599   49.6316 H   0  0  0  0  0  0  0  0  0  0  0  0
   60.3172   26.9478   47.3500 H   0  0  0  0  0  0  0  0  0  0  0  0
   58.9662   30.6740   45.6139 H   0  0  0  0  0  0  0  0  0  0  0  0
   58.5616   31.5917   47.8902 H   0  0  0  0  0  0  0  0  0  0  0  0
   55.8201   29.1757   54.3528 H   0  0  0  0  0  0  0  0  0  0  0  0
   54.7784   28.8352   52.9296 H   0  0  0  0  0  0  0  0  0  0  0  0
   56.4975   28.3141   52.9296 H   0  0  0  0  0  0  0  0  0  0  0  0
   58.1280   31.6000   53.7690 H   0  0  0  0  0  0  0  0  0  0  0  0
  1  2  1  0
  2  3  1  0
  3  4  1  0
  4  5  1  0
  5  6  1  0
  6  7  1  0
  7  8  1  0
  8  9  1  0
  9 10  1  0
 10 11  1  0
 11 12  1  0
 12 13  1  0
 13 14  1  0
 14 15  1  0
 15 16  1  0
 16 17  1  0
 11 18  1  0
 18 19  1  0
 19 20  1  0
 19 21  1  0
 21 22  2  0
 22 23  1  0
 23 24  1  0
 24 25  2  0
 25 26  1  0
 26 27  2  0
 27 28  1  0
 28 29  1  0
 28 30  1  0
 28 31  1  0
 27 32  1  0
 32 33  2  0
 23 34  2  0
 34 35  1  0
 35 36  1  0
 36 37  1  0
 35 38  2  0
 38 21  1  0
 33 24  1  0
  1 39  1  0
  1 40  1  0
  1 41  1  0
  2 42  1  0
  2 43  1  0
  3 44  1  0
  3 45  1  0
  4 46  1  0
  4 47  1  0
  5 48  1  0
  5 49  1  0
  6 50  1  0
  6 51  1  0
  7 52  1  0
  7 53  1  0
  8 54  1  0
  8 55  1  0
  9 56  1  0
  9 57  1  0
 10 58  1  0
 10 59  1  0
 12 60  1  0
 12 61  1  0
 13 62  1  0
 13 63  1  0
 14 64  1  0
 14 65  1  0
 15 66  1  0
 15 67  1  0
 16 68  1  0
 16 69  1  0
 17 70  1  0
 17 71  1  0
 17 72  1  0
 18 73  1  0
 18 74  1  0
 19 75  1  1
 20 76  1  0
 22 77  1  0
 25 78  1  0
 26 79  1  0
 32 80  1  0
 33 81  1  0
 37 82  1  0
 37 83  1  0
 37 84  1  0
 38 85  1  0
M  CHG  1  38   1
M  END
>  <UniqueID>  (14) 
14

>  <SMILES>  (14) 
CCCCCCCCCCN(CCCCCC)C[C@@H](O)c1cc(-c2ccc(C(F)(F)F)cc2)nc(OC)[nH+]1

>  <Energy>  (14) 
69.85085676119647

>  <Genealogy>  (14) 
CCCCCCCCCCN(CCCCCC)CC(O)c1cc(-c2ccc(C(F)(F)F)cc2)nc(OC)[nH+]1 (protonated)
CCCCCCCCCCN(CCCCCC)C[C@@H](O)c1cc(-c2ccc(C(F)(F)F)cc2)nc(OC)[nH+]1 (chirality)
CCCCCCCCCCN(CCCCCC)C[C@@H](O)c1cc(-c2ccc(C(F)(F)F)cc2)nc(OC)[nH+]1 (3D coordinates assigned)
CCCCCCCCCCN(CCCCCC)C[C@@H](O)c1cc(-c2ccc(C(F)(F)F)cc2)nc(OC)[nH+]1 (optimized conformer: 69.85085676119647 kcal/mol)

>  <smiles>  (14) 
CCCCCCCCCCN(CCCCCC)CC(O)c1cc(-c2ccc(C(F)(F)F)cc2)nc(OC)n1

>  <score_type>  (14) 
oracle

>  <origin>  (14) 
adg

>  <m_score__min__energy>  (14) 
-5.9000000000000004

>  <m_primary>  (14) 
energy

$$$$
14:0
     RDKit          3D

 26 27  0  0  0  0  0  0  0  0999 V2000
   58.5710   31.7540   45.6140 C   0  0  0  0  0  0  0  0  0  0  0  0
   57.7800   30.4890   45.5110 C   0  0  0  0  0  0  0  0  0  0  0  0
   58.2290   29.3210   46.1360 C   0  0  0  0  0  0  0  0  0  0  0  0
   57.4490   28.1680   46.0290 C   0  0  0  0  0  0  0  0  0  0  0  0
   57.9670   26.6450   46.8230 S   0  0  0  0  0  0  0  0  0  0  0  0
   58.1930   25.7230   45.2630 C   0  0  0  0  0  0  0  0  0  0  0  0
   56.9790   24.8990   44.9500 C   0  0  0  0  0  0  0  0  0  0  0  0
   57.0400   23.8530   44.0230 C   0  0  0  0  0  0  0  0  0  0  0  0
   55.8910   23.0940   43.7960 C   0  0  0  0  0  0  0  0  0  0  0  0
   55.9180   22.1440   42.9700 O   0  0  0  0  0  0  0  0  0  0  0  0
   54.7440   23.3800   44.4700 N   0  0  0  0  0  0  0  0  0  0  0  0
   54.7040   24.3990   45.3710 C   0  0  0  0  0  0  0  0  0  0  0  0
   53.6380   24.6540   45.9920 O   0  0  0  0  0  0  0  0  0  0  0  0
   55.8140   25.1450   45.6060 N   0  0  0  0  0  0  0  0  0  0  0  0
   56.2880   28.1980   45.3240 N   0  0  0  0  0  0  0  0  0  0  0  0
   55.8640   29.3410   44.7260 C   0  0  0  0  0  0  0  0  0  0  0  0
   54.7830   29.3500   44.0830 O   0  0  0  0  0  0  0  0  0  0  0  0
   56.6060   30.4760   44.8240 N   0  0  0  0  0  0  0  0  0  0  0  0
   58.7271   32.0036   46.6739 H   0  0  0  0  0  0  0  0  0  0  0  0
   59.5454   31.6183   45.1219 H   0  0  0  0  0  0  0  0  0  0  0  0
   58.0223   32.5706   45.1219 H   0  0  0  0  0  0  0  0  0  0  0  0
   59.1743   29.3111   46.6985 H   0  0  0  0  0  0  0  0  0  0  0  0
   58.3652   26.4368   44.4440 H   0  0  0  0  0  0  0  0  0  0  0  0
   59.0565   25.0506   45.3730 H   0  0  0  0  0  0  0  0  0  0  0  0
   57.9737   23.6334   43.4845 H   0  0  0  0  0  0  0  0  0  0  0  0
   53.8860   22.8080   44.2960 H   0  0  0  0  0  0  0  0  0  0  0  0
  1  2  1  0
  2  3  2  0
  3  4  1  0
  4  5  1  0
  5  6  1  0
  6  7  1  0
  7  8  2  0
  8  9  1  0
  9 10  2  0
  9 11  1  0
 11 12  1  0
 12 13  2  0
 12 14  1  0
  4 15  2  0
 15 16  1  0
 16 17  2  0
 16 18  1  0
 18  2  1  0
 14  7  1  0
  1 19  1  0
  1 20  1  0
  1 21  1  0
  3 22  1  0
  6 23  1  0
  6 24  1  0
  8 25  1  0
 11 26  1  0
M  CHG  2  14  -1  18  -1
M  END
>  <UniqueID>  (15) 
15

>  <SMILES>  (15) 
Cc1cc(SCc2cc(=O)[nH]c(=O)[n-]2)nc(=O)[n-]1

>  <Energy>  (15) 
22.05093023626506

>  <Genealogy>  (15) 
Cc1cc(SCc2cc(=O)[nH]c(=O)[n-]2)nc(=O)[n-]1 (protonated)
Cc1cc(SCc2cc(=O)[nH]c(=O)[n-]2)nc(=O)[n-]1 (3D coordinates assigned)
Cc1cc(SCc2cc(=O)[nH]c(=O)[n-]2)nc(=O)[n-]1 (optimized conformer: 22.05093023626506 kcal/mol)

>  <smiles>  (15) 
Cc1cc(SCc2cc(=O)[nH]c(=O)[nH]2)nc(=O)[nH]1

>  <score_type>  (15) 
oracle

>  <origin>  (15) 
adg

>  <m_score__min__energy>  (15) 
-10.26

>  <m_primary>  (15) 
energy

$$$$
15:0
     RDKit          3D

 61 64  0  0  0  0  0  0  0  0999 V2000
   58.5193   33.1242   43.2068 H   0  0  0  0  0  0  0  0  0  0  0  0
   58.1820   32.8640   44.2210 C   0  0  0  0  0  0  0  0  0  0  0  0
   58.0550   33.8420   45.1310 C   0  0  0  0  0  0  0  0  0  0  0  0
   57.4964   34.7463   44.8480 H   0  0  0  0  0  0  0  0  0  0  0  0
   58.6270   33.7700   46.4980 C   0  0  0  0  0  0  0  0  0  0  0  0
   59.5870   34.6870   46.9660 C   0  0  0  0  0  0  0  0  0  0  0  0
   59.9487   35.4856   46.3016 H   0  0  0  0  0  0  0  0  0  0  0  0
   60.0840   34.5900   48.2690 C   0  0  0  0  0  0  0  0  0  0  0  0
   60.8385   35.3101   48.6184 H   0  0  0  0  0  0  0  0  0  0  0  0
   59.6300   33.5820   49.1380 C   0  0  0  0  0  0  0  0  0  0  0  0
   60.1450   33.4780   50.4880 N   0  0  0  0  0  0  0  0  0  0  0  0
   59.3120   33.8520   51.6440 C   0  0  0  0  0  0  0  0  0  0  0  0
   58.7490   34.7654   51.4018 H   0  0  0  0  0  0  0  0  0  0  0  0
   59.9687   34.0237   52.5096 H   0  0  0  0  0  0  0  0  0  0  0  0
   58.3290   32.7360   51.9910 C   0  0  0  0  0  0  0  0  0  0  0  0
   58.2487   32.6449   53.0843 H   0  0  0  0  0  0  0  0  0  0  0  0
   57.3411   32.9733   51.5693 H   0  0  0  0  0  0  0  0  0  0  0  0
   58.6891   31.7860   51.5693 H   0  0  0  0  0  0  0  0  0  0  0  0
   61.5150   32.9990   50.7260 C   0  0  0  0  0  0  0  0  0  0  0  0
   61.6379   32.7784   51.7966 H   0  0  0  0  0  0  0  0  0  0  0  0
   61.6786   32.0929   50.1241 H   0  0  0  0  0  0  0  0  0  0  0  0
   62.5420   34.0490   50.3120 C   0  0  0  0  0  0  0  0  0  0  0  0
   62.9855   34.5024   51.2107 H   0  0  0  0  0  0  0  0  0  0  0  0
   63.3325   33.5727   49.7134 H   0  0  0  0  0  0  0  0  0  0  0  0
   62.0483   34.8287   49.7134 H   0  0  0  0  0  0  0  0  0  0  0  0
   58.6600   32.6770   48.6710 C   0  0  0  0  0  0  0  0  0  0  0  0
   58.2898   31.8839   49.3373 H   0  0  0  0  0  0  0  0  0  0  0  0
   58.1620   32.7750   47.3700 C   0  0  0  0  0  0  0  0  0  0  0  0
   57.3967   32.0640   47.0255 H   0  0  0  0  0  0  0  0  0  0  0  0
   57.8860   31.4540   44.5310 C   0  0  0  0  0  0  0  0  0  0  0  0
   56.6060   30.9910   44.5540 N   0  0  0  0  0  0  0  0  0  0  0  0
   56.3230   29.6940   44.8380 C   0  0  0  0  0  0  0  0  0  0  0  0
   55.1220   29.3100   44.8480 O   0  0  0  0  0  0  0  0  0  0  0  0
   57.3700   28.7990   45.1190 C   0  0  0  0  0  0  0  0  0  0  0  0
   57.1450   27.4460   45.4280 C   0  0  0  0  0  0  0  0  0  0  0  0
   56.1172   27.0550   45.4541 H   0  0  0  0  0  0  0  0  0  0  0  0
   58.2260   26.5890   45.7040 C   0  0  0  0  0  0  0  0  0  0  0  0
   57.9920   25.2090   46.0500 N   0  0  0  0  0  0  0  0  0  0  0  0
   58.9280   24.1690   45.6120 C   0  0  0  0  0  0  0  0  0  0  0  0
   59.2899   24.4108   44.6018 H   0  0  0  0  0  0  0  0  0  0  0  0
   59.7698   24.1295   46.3190 H   0  0  0  0  0  0  0  0  0  0  0  0
   58.2380   22.7940   45.5860 C   0  0  0  0  0  0  0  0  0  0  0  0
   58.7844   22.1348   44.8954 H   0  0  0  0  0  0  0  0  0  0  0  0
   58.2449   22.3894   46.6089 H   0  0  0  0  0  0  0  0  0  0  0  0
   56.8310   22.8920   45.1410 N   0  0  0  0  0  0  0  0  0  0  0  0
   56.7310   23.2850   43.7240 C   0  0  0  0  0  0  0  0  0  0  0  0
   56.4602   24.3490   43.6568 H   0  0  0  0  0  0  0  0  0  0  0  0
   57.6995   23.1211   43.2288 H   0  0  0  0  0  0  0  0  0  0  0  0
   55.9587   22.6781   43.2288 H   0  0  0  0  0  0  0  0  0  0  0  0
   55.9990   23.7580   46.0160 C   0  0  0  0  0  0  0  0  0  0  0  0
   55.2708   24.2896   45.3858 H   0  0  0  0  0  0  0  0  0  0  0  0
   55.5173   23.0987   46.7531 H   0  0  0  0  0  0  0  0  0  0  0  0
   56.8070   24.8020   46.8100 C   0  0  0  0  0  0  0  0  0  0  0  0
   56.1760   25.6830   46.9988 H   0  0  0  0  0  0  0  0  0  0  0  0
   57.1273   24.3583   47.7642 H   0  0  0  0  0  0  0  0  0  0  0  0
   59.5340   27.1040   45.6760 C   0  0  0  0  0  0  0  0  0  0  0  0
   60.3847   26.4436   45.9002 H   0  0  0  0  0  0  0  0  0  0  0  0
   59.7630   28.4470   45.3660 C   0  0  0  0  0  0  0  0  0  0  0  0
   60.7913   28.8367   45.3408 H   0  0  0  0  0  0  0  0  0  0  0  0
   58.6890   29.2960   45.0880 C   0  0  0  0  0  0  0  0  0  0  0  0
   58.9130   30.6040   44.7960 N   0  0  0  0  0  0  0  0  0  0  0  0
  1  2  1  0
  2  3  2  0
  3  4  1  0
  3  5  1  0
  5  6  2  0
  6  7  1  0
  6  8  1  0
  8  9  1  0
  8 10  2  0
 10 11  1  0
 11 12  1  0
 12 13  1  0
 12 14  1  0
 12 15  1  0
 15 16  1  0
 15 17  1  0
 15 18  1  0
 11 19  1  0
 19 20  1  0
 19 21  1  0
 19 22  1  0
 22 23  1  0
 22 24  1  0
 22 25  1  0
 10 26  1  0
 26 27  1  0
 26 28  2  0
 28 29  1  0
  2 30  1  0
 30 31  2  0
 31 32  1  0
 32 33  2  0
 32 34  1  0
 34 35  2  0
 35 36  1  0
 35 37  1  0
 37 38  1  0
 38 39  1  0
 39 40  1  0
 39 41  1  0
 39 42  1  0
 42 43  1  0
 42 44  1  0
 42 45  1  0
 45 46  1  0
 46 47  1  0
 46 48  1  0
 46 49  1  0
 45 50  1  0
 50 51  1  0
 50 52  1  0
 50 53  1  0
 53 54  1  0
 53 55  1  0
 37 56  2  0
 56 57  1  0
 56 58  1  0
 58 59  1  0
 58 60  2  0
 60 61  1  0
 28  5  1  0
 61 30  1  0
 60 34  1  0
 53 38  1  0
M  CHG  1  61  -1
M  END
>  <UniqueID>  (16) 
16

>  <SMILES>  (16) 
CCN(CC)c1ccc(/C=C/c2nc(=O)c3cc(N4CCN(C)CC4)ccc3[n-]2)cc1

>  <Energy>  (16) 
79.13365878596214

>  <Genealogy>  (16) 
CCN(CC)c1ccc(C=Cc2nc(=O)c3cc(N4CCN(C)CC4)ccc3[n-]2)cc1 (protonated)
CCN(CC)c1ccc(/C=C/c2nc(=O)c3cc(N4CCN(C)CC4)ccc3[n-]2)cc1 (cis-trans isomerization)
CCN(CC)c1ccc(/C=C/c2nc(=O)c3cc(N4CCN(C)CC4)ccc3[n-]2)cc1 (3D coordinates assigned)
CCN(CC)c1ccc(/C=C/c2nc(=O)c3cc(N4CCN(C)CC4)ccc3[n-]2)cc1 (nonaromatic ring conformer: 79.13365878596214 kcal/mol)

>  <smiles>  (16) 
CCN(CC)c1ccc(C=Cc2nc(=O)c3cc(N4CCN(C)CC4)ccc3[nH]2)cc1

>  <score_type>  (16) 
oracle

>  <origin>  (16) 
adg

>  <m_score__min__energy>  (16) 
-10.75

>  <m_primary>  (16) 
energy

$$$$
16:0
     RDKit          3D

 45 47  0  0  0  0  0  0  0  0999 V2000
   60.9070   28.8120   45.1180 C   0  0  0  0  0  0  0  0  0  0  0  0
   60.7400   29.3380   46.5200 C   0  0  0  0  0  0  0  0  0  0  0  0
   60.7150   30.7310   46.7120 C   0  0  0  0  0  0  0  0  0  0  0  0
   60.5240   31.2720   47.9840 C   0  0  0  0  0  0  0  0  0  0  0  0
   60.3580   30.4310   49.0830 C   0  0  0  0  0  0  0  0  0  0  0  0
   60.3950   29.0460   48.9150 C   0  0  0  0  0  0  0  0  0  0  0  0
   60.6010   28.4780   47.6430 C   0  0  0  0  0  0  0  0  0  0  0  0
   60.6640   26.9990   47.5400 C   0  0  0  0  0  0  0  0  0  0  0  0
   61.3910   26.3530   48.3430 O   0  0  0  0  0  0  0  0  0  0  0  0
   59.9070   26.3060   46.5380 N   0  0  0  0  0  0  0  0  0  0  0  0
   58.4840   26.3510   46.3540 C   0  0  0  0  0  0  0  0  0  0  0  0
   57.7120   25.2960   46.8500 C   0  0  0  0  0  0  0  0  0  0  0  0
   56.3240   25.3030   46.6970 C   0  0  0  0  0  0  0  0  0  0  0  0
   55.6900   26.3790   46.0690 C   0  0  0  0  0  0  0  0  0  0  0  0
   54.3150   26.3310   45.8690 O   0  0  0  0  0  0  0  0  0  0  0  0
   56.4490   27.4790   45.6250 C   0  0  0  0  0  0  0  0  0  0  0  0
   55.8420   28.6140   44.9930 N   0  0  0  0  0  0  0  0  0  0  0  0
   56.5070   29.8470   44.6970 C   0  0  0  0  0  0  0  0  0  0  0  0
   56.0920   30.5930   43.7680 O   0  0  0  0  0  0  0  0  0  0  0  0
   57.7040   30.2500   45.4970 C   0  0  0  0  0  0  0  0  0  0  0  0
   57.9130   31.7390   45.3930 C   0  0  0  0  0  0  0  0  0  0  0  0
   57.7990   32.5400   46.5420 C   0  0  0  0  0  0  0  0  0  0  0  0
   58.0270   33.9170   46.4700 C   0  0  0  0  0  0  0  0  0  0  0  0
   58.3770   34.5060   45.2530 C   0  0  0  0  0  0  0  0  0  0  0  0
   58.5080   33.7190   44.1060 C   0  0  0  0  0  0  0  0  0  0  0  0
   58.2870   32.3350   44.1690 C   0  0  0  0  0  0  0  0  0  0  0  0
   58.4360   31.5530   43.0240 O   0  0  0  0  0  0  0  0  0  0  0  0
   57.8440   27.4480   45.7510 C   0  0  0  0  0  0  0  0  0  0  0  0
   61.2397   27.7642   45.1567 H   0  0  0  0  0  0  0  0  0  0  0  0
   59.9456   28.8721   44.5869 H   0  0  0  0  0  0  0  0  0  0  0  0
   61.6577   29.4157   44.5869 H   0  0  0  0  0  0  0  0  0  0  0  0
   60.8475   31.4014   45.8500 H   0  0  0  0  0  0  0  0  0  0  0  0
   60.5044   32.3634   48.1195 H   0  0  0  0  0  0  0  0  0  0  0  0
   60.1977   30.8592   50.0835 H   0  0  0  0  0  0  0  0  0  0  0  0
   60.2615   28.3896   49.7875 H   0  0  0  0  0  0  0  0  0  0  0  0
   58.2010   24.4553   47.3639 H   0  0  0  0  0  0  0  0  0  0  0  0
   55.7272   24.4585   47.0721 H   0  0  0  0  0  0  0  0  0  0  0  0
   57.5473   29.9764   46.5509 H   0  0  0  0  0  0  0  0  0  0  0  0
   58.5920   29.7315   45.1063 H   0  0  0  0  0  0  0  0  0  0  0  0
   57.5286   32.0803   47.5041 H   0  0  0  0  0  0  0  0  0  0  0  0
   57.9307   34.5377   47.3730 H   0  0  0  0  0  0  0  0  0  0  0  0
   58.5498   35.5909   45.1974 H   0  0  0  0  0  0  0  0  0  0  0  0
   58.7855   34.1864   43.1497 H   0  0  0  0  0  0  0  0  0  0  0  0
   58.1330   30.5860   42.9980 H   0  0  0  0  0  0  0  0  0  0  0  0
   58.4440   28.2897   45.3747 H   0  0  0  0  0  0  0  0  0  0  0  0
  1  2  1  0
  2  3  2  0
  3  4  1  0
  4  5  2  0
  5  6  1  0
  6  7  2  0
  7  8  1  0
  8  9  2  0
  8 10  1  0
 10 11  1  0
 11 12  2  0
 12 13  1  0
 13 14  2  0
 14 15  1  0
 14 16  1  0
 16 17  1  0
 17 18  1  0
 18 19  2  0
 18 20  1  0
 20 21  1  0
 21 22  2  0
 22 23  1  0
 23 24  2  0
 24 25  1  0
 25 26  2  0
 26 27  1  0
 16 28  2  0
  7  2  1  0
 28 11  1  0
 26 21  1  0
  1 29  1  0
  1 30  1  0
  1 31  1  0
  3 32  1  0
  4 33  1  0
  5 34  1  0
  6 35  1  0
 12 36  1  0
 13 37  1  0
 20 38  1  0
 20 39  1  0
 22 40  1  0
 23 41  1  0
 24 42  1  0
 25 43  1  0
 27 44  1  0
 28 45  1  0
M  CHG  3  10  -1  15  -1  17  -1
M  END
>  <UniqueID>  (17) 
17

>  <SMILES>  (17) 
Cc1ccccc1C(=O)[N-]c1ccc([O-])c([N-]C(=O)Cc2ccccc2O)c1

>  <Energy>  (17) 
59.77012621373787

>  <Genealogy>  (17) 
Cc1ccccc1C(=O)[N-]c1ccc([O-])c([N-]C(=O)Cc2ccccc2O)c1 (protonated)
Cc1ccccc1C(=O)[N-]c1ccc([O-])c([N-]C(=O)Cc2ccccc2O)c1 (3D coordinates assigned)
Cc1ccccc1C(=O)[N-]c1ccc([O-])c([N-]C(=O)Cc2ccccc2O)c1 (optimized conformer: 59.77012621373787 kcal/mol)

>  <smiles>  (17) 
Cc1ccccc1C(=O)Nc1ccc(O)c(NC(=O)Cc2ccccc2O)c1

>  <score_type>  (17) 
oracle

>  <origin>  (17) 
adg

>  <m_score__min__energy>  (17) 
-14.710000000000001

>  <m_primary>  (17) 
energy

$$$$
17:0
     RDKit          3D

 49 52  0  0  0  0  0  0  0  0999 V2000
   64.5410   32.1420   46.8140 H   0  0  0  0  0  0  0  0  0  0  0  0
   63.7120   32.7740   46.8840 N   0  0  0  0  0  0  0  0  0  0  0  0
   62.5470   32.3110   47.2010 C   0  0  0  0  0  0  0  0  0  0  0  0
   62.3970   30.9570   47.4870 O   0  0  0  0  0  0  0  0  0  0  0  0
   61.1530   30.3730   47.8530 C   0  0  1  0  0  0  0  0  0  0  0  0
   61.2503   29.4715   47.2302 H   0  0  0  0  0  0  0  0  0  0  0  0
   60.7910   30.7280   49.2860 C   0  0  0  0  0  0  0  0  0  0  0  0
   61.4506   31.3839   49.8732 H   0  0  0  0  0  0  0  0  0  0  0  0
   60.5548   30.1525   50.1932 H   0  0  0  0  0  0  0  0  0  0  0  0
   59.9740   31.3040   48.1290 C   0  0  1  0  0  0  0  0  0  0  0  0
   58.9080   31.3154   47.8577 H   0  0  0  0  0  0  0  0  0  0  0  0
   60.1060   32.8220   47.7820 C   0  0  1  0  0  0  0  0  0  0  0  0
   59.0110   33.1090   46.7230 C   0  0  0  0  0  0  0  0  0  0  0  0
   58.1760   32.0610   46.2550 C   0  0  0  0  0  0  0  0  0  0  0  0
   58.2758   31.0592   46.6982 H   0  0  0  0  0  0  0  0  0  0  0  0
   57.2300   32.2670   45.2460 C   0  0  0  0  0  0  0  0  0  0  0  0
   56.4350   31.1590   44.7990 N   0  0  0  0  0  0  0  0  0  0  0  0
   56.9330   29.9800   44.1510 C   0  0  0  0  0  0  0  0  0  0  0  0
   56.6090   29.7660   42.9490 O   0  0  0  0  0  0  0  0  0  0  0  0
   57.7890   28.9990   44.8620 C   0  0  0  0  0  0  0  0  0  0  0  0
   59.1860   29.1010   44.7610 C   0  0  0  0  0  0  0  0  0  0  0  0
   59.6334   29.8992   44.1506 H   0  0  0  0  0  0  0  0  0  0  0  0
   60.0100   28.1950   45.4310 C   0  0  0  0  0  0  0  0  0  0  0  0
   61.1031   28.2737   45.3366 H   0  0  0  0  0  0  0  0  0  0  0  0
   59.4500   27.1900   46.2200 C   0  0  0  0  0  0  0  0  0  0  0  0
   60.1061   26.4823   46.7479 H   0  0  0  0  0  0  0  0  0  0  0  0
   58.0610   27.0740   46.3460 C   0  0  0  0  0  0  0  0  0  0  0  0
   57.5400   26.0470   47.2060 N   0  0  0  0  0  0  0  0  0  0  0  0
   56.5320   24.7350   46.6900 S   0  0  0  0  0  0  0  0  0  0  0  0
   57.1440   24.0620   45.4910 O   0  0  0  0  0  0  0  0  0  0  0  0
   55.1570   25.2550   46.3490 O   0  0  0  0  0  0  0  0  0  0  0  0
   56.3770   23.5540   48.0170 C   0  0  0  0  0  0  0  0  0  0  0  0
   56.4456   24.0764   48.9826 H   0  0  0  0  0  0  0  0  0  0  0  0
   55.4044   23.0454   47.9435 H   0  0  0  0  0  0  0  0  0  0  0  0
   57.1854   22.8117   47.9435 H   0  0  0  0  0  0  0  0  0  0  0  0
   57.2270   27.9550   45.6280 C   0  0  0  0  0  0  0  0  0  0  0  0
   55.8860   27.7530   45.6050 F   0  0  0  0  0  0  0  0  0  0  0  0
   57.0800   33.5410   44.6900 C   0  0  0  0  0  0  0  0  0  0  0  0
   56.2989   33.7237   43.9373 H   0  0  0  0  0  0  0  0  0  0  0  0
   57.9180   34.5780   45.0880 C   0  0  0  0  0  0  0  0  0  0  0  0
   57.8071   35.5723   44.6307 H   0  0  0  0  0  0  0  0  0  0  0  0
   58.9010   34.3710   46.0640 C   0  0  0  0  0  0  0  0  0  0  0  0
   60.0050   35.7190   46.3290 Cl  0  0  0  0  0  0  0  0  0  0  0  0
   59.9110   33.6830   49.0680 C   0  0  0  0  0  0  0  0  0  0  0  0
   59.5318   34.6629   48.7425 H   0  0  0  0  0  0  0  0  0  0  0  0
   61.1120   33.8200   49.7480 F   0  0  0  0  0  0  0  0  0  0  0  0
   59.0140   33.0890   49.9350 F   0  0  0  0  0  0  0  0  0  0  0  0
   61.4180   33.1880   47.2290 N   0  0  0  0  0  0  0  0  0  0  0  0
   61.5590   34.1770   46.9170 H   0  0  0  0  0  0  0  0  0  0  0  0
  1  2  1  0
  2  3  2  0
  3  4  1  0
  4  5  1  0
  5  6  1  1
  5  7  1  0
  7  8  1  0
  7  9  1  0
  7 10  1  0
 10 11  1  1
 10 12  1  0
 12 13  1  0
 13 14  2  0
 14 15  1  0
 14 16  1  0
 16 17  1  0
 17 18  1  0
 18 19  2  0
 18 20  1  0
 20 21  2  0
 21 22  1  0
 21 23  1  0
 23 24  1  0
 23 25  2  0
 25 26  1  0
 25 27  1  0
 27 28  1  0
 28 29  1  0
 29 30  2  0
 29 31  2  0
 29 32  1  0
 32 33  1  0
 32 34  1  0
 32 35  1  0
 27 36  2  0
 36 37  1  0
 16 38  2  0
 38 39  1  0
 38 40  1  0
 40 41  1  0
 40 42  2  0
 42 43  1  0
 12 44  1  1
 44 45  1  0
 44 46  1  0
 44 47  1  0
 12 48  1  0
 48 49  1  0
 48  3  1  0
 10  5  1  0
 42 13  1  0
 36 20  1  0
M  CHG  2  17  -1  28  -1
M  END
>  <UniqueID>  (18) 
18

>  <SMILES>  (18) 
[H]/N=C1/N[C@](c2cc([N-]C(=O)c3cccc([N-]S(C)(=O)=O)c3F)ccc2Cl)(C(F)F)C2C[C@@H]2O1

>  <Energy>  (18) 
341.65222007640824

>  <Genealogy>  (18) 
CS(=O)(=O)[N-]c1cccc(C(=O)[N-]c2ccc(Cl)c(C3(C(F)F)NC(=N)OC4CC43)c2)c1F (protonated)
CS(=O)(=O)[N-]c1cccc(C(=O)[N-]c2ccc(Cl)c([C@]3(C(F)F)NC(=N)O[C@H]4CC43)c2)c1F (chirality)
[H]/N=C1/N[C@](c2cc([N-]C(=O)c3cccc([N-]S(C)(=O)=O)c3F)ccc2Cl)(C(F)F)C2C[C@@H]2O1 (cis-trans isomerization)
[H]/N=C1/N[C@](c2cc([N-]C(=O)c3cccc([N-]S(C)(=O)=O)c3F)ccc2Cl)(C(F)F)C2C[C@@H]2O1 (3D coordinates assigned)
[H]/N=C1/N[C@](c2cc([N-]C(=O)c3cccc([N-]S(C)(=O)=O)c3F)ccc2Cl)(C(F)F)C2C[C@@H]2O1 (nonaromatic ring conformer: 341.65222007640824 kcal/mol)

>  <smiles>  (18) 
CS(=O)(=O)Nc1cccc(C(=O)Nc2ccc(Cl)c(C3(C(F)F)NC(=N)OC4CC43)c2)c1F

>  <score_type>  (18) 
oracle

>  <origin>  (18) 
adg

>  <m_score__min__energy>  (18) 
-12.73

>  <m_primary>  (18) 
energy

$$$$
18:0
     RDKit          3D

 54 57  0  0  0  0  0  0  0  0999 V2000
   58.6840   31.0770   51.0370 C   0  0  0  0  0  0  0  0  0  0  0  0
   59.8490   31.9660   51.1990 N   0  0  1  0  0  0  0  0  0  0  0  0
   61.0900   31.3560   50.6580 C   0  0  0  0  0  0  0  0  0  0  0  0
   60.8430   30.2970   49.6020 C   0  0  0  0  0  0  0  0  0  0  0  0
   60.8800   30.6360   48.2380 C   0  0  0  0  0  0  0  0  0  0  0  0
   60.6440   29.6650   47.2600 C   0  0  0  0  0  0  0  0  0  0  0  0
   60.3770   28.3450   47.6340 C   0  0  0  0  0  0  0  0  0  0  0  0
   60.3480   27.9970   48.9870 C   0  0  0  0  0  0  0  0  0  0  0  0
   60.5800   28.9660   49.9690 C   0  0  0  0  0  0  0  0  0  0  0  0
   59.6050   33.2830   50.6340 C   0  0  0  0  0  0  0  0  0  0  0  0
   59.2550   34.2420   51.3820 O   0  0  0  0  0  0  0  0  0  0  0  0
   59.6540   33.5110   49.1720 C   0  0  0  0  0  0  0  0  0  0  0  0
   60.6020   34.2240   48.4630 C   0  0  0  0  0  0  0  0  0  0  0  0
   60.3160   34.0280   47.1270 C   0  0  0  0  0  0  0  0  0  0  0  0
   59.2400   33.2200   46.9920 N   0  0  0  0  0  0  0  0  0  0  0  0
   58.6710   32.7290   45.7590 C   0  0  0  0  0  0  0  0  0  0  0  0
   58.5870   33.5580   44.6240 C   0  0  0  0  0  0  0  0  0  0  0  0
   57.9850   33.0990   43.4510 C   0  0  0  0  0  0  0  0  0  0  0  0
   57.4590   31.8080   43.3890 C   0  0  0  0  0  0  0  0  0  0  0  0
   57.5590   30.9560   44.4960 C   0  0  0  0  0  0  0  0  0  0  0  0
   56.9270   29.3100   44.4310 S   0  0  0  0  0  0  0  0  0  0  0  0
   55.4950   29.2870   44.8890 O   0  0  0  0  0  0  0  0  0  0  0  0
   56.9890   28.8320   43.0080 O   0  0  0  0  0  0  0  0  0  0  0  0
   57.8600   28.2290   45.4210 N   0  0  0  0  0  0  0  0  0  0  0  0
   57.3520   27.1780   46.2610 C   0  0  0  0  0  0  0  0  0  0  0  0
   57.5530   27.2600   47.5040 O   0  0  0  0  0  0  0  0  0  0  0  0
   56.5850   26.0230   45.7390 C   0  0  0  0  0  0  0  0  0  0  0  0
   57.0960   25.0360   44.9070 C   0  0  0  0  0  0  0  0  0  0  0  0
   56.0560   24.1580   44.6800 C   0  0  0  0  0  0  0  0  0  0  0  0
   54.9780   24.6640   45.3820 C   0  0  0  0  0  0  0  0  0  0  0  0
   53.2280   23.8940   45.4620 Br  0  0  0  0  0  0  0  0  0  0  0  0
   55.3210   25.7730   45.9990 O   0  0  0  0  0  0  0  0  0  0  0  0
   58.1580   31.4190   45.6770 C   0  0  0  0  0  0  0  0  0  0  0  0
   58.8260   32.9150   48.2390 C   0  0  0  0  0  0  0  0  0  0  0  0
   58.3037   30.7868   52.0275 H   0  0  0  0  0  0  0  0  0  0  0  0
   57.8947   31.6045   50.4813 H   0  0  0  0  0  0  0  0  0  0  0  0
   58.9844   30.1765   50.4813 H   0  0  0  0  0  0  0  0  0  0  0  0
   59.9810   32.0780   52.2310 H   0  0  0  0  0  0  0  0  0  0  0  0
   61.7023   32.1537   50.2122 H   0  0  0  0  0  0  0  0  0  0  0  0
   61.5940   30.8574   51.4990 H   0  0  0  0  0  0  0  0  0  0  0  0
   61.0961   31.6721   47.9382 H   0  0  0  0  0  0  0  0  0  0  0  0
   60.6685   29.9402   46.1953 H   0  0  0  0  0  0  0  0  0  0  0  0
   60.1900   27.5814   46.8646 H   0  0  0  0  0  0  0  0  0  0  0  0
   60.1420   26.9572   49.2811 H   0  0  0  0  0  0  0  0  0  0  0  0
   60.5565   28.6852   51.0323 H   0  0  0  0  0  0  0  0  0  0  0  0
   61.4214   34.8276   48.8803 H   0  0  0  0  0  0  0  0  0  0  0  0
   60.8821   34.4662   46.2918 H   0  0  0  0  0  0  0  0  0  0  0  0
   58.9996   34.5770   44.6619 H   0  0  0  0  0  0  0  0  0  0  0  0
   57.9251   33.7577   42.5721 H   0  0  0  0  0  0  0  0  0  0  0  0
   56.9654   31.4592   42.4699 H   0  0  0  0  0  0  0  0  0  0  0  0
   58.1197   24.9679   44.5102 H   0  0  0  0  0  0  0  0  0  0  0  0
   56.0798   23.2447   44.0674 H   0  0  0  0  0  0  0  0  0  0  0  0
   58.2281   30.7520   46.5489 H   0  0  0  0  0  0  0  0  0  0  0  0
   57.9570   32.2845   48.4785 H   0  0  0  0  0  0  0  0  0  0  0  0
  1  2  1  0
  2  3  1  0
  3  4  1  0
  4  5  2  0
  5  6  1  0
  6  7  2  0
  7  8  1  0
  8  9  2  0
  2 10  1  0
 10 11  2  0
 10 12  1  0
 12 13  1  0
 13 14  2  0
 14 15  1  0
 15 16  1  0
 16 17  2  0
 17 18  1  0
 18 19  2  0
 19 20  1  0
 20 21  1  0
 21 22  2  0
 21 23  2  0
 21 24  1  0
 24 25  1  0
 25 26  2  0
 25 27  1  0
 27 28  2  0
 28 29  1  0
 29 30  2  0
 30 31  1  0
 30 32  1  0
 20 33  2  0
 15 34  1  0
  9  4  1  0
 34 12  2  0
 33 16  1  0
 32 27  1  0
  1 35  1  0
  1 36  1  0
  1 37  1  0
  2 38  1  1
  3 39  1  0
  3 40  1  0
  5 41  1  0
  6 42  1  0
  7 43  1  0
  8 44  1  0
  9 45  1  0
 13 46  1  0
 14 47  1  0
 17 48  1  0
 18 49  1  0
 19 50  1  0
 28 51  1  0
 29 52  1  0
 33 53  1  0
 34 54  1  0
M  CHG  2   2   1  24  -1
M  END
>  <UniqueID>  (19) 
19

>  <SMILES>  (19) 
C[N@@H+](Cc1ccccc1)C(=O)c1ccn(-c2cccc(S(=O)(=O)[N-]C(=O)c3ccc(Br)o3)c2)c1

>  <Energy>  (19) 
120.84425752154995

>  <Genealogy>  (19) 
C[NH+](Cc1ccccc1)C(=O)c1ccn(-c2cccc(S(=O)(=O)[N-]C(=O)c3ccc(Br)o3)c2)c1 (protonated)
C[N@@H+](Cc1ccccc1)C(=O)c1ccn(-c2cccc(S(=O)(=O)[N-]C(=O)c3ccc(Br)o3)c2)c1 (chirality)
C[N@@H+](Cc1ccccc1)C(=O)c1ccn(-c2cccc(S(=O)(=O)[N-]C(=O)c3ccc(Br)o3)c2)c1 (3D coordinates assigned)
C[N@@H+](Cc1ccccc1)C(=O)c1ccn(-c2cccc(S(=O)(=O)[N-]C(=O)c3ccc(Br)o3)c2)c1 (optimized conformer: 120.84425752154995 kcal/mol)

>  <smiles>  (19) 
CN(Cc1ccccc1)C(=O)c1ccn(-c2cccc(S(=O)(=O)NC(=O)c3ccc(Br)o3)c2)c1

>  <score_type>  (19) 
oracle

>  <origin>  (19) 
adg

>  <m_score__min__energy>  (19) 
-10.82

>  <m_primary>  (19) 
energy

$$$$
19:0
     RDKit          3D

 54 56  0  0  0  0  0  0  0  0999 V2000
   58.2407   34.4452   46.2809 H   0  0  0  0  0  0  0  0  0  0  0  0
   59.0670   34.1160   46.9280 C   0  0  0  0  0  0  0  0  0  0  0  0
   58.7880   33.1400   48.0040 C   0  0  0  0  0  0  0  0  0  0  0  0
   59.0160   33.4410   49.2060 O   0  0  0  0  0  0  0  0  0  0  0  0
   58.2280   31.8540   47.7120 N   0  0  0  0  0  0  0  0  0  0  0  0
   58.8510   30.8670   46.8830 C   0  0  0  0  0  0  0  0  0  0  0  0
   58.4250   30.6150   45.5790 C   0  0  0  0  0  0  0  0  0  0  0  0
   57.3170   31.2660   44.8600 C   0  0  0  0  0  0  0  0  0  0  0  0
   57.3800   32.4920   44.5700 O   0  0  0  0  0  0  0  0  0  0  0  0
   56.1950   30.5110   44.5050 O   0  0  0  0  0  0  0  0  0  0  0  0
   56.1340   29.7490   43.3050 C   0  0  0  0  0  0  0  0  0  0  0  0
   56.0485   28.6807   43.5530 H   0  0  0  0  0  0  0  0  0  0  0  0
   55.2579   30.0602   42.7171 H   0  0  0  0  0  0  0  0  0  0  0  0
   57.0485   29.9169   42.7171 H   0  0  0  0  0  0  0  0  0  0  0  0
   59.4330   29.4500   44.9150 S   0  0  0  0  0  0  0  0  0  0  0  0
   60.4060   29.2340   46.2650 C   0  0  0  0  0  0  0  0  0  0  0  0
   61.2634   28.5484   46.3346 H   0  0  0  0  0  0  0  0  0  0  0  0
   59.9470   30.0680   47.2840 C   0  0  0  0  0  0  0  0  0  0  0  0
   60.6620   30.0900   48.9100 S   0  0  0  0  0  0  0  0  0  0  0  0
   62.0010   30.7700   48.8480 O   0  0  0  0  0  0  0  0  0  0  0  0
   60.8680   28.6730   49.3680 O   0  0  0  0  0  0  0  0  0  0  0  0
   59.6920   30.9540   50.0850 N   0  0  1  0  0  0  0  0  0  0  0  0
   59.3140   31.7890   49.5770 H   0  0  0  0  0  0  0  0  0  0  0  0
   58.5400   30.1370   50.5080 C   0  0  0  0  0  0  0  0  0  0  0  0
   58.9016   29.2844   51.1016 H   0  0  0  0  0  0  0  0  0  0  0  0
   58.0112   29.7833   49.6106 H   0  0  0  0  0  0  0  0  0  0  0  0
   57.5630   30.9660   51.3600 C   0  0  0  0  0  0  0  0  0  0  0  0
   56.9108   30.2764   51.9159 H   0  0  0  0  0  0  0  0  0  0  0  0
   56.9918   31.6085   50.6737 H   0  0  0  0  0  0  0  0  0  0  0  0
   58.2810   31.8950   52.3760 C   0  0  2  0  0  0  0  0  0  0  0  0
   57.7814   31.7550   53.3459 H   0  0  0  0  0  0  0  0  0  0  0  0
   58.1380   33.3770   51.9920 C   0  0  0  0  0  0  0  0  0  0  0  0
   58.0790   33.9882   52.9047 H   0  0  0  0  0  0  0  0  0  0  0  0
   59.0103   33.6878   51.3983 H   0  0  0  0  0  0  0  0  0  0  0  0
   57.2223   33.5152   51.3983 H   0  0  0  0  0  0  0  0  0  0  0  0
   59.7600   31.5070   52.5570 C   0  0  0  0  0  0  0  0  0  0  0  0
   59.8093   30.5195   53.0391 H   0  0  0  0  0  0  0  0  0  0  0  0
   60.2362   32.2825   53.1749 H   0  0  0  0  0  0  0  0  0  0  0  0
   60.5210   31.4420   51.2170 C   0  0  0  0  0  0  0  0  0  0  0  0
   61.3791   30.7643   51.3370 H   0  0  0  0  0  0  0  0  0  0  0  0
   60.8297   32.4688   50.9714 H   0  0  0  0  0  0  0  0  0  0  0  0
   60.2930   34.6120   46.7160 C   0  0  0  0  0  0  0  0  0  0  0  0
   60.4005   35.4416   46.0017 H   0  0  0  0  0  0  0  0  0  0  0  0
   61.5150   34.1060   47.3900 C   0  0  0  0  0  0  0  0  0  0  0  0
   62.4900   33.4540   46.6150 C   0  0  0  0  0  0  0  0  0  0  0  0
   62.3356   33.3332   45.5326 H   0  0  0  0  0  0  0  0  0  0  0  0
   63.6540   32.9580   47.2090 C   0  0  0  0  0  0  0  0  0  0  0  0
   64.4141   32.4563   46.5921 H   0  0  0  0  0  0  0  0  0  0  0  0
   63.8540   33.0980   48.5840 C   0  0  0  0  0  0  0  0  0  0  0  0
   64.7729   32.7113   49.0488 H   0  0  0  0  0  0  0  0  0  0  0  0
   62.8870   33.7290   49.3680 C   0  0  0  0  0  0  0  0  0  0  0  0
   63.0432   33.8339   50.4518 H   0  0  0  0  0  0  0  0  0  0  0  0
   61.7210   34.2280   48.7810 C   0  0  0  0  0  0  0  0  0  0  0  0
   60.9601   34.7182   49.4061 H   0  0  0  0  0  0  0  0  0  0  0  0
  1  2  1  0
  2  3  1  0
  3  4  2  0
  3  5  1  0
  5  6  1  0
  6  7  2  0
  7  8  1  0
  8  9  2  0
  8 10  1  0
 10 11  1  0
 11 12  1  0
 11 13  1  0
 11 14  1  0
  7 15  1  0
 15 16  1  0
 16 17  1  0
 16 18  2  0
 18 19  1  0
 19 20  2  0
 19 21  2  0
 19 22  1  0
 22 23  1  1
 22 24  1  0
 24 25  1  0
 24 26  1  0
 24 27  1  0
 27 28  1  0
 27 29  1  0
 27 30  1  0
 30 31  1  6
 30 32  1  0
 32 33  1  0
 32 34  1  0
 32 35  1  0
 30 36  1  0
 36 37  1  0
 36 38  1  0
 36 39  1  0
 39 40  1  0
 39 41  1  0
  2 42  2  0
 42 43  1  0
 42 44  1  0
 44 45  2  0
 45 46  1  0
 45 47  1  0
 47 48  1  0
 47 49  2  0
 49 50  1  0
 49 51  1  0
 51 52  1  0
 51 53  2  0
 53 54  1  0
 18  6  1  0
 39 22  1  0
 53 44  1  0
M  CHG  2   5  -1  22   1
M  END
>  <UniqueID>  (20) 
20

>  <SMILES>  (20) 
COC(=O)c1scc(S(=O)(=O)[NH+]2CCC(C)CC2)c1[N-]C(=O)/C=C/c1ccccc1

>  <Energy>  (20) 
92.49229690057108

>  <Genealogy>  (20) 
COC(=O)c1scc(S(=O)(=O)[NH+]2CCC(C)CC2)c1[N-]C(=O)C=Cc1ccccc1 (protonated)
COC(=O)c1scc(S(=O)(=O)[NH+]2CCC(C)CC2)c1[N-]C(=O)/C=C/c1ccccc1 (cis-trans isomerization)
COC(=O)c1scc(S(=O)(=O)[NH+]2CCC(C)CC2)c1[N-]C(=O)/C=C/c1ccccc1 (3D coordinates assigned)
COC(=O)c1scc(S(=O)(=O)[NH+]2CCC(C)CC2)c1[N-]C(=O)/C=C/c1ccccc1 (nonaromatic ring conformer: 92.49229690057108 kcal/mol)

>  <smiles>  (20) 
COC(=O)c1scc(S(=O)(=O)N2CCC(C)CC2)c1NC(=O)C=Cc1ccccc1

>  <score_type>  (20) 
oracle

>  <origin>  (20) 
adg

>  <m_score__min__energy>  (20) 
-8.1899999999999995

>  <m_primary>  (20) 
energy

$$$$
20:0
     RDKit          3D

 63 66  0  0  0  0  0  0  0  0999 V2000
   60.1380   29.5790   46.3280 C   0  0  0  0  0  0  0  0  0  0  0  0
   59.3320   30.5450   45.8570 C   0  0  0  0  0  0  0  0  0  0  0  0
   58.3340   30.3920   44.8900 C   0  0  0  0  0  0  0  0  0  0  0  0
   57.9820   29.2620   44.2480 C   0  0  0  0  0  0  0  0  0  0  0  0
   57.3850   28.0850   44.9220 C   0  0  0  0  0  0  0  0  0  0  0  0
   56.0210   28.0410   45.2620 C   0  0  0  0  0  0  0  0  0  0  0  0
   55.1770   29.1060   44.9660 O   0  0  0  0  0  0  0  0  0  0  0  0
   55.5200   26.9580   45.9080 N   0  0  0  0  0  0  0  0  0  0  0  0
   56.3170   25.9140   46.2530 C   0  0  0  0  0  0  0  0  0  0  0  0
   55.8290   24.9200   46.8480 O   0  0  0  0  0  0  0  0  0  0  0  0
   57.6420   25.9480   45.9630 N   0  0  0  0  0  0  0  0  0  0  0  0
   58.1930   27.0070   45.3150 C   0  0  0  0  0  0  0  0  0  0  0  0
   59.4290   27.0040   45.0690 O   0  0  0  0  0  0  0  0  0  0  0  0
   57.7950   31.6550   44.6820 C   0  0  0  0  0  0  0  0  0  0  0  0
   58.4600   32.5150   45.5340 C   0  0  0  0  0  0  0  0  0  0  0  0
   58.1950   33.9870   45.6290 C   0  0  0  0  0  0  0  0  0  0  0  0
   59.3950   31.8460   46.2450 N   0  0  0  0  0  0  0  0  0  0  0  0
   60.2550   32.4120   47.2530 C   0  0  0  0  0  0  0  0  0  0  0  0
   59.7080   33.0330   48.3900 C   0  0  0  0  0  0  0  0  0  0  0  0
   60.5470   33.5910   49.3600 C   0  0  0  0  0  0  0  0  0  0  0  0
   61.9400   33.5480   49.1960 C   0  0  0  0  0  0  0  0  0  0  0  0
   62.8310   34.1620   50.1930 C   0  0  0  0  0  0  0  0  0  0  0  0
   63.0200   35.4080   50.1340 O   0  0  0  0  0  0  0  0  0  0  0  0
   63.5310   33.3690   51.1830 N   0  0  0  0  0  0  0  0  0  0  0  0
   63.3900   31.8980   51.1570 C   0  0  0  0  0  0  0  0  0  0  0  0
   64.4640   31.1190   51.9520 C   0  0  0  0  0  0  0  0  0  0  0  0
   65.6430   31.9280   52.3180 N   0  0  0  0  0  0  0  0  0  0  0  0
   66.7850   31.9820   51.3400 C   0  0  0  0  0  0  0  0  0  0  0  0
   68.0710   32.5620   51.9840 C   0  0  0  0  0  0  0  0  0  0  0  0
   67.1240   30.5370   50.9070 C   0  0  0  0  0  0  0  0  0  0  0  0
   66.4660   32.8100   50.0720 C   0  0  0  0  0  0  0  0  0  0  0  0
   65.2150   33.1510   53.0210 C   0  0  0  0  0  0  0  0  0  0  0  0
   64.4220   34.0830   52.1120 C   0  0  0  0  0  0  0  0  0  0  0  0
   62.4860   32.9300   48.0630 C   0  0  0  0  0  0  0  0  0  0  0  0
   61.6490   32.3550   47.1050 C   0  0  0  0  0  0  0  0  0  0  0  0
   60.8919   29.8162   47.0931 H   0  0  0  0  0  0  0  0  0  0  0  0
   60.0441   28.5508   45.9486 H   0  0  0  0  0  0  0  0  0  0  0  0
   58.1469   29.2095   43.1617 H   0  0  0  0  0  0  0  0  0  0  0  0
   56.9940   31.9191   43.9758 H   0  0  0  0  0  0  0  0  0  0  0  0
   58.1418   34.2824   46.6872 H   0  0  0  0  0  0  0  0  0  0  0  0
   59.0083   34.5386   45.1347 H   0  0  0  0  0  0  0  0  0  0  0  0
   57.2404   34.2204   45.1347 H   0  0  0  0  0  0  0  0  0  0  0  0
   58.6164   33.0801   48.5169 H   0  0  0  0  0  0  0  0  0  0  0  0
   60.1140   34.0646   50.2534 H   0  0  0  0  0  0  0  0  0  0  0  0
   62.4052   31.6431   51.5757 H   0  0  0  0  0  0  0  0  0  0  0  0
   63.5116   31.5984   50.1056 H   0  0  0  0  0  0  0  0  0  0  0  0
   64.0035   30.7404   52.8765 H   0  0  0  0  0  0  0  0  0  0  0  0
   64.8225   30.3116   51.2966 H   0  0  0  0  0  0  0  0  0  0  0  0
   67.9825   32.5221   53.0797 H   0  0  0  0  0  0  0  0  0  0  0  0
   68.9406   31.9689   51.6646 H   0  0  0  0  0  0  0  0  0  0  0  0
   68.2021   33.6064   51.6646 H   0  0  0  0  0  0  0  0  0  0  0  0
   67.2707   29.9115   51.7999 H   0  0  0  0  0  0  0  0  0  0  0  0
   66.2968   30.1306   50.3065 H   0  0  0  0  0  0  0  0  0  0  0  0
   68.0456   30.5408   50.3065 H   0  0  0  0  0  0  0  0  0  0  0  0
   66.0850   33.7991   50.3662 H   0  0  0  0  0  0  0  0  0  0  0  0
   67.3813   32.9326   49.4743 H   0  0  0  0  0  0  0  0  0  0  0  0
   65.7051   32.2868   49.4743 H   0  0  0  0  0  0  0  0  0  0  0  0
   64.5840   32.8670   53.8761 H   0  0  0  0  0  0  0  0  0  0  0  0
   66.1170   33.6859   53.3531 H   0  0  0  0  0  0  0  0  0  0  0  0
   63.8112   34.7478   52.7405 H   0  0  0  0  0  0  0  0  0  0  0  0
   65.1485   34.6413   51.5033 H   0  0  0  0  0  0  0  0  0  0  0  0
   63.5772   32.8979   47.9281 H   0  0  0  0  0  0  0  0  0  0  0  0
   62.0853   31.8539   46.2283 H   0  0  0  0  0  0  0  0  0  0  0  0
  1  2  2  0
  2  3  1  0
  3  4  2  3
  4  5  1  0
  5  6  2  0
  6  7  1  0
  6  8  1  0
  8  9  1  0
  9 10  2  0
  9 11  1  0
 11 12  1  0
 12 13  2  0
  3 14  1  0
 14 15  2  0
 15 16  1  0
 15 17  1  0
 17 18  1  0
 18 19  2  0
 19 20  1  0
 20 21  2  0
 21 22  1  0
 22 23  2  0
 22 24  1  0
 24 25  1  0
 25 26  1  0
 26 27  1  0
 27 28  1  0
 28 29  1  0
 28 30  1  0
 28 31  1  0
 27 32  1  0
 32 33  1  0
 21 34  1  0
 34 35  2  0
 17  2  1  0
 35 18  1  0
 12  5  1  0
 33 24  1  0
  1 36  1  0
  1 37  1  0
  4 38  1  0
 14 39  1  0
 16 40  1  0
 16 41  1  0
 16 42  1  0
 19 43  1  0
 20 44  1  0
 25 45  1  0
 25 46  1  0
 26 47  1  0
 26 48  1  0
 29 49  1  0
 29 50  1  0
 29 51  1  0
 30 52  1  0
 30 53  1  0
 30 54  1  0
 31 55  1  0
 31 56  1  0
 31 57  1  0
 32 58  1  0
 32 59  1  0
 33 60  1  0
 33 61  1  0
 34 62  1  0
 35 63  1  0
M  CHG  3   7  -1   8  -1  11  -1
M  END
>  <UniqueID>  (21) 
21

>  <SMILES>  (21) 
C=c1c(=Cc2c([O-])[n-]c(=O)[n-]c2=O)cc(C)n1-c1ccc(C(=O)N2CCN(C(C)(C)C)CC2)cc1

>  <Energy>  (21) 
134.09981705962875

>  <Genealogy>  (21) 
C=c1c(=Cc2c([O-])[n-]c(=O)[n-]c2=O)cc(C)n1-c1ccc(C(=O)N2CCN(C(C)(C)C)CC2)cc1 (protonated)
C=c1c(=Cc2c([O-])[n-]c(=O)[n-]c2=O)cc(C)n1-c1ccc(C(=O)N2CCN(C(C)(C)C)CC2)cc1 (3D coordinates assigned)
C=c1c(=Cc2c([O-])[n-]c(=O)[n-]c2=O)cc(C)n1-c1ccc(C(=O)N2CCN(C(C)(C)C)CC2)cc1 (nonaromatic ring conformer: 134.09981705962875 kcal/mol)

>  <smiles>  (21) 
C=c1c(=Cc2c(O)[nH]c(=O)[nH]c2=O)cc(C)n1-c1ccc(C(=O)N2CCN(C(C)(C)C)CC2)cc1

>  <score_type>  (21) 
oracle

>  <origin>  (21) 
adg

>  <m_score__min__energy>  (21) 
-16.530000000000001

>  <m_primary>  (21) 
energy

$$$$
21:0
     RDKit          3D

 60 63  0  0  0  0  0  0  0  0999 V2000
   56.3740   29.9420   42.7660 C   0  0  0  0  0  0  0  0  0  0  0  0
   57.2430   29.4070   43.8720 C   0  0  0  0  0  0  0  0  0  0  0  0
   57.8820   28.1640   43.7230 C   0  0  0  0  0  0  0  0  0  0  0  0
   58.7020   27.6660   44.7390 C   0  0  0  0  0  0  0  0  0  0  0  0
   58.9010   28.4060   45.9070 C   0  0  0  0  0  0  0  0  0  0  0  0
   58.2870   29.6520   46.0580 C   0  0  0  0  0  0  0  0  0  0  0  0
   57.4690   30.1650   45.0410 C   0  0  0  0  0  0  0  0  0  0  0  0
   56.8240   31.4300   45.2140 N   0  0  0  0  0  0  0  0  0  0  0  0
   57.6450   32.9270   44.9230 S   0  0  0  0  0  0  0  0  0  0  0  0
   56.6310   34.0280   44.7930 O   0  0  0  0  0  0  0  0  0  0  0  0
   58.4100   32.8260   43.6320 O   0  0  0  0  0  0  0  0  0  0  0  0
   58.7400   33.3100   46.2490 C   0  0  0  0  0  0  0  0  0  0  0  0
   59.2260   34.6150   46.4030 C   0  0  0  0  0  0  0  0  0  0  0  0
   60.0780   34.9240   47.4660 C   0  0  0  0  0  0  0  0  0  0  0  0
   60.4430   33.9360   48.3850 C   0  0  0  0  0  0  0  0  0  0  0  0
   59.9480   32.6270   48.2490 C   0  0  0  0  0  0  0  0  0  0  0  0
   60.3270   31.5850   49.1600 N   0  0  0  0  0  0  0  0  0  0  0  0
   59.4070   30.6140   49.6840 C   0  0  0  0  0  0  0  0  0  0  0  0
   58.1650   30.8200   49.6380 O   0  0  0  0  0  0  0  0  0  0  0  0
   59.9060   29.3630   50.2940 C   0  0  0  0  0  0  0  0  0  0  0  0
   60.2340   28.2860   49.4540 C   0  0  0  0  0  0  0  0  0  0  0  0
   60.6890   27.0800   49.9920 C   0  0  0  0  0  0  0  0  0  0  0  0
   60.8290   26.9380   51.3720 C   0  0  0  0  0  0  0  0  0  0  0  0
   60.5250   28.0060   52.2190 C   0  0  0  0  0  0  0  0  0  0  0  0
   60.0780   29.2250   51.6930 C   0  0  0  0  0  0  0  0  0  0  0  0
   59.8040   30.5940   52.8330 S   0  0  0  0  0  0  0  0  0  0  0  0
   58.0270   30.5640   52.6040 C   0  0  0  0  0  0  0  0  0  0  0  0
   57.3170   29.3660   52.7390 C   0  0  0  0  0  0  0  0  0  0  0  0
   55.9310   29.3450   52.5550 C   0  0  0  0  0  0  0  0  0  0  0  0
   55.2380   30.5330   52.2840 C   0  0  0  0  0  0  0  0  0  0  0  0
   53.7750   30.4900   52.0880 C   0  0  0  0  0  0  0  0  0  0  0  0
   53.1020   31.1370   51.1220 C   0  0  0  0  0  0  0  0  0  0  0  0
   51.8220   31.8500   51.2920 C   0  0  0  0  0  0  0  0  0  0  0  0
   51.0840   31.6580   52.2950 O   0  0  0  0  0  0  0  0  0  0  0  0
   51.3930   32.7150   50.2930 O   0  0  0  0  0  0  0  0  0  0  0  0
   55.9570   31.7300   52.1230 C   0  0  0  0  0  0  0  0  0  0  0  0
   57.3450   31.7460   52.2910 C   0  0  0  0  0  0  0  0  0  0  0  0
   59.1070   32.3200   47.1710 C   0  0  0  0  0  0  0  0  0  0  0  0
   55.5132   30.4720   43.1998 H   0  0  0  0  0  0  0  0  0  0  0  0
   56.9577   30.6374   42.1449 H   0  0  0  0  0  0  0  0  0  0  0  0
   56.0159   29.1077   42.1449 H   0  0  0  0  0  0  0  0  0  0  0  0
   57.7359   27.5804   42.8021 H   0  0  0  0  0  0  0  0  0  0  0  0
   59.1921   26.6886   44.6187 H   0  0  0  0  0  0  0  0  0  0  0  0
   59.5412   28.0077   46.7080 H   0  0  0  0  0  0  0  0  0  0  0  0
   58.4459   30.2330   46.9785 H   0  0  0  0  0  0  0  0  0  0  0  0
   58.9363   35.3972   45.6859 H   0  0  0  0  0  0  0  0  0  0  0  0
   60.4629   35.9481   47.5802 H   0  0  0  0  0  0  0  0  0  0  0  0
   61.1192   34.1832   49.2167 H   0  0  0  0  0  0  0  0  0  0  0  0
   61.3480   31.4290   49.3150 H   0  0  0  0  0  0  0  0  0  0  0  0
   60.1317   28.3932   48.3640 H   0  0  0  0  0  0  0  0  0  0  0  0
   60.9373   26.2407   49.3258 H   0  0  0  0  0  0  0  0  0  0  0  0
   61.1791   25.9843   51.7938 H   0  0  0  0  0  0  0  0  0  0  0  0
   60.6374   27.8892   53.3070 H   0  0  0  0  0  0  0  0  0  0  0  0
   57.8508   28.4377   52.9907 H   0  0  0  0  0  0  0  0  0  0  0  0
   55.3830   28.3937   52.6231 H   0  0  0  0  0  0  0  0  0  0  0  0
   53.1888   29.8787   52.7899 H   0  0  0  0  0  0  0  0  0  0  0  0
   53.5447   31.1349   50.1150 H   0  0  0  0  0  0  0  0  0  0  0  0
   55.4257   32.6577   51.8639 H   0  0  0  0  0  0  0  0  0  0  0  0
   57.9016   32.6880   52.1772 H   0  0  0  0  0  0  0  0  0  0  0  0
   58.7316   31.2935   47.0473 H   0  0  0  0  0  0  0  0  0  0  0  0
  1  2  1  0
  2  3  2  0
  3  4  1  0
  4  5  2  0
  5  6  1  0
  6  7  2  0
  7  8  1  0
  8  9  1  0
  9 10  2  0
  9 11  2  0
  9 12  1  0
 12 13  2  0
 13 14  1  0
 14 15  2  0
 15 16  1  0
 16 17  1  0
 17 18  1  0
 18 19  2  0
 18 20  1  0
 20 21  2  0
 21 22  1  0
 22 23  2  0
 23 24  1  0
 24 25  2  0
 25 26  1  0
 26 27  1  0
 27 28  2  0
 28 29  1  0
 29 30  2  0
 30 31  1  0
 31 32  2  3
 32 33  1  0
 33 34  2  0
 33 35  1  0
 30 36  1  0
 36 37  2  0
 16 38  2  0
  7  2  1  0
 38 12  1  0
 25 20  1  0
 37 27  1  0
  1 39  1  0
  1 40  1  0
  1 41  1  0
  3 42  1  0
  4 43  1  0
  5 44  1  0
  6 45  1  0
 13 46  1  0
 14 47  1  0
 15 48  1  0
 17 49  1  0
 21 50  1  0
 22 51  1  0
 23 52  1  0
 24 53  1  0
 28 54  1  0
 29 55  1  0
 31 56  1  0
 32 57  1  0
 36 58  1  0
 37 59  1  0
 38 60  1  0
M  CHG  2   8  -1  35  -1
M  END
>  <UniqueID>  (22) 
22

>  <SMILES>  (22) 
Cc1ccccc1[N-]S(=O)(=O)c1cccc(NC(=O)c2ccccc2Sc2ccc(C=CC(=O)[O-])cc2)c1

>  <Energy>  (22) 
81.84243668833217

>  <Genealogy>  (22) 
Cc1ccccc1[N-]S(=O)(=O)c1cccc(NC(=O)c2ccccc2Sc2ccc(C=CC(=O)[O-])cc2)c1 (protonated)
Cc1ccccc1[N-]S(=O)(=O)c1cccc(NC(=O)c2ccccc2Sc2ccc(C=CC(=O)[O-])cc2)c1 (3D coordinates assigned)
Cc1ccccc1[N-]S(=O)(=O)c1cccc(NC(=O)c2ccccc2Sc2ccc(C=CC(=O)[O-])cc2)c1 (optimized conformer: 81.84243668833217 kcal/mol)

>  <smiles>  (22) 
Cc1ccccc1NS(=O)(=O)c1cccc(NC(=O)c2ccccc2Sc2ccc(C=CC(=O)O)cc2)c1

>  <score_type>  (22) 
oracle

>  <origin>  (22) 
adg

>  <m_score__min__energy>  (22) 
-16.609999999999999

>  <m_primary>  (22) 
energy

$$$$
22:0
     RDKit          3D

 39 40  0  0  0  0  0  0  0  0999 V2000
   58.5702   31.0907   43.0623 H   0  0  0  0  0  0  0  0  0  0  0  0
   58.0080   31.2330   43.9970 C   0  0  0  0  0  0  0  0  0  0  0  0
   57.9260   32.4370   44.4850 N   0  0  0  0  0  0  0  0  0  0  0  0
   58.6270   32.9600   45.6250 C   0  0  0  0  0  0  0  0  0  0  0  0
   58.2330   34.1540   46.2440 C   0  0  0  0  0  0  0  0  0  0  0  0
   57.3526   34.6990   45.8728 H   0  0  0  0  0  0  0  0  0  0  0  0
   58.9530   34.6540   47.3290 C   0  0  0  0  0  0  0  0  0  0  0  0
   58.6219   35.5809   47.8202 H   0  0  0  0  0  0  0  0  0  0  0  0
   60.0960   33.9880   47.8020 C   0  0  0  0  0  0  0  0  0  0  0  0
   60.8220   34.5640   48.9890 C   0  0  0  0  0  0  0  0  0  0  0  0
   60.3584   34.1962   49.9162 H   0  0  0  0  0  0  0  0  0  0  0  0
   61.8772   34.2547   48.9589 H   0  0  0  0  0  0  0  0  0  0  0  0
   60.7607   35.6619   48.9589 H   0  0  0  0  0  0  0  0  0  0  0  0
   60.5080   32.7860   47.1700 C   0  0  0  0  0  0  0  0  0  0  0  0
   61.9380   31.8610   47.6880 S   0  0  0  0  0  0  0  0  0  0  0  0
   61.8240   31.5310   49.1510 O   0  0  0  0  0  0  0  0  0  0  0  0
   61.9500   30.5590   46.9390 O   0  0  0  0  0  0  0  0  0  0  0  0
   63.4480   32.6880   47.3450 N   0  0  0  0  0  0  0  0  0  0  0  0
   64.1030   33.1140   48.5890 C   0  0  0  0  0  0  0  0  0  0  0  0
   63.5303   32.7415   49.4511 H   0  0  0  0  0  0  0  0  0  0  0  0
   65.1243   32.7068   48.6237 H   0  0  0  0  0  0  0  0  0  0  0  0
   64.1449   34.2127   48.6237 H   0  0  0  0  0  0  0  0  0  0  0  0
   63.2410   33.8380   46.4560 C   0  0  0  0  0  0  0  0  0  0  0  0
   63.0781   34.7432   47.0594 H   0  0  0  0  0  0  0  0  0  0  0  0
   64.1289   33.9753   45.8213 H   0  0  0  0  0  0  0  0  0  0  0  0
   62.3610   33.6571   45.8213 H   0  0  0  0  0  0  0  0  0  0  0  0
   59.7770   32.3040   46.0710 C   0  0  0  0  0  0  0  0  0  0  0  0
   60.1160   31.3947   45.5530 H   0  0  0  0  0  0  0  0  0  0  0  0
   57.3910   30.0470   44.6240 C   0  0  0  0  0  0  0  0  0  0  0  0
   57.9890   28.9660   45.2630 C   0  0  0  0  0  0  0  0  0  0  0  0
   59.4500   28.7210   45.5090 C   0  0  0  0  0  0  0  0  0  0  0  0
   59.8000   29.2130   46.7520 F   0  0  0  0  0  0  0  0  0  0  0  0
   60.1980   29.3700   44.5460 F   0  0  0  0  0  0  0  0  0  0  0  0
   59.7360   27.3670   45.4800 F   0  0  0  0  0  0  0  0  0  0  0  0
   57.0190   28.1010   45.6300 N   0  0  0  0  0  0  0  0  0  0  0  0
   57.1590   27.1970   46.1350 H   0  0  0  0  0  0  0  0  0  0  0  0
   55.8380   28.5480   45.2310 N   0  0  0  0  0  0  0  0  0  0  0  0
   56.0520   29.7220   44.6100 C   0  0  0  0  0  0  0  0  0  0  0  0
   55.1350   30.4160   44.0980 O   0  0  0  0  0  0  0  0  0  0  0  0
  1  2  1  0
  2  3  2  0
  3  4  1  0
  4  5  2  0
  5  6  1  0
  5  7  1  0
  7  8  1  0
  7  9  2  0
  9 10  1  0
 10 11  1  0
 10 12  1  0
 10 13  1  0
  9 14  1  0
 14 15  1  0
 15 16  2  0
 15 17  2  0
 15 18  1  0
 18 19  1  0
 19 20  1  0
 19 21  1  0
 19 22  1  0
 18 23  1  0
 23 24  1  0
 23 25  1  0
 23 26  1  0
 14 27  2  0
 27 28  1  0
  2 29  1  0
 29 30  2  0
 30 31  1  0
 31 32  1  0
 31 33  1  0
 31 34  1  0
 30 35  1  0
 35 36  1  0
 35 37  1  0
 37 38  1  0
 38 39  2  0
 27  4  1  0
 38 29  1  0
M  CHG  1  37  -1
M  END
>  <UniqueID>  (23) 
23

>  <SMILES>  (23) 
Cc1ccc(/N=C\c2c(C(F)(F)F)[nH][n-]c2=O)cc1S(=O)(=O)N(C)C

>  <Energy>  (23) 
84.66238206402411

>  <Genealogy>  (23) 
Cc1ccc(N=Cc2c(C(F)(F)F)[nH][n-]c2=O)cc1S(=O)(=O)N(C)C (protonated)
Cc1ccc(/N=C\c2c(C(F)(F)F)[nH][n-]c2=O)cc1S(=O)(=O)N(C)C (cis-trans isomerization)
Cc1ccc(/N=C\c2c(C(F)(F)F)[nH][n-]c2=O)cc1S(=O)(=O)N(C)C (3D coordinates assigned)
Cc1ccc(/N=C\c2c(C(F)(F)F)[nH][n-]c2=O)cc1S(=O)(=O)N(C)C (optimized conformer: 84.66238206402411 kcal/mol)

>  <smiles>  (23) 
Cc1ccc(N=Cc2c(C(F)(F)F)[nH][nH]c2=O)cc1S(=O)(=O)N(C)C

>  <score_type>  (23) 
oracle

>  <origin>  (23) 
adg

>  <m_score__min__energy>  (23) 
-9.3399999999999999

>  <m_primary>  (23) 
energy

$$$$
23:0
     RDKit          3D

 36 37  0  0  0  0  0  0  0  0999 V2000
   58.2000   31.4320   44.3550 C   0  0  0  0  0  0  0  0  0  0  0  0
   58.5200   30.9980   45.5850 C   0  0  0  0  0  0  0  0  0  0  0  0
   58.5360   29.6620   46.0280 C   0  0  0  0  0  0  0  0  0  0  0  0
   58.3940   28.5010   45.3590 C   0  0  0  0  0  0  0  0  0  0  0  0
   57.5280   27.3740   45.7560 C   0  0  0  0  0  0  0  0  0  0  0  0
   56.1310   27.4470   45.6210 C   0  0  0  0  0  0  0  0  0  0  0  0
   55.5230   28.6010   45.1410 O   0  0  0  0  0  0  0  0  0  0  0  0
   55.3620   26.3800   45.9550 N   0  0  0  0  0  0  0  0  0  0  0  0
   55.9210   25.2270   46.4060 C   0  0  0  0  0  0  0  0  0  0  0  0
   55.1880   24.2520   46.7140 O   0  0  0  0  0  0  0  0  0  0  0  0
   57.2700   25.1240   46.5190 N   0  0  0  0  0  0  0  0  0  0  0  0
   58.0830   26.1640   46.1980 C   0  0  0  0  0  0  0  0  0  0  0  0
   59.3310   26.0310   46.3080 O   0  0  0  0  0  0  0  0  0  0  0  0
   58.7570   29.7090   47.3920 C   0  0  0  0  0  0  0  0  0  0  0  0
   58.9190   31.0350   47.7290 C   0  0  0  0  0  0  0  0  0  0  0  0
   59.1860   31.5270   49.1190 C   0  0  0  0  0  0  0  0  0  0  0  0
   58.7850   31.8240   46.6370 N   0  0  0  0  0  0  0  0  0  0  0  0
   58.8500   33.2960   46.6500 C   0  0  0  0  0  0  0  0  0  0  0  0
   60.2740   33.7660   46.5720 C   0  0  0  0  0  0  0  0  0  0  0  0
   60.5080   34.9550   46.2260 O   0  0  0  0  0  0  0  0  0  0  0  0
   61.3520   32.8710   46.8940 N   0  0  0  0  0  0  0  0  0  0  0  0
   62.7410   33.2160   46.7830 C   0  0  0  0  0  0  0  0  0  0  0  0
   63.7390   32.2590   47.1350 N   0  0  0  0  0  0  0  0  0  0  0  0
   63.0940   34.3560   46.3760 O   0  0  0  0  0  0  0  0  0  0  0  0
   58.2246   32.5080   44.1277 H   0  0  0  0  0  0  0  0  0  0  0  0
   57.9133   30.7115   43.5748 H   0  0  0  0  0  0  0  0  0  0  0  0
   58.9762   28.3826   44.4333 H   0  0  0  0  0  0  0  0  0  0  0  0
   58.7961   28.8502   48.0783 H   0  0  0  0  0  0  0  0  0  0  0  0
   58.7925   30.8019   49.8465 H   0  0  0  0  0  0  0  0  0  0  0  0
   60.2702   31.6418   49.2654 H   0  0  0  0  0  0  0  0  0  0  0  0
   58.6914   32.4985   49.2654 H   0  0  0  0  0  0  0  0  0  0  0  0
   58.2923   33.6895   45.7874 H   0  0  0  0  0  0  0  0  0  0  0  0
   58.4085   33.6608   47.5892 H   0  0  0  0  0  0  0  0  0  0  0  0
   61.1170   31.9100   47.2230 H   0  0  0  0  0  0  0  0  0  0  0  0
   64.7530   32.5000   47.0570 H   0  0  0  0  0  0  0  0  0  0  0  0
   63.4700   31.3090   47.4730 H   0  0  0  0  0  0  0  0  0  0  0  0
  1  2  2  0
  2  3  1  0
  3  4  2  3
  4  5  1  0
  5  6  2  0
  6  7  1  0
  6  8  1  0
  8  9  1  0
  9 10  2  0
  9 11  1  0
 11 12  1  0
 12 13  2  0
  3 14  1  0
 14 15  2  0
 15 16  1  0
 15 17  1  0
 17 18  1  0
 18 19  1  0
 19 20  2  0
 19 21  1  0
 21 22  1  0
 22 23  1  0
 22 24  2  0
 17  2  1  0
 12  5  1  0
  1 25  1  0
  1 26  1  0
  4 27  1  0
 14 28  1  0
 16 29  1  0
 16 30  1  0
 16 31  1  0
 18 32  1  0
 18 33  1  0
 21 34  1  0
 23 35  1  0
 23 36  1  0
M  CHG  3   7  -1   8  -1  11  -1
M  END
>  <UniqueID>  (24) 
24

>  <SMILES>  (24) 
C=c1c(=Cc2c([O-])[n-]c(=O)[n-]c2=O)cc(C)n1CC(=O)NC(N)=O

>  <Energy>  (24) 
76.64225405529594

>  <Genealogy>  (24) 
C=c1c(=Cc2c([O-])[n-]c(=O)[n-]c2=O)cc(C)n1CC(=O)NC(N)=O (protonated)
C=c1c(=Cc2c([O-])[n-]c(=O)[n-]c2=O)cc(C)n1CC(=O)NC(N)=O (3D coordinates assigned)
C=c1c(=Cc2c([O-])[n-]c(=O)[n-]c2=O)cc(C)n1CC(=O)NC(N)=O (optimized conformer: 76.64225405529594 kcal/mol)

>  <smiles>  (24) 
C=c1c(=Cc2c(O)[nH]c(=O)[nH]c2=O)cc(C)n1CC(=O)NC(N)=O

>  <score_type>  (24) 
oracle

>  <origin>  (24) 
adg

>  <m_score__min__energy>  (24) 
-15.35

>  <m_primary>  (24) 
energy

$$$$
24:0
     RDKit          3D

 38 40  0  0  0  0  0  0  0  0999 V2000
   60.3827   35.3550   45.8181 H   0  0  0  0  0  0  0  0  0  0  0  0
   59.6880   34.5040   45.7610 C   0  0  0  0  0  0  0  0  0  0  0  0
   60.0920   33.2690   46.1600 N   0  0  0  0  0  0  0  0  0  0  0  0
   59.2800   32.1770   46.1150 C   0  0  0  0  0  0  0  0  0  0  0  0
   59.7860   31.0370   46.5040 N   0  0  0  0  0  0  0  0  0  0  0  0
   59.6940   30.4180   47.7910 C   0  0  0  0  0  0  0  0  0  0  0  0
   59.1240   31.1070   48.8740 C   0  0  0  0  0  0  0  0  0  0  0  0
   58.7327   32.1254   48.7336 H   0  0  0  0  0  0  0  0  0  0  0  0
   59.0540   30.4980   50.1310 C   0  0  0  0  0  0  0  0  0  0  0  0
   58.5918   31.0311   50.9749 H   0  0  0  0  0  0  0  0  0  0  0  0
   59.5710   29.2120   50.3160 C   0  0  0  0  0  0  0  0  0  0  0  0
   59.5094   28.7319   51.3038 H   0  0  0  0  0  0  0  0  0  0  0  0
   60.1660   28.5360   49.2470 C   0  0  0  0  0  0  0  0  0  0  0  0
   60.6910   27.2630   49.4350 O   0  0  0  0  0  0  0  0  0  0  0  0
   60.2370   29.1420   47.9880 C   0  0  0  0  0  0  0  0  0  0  0  0
   60.7200   28.6156   47.1516 H   0  0  0  0  0  0  0  0  0  0  0  0
   57.9590   32.3270   45.6050 C   0  0  0  0  0  0  0  0  0  0  0  0
   57.0430   31.2290   45.5310 N   0  0  0  0  0  0  0  0  0  0  0  0
   56.9800   30.2670   44.4720 C   0  0  0  0  0  0  0  0  0  0  0  0
   57.5210   30.5430   43.3690 O   0  0  0  0  0  0  0  0  0  0  0  0
   56.1800   29.0000   44.5980 C   0  0  0  0  0  0  0  0  0  0  0  0
   55.2848   29.1954   45.2067 H   0  0  0  0  0  0  0  0  0  0  0  0
   55.8868   28.6613   43.5934 H   0  0  0  0  0  0  0  0  0  0  0  0
   57.0050   27.9210   45.2580 C   0  0  0  0  0  0  0  0  0  0  0  0
   58.4080   27.9990   45.2040 C   0  0  0  0  0  0  0  0  0  0  0  0
   58.8886   28.8486   44.6968 H   0  0  0  0  0  0  0  0  0  0  0  0
   59.1960   27.0050   45.7900 C   0  0  0  0  0  0  0  0  0  0  0  0
   60.2928   27.0751   45.7447 H   0  0  0  0  0  0  0  0  0  0  0  0
   58.5920   25.9230   46.4330 C   0  0  0  0  0  0  0  0  0  0  0  0
   59.2133   25.1408   46.8935 H   0  0  0  0  0  0  0  0  0  0  0  0
   57.2000   25.8330   46.4920 C   0  0  0  0  0  0  0  0  0  0  0  0
   56.7276   24.9778   46.9974 H   0  0  0  0  0  0  0  0  0  0  0  0
   56.4030   26.8260   45.9110 C   0  0  0  0  0  0  0  0  0  0  0  0
   55.0190   26.7150   45.9940 O   0  0  0  0  0  0  0  0  0  0  0  0
   57.5310   33.6030   45.2080 C   0  0  0  0  0  0  0  0  0  0  0  0
   56.5050   33.7438   44.8371 H   0  0  0  0  0  0  0  0  0  0  0  0
   58.3950   34.6920   45.2800 C   0  0  0  0  0  0  0  0  0  0  0  0
   58.0600   35.6898   44.9605 H   0  0  0  0  0  0  0  0  0  0  0  0
  1  2  1  0
  2  3  1  0
  3  4  1  0
  4  5  2  0
  5  6  1  0
  6  7  2  0
  7  8  1  0
  7  9  1  0
  9 10  1  0
  9 11  2  0
 11 12  1  0
 11 13  1  0
 13 14  1  0
 13 15  2  0
 15 16  1  0
  4 17  1  0
 17 18  1  0
 18 19  1  0
 19 20  2  0
 19 21  1  0
 21 22  1  0
 21 23  1  0
 21 24  1  0
 24 25  2  0
 25 26  1  0
 25 27  1  0
 27 28  1  0
 27 29  2  0
 29 30  1  0
 29 31  1  0
 31 32  1  0
 31 33  2  0
 33 34  1  0
 17 35  2  0
 35 36  1  0
 35 37  1  0
 37 38  1  0
 37  2  2  0
 15  6  1  0
 33 24  1  0
M  CHG  4   3  -1  14  -1  18  -1  34  -1
M  END
>  <UniqueID>  (25) 
25

>  <SMILES>  (25) 
O=C(Cc1ccccc1[O-])[N-]c1ccc[n-]/c1=N/c1cccc([O-])c1

>  <Energy>  (25) 
56.96826012542901

>  <Genealogy>  (25) 
O=C(Cc1ccccc1[O-])[N-]c1ccc[n-]c1=Nc1cccc([O-])c1 (protonated)
O=C(Cc1ccccc1[O-])[N-]c1ccc[n-]/c1=N/c1cccc([O-])c1 (cis-trans isomerization)
O=C(Cc1ccccc1[O-])[N-]c1ccc[n-]/c1=N/c1cccc([O-])c1 (3D coordinates assigned)
O=C(Cc1ccccc1[O-])[N-]c1ccc[n-]/c1=N/c1cccc([O-])c1 (optimized conformer: 56.96826012542901 kcal/mol)

>  <smiles>  (25) 
O=C(Cc1ccccc1O)Nc1ccc[nH]c1=Nc1cccc(O)c1

>  <score_type>  (25) 
oracle

>  <origin>  (25) 
adg

>  <m_score__min__energy>  (25) 
-16.010000000000002

>  <m_primary>  (25) 
energy

$$$$
25:0
     RDKit          3D

 38 40  0  0  0  0  0  0  0  0999 V2000
   55.1274   29.3400   43.5320 H   0  0  0  0  0  0  0  0  0  0  0  0
   55.6920   30.0940   44.1000 C   0  0  0  0  0  0  0  0  0  0  0  0
   55.3098   30.4546   45.0664 H   0  0  0  0  0  0  0  0  0  0  0  0
   56.8400   30.5710   43.6170 C   0  0  0  0  0  0  0  0  0  0  0  0
   57.1985   30.1926   42.6483 H   0  0  0  0  0  0  0  0  0  0  0  0
   57.6580   31.5900   44.3260 C   0  0  0  0  0  0  0  0  0  0  0  0
   57.7690   32.8910   43.8000 C   0  0  0  0  0  0  0  0  0  0  0  0
   57.3124   33.1230   42.8265 H   0  0  0  0  0  0  0  0  0  0  0  0
   58.4490   33.8890   44.4950 C   0  0  0  0  0  0  0  0  0  0  0  0
   58.5324   34.8956   44.0595 H   0  0  0  0  0  0  0  0  0  0  0  0
   59.0280   33.6230   45.7440 C   0  0  0  0  0  0  0  0  0  0  0  0
   59.7440   34.6880   46.4880 C   0  0  0  0  0  0  0  0  0  0  0  0
   59.6660   35.8850   46.0970 O   0  0  0  0  0  0  0  0  0  0  0  0
   60.5240   34.3500   47.6480 N   0  0  0  0  0  0  0  0  0  0  0  0
   61.6990   33.7940   47.6490 C   0  0  0  0  0  0  0  0  0  0  0  0
   62.5770   33.8560   46.6230 N   0  0  0  0  0  0  0  0  0  0  0  0
   63.7220   33.1820   46.9080 C   0  0  0  0  0  0  0  0  0  0  0  0
   64.5604   33.1173   46.1989 H   0  0  0  0  0  0  0  0  0  0  0  0
   63.7570   32.5800   48.1610 C   0  0  0  0  0  0  0  0  0  0  0  0
   64.5917   31.9931   48.5718 H   0  0  0  0  0  0  0  0  0  0  0  0
   62.3010   32.9050   48.9400 S   0  0  0  0  0  0  0  0  0  0  0  0
   58.9190   32.3280   46.2790 C   0  0  0  0  0  0  0  0  0  0  0  0
   59.3632   32.1109   47.2616 H   0  0  0  0  0  0  0  0  0  0  0  0
   58.2530   31.3050   45.5820 C   0  0  0  0  0  0  0  0  0  0  0  0
   58.2240   29.9490   46.1800 C   0  0  0  0  0  0  0  0  0  0  0  0
   58.1520   29.8280   47.4330 O   0  0  0  0  0  0  0  0  0  0  0  0
   58.3670   28.7840   45.3510 N   0  0  0  0  0  0  0  0  0  0  0  0
   58.8260   28.9040   44.4200 H   0  0  0  0  0  0  0  0  0  0  0  0
   58.0080   27.4560   45.7640 C   0  0  0  0  0  0  0  0  0  0  0  0
   59.0180   26.5170   46.0200 C   0  0  0  0  0  0  0  0  0  0  0  0
   60.0757   26.8031   45.9227 H   0  0  0  0  0  0  0  0  0  0  0  0
   58.6750   25.2170   46.3990 C   0  0  0  0  0  0  0  0  0  0  0  0
   59.4643   24.4815   46.6137 H   0  0  0  0  0  0  0  0  0  0  0  0
   57.3680   24.8590   46.5030 N   0  0  0  0  0  0  0  0  0  0  0  0
   56.3650   25.7400   46.2410 C   0  0  0  0  0  0  0  0  0  0  0  0
   55.1670   25.3680   46.3370 O   0  0  0  0  0  0  0  0  0  0  0  0
   56.6660   27.0510   45.8610 C   0  0  0  0  0  0  0  0  0  0  0  0
   55.8565   27.7620   45.6390 H   0  0  0  0  0  0  0  0  0  0  0  0
  1  2  1  0
  2  3  1  0
  2  4  2  0
  4  5  1  0
  4  6  1  0
  6  7  2  0
  7  8  1  0
  7  9  1  0
  9 10  1  0
  9 11  2  0
 11 12  1  0
 12 13  2  0
 12 14  1  0
 14 15  2  0
 15 16  1  0
 16 17  1  0
 17 18  1  0
 17 19  2  0
 19 20  1  0
 19 21  1  0
 11 22  1  0
 22 23  1  0
 22 24  2  0
 24 25  1  0
 25 26  2  0
 25 27  1  0
 27 28  1  0
 27 29  1  0
 29 30  1  0
 30 31  1  0
 30 32  2  0
 32 33  1  0
 32 34  1  0
 34 35  1  0
 35 36  2  0
 35 37  1  0
 37 38  1  0
 24  6  1  0
 37 29  2  0
 21 15  1  0
M  CHG  2  16  -1  34  -1
M  END
>  <UniqueID>  (26) 
26

>  <SMILES>  (26) 
C=Cc1ccc(C(=O)/N=c2\[n-]ccs2)cc1C(=O)Nc1cc[n-]c(=O)c1

>  <Energy>  (26) 
85.74111067225772

>  <Genealogy>  (26) 
C=Cc1ccc(C(=O)N=c2[n-]ccs2)cc1C(=O)Nc1cc[n-]c(=O)c1 (protonated)
C=Cc1ccc(C(=O)/N=c2\[n-]ccs2)cc1C(=O)Nc1cc[n-]c(=O)c1 (cis-trans isomerization)
C=Cc1ccc(C(=O)/N=c2\[n-]ccs2)cc1C(=O)Nc1cc[n-]c(=O)c1 (3D coordinates assigned)
C=Cc1ccc(C(=O)/N=c2\[n-]ccs2)cc1C(=O)Nc1cc[n-]c(=O)c1 (optimized conformer: 85.74111067225772 kcal/mol)

>  <smiles>  (26) 
C=Cc1ccc(C(=O)N=c2[nH]ccs2)cc1C(=O)Nc1cc[nH]c(=O)c1

>  <score_type>  (26) 
oracle

>  <origin>  (26) 
adg

>  <m_score__min__energy>  (26) 
-11.09

>  <m_primary>  (26) 
energy

$$$$
26:0
     RDKit          3D

 54 57  0  0  0  0  0  0  0  0999 V2000
   64.6848   33.4695   52.4540 H   0  0  0  0  0  0  0  0  0  0  0  0
   64.4220   33.4190   51.3870 C   0  0  0  0  0  0  0  0  0  0  0  0
   63.3090   34.0540   50.9280 N   0  0  0  0  0  0  0  0  0  0  0  0
   62.9360   34.0060   49.6130 C   0  0  0  0  0  0  0  0  0  0  0  0
   61.8650   34.6150   49.1900 N   0  0  0  0  0  0  0  0  0  0  0  0
   60.8460   34.0680   48.3330 C   0  0  0  0  0  0  0  0  0  0  0  0
   60.1890   34.8570   47.6010 O   0  0  0  0  0  0  0  0  0  0  0  0
   60.5820   32.6120   48.2450 C   0  0  0  0  0  0  0  0  0  0  0  0
   59.7020   31.9990   49.1540 C   0  0  0  0  0  0  0  0  0  0  0  0
   59.1843   32.6082   49.9095 H   0  0  0  0  0  0  0  0  0  0  0  0
   59.4810   30.6180   49.1030 C   0  0  0  0  0  0  0  0  0  0  0  0
   58.7839   30.1477   49.8121 H   0  0  0  0  0  0  0  0  0  0  0  0
   60.1440   29.8340   48.1530 C   0  0  0  0  0  0  0  0  0  0  0  0
   59.9270   28.4140   48.1350 N   0  0  0  0  0  0  0  0  0  0  0  0
   58.9210   27.7870   47.5900 C   0  0  0  0  0  0  0  0  0  0  0  0
   58.7310   26.4790   47.8980 N   0  0  0  0  0  0  0  0  0  0  0  0
   57.7270   25.7400   47.3590 C   0  0  0  0  0  0  0  0  0  0  0  0
   57.6126   24.6849   47.6485 H   0  0  0  0  0  0  0  0  0  0  0  0
   56.8310   26.3090   46.4340 C   0  0  0  0  0  0  0  0  0  0  0  0
   55.7660   25.4560   45.8330 C   0  0  0  0  0  0  0  0  0  0  0  0
   54.6030   25.9110   45.6410 O   0  0  0  0  0  0  0  0  0  0  0  0
   56.0640   24.1030   45.4570 N   0  0  0  0  0  0  0  0  0  0  0  0
   55.3200   23.3880   44.4310 C   0  0  0  0  0  0  0  0  0  0  0  0
   54.6053   22.7011   44.9079 H   0  0  0  0  0  0  0  0  0  0  0  0
   54.7738   24.1088   43.8048 H   0  0  0  0  0  0  0  0  0  0  0  0
   56.0185   22.8136   43.8048 H   0  0  0  0  0  0  0  0  0  0  0  0
   57.0140   27.6690   46.0830 C   0  0  0  0  0  0  0  0  0  0  0  0
   56.1480   28.3290   45.1460 N   0  0  0  0  0  0  0  0  0  0  0  0
   55.1530   28.0120   45.1020 H   0  0  0  0  0  0  0  0  0  0  0  0
   56.5570   29.4620   44.3510 C   0  0  0  0  0  0  0  0  0  0  0  0
   56.2640   29.5440   42.9710 C   0  0  0  0  0  0  0  0  0  0  0  0
   55.7310   28.7194   42.4751 H   0  0  0  0  0  0  0  0  0  0  0  0
   56.6470   30.6650   42.2340 C   0  0  0  0  0  0  0  0  0  0  0  0
   56.4281   30.7143   41.1571 H   0  0  0  0  0  0  0  0  0  0  0  0
   57.3070   31.7240   42.8590 C   0  0  0  0  0  0  0  0  0  0  0  0
   57.6064   32.6060   42.2738 H   0  0  0  0  0  0  0  0  0  0  0  0
   57.5900   31.6660   44.2350 C   0  0  0  0  0  0  0  0  0  0  0  0
   58.2310   32.7660   44.8860 N   0  0  0  0  0  0  0  0  0  0  0  0
   58.3360   33.6840   44.3980 H   0  0  0  0  0  0  0  0  0  0  0  0
   58.5930   32.6780   45.8670 H   0  0  0  0  0  0  0  0  0  0  0  0
   57.2180   30.5340   44.9740 C   0  0  0  0  0  0  0  0  0  0  0  0
   57.4453   30.4848   46.0491 H   0  0  0  0  0  0  0  0  0  0  0  0
   58.0600   28.4010   46.6630 C   0  0  0  0  0  0  0  0  0  0  0  0
   58.2073   29.4570   46.3925 H   0  0  0  0  0  0  0  0  0  0  0  0
   60.9670   30.4520   47.1980 C   0  0  0  0  0  0  0  0  0  0  0  0
   61.4429   29.8475   46.4118 H   0  0  0  0  0  0  0  0  0  0  0  0
   61.1840   31.8310   47.2420 C   0  0  0  0  0  0  0  0  0  0  0  0
   61.8284   32.3083   46.4891 H   0  0  0  0  0  0  0  0  0  0  0  0
   63.7370   33.3130   48.6950 C   0  0  0  0  0  0  0  0  0  0  0  0
   63.4633   33.2858   47.6299 H   0  0  0  0  0  0  0  0  0  0  0  0
   64.8860   32.6570   49.1440 C   0  0  0  0  0  0  0  0  0  0  0  0
   65.5187   32.1057   48.4328 H   0  0  0  0  0  0  0  0  0  0  0  0
   65.2310   32.7020   50.4990 C   0  0  0  0  0  0  0  0  0  0  0  0
   66.7940   31.8000   51.1260 Br  0  0  0  0  0  0  0  0  0  0  0  0
  1  2  1  0
  2  3  1  0
  3  4  1  0
  4  5  2  0
  5  6  1  0
  6  7  2  0
  6  8  1  0
  8  9  2  0
  9 10  1  0
  9 11  1  0
 11 12  1  0
 11 13  2  0
 13 14  1  0
 14 15  2  3
 15 16  1  0
 16 17  1  0
 17 18  1  0
 17 19  2  0
 19 20  1  0
 20 21  2  0
 20 22  1  0
 22 23  1  0
 23 24  1  0
 23 25  1  0
 23 26  1  0
 19 27  1  0
 27 28  1  0
 28 29  1  0
 28 30  1  0
 30 31  2  0
 31 32  1  0
 31 33  1  0
 33 34  1  0
 33 35  2  0
 35 36  1  0
 35 37  1  0
 37 38  1  0
 38 39  1  0
 38 40  1  0
 37 41  2  0
 41 42  1  0
 27 43  2  0
 43 44  1  0
 13 45  1  0
 45 46  1  0
 45 47  2  0
 47 48  1  0
  4 49  1  0
 49 50  1  0
 49 51  2  0
 51 52  1  0
 51 53  1  0
 53 54  1  0
 53  2  2  0
 47  8  1  0
 43 15  1  0
 41 30  1  0
M  CHG  3   3  -1  16  -1  22  -1
M  END
>  <UniqueID>  (27) 
27

>  <SMILES>  (27) 
C[N-]C(=O)c1c[n-]c(=Nc2ccc(C(=O)/N=c3/ccc(Br)c[n-]3)cc2)cc1Nc1cccc(N)c1

>  <Energy>  (27) 
81.73377372976276

>  <Genealogy>  (27) 
C[N-]C(=O)c1c[n-]c(=Nc2ccc(C(=O)N=c3ccc(Br)c[n-]3)cc2)cc1Nc1cccc(N)c1 (protonated)
C[N-]C(=O)c1c[n-]c(=Nc2ccc(C(=O)/N=c3/ccc(Br)c[n-]3)cc2)cc1Nc1cccc(N)c1 (cis-trans isomerization)
C[N-]C(=O)c1c[n-]c(=Nc2ccc(C(=O)/N=c3/ccc(Br)c[n-]3)cc2)cc1Nc1cccc(N)c1 (3D coordinates assigned)
C[N-]C(=O)c1c[n-]c(=Nc2ccc(C(=O)/N=c3/ccc(Br)c[n-]3)cc2)cc1Nc1cccc(N)c1 (optimized conformer: 81.73377372976276 kcal/mol)

>  <smiles>  (27) 
CNC(=O)c1c[nH]c(=Nc2ccc(C(=O)N=c3ccc(Br)c[nH]3)cc2)cc1Nc1cccc(N)c1

>  <score_type>  (27) 
oracle

>  <origin>  (27) 
adg

>  <m_score__min__energy>  (27) 
-12.6

>  <m_primary>  (27) 
energy

$$$$
27:0
     RDKit          3D

 63 67  0  0  0  0  0  0  0  0999 V2000
   56.5800   30.6190   44.5100 O   0  0  0  0  0  0  0  0  0  0  0  0
   57.3470   29.8760   45.1810 C   0  0  0  0  0  0  0  0  0  0  0  0
   58.1420   30.4400   46.2370 N   0  0  0  0  0  0  0  0  0  0  0  0
   58.5120   31.8290   46.3130 C   0  0  0  0  0  0  0  0  0  0  0  0
   57.7600   32.8270   45.6700 C   0  0  0  0  0  0  0  0  0  0  0  0
   58.1740   34.1590   45.7160 C   0  0  0  0  0  0  0  0  0  0  0  0
   59.3480   34.5080   46.3840 C   0  0  0  0  0  0  0  0  0  0  0  0
   60.1280   33.5240   47.0170 C   0  0  0  0  0  0  0  0  0  0  0  0
   61.3830   33.8770   47.6380 N   0  0  0  0  0  0  0  0  0  0  0  0
   61.4430   34.5870   48.9140 C   0  0  0  0  0  0  0  0  0  0  0  0
   62.0460   33.6640   49.9780 C   0  0  0  0  0  0  0  0  0  0  0  0
   63.1600   32.8300   49.4610 N   0  0  0  0  0  0  0  0  0  0  0  0
   63.0480   31.3770   49.7190 C   0  0  0  0  0  0  0  0  0  0  0  0
   61.6230   30.8920   49.8710 C   0  0  0  0  0  0  0  0  0  0  0  0
   60.8650   31.2300   51.0050 C   0  0  0  0  0  0  0  0  0  0  0  0
   59.5470   30.7830   51.1360 C   0  0  0  0  0  0  0  0  0  0  0  0
   58.9760   29.9850   50.1410 C   0  0  0  0  0  0  0  0  0  0  0  0
   59.7310   29.6130   49.0250 C   0  0  0  0  0  0  0  0  0  0  0  0
   59.1680   28.8090   48.0440 O   0  0  0  0  0  0  0  0  0  0  0  0
   61.0530   30.0520   48.8970 C   0  0  0  0  0  0  0  0  0  0  0  0
   63.7250   33.2160   48.1470 C   0  0  0  0  0  0  0  0  0  0  0  0
   62.6480   33.4100   47.0600 C   0  0  0  0  0  0  0  0  0  0  0  0
   59.6960   32.1860   46.9760 C   0  0  0  0  0  0  0  0  0  0  0  0
   57.3740   28.4180   44.9090 C   0  0  0  0  0  0  0  0  0  0  0  0
   57.7780   27.9230   43.6570 C   0  0  0  0  0  0  0  0  0  0  0  0
   57.8050   26.5470   43.4120 C   0  0  0  0  0  0  0  0  0  0  0  0
   57.4260   25.6350   44.4120 C   0  0  0  0  0  0  0  0  0  0  0  0
   57.4680   24.1720   44.1540 C   0  0  0  0  0  0  0  0  0  0  0  0
   58.3750   23.3480   44.8460 C   0  0  0  0  0  0  0  0  0  0  0  0
   58.4080   21.9720   44.6040 C   0  0  0  0  0  0  0  0  0  0  0  0
   57.5400   21.4030   43.6690 C   0  0  0  0  0  0  0  0  0  0  0  0
   56.6360   22.2100   42.9760 C   0  0  0  0  0  0  0  0  0  0  0  0
   56.5970   23.5870   43.2140 C   0  0  0  0  0  0  0  0  0  0  0  0
   57.0080   26.1300   45.6580 C   0  0  0  0  0  0  0  0  0  0  0  0
   56.9790   27.5050   45.9030 C   0  0  0  0  0  0  0  0  0  0  0  0
   58.3870   29.8260   47.0460 H   0  0  0  0  0  0  0  0  0  0  0  0
   56.8414   32.5572   45.1283 H   0  0  0  0  0  0  0  0  0  0  0  0
   57.5721   34.9369   45.2235 H   0  0  0  0  0  0  0  0  0  0  0  0
   59.6658   35.5606   46.4158 H   0  0  0  0  0  0  0  0  0  0  0  0
   62.0710   35.4837   48.8066 H   0  0  0  0  0  0  0  0  0  0  0  0
   60.4291   34.8868   49.2174 H   0  0  0  0  0  0  0  0  0  0  0  0
   62.4262   34.2831   50.8039 H   0  0  0  0  0  0  0  0  0  0  0  0
   61.2502   32.9803   50.3086 H   0  0  0  0  0  0  0  0  0  0  0  0
   63.5097   30.8388   48.8781 H   0  0  0  0  0  0  0  0  0  0  0  0
   63.5568   31.1811   50.6744 H   0  0  0  0  0  0  0  0  0  0  0  0
   61.3121   31.8509   51.7954 H   0  0  0  0  0  0  0  0  0  0  0  0
   58.9587   31.0597   52.0233 H   0  0  0  0  0  0  0  0  0  0  0  0
   57.9327   29.6497   50.2360 H   0  0  0  0  0  0  0  0  0  0  0  0
   61.6510   29.7382   48.0287 H   0  0  0  0  0  0  0  0  0  0  0  0
   64.2762   34.1604   48.2665 H   0  0  0  0  0  0  0  0  0  0  0  0
   64.3803   32.3962   47.8176 H   0  0  0  0  0  0  0  0  0  0  0  0
   63.0045   34.1529   46.3313 H   0  0  0  0  0  0  0  0  0  0  0  0
   62.4691   32.4403   46.5726 H   0  0  0  0  0  0  0  0  0  0  0  0
   60.2954   31.4078   47.4711 H   0  0  0  0  0  0  0  0  0  0  0  0
   58.0754   28.6242   42.8634 H   0  0  0  0  0  0  0  0  0  0  0  0
   58.1257   26.1747   42.4278 H   0  0  0  0  0  0  0  0  0  0  0  0
   59.0625   23.7899   45.5822 H   0  0  0  0  0  0  0  0  0  0  0  0
   59.1191   21.3355   45.1510 H   0  0  0  0  0  0  0  0  0  0  0  0
   57.5688   20.3199   43.4790 H   0  0  0  0  0  0  0  0  0  0  0  0
   55.9523   21.7611   42.2405 H   0  0  0  0  0  0  0  0  0  0  0  0
   55.8823   24.2171   42.6643 H   0  0  0  0  0  0  0  0  0  0  0  0
   56.7007   25.4289   46.4479 H   0  0  0  0  0  0  0  0  0  0  0  0
   56.6441   27.8770   46.8825 H   0  0  0  0  0  0  0  0  0  0  0  0
  1  2  2  0
  2  3  1  0
  3  4  1  0
  4  5  2  0
  5  6  1  0
  6  7  2  0
  7  8  1  0
  8  9  1  0
  9 10  1  0
 10 11  1  0
 11 12  1  0
 12 13  1  0
 13 14  1  0
 14 15  2  0
 15 16  1  0
 16 17  2  0
 17 18  1  0
 18 19  1  0
 18 20  2  0
 12 21  1  0
 21 22  1  0
  8 23  2  0
  2 24  1  0
 24 25  2  0
 25 26  1  0
 26 27  2  0
 27 28  1  0
 28 29  2  0
 29 30  1  0
 30 31  2  0
 31 32  1  0
 32 33  2  0
 27 34  1  0
 34 35  2  0
 23  4  1  0
 35 24  1  0
 22  9  1  0
 33 28  1  0
 20 14  1  0
  3 36  1  0
  5 37  1  0
  6 38  1  0
  7 39  1  0
 10 40  1  0
 10 41  1  0
 11 42  1  0
 11 43  1  0
 13 44  1  0
 13 45  1  0
 15 46  1  0
 16 47  1  0
 17 48  1  0
 20 49  1  0
 21 50  1  0
 21 51  1  0
 22 52  1  0
 22 53  1  0
 23 54  1  0
 25 55  1  0
 26 56  1  0
 29 57  1  0
 30 58  1  0
 31 59  1  0
 32 60  1  0
 33 61  1  0
 34 62  1  0
 35 63  1  0
M  CHG  1  19  -1
M  END
>  <UniqueID>  (28) 
28

>  <SMILES>  (28) 
O=C(Nc1cccc(N2CCN(Cc3cccc([O-])c3)CC2)c1)c1ccc(-c2ccccc2)cc1

>  <Energy>  (28) 
92.81114053273323

>  <Genealogy>  (28) 
O=C(Nc1cccc(N2CCN(Cc3cccc([O-])c3)CC2)c1)c1ccc(-c2ccccc2)cc1 (protonated)
O=C(Nc1cccc(N2CCN(Cc3cccc([O-])c3)CC2)c1)c1ccc(-c2ccccc2)cc1 (3D coordinates assigned)
O=C(Nc1cccc(N2CCN(Cc3cccc([O-])c3)CC2)c1)c1ccc(-c2ccccc2)cc1 (nonaromatic ring conformer: 92.81114053273323 kcal/mol)

>  <smiles>  (28) 
O=C(Nc1cccc(N2CCN(Cc3cccc(O)c3)CC2)c1)c1ccc(-c2ccccc2)cc1

>  <score_type>  (28) 
oracle

>  <origin>  (28) 
adg

>  <m_score__min__energy>  (28) 
-13.529999999999999

>  <m_primary>  (28) 
energy

$$$$
28:0
     RDKit          3D

 66 69  0  0  0  0  0  0  0  0999 V2000
   63.0220   34.0910   50.0560 C   0  0  0  0  0  0  0  0  0  0  0  0
   64.0750   33.1650   50.7080 C   0  0  0  0  0  0  0  0  0  0  0  0
   64.5710   33.8350   52.0060 C   0  0  0  0  0  0  0  0  0  0  0  0
   65.2570   33.0010   49.7360 C   0  0  0  0  0  0  0  0  0  0  0  0
   63.5160   31.7810   51.0470 C   0  0  0  0  0  0  0  0  0  0  0  0
   64.2240   30.8010   50.8480 O   0  0  0  0  0  0  0  0  0  0  0  0
   62.1440   31.5850   51.6610 C   0  0  0  0  0  0  0  0  0  0  0  0
   61.2080   30.8320   50.7600 C   0  0  0  0  0  0  0  0  0  0  0  0
   60.1130   31.3730   50.1830 N   0  0  0  0  0  0  0  0  0  0  0  0
   59.5680   30.3400   49.5030 C   0  0  0  0  0  0  0  0  0  0  0  0
   58.5210   30.4570   48.8130 O   0  0  0  0  0  0  0  0  0  0  0  0
   60.2500   29.1790   49.6350 N   0  0  0  0  0  0  0  0  0  0  0  0
   59.9760   27.9080   48.9610 C   0  0  0  0  0  0  0  0  0  0  0  0
   59.6250   28.1500   47.5170 C   0  0  0  0  0  0  0  0  0  0  0  0
   60.6330   28.3010   46.5520 C   0  0  0  0  0  0  0  0  0  0  0  0
   60.3010   28.5580   45.2200 C   0  0  0  0  0  0  0  0  0  0  0  0
   58.9610   28.6690   44.8390 C   0  0  0  0  0  0  0  0  0  0  0  0
   57.9410   28.5390   45.7970 C   0  0  0  0  0  0  0  0  0  0  0  0
   56.5540   28.6000   45.4350 N   0  0  0  0  0  0  0  0  0  0  0  0
   55.9630   29.5170   44.5080 C   0  0  0  0  0  0  0  0  0  0  0  0
   54.7880   29.3250   44.0940 O   0  0  0  0  0  0  0  0  0  0  0  0
   56.7480   30.6620   43.9960 C   0  0  0  0  0  0  0  0  0  0  0  0
   56.9060   30.8590   42.6140 C   0  0  0  0  0  0  0  0  0  0  0  0
   57.6290   31.9530   42.1350 C   0  0  0  0  0  0  0  0  0  0  0  0
   58.1880   32.8710   43.0270 C   0  0  0  0  0  0  0  0  0  0  0  0
   58.0410   32.6990   44.4150 C   0  0  0  0  0  0  0  0  0  0  0  0
   58.6290   33.6770   45.3600 C   0  0  0  0  0  0  0  0  0  0  0  0
   58.5060   34.9090   45.1380 O   0  0  0  0  0  0  0  0  0  0  0  0
   59.2890   33.2090   46.5470 N   0  0  0  0  0  0  0  0  0  0  0  0
   60.6740   32.8900   46.7530 C   0  0  0  0  0  0  0  0  0  0  0  0
   61.1220   31.6010   47.1130 C   0  0  0  0  0  0  0  0  0  0  0  0
   62.4900   31.3550   47.2850 C   0  0  0  0  0  0  0  0  0  0  0  0
   63.4150   32.3830   47.0960 C   0  0  0  0  0  0  0  0  0  0  0  0
   62.9770   33.6690   46.7660 C   0  0  0  0  0  0  0  0  0  0  0  0
   61.6130   33.9210   46.5990 C   0  0  0  0  0  0  0  0  0  0  0  0
   57.3260   31.5840   44.8890 C   0  0  0  0  0  0  0  0  0  0  0  0
   58.2790   28.2700   47.1300 C   0  0  0  0  0  0  0  0  0  0  0  0
   61.2870   29.4940   50.4350 C   0  0  0  0  0  0  0  0  0  0  0  0
   62.2760   28.6140   50.8690 O   0  0  0  0  0  0  0  0  0  0  0  0
   62.4440   34.5993   50.8418 H   0  0  0  0  0  0  0  0  0  0  0  0
   63.5296   34.8406   49.4312 H   0  0  0  0  0  0  0  0  0  0  0  0
   62.3434   33.4917   49.4312 H   0  0  0  0  0  0  0  0  0  0  0  0
   64.1697   33.2929   52.8749 H   0  0  0  0  0  0  0  0  0  0  0  0
   65.6704   33.8105   52.0343 H   0  0  0  0  0  0  0  0  0  0  0  0
   64.2266   34.8793   52.0343 H   0  0  0  0  0  0  0  0  0  0  0  0
   66.1873   32.8719   50.3085 H   0  0  0  0  0  0  0  0  0  0  0  0
   65.0908   32.1173   49.1024 H   0  0  0  0  0  0  0  0  0  0  0  0
   65.3377   33.8966   49.1024 H   0  0  0  0  0  0  0  0  0  0  0  0
   62.2558   31.0237   52.6004 H   0  0  0  0  0  0  0  0  0  0  0  0
   61.7109   32.5817   51.8316 H   0  0  0  0  0  0  0  0  0  0  0  0
   60.8690   27.2680   49.0155 H   0  0  0  0  0  0  0  0  0  0  0  0
   59.1285   27.4136   49.4583 H   0  0  0  0  0  0  0  0  0  0  0  0
   61.6895   28.2165   46.8463 H   0  0  0  0  0  0  0  0  0  0  0  0
   61.0963   28.6733   44.4688 H   0  0  0  0  0  0  0  0  0  0  0  0
   58.7039   28.8586   43.7864 H   0  0  0  0  0  0  0  0  0  0  0  0
   56.4575   30.1472   41.9053 H   0  0  0  0  0  0  0  0  0  0  0  0
   57.7588   32.0925   41.0516 H   0  0  0  0  0  0  0  0  0  0  0  0
   58.7478   33.7355   42.6407 H   0  0  0  0  0  0  0  0  0  0  0  0
   60.3954   30.7881   47.2588 H   0  0  0  0  0  0  0  0  0  0  0  0
   62.8359   30.3503   47.5694 H   0  0  0  0  0  0  0  0  0  0  0  0
   64.4906   32.1810   47.2069 H   0  0  0  0  0  0  0  0  0  0  0  0
   63.7063   34.4824   46.6378 H   0  0  0  0  0  0  0  0  0  0  0  0
   61.2726   34.9357   46.3448 H   0  0  0  0  0  0  0  0  0  0  0  0
   57.2171   31.4305   45.9728 H   0  0  0  0  0  0  0  0  0  0  0  0
   57.4836   28.1516   47.8806 H   0  0  0  0  0  0  0  0  0  0  0  0
   63.2040   28.9280   51.1150 H   0  0  0  0  0  0  0  0  0  0  0  0
  1  2  1  0
  2  3  1  0
  2  4  1  0
  2  5  1  0
  5  6  2  0
  5  7  1  0
  7  8  1  0
  8  9  1  0
  9 10  1  0
 10 11  2  0
 10 12  1  0
 12 13  1  0
 13 14  1  0
 14 15  2  0
 15 16  1  0
 16 17  2  0
 17 18  1  0
 18 19  1  0
 19 20  1  0
 20 21  2  0
 20 22  1  0
 22 23  2  0
 23 24  1  0
 24 25  2  0
 25 26  1  0
 26 27  1  0
 27 28  2  0
 27 29  1  0
 29 30  1  0
 30 31  2  0
 31 32  1  0
 32 33  2  0
 33 34  1  0
 34 35  2  0
 26 36  2  0
 18 37  2  0
 12 38  1  0
 38 39  1  0
 38  8  2  0
 37 14  1  0
 36 22  1  0
 35 30  1  0
  1 40  1  0
  1 41  1  0
  1 42  1  0
  3 43  1  0
  3 44  1  0
  3 45  1  0
  4 46  1  0
  4 47  1  0
  4 48  1  0
  7 49  1  0
  7 50  1  0
 13 51  1  0
 13 52  1  0
 15 53  1  0
 16 54  1  0
 17 55  1  0
 23 56  1  0
 24 57  1  0
 25 58  1  0
 31 59  1  0
 32 60  1  0
 33 61  1  0
 34 62  1  0
 35 63  1  0
 36 64  1  0
 37 65  1  0
 39 66  1  0
M  CHG  3   9  -1  19  -1  29  -1
M  END
>  <UniqueID>  (29) 
29

>  <SMILES>  (29) 
CC(C)(C)C(=O)Cc1[n-]c(=O)n(Cc2cccc([N-]C(=O)c3cccc(C(=O)[N-]c4ccccc4)c3)c2)c1O

>  <Energy>  (29) 
107.08050903467824

>  <Genealogy>  (29) 
CC(C)(C)C(=O)Cc1[n-]c(=O)n(Cc2cccc([N-]C(=O)c3cccc(C(=O)[N-]c4ccccc4)c3)c2)c1O (protonated)
CC(C)(C)C(=O)Cc1[n-]c(=O)n(Cc2cccc([N-]C(=O)c3cccc(C(=O)[N-]c4ccccc4)c3)c2)c1O (3D coordinates assigned)
CC(C)(C)C(=O)Cc1[n-]c(=O)n(Cc2cccc([N-]C(=O)c3cccc(C(=O)[N-]c4ccccc4)c3)c2)c1O (optimized conformer: 107.08050903467824 kcal/mol)

>  <smiles>  (29) 
CC(C)(C)C(=O)Cc1[nH]c(=O)n(Cc2cccc(NC(=O)c3cccc(C(=O)Nc4ccccc4)c3)c2)c1O

>  <score_type>  (29) 
oracle

>  <origin>  (29) 
adg

>  <m_score__min__energy>  (29) 
-15.720000000000001

>  <m_primary>  (29) 
energy

$$$$
29:0
     RDKit          3D

 43 45  0  0  0  0  0  0  0  0999 V2000
   57.7210   32.4570   51.9810 C   0  0  0  0  0  0  0  0  0  0  0  0
   57.5980   32.3650   50.5320 N   0  0  0  0  0  0  0  0  0  0  0  0
   58.7540   32.3670   49.6780 C   0  0  0  0  0  0  0  0  0  0  0  0
   59.9040   32.3080   50.1920 O   0  0  0  0  0  0  0  0  0  0  0  0
   58.6190   32.4160   48.2020 C   0  0  0  0  0  0  0  0  0  0  0  0
   59.5150   31.6990   47.3900 C   0  0  0  0  0  0  0  0  0  0  0  0
   59.4010   31.7380   45.9980 C   0  0  0  0  0  0  0  0  0  0  0  0
   58.3880   32.4950   45.3910 C   0  0  0  0  0  0  0  0  0  0  0  0
   58.2660   32.5460   43.8900 C   0  0  0  0  0  0  0  0  0  0  0  0
   57.5910   31.3890   43.3960 O   0  0  0  0  0  0  0  0  0  0  0  0
   57.5430   30.1400   44.0400 C   0  0  0  0  0  0  0  0  0  0  0  0
   58.6690   29.3000   44.1460 C   0  0  0  0  0  0  0  0  0  0  0  0
   58.5730   28.0710   44.8040 C   0  0  0  0  0  0  0  0  0  0  0  0
   57.3550   27.6610   45.3650 C   0  0  0  0  0  0  0  0  0  0  0  0
   57.2520   26.3530   46.0520 C   0  0  0  0  0  0  0  0  0  0  0  0
   56.0040   25.7460   46.3140 C   0  0  0  0  0  0  0  0  0  0  0  0
   54.7690   26.3940   45.9940 N   0  0  0  0  0  0  0  0  0  0  0  0
   55.9670   24.5290   46.9190 N   0  0  0  0  0  0  0  0  0  0  0  0
   57.1020   23.8840   47.2840 C   0  0  0  0  0  0  0  0  0  0  0  0
   57.0340   22.7580   47.8420 O   0  0  0  0  0  0  0  0  0  0  0  0
   58.3110   24.4520   47.0530 N   0  0  0  0  0  0  0  0  0  0  0  0
   58.4130   25.6640   46.4500 C   0  0  0  0  0  0  0  0  0  0  0  0
   59.5560   26.1530   46.2400 O   0  0  0  0  0  0  0  0  0  0  0  0
   56.2300   28.4890   45.2480 C   0  0  0  0  0  0  0  0  0  0  0  0
   56.3250   29.7210   44.5910 C   0  0  0  0  0  0  0  0  0  0  0  0
   55.2000   30.5310   44.4890 O   0  0  0  0  0  0  0  0  0  0  0  0
   57.5090   33.2340   46.1940 C   0  0  0  0  0  0  0  0  0  0  0  0
   57.6210   33.1950   47.5880 C   0  0  0  0  0  0  0  0  0  0  0  0
   56.9261   31.8624   52.4549 H   0  0  0  0  0  0  0  0  0  0  0  0
   58.7028   32.0698   52.2910 H   0  0  0  0  0  0  0  0  0  0  0  0
   57.6269   33.5082   52.2910 H   0  0  0  0  0  0  0  0  0  0  0  0
   56.6430   32.2480   50.1250 H   0  0  0  0  0  0  0  0  0  0  0  0
   60.3132   31.1017   47.8548 H   0  0  0  0  0  0  0  0  0  0  0  0
   60.1093   31.1722   45.3749 H   0  0  0  0  0  0  0  0  0  0  0  0
   57.6982   33.4439   43.6048 H   0  0  0  0  0  0  0  0  0  0  0  0
   59.2760   32.5771   43.4553 H   0  0  0  0  0  0  0  0  0  0  0  0
   59.6285   29.6131   43.7086 H   0  0  0  0  0  0  0  0  0  0  0  0
   59.4575   27.4218   44.8823 H   0  0  0  0  0  0  0  0  0  0  0  0
   54.3320   27.0470   46.6830 H   0  0  0  0  0  0  0  0  0  0  0  0
   54.3060   26.2850   45.0650 H   0  0  0  0  0  0  0  0  0  0  0  0
   55.2680   28.1689   45.6746 H   0  0  0  0  0  0  0  0  0  0  0  0
   56.7262   33.8485   45.7255 H   0  0  0  0  0  0  0  0  0  0  0  0
   56.9239   33.7774   48.2084 H   0  0  0  0  0  0  0  0  0  0  0  0
  1  2  1  0
  2  3  1  0
  3  4  2  0
  3  5  1  0
  5  6  2  0
  6  7  1  0
  7  8  2  0
  8  9  1  0
  9 10  1  0
 10 11  1  0
 11 12  2  0
 12 13  1  0
 13 14  2  0
 14 15  1  0
 15 16  2  0
 16 17  1  0
 16 18  1  0
 18 19  1  0
 19 20  2  0
 19 21  1  0
 21 22  1  0
 22 23  2  0
 14 24  1  0
 24 25  2  0
 25 26  1  0
  8 27  1  0
 27 28  2  0
 28  5  1  0
 25 11  1  0
 22 15  1  0
  1 29  1  0
  1 30  1  0
  1 31  1  0
  2 32  1  0
  6 33  1  0
  7 34  1  0
  9 35  1  0
  9 36  1  0
 12 37  1  0
 13 38  1  0
 17 39  1  0
 17 40  1  0
 24 41  1  0
 27 42  1  0
 28 43  1  0
M  CHG  3  18  -1  21  -1  26  -1
M  END
>  <UniqueID>  (30) 
30

>  <SMILES>  (30) 
CNC(=O)c1ccc(COc2ccc(-c3c(N)[n-]c(=O)[n-]c3=O)cc2[O-])cc1

>  <Energy>  (30) 
54.402943515912646

>  <Genealogy>  (30) 
CNC(=O)c1ccc(COc2ccc(-c3c(N)[n-]c(=O)[n-]c3=O)cc2[O-])cc1 (protonated)
CNC(=O)c1ccc(COc2ccc(-c3c(N)[n-]c(=O)[n-]c3=O)cc2[O-])cc1 (3D coordinates assigned)
CNC(=O)c1ccc(COc2ccc(-c3c(N)[n-]c(=O)[n-]c3=O)cc2[O-])cc1 (optimized conformer: 54.402943515912646 kcal/mol)

>  <smiles>  (30) 
CNC(=O)c1ccc(COc2ccc(-c3c(N)[nH]c(=O)[nH]c3=O)cc2O)cc1

>  <score_type>  (30) 
oracle

>  <origin>  (30) 
adg

>  <m_score__min__energy>  (30) 
-14.779999999999999

>  <m_primary>  (30) 
energy

$$$$
30:0
     RDKit          3D

 47 50  0  0  0  0  0  0  0  0999 V2000
   54.9520   26.3700   46.8060 H   0  0  0  0  0  0  0  0  0  0  0  0
   54.7010   26.0580   45.8750 O   0  0  0  0  0  0  0  0  0  0  0  0
   55.4270   25.0520   45.2420 C   0  0  0  0  0  0  0  0  0  0  0  0
   54.8710   23.9570   44.6960 N   0  0  0  0  0  0  0  0  0  0  0  0
   55.9470   23.2650   44.2610 C   0  0  0  0  0  0  0  0  0  0  0  0
   55.8480   22.1510   43.6840 O   0  0  0  0  0  0  0  0  0  0  0  0
   57.1370   23.8560   44.5020 N   0  0  0  0  0  0  0  0  0  0  0  0
   56.7960   25.0100   45.1020 C   0  0  0  0  0  0  0  0  0  0  0  0
   57.7750   25.9570   45.6590 C   0  0  0  0  0  0  0  0  0  0  0  0
   58.3528   25.6256   46.5344 H   0  0  0  0  0  0  0  0  0  0  0  0
   58.0250   27.1960   45.1890 C   0  0  0  0  0  0  0  0  0  0  0  0
   58.3660   28.2600   46.0080 C   0  0  0  0  0  0  0  0  0  0  0  0
   58.5209   28.2270   47.0965 H   0  0  0  0  0  0  0  0  0  0  0  0
   58.4740   29.3710   45.1930 C   0  0  0  0  0  0  0  0  0  0  0  0
   58.8290   30.7270   45.6520 C   0  0  0  0  0  0  0  0  0  0  0  0
   58.8250   31.6730   44.8170 O   0  0  0  0  0  0  0  0  0  0  0  0
   59.1800   30.9930   47.0230 N   0  0  0  0  0  0  0  0  0  0  0  0
   59.9530   30.0150   47.8040 C   0  0  0  0  0  0  0  0  0  0  0  0
   59.2891   29.5154   48.5249 H   0  0  0  0  0  0  0  0  0  0  0  0
   60.3883   29.2673   47.1247 H   0  0  0  0  0  0  0  0  0  0  0  0
   61.0750   30.7310   48.5570 C   0  0  0  0  0  0  0  0  0  0  0  0
   61.6336   29.9913   49.1493 H   0  0  0  0  0  0  0  0  0  0  0  0
   61.7244   31.2191   47.8154 H   0  0  0  0  0  0  0  0  0  0  0  0
   60.5290   31.8250   49.5090 C   0  0  0  0  0  0  0  0  0  0  0  0
   60.3975   31.3591   50.4968 H   0  0  0  0  0  0  0  0  0  0  0  0
   61.5260   32.9560   49.6250 C   0  0  0  0  0  0  0  0  0  0  0  0
   61.8600   33.5570   50.7840 N   0  0  0  0  0  0  0  0  0  0  0  0
   62.7000   34.5470   50.5170 N   0  0  0  0  0  0  0  0  0  0  0  0
   62.9010   34.5980   49.1860 C   0  0  0  0  0  0  0  0  0  0  0  0
   63.5543   35.3135   48.6652 H   0  0  0  0  0  0  0  0  0  0  0  0
   62.1560   33.6090   48.5830 C   0  0  0  0  0  0  0  0  0  0  0  0
   62.0690   33.3080   47.1210 C   0  0  0  0  0  0  0  0  0  0  0  0
   61.7661   32.2600   46.9798 H   0  0  0  0  0  0  0  0  0  0  0  0
   61.3256   33.9707   46.6538 H   0  0  0  0  0  0  0  0  0  0  0  0
   63.0513   33.4719   46.6538 H   0  0  0  0  0  0  0  0  0  0  0  0
   59.1260   32.3440   49.1040 C   0  0  0  0  0  0  0  0  0  0  0  0
   58.3646   31.7093   49.5810 H   0  0  0  0  0  0  0  0  0  0  0  0
   59.0494   33.3898   49.4364 H   0  0  0  0  0  0  0  0  0  0  0  0
   58.9030   32.3220   47.5860 C   0  0  0  0  0  0  0  0  0  0  0  0
   57.8574   32.5898   47.3739 H   0  0  0  0  0  0  0  0  0  0  0  0
   59.5921   33.0444   47.1241 H   0  0  0  0  0  0  0  0  0  0  0  0
   58.2600   29.0320   43.9070 N   0  0  0  0  0  0  0  0  0  0  0  0
   58.3580   29.6600   43.0770 H   0  0  0  0  0  0  0  0  0  0  0  0
   58.0120   27.7050   43.8810 C   0  0  0  0  0  0  0  0  0  0  0  0
   57.9180   27.0300   42.7310 C   0  0  0  0  0  0  0  0  0  0  0  0
   57.7150   25.9490   42.7428 H   0  0  0  0  0  0  0  0  0  0  0  0
   58.0436   27.5556   41.7729 H   0  0  0  0  0  0  0  0  0  0  0  0
  1  2  1  0
  2  3  1  0
  3  4  1  0
  4  5  1  0
  5  6  2  0
  5  7  1  0
  7  8  1  0
  8  9  1  0
  9 10  1  0
  9 11  2  0
 11 12  1  0
 12 13  1  0
 12 14  2  0
 14 15  1  0
 15 16  2  0
 15 17  1  0
 17 18  1  0
 18 19  1  0
 18 20  1  0
 18 21  1  0
 21 22  1  0
 21 23  1  0
 21 24  1  0
 24 25  1  0
 24 26  1  0
 26 27  2  0
 27 28  1  0
 28 29  1  0
 29 30  1  0
 29 31  2  0
 31 32  1  0
 32 33  1  0
 32 34  1  0
 32 35  1  0
 24 36  1  0
 36 37  1  0
 36 38  1  0
 36 39  1  0
 39 40  1  0
 39 41  1  0
 14 42  1  0
 42 43  1  0
 42 44  1  0
 44 45  2  0
 45 46  1  0
 45 47  1  0
  8  3  2  0
 44 11  1  0
 39 17  1  0
 31 26  1  0
M  CHG  3   4  -1   7  -1  28  -1
M  END
>  <UniqueID>  (31) 
31

>  <SMILES>  (31) 
C=c1[nH]c(C(=O)N2CCC(c3n[n-]cc3C)CC2)c/c1=C/c1[n-]c(=O)[n-]c1O

>  <Energy>  (31) 
150.1638855062197

>  <Genealogy>  (31) 
C=c1[nH]c(C(=O)N2CCC(c3n[n-]cc3C)CC2)cc1=Cc1[n-]c(=O)[n-]c1O (protonated)
C=c1[nH]c(C(=O)N2CCC(c3n[n-]cc3C)CC2)c/c1=C/c1[n-]c(=O)[n-]c1O (cis-trans isomerization)
C=c1[nH]c(C(=O)N2CCC(c3n[n-]cc3C)CC2)c/c1=C/c1[n-]c(=O)[n-]c1O (3D coordinates assigned)
C=c1[nH]c(C(=O)N2CCC(c3n[n-]cc3C)CC2)c/c1=C/c1[n-]c(=O)[n-]c1O (nonaromatic ring conformer: 150.1638855062197 kcal/mol)

>  <smiles>  (31) 
C=c1[nH]c(C(=O)N2CCC(c3n[nH]cc3C)CC2)cc1=Cc1[nH]c(=O)[nH]c1O

>  <score_type>  (31) 
oracle

>  <origin>  (31) 
adg

>  <m_score__min__energy>  (31) 
-13.539999999999999

>  <m_primary>  (31) 
energy

$$$$
31:0
     RDKit          3D

 42 44  0  0  0  0  0  0  0  0999 V2000
   64.0510   32.9050   48.2350 O   0  0  0  0  0  0  0  0  0  0  0  0
   62.9010   32.8290   48.7460 C   0  0  0  0  0  0  0  0  0  0  0  0
   62.5190   31.6080   49.5230 C   0  0  0  0  0  0  0  0  0  0  0  0
   62.2020   30.5280   48.6440 O   0  0  0  0  0  0  0  0  0  0  0  0
   61.0180   30.4140   47.8960 C   0  0  0  0  0  0  0  0  0  0  0  0
   59.7430   30.6150   48.4570 C   0  0  0  0  0  0  0  0  0  0  0  0
   58.5950   30.4730   47.6710 C   0  0  0  0  0  0  0  0  0  0  0  0
   58.6970   30.1350   46.3100 C   0  0  0  0  0  0  0  0  0  0  0  0
   57.4810   29.9820   45.4760 C   0  0  0  0  0  0  0  0  0  0  0  0
   57.0050   30.9850   44.8760 O   0  0  0  0  0  0  0  0  0  0  0  0
   56.8560   28.6920   45.3560 N   0  0  0  0  0  0  0  0  0  0  0  0
   57.2980   27.5540   45.8120 C   0  0  0  0  0  0  0  0  0  0  0  0
   58.6340   27.3400   45.9920 N   0  0  0  0  0  0  0  0  0  0  0  0
   59.1210   26.1630   46.4670 C   0  0  0  0  0  0  0  0  0  0  0  0
   58.2460   25.1240   46.7860 C   0  0  0  0  0  0  0  0  0  0  0  0
   56.8750   25.3100   46.6130 C   0  0  0  0  0  0  0  0  0  0  0  0
   56.3870   26.5250   46.1240 C   0  0  0  0  0  0  0  0  0  0  0  0
   55.0110   26.6870   45.9600 O   0  0  0  0  0  0  0  0  0  0  0  0
   59.9750   29.9450   45.7530 C   0  0  0  0  0  0  0  0  0  0  0  0
   61.1210   30.0840   46.5410 C   0  0  0  0  0  0  0  0  0  0  0  0
   62.0070   33.9030   48.6670 O   0  0  0  0  0  0  0  0  0  0  0  0
   60.9280   33.9870   47.7760 C   0  0  0  0  0  0  0  0  0  0  0  0
   59.6350   34.1070   48.3000 C   0  0  0  0  0  0  0  0  0  0  0  0
   58.5290   34.1780   47.4470 C   0  0  0  0  0  0  0  0  0  0  0  0
   58.7070   34.1180   46.0620 C   0  0  0  0  0  0  0  0  0  0  0  0
   57.1960   34.2100   44.8980 Br  0  0  0  0  0  0  0  0  0  0  0  0
   59.9930   33.9780   45.5300 C   0  0  0  0  0  0  0  0  0  0  0  0
   61.1000   33.9080   46.3810 C   0  0  0  0  0  0  0  0  0  0  0  0
   63.3596   31.3133   50.1684 H   0  0  0  0  0  0  0  0  0  0  0  0
   61.6327   31.8397   50.1319 H   0  0  0  0  0  0  0  0  0  0  0  0
   59.6489   30.8852   49.5191 H   0  0  0  0  0  0  0  0  0  0  0  0
   57.6034   30.6271   48.1216 H   0  0  0  0  0  0  0  0  0  0  0  0
   60.2048   26.0297   46.5998 H   0  0  0  0  0  0  0  0  0  0  0  0
   58.6335   24.1687   47.1697 H   0  0  0  0  0  0  0  0  0  0  0  0
   56.1756   24.4983   46.8620 H   0  0  0  0  0  0  0  0  0  0  0  0
   54.3680   26.6990   46.7430 H   0  0  0  0  0  0  0  0  0  0  0  0
   60.0730   29.6849   44.6887 H   0  0  0  0  0  0  0  0  0  0  0  0
   62.1133   29.9324   46.0911 H   0  0  0  0  0  0  0  0  0  0  0  0
   59.4883   34.1457   49.3895 H   0  0  0  0  0  0  0  0  0  0  0  0
   57.5175   34.2812   47.8667 H   0  0  0  0  0  0  0  0  0  0  0  0
   60.1336   33.9229   44.4404 H   0  0  0  0  0  0  0  0  0  0  0  0
   62.1091   33.7908   45.9590 H   0  0  0  0  0  0  0  0  0  0  0  0
  1  2  2  0
  2  3  1  0
  3  4  1  0
  4  5  1  0
  5  6  2  0
  6  7  1  0
  7  8  2  0
  8  9  1  0
  9 10  2  0
  9 11  1  0
 11 12  2  3
 12 13  1  0
 13 14  1  0
 14 15  2  0
 15 16  1  0
 16 17  2  0
 17 18  1  0
  8 19  1  0
 19 20  2  0
  2 21  1  0
 21 22  1  0
 22 23  2  0
 23 24  1  0
 24 25  2  0
 25 26  1  0
 25 27  1  0
 27 28  2  0
 20  5  1  0
 28 22  1  0
 17 12  1  0
  3 29  1  0
  3 30  1  0
  6 31  1  0
  7 32  1  0
 14 33  1  0
 15 34  1  0
 16 35  1  0
 18 36  1  0
 19 37  1  0
 20 38  1  0
 23 39  1  0
 24 40  1  0
 27 41  1  0
 28 42  1  0
M  CHG  1  13  -1
M  END
>  <UniqueID>  (32) 
32

>  <SMILES>  (32) 
O=C(COc1ccc(C(=O)N=c2[n-]cccc2O)cc1)Oc1ccc(Br)cc1

>  <Energy>  (32) 
52.36504532103671

>  <Genealogy>  (32) 
O=C(COc1ccc(C(=O)N=c2[n-]cccc2O)cc1)Oc1ccc(Br)cc1 (protonated)
O=C(COc1ccc(C(=O)N=c2[n-]cccc2O)cc1)Oc1ccc(Br)cc1 (3D coordinates assigned)
O=C(COc1ccc(C(=O)N=c2[n-]cccc2O)cc1)Oc1ccc(Br)cc1 (optimized conformer: 52.36504532103671 kcal/mol)

>  <smiles>  (32) 
O=C(COc1ccc(C(=O)N=c2[nH]cccc2O)cc1)Oc1ccc(Br)cc1

>  <score_type>  (32) 
oracle

>  <origin>  (32) 
adg

>  <m_score__min__energy>  (32) 
-10.970000000000001

>  <m_primary>  (32) 
energy

$$$$
32:0
     RDKit          3D

 53 57  0  0  0  0  0  0  0  0999 V2000
   59.1556   33.8319   55.6300 H   0  0  0  0  0  0  0  0  0  0  0  0
   58.8880   33.4710   54.6260 C   0  0  0  0  0  0  0  0  0  0  0  0
   58.7960   32.1360   54.3870 N   0  0  0  0  0  0  0  0  0  0  0  0
   58.4620   31.6680   53.1560 C   0  0  0  0  0  0  0  0  0  0  0  0
   58.3891   30.5844   52.9815 H   0  0  0  0  0  0  0  0  0  0  0  0
   58.2100   32.5650   52.1070 C   0  0  0  0  0  0  0  0  0  0  0  0
   57.8580   32.0950   50.7870 N   0  0  0  0  0  0  0  0  0  0  0  0
   57.5890   31.0840   50.8120 H   0  0  0  0  0  0  0  0  0  0  0  0
   57.0210   32.6510   50.5020 H   0  0  0  0  0  0  0  0  0  0  0  0
   58.9380   32.2630   49.8290 C   0  0  0  0  0  0  0  0  0  0  0  0
   59.5680   31.1450   49.2110 C   0  0  0  0  0  0  0  0  0  0  0  0
   59.2720   29.7420   49.5690 C   0  0  0  0  0  0  0  0  0  0  0  0
   58.8510   29.4490   50.7220 O   0  0  0  0  0  0  0  0  0  0  0  0
   59.5800   28.7040   48.6300 N   0  0  0  0  0  0  0  0  0  0  0  0
   59.2530   28.7080   47.2330 C   0  0  0  0  0  0  0  0  0  0  0  0
   60.1920   28.2300   46.3150 C   0  0  0  0  0  0  0  0  0  0  0  0
   61.1592   27.8460   46.6716 H   0  0  0  0  0  0  0  0  0  0  0  0
   59.9170   28.2370   44.9850 N   0  0  0  0  0  0  0  0  0  0  0  0
   58.7410   28.7150   44.4990 C   0  0  0  0  0  0  0  0  0  0  0  0
   58.5490   28.6963   43.4161 H   0  0  0  0  0  0  0  0  0  0  0  0
   57.7690   29.2330   45.3720 C   0  0  0  0  0  0  0  0  0  0  0  0
   56.4960   29.7850   44.8520 C   0  0  0  0  0  0  0  0  0  0  0  0
   55.5050   29.0230   44.6860 O   0  0  0  0  0  0  0  0  0  0  0  0
   56.4250   31.1650   44.4510 N   0  0  0  0  0  0  0  0  0  0  0  0
   57.1790   32.1610   44.8250 C   0  0  0  0  0  0  0  0  0  0  0  0
   57.0170   32.6510   46.0860 N   0  0  0  0  0  0  0  0  0  0  0  0
   57.7460   33.6950   46.5610 C   0  0  0  0  0  0  0  0  0  0  0  0
   57.5883   34.0523   47.5893 H   0  0  0  0  0  0  0  0  0  0  0  0
   58.6940   34.3140   45.7460 C   0  0  0  0  0  0  0  0  0  0  0  0
   59.4210   35.3580   46.2110 F   0  0  0  0  0  0  0  0  0  0  0  0
   58.8750   33.8550   44.4410 C   0  0  0  0  0  0  0  0  0  0  0  0
   59.6123   34.3398   43.7842 H   0  0  0  0  0  0  0  0  0  0  0  0
   58.1190   32.7790   43.9690 C   0  0  0  0  0  0  0  0  0  0  0  0
   58.2542   32.4157   42.9396 H   0  0  0  0  0  0  0  0  0  0  0  0
   58.0420   29.2310   46.7510 C   0  0  0  0  0  0  0  0  0  0  0  0
   57.3037   29.6410   47.4558 H   0  0  0  0  0  0  0  0  0  0  0  0
   60.5260   31.3570   48.2660 N   0  0  0  0  0  0  0  0  0  0  0  0
   60.9490   32.5970   47.9090 C   0  0  0  0  0  0  0  0  0  0  0  0
   62.0300   32.7440   46.8790 C   0  0  0  0  0  0  0  0  0  0  0  0
   61.4050   32.4725   46.0155 H   0  0  0  0  0  0  0  0  0  0  0  0
   63.0480   33.8350   47.1790 C   0  0  0  0  0  0  0  0  0  0  0  0
   63.4848   34.4207   46.3567 H   0  0  0  0  0  0  0  0  0  0  0  0
   63.0653   34.7264   47.8233 H   0  0  0  0  0  0  0  0  0  0  0  0
   63.4270   32.3750   47.3560 C   0  0  0  0  0  0  0  0  0  0  0  0
   64.1383   31.9036   46.6619 H   0  0  0  0  0  0  0  0  0  0  0  0
   63.8324   31.7717   48.1816 H   0  0  0  0  0  0  0  0  0  0  0  0
   60.4410   33.7140   48.5710 C   0  0  0  0  0  0  0  0  0  0  0  0
   60.8222   34.7189   48.3368 H   0  0  0  0  0  0  0  0  0  0  0  0
   59.4470   33.5460   49.5310 C   0  0  0  0  0  0  0  0  0  0  0  0
   59.0531   34.4238   50.0642 H   0  0  0  0  0  0  0  0  0  0  0  0
   58.3170   33.9380   52.3800 C   0  0  0  0  0  0  0  0  0  0  0  0
   58.1309   34.6728   51.5828 H   0  0  0  0  0  0  0  0  0  0  0  0
   58.6500   34.3600   53.6270 N   0  0  0  0  0  0  0  0  0  0  0  0
  1  2  1  0
  2  3  2  0
  3  4  1  0
  4  5  1  0
  4  6  2  0
  6  7  1  0
  7  8  1  0
  7  9  1  0
  7 10  1  0
 10 11  1  0
 11 12  1  0
 12 13  2  0
 12 14  1  0
 14 15  1  0
 15 16  2  0
 16 17  1  0
 16 18  1  0
 18 19  2  0
 19 20  1  0
 19 21  1  0
 21 22  1  0
 22 23  2  0
 22 24  1  0
 24 25  2  0
 25 26  1  0
 26 27  1  0
 27 28  1  0
 27 29  2  0
 29 30  1  0
 29 31  1  0
 31 32  1  0
 31 33  2  0
 33 34  1  0
 21 35  2  0
 35 36  1  0
 11 37  2  0
 37 38  1  0
 38 39  1  0
 39 40  1  0
 39 41  1  0
 41 42  1  0
 41 43  1  0
 41 44  1  0
 44 45  1  0
 44 46  1  0
 38 47  2  0
 47 48  1  0
 47 49  1  0
 49 50  1  0
  6 51  1  0
 51 52  1  0
 51 53  2  0
 53  2  1  0
 49 10  2  0
 35 15  1  0
 44 39  1  0
 33 25  1  0
M  CHG  3   7   1  14  -1  26  -1
M  END
>  <UniqueID>  (33) 
33

>  <SMILES>  (33) 
O=C(/N=c1\ccc(F)c[n-]1)c1cncc([N-]C(=O)c2nc(C3CC3)ccc2[NH2+]c2cncnc2)c1

>  <Energy>  (33) 
347.5873923435245

>  <Genealogy>  (33) 
O=C(N=c1ccc(F)c[n-]1)c1cncc([N-]C(=O)c2nc(C3CC3)ccc2[NH2+]c2cncnc2)c1 (protonated)
O=C(/N=c1\ccc(F)c[n-]1)c1cncc([N-]C(=O)c2nc(C3CC3)ccc2[NH2+]c2cncnc2)c1 (cis-trans isomerization)
O=C(/N=c1\ccc(F)c[n-]1)c1cncc([N-]C(=O)c2nc(C3CC3)ccc2[NH2+]c2cncnc2)c1 (3D coordinates assigned)
O=C(/N=c1\ccc(F)c[n-]1)c1cncc([N-]C(=O)c2nc(C3CC3)ccc2[NH2+]c2cncnc2)c1 (nonaromatic ring conformer: 347.5873923435245 kcal/mol)

>  <smiles>  (33) 
O=C(N=c1ccc(F)c[nH]1)c1cncc(NC(=O)c2nc(C3CC3)ccc2Nc2cncnc2)c1

>  <score_type>  (33) 
oracle

>  <origin>  (33) 
adg

>  <m_score__min__energy>  (33) 
-10.949999999999999

>  <m_primary>  (33) 
energy

$$$$
33:0
     RDKit          3D

 51 54  0  0  0  0  0  0  0  0999 V2000
   54.7710   27.4560   46.2990 H   0  0  0  0  0  0  0  0  0  0  0  0
   55.0470   26.5250   46.0090 O   0  0  0  0  0  0  0  0  0  0  0  0
   56.3860   26.1760   45.8370 C   0  0  0  0  0  0  0  0  0  0  0  0
   56.7250   24.8260   45.6770 C   0  0  0  0  0  0  0  0  0  0  0  0
   55.9322   24.0645   45.6372 H   0  0  0  0  0  0  0  0  0  0  0  0
   58.0590   24.4420   45.5680 C   0  0  0  0  0  0  0  0  0  0  0  0
   58.3246   23.3828   45.4354 H   0  0  0  0  0  0  0  0  0  0  0  0
   59.0530   25.4160   45.6290 C   0  0  0  0  0  0  0  0  0  0  0  0
   60.1118   25.1256   45.5613 H   0  0  0  0  0  0  0  0  0  0  0  0
   58.7160   26.7240   45.7720 N   0  0  0  0  0  0  0  0  0  0  0  0
   57.4240   27.1460   45.8580 C   0  0  0  0  0  0  0  0  0  0  0  0
   57.2150   28.4260   45.9930 N   0  0  0  0  0  0  0  0  0  0  0  0
   56.4650   29.3020   45.1400 C   0  0  0  0  0  0  0  0  0  0  0  0
   55.3090   28.9650   44.7620 O   0  0  0  0  0  0  0  0  0  0  0  0
   57.0720   30.5590   44.6480 C   0  0  0  0  0  0  0  0  0  0  0  0
   57.2380   30.7910   43.2740 C   0  0  0  0  0  0  0  0  0  0  0  0
   56.9585   30.0160   42.5451 H   0  0  0  0  0  0  0  0  0  0  0  0
   57.7600   32.0110   42.8360 C   0  0  0  0  0  0  0  0  0  0  0  0
   57.9590   32.3220   41.1240 Cl  0  0  0  0  0  0  0  0  0  0  0  0
   58.0980   32.9700   43.7360 N   0  0  0  0  0  0  0  0  0  0  0  0
   57.9690   32.7780   45.0770 C   0  0  0  0  0  0  0  0  0  0  0  0
   58.2770   33.8520   45.9840 N   0  0  0  0  0  0  0  0  0  0  0  0
   58.1610   33.6330   47.4300 C   0  0  0  0  0  0  0  0  0  0  0  0
   57.1886   34.0120   47.7777 H   0  0  0  0  0  0  0  0  0  0  0  0
   58.2409   32.5555   47.6365 H   0  0  0  0  0  0  0  0  0  0  0  0
   59.2910   34.3720   48.1750 C   0  0  0  0  0  0  0  0  0  0  0  0
   58.9703   35.4053   48.3735 H   0  0  0  0  0  0  0  0  0  0  0  0
   59.4917   33.8334   49.1129 H   0  0  0  0  0  0  0  0  0  0  0  0
   60.5430   34.4020   47.3840 N   0  0  0  0  0  0  0  0  0  0  0  0
   61.1150   33.0470   47.2140 C   0  0  0  0  0  0  0  0  0  0  0  0
   60.3211   32.3004   47.3632 H   0  0  0  0  0  0  0  0  0  0  0  0
   61.5331   32.9685   46.1996 H   0  0  0  0  0  0  0  0  0  0  0  0
   62.2190   32.7970   48.2080 C   0  0  0  0  0  0  0  0  0  0  0  0
   61.9770   32.0470   49.3720 C   0  0  0  0  0  0  0  0  0  0  0  0
   60.9731   31.6399   49.5632 H   0  0  0  0  0  0  0  0  0  0  0  0
   63.0080   31.8170   50.2870 C   0  0  0  0  0  0  0  0  0  0  0  0
   62.8139   31.2285   51.1958 H   0  0  0  0  0  0  0  0  0  0  0  0
   64.2850   32.3330   50.0500 C   0  0  0  0  0  0  0  0  0  0  0  0
   65.3090   32.1030   50.9620 O   0  0  0  0  0  0  0  0  0  0  0  0
   64.5330   33.0810   48.8950 C   0  0  0  0  0  0  0  0  0  0  0  0
   65.5381   33.4874   48.7088 H   0  0  0  0  0  0  0  0  0  0  0  0
   63.5040   33.3130   47.9760 C   0  0  0  0  0  0  0  0  0  0  0  0
   63.7024   33.9018   47.0683 H   0  0  0  0  0  0  0  0  0  0  0  0
   60.3790   35.1240   46.0920 C   0  0  0  0  0  0  0  0  0  0  0  0
   60.6543   36.1778   46.2458 H   0  0  0  0  0  0  0  0  0  0  0  0
   61.0286   34.6228   45.3593 H   0  0  0  0  0  0  0  0  0  0  0  0
   58.9450   35.0730   45.5310 C   0  0  0  0  0  0  0  0  0  0  0  0
   58.3830   35.9495   45.8858 H   0  0  0  0  0  0  0  0  0  0  0  0
   58.9853   35.0777   44.4317 H   0  0  0  0  0  0  0  0  0  0  0  0
   57.4510   31.5630   45.5530 C   0  0  0  0  0  0  0  0  0  0  0  0
   57.3421   31.3978   46.6351 H   0  0  0  0  0  0  0  0  0  0  0  0
  1  2  1  0
  2  3  1  0
  3  4  2  0
  4  5  1  0
  4  6  1  0
  6  7  1  0
  6  8  2  0
  8  9  1  0
  8 10  1  0
 10 11  1  0
 11 12  2  0
 12 13  1  0
 13 14  2  0
 13 15  1  0
 15 16  2  0
 16 17  1  0
 16 18  1  0
 18 19  1  0
 18 20  2  0
 20 21  1  0
 21 22  1  0
 22 23  1  0
 23 24  1  0
 23 25  1  0
 23 26  1  0
 26 27  1  0
 26 28  1  0
 26 29  1  0
 29 30  1  0
 30 31  1  0
 30 32  1  0
 30 33  1  0
 33 34  2  0
 34 35  1  0
 34 36  1  0
 36 37  1  0
 36 38  2  0
 38 39  1  0
 38 40  1  0
 40 41  1  0
 40 42  2  0
 42 43  1  0
 29 44  1  0
 44 45  1  0
 44 46  1  0
 44 47  1  0
 47 48  1  0
 47 49  1  0
 21 50  2  0
 50 51  1  0
 11  3  1  0
 50 15  1  0
 47 22  1  0
 42 33  1  0
M  CHG  2  10  -1  39  -1
M  END
>  <UniqueID>  (34) 
34

>  <SMILES>  (34) 
O=C(/N=c1/[n-]cccc1O)c1cc(Cl)nc(N2CCN(Cc3ccc([O-])cc3)CC2)c1

>  <Energy>  (34) 
77.52808509568803

>  <Genealogy>  (34) 
O=C(N=c1[n-]cccc1O)c1cc(Cl)nc(N2CCN(Cc3ccc([O-])cc3)CC2)c1 (protonated)
O=C(/N=c1/[n-]cccc1O)c1cc(Cl)nc(N2CCN(Cc3ccc([O-])cc3)CC2)c1 (cis-trans isomerization)
O=C(/N=c1/[n-]cccc1O)c1cc(Cl)nc(N2CCN(Cc3ccc([O-])cc3)CC2)c1 (3D coordinates assigned)
O=C(/N=c1/[n-]cccc1O)c1cc(Cl)nc(N2CCN(Cc3ccc([O-])cc3)CC2)c1 (nonaromatic ring conformer: 77.52808509568803 kcal/mol)

>  <smiles>  (34) 
O=C(N=c1[nH]cccc1O)c1cc(Cl)nc(N2CCN(Cc3ccc(O)cc3)CC2)c1

>  <score_type>  (34) 
oracle

>  <origin>  (34) 
adg

>  <m_score__min__energy>  (34) 
-13.01

>  <m_primary>  (34) 
energy

$$$$
34:0
     RDKit          3D

 48 50  0  0  0  0  0  0  0  0999 V2000
   68.0120   34.4050   53.6160 N   0  0  0  0  0  0  0  0  0  0  0  0
   67.2410   34.1520   52.7920 C   0  0  0  0  0  0  0  0  0  0  0  0
   66.2810   33.8350   51.7660 C   0  0  0  0  0  0  0  0  0  0  0  0
   66.6480   33.0210   50.6890 C   0  0  0  0  0  0  0  0  0  0  0  0
   65.7180   32.7150   49.6920 C   0  0  0  0  0  0  0  0  0  0  0  0
   64.4030   33.2120   49.7630 C   0  0  0  0  0  0  0  0  0  0  0  0
   63.4330   32.8760   48.6920 C   0  0  0  0  0  0  0  0  0  0  0  0
   63.8130   32.1480   47.7340 O   0  0  0  0  0  0  0  0  0  0  0  0
   62.0810   33.3730   48.7240 N   0  0  0  0  0  0  0  0  0  0  0  0
   61.0690   33.0030   47.7740 C   0  0  0  0  0  0  0  0  0  0  0  0
   60.8390   31.6570   47.4340 C   0  0  0  0  0  0  0  0  0  0  0  0
   59.8280   31.3220   46.5280 C   0  0  0  0  0  0  0  0  0  0  0  0
   59.0250   32.3200   45.9650 C   0  0  0  0  0  0  0  0  0  0  0  0
   57.7360   31.8760   44.8490 S   0  0  0  0  0  0  0  0  0  0  0  0
   58.3130   31.8000   43.4630 O   0  0  0  0  0  0  0  0  0  0  0  0
   56.6390   32.9030   44.8560 O   0  0  0  0  0  0  0  0  0  0  0  0
   57.0780   30.3250   45.2740 N   0  0  0  0  0  0  0  0  0  0  0  0
   57.6390   29.1630   45.0910 C   0  0  0  0  0  0  0  0  0  0  0  0
   58.0190   28.2880   46.2800 C   0  0  0  0  0  0  0  0  0  0  0  0
   57.1830   27.0180   46.5010 C   0  0  0  0  0  0  0  0  0  0  0  0
   57.0230   26.1820   45.2220 C   0  0  0  0  0  0  0  0  0  0  0  0
   58.1590   26.4060   44.2120 C   0  0  0  0  0  0  0  0  0  0  0  0
   57.8710   27.5020   43.1800 C   0  0  0  0  0  0  0  0  0  0  0  0
   58.0430   28.8340   43.7520 N   0  0  0  0  0  0  0  0  0  0  0  0
   59.2360   33.6590   46.3190 C   0  0  0  0  0  0  0  0  0  0  0  0
   60.2460   33.9960   47.2230 C   0  0  0  0  0  0  0  0  0  0  0  0
   64.0480   34.0400   50.8430 C   0  0  0  0  0  0  0  0  0  0  0  0
   64.9800   34.3470   51.8380 C   0  0  0  0  0  0  0  0  0  0  0  0
   67.6708   32.6210   50.6269 H   0  0  0  0  0  0  0  0  0  0  0  0
   66.0161   32.0803   48.8445 H   0  0  0  0  0  0  0  0  0  0  0  0
   61.8150   34.0810   49.4440 H   0  0  0  0  0  0  0  0  0  0  0  0
   61.4570   30.8653   47.8827 H   0  0  0  0  0  0  0  0  0  0  0  0
   59.6632   30.2688   46.2566 H   0  0  0  0  0  0  0  0  0  0  0  0
   59.0656   27.9779   46.1439 H   0  0  0  0  0  0  0  0  0  0  0  0
   57.8345   28.9119   47.1670 H   0  0  0  0  0  0  0  0  0  0  0  0
   57.6771   26.4003   47.2654 H   0  0  0  0  0  0  0  0  0  0  0  0
   56.1783   27.3334   46.8190 H   0  0  0  0  0  0  0  0  0  0  0  0
   57.0051   25.1176   45.4990 H   0  0  0  0  0  0  0  0  0  0  0  0
   56.0863   26.4964   44.7386 H   0  0  0  0  0  0  0  0  0  0  0  0
   59.0660   26.6850   44.7684 H   0  0  0  0  0  0  0  0  0  0  0  0
   58.2763   25.4662   43.6526 H   0  0  0  0  0  0  0  0  0  0  0  0
   58.5620   27.3851   42.3322 H   0  0  0  0  0  0  0  0  0  0  0  0
   56.8264   27.4001   42.8507 H   0  0  0  0  0  0  0  0  0  0  0  0
   58.1760   29.6220   43.0780 H   0  0  0  0  0  0  0  0  0  0  0  0
   58.6043   34.4473   45.8837 H   0  0  0  0  0  0  0  0  0  0  0  0
   60.3971   35.0484   47.5050 H   0  0  0  0  0  0  0  0  0  0  0  0
   63.0288   34.4491   50.9050 H   0  0  0  0  0  0  0  0  0  0  0  0
   64.6906   34.9928   52.6802 H   0  0  0  0  0  0  0  0  0  0  0  0
  1  2  3  0
  2  3  1  0
  3  4  2  0
  4  5  1  0
  5  6  2  0
  6  7  1  0
  7  8  2  0
  7  9  1  0
  9 10  1  0
 10 11  2  0
 11 12  1  0
 12 13  2  0
 13 14  1  0
 14 15  2  0
 14 16  2  0
 14 17  1  0
 17 18  2  3
 18 19  1  0
 19 20  1  0
 20 21  1  0
 21 22  1  0
 22 23  1  0
 23 24  1  0
 13 25  1  0
 25 26  2  0
  6 27  1  0
 27 28  2  0
 28  3  1  0
 26 10  1  0
 24 18  1  0
  4 29  1  0
  5 30  1  0
  9 31  1  0
 11 32  1  0
 12 33  1  0
 19 34  1  0
 19 35  1  0
 20 36  1  0
 20 37  1  0
 21 38  1  0
 21 39  1  0
 22 40  1  0
 22 41  1  0
 23 42  1  0
 23 43  1  0
 24 44  1  0
 25 45  1  0
 26 46  1  0
 27 47  1  0
 28 48  1  0
M  END
>  <UniqueID>  (35) 
35

>  <SMILES>  (35) 
N#Cc1ccc(C(=O)Nc2ccc(S(=O)(=O)N=C3CCCCCN3)cc2)cc1

>  <Energy>  (35) 
63.57045537795049

>  <Genealogy>  (35) 
N#Cc1ccc(C(=O)Nc2ccc(S(=O)(=O)N=C3CCCCCN3)cc2)cc1 (3D coordinates assigned)
N#Cc1ccc(C(=O)Nc2ccc(S(=O)(=O)N=C3CCCCCN3)cc2)cc1 (nonaromatic ring conformer: 63.57045537795049 kcal/mol)

>  <smiles>  (35) 
N#Cc1ccc(C(=O)Nc2ccc(S(=O)(=O)N=C3CCCCCN3)cc2)cc1

>  <score_type>  (35) 
oracle

>  <origin>  (35) 
adg

>  <m_score__min__energy>  (35) 
-7.2699999999999996

>  <m_primary>  (35) 
energy

$$$$
35:0
     RDKit          3D

 41 43  0  0  0  0  0  0  0  0999 V2000
   60.9020   28.6990   44.8300 O   0  0  0  0  0  0  0  0  0  0  0  0
   60.0150   28.2450   45.6030 C   0  0  0  0  0  0  0  0  0  0  0  0
   60.3960   27.2380   46.6390 C   0  0  0  0  0  0  0  0  0  0  0  0
   59.3430   27.4590   48.1090 S   0  0  0  0  0  0  0  0  0  0  0  0
   58.0580   26.3770   47.4920 C   0  0  0  0  0  0  0  0  0  0  0  0
   58.2210   25.0320   47.5460 N   0  0  0  0  0  0  0  0  0  0  0  0
   57.2620   24.1890   47.0870 C   0  0  0  0  0  0  0  0  0  0  0  0
   57.4510   22.9450   47.1530 O   0  0  0  0  0  0  0  0  0  0  0  0
   56.0690   24.7080   46.5460 C   0  0  0  0  0  0  0  0  0  0  0  0
   54.9970   23.7960   45.9930 C   0  0  0  0  0  0  0  0  0  0  0  0
   55.5660   22.8940   44.9290 C   0  0  0  0  0  0  0  0  0  0  0  0
   55.9150   23.4130   43.6700 C   0  0  0  0  0  0  0  0  0  0  0  0
   56.4700   22.5810   42.6940 C   0  0  0  0  0  0  0  0  0  0  0  0
   56.6880   21.2280   42.9670 C   0  0  0  0  0  0  0  0  0  0  0  0
   56.3490   20.7050   44.2170 C   0  0  0  0  0  0  0  0  0  0  0  0
   55.7920   21.5330   45.1980 C   0  0  0  0  0  0  0  0  0  0  0  0
   55.9300   26.1070   46.4990 C   0  0  0  0  0  0  0  0  0  0  0  0
   54.7840   26.6920   45.9740 O   0  0  0  0  0  0  0  0  0  0  0  0
   56.9210   26.9040   46.9740 N   0  0  0  0  0  0  0  0  0  0  0  0
   58.6710   28.7510   45.5550 N   0  0  0  0  0  0  0  0  0  0  0  0
   58.1520   29.5700   44.4940 C   0  0  0  0  0  0  0  0  0  0  0  0
   58.6250   30.8840   44.3470 C   0  0  0  0  0  0  0  0  0  0  0  0
   58.1150   31.7110   43.3410 C   0  0  0  0  0  0  0  0  0  0  0  0
   57.1190   31.2380   42.4820 C   0  0  0  0  0  0  0  0  0  0  0  0
   56.6240   32.0430   41.5090 F   0  0  0  0  0  0  0  0  0  0  0  0
   56.6280   29.9380   42.6320 C   0  0  0  0  0  0  0  0  0  0  0  0
   57.1350   29.1090   43.6380 C   0  0  0  0  0  0  0  0  0  0  0  0
   60.2556   26.2244   46.2354 H   0  0  0  0  0  0  0  0  0  0  0  0
   61.4512   27.3766   46.9172 H   0  0  0  0  0  0  0  0  0  0  0  0
   54.5896   23.1807   46.8087 H   0  0  0  0  0  0  0  0  0  0  0  0
   54.2019   24.4122   45.5479 H   0  0  0  0  0  0  0  0  0  0  0  0
   55.7505   24.4786   43.4522 H   0  0  0  0  0  0  0  0  0  0  0  0
   56.7358   22.9920   41.7089 H   0  0  0  0  0  0  0  0  0  0  0  0
   57.1264   20.5751   42.1979 H   0  0  0  0  0  0  0  0  0  0  0  0
   56.5203   19.6397   44.4308 H   0  0  0  0  0  0  0  0  0  0  0  0
   55.5303   21.1176   46.1824 H   0  0  0  0  0  0  0  0  0  0  0  0
   58.0560   28.5710   46.3820 H   0  0  0  0  0  0  0  0  0  0  0  0
   59.4011   31.2651   45.0270 H   0  0  0  0  0  0  0  0  0  0  0  0
   58.4984   32.7355   43.2256 H   0  0  0  0  0  0  0  0  0  0  0  0
   55.8420   29.5664   41.9581 H   0  0  0  0  0  0  0  0  0  0  0  0
   56.7365   28.0911   43.7606 H   0  0  0  0  0  0  0  0  0  0  0  0
  1  2  2  0
  2  3  1  0
  3  4  1  0
  4  5  1  0
  5  6  2  0
  6  7  1  0
  7  8  2  0
  7  9  1  0
  9 10  1  0
 10 11  1  0
 11 12  2  0
 12 13  1  0
 13 14  2  0
 14 15  1  0
 15 16  2  0
  9 17  2  0
 17 18  1  0
 17 19  1  0
  2 20  1  0
 20 21  1  0
 21 22  2  0
 22 23  1  0
 23 24  2  0
 24 25  1  0
 24 26  1  0
 26 27  2  0
 19  5  1  0
 27 21  1  0
 16 11  1  0
  3 28  1  0
  3 29  1  0
 10 30  1  0
 10 31  1  0
 12 32  1  0
 13 33  1  0
 14 34  1  0
 15 35  1  0
 16 36  1  0
 20 37  1  0
 22 38  1  0
 23 39  1  0
 26 40  1  0
 27 41  1  0
M  CHG  2  18  -1  19  -1
M  END
>  <UniqueID>  (36) 
36

>  <SMILES>  (36) 
O=C(CSc1nc(=O)c(Cc2ccccc2)c([O-])[n-]1)Nc1ccc(F)cc1

>  <Energy>  (36) 
43.336155128280964

>  <Genealogy>  (36) 
O=C(CSc1nc(=O)c(Cc2ccccc2)c([O-])[n-]1)Nc1ccc(F)cc1 (protonated)
O=C(CSc1nc(=O)c(Cc2ccccc2)c([O-])[n-]1)Nc1ccc(F)cc1 (3D coordinates assigned)
O=C(CSc1nc(=O)c(Cc2ccccc2)c([O-])[n-]1)Nc1ccc(F)cc1 (optimized conformer: 43.336155128280964 kcal/mol)

>  <smiles>  (36) 
O=C(CSc1nc(=O)c(Cc2ccccc2)c(O)[nH]1)Nc1ccc(F)cc1

>  <score_type>  (36) 
oracle

>  <origin>  (36) 
adg

>  <m_score__min__energy>  (36) 
-12.81

>  <m_primary>  (36) 
energy

$$$$
36:0
     RDKit          3D

 24 26  0  0  0  0  0  0  0  0999 V2000
   55.6458   28.8223   43.2349 H   0  0  0  0  0  0  0  0  0  0  0  0
   55.9830   29.7400   43.7390 C   0  0  0  0  0  0  0  0  0  0  0  0
   55.5204   30.7063   43.4895 H   0  0  0  0  0  0  0  0  0  0  0  0
   56.9530   29.6810   44.6530 C   0  0  0  0  0  0  0  0  0  0  0  0
   57.3930   30.7940   45.2940 N   0  0  0  0  0  0  0  0  0  0  0  0
   58.2190   30.2980   46.2340 C   0  0  0  0  0  0  0  0  0  0  0  0
   58.3280   28.9870   46.2160 N   0  0  0  0  0  0  0  0  0  0  0  0
   57.5760   28.5410   45.1950 C   0  0  0  0  0  0  0  0  0  0  0  0
   57.5340   27.2470   44.8250 C   0  0  0  0  0  0  0  0  0  0  0  0
   57.8213   27.0107   43.7898 H   0  0  0  0  0  0  0  0  0  0  0  0
   57.1370   26.1220   45.6860 C   0  0  0  0  0  0  0  0  0  0  0  0
   57.9840   25.2130   46.2010 N   0  0  0  0  0  0  0  0  0  0  0  0
   57.1990   24.4850   47.0250 C   0  0  0  0  0  0  0  0  0  0  0  0
   57.6340   23.5100   47.6890 O   0  0  0  0  0  0  0  0  0  0  0  0
   55.9130   24.8930   47.0880 N   0  0  0  0  0  0  0  0  0  0  0  0
   55.8960   25.9380   46.2470 C   0  0  0  0  0  0  0  0  0  0  0  0
   54.7700   26.7140   46.0000 O   0  0  0  0  0  0  0  0  0  0  0  0
   59.3310   28.3910   47.0700 C   0  0  0  0  0  0  0  0  0  0  0  0
   58.8787   27.6164   47.7067 H   0  0  0  0  0  0  0  0  0  0  0  0
   60.1247   27.9085   46.4807 H   0  0  0  0  0  0  0  0  0  0  0  0
   59.8930   29.5400   47.9400 C   0  0  0  0  0  0  0  0  0  0  0  0
   59.5760   29.3912   48.9828 H   0  0  0  0  0  0  0  0  0  0  0  0
   60.9907   29.5319   47.8690 H   0  0  0  0  0  0  0  0  0  0  0  0
   59.2710   31.1800   47.3440 S   0  0  0  0  0  0  0  0  0  0  0  0
  1  2  1  0
  2  3  1  0
  2  4  2  0
  4  5  1  0
  5  6  2  0
  6  7  1  0
  7  8  1  0
  8  9  2  0
  9 10  1  0
  9 11  1  0
 11 12  1  0
 12 13  1  0
 13 14  2  0
 13 15  1  0
 15 16  1  0
 16 17  1  0
  7 18  1  0
 18 19  1  0
 18 20  1  0
 18 21  1  0
 21 22  1  0
 21 23  1  0
 21 24  1  0
  8  4  1  0
 16 11  2  0
 24  6  1  0
M  CHG  3  12  -1  15  -1  17  -1
M  END
>  <UniqueID>  (37) 
37

>  <SMILES>  (37) 
C=c1nc2n(/c1=C/c1[n-]c(=O)[n-]c1[O-])CCS2

>  <Energy>  (37) 
112.35420582775934

>  <Genealogy>  (37) 
C=c1nc2n(c1=Cc1[n-]c(=O)[n-]c1[O-])CCS2 (protonated)
C=c1nc2n(/c1=C/c1[n-]c(=O)[n-]c1[O-])CCS2 (cis-trans isomerization)
C=c1nc2n(/c1=C/c1[n-]c(=O)[n-]c1[O-])CCS2 (3D coordinates assigned)
C=c1nc2n(/c1=C/c1[n-]c(=O)[n-]c1[O-])CCS2 (nonaromatic ring conformer: 112.35420582775934 kcal/mol)

>  <smiles>  (37) 
C=c1nc2n(c1=Cc1[nH]c(=O)[nH]c1O)CCS2

>  <score_type>  (37) 
oracle

>  <origin>  (37) 
adg

>  <m_score__min__energy>  (37) 
-15.210000000000001

>  <m_primary>  (37) 
energy

$$$$
37:0
     RDKit          3D

 49 52  0  0  0  0  0  0  0  0999 V2000
   52.9359   28.1545   53.6246 H   0  0  0  0  0  0  0  0  0  0  0  0
   54.0330   28.2060   53.5630 C   0  0  0  0  0  0  0  0  0  0  0  0
   54.6478   27.4296   54.0417 H   0  0  0  0  0  0  0  0  0  0  0  0
   54.6230   29.2190   52.9020 C   0  0  0  0  0  0  0  0  0  0  0  0
   56.0320   29.2270   52.8600 C   0  0  0  0  0  0  0  0  0  0  0  0
   56.5858   28.3312   53.1775 H   0  0  0  0  0  0  0  0  0  0  0  0
   56.7410   30.3530   52.4220 C   0  0  0  0  0  0  0  0  0  0  0  0
   58.1820   30.3530   52.4160 N   0  0  0  0  0  0  0  0  0  0  0  0
   58.8960   30.3880   51.1340 C   0  0  0  0  0  0  0  0  0  0  0  0
   58.6207   29.5009   50.5447 H   0  0  0  0  0  0  0  0  0  0  0  0
   58.6138   31.3079   50.6010 H   0  0  0  0  0  0  0  0  0  0  0  0
   60.4150   30.3950   51.3500 C   0  0  0  0  0  0  0  0  0  0  0  0
   60.7474   29.3707   51.5742 H   0  0  0  0  0  0  0  0  0  0  0  0
   60.8889   30.7727   50.4320 H   0  0  0  0  0  0  0  0  0  0  0  0
   60.8060   31.2780   52.4640 N   0  0  0  0  0  0  0  0  0  0  0  0
   60.5250   32.9700   52.1060 S   0  0  0  0  0  0  0  0  0  0  0  0
   61.5080   33.8060   52.8770 O   0  0  0  0  0  0  0  0  0  0  0  0
   59.1360   33.3660   52.5280 O   0  0  0  0  0  0  0  0  0  0  0  0
   60.7480   33.3000   50.3890 C   0  0  0  0  0  0  0  0  0  0  0  0
   59.6440   33.5170   49.5510 C   0  0  0  0  0  0  0  0  0  0  0  0
   58.6264   33.4975   49.9681 H   0  0  0  0  0  0  0  0  0  0  0  0
   59.8340   33.7580   48.1870 C   0  0  0  0  0  0  0  0  0  0  0  0
   58.9665   33.9271   47.5322 H   0  0  0  0  0  0  0  0  0  0  0  0
   61.1280   33.7840   47.6550 C   0  0  0  0  0  0  0  0  0  0  0  0
   61.2775   33.9770   46.5824 H   0  0  0  0  0  0  0  0  0  0  0  0
   62.2300   33.5650   48.4850 C   0  0  0  0  0  0  0  0  0  0  0  0
   63.2467   33.5837   48.0655 H   0  0  0  0  0  0  0  0  0  0  0  0
   62.0410   33.3220   49.8490 C   0  0  0  0  0  0  0  0  0  0  0  0
   62.9101   33.1475   50.5003 H   0  0  0  0  0  0  0  0  0  0  0  0
   60.2010   30.8920   53.7620 C   0  0  0  0  0  0  0  0  0  0  0  0
   60.9468   30.3182   54.3317 H   0  0  0  0  0  0  0  0  0  0  0  0
   59.9059   31.8272   54.2604 H   0  0  0  0  0  0  0  0  0  0  0  0
   58.9230   30.0360   53.6420 C   0  0  0  0  0  0  0  0  0  0  0  0
   59.2042   28.9727   53.6259 H   0  0  0  0  0  0  0  0  0  0  0  0
   58.2765   30.2546   54.5047 H   0  0  0  0  0  0  0  0  0  0  0  0
   56.0330   31.4900   52.0260 C   0  0  0  0  0  0  0  0  0  0  0  0
   56.5804   32.3963   51.7279 H   0  0  0  0  0  0  0  0  0  0  0  0
   54.6400   31.4870   52.0050 C   0  0  0  0  0  0  0  0  0  0  0  0
   54.1030   32.3997   51.7074 H   0  0  0  0  0  0  0  0  0  0  0  0
   53.9050   30.3360   52.3580 C   0  0  0  0  0  0  0  0  0  0  0  0
   52.5660   30.3740   52.1330 C   0  0  0  0  0  0  0  0  0  0  0  0
   51.9152   30.0296   52.9502 H   0  0  0  0  0  0  0  0  0  0  0  0
   51.9000   30.8320   50.9000 C   0  0  0  0  0  0  0  0  0  0  0  0
   51.7690   30.0660   49.8030 N   0  0  0  0  0  0  0  0  0  0  0  0
   51.0180   30.8280   48.9770 C   0  0  0  0  0  0  0  0  0  0  0  0
   50.6880   30.4520   47.8230 O   0  0  0  0  0  0  0  0  0  0  0  0
   50.6410   32.0180   49.4900 N   0  0  0  0  0  0  0  0  0  0  0  0
   51.1950   32.0010   50.7120 C   0  0  0  0  0  0  0  0  0  0  0  0
   51.0310   33.0160   51.6470 O   0  0  0  0  0  0  0  0  0  0  0  0
  1  2  1  0
  2  3  1  0
  2  4  2  0
  4  5  1  0
  5  6  1  0
  5  7  2  0
  7  8  1  0
  8  9  1  0
  9 10  1  0
  9 11  1  0
  9 12  1  0
 12 13  1  0
 12 14  1  0
 12 15  1  0
 15 16  1  0
 16 17  2  0
 16 18  2  0
 16 19  1  0
 19 20  2  0
 20 21  1  0
 20 22  1  0
 22 23  1  0
 22 24  2  0
 24 25  1  0
 24 26  1  0
 26 27  1  0
 26 28  2  0
 28 29  1  0
 15 30  1  0
 30 31  1  0
 30 32  1  0
 30 33  1  0
 33 34  1  0
 33 35  1  0
  7 36  1  0
 36 37  1  0
 36 38  2  0
 38 39  1  0
 38 40  1  0
 40 41  2  0
 41 42  1  0
 41 43  1  0
 43 44  1  0
 44 45  1  0
 45 46  2  0
 45 47  1  0
 47 48  1  0
 48 49  1  0
 40  4  1  0
 48 43  2  0
 33  8  1  0
 28 19  1  0
M  CHG  3  44  -1  47  -1  49  -1
M  END
>  <UniqueID>  (38) 
38

>  <SMILES>  (38) 
C=c1cc(N2CCN(S(=O)(=O)c3ccccc3)CC2)cc/c1=C/c1[n-]c(=O)[n-]c1[O-]

>  <Energy>  (38) 
113.70529436864229

>  <Genealogy>  (38) 
C=c1cc(N2CCN(S(=O)(=O)c3ccccc3)CC2)ccc1=Cc1[n-]c(=O)[n-]c1[O-] (protonated)
C=c1cc(N2CCN(S(=O)(=O)c3ccccc3)CC2)cc/c1=C/c1[n-]c(=O)[n-]c1[O-] (cis-trans isomerization)
C=c1cc(N2CCN(S(=O)(=O)c3ccccc3)CC2)cc/c1=C/c1[n-]c(=O)[n-]c1[O-] (3D coordinates assigned)
C=c1cc(N2CCN(S(=O)(=O)c3ccccc3)CC2)cc/c1=C/c1[n-]c(=O)[n-]c1[O-] (nonaromatic ring conformer: 113.70529436864229 kcal/mol)

>  <smiles>  (38) 
C=c1cc(N2CCN(S(=O)(=O)c3ccccc3)CC2)ccc1=Cc1[nH]c(=O)[nH]c1O

>  <score_type>  (38) 
oracle

>  <origin>  (38) 
adg

>  <m_score__min__energy>  (38) 
-17.379999999999999

>  <m_primary>  (38) 
energy

$$$$
38:0
     RDKit          3D

 56 59  0  0  0  0  0  0  0  0999 V2000
   57.6460   29.1840   45.1230 C   0  0  0  0  0  0  0  0  0  0  0  0
   58.6590   28.1210   45.0070 N   0  0  0  0  0  0  0  0  0  0  0  0
   60.0130   28.6730   44.7820 C   0  0  0  0  0  0  0  0  0  0  0  0
   60.5340   29.4320   46.0140 C   0  0  0  0  0  0  0  0  0  0  0  0
   60.1270   28.7550   47.2510 N   0  0  0  0  0  0  0  0  0  0  0  0
   60.1150   29.4740   48.5000 C   0  0  0  0  0  0  0  0  0  0  0  0
   61.2800   30.0990   48.9730 C   0  0  0  0  0  0  0  0  0  0  0  0
   61.2660   30.7960   50.1830 C   0  0  0  0  0  0  0  0  0  0  0  0
   60.0950   30.8630   50.9400 C   0  0  0  0  0  0  0  0  0  0  0  0
   58.9290   30.2170   50.5040 C   0  0  0  0  0  0  0  0  0  0  0  0
   57.7310   30.3180   51.2920 N   0  0  0  0  0  0  0  0  0  0  0  0
   57.4310   29.4580   52.4080 C   0  0  0  0  0  0  0  0  0  0  0  0
   58.2900   28.6260   52.8100 O   0  0  0  0  0  0  0  0  0  0  0  0
   56.1270   29.5330   53.1080 C   0  0  0  0  0  0  0  0  0  0  0  0
   55.9270   30.4000   54.1990 C   0  0  0  0  0  0  0  0  0  0  0  0
   54.6890   30.4510   54.8470 C   0  0  0  0  0  0  0  0  0  0  0  0
   53.6330   29.6290   54.4260 C   0  0  0  0  0  0  0  0  0  0  0  0
   52.2900   29.7130   55.0980 C   0  0  0  0  0  0  0  0  0  0  0  0
   51.4990   30.8630   54.5360 C   0  0  0  0  0  0  0  0  0  0  0  0
   50.7520   31.6920   55.3890 C   0  0  0  0  0  0  0  0  0  0  0  0
   49.9870   32.7380   54.8620 C   0  0  0  0  0  0  0  0  0  0  0  0
   49.9580   32.9590   53.4830 C   0  0  0  0  0  0  0  0  0  0  0  0
   50.6900   32.1300   52.6260 C   0  0  0  0  0  0  0  0  0  0  0  0
   50.6540   32.3460   51.2540 O   0  0  0  0  0  0  0  0  0  0  0  0
   51.4540   31.0830   53.1490 C   0  0  0  0  0  0  0  0  0  0  0  0
   53.8280   28.7630   53.3400 C   0  0  0  0  0  0  0  0  0  0  0  0
   55.0660   28.7090   52.6930 C   0  0  0  0  0  0  0  0  0  0  0  0
   58.9410   29.5380   49.2720 C   0  0  0  0  0  0  0  0  0  0  0  0
   59.7240   27.3480   47.1780 C   0  0  0  0  0  0  0  0  0  0  0  0
   58.5930   27.1680   46.1460 C   0  0  0  0  0  0  0  0  0  0  0  0
   57.4502   29.3895   46.1857 H   0  0  0  0  0  0  0  0  0  0  0  0
   58.0158   30.0978   44.6349 H   0  0  0  0  0  0  0  0  0  0  0  0
   56.7155   28.8586   44.6349 H   0  0  0  0  0  0  0  0  0  0  0  0
   60.7017   27.8454   44.5565 H   0  0  0  0  0  0  0  0  0  0  0  0
   59.9574   29.3819   43.9428 H   0  0  0  0  0  0  0  0  0  0  0  0
   61.6322   29.4779   45.9720 H   0  0  0  0  0  0  0  0  0  0  0  0
   60.1091   30.4466   46.0100 H   0  0  0  0  0  0  0  0  0  0  0  0
   62.2090   30.0393   48.3871 H   0  0  0  0  0  0  0  0  0  0  0  0
   62.1797   31.2933   50.5404 H   0  0  0  0  0  0  0  0  0  0  0  0
   60.0867   31.4263   51.8848 H   0  0  0  0  0  0  0  0  0  0  0  0
   57.0760   31.0950   51.0550 H   0  0  0  0  0  0  0  0  0  0  0  0
   56.7508   31.0421   54.5442 H   0  0  0  0  0  0  0  0  0  0  0  0
   54.5422   31.1398   55.6920 H   0  0  0  0  0  0  0  0  0  0  0  0
   51.7395   28.7759   54.9283 H   0  0  0  0  0  0  0  0  0  0  0  0
   52.4375   29.8717   56.1764 H   0  0  0  0  0  0  0  0  0  0  0  0
   50.7686   31.5182   56.4751 H   0  0  0  0  0  0  0  0  0  0  0  0
   49.4074   33.3874   55.5346 H   0  0  0  0  0  0  0  0  0  0  0  0
   49.3596   33.7849   53.0708 H   0  0  0  0  0  0  0  0  0  0  0  0
   52.0224   30.4285   52.4719 H   0  0  0  0  0  0  0  0  0  0  0  0
   53.0024   28.1229   52.9956 H   0  0  0  0  0  0  0  0  0  0  0  0
   55.2114   28.0156   51.8516 H   0  0  0  0  0  0  0  0  0  0  0  0
   58.0232   29.0524   48.9088 H   0  0  0  0  0  0  0  0  0  0  0  0
   60.5889   26.7379   46.8785 H   0  0  0  0  0  0  0  0  0  0  0  0
   59.3611   27.0281   48.1659 H   0  0  0  0  0  0  0  0  0  0  0  0
   58.6494   26.1451   45.7453 H   0  0  0  0  0  0  0  0  0  0  0  0
   57.6470   27.3643   46.6719 H   0  0  0  0  0  0  0  0  0  0  0  0
  1  2  1  0
  2  3  1  0
  3  4  1  0
  4  5  1  0
  5  6  1  0
  6  7  2  0
  7  8  1  0
  8  9  2  0
  9 10  1  0
 10 11  1  0
 11 12  1  0
 12 13  2  0
 12 14  1  0
 14 15  2  0
 15 16  1  0
 16 17  2  0
 17 18  1  0
 18 19  1  0
 19 20  2  0
 20 21  1  0
 21 22  2  0
 22 23  1  0
 23 24  1  0
 23 25  2  0
 17 26  1  0
 26 27  2  0
 10 28  2  0
  5 29  1  0
 29 30  1  0
 30  2  1  0
 28  6  1  0
 27 14  1  0
 25 19  1  0
  1 31  1  0
  1 32  1  0
  1 33  1  0
  3 34  1  0
  3 35  1  0
  4 36  1  0
  4 37  1  0
  7 38  1  0
  8 39  1  0
  9 40  1  0
 11 41  1  0
 15 42  1  0
 16 43  1  0
 18 44  1  0
 18 45  1  0
 20 46  1  0
 21 47  1  0
 22 48  1  0
 25 49  1  0
 26 50  1  0
 27 51  1  0
 28 52  1  0
 29 53  1  0
 29 54  1  0
 30 55  1  0
 30 56  1  0
M  CHG  1  24  -1
M  END
>  <UniqueID>  (39) 
39

>  <SMILES>  (39) 
CN1CCN(c2cccc(NC(=O)c3ccc(Cc4cccc([O-])c4)cc3)c2)CC1

>  <Energy>  (39) 
76.11754871678477

>  <Genealogy>  (39) 
CN1CCN(c2cccc(NC(=O)c3ccc(Cc4cccc([O-])c4)cc3)c2)CC1 (protonated)
CN1CCN(c2cccc(NC(=O)c3ccc(Cc4cccc([O-])c4)cc3)c2)CC1 (3D coordinates assigned)
CN1CCN(c2cccc(NC(=O)c3ccc(Cc4cccc([O-])c4)cc3)c2)CC1 (nonaromatic ring conformer: 76.11754871678477 kcal/mol)

>  <smiles>  (39) 
CN1CCN(c2cccc(NC(=O)c3ccc(Cc4cccc(O)c4)cc3)c2)CC1

>  <score_type>  (39) 
oracle

>  <origin>  (39) 
adg

>  <m_score__min__energy>  (39) 
-12

>  <m_primary>  (39) 
energy

$$$$
39:0
     RDKit          3D

 41 43  0  0  0  0  0  0  0  0999 V2000
   54.6690   22.7490   45.3290 C   0  0  0  0  0  0  0  0  0  0  0  0
   55.0290   23.6050   46.5050 C   0  0  0  0  0  0  0  0  0  0  0  0
   54.5210   23.3270   47.6240 O   0  0  0  0  0  0  0  0  0  0  0  0
   55.9710   24.7530   46.3880 C   0  0  0  0  0  0  0  0  0  0  0  0
   55.5210   26.0640   46.1340 C   0  0  0  0  0  0  0  0  0  0  0  0
   54.1720   26.3410   45.9490 O   0  0  0  0  0  0  0  0  0  0  0  0
   56.4130   27.0830   46.0470 N   0  0  0  0  0  0  0  0  0  0  0  0
   57.7480   26.8780   46.1850 C   0  0  0  0  0  0  0  0  0  0  0  0
   58.6930   28.0180   46.1000 C   0  0  0  0  0  0  0  0  0  0  0  0
   59.8580   27.9280   45.3170 C   0  0  0  0  0  0  0  0  0  0  0  0
   60.7610   28.9940   45.2630 C   0  0  0  0  0  0  0  0  0  0  0  0
   60.5190   30.1570   45.9970 C   0  0  0  0  0  0  0  0  0  0  0  0
   59.3640   30.2670   46.7830 C   0  0  0  0  0  0  0  0  0  0  0  0
   59.1340   31.4800   47.6460 C   0  0  0  0  0  0  0  0  0  0  0  0
   59.2980   32.6860   46.8430 N   0  0  0  0  0  0  0  0  0  0  0  0
   58.2620   33.2020   46.0010 C   0  0  0  0  0  0  0  0  0  0  0  0
   57.2840   33.8190   46.5000 O   0  0  0  0  0  0  0  0  0  0  0  0
   58.3070   32.9330   44.5320 C   0  0  0  0  0  0  0  0  0  0  0  0
   57.3980   31.7880   44.1990 C   0  0  0  0  0  0  0  0  0  0  0  0
   56.6830   31.1090   45.1140 N   0  0  0  0  0  0  0  0  0  0  0  0
   55.9760   30.2310   44.3690 C   0  0  0  0  0  0  0  0  0  0  0  0
   55.1800   29.3990   44.8770 O   0  0  0  0  0  0  0  0  0  0  0  0
   56.1870   30.3170   43.0390 N   0  0  0  0  0  0  0  0  0  0  0  0
   57.0850   31.3100   42.9430 C   0  0  0  0  0  0  0  0  0  0  0  0
   57.5990   31.7650   41.7320 O   0  0  0  0  0  0  0  0  0  0  0  0
   58.4510   29.2010   46.8220 C   0  0  0  0  0  0  0  0  0  0  0  0
   58.2060   25.6200   46.4140 N   0  0  0  0  0  0  0  0  0  0  0  0
   57.3610   24.5620   46.5170 C   0  0  0  0  0  0  0  0  0  0  0  0
   57.8390   23.4180   46.7440 O   0  0  0  0  0  0  0  0  0  0  0  0
   54.2654   21.7893   45.6839 H   0  0  0  0  0  0  0  0  0  0  0  0
   53.9108   23.2629   44.7199 H   0  0  0  0  0  0  0  0  0  0  0  0
   55.5666   22.5665   44.7199 H   0  0  0  0  0  0  0  0  0  0  0  0
   60.0602   27.0119   44.7427 H   0  0  0  0  0  0  0  0  0  0  0  0
   61.6646   28.9163   44.6406 H   0  0  0  0  0  0  0  0  0  0  0  0
   61.2371   30.9893   45.9581 H   0  0  0  0  0  0  0  0  0  0  0  0
   58.1143   31.4493   48.0574 H   0  0  0  0  0  0  0  0  0  0  0  0
   59.8620   31.4867   48.4706 H   0  0  0  0  0  0  0  0  0  0  0  0
   57.9799   33.8301   43.9860 H   0  0  0  0  0  0  0  0  0  0  0  0
   59.3363   32.6773   44.2402 H   0  0  0  0  0  0  0  0  0  0  0  0
   57.1640   32.5270   41.2270 H   0  0  0  0  0  0  0  0  0  0  0  0
   57.5352   29.2919   47.4245 H   0  0  0  0  0  0  0  0  0  0  0  0
  1  2  1  0
  2  3  2  0
  2  4  1  0
  4  5  2  0
  5  6  1  0
  5  7  1  0
  7  8  2  0
  8  9  1  0
  9 10  2  0
 10 11  1  0
 11 12  2  0
 12 13  1  0
 13 14  1  0
 14 15  1  0
 15 16  1  0
 16 17  2  0
 16 18  1  0
 18 19  1  0
 19 20  1  0
 20 21  1  0
 21 22  2  0
 21 23  1  0
 23 24  1  0
 24 25  1  0
 13 26  2  0
  8 27  1  0
 27 28  1  0
 28 29  2  0
 28  4  1  0
 26  9  1  0
 24 19  2  0
  1 30  1  0
  1 31  1  0
  1 32  1  0
 10 33  1  0
 11 34  1  0
 12 35  1  0
 14 36  1  0
 14 37  1  0
 18 38  1  0
 18 39  1  0
 25 40  1  0
 26 41  1  0
M  CHG  5   6  -1  15  -1  20  -1  23  -1  27  -1
M  END
>  <UniqueID>  (40) 
40

>  <SMILES>  (40) 
CC(=O)c1c([O-])nc(-c2cccc(C[N-]C(=O)Cc3[n-]c(=O)[n-]c3O)c2)[n-]c1=O

>  <Energy>  (40) 
72.25568654700695

>  <Genealogy>  (40) 
CC(=O)c1c([O-])nc(-c2cccc(C[N-]C(=O)Cc3[n-]c(=O)[n-]c3O)c2)[n-]c1=O (protonated)
CC(=O)c1c([O-])nc(-c2cccc(C[N-]C(=O)Cc3[n-]c(=O)[n-]c3O)c2)[n-]c1=O (3D coordinates assigned)
CC(=O)c1c([O-])nc(-c2cccc(C[N-]C(=O)Cc3[n-]c(=O)[n-]c3O)c2)[n-]c1=O (optimized conformer: 72.25568654700695 kcal/mol)

>  <smiles>  (40) 
CC(=O)c1c(O)nc(-c2cccc(CNC(=O)Cc3[nH]c(=O)[nH]c3O)c2)[nH]c1=O

>  <score_type>  (40) 
oracle

>  <origin>  (40) 
adg

>  <m_score__min__energy>  (40) 
-16.629999999999999

>  <m_primary>  (40) 
energy

$$$$
40:0
     RDKit          3D

 60 62  0  0  0  0  0  0  0  0999 V2000
   59.6280   34.6320   48.7720 N   0  0  0  0  0  0  0  0  0  0  0  0
   59.2750   34.9650   47.3950 C   0  0  0  0  0  0  0  0  0  0  0  0
   58.9970   33.7210   46.5890 C   0  0  0  0  0  0  0  0  0  0  0  0
   59.8070   32.5840   46.7400 C   0  0  0  0  0  0  0  0  0  0  0  0
   59.5330   31.4200   46.0150 C   0  0  0  0  0  0  0  0  0  0  0  0
   58.4470   31.3790   45.1270 C   0  0  0  0  0  0  0  0  0  0  0  0
   58.1340   30.1260   44.3620 C   0  0  0  0  0  0  0  0  0  0  0  0
   57.7960   29.0620   45.2980 N   0  0  0  0  0  0  0  0  0  0  0  0
   56.6450   28.2020   45.2580 C   0  0  0  0  0  0  0  0  0  0  0  0
   55.5310   28.7150   44.9730 O   0  0  0  0  0  0  0  0  0  0  0  0
   56.6970   26.7230   45.5620 C   0  0  1  0  0  0  0  0  0  0  0  0
   57.7600   26.0110   44.7010 C   0  0  0  0  0  0  0  0  0  0  0  0
   57.3560   24.5990   44.3590 C   0  0  0  0  0  0  0  0  0  0  0  0
   58.0270   23.5110   44.9390 C   0  0  0  0  0  0  0  0  0  0  0  0
   57.6920   22.2020   44.5800 C   0  0  0  0  0  0  0  0  0  0  0  0
   56.6880   21.9670   43.6340 C   0  0  0  0  0  0  0  0  0  0  0  0
   56.3700   20.6590   43.2820 O   0  0  0  0  0  0  0  0  0  0  0  0
   56.0160   23.0490   43.0520 C   0  0  0  0  0  0  0  0  0  0  0  0
   56.3470   24.3580   43.4100 C   0  0  0  0  0  0  0  0  0  0  0  0
   56.9470   26.5200   46.9870 N   0  0  0  0  0  0  0  0  0  0  0  0
   57.9200   25.6130   47.5100 C   0  0  0  0  0  0  0  0  0  0  0  0
   57.5620   24.5440   48.0780 O   0  0  0  0  0  0  0  0  0  0  0  0
   59.3050   25.9080   47.3390 N   0  0  0  0  0  0  0  0  0  0  0  0
   60.0400   26.8130   48.2140 C   0  0  0  0  0  0  0  0  0  0  0  0
   60.2700   28.1500   47.5110 C   0  0  0  0  0  0  0  0  0  0  0  0
   60.0900   29.3010   48.4670 C   0  0  0  0  0  0  0  0  0  0  0  0
   61.1740   30.1390   48.7770 C   0  0  0  0  0  0  0  0  0  0  0  0
   60.9910   31.2480   49.6090 C   0  0  0  0  0  0  0  0  0  0  0  0
   59.7260   31.5340   50.1280 C   0  0  0  0  0  0  0  0  0  0  0  0
   58.6410   30.7090   49.8190 C   0  0  0  0  0  0  0  0  0  0  0  0
   58.8200   29.5970   48.9910 C   0  0  0  0  0  0  0  0  0  0  0  0
   57.6200   32.5050   44.9980 C   0  0  0  0  0  0  0  0  0  0  0  0
   57.8920   33.6670   45.7260 C   0  0  0  0  0  0  0  0  0  0  0  0
   59.3840   35.4420   49.3880 H   0  0  0  0  0  0  0  0  0  0  0  0
   59.0520   33.8140   49.0810 H   0  0  0  0  0  0  0  0  0  0  0  0
   58.3763   35.5993   47.3980 H   0  0  0  0  0  0  0  0  0  0  0  0
   60.1220   35.4962   46.9362 H   0  0  0  0  0  0  0  0  0  0  0  0
   60.6615   32.6090   47.4322 H   0  0  0  0  0  0  0  0  0  0  0  0
   60.1712   30.5330   46.1412 H   0  0  0  0  0  0  0  0  0  0  0  0
   57.2823   30.3087   43.6903 H   0  0  0  0  0  0  0  0  0  0  0  0
   59.0103   29.8289   43.7672 H   0  0  0  0  0  0  0  0  0  0  0  0
   55.7240   26.2774   45.3077 H   0  0  0  0  0  0  0  0  0  0  0  0
   57.8985   26.5768   43.7679 H   0  0  0  0  0  0  0  0  0  0  0  0
   58.6934   25.9665   45.2813 H   0  0  0  0  0  0  0  0  0  0  0  0
   58.8204   23.6892   45.6797 H   0  0  0  0  0  0  0  0  0  0  0  0
   58.2191   21.3545   45.0425 H   0  0  0  0  0  0  0  0  0  0  0  0
   57.0300   19.9010   43.4110 H   0  0  0  0  0  0  0  0  0  0  0  0
   55.2244   22.8674   42.3101 H   0  0  0  0  0  0  0  0  0  0  0  0
   55.8163   25.2034   42.9477 H   0  0  0  0  0  0  0  0  0  0  0  0
   59.4606   26.9804   49.1340 H   0  0  0  0  0  0  0  0  0  0  0  0
   61.0131   26.3639   48.4616 H   0  0  0  0  0  0  0  0  0  0  0  0
   61.2935   28.1734   47.1085 H   0  0  0  0  0  0  0  0  0  0  0  0
   59.5343   28.2503   46.6994 H   0  0  0  0  0  0  0  0  0  0  0  0
   62.1701   29.9221   48.3639 H   0  0  0  0  0  0  0  0  0  0  0  0
   61.8448   31.8964   49.8552 H   0  0  0  0  0  0  0  0  0  0  0  0
   59.5838   32.4085   50.7799 H   0  0  0  0  0  0  0  0  0  0  0  0
   57.6451   30.9349   50.2278 H   0  0  0  0  0  0  0  0  0  0  0  0
   57.9633   28.9510   48.7486 H   0  0  0  0  0  0  0  0  0  0  0  0
   56.7536   32.4733   44.3209 H   0  0  0  0  0  0  0  0  0  0  0  0
   57.2361   34.5439   45.6217 H   0  0  0  0  0  0  0  0  0  0  0  0
  1  2  1  0
  2  3  1  0
  3  4  2  0
  4  5  1  0
  5  6  2  0
  6  7  1  0
  7  8  1  0
  8  9  1  0
  9 10  2  0
  9 11  1  0
 11 12  1  0
 12 13  1  0
 13 14  2  0
 14 15  1  0
 15 16  2  0
 16 17  1  0
 16 18  1  0
 18 19  2  0
 11 20  1  0
 20 21  1  0
 21 22  2  0
 21 23  1  0
 23 24  1  0
 24 25  1  0
 25 26  1  0
 26 27  2  0
 27 28  1  0
 28 29  2  0
 29 30  1  0
 30 31  2  0
  6 32  1  0
 32 33  2  0
 33  3  1  0
 19 13  1  0
 31 26  1  0
  1 34  1  0
  1 35  1  0
  2 36  1  0
  2 37  1  0
  4 38  1  0
  5 39  1  0
  7 40  1  0
  7 41  1  0
 11 42  1  6
 12 43  1  0
 12 44  1  0
 14 45  1  0
 15 46  1  0
 17 47  1  0
 18 48  1  0
 19 49  1  0
 24 50  1  0
 24 51  1  0
 25 52  1  0
 25 53  1  0
 27 54  1  0
 28 55  1  0
 29 56  1  0
 30 57  1  0
 31 58  1  0
 32 59  1  0
 33 60  1  0
M  CHG  3   8  -1  20  -1  23  -1
M  END
>  <UniqueID>  (41) 
41

>  <SMILES>  (41) 
NCc1ccc(C[N-]C(=O)[C@@H](Cc2ccc(O)cc2)[N-]C(=O)[N-]CCc2ccccc2)cc1

>  <Energy>  (41) 
49.467805061758334

>  <Genealogy>  (41) 
NCc1ccc(C[N-]C(=O)C(Cc2ccc(O)cc2)[N-]C(=O)[N-]CCc2ccccc2)cc1 (protonated)
NCc1ccc(C[N-]C(=O)[C@@H](Cc2ccc(O)cc2)[N-]C(=O)[N-]CCc2ccccc2)cc1 (chirality)
NCc1ccc(C[N-]C(=O)[C@@H](Cc2ccc(O)cc2)[N-]C(=O)[N-]CCc2ccccc2)cc1 (3D coordinates assigned)
NCc1ccc(C[N-]C(=O)[C@@H](Cc2ccc(O)cc2)[N-]C(=O)[N-]CCc2ccccc2)cc1 (optimized conformer: 49.467805061758334 kcal/mol)

>  <smiles>  (41) 
NCc1ccc(CNC(=O)C(Cc2ccc(O)cc2)NC(=O)NCCc2ccccc2)cc1

>  <score_type>  (41) 
oracle

>  <origin>  (41) 
adg

>  <m_score__min__energy>  (41) 
-14.08

>  <m_primary>  (41) 
energy

$$$$
41:0
     RDKit          3D

 47 50  0  0  0  0  0  0  0  0999 V2000
   54.3690   26.6860   46.7470 H   0  0  0  0  0  0  0  0  0  0  0  0
   54.9780   26.3710   46.0020 O   0  0  0  0  0  0  0  0  0  0  0  0
   55.9990   25.4550   46.2390 C   0  0  0  0  0  0  0  0  0  0  0  0
   55.8830   24.4200   47.0860 N   0  0  0  0  0  0  0  0  0  0  0  0
   57.0820   23.8090   46.9780 C   0  0  0  0  0  0  0  0  0  0  0  0
   57.3750   22.7690   47.6250 O   0  0  0  0  0  0  0  0  0  0  0  0
   57.9400   24.3940   46.1150 N   0  0  0  0  0  0  0  0  0  0  0  0
   57.2510   25.4600   45.6650 C   0  0  0  0  0  0  0  0  0  0  0  0
   57.7130   26.3560   44.5930 C   0  0  0  0  0  0  0  0  0  0  0  0
   57.9696   25.8959   43.6274 H   0  0  0  0  0  0  0  0  0  0  0  0
   57.8480   27.6920   44.6950 C   0  0  0  0  0  0  0  0  0  0  0  0
   57.3510   28.5710   43.7470 C   0  0  0  0  0  0  0  0  0  0  0  0
   56.7537   28.3097   42.8610 H   0  0  0  0  0  0  0  0  0  0  0  0
   57.7480   29.8370   44.1260 C   0  0  0  0  0  0  0  0  0  0  0  0
   57.4360   31.0890   43.3630 C   0  0  0  0  0  0  0  0  0  0  0  0
   57.2320   31.9075   44.0691 H   0  0  0  0  0  0  0  0  0  0  0  0
   58.2950   31.3563   42.7300 H   0  0  0  0  0  0  0  0  0  0  0  0
   56.5520   30.9220   42.7300 H   0  0  0  0  0  0  0  0  0  0  0  0
   58.4300   29.7860   45.2910 N   0  0  0  0  0  0  0  0  0  0  0  0
   58.9650   30.9180   46.0030 C   0  0  0  0  0  0  0  0  0  0  0  0
   60.2810   30.8870   46.4850 C   0  0  0  0  0  0  0  0  0  0  0  0
   60.9049   29.9963   46.3192 H   0  0  0  0  0  0  0  0  0  0  0  0
   60.8030   31.9850   47.1760 C   0  0  0  0  0  0  0  0  0  0  0  0
   61.8338   31.9513   47.5584 H   0  0  0  0  0  0  0  0  0  0  0  0
   60.0180   33.1300   47.3840 C   0  0  0  0  0  0  0  0  0  0  0  0
   60.5660   34.2940   48.1640 C   0  0  0  0  0  0  0  0  0  0  0  0
   60.6968   35.1536   47.4902 H   0  0  0  0  0  0  0  0  0  0  0  0
   59.8608   34.5511   48.9681 H   0  0  0  0  0  0  0  0  0  0  0  0
   61.8930   33.9330   48.7720 C   0  0  0  0  0  0  0  0  0  0  0  0
   63.0260   33.7650   47.9560 C   0  0  0  0  0  0  0  0  0  0  0  0
   62.9485   33.9279   46.8709 H   0  0  0  0  0  0  0  0  0  0  0  0
   64.2500   33.3920   48.5180 C   0  0  0  0  0  0  0  0  0  0  0  0
   65.1345   33.2689   47.8757 H   0  0  0  0  0  0  0  0  0  0  0  0
   64.3520   33.1750   49.8960 C   0  0  0  0  0  0  0  0  0  0  0  0
   65.3167   32.8840   50.3372 H   0  0  0  0  0  0  0  0  0  0  0  0
   63.2280   33.3280   50.7120 C   0  0  0  0  0  0  0  0  0  0  0  0
   63.3084   33.1547   51.7953 H   0  0  0  0  0  0  0  0  0  0  0  0
   62.0010   33.7010   50.1540 C   0  0  0  0  0  0  0  0  0  0  0  0
   61.1172   33.8132   50.7992 H   0  0  0  0  0  0  0  0  0  0  0  0
   58.6970   33.1540   46.9100 C   0  0  0  0  0  0  0  0  0  0  0  0
   58.0693   34.0407   47.0824 H   0  0  0  0  0  0  0  0  0  0  0  0
   58.1760   32.0560   46.2200 C   0  0  0  0  0  0  0  0  0  0  0  0
   57.1421   32.0850   45.8455 H   0  0  0  0  0  0  0  0  0  0  0  0
   58.4760   28.4830   45.6730 C   0  0  0  0  0  0  0  0  0  0  0  0
   58.9050   28.0850   46.8800 C   0  0  0  0  0  0  0  0  0  0  0  0
   59.3841   28.8060   47.5587 H   0  0  0  0  0  0  0  0  0  0  0  0
   58.7777   27.0376   47.1911 H   0  0  0  0  0  0  0  0  0  0  0  0
  1  2  1  0
  2  3  1  0
  3  4  1  0
  4  5  1  0
  5  6  2  0
  5  7  1  0
  7  8  1  0
  8  9  1  0
  9 10  1  0
  9 11  2  0
 11 12  1  0
 12 13  1  0
 12 14  2  0
 14 15  1  0
 15 16  1  0
 15 17  1  0
 15 18  1  0
 14 19  1  0
 19 20  1  0
 20 21  2  0
 21 22  1  0
 21 23  1  0
 23 24  1  0
 23 25  2  0
 25 26  1  0
 26 27  1  0
 26 28  1  0
 26 29  1  0
 29 30  2  0
 30 31  1  0
 30 32  1  0
 32 33  1  0
 32 34  2  0
 34 35  1  0
 34 36  1  0
 36 37  1  0
 36 38  2  0
 38 39  1  0
 25 40  1  0
 40 41  1  0
 40 42  2  0
 42 43  1  0
 19 44  1  0
 44 45  2  0
 45 46  1  0
 45 47  1  0
  8  3  2  0
 44 11  1  0
 42 20  1  0
 38 29  1  0
M  CHG  2   4  -1   7  -1
M  END
>  <UniqueID>  (42) 
42

>  <SMILES>  (42) 
C=c1/c(=C\c2[n-]c(=O)[n-]c2O)cc(C)n1-c1ccc(Cc2ccccc2)cc1

>  <Energy>  (42) 
123.69452555498808

>  <Genealogy>  (42) 
C=c1c(=Cc2[n-]c(=O)[n-]c2O)cc(C)n1-c1ccc(Cc2ccccc2)cc1 (protonated)
C=c1/c(=C\c2[n-]c(=O)[n-]c2O)cc(C)n1-c1ccc(Cc2ccccc2)cc1 (cis-trans isomerization)
C=c1/c(=C\c2[n-]c(=O)[n-]c2O)cc(C)n1-c1ccc(Cc2ccccc2)cc1 (3D coordinates assigned)
C=c1/c(=C\c2[n-]c(=O)[n-]c2O)cc(C)n1-c1ccc(Cc2ccccc2)cc1 (optimized conformer: 123.69452555498808 kcal/mol)

>  <smiles>  (42) 
C=c1c(=Cc2[nH]c(=O)[nH]c2O)cc(C)n1-c1ccc(Cc2ccccc2)cc1

>  <score_type>  (42) 
oracle

>  <origin>  (42) 
adg

>  <m_score__min__energy>  (42) 
-14

>  <m_primary>  (42) 
energy

$$$$
42:0
     RDKit          3D

 58 60  0  0  0  0  0  0  0  0999 V2000
   55.1800   29.8780   53.4020 C   0  0  0  0  0  0  0  0  0  0  0  0
   56.4850   30.1370   53.4690 C   0  0  0  0  0  0  0  0  0  0  0  0
   57.3110   30.3920   52.2680 C   0  0  0  0  0  0  0  0  0  0  0  0
   57.4130   29.5090   51.3760 O   0  0  0  0  0  0  0  0  0  0  0  0
   57.9470   31.6680   52.1020 N   0  0  0  0  0  0  0  0  0  0  0  0
   58.7580   32.0280   50.9720 C   0  0  0  0  0  0  0  0  0  0  0  0
   59.4220   31.0630   50.2070 C   0  0  0  0  0  0  0  0  0  0  0  0
   60.1550   31.4700   49.0930 C   0  0  0  0  0  0  0  0  0  0  0  0
   60.7480   30.5980   48.4030 O   0  0  0  0  0  0  0  0  0  0  0  0
   60.2270   32.8010   48.7590 N   0  0  0  0  0  0  0  0  0  0  0  0
   60.8720   33.2100   47.4940 C   0  0  0  0  0  0  0  0  0  0  0  0
   59.8380   33.2710   46.3980 C   0  0  0  0  0  0  0  0  0  0  0  0
   59.3790   34.5110   45.9270 C   0  0  0  0  0  0  0  0  0  0  0  0
   58.3010   34.5740   45.0390 C   0  0  0  0  0  0  0  0  0  0  0  0
   57.6580   33.4060   44.6260 C   0  0  0  0  0  0  0  0  0  0  0  0
   58.1110   32.1580   45.0760 C   0  0  0  0  0  0  0  0  0  0  0  0
   57.4010   30.9180   44.6980 C   0  0  0  0  0  0  0  0  0  0  0  0
   56.1520   30.8350   44.8530 O   0  0  0  0  0  0  0  0  0  0  0  0
   58.1360   29.7910   44.2220 N   0  0  0  0  0  0  0  0  0  0  0  0
   58.2430   28.5760   44.9730 C   0  0  0  0  0  0  0  0  0  0  0  0
   57.0920   27.8080   45.2020 C   0  0  0  0  0  0  0  0  0  0  0  0
   57.1620   26.6170   45.9420 C   0  0  0  0  0  0  0  0  0  0  0  0
   55.9460   25.8200   46.2120 C   0  0  0  0  0  0  0  0  0  0  0  0
   54.8170   26.3240   45.9770 O   0  0  0  0  0  0  0  0  0  0  0  0
   56.0260   24.4810   46.7290 N   0  0  0  0  0  0  0  0  0  0  0  0
   55.1190   23.4620   46.1920 C   0  0  0  0  0  0  0  0  0  0  0  0
   56.8750   24.1900   47.8900 C   0  0  0  0  0  0  0  0  0  0  0  0
   58.3980   26.2210   46.4770 C   0  0  0  0  0  0  0  0  0  0  0  0
   59.5480   26.9780   46.2470 C   0  0  0  0  0  0  0  0  0  0  0  0
   59.4860   28.1490   45.4790 C   0  0  0  0  0  0  0  0  0  0  0  0
   60.7300   28.9640   45.2570 C   0  0  0  0  0  0  0  0  0  0  0  0
   59.2180   32.0960   45.9450 C   0  0  0  0  0  0  0  0  0  0  0  0
   59.6140   33.7310   49.5660 C   0  0  0  0  0  0  0  0  0  0  0  0
   59.6980   34.9620   49.3140 O   0  0  0  0  0  0  0  0  0  0  0  0
   58.8970   33.3350   50.6490 N   0  0  0  0  0  0  0  0  0  0  0  0
   54.6076   29.6948   54.3233 H   0  0  0  0  0  0  0  0  0  0  0  0
   54.6748   29.8474   52.4254 H   0  0  0  0  0  0  0  0  0  0  0  0
   56.9681   30.1623   54.4569 H   0  0  0  0  0  0  0  0  0  0  0  0
   57.6560   32.4430   52.7410 H   0  0  0  0  0  0  0  0  0  0  0  0
   59.3666   29.9990   50.4804 H   0  0  0  0  0  0  0  0  0  0  0  0
   61.3309   34.2017   47.6205 H   0  0  0  0  0  0  0  0  0  0  0  0
   61.6478   32.4780   47.2252 H   0  0  0  0  0  0  0  0  0  0  0  0
   59.8700   35.4379   46.2582 H   0  0  0  0  0  0  0  0  0  0  0  0
   57.9577   35.5494   44.6638 H   0  0  0  0  0  0  0  0  0  0  0  0
   56.7948   33.4649   43.9467 H   0  0  0  0  0  0  0  0  0  0  0  0
   56.1250   28.1421   44.7979 H   0  0  0  0  0  0  0  0  0  0  0  0
   54.6396   22.9234   47.0227 H   0  0  0  0  0  0  0  0  0  0  0  0
   54.3476   23.9462   45.5752 H   0  0  0  0  0  0  0  0  0  0  0  0
   55.6893   22.7519   45.5752 H   0  0  0  0  0  0  0  0  0  0  0  0
   56.3109   24.3833   48.8144 H   0  0  0  0  0  0  0  0  0  0  0  0
   57.1840   23.1346   47.8630 H   0  0  0  0  0  0  0  0  0  0  0  0
   57.7664   24.8339   47.8630 H   0  0  0  0  0  0  0  0  0  0  0  0
   58.4609   25.3053   47.0833 H   0  0  0  0  0  0  0  0  0  0  0  0
   60.5095   26.6534   46.6714 H   0  0  0  0  0  0  0  0  0  0  0  0
   61.1614   29.2466   46.2286 H   0  0  0  0  0  0  0  0  0  0  0  0
   61.4615   28.3695   44.6900 H   0  0  0  0  0  0  0  0  0  0  0  0
   60.4771   29.8721   44.6900 H   0  0  0  0  0  0  0  0  0  0  0  0
   59.6001   31.1176   46.2716 H   0  0  0  0  0  0  0  0  0  0  0  0
  1  2  2  0
  2  3  1  0
  3  4  2  0
  3  5  1  0
  5  6  1  0
  6  7  2  0
  7  8  1  0
  8  9  2  0
  8 10  1  0
 10 11  1  0
 11 12  1  0
 12 13  2  0
 13 14  1  0
 14 15  2  0
 15 16  1  0
 16 17  1  0
 17 18  2  0
 17 19  1  0
 19 20  1  0
 20 21  2  0
 21 22  1  0
 22 23  1  0
 23 24  2  0
 23 25  1  0
 25 26  1  0
 25 27  1  0
 22 28  2  0
 28 29  1  0
 29 30  2  0
 30 31  1  0
 16 32  2  0
 10 33  1  0
 33 34  2  0
 33 35  1  0
 35  6  1  0
 32 12  1  0
 30 20  1  0
  1 36  1  0
  1 37  1  0
  2 38  1  0
  5 39  1  0
  7 40  1  0
 11 41  1  0
 11 42  1  0
 13 43  1  0
 14 44  1  0
 15 45  1  0
 21 46  1  0
 26 47  1  0
 26 48  1  0
 26 49  1  0
 27 50  1  0
 27 51  1  0
 27 52  1  0
 28 53  1  0
 29 54  1  0
 31 55  1  0
 31 56  1  0
 31 57  1  0
 32 58  1  0
M  CHG  2  19  -1  35  -1
M  END
>  <UniqueID>  (43) 
43

>  <SMILES>  (43) 
C=CC(=O)Nc1cc(=O)n(Cc2cccc(C(=O)[N-]c3cc(C(=O)N(C)C)ccc3C)c2)c(=O)[n-]1

>  <Energy>  (43) 
78.8627459576123

>  <Genealogy>  (43) 
C=CC(=O)Nc1cc(=O)n(Cc2cccc(C(=O)[N-]c3cc(C(=O)N(C)C)ccc3C)c2)c(=O)[n-]1 (protonated)
C=CC(=O)Nc1cc(=O)n(Cc2cccc(C(=O)[N-]c3cc(C(=O)N(C)C)ccc3C)c2)c(=O)[n-]1 (3D coordinates assigned)
C=CC(=O)Nc1cc(=O)n(Cc2cccc(C(=O)[N-]c3cc(C(=O)N(C)C)ccc3C)c2)c(=O)[n-]1 (optimized conformer: 78.8627459576123 kcal/mol)

>  <smiles>  (43) 
C=CC(=O)Nc1cc(=O)n(Cc2cccc(C(=O)Nc3cc(C(=O)N(C)C)ccc3C)c2)c(=O)[nH]1

>  <score_type>  (43) 
oracle

>  <origin>  (43) 
adg

>  <m_score__min__energy>  (43) 
-12.73

>  <m_primary>  (43) 
energy

$$$$
43:0
     RDKit          3D

 47 49  0  0  0  0  0  0  0  0999 V2000
   56.7670   30.3940   43.6570 C   0  0  0  0  0  0  0  0  0  0  0  0
   56.6840   31.1360   44.8700 O   0  0  0  0  0  0  0  0  0  0  0  0
   57.7290   31.9060   45.4010 C   0  0  0  0  0  0  0  0  0  0  0  0
   58.0460   33.1840   44.9110 C   0  0  0  0  0  0  0  0  0  0  0  0
   59.0950   33.9140   45.4720 C   0  0  0  0  0  0  0  0  0  0  0  0
   59.8490   33.3820   46.5370 C   0  0  0  0  0  0  0  0  0  0  0  0
   60.9120   34.0930   47.1150 O   0  0  0  0  0  0  0  0  0  0  0  0
   62.2900   33.8500   46.8520 C   0  0  0  0  0  0  0  0  0  0  0  0
   59.5330   32.1000   47.0320 C   0  0  0  0  0  0  0  0  0  0  0  0
   60.2940   31.5120   48.1980 C   0  0  0  0  0  0  0  0  0  0  0  0
   59.8550   32.1200   49.4670 N   0  0  0  0  0  0  0  0  0  0  0  0
   60.5170   33.2200   49.9380 C   0  0  0  0  0  0  0  0  0  0  0  0
   60.1180   33.8430   51.1160 C   0  0  0  0  0  0  0  0  0  0  0  0
   59.0330   33.3400   51.8250 C   0  0  0  0  0  0  0  0  0  0  0  0
   58.3440   32.2110   51.3580 C   0  0  0  0  0  0  0  0  0  0  0  0
   57.1960   31.6750   52.1340 C   0  0  0  0  0  0  0  0  0  0  0  0
   57.0240   32.0370   53.3290 O   0  0  0  0  0  0  0  0  0  0  0  0
   56.3000   30.7160   51.5430 N   0  0  0  0  0  0  0  0  0  0  0  0
   54.9920   30.4190   52.0600 C   0  0  0  0  0  0  0  0  0  0  0  0
   53.8260   30.8450   51.3960 C   0  0  0  0  0  0  0  0  0  0  0  0
   52.5650   30.5200   51.9080 C   0  0  0  0  0  0  0  0  0  0  0  0
   52.4570   29.7600   53.0750 C   0  0  0  0  0  0  0  0  0  0  0  0
   53.6090   29.3140   53.7280 C   0  0  0  0  0  0  0  0  0  0  0  0
   54.8710   29.6350   53.2190 C   0  0  0  0  0  0  0  0  0  0  0  0
   58.7830   31.6050   50.1580 C   0  0  0  0  0  0  0  0  0  0  0  0
   58.1780   30.5890   49.7140 O   0  0  0  0  0  0  0  0  0  0  0  0
   58.4750   31.3760   46.4570 C   0  0  0  0  0  0  0  0  0  0  0  0
   56.8865   29.3253   43.8884 H   0  0  0  0  0  0  0  0  0  0  0  0
   55.8467   30.5420   43.0729 H   0  0  0  0  0  0  0  0  0  0  0  0
   57.6319   30.7417   43.0729 H   0  0  0  0  0  0  0  0  0  0  0  0
   57.4644   33.6115   44.0809 H   0  0  0  0  0  0  0  0  0  0  0  0
   59.3352   34.9131   45.0795 H   0  0  0  0  0  0  0  0  0  0  0  0
   62.8335   33.7541   47.8035 H   0  0  0  0  0  0  0  0  0  0  0  0
   62.3946   32.9196   46.2746 H   0  0  0  0  0  0  0  0  0  0  0  0
   62.7065   34.6886   46.2746 H   0  0  0  0  0  0  0  0  0  0  0  0
   60.1145   30.4274   48.2362 H   0  0  0  0  0  0  0  0  0  0  0  0
   61.3659   31.7170   48.0600 H   0  0  0  0  0  0  0  0  0  0  0  0
   61.3763   33.6174   49.3780 H   0  0  0  0  0  0  0  0  0  0  0  0
   60.6575   34.7280   51.4842 H   0  0  0  0  0  0  0  0  0  0  0  0
   58.7134   33.8298   52.7566 H   0  0  0  0  0  0  0  0  0  0  0  0
   56.6640   30.1250   50.7610 H   0  0  0  0  0  0  0  0  0  0  0  0
   53.9065   31.4354   50.4714 H   0  0  0  0  0  0  0  0  0  0  0  0
   51.6571   30.8636   51.3906 H   0  0  0  0  0  0  0  0  0  0  0  0
   51.4647   29.5125   53.4801 H   0  0  0  0  0  0  0  0  0  0  0  0
   53.5229   28.7099   54.6432 H   0  0  0  0  0  0  0  0  0  0  0  0
   55.7749   29.2712   53.7295 H   0  0  0  0  0  0  0  0  0  0  0  0
   58.2300   30.3760   46.8443 H   0  0  0  0  0  0  0  0  0  0  0  0
  1  2  1  0
  2  3  1  0
  3  4  2  0
  4  5  1  0
  5  6  2  0
  6  7  1  0
  7  8  1  0
  6  9  1  0
  9 10  1  0
 10 11  1  0
 11 12  1  0
 12 13  2  0
 13 14  1  0
 14 15  2  0
 15 16  1  0
 16 17  2  0
 16 18  1  0
 18 19  1  0
 19 20  2  0
 20 21  1  0
 21 22  2  0
 22 23  1  0
 23 24  2  0
 15 25  1  0
 25 26  2  0
  9 27  2  0
 27  3  1  0
 25 11  1  0
 24 19  1  0
  1 28  1  0
  1 29  1  0
  1 30  1  0
  4 31  1  0
  5 32  1  0
  8 33  1  0
  8 34  1  0
  8 35  1  0
 10 36  1  0
 10 37  1  0
 12 38  1  0
 13 39  1  0
 14 40  1  0
 18 41  1  0
 20 42  1  0
 21 43  1  0
 22 44  1  0
 23 45  1  0
 24 46  1  0
 27 47  1  0
M  END
>  <UniqueID>  (44) 
44

>  <SMILES>  (44) 
COc1ccc(OC)c(Cn2cccc(C(=O)Nc3ccccc3)c2=O)c1

>  <Energy>  (44) 
57.80843656276374

>  <Genealogy>  (44) 
COc1ccc(OC)c(Cn2cccc(C(=O)Nc3ccccc3)c2=O)c1 (3D coordinates assigned)
COc1ccc(OC)c(Cn2cccc(C(=O)Nc3ccccc3)c2=O)c1 (optimized conformer: 57.80843656276374 kcal/mol)

>  <smiles>  (44) 
COc1ccc(OC)c(Cn2cccc(C(=O)Nc3ccccc3)c2=O)c1

>  <score_type>  (44) 
oracle

>  <origin>  (44) 
adg

>  <m_score__min__energy>  (44) 
-7.1600000000000001

>  <m_primary>  (44) 
energy

$$$$
44:0
     RDKit          3D

 78 82  0  0  0  0  0  0  0  0999 V2000
   63.5590   33.5320   54.6020 C   0  0  0  0  0  0  0  0  0  0  0  0
   63.0500   34.0200   53.3250 N   0  0  0  0  0  0  0  0  0  0  0  0
   61.6750   33.8240   52.9900 C   0  0  0  0  0  0  0  0  0  0  0  0
   60.6910   33.9390   53.9750 C   0  0  0  0  0  0  0  0  0  0  0  0
   59.3450   33.7700   53.6440 C   0  0  0  0  0  0  0  0  0  0  0  0
   58.9660   33.4970   52.3150 C   0  0  0  0  0  0  0  0  0  0  0  0
   57.6220   33.3390   51.9330 O   0  0  0  0  0  0  0  0  0  0  0  0
   56.7620   32.2780   52.3550 C   0  0  0  0  0  0  0  0  0  0  0  0
   57.2540   30.9370   51.8710 C   0  0  0  0  0  0  0  0  0  0  0  0
   56.5330   29.9530   51.9800 O   0  0  0  0  0  0  0  0  0  0  0  0
   58.5600   30.8220   51.2490 N   0  0  0  0  0  0  0  0  0  0  0  0
   58.5030   29.9030   50.0870 C   0  0  0  0  0  0  0  0  0  0  0  0
   59.9090   29.5560   49.5520 C   0  0  0  0  0  0  0  0  0  0  0  0
   60.9200   30.4420   50.1530 N   0  0  0  0  0  0  0  0  0  0  0  0
   62.2480   30.3460   49.5060 C   0  0  0  0  0  0  0  0  0  0  0  0
   62.6240   31.5640   48.6870 C   0  0  0  0  0  0  0  0  0  0  0  0
   61.8830   31.9080   47.5430 C   0  0  0  0  0  0  0  0  0  0  0  0
   62.2310   33.0340   46.7870 C   0  0  0  0  0  0  0  0  0  0  0  0
   63.3260   33.8150   47.1610 C   0  0  0  0  0  0  0  0  0  0  0  0
   64.0770   33.4730   48.2890 C   0  0  0  0  0  0  0  0  0  0  0  0
   63.7310   32.3510   49.0490 C   0  0  0  0  0  0  0  0  0  0  0  0
   60.9700   30.2760   51.6190 C   0  0  0  0  0  0  0  0  0  0  0  0
   59.5570   30.3710   52.2400 C   0  0  0  0  0  0  0  0  0  0  0  0
   59.9540   33.3800   51.3240 C   0  0  0  0  0  0  0  0  0  0  0  0
   59.5480   33.1030   50.0100 O   0  0  0  0  0  0  0  0  0  0  0  0
   59.5730   34.0440   48.9400 C   0  0  0  0  0  0  0  0  0  0  0  0
   59.0520   33.3870   47.6910 C   0  0  0  0  0  0  0  0  0  0  0  0
   58.5810   32.0640   47.7450 C   0  0  0  0  0  0  0  0  0  0  0  0
   58.1170   31.4290   46.5900 C   0  0  0  0  0  0  0  0  0  0  0  0
   58.1260   32.1040   45.3670 C   0  0  0  0  0  0  0  0  0  0  0  0
   57.5490   31.3040   43.9180 Cl  0  0  0  0  0  0  0  0  0  0  0  0
   58.6050   33.4160   45.2980 C   0  0  0  0  0  0  0  0  0  0  0  0
   59.0710   34.0610   46.4500 C   0  0  0  0  0  0  0  0  0  0  0  0
   59.6810   35.7070   46.3020 Cl  0  0  0  0  0  0  0  0  0  0  0  0
   61.3090   33.5430   51.6690 C   0  0  0  0  0  0  0  0  0  0  0  0
   64.1410   34.5960   52.1070 S   0  0  0  0  0  0  0  0  0  0  0  0
   63.3650   35.0970   50.9190 O   0  0  0  0  0  0  0  0  0  0  0  0
   64.9540   35.7370   52.6540 O   0  0  0  0  0  0  0  0  0  0  0  0
   65.1890   33.2740   51.6080 C   0  0  0  0  0  0  0  0  0  0  0  0
   66.3560   33.5300   50.8710 C   0  0  0  0  0  0  0  0  0  0  0  0
   67.1970   32.4750   50.5020 C   0  0  0  0  0  0  0  0  0  0  0  0
   66.8800   31.1650   50.8720 C   0  0  0  0  0  0  0  0  0  0  0  0
   65.7230   30.9070   51.6140 C   0  0  0  0  0  0  0  0  0  0  0  0
   64.8790   31.9580   51.9820 C   0  0  0  0  0  0  0  0  0  0  0  0
   63.0316   34.0376   55.4243 H   0  0  0  0  0  0  0  0  0  0  0  0
   63.3930   32.4469   54.6723 H   0  0  0  0  0  0  0  0  0  0  0  0
   64.6362   33.7435   54.6723 H   0  0  0  0  0  0  0  0  0  0  0  0
   60.9771   34.1631   55.0132 H   0  0  0  0  0  0  0  0  0  0  0  0
   58.5757   33.8506   54.4261 H   0  0  0  0  0  0  0  0  0  0  0  0
   56.7213   32.2676   53.4542 H   0  0  0  0  0  0  0  0  0  0  0  0
   55.7644   32.4532   51.9259 H   0  0  0  0  0  0  0  0  0  0  0  0
   58.8470   31.7680   50.9040 H   0  0  0  0  0  0  0  0  0  0  0  0
   58.0009   28.9737   50.3940 H   0  0  0  0  0  0  0  0  0  0  0  0
   57.9493   30.4084   49.2820 H   0  0  0  0  0  0  0  0  0  0  0  0
   60.1456   28.5120   49.8051 H   0  0  0  0  0  0  0  0  0  0  0  0
   59.9190   29.6920   48.4605 H   0  0  0  0  0  0  0  0  0  0  0  0
   63.0062   30.2096   50.2912 H   0  0  0  0  0  0  0  0  0  0  0  0
   62.2019   29.4959   48.8094 H   0  0  0  0  0  0  0  0  0  0  0  0
   61.0253   31.2894   47.2402 H   0  0  0  0  0  0  0  0  0  0  0  0
   61.6415   33.3033   45.8982 H   0  0  0  0  0  0  0  0  0  0  0  0
   63.5980   34.7003   46.5674 H   0  0  0  0  0  0  0  0  0  0  0  0
   64.9419   34.0874   48.5796 H   0  0  0  0  0  0  0  0  0  0  0  0
   64.3276   32.0834   49.9336 H   0  0  0  0  0  0  0  0  0  0  0  0
   61.4001   29.2913   51.8543 H   0  0  0  0  0  0  0  0  0  0  0  0
   61.5908   31.0805   52.0401 H   0  0  0  0  0  0  0  0  0  0  0  0
   59.2643   29.3795   52.6158 H   0  0  0  0  0  0  0  0  0  0  0  0
   59.5880   31.1061   53.0577 H   0  0  0  0  0  0  0  0  0  0  0  0
   58.9392   34.9065   49.1938 H   0  0  0  0  0  0  0  0  0  0  0  0
   60.6047   34.3874   48.7740 H   0  0  0  0  0  0  0  0  0  0  0  0
   58.5776   31.5244   48.7035 H   0  0  0  0  0  0  0  0  0  0  0  0
   57.7439   30.3956   46.6439 H   0  0  0  0  0  0  0  0  0  0  0  0
   58.6157   33.9443   44.3332 H   0  0  0  0  0  0  0  0  0  0  0  0
   62.0851   33.4489   50.8952 H   0  0  0  0  0  0  0  0  0  0  0  0
   66.6093   34.5611   50.5834 H   0  0  0  0  0  0  0  0  0  0  0  0
   68.1085   32.6765   49.9202 H   0  0  0  0  0  0  0  0  0  0  0  0
   67.5412   30.3361   50.5793 H   0  0  0  0  0  0  0  0  0  0  0  0
   65.4772   29.8759   51.9081 H   0  0  0  0  0  0  0  0  0  0  0  0
   63.9697   31.7531   52.5661 H   0  0  0  0  0  0  0  0  0  0  0  0
  1  2  1  0
  2  3  1  0
  3  4  2  0
  4  5  1  0
  5  6  2  0
  6  7  1  0
  7  8  1  0
  8  9  1  0
  9 10  2  0
  9 11  1  0
 11 12  1  0
 12 13  1  0
 13 14  1  0
 14 15  1  0
 15 16  1  0
 16 17  2  0
 17 18  1  0
 18 19  2  0
 19 20  1  0
 20 21  2  0
 14 22  1  0
 22 23  1  0
  6 24  1  0
 24 25  1  0
 25 26  1  0
 26 27  1  0
 27 28  2  0
 28 29  1  0
 29 30  2  0
 30 31  1  0
 30 32  1  0
 32 33  2  0
 33 34  1  0
 24 35  2  0
  2 36  1  0
 36 37  2  0
 36 38  2  0
 36 39  1  0
 39 40  2  0
 40 41  1  0
 41 42  2  0
 42 43  1  0
 43 44  2  0
 35  3  1  0
 44 39  1  0
 23 11  1  0
 33 27  1  0
 21 16  1  0
  1 45  1  0
  1 46  1  0
  1 47  1  0
  4 48  1  0
  5 49  1  0
  8 50  1  0
  8 51  1  0
 11 52  1  0
 12 53  1  0
 12 54  1  0
 13 55  1  0
 13 56  1  0
 15 57  1  0
 15 58  1  0
 17 59  1  0
 18 60  1  0
 19 61  1  0
 20 62  1  0
 21 63  1  0
 22 64  1  0
 22 65  1  0
 23 66  1  0
 23 67  1  0
 26 68  1  0
 26 69  1  0
 28 70  1  0
 29 71  1  0
 32 72  1  0
 35 73  1  0
 40 74  1  0
 41 75  1  0
 42 76  1  0
 43 77  1  0
 44 78  1  0
M  CHG  1  11   1
M  END
>  <UniqueID>  (45) 
45

>  <SMILES>  (45) 
CN(c1ccc(OCC(=O)[NH+]2CCN(Cc3ccccc3)CC2)c(OCc2ccc(Cl)cc2Cl)c1)S(=O)(=O)c1ccccc1

>  <Energy>  (45) 
100.06424030722987

>  <Genealogy>  (45) 
CN(c1ccc(OCC(=O)[NH+]2CCN(Cc3ccccc3)CC2)c(OCc2ccc(Cl)cc2Cl)c1)S(=O)(=O)c1ccccc1 (protonated)
CN(c1ccc(OCC(=O)[NH+]2CCN(Cc3ccccc3)CC2)c(OCc2ccc(Cl)cc2Cl)c1)S(=O)(=O)c1ccccc1 (3D coordinates assigned)
CN(c1ccc(OCC(=O)[NH+]2CCN(Cc3ccccc3)CC2)c(OCc2ccc(Cl)cc2Cl)c1)S(=O)(=O)c1ccccc1 (nonaromatic ring conformer: 100.06424030722987 kcal/mol)

>  <smiles>  (45) 
CN(c1ccc(OCC(=O)N2CCN(Cc3ccccc3)CC2)c(OCc2ccc(Cl)cc2Cl)c1)S(=O)(=O)c1ccccc1

>  <score_type>  (45) 
oracle

>  <origin>  (45) 
adg

>  <m_score__min__energy>  (45) 
-10

>  <m_primary>  (45) 
energy

$$$$
45:0
     RDKit          3D

 58 61  0  0  0  0  0  0  0  0999 V2000
   60.1010   29.7260   46.7420 C   0  0  0  0  0  0  0  0  0  0  0  0
   58.6800   29.7860   46.6800 O   0  0  0  0  0  0  0  0  0  0  0  0
   57.9970   29.9310   45.4680 C   0  0  0  0  0  0  0  0  0  0  0  0
   57.3820   28.8080   44.8640 C   0  0  0  0  0  0  0  0  0  0  0  0
   57.4830   27.4590   45.4690 C   0  0  0  0  0  0  0  0  0  0  0  0
   56.3400   26.8220   45.9840 C   0  0  0  0  0  0  0  0  0  0  0  0
   56.4380   25.5450   46.5440 C   0  0  0  0  0  0  0  0  0  0  0  0
   57.6730   24.8920   46.6040 C   0  0  0  0  0  0  0  0  0  0  0  0
   57.7520   23.6160   47.1570 O   0  0  0  0  0  0  0  0  0  0  0  0
   58.8180   25.5280   46.1060 C   0  0  0  0  0  0  0  0  0  0  0  0
   58.7250   26.8070   45.5450 C   0  0  0  0  0  0  0  0  0  0  0  0
   56.6930   28.9670   43.6540 C   0  0  0  0  0  0  0  0  0  0  0  0
   56.6420   30.2110   43.0300 C   0  0  0  0  0  0  0  0  0  0  0  0
   57.2710   31.3140   43.6070 C   0  0  0  0  0  0  0  0  0  0  0  0
   57.9370   31.1970   44.8400 C   0  0  0  0  0  0  0  0  0  0  0  0
   58.6090   32.4130   45.4680 C   0  0  0  0  0  0  0  0  0  0  0  0
   58.6830   33.5880   44.4720 C   0  0  0  0  0  0  0  0  0  0  0  0
   58.8970   34.9500   45.1720 C   0  0  0  0  0  0  0  0  0  0  0  0
   59.5090   34.8200   46.5110 N   0  0  0  0  0  0  0  0  0  0  0  0
   60.9290   34.3990   46.4670 C   0  0  0  0  0  0  0  0  0  0  0  0
   61.1020   33.1160   47.2800 C   0  0  0  0  0  0  0  0  0  0  0  0
   62.2350   33.2620   48.2650 C   0  0  0  0  0  0  0  0  0  0  0  0
   62.0560   34.0300   49.4290 C   0  0  0  0  0  0  0  0  0  0  0  0
   63.0870   34.1370   50.3670 C   0  0  0  0  0  0  0  0  0  0  0  0
   64.2970   33.4710   50.1580 C   0  0  0  0  0  0  0  0  0  0  0  0
   64.4760   32.6920   49.0150 C   0  0  0  0  0  0  0  0  0  0  0  0
   63.4480   32.5800   48.0720 C   0  0  0  0  0  0  0  0  0  0  0  0
   63.6370   31.8060   46.9750 F   0  0  0  0  0  0  0  0  0  0  0  0
   58.6720   34.0270   47.4470 C   0  0  0  0  0  0  0  0  0  0  0  0
   57.9270   32.8500   46.7760 C   0  0  0  0  0  0  0  0  0  0  0  0
   60.4219   29.7125   47.7941 H   0  0  0  0  0  0  0  0  0  0  0  0
   60.4517   28.8122   46.2399 H   0  0  0  0  0  0  0  0  0  0  0  0
   60.5274   30.6069   46.2399 H   0  0  0  0  0  0  0  0  0  0  0  0
   55.3653   27.3304   45.9460 H   0  0  0  0  0  0  0  0  0  0  0  0
   55.5384   25.0509   46.9398 H   0  0  0  0  0  0  0  0  0  0  0  0
   56.9280   23.1410   47.5120 H   0  0  0  0  0  0  0  0  0  0  0  0
   59.7927   25.0207   46.1561 H   0  0  0  0  0  0  0  0  0  0  0  0
   59.6285   27.3038   45.1619 H   0  0  0  0  0  0  0  0  0  0  0  0
   56.1894   28.1039   43.1943 H   0  0  0  0  0  0  0  0  0  0  0  0
   56.1032   30.3242   42.0777 H   0  0  0  0  0  0  0  0  0  0  0  0
   57.2459   32.2857   43.0921 H   0  0  0  0  0  0  0  0  0  0  0  0
   59.6348   32.1082   45.7227 H   0  0  0  0  0  0  0  0  0  0  0  0
   59.5207   33.4117   43.7812 H   0  0  0  0  0  0  0  0  0  0  0  0
   57.7210   33.6347   43.9406 H   0  0  0  0  0  0  0  0  0  0  0  0
   59.5557   35.5676   44.5438 H   0  0  0  0  0  0  0  0  0  0  0  0
   57.9072   35.4111   45.3054 H   0  0  0  0  0  0  0  0  0  0  0  0
   61.2255   34.2155   45.4237 H   0  0  0  0  0  0  0  0  0  0  0  0
   61.5615   35.1923   46.8921 H   0  0  0  0  0  0  0  0  0  0  0  0
   60.1713   32.9065   47.8276 H   0  0  0  0  0  0  0  0  0  0  0  0
   61.3330   32.2886   46.5930 H   0  0  0  0  0  0  0  0  0  0  0  0
   61.1014   34.5484   49.6022 H   0  0  0  0  0  0  0  0  0  0  0  0
   62.9452   34.7468   51.2714 H   0  0  0  0  0  0  0  0  0  0  0  0
   65.1087   33.5609   50.8949 H   0  0  0  0  0  0  0  0  0  0  0  0
   65.4277   32.1643   48.8543 H   0  0  0  0  0  0  0  0  0  0  0  0
   59.3232   33.6208   48.2350 H   0  0  0  0  0  0  0  0  0  0  0  0
   57.9038   34.7071   47.8436 H   0  0  0  0  0  0  0  0  0  0  0  0
   57.9098   31.9973   47.4706 H   0  0  0  0  0  0  0  0  0  0  0  0
   56.9072   33.1842   46.5346 H   0  0  0  0  0  0  0  0  0  0  0  0
  1  2  1  0
  2  3  1  0
  3  4  2  0
  4  5  1  0
  5  6  2  0
  6  7  1  0
  7  8  2  0
  8  9  1  0
  8 10  1  0
 10 11  2  0
  4 12  1  0
 12 13  2  0
 13 14  1  0
 14 15  2  0
 15 16  1  0
 16 17  1  0
 17 18  1  0
 18 19  1  0
 19 20  1  0
 20 21  1  0
 21 22  1  0
 22 23  2  0
 23 24  1  0
 24 25  2  0
 25 26  1  0
 26 27  2  0
 27 28  1  0
 19 29  1  0
 29 30  1  0
 15  3  1  0
 30 16  1  0
 11  5  1  0
 27 22  1  0
  1 31  1  0
  1 32  1  0
  1 33  1  0
  6 34  1  0
  7 35  1  0
  9 36  1  0
 10 37  1  0
 11 38  1  0
 12 39  1  0
 13 40  1  0
 14 41  1  0
 16 42  1  0
 17 43  1  0
 17 44  1  0
 18 45  1  0
 18 46  1  0
 20 47  1  0
 20 48  1  0
 21 49  1  0
 21 50  1  0
 23 51  1  0
 24 52  1  0
 25 53  1  0
 26 54  1  0
 29 55  1  0
 29 56  1  0
 30 57  1  0
 30 58  1  0
M  END
>  <UniqueID>  (46) 
46

>  <SMILES>  (46) 
COc1c(-c2ccc(O)cc2)cccc1C1CCN(CCc2ccccc2F)CC1

>  <Energy>  (46) 
83.8953637195197

>  <Genealogy>  (46) 
COc1c(-c2ccc(O)cc2)cccc1C1CCN(CCc2ccccc2F)CC1 (3D coordinates assigned)
COc1c(-c2ccc(O)cc2)cccc1C1CCN(CCc2ccccc2F)CC1 (nonaromatic ring conformer: 83.8953637195197 kcal/mol)

>  <smiles>  (46) 
COc1c(-c2ccc(O)cc2)cccc1C1CCN(CCc2ccccc2F)CC1

>  <score_type>  (46) 
oracle

>  <origin>  (46) 
adg

>  <m_score__min__energy>  (46) 
-8.7899999999999991

>  <m_primary>  (46) 
energy

$$$$
46:0
     RDKit          3D

 47 49  0  0  0  0  0  0  0  0999 V2000
   55.4880   30.7640   44.3750 O   0  0  0  0  0  0  0  0  0  0  0  0
   56.1270   29.7920   44.8530 C   0  0  0  0  0  0  0  0  0  0  0  0
   55.5240   28.5430   44.9310 O   0  0  0  0  0  0  0  0  0  0  0  0
   57.5000   29.9950   45.4080 C   0  0  0  0  0  0  0  0  0  0  0  0
   57.8990   31.4350   45.2580 C   0  0  0  0  0  0  0  0  0  0  0  0
   58.0080   32.0160   43.9850 C   0  0  0  0  0  0  0  0  0  0  0  0
   58.4380   33.3360   43.8490 C   0  0  0  0  0  0  0  0  0  0  0  0
   58.7830   34.0830   44.9770 C   0  0  0  0  0  0  0  0  0  0  0  0
   58.6960   33.5120   46.2550 C   0  0  0  0  0  0  0  0  0  0  0  0
   59.1070   34.2970   47.4730 C   0  0  0  0  0  0  0  0  0  0  0  0
   60.5990   34.2950   47.6070 C   0  0  0  0  0  0  0  0  0  0  0  0
   61.3220   34.2820   46.5720 O   0  0  0  0  0  0  0  0  0  0  0  0
   61.1910   34.2970   48.9090 N   0  0  0  0  0  0  0  0  0  0  0  0
   60.5980   33.3320   50.2190 S   0  0  0  0  0  0  0  0  0  0  0  0
   59.2740   33.8770   50.6720 O   0  0  0  0  0  0  0  0  0  0  0  0
   61.5560   33.4000   51.3760 O   0  0  0  0  0  0  0  0  0  0  0  0
   60.3870   31.6690   49.6800 C   0  0  0  0  0  0  0  0  0  0  0  0
   59.6880   30.7640   50.4890 C   0  0  0  0  0  0  0  0  0  0  0  0
   59.5600   29.4280   50.1010 C   0  0  0  0  0  0  0  0  0  0  0  0
   60.1400   28.9770   48.9040 C   0  0  0  0  0  0  0  0  0  0  0  0
   60.0630   27.5260   48.5210 C   0  0  0  0  0  0  0  0  0  0  0  0
   59.2160   27.3400   47.3020 C   0  0  0  0  0  0  0  0  0  0  0  0
   57.9340   26.9080   47.4070 N   0  0  0  0  0  0  0  0  0  0  0  0
   57.0760   26.6820   46.3650 C   0  0  0  0  0  0  0  0  0  0  0  0
   55.9120   26.2810   46.6320 O   0  0  0  0  0  0  0  0  0  0  0  0
   57.4180   26.8700   45.0490 N   0  0  0  0  0  0  0  0  0  0  0  0
   58.6300   27.3140   44.6230 C   0  0  0  0  0  0  0  0  0  0  0  0
   58.8640   27.4660   43.3950 O   0  0  0  0  0  0  0  0  0  0  0  0
   59.8200   27.6540   45.7630 S   0  0  0  0  0  0  0  0  0  0  0  0
   60.7990   29.8970   48.0720 C   0  0  0  0  0  0  0  0  0  0  0  0
   60.9250   31.2350   48.4610 C   0  0  0  0  0  0  0  0  0  0  0  0
   58.2460   32.1870   46.3900 C   0  0  0  0  0  0  0  0  0  0  0  0
   57.5075   29.7226   46.4737 H   0  0  0  0  0  0  0  0  0  0  0  0
   58.2120   29.3608   44.8595 H   0  0  0  0  0  0  0  0  0  0  0  0
   57.7533   31.4280   43.0909 H   0  0  0  0  0  0  0  0  0  0  0  0
   58.5055   33.7901   42.8494 H   0  0  0  0  0  0  0  0  0  0  0  0
   59.1241   35.1225   44.8630 H   0  0  0  0  0  0  0  0  0  0  0  0
   58.7519   35.3335   47.3748 H   0  0  0  0  0  0  0  0  0  0  0  0
   58.6645   33.8330   48.3668 H   0  0  0  0  0  0  0  0  0  0  0  0
   59.2384   31.1063   51.4328 H   0  0  0  0  0  0  0  0  0  0  0  0
   59.0016   28.7251   50.7368 H   0  0  0  0  0  0  0  0  0  0  0  0
   61.0773   27.1535   48.3151 H   0  0  0  0  0  0  0  0  0  0  0  0
   59.6098   26.9665   49.3526 H   0  0  0  0  0  0  0  0  0  0  0  0
   56.6940   26.6670   44.3230 H   0  0  0  0  0  0  0  0  0  0  0  0
   61.2177   29.5642   47.1108 H   0  0  0  0  0  0  0  0  0  0  0  0
   61.4482   31.9488   47.8077 H   0  0  0  0  0  0  0  0  0  0  0  0
   58.1655   31.7368   47.3904 H   0  0  0  0  0  0  0  0  0  0  0  0
  1  2  2  0
  2  3  1  0
  2  4  1  0
  4  5  1  0
  5  6  2  0
  6  7  1  0
  7  8  2  0
  8  9  1  0
  9 10  1  0
 10 11  1  0
 11 12  2  0
 11 13  1  0
 13 14  1  0
 14 15  2  0
 14 16  2  0
 14 17  1  0
 17 18  2  0
 18 19  1  0
 19 20  2  0
 20 21  1  0
 21 22  1  0
 22 23  2  0
 23 24  1  0
 24 25  2  0
 24 26  1  0
 26 27  1  0
 27 28  2  0
 27 29  1  0
 20 30  1  0
 30 31  2  0
  9 32  2  0
 32  5  1  0
 31 17  1  0
 29 22  1  0
  4 33  1  0
  4 34  1  0
  6 35  1  0
  7 36  1  0
  8 37  1  0
 10 38  1  0
 10 39  1  0
 18 40  1  0
 19 41  1  0
 21 42  1  0
 21 43  1  0
 26 44  1  0
 30 45  1  0
 31 46  1  0
 32 47  1  0
M  CHG  2   3  -1  13  -1
M  END
>  <UniqueID>  (47) 
47

>  <SMILES>  (47) 
O=C([O-])Cc1cccc(CC(=O)[N-]S(=O)(=O)c2ccc(Cc3nc(=O)[nH]c(=O)s3)cc2)c1

>  <Energy>  (47) 
49.34555065740832

>  <Genealogy>  (47) 
O=C([O-])Cc1cccc(CC(=O)[N-]S(=O)(=O)c2ccc(Cc3nc(=O)[nH]c(=O)s3)cc2)c1 (protonated)
O=C([O-])Cc1cccc(CC(=O)[N-]S(=O)(=O)c2ccc(Cc3nc(=O)[nH]c(=O)s3)cc2)c1 (3D coordinates assigned)
O=C([O-])Cc1cccc(CC(=O)[N-]S(=O)(=O)c2ccc(Cc3nc(=O)[nH]c(=O)s3)cc2)c1 (optimized conformer: 49.34555065740832 kcal/mol)

>  <smiles>  (47) 
O=C(O)Cc1cccc(CC(=O)NS(=O)(=O)c2ccc(Cc3nc(=O)[nH]c(=O)s3)cc2)c1

>  <score_type>  (47) 
oracle

>  <origin>  (47) 
adg

>  <m_score__min__energy>  (47) 
-14.859999999999999

>  <m_primary>  (47) 
energy

$$$$
47:0
     RDKit          3D

 70 73  0  0  0  0  0  0  0  0999 V2000
   56.9090   30.9660   51.9450 C   0  0  0  0  0  0  0  0  0  0  0  0
   57.5010   32.3250   51.5750 C   0  0  0  0  0  0  0  0  0  0  0  0
   58.9360   32.4960   52.0950 C   0  0  0  0  0  0  0  0  0  0  0  0
   59.9300   32.0110   51.1300 N   0  0  0  0  0  0  0  0  0  0  0  0
   61.2390   32.6030   50.9910 C   0  0  0  0  0  0  0  0  0  0  0  0
   61.7330   33.5070   51.9520 C   0  0  0  0  0  0  0  0  0  0  0  0
   63.0100   34.0600   51.8190 C   0  0  0  0  0  0  0  0  0  0  0  0
   63.8130   33.7130   50.7350 C   0  0  0  0  0  0  0  0  0  0  0  0
   63.3430   32.8170   49.7740 C   0  0  0  0  0  0  0  0  0  0  0  0
   62.0610   32.2570   49.8940 C   0  0  0  0  0  0  0  0  0  0  0  0
   61.5860   31.3420   48.9040 N   0  0  0  0  0  0  0  0  0  0  0  0
   61.5880   31.7230   47.2140 S   0  0  0  0  0  0  0  0  0  0  0  0
   61.8900   30.4960   46.3940 O   0  0  0  0  0  0  0  0  0  0  0  0
   62.6480   32.7510   46.9350 O   0  0  0  0  0  0  0  0  0  0  0  0
   60.0030   32.3640   46.7950 C   0  0  0  0  0  0  0  0  0  0  0  0
   59.4690   33.4490   47.5030 C   0  0  0  0  0  0  0  0  0  0  0  0
   58.2410   33.9990   47.1220 C   0  0  0  0  0  0  0  0  0  0  0  0
   57.5430   33.4690   46.0330 C   0  0  0  0  0  0  0  0  0  0  0  0
   58.0740   32.3830   45.3170 C   0  0  0  0  0  0  0  0  0  0  0  0
   57.3550   31.8320   44.1570 C   0  0  0  0  0  0  0  0  0  0  0  0
   56.1610   31.2190   44.2200 C   0  0  0  0  0  0  0  0  0  0  0  0
   55.9240   29.7700   44.0400 C   0  0  0  0  0  0  0  0  0  0  0  0
   56.0160   29.2860   42.8790 O   0  0  0  0  0  0  0  0  0  0  0  0
   55.7260   28.9120   45.1690 N   0  0  0  0  0  0  0  0  0  0  0  0
   56.5260   27.8080   45.6180 C   0  0  0  0  0  0  0  0  0  0  0  0
   57.8950   28.0370   45.8070 C   0  0  0  0  0  0  0  0  0  0  0  0
   58.7330   27.0220   46.2880 C   0  0  0  0  0  0  0  0  0  0  0  0
   60.4410   27.3520   46.6030 S   0  0  0  0  0  0  0  0  0  0  0  0
   61.1500   26.0610   46.9050 O   0  0  0  0  0  0  0  0  0  0  0  0
   61.0660   27.9540   45.3720 O   0  0  0  0  0  0  0  0  0  0  0  0
   60.6430   28.4620   47.9440 N   0  0  0  0  0  0  0  0  0  0  0  0
   59.6010   29.5110   47.9400 C   0  0  0  0  0  0  0  0  0  0  0  0
   58.5080   29.2390   48.9920 C   0  0  0  0  0  0  0  0  0  0  0  0
   59.0080   29.1510   50.3180 O   0  0  0  0  0  0  0  0  0  0  0  0
   60.3290   28.6290   50.4030 C   0  0  0  0  0  0  0  0  0  0  0  0
   60.7150   27.7220   49.2220 C   0  0  0  0  0  0  0  0  0  0  0  0
   58.1970   25.7550   46.5590 C   0  0  0  0  0  0  0  0  0  0  0  0
   56.8270   25.5260   46.4070 C   0  0  0  0  0  0  0  0  0  0  0  0
   55.9810   26.5530   45.9740 C   0  0  0  0  0  0  0  0  0  0  0  0
   54.6110   26.3230   45.9510 O   0  0  0  0  0  0  0  0  0  0  0  0
   59.3110   31.8440   45.6930 C   0  0  0  0  0  0  0  0  0  0  0  0
   56.8672   30.8701   53.0400 H   0  0  0  0  0  0  0  0  0  0  0  0
   55.8934   30.8834   51.5307 H   0  0  0  0  0  0  0  0  0  0  0  0
   57.5402   30.1660   51.5307 H   0  0  0  0  0  0  0  0  0  0  0  0
   57.5078   32.4215   50.4793 H   0  0  0  0  0  0  0  0  0  0  0  0
   56.8785   33.1021   52.0425 H   0  0  0  0  0  0  0  0  0  0  0  0
   59.1193   33.5633   52.2881 H   0  0  0  0  0  0  0  0  0  0  0  0
   59.0376   31.9028   53.0158 H   0  0  0  0  0  0  0  0  0  0  0  0
   59.6950   31.1760   50.5470 H   0  0  0  0  0  0  0  0  0  0  0  0
   61.1081   33.7802   52.8150 H   0  0  0  0  0  0  0  0  0  0  0  0
   63.3815   34.7707   52.5720 H   0  0  0  0  0  0  0  0  0  0  0  0
   64.8194   34.1460   50.6363 H   0  0  0  0  0  0  0  0  0  0  0  0
   63.9799   32.5481   48.9184 H   0  0  0  0  0  0  0  0  0  0  0  0
   60.0166   33.8687   48.3597 H   0  0  0  0  0  0  0  0  0  0  0  0
   57.8237   34.8501   47.6802 H   0  0  0  0  0  0  0  0  0  0  0  0
   56.5767   33.9028   45.7362 H   0  0  0  0  0  0  0  0  0  0  0  0
   57.8285   31.9289   43.1688 H   0  0  0  0  0  0  0  0  0  0  0  0
   55.2830   31.8498   44.4232 H   0  0  0  0  0  0  0  0  0  0  0  0
   58.3175   29.0258   45.5750 H   0  0  0  0  0  0  0  0  0  0  0  0
   60.0718   30.4808   48.1588 H   0  0  0  0  0  0  0  0  0  0  0  0
   59.1258   29.5159   46.9479 H   0  0  0  0  0  0  0  0  0  0  0  0
   57.7734   30.0567   48.9504 H   0  0  0  0  0  0  0  0  0  0  0  0
   58.0607   28.2638   48.7493 H   0  0  0  0  0  0  0  0  0  0  0  0
   61.0339   29.4728   50.4372 H   0  0  0  0  0  0  0  0  0  0  0  0
   60.3708   28.0087   51.3105 H   0  0  0  0  0  0  0  0  0  0  0  0
   61.7419   27.3563   49.3692 H   0  0  0  0  0  0  0  0  0  0  0  0
   60.0096   26.8790   49.1806 H   0  0  0  0  0  0  0  0  0  0  0  0
   58.8562   24.9398   46.8919 H   0  0  0  0  0  0  0  0  0  0  0  0
   56.4110   24.5322   46.6291 H   0  0  0  0  0  0  0  0  0  0  0  0
   59.7411   31.0088   45.1207 H   0  0  0  0  0  0  0  0  0  0  0  0
  1  2  1  0
  2  3  1  0
  3  4  1  0
  4  5  1  0
  5  6  2  0
  6  7  1  0
  7  8  2  0
  8  9  1  0
  9 10  2  0
 10 11  1  0
 11 12  1  0
 12 13  2  0
 12 14  2  0
 12 15  1  0
 15 16  2  0
 16 17  1  0
 17 18  2  0
 18 19  1  0
 19 20  1  0
 20 21  2  3
 21 22  1  0
 22 23  2  0
 22 24  1  0
 24 25  1  0
 25 26  2  0
 26 27  1  0
 27 28  1  0
 28 29  2  0
 28 30  2  0
 28 31  1  0
 31 32  1  0
 32 33  1  0
 33 34  1  0
 34 35  1  0
 35 36  1  0
 27 37  2  0
 37 38  1  0
 38 39  2  0
 39 40  1  0
 19 41  2  0
 10  5  1  0
 41 15  1  0
 39 25  1  0
 36 31  1  0
  1 42  1  0
  1 43  1  0
  1 44  1  0
  2 45  1  0
  2 46  1  0
  3 47  1  0
  3 48  1  0
  4 49  1  0
  6 50  1  0
  7 51  1  0
  8 52  1  0
  9 53  1  0
 16 54  1  0
 17 55  1  0
 18 56  1  0
 20 57  1  0
 21 58  1  0
 26 59  1  0
 32 60  1  0
 32 61  1  0
 33 62  1  0
 33 63  1  0
 35 64  1  0
 35 65  1  0
 36 66  1  0
 36 67  1  0
 37 68  1  0
 38 69  1  0
 41 70  1  0
M  CHG  3  11  -1  24  -1  40  -1
M  END
>  <UniqueID>  (48) 
48

>  <SMILES>  (48) 
CCCNc1ccccc1[N-]S(=O)(=O)c1cccc(C=CC(=O)[N-]c2cc(S(=O)(=O)N3CCOCC3)ccc2[O-])c1

>  <Energy>  (48) 
98.79122168401824

>  <Genealogy>  (48) 
CCCNc1ccccc1[N-]S(=O)(=O)c1cccc(C=CC(=O)[N-]c2cc(S(=O)(=O)N3CCOCC3)ccc2[O-])c1 (protonated)
CCCNc1ccccc1[N-]S(=O)(=O)c1cccc(C=CC(=O)[N-]c2cc(S(=O)(=O)N3CCOCC3)ccc2[O-])c1 (3D coordinates assigned)
CCCNc1ccccc1[N-]S(=O)(=O)c1cccc(C=CC(=O)[N-]c2cc(S(=O)(=O)N3CCOCC3)ccc2[O-])c1 (nonaromatic ring conformer: 98.79122168401824 kcal/mol)

>  <smiles>  (48) 
CCCNc1ccccc1NS(=O)(=O)c1cccc(C=CC(=O)Nc2cc(S(=O)(=O)N3CCOCC3)ccc2O)c1

>  <score_type>  (48) 
oracle

>  <origin>  (48) 
adg

>  <m_score__min__energy>  (48) 
-16.780000000000001

>  <m_primary>  (48) 
energy

$$$$
48:0
     RDKit          3D

 52 56  0  0  0  0  0  0  0  0999 V2000
   54.2240   26.3020   46.3730 H   0  0  0  0  0  0  0  0  0  0  0  0
   55.1230   26.6910   46.1180 O   0  0  0  0  0  0  0  0  0  0  0  0
   56.2750   25.9120   46.0260 C   0  0  0  0  0  0  0  0  0  0  0  0
   57.5550   26.4760   46.2350 C   0  0  0  0  0  0  0  0  0  0  0  0
   57.6820   27.8050   46.4950 N   0  0  0  0  0  0  0  0  0  0  0  0
   58.8880   28.3990   46.7080 C   0  0  0  0  0  0  0  0  0  0  0  0
   58.9730   29.8460   46.9990 C   0  0  0  0  0  0  0  0  0  0  0  0
   59.0853   30.1717   48.0437 H   0  0  0  0  0  0  0  0  0  0  0  0
   58.9180   30.7750   46.0340 C   0  0  0  0  0  0  0  0  0  0  0  0
   59.5665   31.6583   46.1297 H   0  0  0  0  0  0  0  0  0  0  0  0
   58.0350   30.6840   44.8440 C   0  0  0  0  0  0  0  0  0  0  0  0
   56.9140   29.8360   44.9030 C   0  0  0  0  0  0  0  0  0  0  0  0
   56.7191   29.2538   45.8157 H   0  0  0  0  0  0  0  0  0  0  0  0
   56.0460   29.7260   43.8140 C   0  0  0  0  0  0  0  0  0  0  0  0
   55.1767   29.0544   43.8710 H   0  0  0  0  0  0  0  0  0  0  0  0
   56.2790   30.4660   42.6540 C   0  0  0  0  0  0  0  0  0  0  0  0
   55.5973   30.3742   41.7956 H   0  0  0  0  0  0  0  0  0  0  0  0
   57.3790   31.3230   42.5850 C   0  0  0  0  0  0  0  0  0  0  0  0
   57.5599   31.9100   41.6725 H   0  0  0  0  0  0  0  0  0  0  0  0
   58.2520   31.4380   43.6720 C   0  0  0  0  0  0  0  0  0  0  0  0
   59.1127   32.1204   43.6123 H   0  0  0  0  0  0  0  0  0  0  0  0
   60.0550   27.6270   46.6570 C   0  0  0  0  0  0  0  0  0  0  0  0
   61.0355   28.0982   46.8200 H   0  0  0  0  0  0  0  0  0  0  0  0
   59.9710   26.2590   46.3990 C   0  0  0  0  0  0  0  0  0  0  0  0
   60.8863   25.6500   46.3640 H   0  0  0  0  0  0  0  0  0  0  0  0
   58.7220   25.6580   46.1840 C   0  0  0  0  0  0  0  0  0  0  0  0
   58.6030   24.2740   45.9360 C   0  0  0  0  0  0  0  0  0  0  0  0
   59.7200   23.4430   45.9000 O   0  0  0  0  0  0  0  0  0  0  0  0
   57.3280   23.7510   45.7290 C   0  0  0  0  0  0  0  0  0  0  0  0
   56.1990   24.5380   45.7500 C   0  0  0  0  0  0  0  0  0  0  0  0
   55.1250   23.6830   45.5040 C   0  0  0  0  0  0  0  0  0  0  0  0
   53.6920   23.9910   45.3490 C   0  0  0  0  0  0  0  0  0  0  0  0
   53.2640   25.1620   45.5310 O   0  0  0  0  0  0  0  0  0  0  0  0
   52.7900   22.9550   44.9490 N   0  0  0  0  0  0  0  0  0  0  0  0
   51.9910   22.1750   45.8880 C   0  0  0  0  0  0  0  0  0  0  0  0
   51.2449   22.8310   46.3603 H   0  0  0  0  0  0  0  0  0  0  0  0
   51.4900   21.3634   45.3399 H   0  0  0  0  0  0  0  0  0  0  0  0
   52.8680   21.5730   46.9550 C   0  0  0  0  0  0  0  0  0  0  0  0
   53.0600   22.2640   48.1640 C   0  0  0  0  0  0  0  0  0  0  0  0
   52.5789   23.2412   48.3177 H   0  0  0  0  0  0  0  0  0  0  0  0
   53.8580   21.7170   49.1710 C   0  0  0  0  0  0  0  0  0  0  0  0
   54.0066   22.2655   50.1128 H   0  0  0  0  0  0  0  0  0  0  0  0
   54.4680   20.4740   48.9840 C   0  0  0  0  0  0  0  0  0  0  0  0
   55.2410   19.9430   49.9640 F   0  0  0  0  0  0  0  0  0  0  0  0
   54.2830   19.7780   47.7860 C   0  0  0  0  0  0  0  0  0  0  0  0
   54.7634   18.7992   47.6409 H   0  0  0  0  0  0  0  0  0  0  0  0
   53.4890   20.3220   46.7710 C   0  0  0  0  0  0  0  0  0  0  0  0
   53.3280   19.6280   45.6160 F   0  0  0  0  0  0  0  0  0  0  0  0
   55.6780   22.4130   45.3690 C   0  0  0  0  0  0  0  0  0  0  0  0
   55.1008   21.4959   45.1800 H   0  0  0  0  0  0  0  0  0  0  0  0
   57.0200   22.4620   45.5020 N   0  0  0  0  0  0  0  0  0  0  0  0
   57.6800   21.6550   45.4400 H   0  0  0  0  0  0  0  0  0  0  0  0
  1  2  1  0
  2  3  1  0
  3  4  2  0
  4  5  1  0
  5  6  2  0
  6  7  1  0
  7  8  1  0
  7  9  2  0
  9 10  1  0
  9 11  1  0
 11 12  2  0
 12 13  1  0
 12 14  1  0
 14 15  1  0
 14 16  2  0
 16 17  1  0
 16 18  1  0
 18 19  1  0
 18 20  2  0
 20 21  1  0
  6 22  1  0
 22 23  1  0
 22 24  2  0
 24 25  1  0
 24 26  1  0
 26 27  2  0
 27 28  1  0
 27 29  1  0
 29 30  2  0
 30 31  1  0
 31 32  1  0
 32 33  2  0
 32 34  1  0
 34 35  1  0
 35 36  1  0
 35 37  1  0
 35 38  1  0
 38 39  2  0
 39 40  1  0
 39 41  1  0
 41 42  1  0
 41 43  2  0
 43 44  1  0
 43 45  1  0
 45 46  1  0
 45 47  2  0
 47 48  1  0
 31 49  2  0
 49 50  1  0
 49 51  1  0
 51 52  1  0
 30  3  1  0
 47 38  1  0
 26  4  1  0
 51 29  1  0
 20 11  1  0
M  CHG  2  28  -1  34  -1
M  END
>  <UniqueID>  (49) 
49

>  <SMILES>  (49) 
O=C([N-]Cc1ccc(F)cc1F)c1c[nH]c2c([O-])c3ccc(/C=C/c4ccccc4)nc3c(O)c12

>  <Energy>  (49) 
99.32597764972576

>  <Genealogy>  (49) 
O=C([N-]Cc1ccc(F)cc1F)c1c[nH]c2c([O-])c3ccc(C=Cc4ccccc4)nc3c(O)c12 (protonated)
O=C([N-]Cc1ccc(F)cc1F)c1c[nH]c2c([O-])c3ccc(/C=C/c4ccccc4)nc3c(O)c12 (cis-trans isomerization)
O=C([N-]Cc1ccc(F)cc1F)c1c[nH]c2c([O-])c3ccc(/C=C/c4ccccc4)nc3c(O)c12 (3D coordinates assigned)
O=C([N-]Cc1ccc(F)cc1F)c1c[nH]c2c([O-])c3ccc(/C=C/c4ccccc4)nc3c(O)c12 (optimized conformer: 99.32597764972576 kcal/mol)

>  <smiles>  (49) 
O=C(NCc1ccc(F)cc1F)c1c[nH]c2c(O)c3ccc(C=Cc4ccccc4)nc3c(O)c12

>  <score_type>  (49) 
oracle

>  <origin>  (49) 
adg

>  <m_score__min__energy>  (49) 
-12.789999999999999

>  <m_primary>  (49) 
energy

$$$$
49:0
     RDKit          3D

 30 32  0  0  0  0  0  0  0  0999 V2000
   56.0700   21.4710   42.6170 N   0  0  0  0  0  0  0  0  0  0  0  0
   56.8210   22.0980   43.6570 C   0  0  0  0  0  0  0  0  0  0  0  0
   57.9350   21.6090   43.9890 O   0  0  0  0  0  0  0  0  0  0  0  0
   56.3000   23.3050   44.3400 C   0  0  0  0  0  0  0  0  0  0  0  0
   55.0090   23.3110   44.8930 C   0  0  0  0  0  0  0  0  0  0  0  0
   54.5210   24.4470   45.5380 C   0  0  0  0  0  0  0  0  0  0  0  0
   55.3080   25.5960   45.6410 C   0  0  0  0  0  0  0  0  0  0  0  0
   54.7810   26.7100   46.2860 O   0  0  0  0  0  0  0  0  0  0  0  0
   56.6080   25.6200   45.0920 C   0  0  0  0  0  0  0  0  0  0  0  0
   57.4560   26.8370   45.2010 C   0  0  0  0  0  0  0  0  0  0  0  0
   58.5420   27.1700   44.4040 C   0  0  0  0  0  0  0  0  0  0  0  0
   59.0010   28.3820   44.8710 C   0  0  0  0  0  0  0  0  0  0  0  0
   58.1800   28.7120   45.9320 C   0  0  0  0  0  0  0  0  0  0  0  0
   58.2230   29.9460   46.7350 C   0  0  0  0  0  0  0  0  0  0  0  0
   58.2490   31.1940   46.2450 C   0  0  0  0  0  0  0  0  0  0  0  0
   59.4750   32.3790   46.8100 S   0  0  0  0  0  0  0  0  0  0  0  0
   58.6250   33.6170   45.8280 C   0  0  0  0  0  0  0  0  0  0  0  0
   58.9400   34.8350   45.8700 O   0  0  0  0  0  0  0  0  0  0  0  0
   57.5660   33.1540   45.0030 N   0  0  0  0  0  0  0  0  0  0  0  0
   57.3720   31.7680   45.2160 C   0  0  0  0  0  0  0  0  0  0  0  0
   56.5690   31.1030   44.5120 O   0  0  0  0  0  0  0  0  0  0  0  0
   57.2660   27.7840   46.0940 O   0  0  0  0  0  0  0  0  0  0  0  0
   57.0920   24.4640   44.4460 C   0  0  0  0  0  0  0  0  0  0  0  0
   55.8860   21.9650   41.7160 H   0  0  0  0  0  0  0  0  0  0  0  0
   54.3782   22.4131   44.8168 H   0  0  0  0  0  0  0  0  0  0  0  0
   53.5089   24.4380   45.9687 H   0  0  0  0  0  0  0  0  0  0  0  0
   58.9532   26.5846   43.5684 H   0  0  0  0  0  0  0  0  0  0  0  0
   59.8468   28.9665   44.4798 H   0  0  0  0  0  0  0  0  0  0  0  0
   58.2348   29.8344   47.8293 H   0  0  0  0  0  0  0  0  0  0  0  0
   58.1052   24.4678   44.0178 H   0  0  0  0  0  0  0  0  0  0  0  0
  1  2  1  0
  2  3  2  0
  2  4  1  0
  4  5  2  0
  5  6  1  0
  6  7  2  0
  7  8  1  0
  7  9  1  0
  9 10  1  0
 10 11  2  0
 11 12  1  0
 12 13  2  0
 13 14  1  0
 14 15  2  3
 15 16  1  0
 16 17  1  0
 17 18  2  0
 17 19  1  0
 19 20  1  0
 20 21  2  0
 13 22  1  0
  9 23  2  0
 23  4  1  0
 22 10  1  0
 20 15  1  0
  1 24  1  0
  5 25  1  0
  6 26  1  0
 11 27  1  0
 12 28  1  0
 14 29  1  0
 23 30  1  0
M  CHG  3   1  -1   8  -1  19  -1
M  END
>  <UniqueID>  (50) 
50

>  <SMILES>  (50) 
[NH-]C(=O)c1ccc([O-])c(-c2ccc(C=C3SC(=O)[N-]C3=O)o2)c1

>  <Energy>  (50) 
87.48652682214099

>  <Genealogy>  (50) 
[NH-]C(=O)c1ccc([O-])c(-c2ccc(C=C3SC(=O)[N-]C3=O)o2)c1 (protonated)
[NH-]C(=O)c1ccc([O-])c(-c2ccc(C=C3SC(=O)[N-]C3=O)o2)c1 (3D coordinates assigned)
[NH-]C(=O)c1ccc([O-])c(-c2ccc(C=C3SC(=O)[N-]C3=O)o2)c1 (nonaromatic ring conformer: 87.48652682214099 kcal/mol)

>  <smiles>  (50) 
NC(=O)c1ccc(O)c(-c2ccc(C=C3SC(=O)NC3=O)o2)c1

>  <score_type>  (50) 
oracle

>  <origin>  (50) 
adg

>  <m_score__min__energy>  (50) 
-13.800000000000001

>  <m_primary>  (50) 
energy

$$$$
50:0
     RDKit          3D

 52 55  0  0  0  0  0  0  0  0999 V2000
   56.6200   29.1430   46.2550 H   0  0  0  0  0  0  0  0  0  0  0  0
   56.3600   28.4130   45.6040 O   0  0  0  0  0  0  0  0  0  0  0  0
   56.2690   27.0780   45.9930 C   0  0  0  0  0  0  0  0  0  0  0  0
   55.1670   26.3340   45.8050 N   0  0  0  0  0  0  0  0  0  0  0  0
   55.5210   25.1400   46.3220 C   0  0  0  0  0  0  0  0  0  0  0  0
   54.7430   24.1490   46.3390 O   0  0  0  0  0  0  0  0  0  0  0  0
   56.7730   25.0890   46.8240 N   0  0  0  0  0  0  0  0  0  0  0  0
   57.2540   26.3260   46.6020 C   0  0  0  0  0  0  0  0  0  0  0  0
   58.5820   26.8130   47.0380 C   0  0  0  0  0  0  0  0  0  0  0  0
   59.3728   26.0641   47.1920 H   0  0  0  0  0  0  0  0  0  0  0  0
   58.8960   28.1070   47.2610 C   0  0  0  0  0  0  0  0  0  0  0  0
   58.5370   28.8700   48.3650 C   0  0  0  0  0  0  0  0  0  0  0  0
   57.9195   28.5455   49.2155 H   0  0  0  0  0  0  0  0  0  0  0  0
   59.1050   30.1120   48.1870 C   0  0  0  0  0  0  0  0  0  0  0  0
   58.9920   31.2070   49.1630 C   0  0  0  0  0  0  0  0  0  0  0  0
   58.3570   32.2470   48.8490 O   0  0  0  0  0  0  0  0  0  0  0  0
   59.5600   31.1000   50.4720 N   0  0  0  0  0  0  0  0  0  0  0  0
   60.8600   31.6520   50.8350 C   0  0  0  0  0  0  0  0  0  0  0  0
   60.9149   31.7713   51.9271 H   0  0  0  0  0  0  0  0  0  0  0  0
   61.6535   30.9686   50.4985 H   0  0  0  0  0  0  0  0  0  0  0  0
   61.0450   33.0110   50.1660 C   0  0  0  0  0  0  0  0  0  0  0  0
   60.0706   33.3722   49.8054 H   0  0  0  0  0  0  0  0  0  0  0  0
   61.4629   33.7146   50.9011 H   0  0  0  0  0  0  0  0  0  0  0  0
   61.9940   32.9030   49.0030 C   0  0  0  0  0  0  0  0  0  0  0  0
   62.7050   31.7160   48.7740 C   0  0  0  0  0  0  0  0  0  0  0  0
   62.5956   30.8635   49.4605 H   0  0  0  0  0  0  0  0  0  0  0  0
   63.5530   31.6240   47.6680 C   0  0  0  0  0  0  0  0  0  0  0  0
   64.1190   30.6986   47.4855 H   0  0  0  0  0  0  0  0  0  0  0  0
   63.6800   32.6760   46.8170 N   0  0  0  0  0  0  0  0  0  0  0  0
   62.9940   33.8340   47.0060 C   0  0  0  0  0  0  0  0  0  0  0  0
   63.1151   34.6664   46.2972 H   0  0  0  0  0  0  0  0  0  0  0  0
   62.1350   33.9680   48.1000 C   0  0  0  0  0  0  0  0  0  0  0  0
   61.5734   34.9015   48.2523 H   0  0  0  0  0  0  0  0  0  0  0  0
   59.7950   30.1700   47.0240 N   0  0  0  0  0  0  0  0  0  0  0  0
   60.3900   31.3880   46.4470 C   0  0  0  0  0  0  0  0  0  0  0  0
   61.0130   31.8821   47.2071 H   0  0  0  0  0  0  0  0  0  0  0  0
   61.0041   31.1079   45.5784 H   0  0  0  0  0  0  0  0  0  0  0  0
   59.3100   32.3380   45.9960 C   0  0  0  0  0  0  0  0  0  0  0  0
   58.0550   31.8530   45.5930 C   0  0  0  0  0  0  0  0  0  0  0  0
   57.8656   30.7695   45.5790 H   0  0  0  0  0  0  0  0  0  0  0  0
   57.0440   32.7420   45.2090 C   0  0  0  0  0  0  0  0  0  0  0  0
   56.0635   32.3562   44.8930 H   0  0  0  0  0  0  0  0  0  0  0  0
   57.2800   34.1200   45.2270 C   0  0  0  0  0  0  0  0  0  0  0  0
   56.3000   34.9800   44.8560 F   0  0  0  0  0  0  0  0  0  0  0  0
   58.5260   34.6110   45.6270 C   0  0  0  0  0  0  0  0  0  0  0  0
   58.7113   35.6952   45.6397 H   0  0  0  0  0  0  0  0  0  0  0  0
   59.5370   33.7250   46.0110 C   0  0  0  0  0  0  0  0  0  0  0  0
   60.5157   34.1156   46.3267 H   0  0  0  0  0  0  0  0  0  0  0  0
   59.6780   28.9410   46.4490 C   0  0  0  0  0  0  0  0  0  0  0  0
   60.2410   28.5970   45.2790 C   0  0  0  0  0  0  0  0  0  0  0  0
   60.8384   29.3316   44.7191 H   0  0  0  0  0  0  0  0  0  0  0  0
   60.1047   27.5807   44.8808 H   0  0  0  0  0  0  0  0  0  0  0  0
  1  2  1  0
  2  3  1  0
  3  4  1  0
  4  5  1  0
  5  6  2  0
  5  7  1  0
  7  8  1  0
  8  9  1  0
  9 10  1  0
  9 11  2  0
 11 12  1  0
 12 13  1  0
 12 14  2  0
 14 15  1  0
 15 16  2  0
 15 17  1  0
 17 18  1  0
 18 19  1  0
 18 20  1  0
 18 21  1  0
 21 22  1  0
 21 23  1  0
 21 24  1  0
 24 25  2  0
 25 26  1  0
 25 27  1  0
 27 28  1  0
 27 29  2  0
 29 30  1  0
 30 31  1  0
 30 32  2  0
 32 33  1  0
 14 34  1  0
 34 35  1  0
 35 36  1  0
 35 37  1  0
 35 38  1  0
 38 39  2  0
 39 40  1  0
 39 41  1  0
 41 42  1  0
 41 43  2  0
 43 44  1  0
 43 45  1  0
 45 46  1  0
 45 47  2  0
 47 48  1  0
 34 49  1  0
 49 50  2  0
 50 51  1  0
 50 52  1  0
  8  3  2  0
 49 11  1  0
 32 24  1  0
 47 38  1  0
M  CHG  3   4  -1   7  -1  17  -1
M  END
>  <UniqueID>  (51) 
51

>  <SMILES>  (51) 
C=c1/c(=C/c2[n-]c(=O)[n-]c2O)cc(C(=O)[N-]CCc2ccncc2)n1Cc1ccc(F)cc1

>  <Energy>  (51) 
121.02614181762428

>  <Genealogy>  (51) 
C=c1c(=Cc2[n-]c(=O)[n-]c2O)cc(C(=O)[N-]CCc2ccncc2)n1Cc1ccc(F)cc1 (protonated)
C=c1/c(=C/c2[n-]c(=O)[n-]c2O)cc(C(=O)[N-]CCc2ccncc2)n1Cc1ccc(F)cc1 (cis-trans isomerization)
C=c1/c(=C/c2[n-]c(=O)[n-]c2O)cc(C(=O)[N-]CCc2ccncc2)n1Cc1ccc(F)cc1 (3D coordinates assigned)
C=c1/c(=C/c2[n-]c(=O)[n-]c2O)cc(C(=O)[N-]CCc2ccncc2)n1Cc1ccc(F)cc1 (optimized conformer: 121.02614181762428 kcal/mol)

>  <smiles>  (51) 
C=c1c(=Cc2[nH]c(=O)[nH]c2O)cc(C(=O)NCCc2ccncc2)n1Cc1ccc(F)cc1

>  <score_type>  (51) 
oracle

>  <origin>  (51) 
adg

>  <m_score__min__energy>  (51) 
-14.26

>  <m_primary>  (51) 
energy

$$$$
51:0
     RDKit          3D

 49 52  0  0  0  0  0  0  0  0999 V2000
   55.8280   27.4060   46.2560 H   0  0  0  0  0  0  0  0  0  0  0  0
   55.1540   26.6930   46.0120 O   0  0  0  0  0  0  0  0  0  0  0  0
   55.5080   25.3520   45.8510 C   0  0  0  0  0  0  0  0  0  0  0  0
   54.5880   24.4810   45.2510 C   0  0  0  0  0  0  0  0  0  0  0  0
   53.6127   24.8622   44.9140 H   0  0  0  0  0  0  0  0  0  0  0  0
   54.9040   23.1310   45.0790 C   0  0  0  0  0  0  0  0  0  0  0  0
   54.1810   22.4537   44.6009 H   0  0  0  0  0  0  0  0  0  0  0  0
   56.1380   22.6410   45.5140 C   0  0  0  0  0  0  0  0  0  0  0  0
   56.3820   21.5763   45.3844 H   0  0  0  0  0  0  0  0  0  0  0  0
   57.0640   23.5010   46.1140 C   0  0  0  0  0  0  0  0  0  0  0  0
   58.0290   23.1068   46.4651 H   0  0  0  0  0  0  0  0  0  0  0  0
   56.7670   24.8700   46.2710 C   0  0  0  0  0  0  0  0  0  0  0  0
   57.6840   25.7700   46.9210 N   0  0  0  0  0  0  0  0  0  0  0  0
   58.3950   26.7010   46.3530 C   0  0  0  0  0  0  0  0  0  0  0  0
   57.8780   27.7950   45.7470 N   0  0  0  0  0  0  0  0  0  0  0  0
   58.8610   28.6160   45.2830 C   0  0  0  0  0  0  0  0  0  0  0  0
   58.5470   29.9130   44.5940 C   0  0  0  0  0  0  0  0  0  0  0  0
   58.5567   29.7548   43.5055 H   0  0  0  0  0  0  0  0  0  0  0  0
   59.3056   30.6568   44.8793 H   0  0  0  0  0  0  0  0  0  0  0  0
   57.1880   30.4240   45.0080 C   0  0  0  0  0  0  0  0  0  0  0  0
   56.1770   29.6890   44.8650 O   0  0  0  0  0  0  0  0  0  0  0  0
   57.0180   31.7320   45.5760 N   0  0  0  0  0  0  0  0  0  0  0  0
   58.0800   32.6770   45.7580 C   0  0  0  0  0  0  0  0  0  0  0  0
   58.2880   33.6480   44.7710 C   0  0  0  0  0  0  0  0  0  0  0  0
   57.6257   33.6871   43.8936 H   0  0  0  0  0  0  0  0  0  0  0  0
   59.3330   34.5680   44.8950 C   0  0  0  0  0  0  0  0  0  0  0  0
   59.4983   35.3210   44.1103 H   0  0  0  0  0  0  0  0  0  0  0  0
   60.1680   34.5320   46.0150 C   0  0  0  0  0  0  0  0  0  0  0  0
   60.9967   35.2497   46.1054 H   0  0  0  0  0  0  0  0  0  0  0  0
   59.9520   33.5860   47.0200 C   0  0  0  0  0  0  0  0  0  0  0  0
   60.6061   33.5701   47.9043 H   0  0  0  0  0  0  0  0  0  0  0  0
   58.9050   32.6540   46.9100 C   0  0  0  0  0  0  0  0  0  0  0  0
   58.6350   31.7550   48.0050 N   0  0  0  0  0  0  0  0  0  0  0  0
   58.3120   32.2660   49.3400 C   0  0  0  0  0  0  0  0  0  0  0  0
   58.3818   33.3638   49.3412 H   0  0  0  0  0  0  0  0  0  0  0  0
   57.2891   31.9682   49.6137 H   0  0  0  0  0  0  0  0  0  0  0  0
   59.3090   31.6860   50.3540 C   0  0  0  0  0  0  0  0  0  0  0  0
   60.3098   32.0930   50.1474 H   0  0  0  0  0  0  0  0  0  0  0  0
   58.9809   31.9644   51.3663 H   0  0  0  0  0  0  0  0  0  0  0  0
   59.3570   30.2710   50.2680 O   0  0  0  0  0  0  0  0  0  0  0  0
   59.8460   29.8810   48.9960 C   0  0  0  0  0  0  0  0  0  0  0  0
   60.8243   30.3538   48.8244 H   0  0  0  0  0  0  0  0  0  0  0  0
   59.9434   28.7855   48.9744 H   0  0  0  0  0  0  0  0  0  0  0  0
   58.8760   30.3130   47.8880 C   0  0  0  0  0  0  0  0  0  0  0  0
   59.3157   30.0905   46.9046 H   0  0  0  0  0  0  0  0  0  0  0  0
   57.9267   29.7665   47.9890 H   0  0  0  0  0  0  0  0  0  0  0  0
   60.1650   28.1870   45.5400 C   0  0  0  0  0  0  0  0  0  0  0  0
   61.0875   28.7135   45.2541 H   0  0  0  0  0  0  0  0  0  0  0  0
   60.0760   26.7210   46.3650 S   0  0  0  0  0  0  0  0  0  0  0  0
  1  2  1  0
  2  3  1  0
  3  4  2  0
  4  5  1  0
  4  6  1  0
  6  7  1  0
  6  8  2  0
  8  9  1  0
  8 10  1  0
 10 11  1  0
 10 12  2  0
 12 13  1  0
 13 14  2  0
 14 15  1  0
 15 16  1  0
 16 17  1  0
 17 18  1  0
 17 19  1  0
 17 20  1  0
 20 21  2  0
 20 22  1  0
 22 23  1  0
 23 24  2  0
 24 25  1  0
 24 26  1  0
 26 27  1  0
 26 28  2  0
 28 29  1  0
 28 30  1  0
 30 31  1  0
 30 32  2  0
 32 33  1  0
 33 34  1  0
 34 35  1  0
 34 36  1  0
 34 37  1  0
 37 38  1  0
 37 39  1  0
 37 40  1  0
 40 41  1  0
 41 42  1  0
 41 43  1  0
 41 44  1  0
 44 45  1  0
 44 46  1  0
 16 47  2  0
 47 48  1  0
 47 49  1  0
 12  3  1  0
 49 14  1  0
 32 23  1  0
 44 33  1  0
M  CHG  2  15  -1  22  -1
M  END
>  <UniqueID>  (52) 
52

>  <SMILES>  (52) 
O=C(Cc1cs/c(=N/c2ccccc2O)[n-]1)[N-]c1ccccc1N1CCOCC1

>  <Energy>  (52) 
99.92003356415087

>  <Genealogy>  (52) 
O=C(Cc1csc(=Nc2ccccc2O)[n-]1)[N-]c1ccccc1N1CCOCC1 (protonated)
O=C(Cc1cs/c(=N/c2ccccc2O)[n-]1)[N-]c1ccccc1N1CCOCC1 (cis-trans isomerization)
O=C(Cc1cs/c(=N/c2ccccc2O)[n-]1)[N-]c1ccccc1N1CCOCC1 (3D coordinates assigned)
O=C(Cc1cs/c(=N/c2ccccc2O)[n-]1)[N-]c1ccccc1N1CCOCC1 (nonaromatic ring conformer: 99.92003356415087 kcal/mol)

>  <smiles>  (52) 
O=C(Cc1csc(=Nc2ccccc2O)[nH]1)Nc1ccccc1N1CCOCC1

>  <score_type>  (52) 
oracle

>  <origin>  (52) 
adg

>  <m_score__min__energy>  (52) 
-12.869999999999999

>  <m_primary>  (52) 
energy

$$$$
52:0
     RDKit          3D

 47 49  0  0  0  0  0  0  0  0999 V2000
   62.9660   32.8680   47.0930 C   0  0  0  0  0  0  0  0  0  0  0  0
   62.5870   31.5880   47.8200 C   0  0  0  0  0  0  0  0  0  0  0  0
   61.2910   31.1730   47.4040 O   0  0  0  0  0  0  0  0  0  0  0  0
   60.2880   30.8050   48.3050 C   0  0  0  0  0  0  0  0  0  0  0  0
   60.5580   30.0840   49.3060 O   0  0  0  0  0  0  0  0  0  0  0  0
   58.8700   31.2380   48.0330 C   0  0  2  0  0  0  0  0  0  0  0  0
   58.5870   31.1820   46.5320 C   0  0  0  0  0  0  0  0  0  0  0  0
   58.3210   29.8880   45.8410 C   0  0  0  0  0  0  0  0  0  0  0  0
   57.0550   29.2800   45.9990 C   0  0  0  0  0  0  0  0  0  0  0  0
   56.7890   28.0190   45.4620 C   0  0  0  0  0  0  0  0  0  0  0  0
   55.5320   27.4510   45.6170 O   0  0  0  0  0  0  0  0  0  0  0  0
   57.7860   27.3280   44.7780 C   0  0  0  0  0  0  0  0  0  0  0  0
   59.0540   27.8870   44.6440 C   0  0  0  0  0  0  0  0  0  0  0  0
   59.3450   29.1440   45.2010 C   0  0  0  0  0  0  0  0  0  0  0  0
   60.6600   29.6070   45.1650 O   0  0  0  0  0  0  0  0  0  0  0  0
   58.8050   32.2380   45.7970 N   0  0  0  0  0  0  0  0  0  0  0  0
   59.1790   33.5030   46.3460 C   0  0  0  0  0  0  0  0  0  0  0  0
   59.5970   34.7290   45.3500 S   0  0  0  0  0  0  0  0  0  0  0  0
   59.1680   33.6900   47.7620 N   0  0  0  0  0  0  0  0  0  0  0  0
   58.5610   32.6520   48.5950 C   0  0  2  0  0  0  0  0  0  0  0  0
   58.9250   32.8030   50.0670 C   0  0  0  0  0  0  0  0  0  0  0  0
   58.1320   32.1390   51.0210 C   0  0  0  0  0  0  0  0  0  0  0  0
   58.4250   32.2280   52.3820 C   0  0  0  0  0  0  0  0  0  0  0  0
   59.5160   32.9770   52.8130 C   0  0  0  0  0  0  0  0  0  0  0  0
   60.3330   33.6250   51.8840 C   0  0  0  0  0  0  0  0  0  0  0  0
   60.0590   33.5350   50.5040 C   0  0  0  0  0  0  0  0  0  0  0  0
   60.8940   34.1480   49.5550 O   0  0  0  0  0  0  0  0  0  0  0  0
   62.2640   34.4680   49.7650 C   0  0  0  0  0  0  0  0  0  0  0  0
   63.1982   33.6524   47.8284 H   0  0  0  0  0  0  0  0  0  0  0  0
   63.8482   32.6840   46.4622 H   0  0  0  0  0  0  0  0  0  0  0  0
   62.1258   33.1940   46.4622 H   0  0  0  0  0  0  0  0  0  0  0  0
   63.3180   30.8011   47.5825 H   0  0  0  0  0  0  0  0  0  0  0  0
   62.5836   31.7694   48.9049 H   0  0  0  0  0  0  0  0  0  0  0  0
   58.2049   30.5368   48.5583 H   0  0  0  0  0  0  0  0  0  0  0  0
   56.2663   29.8089   46.5541 H   0  0  0  0  0  0  0  0  0  0  0  0
   57.5716   26.3404   44.3435 H   0  0  0  0  0  0  0  0  0  0  0  0
   59.8356   27.3395   44.0969 H   0  0  0  0  0  0  0  0  0  0  0  0
   60.9520   30.4200   45.6920 H   0  0  0  0  0  0  0  0  0  0  0  0
   59.3230   34.6480   48.1550 H   0  0  0  0  0  0  0  0  0  0  0  0
   57.4697   32.7825   48.5508 H   0  0  0  0  0  0  0  0  0  0  0  0
   57.2698   31.5419   50.6893 H   0  0  0  0  0  0  0  0  0  0  0  0
   57.7931   31.7056   53.1153 H   0  0  0  0  0  0  0  0  0  0  0  0
   59.7353   33.0588   53.8878 H   0  0  0  0  0  0  0  0  0  0  0  0
   61.1971   34.2102   52.2317 H   0  0  0  0  0  0  0  0  0  0  0  0
   62.4680   34.5157   50.8449 H   0  0  0  0  0  0  0  0  0  0  0  0
   62.8960   33.6933   49.3063 H   0  0  0  0  0  0  0  0  0  0  0  0
   62.4874   35.4425   49.3063 H   0  0  0  0  0  0  0  0  0  0  0  0
  1  2  1  0
  2  3  1  0
  3  4  1  0
  4  5  2  0
  4  6  1  0
  6  7  1  0
  7  8  1  0
  8  9  2  0
  9 10  1  0
 10 11  1  0
 10 12  2  0
 12 13  1  0
 13 14  2  0
 14 15  1  0
  7 16  2  0
 16 17  1  0
 17 18  2  0
 17 19  1  0
 19 20  1  0
 20 21  1  0
 21 22  2  0
 22 23  1  0
 23 24  2  0
 24 25  1  0
 25 26  2  0
 26 27  1  0
 27 28  1  0
 20  6  1  0
 26 21  1  0
 14  8  1  0
  1 29  1  0
  1 30  1  0
  1 31  1  0
  2 32  1  0
  2 33  1  0
  6 34  1  1
  9 35  1  0
 12 36  1  0
 13 37  1  0
 15 38  1  0
 19 39  1  0
 20 40  1  1
 22 41  1  0
 23 42  1  0
 24 43  1  0
 25 44  1  0
 28 45  1  0
 28 46  1  0
 28 47  1  0
M  CHG  1  11  -1
M  END
>  <UniqueID>  (53) 
53

>  <SMILES>  (53) 
CCOC(=O)[C@@H]1C(c2cc([O-])ccc2O)=NC(=S)N[C@@H]1c1ccccc1OC

>  <Energy>  (53) 
51.740164062379954

>  <Genealogy>  (53) 
CCOC(=O)C1C(c2cc([O-])ccc2O)=NC(=S)NC1c1ccccc1OC (protonated)
CCOC(=O)[C@@H]1C(c2cc([O-])ccc2O)=NC(=S)N[C@@H]1c1ccccc1OC (chirality)
CCOC(=O)[C@@H]1C(c2cc([O-])ccc2O)=NC(=S)N[C@@H]1c1ccccc1OC (3D coordinates assigned)
CCOC(=O)[C@@H]1C(c2cc([O-])ccc2O)=NC(=S)N[C@@H]1c1ccccc1OC (nonaromatic ring conformer: 51.740164062379954 kcal/mol)

>  <smiles>  (53) 
CCOC(=O)C1C(c2cc(O)ccc2O)=NC(=S)NC1c1ccccc1OC

>  <score_type>  (53) 
oracle

>  <origin>  (53) 
adg

>  <m_score__min__energy>  (53) 
-8.9900000000000002

>  <m_primary>  (53) 
energy

$$$$
53:0
     RDKit          3D

 38 40  0  0  0  0  0  0  0  0999 V2000
   58.5680   31.0190   48.6890 O   0  0  0  0  0  0  0  0  0  0  0  0
   59.0130   32.1410   48.3240 C   0  0  0  0  0  0  0  0  0  0  0  0
   59.8430   32.9080   49.2070 N   0  0  0  0  0  0  0  0  0  0  0  0
   61.2770   32.9700   49.1950 C   0  0  0  0  0  0  0  0  0  0  0  0
   61.9990   33.7600   50.1090 C   0  0  0  0  0  0  0  0  0  0  0  0
   63.3960   33.8100   50.0450 C   0  0  0  0  0  0  0  0  0  0  0  0
   64.0800   33.0860   49.0640 C   0  0  0  0  0  0  0  0  0  0  0  0
   65.4330   33.1380   49.0020 F   0  0  0  0  0  0  0  0  0  0  0  0
   63.3670   32.3200   48.1380 C   0  0  0  0  0  0  0  0  0  0  0  0
   61.9700   32.2690   48.1990 C   0  0  0  0  0  0  0  0  0  0  0  0
   58.6900   32.6710   46.9770 C   0  0  0  0  0  0  0  0  0  0  0  0
   58.9650   34.0240   46.7050 C   0  0  0  0  0  0  0  0  0  0  0  0
   58.6060   34.5930   45.4810 C   0  0  0  0  0  0  0  0  0  0  0  0
   57.9700   33.8200   44.5120 C   0  0  0  0  0  0  0  0  0  0  0  0
   57.7030   32.4740   44.7560 C   0  0  0  0  0  0  0  0  0  0  0  0
   58.0640   31.8790   45.9790 C   0  0  0  0  0  0  0  0  0  0  0  0
   57.8520   30.4680   46.1780 N   0  0  0  0  0  0  0  0  0  0  0  0
   57.4170   29.5650   45.1130 C   0  0  0  0  0  0  0  0  0  0  0  0
   57.1340   28.2020   45.6700 C   0  0  0  0  0  0  0  0  0  0  0  0
   58.1240   27.4960   46.3630 C   0  0  0  0  0  0  0  0  0  0  0  0
   57.8010   26.2500   46.9020 C   0  0  0  0  0  0  0  0  0  0  0  0
   58.6660   25.5870   47.5290 O   0  0  0  0  0  0  0  0  0  0  0  0
   56.5460   25.7520   46.7500 N   0  0  0  0  0  0  0  0  0  0  0  0
   55.5930   26.4530   46.0810 C   0  0  0  0  0  0  0  0  0  0  0  0
   54.4350   25.9770   45.9540 O   0  0  0  0  0  0  0  0  0  0  0  0
   55.8890   27.6680   45.5500 N   0  0  0  0  0  0  0  0  0  0  0  0
   61.4638   34.3396   50.8756 H   0  0  0  0  0  0  0  0  0  0  0  0
   63.9571   34.4202   50.7681 H   0  0  0  0  0  0  0  0  0  0  0  0
   63.9042   31.7568   47.3607 H   0  0  0  0  0  0  0  0  0  0  0  0
   61.4121   31.6748   47.4603 H   0  0  0  0  0  0  0  0  0  0  0  0
   59.4682   34.6402   47.4646 H   0  0  0  0  0  0  0  0  0  0  0  0
   58.8256   35.6523   45.2819 H   0  0  0  0  0  0  0  0  0  0  0  0
   57.6781   34.2727   43.5529 H   0  0  0  0  0  0  0  0  0  0  0  0
   57.2044   31.8699   43.9837 H   0  0  0  0  0  0  0  0  0  0  0  0
   57.9610   30.0680   47.1370 H   0  0  0  0  0  0  0  0  0  0  0  0
   56.5030   29.9645   44.6492 H   0  0  0  0  0  0  0  0  0  0  0  0
   58.2168   29.4858   44.3620 H   0  0  0  0  0  0  0  0  0  0  0  0
   59.1346   27.9142   46.4802 H   0  0  0  0  0  0  0  0  0  0  0  0
  1  2  2  0
  2  3  1  0
  3  4  1  0
  4  5  2  0
  5  6  1  0
  6  7  2  0
  7  8  1  0
  7  9  1  0
  9 10  2  0
  2 11  1  0
 11 12  2  0
 12 13  1  0
 13 14  2  0
 14 15  1  0
 15 16  2  0
 16 17  1  0
 17 18  1  0
 18 19  1  0
 19 20  2  0
 20 21  1  0
 21 22  2  0
 21 23  1  0
 23 24  1  0
 24 25  2  0
 24 26  1  0
 10  4  1  0
 16 11  1  0
 26 19  1  0
  5 27  1  0
  6 28  1  0
  9 29  1  0
 10 30  1  0
 12 31  1  0
 13 32  1  0
 14 33  1  0
 15 34  1  0
 17 35  1  0
 18 36  1  0
 18 37  1  0
 20 38  1  0
M  CHG  3   3  -1  23  -1  26  -1
M  END
>  <UniqueID>  (54) 
54

>  <SMILES>  (54) 
O=C([N-]c1ccc(F)cc1)c1ccccc1NCc1cc(=O)[n-]c(=O)[n-]1

>  <Energy>  (54) 
50.16101495162629

>  <Genealogy>  (54) 
O=C([N-]c1ccc(F)cc1)c1ccccc1NCc1cc(=O)[n-]c(=O)[n-]1 (protonated)
O=C([N-]c1ccc(F)cc1)c1ccccc1NCc1cc(=O)[n-]c(=O)[n-]1 (3D coordinates assigned)
O=C([N-]c1ccc(F)cc1)c1ccccc1NCc1cc(=O)[n-]c(=O)[n-]1 (optimized conformer: 50.16101495162629 kcal/mol)

>  <smiles>  (54) 
O=C(Nc1ccc(F)cc1)c1ccccc1NCc1cc(=O)[nH]c(=O)[nH]1

>  <score_type>  (54) 
oracle

>  <origin>  (54) 
adg

>  <m_score__min__energy>  (54) 
-14.029999999999999

>  <m_primary>  (54) 
energy

$$$$
54:0
     RDKit          3D

 31 32  0  0  0  0  0  0  0  0999 V2000
   55.2700   28.9790   44.8850 N   0  0  0  0  0  0  0  0  0  0  0  0
   56.2300   29.9590   44.4970 C   0  0  0  0  0  0  0  0  0  0  0  0
   55.9250   31.1810   44.5210 O   0  0  0  0  0  0  0  0  0  0  0  0
   57.5870   29.5330   44.0350 C   0  0  0  0  0  0  0  0  0  0  0  0
   58.6010   28.9840   45.4490 S   0  0  0  0  0  0  0  0  0  0  0  0
   59.1820   30.6300   45.8590 C   0  0  0  0  0  0  0  0  0  0  0  0
   58.4810   31.7110   45.4350 N   0  0  0  0  0  0  0  0  0  0  0  0
   58.8880   32.9750   45.7290 C   0  0  0  0  0  0  0  0  0  0  0  0
   58.0840   34.1520   45.2600 C   0  0  0  0  0  0  0  0  0  0  0  0
   57.1890   34.5220   46.2470 F   0  0  0  0  0  0  0  0  0  0  0  0
   57.3790   33.8340   44.1120 F   0  0  0  0  0  0  0  0  0  0  0  0
   58.9270   35.2140   44.9880 F   0  0  0  0  0  0  0  0  0  0  0  0
   60.0490   33.1640   46.4840 C   0  0  0  0  0  0  0  0  0  0  0  0
   60.7700   32.0410   46.9170 C   0  0  0  0  0  0  0  0  0  0  0  0
   62.0020   32.2020   47.7300 C   0  0  0  0  0  0  0  0  0  0  0  0
   62.9820   33.1460   47.3680 C   0  0  0  0  0  0  0  0  0  0  0  0
   64.1410   33.2910   48.1370 C   0  0  0  0  0  0  0  0  0  0  0  0
   64.3340   32.4990   49.2730 C   0  0  0  0  0  0  0  0  0  0  0  0
   65.7880   32.6840   50.2360 Cl  0  0  0  0  0  0  0  0  0  0  0  0
   63.3670   31.5600   49.6390 C   0  0  0  0  0  0  0  0  0  0  0  0
   62.2070   31.4100   48.8730 C   0  0  0  0  0  0  0  0  0  0  0  0
   60.3180   30.7940   46.5900 N   0  0  0  0  0  0  0  0  0  0  0  0
   55.5410   27.9770   44.9890 H   0  0  0  0  0  0  0  0  0  0  0  0
   57.4821   28.7029   43.3209 H   0  0  0  0  0  0  0  0  0  0  0  0
   58.0830   30.3881   43.5526 H   0  0  0  0  0  0  0  0  0  0  0  0
   60.3924   34.1784   46.7350 H   0  0  0  0  0  0  0  0  0  0  0  0
   62.8352   33.7725   46.4759 H   0  0  0  0  0  0  0  0  0  0  0  0
   64.9027   34.0299   47.8475 H   0  0  0  0  0  0  0  0  0  0  0  0
   63.5185   30.9366   50.5326 H   0  0  0  0  0  0  0  0  0  0  0  0
   61.4502   30.6677   49.1666 H   0  0  0  0  0  0  0  0  0  0  0  0
   60.8510   29.9460   46.8860 H   0  0  0  0  0  0  0  0  0  0  0  0
  1  2  1  0
  2  3  2  0
  2  4  1  0
  4  5  1  0
  5  6  1  0
  6  7  2  0
  7  8  1  0
  8  9  1  0
  9 10  1  0
  9 11  1  0
  9 12  1  0
  8 13  2  0
 13 14  1  0
 14 15  1  0
 15 16  2  0
 16 17  1  0
 17 18  2  0
 18 19  1  0
 18 20  1  0
 20 21  2  0
 14 22  2  0
 22  6  1  0
 21 15  1  0
  1 23  1  0
  4 24  1  0
  4 25  1  0
 13 26  1  0
 16 27  1  0
 17 28  1  0
 20 29  1  0
 21 30  1  0
 22 31  1  0
M  CHG  2   1  -1  22   1
M  END
>  <UniqueID>  (55) 
55

>  <SMILES>  (55) 
[NH-]C(=O)CSc1nc(C(F)(F)F)cc(-c2ccc(Cl)cc2)[nH+]1

>  <Energy>  (55) 
30.175537388157785

>  <Genealogy>  (55) 
[NH-]C(=O)CSc1nc(C(F)(F)F)cc(-c2ccc(Cl)cc2)[nH+]1 (protonated)
[NH-]C(=O)CSc1nc(C(F)(F)F)cc(-c2ccc(Cl)cc2)[nH+]1 (3D coordinates assigned)
[NH-]C(=O)CSc1nc(C(F)(F)F)cc(-c2ccc(Cl)cc2)[nH+]1 (optimized conformer: 30.175537388157785 kcal/mol)

>  <smiles>  (55) 
NC(=O)CSc1nc(-c2ccc(Cl)cc2)cc(C(F)(F)F)n1

>  <score_type>  (55) 
oracle

>  <origin>  (55) 
adg

>  <m_score__min__energy>  (55) 
-9.0899999999999999

>  <m_primary>  (55) 
energy

$$$$
55:0
     RDKit          3D

 53 57  0  0  0  0  0  0  0  0999 V2000
   53.8733   29.5159   51.9476 H   0  0  0  0  0  0  0  0  0  0  0  0
   54.8440   29.9400   52.2440 C   0  0  0  0  0  0  0  0  0  0  0  0
   55.2090   31.2150   51.9510 N   0  0  0  0  0  0  0  0  0  0  0  0
   56.4460   31.4950   52.4230 C   0  0  0  0  0  0  0  0  0  0  0  0
   57.0300   32.6440   52.2840 N   0  0  0  0  0  0  0  0  0  0  0  0
   58.6370   32.8210   51.6550 S   0  0  0  0  0  0  0  0  0  0  0  0
   58.9250   34.2800   51.4380 O   0  0  0  0  0  0  0  0  0  0  0  0
   59.6260   32.2800   52.6500 O   0  0  0  0  0  0  0  0  0  0  0  0
   58.7680   31.9740   50.1170 C   0  0  0  0  0  0  0  0  0  0  0  0
   59.1040   30.6170   50.0800 C   0  0  0  0  0  0  0  0  0  0  0  0
   59.3179   30.0820   51.0170 H   0  0  0  0  0  0  0  0  0  0  0  0
   59.1700   29.9360   48.8630 C   0  0  0  0  0  0  0  0  0  0  0  0
   59.4450   28.8710   48.8483 H   0  0  0  0  0  0  0  0  0  0  0  0
   58.8870   30.6020   47.6520 C   0  0  0  0  0  0  0  0  0  0  0  0
   58.9290   29.9370   46.3970 C   0  0  0  0  0  0  0  0  0  0  0  0
   59.1720   28.4800   46.2770 C   0  0  0  0  0  0  0  0  0  0  0  0
   60.4620   27.9620   46.4510 C   0  0  0  0  0  0  0  0  0  0  0  0
   61.2960   28.6379   46.6910 H   0  0  0  0  0  0  0  0  0  0  0  0
   60.6930   26.5920   46.3210 C   0  0  0  0  0  0  0  0  0  0  0  0
   61.7075   26.1910   46.4621 H   0  0  0  0  0  0  0  0  0  0  0  0
   59.6390   25.7280   46.0120 C   0  0  0  0  0  0  0  0  0  0  0  0
   59.8278   24.6485   45.9166 H   0  0  0  0  0  0  0  0  0  0  0  0
   58.3380   26.2290   45.8220 C   0  0  0  0  0  0  0  0  0  0  0  0
   57.2150   25.3140   45.4980 C   0  0  0  0  0  0  0  0  0  0  0  0
   55.8980   25.6440   45.8690 C   0  0  0  0  0  0  0  0  0  0  0  0
   55.6991   26.5876   46.3982 H   0  0  0  0  0  0  0  0  0  0  0  0
   54.8420   24.7800   45.5690 C   0  0  0  0  0  0  0  0  0  0  0  0
   53.8161   25.0445   45.8648 H   0  0  0  0  0  0  0  0  0  0  0  0
   55.0850   23.5820   44.8950 C   0  0  0  0  0  0  0  0  0  0  0  0
   54.2505   22.9032   44.6650 H   0  0  0  0  0  0  0  0  0  0  0  0
   56.3870   23.2420   44.5110 C   0  0  0  0  0  0  0  0  0  0  0  0
   56.6950   21.7270   43.6700 S   0  0  0  0  0  0  0  0  0  0  0  0
   55.9370   20.6120   44.3330 O   0  0  0  0  0  0  0  0  0  0  0  0
   56.2400   21.8370   42.2420 O   0  0  0  0  0  0  0  0  0  0  0  0
   58.3890   21.3820   43.7100 N   0  0  0  0  0  0  0  0  0  0  0  0
   58.6120   20.8410   42.8450 H   0  0  0  0  0  0  0  0  0  0  0  0
   58.5500   20.7390   44.5180 H   0  0  0  0  0  0  0  0  0  0  0  0
   57.4500   24.1040   44.8180 C   0  0  0  0  0  0  0  0  0  0  0  0
   58.4750   23.8325   44.5252 H   0  0  0  0  0  0  0  0  0  0  0  0
   58.1180   27.6130   45.9470 C   0  0  0  0  0  0  0  0  0  0  0  0
   57.1092   28.0203   45.7844 H   0  0  0  0  0  0  0  0  0  0  0  0
   58.7020   30.6690   45.2200 C   0  0  0  0  0  0  0  0  0  0  0  0
   58.7582   30.1631   44.2449 H   0  0  0  0  0  0  0  0  0  0  0  0
   58.4060   32.0310   45.2750 C   0  0  0  0  0  0  0  0  0  0  0  0
   58.2292   32.5903   44.3444 H   0  0  0  0  0  0  0  0  0  0  0  0
   58.3330   32.6870   46.5020 C   0  0  0  0  0  0  0  0  0  0  0  0
   58.0856   33.7582   46.5370 H   0  0  0  0  0  0  0  0  0  0  0  0
   58.5740   31.9860   47.6930 C   0  0  0  0  0  0  0  0  0  0  0  0
   58.5060   32.6560   48.9250 C   0  0  0  0  0  0  0  0  0  0  0  0
   58.2449   33.7242   48.9525 H   0  0  0  0  0  0  0  0  0  0  0  0
   57.1420   30.1870   53.2180 S   0  0  0  0  0  0  0  0  0  0  0  0
   55.7960   29.2160   52.9480 C   0  0  0  0  0  0  0  0  0  0  0  0
   55.6640   27.9300   53.3530 F   0  0  0  0  0  0  0  0  0  0  0  0
  1  2  1  0
  2  3  1  0
  3  4  1  0
  4  5  2  0
  5  6  1  0
  6  7  2  0
  6  8  2  0
  6  9  1  0
  9 10  2  0
 10 11  1  0
 10 12  1  0
 12 13  1  0
 12 14  2  0
 14 15  1  0
 15 16  1  0
 16 17  2  0
 17 18  1  0
 17 19  1  0
 19 20  1  0
 19 21  2  0
 21 22  1  0
 21 23  1  0
 23 24  1  0
 24 25  2  0
 25 26  1  0
 25 27  1  0
 27 28  1  0
 27 29  2  0
 29 30  1  0
 29 31  1  0
 31 32  1  0
 32 33  2  0
 32 34  2  0
 32 35  1  0
 35 36  1  0
 35 37  1  0
 31 38  2  0
 38 39  1  0
 23 40  2  0
 40 41  1  0
 15 42  2  0
 42 43  1  0
 42 44  1  0
 44 45  1  0
 44 46  2  0
 46 47  1  0
 46 48  1  0
 48 49  2  0
 49 50  1  0
  4 51  1  0
 51 52  1  0
 52 53  1  0
 52  2  2  0
 49  9  1  0
 48 14  1  0
 40 16  1  0
 38 24  1  0
M  CHG  1   3  -1
M  END
>  <UniqueID>  (56) 
56

>  <SMILES>  (56) 
NS(=O)(=O)c1cccc(-c2cccc(-c3cccc4cc(S(=O)(=O)/N=c5\[n-]cc(F)s5)ccc34)c2)c1

>  <Energy>  (56) 
108.52886047950884

>  <Genealogy>  (56) 
NS(=O)(=O)c1cccc(-c2cccc(-c3cccc4cc(S(=O)(=O)N=c5[n-]cc(F)s5)ccc34)c2)c1 (protonated)
NS(=O)(=O)c1cccc(-c2cccc(-c3cccc4cc(S(=O)(=O)/N=c5\[n-]cc(F)s5)ccc34)c2)c1 (cis-trans isomerization)
NS(=O)(=O)c1cccc(-c2cccc(-c3cccc4cc(S(=O)(=O)/N=c5\[n-]cc(F)s5)ccc34)c2)c1 (3D coordinates assigned)
NS(=O)(=O)c1cccc(-c2cccc(-c3cccc4cc(S(=O)(=O)/N=c5\[n-]cc(F)s5)ccc34)c2)c1 (optimized conformer: 108.52886047950884 kcal/mol)

>  <smiles>  (56) 
NS(=O)(=O)c1cccc(-c2cccc(-c3cccc4cc(S(=O)(=O)N=c5[nH]cc(F)s5)ccc34)c2)c1

>  <score_type>  (56) 
oracle

>  <origin>  (56) 
adg

>  <m_score__min__energy>  (56) 
-13.720000000000001

>  <m_primary>  (56) 
energy

$$$$
56:0
     RDKit          3D

 56 59  0  0  0  0  0  0  0  0999 V2000
   58.6001   23.4131   43.1332 H   0  0  0  0  0  0  0  0  0  0  0  0
   58.1860   23.2060   44.1310 C   0  0  0  0  0  0  0  0  0  0  0  0
   59.1280   23.2830   45.2780 C   0  0  0  0  0  0  0  0  0  0  0  0
   59.8300   22.2920   45.6110 O   0  0  0  0  0  0  0  0  0  0  0  0
   59.2730   24.5040   46.0150 N   0  0  0  0  0  0  0  0  0  0  0  0
   58.4200   25.6500   45.8920 C   0  0  0  0  0  0  0  0  0  0  0  0
   57.0360   25.4810   45.9900 C   0  0  0  0  0  0  0  0  0  0  0  0
   56.6163   24.4776   46.1542 H   0  0  0  0  0  0  0  0  0  0  0  0
   56.1840   26.5830   45.8800 C   0  0  0  0  0  0  0  0  0  0  0  0
   54.8090   26.4170   46.0240 O   0  0  0  0  0  0  0  0  0  0  0  0
   56.7100   27.8550   45.6270 C   0  0  0  0  0  0  0  0  0  0  0  0
   56.0380   28.7237   45.5660 H   0  0  0  0  0  0  0  0  0  0  0  0
   58.0910   28.0260   45.4510 C   0  0  0  0  0  0  0  0  0  0  0  0
   58.6690   29.3560   45.1670 C   0  0  0  0  0  0  0  0  0  0  0  0
   59.9070   29.4170   44.9260 O   0  0  0  0  0  0  0  0  0  0  0  0
   57.8740   30.5670   45.1120 N   0  0  0  0  0  0  0  0  0  0  0  0
   58.2980   31.7200   45.8570 C   0  0  0  0  0  0  0  0  0  0  0  0
   58.3750   32.9960   45.3060 C   0  0  0  0  0  0  0  0  0  0  0  0
   58.9860   34.0400   46.4750 S   0  0  0  0  0  0  0  0  0  0  0  0
   59.1800   32.8800   47.6800 C   0  0  0  0  0  0  0  0  0  0  0  0
   59.5721   33.0630   48.6913 H   0  0  0  0  0  0  0  0  0  0  0  0
   58.7610   31.6520   47.1810 C   0  0  0  0  0  0  0  0  0  0  0  0
   58.7893   30.7202   47.7649 H   0  0  0  0  0  0  0  0  0  0  0  0
   57.9240   33.4000   43.9330 C   0  0  0  0  0  0  0  0  0  0  0  0
   58.4665   34.3090   43.6338 H   0  0  0  0  0  0  0  0  0  0  0  0
   56.8393   33.5789   43.9700 H   0  0  0  0  0  0  0  0  0  0  0  0
   58.1880   32.3040   42.8990 C   0  0  0  0  0  0  0  0  0  0  0  0
   59.1370   31.8065   43.1476 H   0  0  0  0  0  0  0  0  0  0  0  0
   58.2275   32.7826   41.9094 H   0  0  0  0  0  0  0  0  0  0  0  0
   57.0730   31.2460   42.8600 C   0  0  0  0  0  0  0  0  0  0  0  0
   57.4161   30.3982   42.2488 H   0  0  0  0  0  0  0  0  0  0  0  0
   56.1799   31.7264   42.4338 H   0  0  0  0  0  0  0  0  0  0  0  0
   56.6900   30.7210   44.2540 C   0  0  0  0  0  0  0  0  0  0  0  0
   56.1968   29.7438   44.1456 H   0  0  0  0  0  0  0  0  0  0  0  0
   56.0131   31.4491   44.7247 H   0  0  0  0  0  0  0  0  0  0  0  0
   58.9460   26.9220   45.6070 C   0  0  0  0  0  0  0  0  0  0  0  0
   60.0333   27.0539   45.5055 H   0  0  0  0  0  0  0  0  0  0  0  0
   56.8780   22.9080   44.1950 C   0  0  0  0  0  0  0  0  0  0  0  0
   56.2169   23.6421   44.6788 H   0  0  0  0  0  0  0  0  0  0  0  0
   56.2540   21.6790   43.6710 C   0  0  0  0  0  0  0  0  0  0  0  0
   56.2500   21.4570   42.4320 O   0  0  0  0  0  0  0  0  0  0  0  0
   55.5790   20.7610   44.5410 N   0  0  0  0  0  0  0  0  0  0  0  0
   56.2160   20.0120   45.6200 C   0  0  0  0  0  0  0  0  0  0  0  0
   55.6405   19.0944   45.8119 H   0  0  0  0  0  0  0  0  0  0  0  0
   57.2436   19.7605   45.3187 H   0  0  0  0  0  0  0  0  0  0  0  0
   56.2670   20.8360   46.8780 C   0  0  0  0  0  0  0  0  0  0  0  0
   56.9790   20.3870   48.0030 C   0  0  0  0  0  0  0  0  0  0  0  0
   57.5133   19.4262   47.9656 H   0  0  0  0  0  0  0  0  0  0  0  0
   57.0110   21.1560   49.1690 C   0  0  0  0  0  0  0  0  0  0  0  0
   57.5702   20.8001   50.0469 H   0  0  0  0  0  0  0  0  0  0  0  0
   56.3320   22.3790   49.2210 C   0  0  0  0  0  0  0  0  0  0  0  0
   56.3570   22.9823   50.1405 H   0  0  0  0  0  0  0  0  0  0  0  0
   55.6220   22.8350   48.1060 C   0  0  0  0  0  0  0  0  0  0  0  0
   55.0951   23.7998   48.1450 H   0  0  0  0  0  0  0  0  0  0  0  0
   55.5830   22.0620   46.9410 C   0  0  0  0  0  0  0  0  0  0  0  0
   55.0135   22.4158   46.0689 H   0  0  0  0  0  0  0  0  0  0  0  0
  1  2  1  0
  2  3  1  0
  3  4  2  0
  3  5  1  0
  5  6  1  0
  6  7  2  0
  7  8  1  0
  7  9  1  0
  9 10  1  0
  9 11  2  0
 11 12  1  0
 11 13  1  0
 13 14  1  0
 14 15  2  0
 14 16  1  0
 16 17  1  0
 17 18  2  0
 18 19  1  0
 19 20  1  0
 20 21  1  0
 20 22  2  0
 22 23  1  0
 18 24  1  0
 24 25  1  0
 24 26  1  0
 24 27  1  0
 27 28  1  0
 27 29  1  0
 27 30  1  0
 30 31  1  0
 30 32  1  0
 30 33  1  0
 33 34  1  0
 33 35  1  0
 13 36  2  0
 36 37  1  0
  2 38  2  0
 38 39  1  0
 38 40  1  0
 40 41  2  0
 40 42  1  0
 42 43  1  0
 43 44  1  0
 43 45  1  0
 43 46  1  0
 46 47  2  0
 47 48  1  0
 47 49  1  0
 49 50  1  0
 49 51  2  0
 51 52  1  0
 51 53  1  0
 53 54  1  0
 53 55  2  0
 55 56  1  0
 36  6  1  0
 55 46  1  0
 33 16  1  0
 22 17  1  0
M  CHG  3   5  -1  10  -1  42  -1
M  END
>  <UniqueID>  (57) 
57

>  <SMILES>  (57) 
O=C(/C=C\C(=O)[N-]c1cc([O-])cc(C(=O)N2CCCCc3sccc32)c1)[N-]Cc1ccccc1

>  <Energy>  (57) 
103.85921065369419

>  <Genealogy>  (57) 
O=C(C=CC(=O)[N-]c1cc([O-])cc(C(=O)N2CCCCc3sccc32)c1)[N-]Cc1ccccc1 (protonated)
O=C(/C=C\C(=O)[N-]c1cc([O-])cc(C(=O)N2CCCCc3sccc32)c1)[N-]Cc1ccccc1 (cis-trans isomerization)
O=C(/C=C\C(=O)[N-]c1cc([O-])cc(C(=O)N2CCCCc3sccc32)c1)[N-]Cc1ccccc1 (3D coordinates assigned)
O=C(/C=C\C(=O)[N-]c1cc([O-])cc(C(=O)N2CCCCc3sccc32)c1)[N-]Cc1ccccc1 (nonaromatic ring conformer: 103.85921065369419 kcal/mol)

>  <smiles>  (57) 
O=C(C=CC(=O)Nc1cc(O)cc(C(=O)N2CCCCc3sccc32)c1)NCc1ccccc1

>  <score_type>  (57) 
oracle

>  <origin>  (57) 
adg

>  <m_score__min__energy>  (57) 
-12.34

>  <m_primary>  (57) 
energy

$$$$
57:0
     RDKit          3D

 60 63  0  0  1  0  0  0  0  0999 V2000
   57.0760   33.4790   46.9910 C   0  0  0  0  0  0  0  0  0  0  0  0
   58.5700   33.4930   47.0490 C   0  0  0  0  0  0  0  0  0  0  0  0
   59.1430   33.4620   48.3240 C   0  0  0  0  0  0  0  0  0  0  0  0
   60.5260   33.4540   48.3940 C   0  0  0  0  0  0  0  0  0  0  0  0
   61.3410   33.4720   47.2880 C   0  0  0  0  0  0  0  0  0  0  0  0
   62.7770   33.4340   47.4860 C   0  0  0  0  0  0  0  0  0  0  0  0
   63.5260   33.9950   46.6110 O   0  0  0  0  0  0  0  0  0  0  0  0
   63.4340   32.8220   48.5780 N   0  0  0  0  0  0  0  0  0  0  0  0
   62.9780   31.4930   48.9580 C   0  0  0  0  0  0  0  0  0  0  0  0
   63.3970   31.1120   50.3490 C   0  0  0  0  0  0  0  0  0  0  0  0
   64.8360   31.3740   50.5940 C   0  0  0  0  0  0  0  0  0  0  0  0
   65.6070   30.4820   51.3130 C   0  0  0  0  0  0  0  0  0  0  0  0
   66.9450   30.7190   51.5510 C   0  0  0  0  0  0  0  0  0  0  0  0
   67.4770   31.8940   51.0340 C   0  0  0  0  0  0  0  0  0  0  0  0
   66.6970   32.7750   50.3190 C   0  0  0  0  0  0  0  0  0  0  0  0
   65.3550   32.5540   50.0700 C   0  0  0  0  0  0  0  0  0  0  0  0
   64.5170   33.4940   49.3020 C   0  0  0  0  0  0  0  0  0  0  0  0
   60.7360   33.5020   46.0460 C   0  0  0  0  0  0  0  0  0  0  0  0
   59.3520   33.5130   45.9020 C   0  0  0  0  0  0  0  0  0  0  0  0
   56.3460   29.6380   44.8380 N   0  0  0  0  0  0  0  0  0  0  0  0
   56.8750   30.5920   44.1880 C   0  0  0  0  0  0  0  0  0  0  0  0
   58.0170   32.5670   42.7450 N   0  0  0  0  0  0  0  0  0  0  0  0
   57.3980   31.6110   42.0440 C   0  0  0  0  0  0  0  0  0  0  0  0
   56.8090   30.5900   42.7880 C   0  0  0  0  0  0  0  0  0  0  0  0
   56.2100   29.6180   42.0870 F   0  0  0  0  0  0  0  0  0  0  0  0
   58.0720   32.5520   44.0990 C   0  0  0  0  0  0  0  0  0  0  0  0
   58.6980   33.4890   44.6550 N   0  0  0  0  0  0  0  0  0  0  0  0
   57.0090   28.4300   45.2370 C   0  0  0  0  0  0  0  0  0  0  0  0
   58.4140   28.8500   45.7610 C   0  0  0  0  0  0  0  0  0  0  0  0
   59.4140   28.4400   44.6830 C   0  0  0  0  0  0  0  0  0  0  0  0
   58.6680   27.8940   46.9400 C   0  0  0  0  0  0  0  0  0  0  0  0
   57.5140   31.5870   44.8410 N   0  0  0  0  0  0  0  0  0  0  0  0
   56.6694   33.4752   48.0131 H   0  0  0  0  0  0  0  0  0  0  0  0
   56.7213   34.3739   46.4586 H   0  0  0  0  0  0  0  0  0  0  0  0
   56.7382   32.5776   46.4586 H   0  0  0  0  0  0  0  0  0  0  0  0
   58.5223   33.4447   49.2320 H   0  0  0  0  0  0  0  0  0  0  0  0
   60.9971   33.4321   49.3878 H   0  0  0  0  0  0  0  0  0  0  0  0
   61.8797   31.4685   48.9022 H   0  0  0  0  0  0  0  0  0  0  0  0
   63.4368   30.7733   48.2640 H   0  0  0  0  0  0  0  0  0  0  0  0
   62.8036   31.6942   51.0693 H   0  0  0  0  0  0  0  0  0  0  0  0
   63.2261   30.0319   50.4684 H   0  0  0  0  0  0  0  0  0  0  0  0
   65.1447   29.5636   51.7040 H   0  0  0  0  0  0  0  0  0  0  0  0
   67.5621   30.0108   52.1234 H   0  0  0  0  0  0  0  0  0  0  0  0
   68.5399   32.1243   51.1989 H   0  0  0  0  0  0  0  0  0  0  0  0
   67.1610   33.6932   49.9295 H   0  0  0  0  0  0  0  0  0  0  0  0
   64.0762   34.2226   49.9983 H   0  0  0  0  0  0  0  0  0  0  0  0
   65.1621   33.9832   48.5573 H   0  0  0  0  0  0  0  0  0  0  0  0
   61.3668   33.5176   45.1450 H   0  0  0  0  0  0  0  0  0  0  0  0
   58.4700   33.3450   42.2020 H   0  0  0  0  0  0  0  0  0  0  0  0
   57.3561   31.6293   40.9449 H   0  0  0  0  0  0  0  0  0  0  0  0
   56.4399   27.9296   46.0343 H   0  0  0  0  0  0  0  0  0  0  0  0
   57.0919   27.7252   44.3966 H   0  0  0  0  0  0  0  0  0  0  0  0
   58.4896   29.9174   46.0156 H   0  0  0  0  0  0  0  0  0  0  0  0
   60.3318   28.0637   45.1583 H   0  0  0  0  0  0  0  0  0  0  0  0
   58.9747   27.6494   44.0569 H   0  0  0  0  0  0  0  0  0  0  0  0
   59.6561   29.3114   44.0569 H   0  0  0  0  0  0  0  0  0  0  0  0
   58.5245   28.4341   47.8875 H   0  0  0  0  0  0  0  0  0  0  0  0
   57.9625   27.0517   46.8876 H   0  0  0  0  0  0  0  0  0  0  0  0
   59.6986   27.5129   46.8876 H   0  0  0  0  0  0  0  0  0  0  0  0
   57.5970   31.6610   45.8650 H   0  0  0  0  0  0  0  0  0  0  0  0
  1  2  1  0
  2  3  2  0
  3  4  1  0
  4  5  2  0
  5  6  1  0
  6  7  2  0
  6  8  1  0
  8  9  1  0
  9 10  1  0
 10 11  1  0
 11 12  2  0
 12 13  1  0
 13 14  2  0
 14 15  1  0
 15 16  2  0
 16 17  1  0
  5 18  1  0
 18 19  2  0
 19 20  1  0
 20 21  2  0
 21 22  1  0
 22 23  1  0
 23 24  2  0
 24 25  1  0
 24 26  1  0
 26 27  2  0
 27 28  1  0
 28 29  1  0
 29 30  1  0
 29 31  1  0
 26 32  1  0
 19  2  1  0
 32 21  1  0
 17  8  1  0
 16 11  1  0
  1 33  1  0
  1 34  1  0
  1 35  1  0
  3 36  1  0
  4 37  1  0
  9 38  1  0
  9 39  1  0
 10 40  1  0
 10 41  1  0
 12 42  1  0
 13 43  1  0
 14 44  1  0
 15 45  1  0
 17 46  1  0
 17 47  1  0
 18 48  1  0
 22 49  1  0
 23 50  1  0
 28 51  1  0
 28 52  1  0
 29 53  1  0
 30 54  1  0
 30 55  1  0
 30 56  1  0
 31 57  1  0
 31 58  1  0
 31 59  1  0
 32 60  1  0
M  END
>  <smiles>  (58) 
Cc1ccc(C(=O)N2CCc3ccccc3C2)cc1N=c1[nH]cc(F)c(=NCC(C)C)[nH]1

>  <score_type>  (58) 
oracle

>  <origin>  (58) 
adg

>  <m_score__min__energy>  (58) 
-10.84

>  <m_primary>  (58) 
energy

$$$$
58:0
     RDKit          3D

 39 42  0  0  0  0  0  0  0  0999 V2000
   55.1450   27.4920   45.3830 H   0  0  0  0  0  0  0  0  0  0  0  0
   54.9700   26.7120   46.0030 O   0  0  0  0  0  0  0  0  0  0  0  0
   55.9950   25.8360   46.3450 C   0  0  0  0  0  0  0  0  0  0  0  0
   55.8610   24.8260   47.2200 N   0  0  0  0  0  0  0  0  0  0  0  0
   57.0830   24.2530   47.2000 C   0  0  0  0  0  0  0  0  0  0  0  0
   57.3720   23.2460   47.8970 O   0  0  0  0  0  0  0  0  0  0  0  0
   57.9690   24.8380   46.3660 N   0  0  0  0  0  0  0  0  0  0  0  0
   57.2740   25.8660   45.8440 C   0  0  0  0  0  0  0  0  0  0  0  0
   57.7580   26.7460   44.7680 C   0  0  0  0  0  0  0  0  0  0  0  0
   58.0980   26.2648   43.8391 H   0  0  0  0  0  0  0  0  0  0  0  0
   57.8200   28.0900   44.8240 C   0  0  0  0  0  0  0  0  0  0  0  0
   57.3400   28.9050   43.8120 C   0  0  0  0  0  0  0  0  0  0  0  0
   56.8113   28.5797   42.9039 H   0  0  0  0  0  0  0  0  0  0  0  0
   57.6520   30.2030   44.1610 C   0  0  0  0  0  0  0  0  0  0  0  0
   57.3300   31.4070   43.3280 C   0  0  0  0  0  0  0  0  0  0  0  0
   57.1024   32.2582   43.9865 H   0  0  0  0  0  0  0  0  0  0  0  0
   58.1933   31.6552   42.6931 H   0  0  0  0  0  0  0  0  0  0  0  0
   56.4580   31.1911   42.6931 H   0  0  0  0  0  0  0  0  0  0  0  0
   58.2610   30.2330   45.3670 N   0  0  0  0  0  0  0  0  0  0  0  0
   58.6940   31.4160   46.0620 C   0  0  0  0  0  0  0  0  0  0  0  0
   57.7660   32.4100   46.4010 C   0  0  0  0  0  0  0  0  0  0  0  0
   56.7068   32.2871   46.1308 H   0  0  0  0  0  0  0  0  0  0  0  0
   58.1830   33.5560   47.0810 C   0  0  0  0  0  0  0  0  0  0  0  0
   57.4509   34.3335   47.3446 H   0  0  0  0  0  0  0  0  0  0  0  0
   59.5270   33.7190   47.4280 C   0  0  0  0  0  0  0  0  0  0  0  0
   59.8475   34.6244   47.9643 H   0  0  0  0  0  0  0  0  0  0  0  0
   60.4730   32.7310   47.0950 C   0  0  0  0  0  0  0  0  0  0  0  0
   61.9020   32.8870   47.4550 C   0  0  0  0  0  0  0  0  0  0  0  0
   62.7150   33.8350   46.9520 N   0  0  0  0  0  0  0  0  0  0  0  0
   63.9050   33.6540   47.5060 N   0  0  0  0  0  0  0  0  0  0  0  0
   63.8930   32.6290   48.3450 N   0  0  0  0  0  0  0  0  0  0  0  0
   62.6460   32.1260   48.3340 C   0  0  0  0  0  0  0  0  0  0  0  0
   62.2853   31.2664   48.9179 H   0  0  0  0  0  0  0  0  0  0  0  0
   60.0440   31.5810   46.4090 C   0  0  0  0  0  0  0  0  0  0  0  0
   60.7739   30.8027   46.1415 H   0  0  0  0  0  0  0  0  0  0  0  0
   58.3440   28.9480   45.8040 C   0  0  0  0  0  0  0  0  0  0  0  0
   58.7090   28.6200   47.0530 C   0  0  0  0  0  0  0  0  0  0  0  0
   59.1085   29.3900   47.7294 H   0  0  0  0  0  0  0  0  0  0  0  0
   58.6087   27.5811   47.4004 H   0  0  0  0  0  0  0  0  0  0  0  0
  1  2  1  0
  2  3  1  0
  3  4  1  0
  4  5  1  0
  5  6  2  0
  5  7  1  0
  7  8  1  0
  8  9  1  0
  9 10  1  0
  9 11  2  0
 11 12  1  0
 12 13  1  0
 12 14  2  0
 14 15  1  0
 15 16  1  0
 15 17  1  0
 15 18  1  0
 14 19  1  0
 19 20  1  0
 20 21  2  0
 21 22  1  0
 21 23  1  0
 23 24  1  0
 23 25  2  0
 25 26  1  0
 25 27  1  0
 27 28  1  0
 28 29  1  0
 29 30  2  0
 30 31  1  0
 31 32  1  0
 32 33  1  0
 27 34  2  0
 34 35  1  0
 19 36  1  0
 36 37  2  0
 37 38  1  0
 37 39  1  0
  8  3  2  0
 36 11  1  0
 34 20  1  0
 32 28  2  0
M  CHG  3   4  -1   7  -1  31  -1
M  END
>  <UniqueID>  (59) 
58

>  <SMILES>  (59) 
C=c1/c(=C\c2[n-]c(=O)[n-]c2O)cc(C)n1-c1cccc(-c2c[n-]nn2)c1

>  <Energy>  (59) 
152.1665610790829

>  <Genealogy>  (59) 
C=c1c(=Cc2[n-]c(=O)[n-]c2O)cc(C)n1-c1cccc(-c2c[n-]nn2)c1 (protonated)
C=c1/c(=C\c2[n-]c(=O)[n-]c2O)cc(C)n1-c1cccc(-c2c[n-]nn2)c1 (cis-trans isomerization)
C=c1/c(=C\c2[n-]c(=O)[n-]c2O)cc(C)n1-c1cccc(-c2c[n-]nn2)c1 (3D coordinates assigned)
C=c1/c(=C\c2[n-]c(=O)[n-]c2O)cc(C)n1-c1cccc(-c2c[n-]nn2)c1 (optimized conformer: 152.1665610790829 kcal/mol)

>  <smiles>  (59) 
C=c1c(=Cc2[nH]c(=O)[nH]c2O)cc(C)n1-c1cccc(-c2c[nH]nn2)c1

>  <score_type>  (59) 
oracle

>  <origin>  (59) 
adg

>  <m_score__min__energy>  (59) 
-14.06

>  <m_primary>  (59) 
energy

$$$$
59:0
     RDKit          3D

 57 60  0  0  0  0  0  0  0  0999 V2000
   63.0550   34.0390   46.0740 O   0  0  0  0  0  0  0  0  0  0  0  0
   62.1490   33.8570   46.9290 C   0  0  0  0  0  0  0  0  0  0  0  0
   62.4860   33.8940   48.3200 N   0  0  0  0  0  0  0  0  0  0  0  0
   62.6230   32.7410   49.1650 C   0  0  0  0  0  0  0  0  0  0  0  0
   63.7330   32.6470   50.0120 C   0  0  0  0  0  0  0  0  0  0  0  0
   63.9200   31.5100   50.8040 C   0  0  0  0  0  0  0  0  0  0  0  0
   63.0100   30.4510   50.7390 C   0  0  0  0  0  0  0  0  0  0  0  0
   61.9000   30.5270   49.8870 C   0  0  0  0  0  0  0  0  0  0  0  0
   60.7750   29.1700   49.7620 S   0  0  0  0  0  0  0  0  0  0  0  0
   61.2340   28.0670   50.6770 O   0  0  0  0  0  0  0  0  0  0  0  0
   60.7900   28.6400   48.3560 O   0  0  0  0  0  0  0  0  0  0  0  0
   59.1410   29.6360   50.1720 N   0  0  0  0  0  0  0  0  0  0  0  0
   59.0330   29.9260   51.6180 C   0  0  0  0  0  0  0  0  0  0  0  0
   57.7420   30.6820   51.9370 C   0  0  0  0  0  0  0  0  0  0  0  0
   57.7190   32.0510   51.2350 C   0  0  0  0  0  0  0  0  0  0  0  0
   58.5810   32.0830   49.9620 C   0  0  0  0  0  0  0  0  0  0  0  0
   58.6330   30.7080   49.2800 C   0  0  0  0  0  0  0  0  0  0  0  0
   61.7110   31.6720   49.0990 C   0  0  0  0  0  0  0  0  0  0  0  0
   60.7560   33.6510   46.4830 C   0  0  0  0  0  0  0  0  0  0  0  0
   59.9870   34.7390   46.0420 C   0  0  0  0  0  0  0  0  0  0  0  0
   58.6760   34.5410   45.6060 C   0  0  0  0  0  0  0  0  0  0  0  0
   58.1050   33.2670   45.6490 C   0  0  0  0  0  0  0  0  0  0  0  0
   58.8510   32.1740   46.1200 C   0  0  0  0  0  0  0  0  0  0  0  0
   58.2850   30.8540   46.1780 N   0  0  0  0  0  0  0  0  0  0  0  0
   59.0210   29.6610   45.8450 C   0  0  0  0  0  0  0  0  0  0  0  0
   60.2140   29.7500   45.4430 O   0  0  0  0  0  0  0  0  0  0  0  0
   58.4020   28.3190   45.9600 C   0  0  0  0  0  0  0  0  0  0  0  0
   59.2220   27.1810   46.0770 C   0  0  0  0  0  0  0  0  0  0  0  0
   58.6560   25.9070   46.1810 C   0  0  0  0  0  0  0  0  0  0  0  0
   57.2690   25.7510   46.1600 C   0  0  0  0  0  0  0  0  0  0  0  0
   56.4420   26.8710   46.0280 C   0  0  0  0  0  0  0  0  0  0  0  0
   55.0630   26.7140   45.9920 O   0  0  0  0  0  0  0  0  0  0  0  0
   57.0030   28.1490   45.9260 C   0  0  0  0  0  0  0  0  0  0  0  0
   60.1880   32.3660   46.4970 C   0  0  0  0  0  0  0  0  0  0  0  0
   64.4610   33.4705   50.0549 H   0  0  0  0  0  0  0  0  0  0  0  0
   64.7856   31.4487   51.4800 H   0  0  0  0  0  0  0  0  0  0  0  0
   63.1656   29.5554   51.3584 H   0  0  0  0  0  0  0  0  0  0  0  0
   59.0403   28.9777   52.1754 H   0  0  0  0  0  0  0  0  0  0  0  0
   59.8861   30.5555   51.9111 H   0  0  0  0  0  0  0  0  0  0  0  0
   56.8824   30.0872   51.5944 H   0  0  0  0  0  0  0  0  0  0  0  0
   57.6890   30.8436   53.0238 H   0  0  0  0  0  0  0  0  0  0  0  0
   56.6802   32.2885   50.9620 H   0  0  0  0  0  0  0  0  0  0  0  0
   58.1360   32.7893   51.9357 H   0  0  0  0  0  0  0  0  0  0  0  0
   58.1537   32.8139   49.2597 H   0  0  0  0  0  0  0  0  0  0  0  0
   59.6054   32.3647   50.2470 H   0  0  0  0  0  0  0  0  0  0  0  0
   57.6172   30.4402   48.9536 H   0  0  0  0  0  0  0  0  0  0  0  0
   59.3295   30.7877   48.4324 H   0  0  0  0  0  0  0  0  0  0  0  0
   60.8439   31.7344   48.4250 H   0  0  0  0  0  0  0  0  0  0  0  0
   60.4187   35.7507   46.0400 H   0  0  0  0  0  0  0  0  0  0  0  0
   58.0902   35.3915   45.2271 H   0  0  0  0  0  0  0  0  0  0  0  0
   57.0680   33.1192   45.3130 H   0  0  0  0  0  0  0  0  0  0  0  0
   57.2690   30.7840   46.4070 H   0  0  0  0  0  0  0  0  0  0  0  0
   60.3160   27.2949   46.0867 H   0  0  0  0  0  0  0  0  0  0  0  0
   59.3056   25.0248   46.2797 H   0  0  0  0  0  0  0  0  0  0  0  0
   56.8267   24.7476   46.2472 H   0  0  0  0  0  0  0  0  0  0  0  0
   56.3482   29.0264   45.8186 H   0  0  0  0  0  0  0  0  0  0  0  0
   60.7969   31.5037   46.8062 H   0  0  0  0  0  0  0  0  0  0  0  0
  1  2  2  0
  2  3  1  0
  3  4  1  0
  4  5  2  0
  5  6  1  0
  6  7  2  0
  7  8  1  0
  8  9  1  0
  9 10  2  0
  9 11  2  0
  9 12  1  0
 12 13  1  0
 13 14  1  0
 14 15  1  0
 15 16  1  0
 16 17  1  0
  8 18  2  0
  2 19  1  0
 19 20  2  0
 20 21  1  0
 21 22  2  0
 22 23  1  0
 23 24  1  0
 24 25  1  0
 25 26  2  0
 25 27  1  0
 27 28  2  0
 28 29  1  0
 29 30  2  0
 30 31  1  0
 31 32  1  0
 31 33  2  0
 23 34  2  0
 18  4  1  0
 34 19  1  0
 17 12  1  0
 33 27  1  0
  5 35  1  0
  6 36  1  0
  7 37  1  0
 13 38  1  0
 13 39  1  0
 14 40  1  0
 14 41  1  0
 15 42  1  0
 15 43  1  0
 16 44  1  0
 16 45  1  0
 17 46  1  0
 17 47  1  0
 18 48  1  0
 20 49  1  0
 21 50  1  0
 22 51  1  0
 24 52  1  0
 28 53  1  0
 29 54  1  0
 30 55  1  0
 33 56  1  0
 34 57  1  0
M  CHG  2   3  -1  32  -1
M  END
>  <UniqueID>  (60) 
59

>  <SMILES>  (60) 
O=C([N-]c1cccc(S(=O)(=O)N2CCCCC2)c1)c1cccc(NC(=O)c2cccc([O-])c2)c1

>  <Energy>  (60) 
76.56612045750018

>  <Genealogy>  (60) 
O=C([N-]c1cccc(S(=O)(=O)N2CCCCC2)c1)c1cccc(NC(=O)c2cccc([O-])c2)c1 (protonated)
O=C([N-]c1cccc(S(=O)(=O)N2CCCCC2)c1)c1cccc(NC(=O)c2cccc([O-])c2)c1 (3D coordinates assigned)
O=C([N-]c1cccc(S(=O)(=O)N2CCCCC2)c1)c1cccc(NC(=O)c2cccc([O-])c2)c1 (nonaromatic ring conformer: 76.56612045750018 kcal/mol)

>  <smiles>  (60) 
O=C(Nc1cccc(C(=O)Nc2cccc(S(=O)(=O)N3CCCCC3)c2)c1)c1cccc(O)c1

>  <score_type>  (60) 
oracle

>  <origin>  (60) 
adg

>  <m_score__min__energy>  (60) 
-16.390000000000001

>  <m_primary>  (60) 
energy

$$$$
60:0
     RDKit          3D

 58 61  0  0  0  0  0  0  0  0999 V2000
   57.8520   24.4710   45.1330 C   0  0  0  0  0  0  0  0  0  0  0  0
   57.6760   25.9350   44.8590 C   0  0  0  0  0  0  0  0  0  0  0  0
   57.0740   26.7670   45.8150 C   0  0  0  0  0  0  0  0  0  0  0  0
   56.8850   28.1260   45.5480 C   0  0  0  0  0  0  0  0  0  0  0  0
   57.2990   28.6680   44.3230 C   0  0  0  0  0  0  0  0  0  0  0  0
   57.0570   30.3760   43.9680 S   0  0  0  0  0  0  0  0  0  0  0  0
   56.9660   30.5410   42.4780 O   0  0  0  0  0  0  0  0  0  0  0  0
   55.7740   30.8700   44.5760 O   0  0  0  0  0  0  0  0  0  0  0  0
   58.3860   31.3240   44.5560 N   0  0  0  0  0  0  0  0  0  0  0  0
   58.7080   31.5390   45.9350 C   0  0  0  0  0  0  0  0  0  0  0  0
   57.8000   31.4070   46.7940 O   0  0  0  0  0  0  0  0  0  0  0  0
   60.0770   31.8800   46.3750 C   0  0  0  0  0  0  0  0  0  0  0  0
   60.5000   33.2140   46.2810 C   0  0  0  0  0  0  0  0  0  0  0  0
   61.7670   33.5910   46.7270 C   0  0  0  0  0  0  0  0  0  0  0  0
   62.6310   32.6440   47.2940 C   0  0  0  0  0  0  0  0  0  0  0  0
   63.9690   33.0180   47.6890 N   0  0  0  0  0  0  0  0  0  0  0  0
   64.0070   33.4660   49.0910 C   0  0  0  0  0  0  0  0  0  0  0  0
   62.7950   32.9960   49.8620 C   0  0  0  0  0  0  0  0  0  0  0  0
   61.6860   33.8430   50.0220 C   0  0  0  0  0  0  0  0  0  0  0  0
   60.5310   33.3780   50.6550 C   0  0  0  0  0  0  0  0  0  0  0  0
   60.4660   32.0620   51.1220 C   0  0  0  0  0  0  0  0  0  0  0  0
   61.5640   31.2070   50.9620 C   0  0  0  0  0  0  0  0  0  0  0  0
   61.4870   29.8430   51.4140 C   0  0  0  0  0  0  0  0  0  0  0  0
   61.4260   28.7460   51.7770 N   0  0  0  0  0  0  0  0  0  0  0  0
   62.7280   31.6750   50.3400 C   0  0  0  0  0  0  0  0  0  0  0  0
   62.2160   31.3050   47.3830 C   0  0  0  0  0  0  0  0  0  0  0  0
   60.9630   30.9060   46.8950 C   0  0  0  0  0  0  0  0  0  0  0  0
   60.6260   29.4670   46.9290 C   0  0  0  0  0  0  0  0  0  0  0  0
   60.7180   28.6870   45.7640 C   0  0  0  0  0  0  0  0  0  0  0  0
   60.4360   27.3190   45.8070 C   0  0  0  0  0  0  0  0  0  0  0  0
   60.0810   26.7160   47.0170 C   0  0  0  0  0  0  0  0  0  0  0  0
   60.0200   27.4780   48.1870 C   0  0  0  0  0  0  0  0  0  0  0  0
   60.3040   28.8460   48.1460 C   0  0  0  0  0  0  0  0  0  0  0  0
   57.8910   27.8380   43.3640 C   0  0  0  0  0  0  0  0  0  0  0  0
   58.0650   26.4740   43.6230 C   0  0  0  0  0  0  0  0  0  0  0  0
   57.8724   24.3012   46.2196 H   0  0  0  0  0  0  0  0  0  0  0  0
   57.0146   23.9118   44.6902 H   0  0  0  0  0  0  0  0  0  0  0  0
   58.7981   24.1262   44.6902 H   0  0  0  0  0  0  0  0  0  0  0  0
   56.7493   26.3480   46.7789 H   0  0  0  0  0  0  0  0  0  0  0  0
   56.4101   28.7720   46.3011 H   0  0  0  0  0  0  0  0  0  0  0  0
   59.8263   33.9701   45.8515 H   0  0  0  0  0  0  0  0  0  0  0  0
   62.0901   34.6383   46.6331 H   0  0  0  0  0  0  0  0  0  0  0  0
   64.6040   32.1910   47.5830 H   0  0  0  0  0  0  0  0  0  0  0  0
   64.3380   33.7710   47.0620 H   0  0  0  0  0  0  0  0  0  0  0  0
   64.9119   33.0631   49.5694 H   0  0  0  0  0  0  0  0  0  0  0  0
   64.0127   34.5660   49.0991 H   0  0  0  0  0  0  0  0  0  0  0  0
   61.7273   34.8764   49.6474 H   0  0  0  0  0  0  0  0  0  0  0  0
   59.6697   34.0495   50.7865 H   0  0  0  0  0  0  0  0  0  0  0  0
   59.5526   31.6979   51.6151 H   0  0  0  0  0  0  0  0  0  0  0  0
   63.5939   31.0064   50.2247 H   0  0  0  0  0  0  0  0  0  0  0  0
   62.8824   30.5595   47.8414 H   0  0  0  0  0  0  0  0  0  0  0  0
   61.0134   29.1554   44.8136 H   0  0  0  0  0  0  0  0  0  0  0  0
   60.4934   26.7166   44.8884 H   0  0  0  0  0  0  0  0  0  0  0  0
   59.8495   25.6411   47.0484 H   0  0  0  0  0  0  0  0  0  0  0  0
   59.7484   27.0011   49.1403 H   0  0  0  0  0  0  0  0  0  0  0  0
   60.2750   29.4389   49.0721 H   0  0  0  0  0  0  0  0  0  0  0  0
   58.2207   28.2596   42.4030 H   0  0  0  0  0  0  0  0  0  0  0  0
   58.5080   25.8222   42.8556 H   0  0  0  0  0  0  0  0  0  0  0  0
  1  2  1  0
  2  3  2  0
  3  4  1  0
  4  5  2  0
  5  6  1  0
  6  7  2  0
  6  8  2  0
  6  9  1  0
  9 10  1  0
 10 11  2  0
 10 12  1  0
 12 13  2  0
 13 14  1  0
 14 15  2  0
 15 16  1  0
 16 17  1  0
 17 18  1  0
 18 19  2  0
 19 20  1  0
 20 21  2  0
 21 22  1  0
 22 23  1  0
 23 24  3  0
 22 25  2  0
 15 26  1  0
 26 27  2  0
 27 28  1  0
 28 29  2  0
 29 30  1  0
 30 31  2  0
 31 32  1  0
 32 33  2  0
  5 34  1  0
 34 35  2  0
 35  2  1  0
 27 12  1  0
 33 28  1  0
 25 18  1  0
  1 36  1  0
  1 37  1  0
  1 38  1  0
  3 39  1  0
  4 40  1  0
 13 41  1  0
 14 42  1  0
 16 43  1  0
 16 44  1  0
 17 45  1  0
 17 46  1  0
 19 47  1  0
 20 48  1  0
 21 49  1  0
 25 50  1  0
 26 51  1  0
 29 52  1  0
 30 53  1  0
 31 54  1  0
 32 55  1  0
 33 56  1  0
 34 57  1  0
 35 58  1  0
M  CHG  2   9  -1  16   1
M  END
>  <UniqueID>  (61) 
60

>  <SMILES>  (61) 
Cc1ccc(S(=O)(=O)[N-]C(=O)c2ccc([NH2+]Cc3cccc(C#N)c3)cc2-c2ccccc2)cc1

>  <Energy>  (61) 
72.10437931160041

>  <Genealogy>  (61) 
Cc1ccc(S(=O)(=O)[N-]C(=O)c2ccc([NH2+]Cc3cccc(C#N)c3)cc2-c2ccccc2)cc1 (protonated)
Cc1ccc(S(=O)(=O)[N-]C(=O)c2ccc([NH2+]Cc3cccc(C#N)c3)cc2-c2ccccc2)cc1 (3D coordinates assigned)
Cc1ccc(S(=O)(=O)[N-]C(=O)c2ccc([NH2+]Cc3cccc(C#N)c3)cc2-c2ccccc2)cc1 (optimized conformer: 72.10437931160041 kcal/mol)

>  <smiles>  (61) 
Cc1ccc(S(=O)(=O)NC(=O)c2ccc(NCc3cccc(C#N)c3)cc2-c2ccccc2)cc1

>  <score_type>  (61) 
oracle

>  <origin>  (61) 
adg

>  <m_score__min__energy>  (61) 
-11.08

>  <m_primary>  (61) 
energy

$$$$
61:0
     RDKit          3D

 68 71  0  0  0  0  0  0  0  0999 V2000
   64.5642   31.4260   48.1224 H   0  0  0  0  0  0  0  0  0  0  0  0
   63.7750   32.1330   47.8270 C   0  0  0  0  0  0  0  0  0  0  0  0
   62.5160   32.0900   48.4470 C   0  0  0  0  0  0  0  0  0  0  0  0
   62.2040   31.0930   49.4950 C   0  0  0  0  0  0  0  0  0  0  0  0
   62.5270   31.2960   50.8510 C   0  0  0  0  0  0  0  0  0  0  0  0
   63.2730   32.7820   51.4360 Cl  0  0  0  0  0  0  0  0  0  0  0  0
   62.1780   30.3210   51.7860 C   0  0  0  0  0  0  0  0  0  0  0  0
   62.4413   30.4621   52.8446 H   0  0  0  0  0  0  0  0  0  0  0  0
   61.5160   29.1990   51.4010 N   0  0  0  0  0  0  0  0  0  0  0  0
   61.2620   28.4980   52.1350 H   0  0  0  0  0  0  0  0  0  0  0  0
   61.1600   28.9760   50.1050 C   0  0  0  0  0  0  0  0  0  0  0  0
   60.5010   27.8840   49.8190 N   0  0  0  0  0  0  0  0  0  0  0  0
   60.6920   26.9640   48.6930 C   0  0  0  0  0  0  0  0  0  0  0  0
   61.7524   26.9734   48.4006 H   0  0  0  0  0  0  0  0  0  0  0  0
   60.3813   25.9589   49.0142 H   0  0  0  0  0  0  0  0  0  0  0  0
   59.8330   27.3680   47.4750 C   0  0  2  0  0  0  0  0  0  0  0  0
   59.3570   28.3296   47.7171 H   0  0  0  0  0  0  0  0  0  0  0  0
   58.7370   26.3020   47.2170 C   0  0  0  0  0  0  0  0  0  0  0  0
   59.1535   25.3123   47.4558 H   0  0  0  0  0  0  0  0  0  0  0  0
   57.8799   26.5648   47.8545 H   0  0  0  0  0  0  0  0  0  0  0  0
   58.2210   26.2740   45.7620 C   0  0  0  0  0  0  0  0  0  0  0  0
   58.8055   25.5339   45.1958 H   0  0  0  0  0  0  0  0  0  0  0  0
   57.1531   26.0120   45.7938 H   0  0  0  0  0  0  0  0  0  0  0  0
   58.3430   27.6340   45.0630 C   0  0  1  0  0  0  0  0  0  0  0  0
   57.9901   27.5374   44.0256 H   0  0  0  0  0  0  0  0  0  0  0  0
   57.5150   28.6190   45.7710 N   0  0  0  0  0  0  0  0  0  0  0  0
   56.5860   29.5830   44.6600 S   0  0  0  0  0  0  0  0  0  0  0  0
   56.8910   31.0400   44.8800 O   0  0  0  0  0  0  0  0  0  0  0  0
   55.1140   29.3450   44.8570 O   0  0  0  0  0  0  0  0  0  0  0  0
   57.0320   29.1330   42.9990 C   0  0  0  0  0  0  0  0  0  0  0  0
   57.8061   28.3520   43.0260 H   0  0  0  0  0  0  0  0  0  0  0  0
   56.1450   28.7521   42.4716 H   0  0  0  0  0  0  0  0  0  0  0  0
   57.4208   30.0165   42.4716 H   0  0  0  0  0  0  0  0  0  0  0  0
   59.8200   28.1000   45.0220 C   0  0  0  0  0  0  0  0  0  0  0  0
   60.2717   27.7327   44.0887 H   0  0  0  0  0  0  0  0  0  0  0  0
   59.8067   29.1981   45.0860 H   0  0  0  0  0  0  0  0  0  0  0  0
   60.6760   27.5970   46.2050 C   0  0  0  0  0  0  0  0  0  0  0  0
   61.1524   26.6475   45.9196 H   0  0  0  0  0  0  0  0  0  0  0  0
   61.4270   28.3682   46.4316 H   0  0  0  0  0  0  0  0  0  0  0  0
   61.5110   29.9290   49.1270 C   0  0  0  0  0  0  0  0  0  0  0  0
   61.2414   29.7601   48.0740 H   0  0  0  0  0  0  0  0  0  0  0  0
   61.5410   32.9480   48.0380 N   0  0  0  0  0  0  0  0  0  0  0  0
   61.7400   33.8760   47.0650 C   0  0  0  0  0  0  0  0  0  0  0  0
   60.7480   34.6530   46.7390 N   0  0  0  0  0  0  0  0  0  0  0  0
   59.3860   34.2350   46.4160 C   0  0  0  0  0  0  0  0  0  0  0  0
   59.3075   34.0348   45.3372 H   0  0  0  0  0  0  0  0  0  0  0  0
   58.6779   35.0320   46.6871 H   0  0  0  0  0  0  0  0  0  0  0  0
   59.0640   32.9860   47.1850 C   0  0  0  0  0  0  0  0  0  0  0  0
   59.1360   31.7300   46.5640 C   0  0  0  0  0  0  0  0  0  0  0  0
   59.3837   31.6607   45.4945 H   0  0  0  0  0  0  0  0  0  0  0  0
   58.8940   30.5660   47.3000 C   0  0  0  0  0  0  0  0  0  0  0  0
   58.9424   29.5845   46.8057 H   0  0  0  0  0  0  0  0  0  0  0  0
   58.5910   30.6460   48.6610 C   0  0  0  0  0  0  0  0  0  0  0  0
   58.4081   29.7266   49.2366 H   0  0  0  0  0  0  0  0  0  0  0  0
   58.5190   31.8950   49.2970 C   0  0  0  0  0  0  0  0  0  0  0  0
   58.2470   31.9800   50.7760 C   0  0  0  0  0  0  0  0  0  0  0  0
   58.5701   31.0449   51.2568 H   0  0  0  0  0  0  0  0  0  0  0  0
   57.1688   32.1352   50.9288 H   0  0  0  0  0  0  0  0  0  0  0  0
   59.0030   33.1490   51.3970 C   0  0  0  0  0  0  0  0  0  0  0  0
   58.9554   33.0754   52.4935 H   0  0  0  0  0  0  0  0  0  0  0  0
   60.0537   33.1198   51.0728 H   0  0  0  0  0  0  0  0  0  0  0  0
   58.5454   34.0953   51.0728 H   0  0  0  0  0  0  0  0  0  0  0  0
   58.7690   33.0630   48.5570 C   0  0  0  0  0  0  0  0  0  0  0  0
   58.7336   34.0435   49.0544 H   0  0  0  0  0  0  0  0  0  0  0  0
   63.0040   33.9630   46.4460 C   0  0  0  0  0  0  0  0  0  0  0  0
   63.1910   34.7171   45.6673 H   0  0  0  0  0  0  0  0  0  0  0  0
   64.0150   33.0820   46.8320 C   0  0  0  0  0  0  0  0  0  0  0  0
   65.0029   33.1355   46.3512 H   0  0  0  0  0  0  0  0  0  0  0  0
  1  2  1  0
  2  3  2  0
  3  4  1  0
  4  5  1  0
  5  6  1  0
  5  7  2  0
  7  8  1  0
  7  9  1  0
  9 10  1  0
  9 11  1  0
 11 12  2  3
 12 13  1  0
 13 14  1  0
 13 15  1  0
 13 16  1  0
 16 17  1  1
 16 18  1  0
 18 19  1  0
 18 20  1  0
 18 21  1  0
 21 22  1  0
 21 23  1  0
 21 24  1  0
 24 25  1  6
 24 26  1  0
 26 27  1  0
 27 28  2  0
 27 29  2  0
 27 30  1  0
 30 31  1  0
 30 32  1  0
 30 33  1  0
 24 34  1  0
 34 35  1  0
 34 36  1  0
 34 37  1  0
 37 38  1  0
 37 39  1  0
 11 40  1  0
 40 41  1  0
  3 42  1  0
 42 43  1  0
 43 44  2  0
 44 45  1  0
 45 46  1  0
 45 47  1  0
 45 48  1  0
 48 49  2  0
 49 50  1  0
 49 51  1  0
 51 52  1  0
 51 53  2  0
 53 54  1  0
 53 55  1  0
 55 56  1  0
 56 57  1  0
 56 58  1  0
 56 59  1  0
 59 60  1  0
 59 61  1  0
 59 62  1  0
 55 63  2  0
 63 64  1  0
 43 65  1  0
 65 66  1  0
 65 67  2  0
 67 68  1  0
 67  2  1  0
 40  4  2  0
 63 48  1  0
 37 16  1  0
M  CHG  2  26  -1  42  -1
M  END
>  <UniqueID>  (62) 
61

>  <SMILES>  (62) 
CCc1cccc(C/N=c2\cccc(-c3cc(=NCC4CCC([N-]S(C)(=O)=O)CC4)[nH]cc3Cl)[n-]2)c1

>  <Energy>  (62) 
76.73851682202552

>  <Genealogy>  (62) 
CCc1cccc(CN=c2cccc(-c3cc(=NCC4CCC([N-]S(C)(=O)=O)CC4)[nH]cc3Cl)[n-]2)c1 (protonated)
CCc1cccc(C/N=c2\cccc(-c3cc(=NCC4CCC([N-]S(C)(=O)=O)CC4)[nH]cc3Cl)[n-]2)c1 (cis-trans isomerization)
CCc1cccc(C/N=c2\cccc(-c3cc(=NCC4CCC([N-]S(C)(=O)=O)CC4)[nH]cc3Cl)[n-]2)c1 (3D coordinates assigned)
CCc1cccc(C/N=c2\cccc(-c3cc(=NCC4CCC([N-]S(C)(=O)=O)CC4)[nH]cc3Cl)[n-]2)c1 (nonaromatic ring conformer: 76.73851682202552 kcal/mol)

>  <smiles>  (62) 
CCc1cccc(CN=c2cccc(-c3cc(=NCC4CCC(NS(C)(=O)=O)CC4)[nH]cc3Cl)[nH]2)c1

>  <score_type>  (62) 
oracle

>  <origin>  (62) 
adg

>  <m_score__min__energy>  (62) 
-13.99

>  <m_primary>  (62) 
energy

$$$$
62:0
     RDKit          3D

 46 48  0  0  0  0  0  0  0  0999 V2000
   56.3700   30.3770   42.9950 O   0  0  0  0  0  0  0  0  0  0  0  0
   57.1810   30.4750   43.9550 C   0  0  0  0  0  0  0  0  0  0  0  0
   58.1380   29.4270   44.1530 N   0  0  0  0  0  0  0  0  0  0  0  0
   57.9330   28.2180   44.8960 C   0  0  0  0  0  0  0  0  0  0  0  0
   59.0140   27.4330   45.3290 C   0  0  0  0  0  0  0  0  0  0  0  0
   58.7870   26.2750   46.0790 C   0  0  0  0  0  0  0  0  0  0  0  0
   57.4830   25.9040   46.4170 C   0  0  0  0  0  0  0  0  0  0  0  0
   56.4010   26.6950   46.0140 C   0  0  0  0  0  0  0  0  0  0  0  0
   55.1060   26.3220   46.3690 O   0  0  0  0  0  0  0  0  0  0  0  0
   56.6300   27.8560   45.2610 C   0  0  0  0  0  0  0  0  0  0  0  0
   57.2090   31.7500   44.7740 C   0  0  0  0  0  0  0  0  0  0  0  0
   57.9160   31.5130   46.1310 C   0  0  0  0  0  0  0  0  0  0  0  0
   59.3940   31.9310   46.0840 C   0  0  0  0  0  0  0  0  0  0  0  0
   59.5830   33.3550   45.7070 N   0  0  0  0  0  0  0  0  0  0  0  0
   59.9030   34.3440   47.1120 S   0  0  0  0  0  0  0  0  0  0  0  0
   59.8750   35.7980   46.7330 O   0  0  0  0  0  0  0  0  0  0  0  0
   58.8510   34.0890   48.1570 O   0  0  0  0  0  0  0  0  0  0  0  0
   61.4990   33.9610   47.7520 C   0  0  0  0  0  0  0  0  0  0  0  0
   62.5040   33.4560   46.9160 C   0  0  0  0  0  0  0  0  0  0  0  0
   63.7700   33.1640   47.4350 C   0  0  0  0  0  0  0  0  0  0  0  0
   64.0440   33.3720   48.8020 C   0  0  0  0  0  0  0  0  0  0  0  0
   65.3290   33.0880   49.3770 N   0  0  0  0  0  0  0  0  0  0  0  0
   65.5420   32.1390   50.2010 C   0  0  0  0  0  0  0  0  0  0  0  0
   65.8130   30.9410   51.2420 S   0  0  0  0  0  0  0  0  0  0  0  0
   63.0320   33.8740   49.6320 C   0  0  0  0  0  0  0  0  0  0  0  0
   61.7690   34.1670   49.1100 C   0  0  0  0  0  0  0  0  0  0  0  0
   58.4710   33.9390   44.9270 C   0  0  0  0  0  0  0  0  0  0  0  0
   57.8530   32.9080   43.9770 C   0  0  0  0  0  0  0  0  0  0  0  0
   60.0428   27.7302   45.0773 H   0  0  0  0  0  0  0  0  0  0  0  0
   59.6360   25.6553   46.4033 H   0  0  0  0  0  0  0  0  0  0  0  0
   57.3065   24.9886   47.0009 H   0  0  0  0  0  0  0  0  0  0  0  0
   54.2970   26.7160   45.9060 H   0  0  0  0  0  0  0  0  0  0  0  0
   55.7815   28.4858   44.9554 H   0  0  0  0  0  0  0  0  0  0  0  0
   56.1726   32.0476   44.9916 H   0  0  0  0  0  0  0  0  0  0  0  0
   57.4040   32.1010   46.9069 H   0  0  0  0  0  0  0  0  0  0  0  0
   57.8715   30.4374   46.3570 H   0  0  0  0  0  0  0  0  0  0  0  0
   59.8355   31.7702   47.0786 H   0  0  0  0  0  0  0  0  0  0  0  0
   59.8846   31.3188   45.3129 H   0  0  0  0  0  0  0  0  0  0  0  0
   62.2969   33.2887   45.8487 H   0  0  0  0  0  0  0  0  0  0  0  0
   64.5554   32.7702   46.7731 H   0  0  0  0  0  0  0  0  0  0  0  0
   63.2332   34.0384   50.7009 H   0  0  0  0  0  0  0  0  0  0  0  0
   60.9826   34.5618   49.7701 H   0  0  0  0  0  0  0  0  0  0  0  0
   57.6958   34.2961   45.6210 H   0  0  0  0  0  0  0  0  0  0  0  0
   58.8688   34.7696   44.3254 H   0  0  0  0  0  0  0  0  0  0  0  0
   57.0818   33.3978   43.3643 H   0  0  0  0  0  0  0  0  0  0  0  0
   58.6462   32.4979   43.3346 H   0  0  0  0  0  0  0  0  0  0  0  0
  1  2  2  0
  2  3  1  0
  3  4  1  0
  4  5  2  0
  5  6  1  0
  6  7  2  0
  7  8  1  0
  8  9  1  0
  8 10  2  0
  2 11  1  0
 11 12  1  0
 12 13  1  0
 13 14  1  0
 14 15  1  0
 15 16  2  0
 15 17  2  0
 15 18  1  0
 18 19  2  0
 19 20  1  0
 20 21  2  0
 21 22  1  0
 22 23  2  0
 23 24  2  0
 21 25  1  0
 25 26  2  0
 14 27  1  0
 27 28  1  0
 10  4  1  0
 28 11  1  0
 26 18  1  0
  5 29  1  0
  6 30  1  0
  7 31  1  0
  9 32  1  0
 10 33  1  0
 11 34  1  0
 12 35  1  0
 12 36  1  0
 13 37  1  0
 13 38  1  0
 19 39  1  0
 20 40  1  0
 25 41  1  0
 26 42  1  0
 27 43  1  0
 27 44  1  0
 28 45  1  0
 28 46  1  0
M  CHG  1   3  -1
M  END
>  <UniqueID>  (63) 
62

>  <SMILES>  (63) 
O=C([N-]c1cccc(O)c1)C1CCN(S(=O)(=O)c2ccc(N=C=S)cc2)CC1

>  <Energy>  (63) 
59.954605922528096

>  <Genealogy>  (63) 
O=C([N-]c1cccc(O)c1)C1CCN(S(=O)(=O)c2ccc(N=C=S)cc2)CC1 (protonated)
O=C([N-]c1cccc(O)c1)C1CCN(S(=O)(=O)c2ccc(N=C=S)cc2)CC1 (3D coordinates assigned)
O=C([N-]c1cccc(O)c1)C1CCN(S(=O)(=O)c2ccc(N=C=S)cc2)CC1 (nonaromatic ring conformer: 59.954605922528096 kcal/mol)

>  <smiles>  (63) 
O=C(Nc1cccc(O)c1)C1CCN(S(=O)(=O)c2ccc(N=C=S)cc2)CC1

>  <score_type>  (63) 
oracle

>  <origin>  (63) 
adg

>  <m_score__min__energy>  (63) 
-11.1

>  <m_primary>  (63) 
energy

$$$$
63:0
     RDKit          3D

 26 27  0  0  0  0  0  0  0  0999 V2000
   54.3280   26.7060   46.7490 H   0  0  0  0  0  0  0  0  0  0  0  0
   55.0690   26.5400   46.0790 O   0  0  0  0  0  0  0  0  0  0  0  0
   56.0860   25.6280   46.3480 C   0  0  0  0  0  0  0  0  0  0  0  0
   55.8530   24.5910   47.1960 N   0  0  0  0  0  0  0  0  0  0  0  0
   56.8300   23.6980   47.4960 C   0  0  0  0  0  0  0  0  0  0  0  0
   56.5890   22.7430   48.2800 O   0  0  0  0  0  0  0  0  0  0  0  0
   58.0670   23.8360   46.9560 N   0  0  0  0  0  0  0  0  0  0  0  0
   58.3520   24.8540   46.1040 C   0  0  0  0  0  0  0  0  0  0  0  0
   59.5130   24.9570   45.6260 O   0  0  0  0  0  0  0  0  0  0  0  0
   57.3520   25.7750   45.7560 C   0  0  0  0  0  0  0  0  0  0  0  0
   57.6520   26.9150   44.8690 C   0  0  0  0  0  0  0  0  0  0  0  0
   57.8481   26.6913   43.8100 H   0  0  0  0  0  0  0  0  0  0  0  0
   57.7060   28.2070   45.2470 C   0  0  0  0  0  0  0  0  0  0  0  0
   58.5250   28.6560   46.2780 C   0  0  0  0  0  0  0  0  0  0  0  0
   59.2289   28.0499   46.8672 H   0  0  0  0  0  0  0  0  0  0  0  0
   58.2850   30.0080   46.4200 C   0  0  0  0  0  0  0  0  0  0  0  0
   58.9900   30.9220   47.3700 C   0  0  0  0  0  0  0  0  0  0  0  0
   58.7604   30.6243   48.4038 H   0  0  0  0  0  0  0  0  0  0  0  0
   60.0753   30.8585   47.2026 H   0  0  0  0  0  0  0  0  0  0  0  0
   58.6530   31.9556   47.2026 H   0  0  0  0  0  0  0  0  0  0  0  0
   57.3860   30.4090   45.5050 N   0  0  0  0  0  0  0  0  0  0  0  0
   56.9780   31.7100   45.3070 O   0  0  0  0  0  0  0  0  0  0  0  0
   57.0280   29.3400   44.7650 C   0  0  0  0  0  0  0  0  0  0  0  0
   56.2290   29.4410   43.6960 C   0  0  0  0  0  0  0  0  0  0  0  0
   55.7660   30.4066   43.4447 H   0  0  0  0  0  0  0  0  0  0  0  0
   56.0354   28.5584   43.0687 H   0  0  0  0  0  0  0  0  0  0  0  0
  1  2  1  0
  2  3  1  0
  3  4  1  0
  4  5  1  0
  5  6  2  0
  5  7  1  0
  7  8  1  0
  8  9  2  0
  8 10  1  0
 10 11  1  0
 11 12  1  0
 11 13  2  0
 13 14  1  0
 14 15  1  0
 14 16  2  0
 16 17  1  0
 17 18  1  0
 17 19  1  0
 17 20  1  0
 16 21  1  0
 21 22  1  0
 21 23  1  0
 23 24  2  0
 24 25  1  0
 24 26  1  0
 10  3  2  0
 23 13  1  0
M  CHG  3   4  -1   7  -1  22  -1
M  END
>  <UniqueID>  (64) 
63

>  <SMILES>  (64) 
C=c1/c(=C\c2c(O)[n-]c(=O)[n-]c2=O)cc(C)n1[O-]

>  <Energy>  (64) 
68.10682900447202

>  <Genealogy>  (64) 
C=c1c(=Cc2c(O)[n-]c(=O)[n-]c2=O)cc(C)n1[O-] (protonated)
C=c1/c(=C\c2c(O)[n-]c(=O)[n-]c2=O)cc(C)n1[O-] (cis-trans isomerization)
C=c1/c(=C\c2c(O)[n-]c(=O)[n-]c2=O)cc(C)n1[O-] (3D coordinates assigned)
C=c1/c(=C\c2c(O)[n-]c(=O)[n-]c2=O)cc(C)n1[O-] (optimized conformer: 68.10682900447202 kcal/mol)

>  <smiles>  (64) 
C=c1c(=Cc2c(O)[nH]c(=O)[nH]c2=O)cc(C)n1O

>  <score_type>  (64) 
oracle

>  <origin>  (64) 
adg

>  <m_score__min__energy>  (64) 
-11.880000000000001

>  <m_primary>  (64) 
energy

$$$$
64:0
     RDKit          2D

 49 52  0  0  0  0  0  0  0  0999 V2000
   -3.0000   -7.7942    0.0000 O   0  0  0  0  0  0  0  0  0  0  0  0
   -3.7500   -6.4952    0.0000 C   0  0  0  0  0  0  0  0  0  0  0  0
   -5.2500   -6.4952    0.0000 N   0  0  0  0  0  0  0  0  0  0  0  0
   -6.0000   -7.7942    0.0000 C   0  0  0  0  0  0  0  0  0  0  0  0
   -7.5000   -7.7942    0.0000 C   0  0  0  0  0  0  0  0  0  0  0  0
   -8.2500   -9.0933    0.0000 C   0  0  0  0  0  0  0  0  0  0  0  0
   -7.5000  -10.3923    0.0000 C   0  0  0  0  0  0  0  0  0  0  0  0
   -6.0000  -10.3923    0.0000 C   0  0  0  0  0  0  0  0  0  0  0  0
   -5.2500  -11.6913    0.0000 O   0  0  0  0  0  0  0  0  0  0  0  0
   -5.2500   -9.0933    0.0000 C   0  0  0  0  0  0  0  0  0  0  0  0
   -3.0000   -5.1962    0.0000 N   0  0  0  0  0  0  0  0  0  0  0  0
   -1.5000   -5.1962    0.0000 C   0  0  0  0  0  0  0  0  0  0  0  0
   -0.7500   -6.4952    0.0000 C   0  0  0  0  0  0  0  0  0  0  0  0
    0.7500   -6.4952    0.0000 C   0  0  0  0  0  0  0  0  0  0  0  0
    1.5000   -5.1962    0.0000 C   0  0  0  0  0  0  0  0  0  0  0  0
    0.7500   -3.8971    0.0000 C   0  0  0  0  0  0  0  0  0  0  0  0
    1.5000   -2.5981    0.0000 C   0  0  0  0  0  0  0  0  0  0  0  0
    3.0000   -2.5981    0.0000 O   0  0  0  0  0  0  0  0  0  0  0  0
    0.7500   -1.2990    0.0000 C   0  0  0  0  0  0  0  0  0  0  0  0
    1.5000    0.0000    0.0000 C   0  0  0  0  0  0  0  0  0  0  0  0
    0.7500    1.2990    0.0000 C   0  0  0  0  0  0  0  0  0  0  0  0
   -0.7500    1.2990    0.0000 C   0  0  0  0  0  0  0  0  0  0  0  0
   -1.5000    0.0000    0.0000 C   0  0  0  0  0  0  0  0  0  0  0  0
   -3.0000    0.0000    0.0000 O   0  0  0  0  0  0  0  0  0  0  0  0
   -0.7500   -1.2990    0.0000 C   0  0  0  0  0  0  0  0  0  0  0  0
   -0.6379   -0.4430    0.0000 C   0  0  0  0  0  0  0  0  0  0  0  0
   -3.2459   -0.8268    0.0000 O   0  0  0  0  0  0  0  0  0  0  0  0
   -0.5559    0.4684    0.0000 N   0  0  0  0  0  0  0  0  0  0  0  0
   -3.0365    1.9670    0.0000 O   0  0  0  0  0  0  0  0  0  0  0  0
    0.0212    0.8884    0.0000 C   0  0  0  0  0  0  0  0  0  0  0  0
   -0.7217    3.5453    0.0000 O   0  0  0  0  0  0  0  0  0  0  0  0
   -0.7500   -3.8971    0.0000 C   0  0  0  0  0  0  0  0  0  0  0  0
   -6.0000   -5.1962    0.0000 H   0  0  0  0  0  0  0  0  0  0  0  0
   -8.2500   -6.4952    0.0000 H   0  0  0  0  0  0  0  0  0  0  0  0
   -9.7500   -9.0933    0.0000 H   0  0  0  0  0  0  0  0  0  0  0  0
   -8.2500  -11.6913    0.0000 H   0  0  0  0  0  0  0  0  0  0  0  0
   -3.7500  -11.6913    0.0000 H   0  0  0  0  0  0  0  0  0  0  0  0
   -3.7500   -9.0933    0.0000 H   0  0  0  0  0  0  0  0  0  0  0  0
   -3.7500   -3.8971    0.0000 H   0  0  0  0  0  0  0  0  0  0  0  0
   -1.5000   -7.7942    0.0000 H   0  0  0  0  0  0  0  0  0  0  0  0
    1.5000   -7.7942    0.0000 H   0  0  0  0  0  0  0  0  0  0  0  0
    3.0000   -5.1962    0.0000 H   0  0  0  0  0  0  0  0  0  0  0  0
    3.0000    0.0000    0.0000 H   0  0  0  0  0  0  0  0  0  0  0  0
   -1.5000    2.5981    0.0000 H   0  0  0  0  0  0  0  0  0  0  0  0
   -4.0420   -1.0790    0.0000 H   0  0  0  0  0  0  0  0  0  0  0  0
   -3.4695   -2.3100    0.0000 H   0  0  0  0  0  0  0  0  0  0  0  0
   -3.0365    3.4670    0.0000 H   0  0  0  0  0  0  0  0  0  0  0  0
    0.4511    4.4805    0.0000 H   0  0  0  0  0  0  0  0  0  0  0  0
   -1.5000   -2.5981    0.0000 H   0  0  0  0  0  0  0  0  0  0  0  0
  1  2  2  0
  2  3  1  0
  3  4  1  0
  4  5  2  0
  5  6  1  0
  6  7  2  0
  7  8  1  0
  8  9  1  0
  8 10  2  0
  2 11  1  0
 11 12  1  0
 12 13  2  0
 13 14  1  0
 14 15  2  0
 15 16  1  0
 16 17  1  0
 17 18  2  0
 17 19  1  0
 19 20  2  0
 20 21  1  0
 21 22  1  0
 22 23  2  0
 23 24  1  0
 23 25  1  0
 25 26  2  0
 26 27  1  0
 26 28  1  0
 28 29  1  0
 28 30  1  0
 30 31  1  0
 16 32  2  0
 10  4  1  0
 32 12  1  0
 25 19  1  0
 30 21  2  0
  3 33  1  0
  5 34  1  0
  6 35  1  0
  7 36  1  0
  9 37  1  0
 10 38  1  0
 11 39  1  0
 13 40  1  0
 14 41  1  0
 15 42  1  0
 20 43  1  0
 22 44  1  0
 24 45  1  0
 27 46  1  0
 29 47  1  0
 31 48  1  0
 32 49  1  0
M  END
>  <smiles>  (65) 
O=C(Nc1cccc(O)c1)Nc1cccc(C(=O)c2cc3cc(O)c2=C(O)N(O)C=3O)c1

>  <m_score__min__energy>  (65) 
nan

>  <m_primary>  (65) 
energy

$$$$
65:0
     RDKit          3D

 50 52  0  0  0  0  0  0  0  0999 V2000
   59.9960   29.0310   45.1850 C   0  0  0  0  0  0  0  0  0  0  0  0
   58.6560   29.1070   45.1820 C   0  0  0  0  0  0  0  0  0  0  0  0
   57.7610   28.2350   45.8250 C   0  0  0  0  0  0  0  0  0  0  0  0
   57.9690   27.2300   46.6980 C   0  0  0  0  0  0  0  0  0  0  0  0
   57.4080   25.8750   46.5990 C   0  0  0  0  0  0  0  0  0  0  0  0
   58.0780   24.7490   46.9080 N   0  0  0  0  0  0  0  0  0  0  0  0
   57.1370   23.7870   46.8020 C   0  0  0  0  0  0  0  0  0  0  0  0
   57.3860   22.5700   47.0040 O   0  0  0  0  0  0  0  0  0  0  0  0
   55.9060   24.2310   46.4710 N   0  0  0  0  0  0  0  0  0  0  0  0
   56.0900   25.5570   46.3600 C   0  0  0  0  0  0  0  0  0  0  0  0
   55.0690   26.4500   46.0440 O   0  0  0  0  0  0  0  0  0  0  0  0
   56.4960   28.6000   45.4030 C   0  0  0  0  0  0  0  0  0  0  0  0
   56.6460   29.6910   44.5740 C   0  0  0  0  0  0  0  0  0  0  0  0
   55.5040   30.4260   43.9400 C   0  0  0  0  0  0  0  0  0  0  0  0
   57.9560   30.0050   44.4360 N   0  0  0  0  0  0  0  0  0  0  0  0
   58.5020   31.0800   43.5870 C   0  0  0  0  0  0  0  0  0  0  0  0
   57.9000   32.4500   43.9350 C   0  0  0  0  0  0  0  0  0  0  0  0
   58.3480   32.9420   45.2880 C   0  0  0  0  0  0  0  0  0  0  0  0
   58.4660   32.0410   46.3610 C   0  0  0  0  0  0  0  0  0  0  0  0
   58.8840   32.4850   47.6280 C   0  0  0  0  0  0  0  0  0  0  0  0
   58.9590   31.5480   48.7750 C   0  0  0  0  0  0  0  0  0  0  0  0
   58.2550   31.7740   49.7970 O   0  0  0  0  0  0  0  0  0  0  0  0
   59.7960   30.3770   48.7440 N   0  0  0  0  0  0  0  0  0  0  0  0
   61.1400   30.4160   48.1640 C   0  0  0  0  0  0  0  0  0  0  0  0
   59.3180   29.1390   49.3590 C   0  0  0  0  0  0  0  0  0  0  0  0
   59.1800   33.8460   47.8110 C   0  0  0  0  0  0  0  0  0  0  0  0
   59.0750   34.7430   46.7450 C   0  0  0  0  0  0  0  0  0  0  0  0
   58.6610   34.2980   45.4880 C   0  0  0  0  0  0  0  0  0  0  0  0
   58.5700   35.1860   44.4660 F   0  0  0  0  0  0  0  0  0  0  0  0
   60.5905   29.7790   44.6399 H   0  0  0  0  0  0  0  0  0  0  0  0
   60.4997   28.2208   45.7325 H   0  0  0  0  0  0  0  0  0  0  0  0
   58.6162   27.4425   47.5617 H   0  0  0  0  0  0  0  0  0  0  0  0
   54.1270   26.3160   46.3890 H   0  0  0  0  0  0  0  0  0  0  0  0
   55.5490   28.1121   45.6770 H   0  0  0  0  0  0  0  0  0  0  0  0
   54.8557   30.8432   44.7246 H   0  0  0  0  0  0  0  0  0  0  0  0
   55.8951   31.2423   43.3150 H   0  0  0  0  0  0  0  0  0  0  0  0
   54.9230   29.7319   43.3150 H   0  0  0  0  0  0  0  0  0  0  0  0
   59.5920   31.1249   43.7280 H   0  0  0  0  0  0  0  0  0  0  0  0
   58.2450   30.8514   42.5421 H   0  0  0  0  0  0  0  0  0  0  0  0
   58.2123   33.1783   43.1720 H   0  0  0  0  0  0  0  0  0  0  0  0
   56.8057   32.3413   43.9606 H   0  0  0  0  0  0  0  0  0  0  0  0
   58.2289   30.9779   46.2077 H   0  0  0  0  0  0  0  0  0  0  0  0
   61.8871   30.4377   48.9710 H   0  0  0  0  0  0  0  0  0  0  0  0
   61.2973   29.5220   47.5426 H   0  0  0  0  0  0  0  0  0  0  0  0
   61.2452   31.3176   47.5426 H   0  0  0  0  0  0  0  0  0  0  0  0
   59.3552   29.2355   50.4541 H   0  0  0  0  0  0  0  0  0  0  0  0
   58.2818   28.9488   49.0427 H   0  0  0  0  0  0  0  0  0  0  0  0
   59.9575   28.3017   49.0427 H   0  0  0  0  0  0  0  0  0  0  0  0
   59.4966   34.2079   48.8003 H   0  0  0  0  0  0  0  0  0  0  0  0
   59.3196   35.8047   46.8967 H   0  0  0  0  0  0  0  0  0  0  0  0
  1  2  2  0
  2  3  1  0
  3  4  2  3
  4  5  1  0
  5  6  1  0
  6  7  1  0
  7  8  2  0
  7  9  1  0
  9 10  1  0
 10 11  1  0
  3 12  1  0
 12 13  2  0
 13 14  1  0
 13 15  1  0
 15 16  1  0
 16 17  1  0
 17 18  1  0
 18 19  2  0
 19 20  1  0
 20 21  1  0
 21 22  2  0
 21 23  1  0
 23 24  1  0
 23 25  1  0
 20 26  2  0
 26 27  1  0
 27 28  2  0
 28 29  1  0
 15  2  1  0
 28 18  1  0
 10  5  2  0
  1 30  1  0
  1 31  1  0
  4 32  1  0
 11 33  1  0
 12 34  1  0
 14 35  1  0
 14 36  1  0
 14 37  1  0
 16 38  1  0
 16 39  1  0
 17 40  1  0
 17 41  1  0
 19 42  1  0
 24 43  1  0
 24 44  1  0
 24 45  1  0
 25 46  1  0
 25 47  1  0
 25 48  1  0
 26 49  1  0
 27 50  1  0
M  CHG  2   6  -1   9  -1
M  END
>  <UniqueID>  (66) 
64

>  <SMILES>  (66) 
C=c1c(=Cc2[n-]c(=O)[n-]c2O)cc(C)n1CCc1cc(C(=O)N(C)C)ccc1F

>  <Energy>  (66) 
116.46019514965744

>  <Genealogy>  (66) 
C=c1c(=Cc2[n-]c(=O)[n-]c2O)cc(C)n1CCc1cc(C(=O)N(C)C)ccc1F (protonated)
C=c1c(=Cc2[n-]c(=O)[n-]c2O)cc(C)n1CCc1cc(C(=O)N(C)C)ccc1F (3D coordinates assigned)
C=c1c(=Cc2[n-]c(=O)[n-]c2O)cc(C)n1CCc1cc(C(=O)N(C)C)ccc1F (optimized conformer: 116.46019514965744 kcal/mol)

>  <smiles>  (66) 
C=c1c(=Cc2[nH]c(=O)[nH]c2O)cc(C)n1CCc1cc(C(=O)N(C)C)ccc1F

>  <score_type>  (66) 
oracle

>  <origin>  (66) 
adg

>  <m_score__min__energy>  (66) 
-13.67

>  <m_primary>  (66) 
energy

$$$$
66:0
     RDKit          3D

 56 59  0  0  0  0  0  0  0  0999 V2000
   55.1390   27.5080   45.3550 H   0  0  0  0  0  0  0  0  0  0  0  0
   55.1490   26.7160   45.9870 O   0  0  0  0  0  0  0  0  0  0  0  0
   56.2730   25.9000   46.1170 C   0  0  0  0  0  0  0  0  0  0  0  0
   56.2670   24.8400   47.0360 C   0  0  0  0  0  0  0  0  0  0  0  0
   55.3752   24.6550   47.6528 H   0  0  0  0  0  0  0  0  0  0  0  0
   57.3880   24.0190   47.1710 C   0  0  0  0  0  0  0  0  0  0  0  0
   57.3802   23.1938   47.8983 H   0  0  0  0  0  0  0  0  0  0  0  0
   58.5190   24.2440   46.3840 C   0  0  0  0  0  0  0  0  0  0  0  0
   59.3992   23.5926   46.4881 H   0  0  0  0  0  0  0  0  0  0  0  0
   58.5340   25.2960   45.4640 C   0  0  0  0  0  0  0  0  0  0  0  0
   59.4206   25.4593   44.8338 H   0  0  0  0  0  0  0  0  0  0  0  0
   57.4210   26.1470   45.3400 C   0  0  0  0  0  0  0  0  0  0  0  0
   57.4160   27.2490   44.3540 C   0  0  0  0  0  0  0  0  0  0  0  0
   56.9346   27.0636   43.3825 H   0  0  0  0  0  0  0  0  0  0  0  0
   57.9600   28.4650   44.5620 C   0  0  0  0  0  0  0  0  0  0  0  0
   59.7520   28.7130   44.5720 S   0  0  0  0  0  0  0  0  0  0  0  0
   59.8080   29.2280   46.2910 C   0  0  0  0  0  0  0  0  0  0  0  0
   58.9070   28.6930   47.2180 C   0  0  0  0  0  0  0  0  0  0  0  0
   58.1572   27.9573   46.8916 H   0  0  0  0  0  0  0  0  0  0  0  0
   58.9560   29.0900   48.5580 C   0  0  0  0  0  0  0  0  0  0  0  0
   58.2558   28.6533   49.2853 H   0  0  0  0  0  0  0  0  0  0  0  0
   59.8950   30.0430   48.9770 C   0  0  0  0  0  0  0  0  0  0  0  0
   59.9490   30.5550   50.6640 S   0  0  0  0  0  0  0  0  0  0  0  0
   59.1140   29.6100   51.4820 O   0  0  0  0  0  0  0  0  0  0  0  0
   61.3640   30.4610   51.1630 O   0  0  0  0  0  0  0  0  0  0  0  0
   59.3630   32.1890   50.8930 N   0  0  0  0  0  0  0  0  0  0  0  0
   58.7720   32.7660   49.6660 C   0  0  0  0  0  0  0  0  0  0  0  0
   58.5290   31.9458   48.9744 H   0  0  0  0  0  0  0  0  0  0  0  0
   57.8756   33.3290   49.9651 H   0  0  0  0  0  0  0  0  0  0  0  0
   59.7150   33.7470   48.9510 C   0  0  0  0  0  0  0  0  0  0  0  0
   59.5136   33.7200   47.8699 H   0  0  0  0  0  0  0  0  0  0  0  0
   59.5400   34.7594   49.3440 H   0  0  0  0  0  0  0  0  0  0  0  0
   61.0590   33.3950   49.1810 O   0  0  0  0  0  0  0  0  0  0  0  0
   61.3930   33.6440   50.5330 C   0  0  0  0  0  0  0  0  0  0  0  0
   62.3747   33.1926   50.7392 H   0  0  0  0  0  0  0  0  0  0  0  0
   61.4021   34.7352   50.6713 H   0  0  0  0  0  0  0  0  0  0  0  0
   60.3650   33.0630   51.5330 C   0  0  0  0  0  0  0  0  0  0  0  0
   60.9064   32.4779   52.2909 H   0  0  0  0  0  0  0  0  0  0  0  0
   59.8236   33.9118   51.9762 H   0  0  0  0  0  0  0  0  0  0  0  0
   60.7850   30.5930   48.0430 C   0  0  0  0  0  0  0  0  0  0  0  0
   61.5259   31.3396   48.3650 H   0  0  0  0  0  0  0  0  0  0  0  0
   60.7330   30.1950   46.7040 C   0  0  0  0  0  0  0  0  0  0  0  0
   61.4211   30.6430   45.9720 H   0  0  0  0  0  0  0  0  0  0  0  0
   57.0960   29.6340   44.8640 C   0  0  0  0  0  0  0  0  0  0  0  0
   55.9070   29.4310   45.2290 O   0  0  0  0  0  0  0  0  0  0  0  0
   57.5790   31.0330   44.7760 C   0  0  0  0  0  0  0  0  0  0  0  0
   57.8200   31.7900   45.9380 C   0  0  0  0  0  0  0  0  0  0  0  0
   57.6628   31.3372   46.9281 H   0  0  0  0  0  0  0  0  0  0  0  0
   58.2580   33.1140   45.8410 C   0  0  0  0  0  0  0  0  0  0  0  0
   58.4511   33.6965   46.7539 H   0  0  0  0  0  0  0  0  0  0  0  0
   58.4510   33.6990   44.5870 C   0  0  0  0  0  0  0  0  0  0  0  0
   58.7992   34.7398   44.5123 H   0  0  0  0  0  0  0  0  0  0  0  0
   58.2010   32.9600   43.4280 C   0  0  0  0  0  0  0  0  0  0  0  0
   58.3517   33.4206   42.4405 H   0  0  0  0  0  0  0  0  0  0  0  0
   57.7600   31.6370   43.5200 C   0  0  0  0  0  0  0  0  0  0  0  0
   57.5533   31.0648   42.6035 H   0  0  0  0  0  0  0  0  0  0  0  0
  1  2  1  0
  2  3  1  0
  3  4  2  0
  4  5  1  0
  4  6  1  0
  6  7  1  0
  6  8  2  0
  8  9  1  0
  8 10  1  0
 10 11  1  0
 10 12  2  0
 12 13  1  0
 13 14  1  0
 13 15  2  0
 15 16  1  0
 16 17  1  0
 17 18  2  0
 18 19  1  0
 18 20  1  0
 20 21  1  0
 20 22  2  0
 22 23  1  0
 23 24  2  0
 23 25  2  0
 23 26  1  0
 26 27  1  0
 27 28  1  0
 27 29  1  0
 27 30  1  0
 30 31  1  0
 30 32  1  0
 30 33  1  0
 33 34  1  0
 34 35  1  0
 34 36  1  0
 34 37  1  0
 37 38  1  0
 37 39  1  0
 22 40  1  0
 40 41  1  0
 40 42  2  0
 42 43  1  0
 15 44  1  0
 44 45  2  0
 44 46  1  0
 46 47  2  0
 47 48  1  0
 47 49  1  0
 49 50  1  0
 49 51  2  0
 51 52  1  0
 51 53  1  0
 53 54  1  0
 53 55  2  0
 55 56  1  0
 12  3  1  0
 42 17  1  0
 55 46  1  0
 37 26  1  0
M  END
>  <UniqueID>  (67) 
65

>  <SMILES>  (67) 
O=C(/C(=C/c1ccccc1O)Sc1ccc(S(=O)(=O)N2CCOCC2)cc1)c1ccccc1

>  <Energy>  (67) 
76.60137155512406

>  <Genealogy>  (67) 
O=C(/C(=C/c1ccccc1O)Sc1ccc(S(=O)(=O)N2CCOCC2)cc1)c1ccccc1 (cis-trans isomerization)
O=C(/C(=C/c1ccccc1O)Sc1ccc(S(=O)(=O)N2CCOCC2)cc1)c1ccccc1 (3D coordinates assigned)
O=C(/C(=C/c1ccccc1O)Sc1ccc(S(=O)(=O)N2CCOCC2)cc1)c1ccccc1 (nonaromatic ring conformer: 76.60137155512406 kcal/mol)

>  <smiles>  (67) 
O=C(C(=Cc1ccccc1O)Sc1ccc(S(=O)(=O)N2CCOCC2)cc1)c1ccccc1

>  <score_type>  (67) 
oracle

>  <origin>  (67) 
adg

>  <m_score__min__energy>  (67) 
-11.369999999999999

>  <m_primary>  (67) 
energy

$$$$
67:0
     RDKit          3D

 66 70  0  0  0  0  0  0  0  0999 V2000
   56.3390   29.6830   42.8140 N   0  0  0  0  0  0  0  0  0  0  0  0
   56.2720   29.5120   44.2270 C   0  0  0  0  0  0  0  0  0  0  0  0
   55.1490   29.3550   44.7760 O   0  0  0  0  0  0  0  0  0  0  0  0
   57.5200   29.4470   45.0600 C   0  0  0  0  0  0  0  0  0  0  0  0
   58.6970   30.1980   44.4030 C   0  0  2  0  0  0  0  0  0  0  0  0
   59.8800   30.0960   45.2790 N   0  0  0  0  0  0  0  0  0  0  0  0
   60.0570   29.2650   46.4380 C   0  0  0  0  0  0  0  0  0  0  0  0
   60.1690   28.0140   46.3300 O   0  0  0  0  0  0  0  0  0  0  0  0
   60.1010   29.8720   47.7740 C   0  0  0  0  0  0  0  0  0  0  0  0
   61.2550   30.2250   48.4680 C   0  0  0  0  0  0  0  0  0  0  0  0
   61.0060   30.6540   49.7730 C   0  0  0  0  0  0  0  0  0  0  0  0
   59.6560   30.6580   50.0920 C   0  0  0  0  0  0  0  0  0  0  0  0
   59.0720   30.9980   51.4320 C   0  0  0  0  0  0  0  0  0  0  0  0
   58.7330   32.4700   51.6060 C   0  0  0  0  0  0  0  0  0  0  0  0
   57.6190   31.4540   51.4150 C   0  0  0  0  0  0  0  0  0  0  0  0
   58.7770   30.0870   48.7740 S   0  0  0  0  0  0  0  0  0  0  0  0
   58.3100   31.6430   44.1630 C   0  0  0  0  0  0  0  0  0  0  0  0
   57.7690   31.9430   43.0610 O   0  0  0  0  0  0  0  0  0  0  0  0
   58.4940   32.6760   45.1690 N   0  0  0  0  0  0  0  0  0  0  0  0
   58.3090   34.0840   44.8000 C   0  0  0  0  0  0  0  0  0  0  0  0
   59.4780   34.9310   45.3300 C   0  0  0  0  0  0  0  0  0  0  0  0
   60.0200   34.4760   46.6370 N   0  0  0  0  0  0  0  0  0  0  0  0
   61.3350   33.8160   46.5050 C   0  0  0  0  0  0  0  0  0  0  0  0
   61.9770   33.6450   47.8470 C   0  0  0  0  0  0  0  0  0  0  0  0
   61.5700   34.2150   49.0350 C   0  0  0  0  0  0  0  0  0  0  0  0
   62.4830   33.8020   49.9870 C   0  0  0  0  0  0  0  0  0  0  0  0
   63.4310   33.0260   49.4240 N   0  0  0  0  0  0  0  0  0  0  0  0
   64.5530   32.4040   50.0910 C   0  0  0  0  0  0  0  0  0  0  0  0
   65.8580   32.9270   49.9570 C   0  0  0  0  0  0  0  0  0  0  0  0
   66.9370   32.3280   50.6190 C   0  0  0  0  0  0  0  0  0  0  0  0
   66.7280   31.2070   51.4200 C   0  0  0  0  0  0  0  0  0  0  0  0
   65.4440   30.6750   51.5660 C   0  0  0  0  0  0  0  0  0  0  0  0
   64.3630   31.2670   50.9030 C   0  0  0  0  0  0  0  0  0  0  0  0
   63.1180   32.9220   48.1110 C   0  0  0  0  0  0  0  0  0  0  0  0
   59.0670   33.6330   47.3810 C   0  0  0  0  0  0  0  0  0  0  0  0
   58.7140   32.3640   46.5910 C   0  0  0  0  0  0  0  0  0  0  0  0
   57.2490   29.9280   42.3410 H   0  0  0  0  0  0  0  0  0  0  0  0
   55.4720   29.6560   42.2550 H   0  0  0  0  0  0  0  0  0  0  0  0
   57.3149   29.8988   46.0418 H   0  0  0  0  0  0  0  0  0  0  0  0
   57.8062   28.3895   45.1588 H   0  0  0  0  0  0  0  0  0  0  0  0
   58.9418   29.7481   43.4295 H   0  0  0  0  0  0  0  0  0  0  0  0
   62.2632   30.1712   48.0314 H   0  0  0  0  0  0  0  0  0  0  0  0
   61.7972   30.9570   50.4746 H   0  0  0  0  0  0  0  0  0  0  0  0
   59.6400   30.2475   52.0013 H   0  0  0  0  0  0  0  0  0  0  0  0
   58.8734   32.9546   52.5835 H   0  0  0  0  0  0  0  0  0  0  0  0
   59.0307   33.4009   51.1013 H   0  0  0  0  0  0  0  0  0  0  0  0
   56.9537   31.2028   52.2542 H   0  0  0  0  0  0  0  0  0  0  0  0
   56.7773   31.3446   50.7153 H   0  0  0  0  0  0  0  0  0  0  0  0
   58.2660   34.1696   43.7042 H   0  0  0  0  0  0  0  0  0  0  0  0
   57.3711   34.4504   45.2429 H   0  0  0  0  0  0  0  0  0  0  0  0
   60.2909   34.8978   44.5896 H   0  0  0  0  0  0  0  0  0  0  0  0
   59.0850   35.9461   45.4883 H   0  0  0  0  0  0  0  0  0  0  0  0
   61.1985   32.8279   46.0412 H   0  0  0  0  0  0  0  0  0  0  0  0
   61.9854   34.4443   45.8787 H   0  0  0  0  0  0  0  0  0  0  0  0
   60.6971   34.8655   49.1927 H   0  0  0  0  0  0  0  0  0  0  0  0
   62.4420   34.0687   51.0534 H   0  0  0  0  0  0  0  0  0  0  0  0
   66.0284   33.8126   49.3272 H   0  0  0  0  0  0  0  0  0  0  0  0
   67.9497   32.7425   50.5067 H   0  0  0  0  0  0  0  0  0  0  0  0
   67.5772   30.7390   51.9395 H   0  0  0  0  0  0  0  0  0  0  0  0
   65.2831   29.7917   52.2015 H   0  0  0  0  0  0  0  0  0  0  0  0
   63.3552   30.8411   51.0165 H   0  0  0  0  0  0  0  0  0  0  0  0
   63.6892   32.3467   47.3676 H   0  0  0  0  0  0  0  0  0  0  0  0
   59.5179   33.3438   48.3417 H   0  0  0  0  0  0  0  0  0  0  0  0
   58.1447   34.2100   47.5436 H   0  0  0  0  0  0  0  0  0  0  0  0
   59.5407   31.6436   46.6782 H   0  0  0  0  0  0  0  0  0  0  0  0
   57.7884   31.9377   47.0051 H   0  0  0  0  0  0  0  0  0  0  0  0
  1  2  1  0
  2  3  2  0
  2  4  1  0
  4  5  1  0
  5  6  1  0
  6  7  1  0
  7  8  2  0
  7  9  1  0
  9 10  2  0
 10 11  1  0
 11 12  2  0
 12 13  1  0
 13 14  1  0
 14 15  1  0
 12 16  1  0
  5 17  1  0
 17 18  2  0
 17 19  1  0
 19 20  1  0
 20 21  1  0
 21 22  1  0
 22 23  1  0
 23 24  1  0
 24 25  1  0
 25 26  2  0
 26 27  1  0
 27 28  1  0
 28 29  2  0
 29 30  1  0
 30 31  2  0
 31 32  1  0
 32 33  2  0
 27 34  1  0
 22 35  1  0
 35 36  1  0
 16  9  1  0
 36 19  1  0
 15 13  1  0
 34 24  2  0
 33 28  1  0
  1 37  1  0
  1 38  1  0
  4 39  1  0
  4 40  1  0
  5 41  1  6
 10 42  1  0
 11 43  1  0
 13 44  1  0
 14 45  1  0
 14 46  1  0
 15 47  1  0
 15 48  1  0
 20 49  1  0
 20 50  1  0
 21 51  1  0
 21 52  1  0
 23 53  1  0
 23 54  1  0
 25 55  1  0
 26 56  1  0
 29 57  1  0
 30 58  1  0
 31 59  1  0
 32 60  1  0
 33 61  1  0
 34 62  1  0
 35 63  1  0
 35 64  1  0
 36 65  1  0
 36 66  1  0
M  CHG  1   6  -1
M  END
>  <UniqueID>  (68) 
66

>  <SMILES>  (68) 
NC(=O)C[C@H]([N-]C(=O)c1ccc(C2CC2)s1)C(=O)N1CCN(Cc2ccn(-c3ccccc3)c2)CC1

>  <Energy>  (68) 
398.7180970095141

>  <Genealogy>  (68) 
NC(=O)CC([N-]C(=O)c1ccc(C2CC2)s1)C(=O)N1CCN(Cc2ccn(-c3ccccc3)c2)CC1 (protonated)
NC(=O)C[C@H]([N-]C(=O)c1ccc(C2CC2)s1)C(=O)N1CCN(Cc2ccn(-c3ccccc3)c2)CC1 (chirality)
NC(=O)C[C@H]([N-]C(=O)c1ccc(C2CC2)s1)C(=O)N1CCN(Cc2ccn(-c3ccccc3)c2)CC1 (3D coordinates assigned)
NC(=O)C[C@H]([N-]C(=O)c1ccc(C2CC2)s1)C(=O)N1CCN(Cc2ccn(-c3ccccc3)c2)CC1 (nonaromatic ring conformer: 398.7180970095141 kcal/mol)

>  <smiles>  (68) 
NC(=O)CC(NC(=O)c1ccc(C2CC2)s1)C(=O)N1CCN(Cc2ccn(-c3ccccc3)c2)CC1

>  <score_type>  (68) 
oracle

>  <origin>  (68) 
adg

>  <m_score__min__energy>  (68) 
-11.68

>  <m_primary>  (68) 
energy

$$$$
68:0
     RDKit          3D

 70 74  0  0  0  0  0  0  0  0999 V2000
   62.9990   32.9070   47.3930 C   0  0  0  0  0  0  0  0  0  0  0  0
   62.1130   31.9120   47.3930 C   0  0  0  0  0  0  0  0  0  0  0  0
   60.7900   32.0320   46.7460 C   0  0  0  0  0  0  0  0  0  0  0  0
   60.2020   33.3150   46.7120 C   0  0  0  0  0  0  0  0  0  0  0  0
   58.9670   33.4620   46.0960 C   0  0  0  0  0  0  0  0  0  0  0  0
   58.3120   32.4140   45.5460 C   0  0  0  0  0  0  0  0  0  0  0  0
   58.8280   31.1250   45.5700 C   0  0  0  0  0  0  0  0  0  0  0  0
   60.0810   30.9060   46.2020 C   0  0  0  0  0  0  0  0  0  0  0  0
   60.6560   29.5020   46.3030 C   0  0  0  0  0  0  0  0  0  0  0  0
   60.3230   28.8380   47.5740 N   0  0  0  0  0  0  0  0  0  0  0  0
   60.0420   27.3950   47.5690 C   0  0  0  0  0  0  0  0  0  0  0  0
   58.6440   27.1210   47.0790 C   0  0  0  0  0  0  0  0  0  0  0  0
   57.9330   28.1020   46.3710 C   0  0  0  0  0  0  0  0  0  0  0  0
   56.6460   27.8370   45.8960 C   0  0  0  0  0  0  0  0  0  0  0  0
   56.0530   26.5930   46.1250 C   0  0  0  0  0  0  0  0  0  0  0  0
   54.7720   26.3480   45.6410 O   0  0  0  0  0  0  0  0  0  0  0  0
   56.7480   25.6010   46.8420 C   0  0  0  0  0  0  0  0  0  0  0  0
   56.1100   24.2590   47.1150 C   0  0  0  0  0  0  0  0  0  0  0  0
   55.9320   23.5000   45.8570 N   0  0  0  0  0  0  0  0  0  0  0  0
   56.2160   22.0690   46.0450 C   0  0  0  0  0  0  0  0  0  0  0  0
   57.6790   21.8260   45.6960 C   0  0  0  0  0  0  0  0  0  0  0  0
   58.1300   23.0670   44.9510 C   0  0  0  0  0  0  0  0  0  0  0  0
   56.8910   23.9410   44.8360 C   0  0  0  0  0  0  0  0  0  0  0  0
   58.0430   25.8740   47.3140 C   0  0  0  0  0  0  0  0  0  0  0  0
   60.3090   29.5680   48.8230 C   0  0  0  0  0  0  0  0  0  0  0  0
   61.3500   29.5990   49.5330 O   0  0  0  0  0  0  0  0  0  0  0  0
   59.1260   30.2620   49.2660 N   0  0  0  0  0  0  0  0  0  0  0  0
   59.1070   31.1580   50.3910 C   0  0  0  0  0  0  0  0  0  0  0  0
   59.9440   32.2880   50.4230 C   0  0  0  0  0  0  0  0  0  0  0  0
   59.8920   33.1750   51.5000 C   0  0  0  0  0  0  0  0  0  0  0  0
   58.9980   32.9520   52.5470 C   0  0  0  0  0  0  0  0  0  0  0  0
   58.1470   31.8460   52.5200 C   0  0  0  0  0  0  0  0  0  0  0  0
   58.1890   30.9420   51.4390 C   0  0  0  0  0  0  0  0  0  0  0  0
   57.3440   29.8220   51.3760 O   0  0  0  0  0  0  0  0  0  0  0  0
   56.4960   29.3890   52.4350 C   0  0  0  0  0  0  0  0  0  0  0  0
   57.1170   32.8500   45.0050 O   0  0  0  0  0  0  0  0  0  0  0  0
   57.0190   34.2630   45.2300 C   0  0  0  0  0  0  0  0  0  0  0  0
   58.2190   34.6120   45.9330 O   0  0  0  0  0  0  0  0  0  0  0  0
   63.9732   32.7759   47.8866 H   0  0  0  0  0  0  0  0  0  0  0  0
   62.7563   33.8596   46.8994 H   0  0  0  0  0  0  0  0  0  0  0  0
   62.3757   30.9677   47.8923 H   0  0  0  0  0  0  0  0  0  0  0  0
   60.7113   34.1790   47.1637 H   0  0  0  0  0  0  0  0  0  0  0  0
   58.2780   30.2912   45.1093 H   0  0  0  0  0  0  0  0  0  0  0  0
   60.2552   28.8980   45.4756 H   0  0  0  0  0  0  0  0  0  0  0  0
   61.7514   29.5889   46.2524 H   0  0  0  0  0  0  0  0  0  0  0  0
   60.7610   26.8904   46.9069 H   0  0  0  0  0  0  0  0  0  0  0  0
   60.1346   27.0155   48.5973 H   0  0  0  0  0  0  0  0  0  0  0  0
   58.3915   29.0852   46.1889 H   0  0  0  0  0  0  0  0  0  0  0  0
   56.0974   28.6111   45.3394 H   0  0  0  0  0  0  0  0  0  0  0  0
   56.7551   23.6840   47.7957 H   0  0  0  0  0  0  0  0  0  0  0  0
   55.1231   24.4226   47.5726 H   0  0  0  0  0  0  0  0  0  0  0  0
   56.0307   21.7867   47.0919 H   0  0  0  0  0  0  0  0  0  0  0  0
   55.5646   21.4634   45.3978 H   0  0  0  0  0  0  0  0  0  0  0  0
   58.2746   21.6891   46.6106 H   0  0  0  0  0  0  0  0  0  0  0  0
   57.8081   20.9171   45.0900 H   0  0  0  0  0  0  0  0  0  0  0  0
   58.9182   23.5887   45.5137 H   0  0  0  0  0  0  0  0  0  0  0  0
   58.5509   22.8219   43.9647 H   0  0  0  0  0  0  0  0  0  0  0  0
   57.1594   24.9942   45.0053 H   0  0  0  0  0  0  0  0  0  0  0  0
   56.4505   23.8515   43.8320 H   0  0  0  0  0  0  0  0  0  0  0  0
   58.5919   25.1024   47.8737 H   0  0  0  0  0  0  0  0  0  0  0  0
   58.2230   30.1110   48.7690 H   0  0  0  0  0  0  0  0  0  0  0  0
   60.6436   32.4739   49.5947 H   0  0  0  0  0  0  0  0  0  0  0  0
   60.5570   34.0509   51.5228 H   0  0  0  0  0  0  0  0  0  0  0  0
   58.9635   33.6498   53.3966 H   0  0  0  0  0  0  0  0  0  0  0  0
   57.4402   31.6789   53.3461 H   0  0  0  0  0  0  0  0  0  0  0  0
   56.9645   29.6282   53.4011 H   0  0  0  0  0  0  0  0  0  0  0  0
   55.5258   29.9021   52.3610 H   0  0  0  0  0  0  0  0  0  0  0  0
   56.3427   28.3023   52.3610 H   0  0  0  0  0  0  0  0  0  0  0  0
   56.9603   34.8034   44.2737 H   0  0  0  0  0  0  0  0  0  0  0  0
   56.1155   34.5287   45.7984 H   0  0  0  0  0  0  0  0  0  0  0  0
  1  2  2  0
  2  3  1  0
  3  4  2  0
  4  5  1  0
  5  6  2  0
  6  7  1  0
  7  8  2  0
  8  9  1  0
  9 10  1  0
 10 11  1  0
 11 12  1  0
 12 13  2  0
 13 14  1  0
 14 15  2  0
 15 16  1  0
 15 17  1  0
 17 18  1  0
 18 19  1  0
 19 20  1  0
 20 21  1  0
 21 22  1  0
 22 23  1  0
 17 24  2  0
 10 25  1  0
 25 26  2  0
 25 27  1  0
 27 28  1  0
 28 29  2  0
 29 30  1  0
 30 31  2  0
 31 32  1  0
 32 33  2  0
 33 34  1  0
 34 35  1  0
  6 36  1  0
 36 37  1  0
 37 38  1  0
  8  3  1  0
 24 12  1  0
 33 28  1  0
 38  5  1  0
 23 19  1  0
  1 39  1  0
  1 40  1  0
  2 41  1  0
  4 42  1  0
  7 43  1  0
  9 44  1  0
  9 45  1  0
 11 46  1  0
 11 47  1  0
 13 48  1  0
 14 49  1  0
 18 50  1  0
 18 51  1  0
 20 52  1  0
 20 53  1  0
 21 54  1  0
 21 55  1  0
 22 56  1  0
 22 57  1  0
 23 58  1  0
 23 59  1  0
 24 60  1  0
 27 61  1  0
 29 62  1  0
 30 63  1  0
 31 64  1  0
 32 65  1  0
 35 66  1  0
 35 67  1  0
 35 68  1  0
 37 69  1  0
 37 70  1  0
M  CHG  1  16  -1
M  END
>  <UniqueID>  (69) 
67

>  <SMILES>  (69) 
C=Cc1cc2c(cc1CN(Cc1ccc([O-])c(CN3CCCC3)c1)C(=O)Nc1ccccc1OC)OCO2

>  <Energy>  (69) 
115.78657707538538

>  <Genealogy>  (69) 
C=Cc1cc2c(cc1CN(Cc1ccc([O-])c(CN3CCCC3)c1)C(=O)Nc1ccccc1OC)OCO2 (protonated)
C=Cc1cc2c(cc1CN(Cc1ccc([O-])c(CN3CCCC3)c1)C(=O)Nc1ccccc1OC)OCO2 (3D coordinates assigned)
C=Cc1cc2c(cc1CN(Cc1ccc([O-])c(CN3CCCC3)c1)C(=O)Nc1ccccc1OC)OCO2 (nonaromatic ring conformer: 115.78657707538538 kcal/mol)

>  <smiles>  (69) 
C=Cc1cc2c(cc1CN(Cc1ccc(O)c(CN3CCCC3)c1)C(=O)Nc1ccccc1OC)OCO2

>  <score_type>  (69) 
oracle

>  <origin>  (69) 
adg

>  <m_score__min__energy>  (69) 
-12.74

>  <m_primary>  (69) 
energy

$$$$
69:0
     RDKit          3D

 51 53  0  0  0  0  0  0  0  0999 V2000
   62.7870   32.5080   53.3810 C   0  0  0  0  0  0  0  0  0  0  0  0
   62.2760   32.0950   52.0730 N   0  0  0  0  0  0  0  0  0  0  0  0
   60.8670   32.1960   51.7810 C   0  0  0  0  0  0  0  0  0  0  0  0
   60.1650   31.0990   51.2460 C   0  0  0  0  0  0  0  0  0  0  0  0
   58.8010   31.2030   50.9540 C   0  0  0  0  0  0  0  0  0  0  0  0
   58.1220   32.4000   51.1930 C   0  0  0  0  0  0  0  0  0  0  0  0
   58.8070   33.4960   51.7210 C   0  0  0  0  0  0  0  0  0  0  0  0
   60.1710   33.3980   52.0120 C   0  0  0  0  0  0  0  0  0  0  0  0
   63.3930   31.5300   50.8620 S   0  0  0  0  0  0  0  0  0  0  0  0
   64.7880   31.9700   51.2080 O   0  0  0  0  0  0  0  0  0  0  0  0
   63.3740   30.0270   50.8310 O   0  0  0  0  0  0  0  0  0  0  0  0
   62.9510   32.1810   49.2850 C   0  0  0  0  0  0  0  0  0  0  0  0
   63.5540   33.3490   48.7970 C   0  0  0  0  0  0  0  0  0  0  0  0
   63.1920   33.8560   47.5480 C   0  0  0  0  0  0  0  0  0  0  0  0
   62.2330   33.1970   46.7740 C   0  0  0  0  0  0  0  0  0  0  0  0
   61.6360   32.0150   47.2380 C   0  0  0  0  0  0  0  0  0  0  0  0
   60.6370   31.3680   46.4330 N   0  0  0  0  0  0  0  0  0  0  0  0
   59.2430   31.7300   46.4420 C   0  0  0  0  0  0  0  0  0  0  0  0
   58.8150   32.5670   47.2840 O   0  0  0  0  0  0  0  0  0  0  0  0
   58.2870   31.1380   45.4740 C   0  0  0  0  0  0  0  0  0  0  0  0
   58.1100   31.7400   44.2170 C   0  0  0  0  0  0  0  0  0  0  0  0
   57.2190   31.1960   43.2920 C   0  0  0  0  0  0  0  0  0  0  0  0
   56.4840   30.0540   43.6100 C   0  0  0  0  0  0  0  0  0  0  0  0
   56.6320   29.4460   44.8690 C   0  0  0  0  0  0  0  0  0  0  0  0
   55.8850   28.2820   45.2490 N   0  0  0  0  0  0  0  0  0  0  0  0
   56.5490   26.8210   45.9080 S   0  0  0  0  0  0  0  0  0  0  0  0
   57.6120   26.0380   44.7110 C   0  0  0  0  0  0  0  0  0  0  0  0
   57.3620   27.1640   47.1230 O   0  0  0  0  0  0  0  0  0  0  0  0
   55.4420   25.8890   46.3140 O   0  0  0  0  0  0  0  0  0  0  0  0
   57.5320   29.9940   45.7930 C   0  0  0  0  0  0  0  0  0  0  0  0
   61.9850   31.5250   48.5100 C   0  0  0  0  0  0  0  0  0  0  0  0
   62.1942   32.0289   54.1742 H   0  0  0  0  0  0  0  0  0  0  0  0
   63.8399   32.2042   53.4759 H   0  0  0  0  0  0  0  0  0  0  0  0
   62.7108   33.6012   53.4759 H   0  0  0  0  0  0  0  0  0  0  0  0
   60.6932   30.1530   51.0562 H   0  0  0  0  0  0  0  0  0  0  0  0
   58.2620   30.3404   50.5353 H   0  0  0  0  0  0  0  0  0  0  0  0
   57.0487   32.4791   50.9655 H   0  0  0  0  0  0  0  0  0  0  0  0
   58.2723   34.4388   51.9085 H   0  0  0  0  0  0  0  0  0  0  0  0
   60.7047   34.2668   52.4247 H   0  0  0  0  0  0  0  0  0  0  0  0
   64.3143   33.8670   49.4000 H   0  0  0  0  0  0  0  0  0  0  0  0
   63.6626   34.7764   47.1720 H   0  0  0  0  0  0  0  0  0  0  0  0
   61.9444   33.6074   45.7951 H   0  0  0  0  0  0  0  0  0  0  0  0
   60.9520   30.5640   45.8460 H   0  0  0  0  0  0  0  0  0  0  0  0
   58.6779   32.6465   43.9606 H   0  0  0  0  0  0  0  0  0  0  0  0
   57.0954   31.6699   42.3070 H   0  0  0  0  0  0  0  0  0  0  0  0
   55.7866   29.6279   42.8737 H   0  0  0  0  0  0  0  0  0  0  0  0
   58.3916   25.4638   45.2330 H   0  0  0  0  0  0  0  0  0  0  0  0
   57.0176   25.3603   44.0806 H   0  0  0  0  0  0  0  0  0  0  0  0
   58.0829   26.8066   44.0806 H   0  0  0  0  0  0  0  0  0  0  0  0
   57.6498   29.5238   46.7804 H   0  0  0  0  0  0  0  0  0  0  0  0
   61.4958   30.6199   48.8992 H   0  0  0  0  0  0  0  0  0  0  0  0
  1  2  1  0
  2  3  1  0
  3  4  2  0
  4  5  1  0
  5  6  2  0
  6  7  1  0
  7  8  2  0
  2  9  1  0
  9 10  2  0
  9 11  2  0
  9 12  1  0
 12 13  2  0
 13 14  1  0
 14 15  2  0
 15 16  1  0
 16 17  1  0
 17 18  1  0
 18 19  2  0
 18 20  1  0
 20 21  2  0
 21 22  1  0
 22 23  2  0
 23 24  1  0
 24 25  1  0
 25 26  1  0
 26 27  1  0
 26 28  2  0
 26 29  2  0
 24 30  2  0
 16 31  2  0
  8  3  1  0
 31 12  1  0
 30 20  1  0
  1 32  1  0
  1 33  1  0
  1 34  1  0
  4 35  1  0
  5 36  1  0
  6 37  1  0
  7 38  1  0
  8 39  1  0
 13 40  1  0
 14 41  1  0
 15 42  1  0
 17 43  1  0
 21 44  1  0
 22 45  1  0
 23 46  1  0
 27 47  1  0
 27 48  1  0
 27 49  1  0
 30 50  1  0
 31 51  1  0
M  CHG  1  25  -1
M  END
>  <UniqueID>  (70) 
68

>  <SMILES>  (70) 
CN(c1ccccc1)S(=O)(=O)c1cccc(NC(=O)c2cccc([N-]S(C)(=O)=O)c2)c1

>  <Energy>  (70) 
63.41797064754241

>  <Genealogy>  (70) 
CN(c1ccccc1)S(=O)(=O)c1cccc(NC(=O)c2cccc([N-]S(C)(=O)=O)c2)c1 (protonated)
CN(c1ccccc1)S(=O)(=O)c1cccc(NC(=O)c2cccc([N-]S(C)(=O)=O)c2)c1 (3D coordinates assigned)
CN(c1ccccc1)S(=O)(=O)c1cccc(NC(=O)c2cccc([N-]S(C)(=O)=O)c2)c1 (optimized conformer: 63.41797064754241 kcal/mol)

>  <smiles>  (70) 
CN(c1ccccc1)S(=O)(=O)c1cccc(NC(=O)c2cccc(NS(C)(=O)=O)c2)c1

>  <score_type>  (70) 
oracle

>  <origin>  (70) 
adg

>  <m_score__min__energy>  (70) 
-12.109999999999999

>  <m_primary>  (70) 
energy

$$$$
70:0
     RDKit          3D

 53 56  0  0  1  0  0  0  0  0999 V2000
   58.6340   28.9360   52.8260 C   0  0  0  0  0  0  0  0  0  0  0  0
   58.2820   29.6500   51.6240 N   0  0  0  0  0  0  0  0  0  0  0  0
   58.2610   31.0730   51.9350 C   0  0  0  0  0  0  0  0  0  0  0  0
   57.8180   31.8950   50.7530 C   0  0  0  0  0  0  0  0  0  0  0  0
   58.4460   31.4070   49.5690 N   0  0  0  0  0  0  0  0  0  0  0  0
   58.6250   32.3410   48.4670 C   0  0  0  0  0  0  0  0  0  0  0  0
   58.1410   32.3360   47.3090 N   0  0  0  0  0  0  0  0  0  0  0  0
   58.3730   33.2330   46.3910 C   0  0  0  0  0  0  0  0  0  0  0  0
   57.7600   33.1770   45.0060 C   0  0  0  0  0  0  0  0  0  0  0  0
   56.6750   32.2320   44.9340 N   0  0  0  0  0  0  0  0  0  0  0  0
   56.7750   31.0550   44.4210 C   0  0  0  0  0  0  0  0  0  0  0  0
   56.4710   30.8360   43.1080 C   0  0  0  0  0  0  0  0  0  0  0  0
   56.6030   29.5510   42.6350 C   0  0  0  0  0  0  0  0  0  0  0  0
   57.0250   28.5610   43.4770 N   0  0  0  0  0  0  0  0  0  0  0  0
   57.3270   28.7470   44.7510 C   0  0  0  0  0  0  0  0  0  0  0  0
   57.8590   27.8330   45.7190 C   0  0  0  0  0  0  0  0  0  0  0  0
   57.0080   26.8000   46.1440 C   0  0  0  0  0  0  0  0  0  0  0  0
   57.3160   25.8880   47.0960 C   0  0  0  0  0  0  0  0  0  0  0  0
   58.5360   25.9490   47.7060 C   0  0  0  0  0  0  0  0  0  0  0  0
   59.3950   26.9440   47.3200 C   0  0  0  0  0  0  0  0  0  0  0  0
   59.0840   27.8930   46.3340 C   0  0  0  0  0  0  0  0  0  0  0  0
   60.2890   29.0910   45.9910 S   0  0  0  0  0  0  0  0  0  0  0  0
   59.6230   30.6480   45.6340 N   0  0  0  0  0  0  0  0  0  0  0  0
   61.1120   29.2720   47.3100 O   0  0  0  0  0  0  0  0  0  0  0  0
   61.3140   28.6390   45.0200 O   0  0  0  0  0  0  0  0  0  0  0  0
   57.1760   30.0520   45.1750 N   0  0  0  0  0  0  0  0  0  0  0  0
   59.2110   34.2470   46.7480 C   0  0  0  0  0  0  0  0  0  0  0  0
   59.6340   33.7940   48.5160 S   0  0  0  0  0  0  0  0  0  0  0  0
   58.9230   30.0600   49.3620 C   0  0  0  0  0  0  0  0  0  0  0  0
   59.2910   29.3570   50.6260 C   0  0  0  0  0  0  0  0  0  0  0  0
   58.3412   29.5300   53.7043 H   0  0  0  0  0  0  0  0  0  0  0  0
   58.1091   27.9695   52.8454 H   0  0  0  0  0  0  0  0  0  0  0  0
   59.7203   28.7638   52.8454 H   0  0  0  0  0  0  0  0  0  0  0  0
   57.5656   31.2453   52.7697 H   0  0  0  0  0  0  0  0  0  0  0  0
   59.2825   31.3806   52.2031 H   0  0  0  0  0  0  0  0  0  0  0  0
   56.7258   31.8219   50.6449 H   0  0  0  0  0  0  0  0  0  0  0  0
   58.1027   32.9457   50.9112 H   0  0  0  0  0  0  0  0  0  0  0  0
   57.3791   34.1756   44.7455 H   0  0  0  0  0  0  0  0  0  0  0  0
   58.5404   32.8527   44.3018 H   0  0  0  0  0  0  0  0  0  0  0  0
   56.1341   31.6543   42.4546 H   0  0  0  0  0  0  0  0  0  0  0  0
   56.3701   29.3217   41.5847 H   0  0  0  0  0  0  0  0  0  0  0  0
   57.0610   27.6300   43.0740 H   0  0  0  0  0  0  0  0  0  0  0  0
   56.0187   26.7264   45.6686 H   0  0  0  0  0  0  0  0  0  0  0  0
   56.5925   25.1077   47.3745 H   0  0  0  0  0  0  0  0  0  0  0  0
   58.8199   25.2229   48.4820 H   0  0  0  0  0  0  0  0  0  0  0  0
   60.3791   27.0021   47.8080 H   0  0  0  0  0  0  0  0  0  0  0  0
   58.8220   30.7780   46.2880 H   0  0  0  0  0  0  0  0  0  0  0  0
   59.2030   30.5720   44.6690 H   0  0  0  0  0  0  0  0  0  0  0  0
   59.5506   35.1075   46.1528 H   0  0  0  0  0  0  0  0  0  0  0  0
   58.1313   29.4836   48.8610 H   0  0  0  0  0  0  0  0  0  0  0  0
   59.8368   30.1307   48.7537 H   0  0  0  0  0  0  0  0  0  0  0  0
   59.3338   28.2722   50.4486 H   0  0  0  0  0  0  0  0  0  0  0  0
   60.2769   29.6983   50.9745 H   0  0  0  0  0  0  0  0  0  0  0  0
  1  2  1  0
  2  3  1  0
  3  4  1  0
  4  5  1  0
  5  6  1  0
  6  7  2  0
  7  8  1  0
  8  9  1  0
  9 10  1  0
 10 11  2  0
 11 12  1  0
 12 13  2  0
 13 14  1  0
 14 15  1  0
 15 16  1  0
 16 17  2  0
 17 18  1  0
 18 19  2  0
 19 20  1  0
 20 21  2  0
 21 22  1  0
 22 23  1  0
 22 24  2  0
 22 25  2  0
 15 26  2  0
  8 27  2  0
 27 28  1  0
  5 29  1  0
 29 30  1  0
 30  2  1  0
 28  6  1  0
 26 11  1  0
 21 16  1  0
  1 31  1  0
  1 32  1  0
  1 33  1  0
  3 34  1  0
  3 35  1  0
  4 36  1  0
  4 37  1  0
  9 38  1  0
  9 39  1  0
 12 40  1  0
 13 41  1  0
 14 42  1  0
 17 43  1  0
 18 44  1  0
 19 45  1  0
 20 46  1  0
 23 47  1  0
 23 48  1  0
 27 49  1  0
 29 50  1  0
 29 51  1  0
 30 52  1  0
 30 53  1  0
M  END
>  <smiles>  (71) 
CN1CCN(c2nc(CN=c3cc[nH]c(-c4ccccc4S(N)(=O)=O)n3)cs2)CC1

>  <score_type>  (71) 
oracle

>  <origin>  (71) 
adg

>  <m_score__min__energy>  (71) 
-10.02

>  <m_primary>  (71) 
energy

$$$$
71:0
     RDKit          3D

 61 65  0  0  0  0  0  0  0  0999 V2000
   50.2910   31.5130   50.3450 H   0  0  0  0  0  0  0  0  0  0  0  0
   50.6620   31.9620   51.2130 N   0  0  0  0  0  0  0  0  0  0  0  0
   51.7380   31.5340   51.7910 C   0  0  0  0  0  0  0  0  0  0  0  0
   51.6730   30.9830   53.0340 N   0  0  0  0  0  0  0  0  0  0  0  0
   52.7780   30.5180   53.6780 C   0  0  0  0  0  0  0  0  0  0  0  0
   52.6500   29.9700   54.9570 C   0  0  0  0  0  0  0  0  0  0  0  0
   51.6593   29.9116   55.4314 H   0  0  0  0  0  0  0  0  0  0  0  0
   53.7730   29.4970   55.6340 C   0  0  0  0  0  0  0  0  0  0  0  0
   53.6660   29.0689   56.6416 H   0  0  0  0  0  0  0  0  0  0  0  0
   55.0330   29.5650   55.0370 C   0  0  0  0  0  0  0  0  0  0  0  0
   55.9127   29.1915   55.5816 H   0  0  0  0  0  0  0  0  0  0  0  0
   55.1920   30.1050   53.7480 C   0  0  0  0  0  0  0  0  0  0  0  0
   56.8250   30.1620   53.0540 S   0  0  0  0  0  0  0  0  0  0  0  0
   57.7460   29.2330   53.7960 O   0  0  0  0  0  0  0  0  0  0  0  0
   56.7660   29.7160   51.6190 O   0  0  0  0  0  0  0  0  0  0  0  0
   57.4890   31.7620   53.1250 N   0  0  0  0  0  0  0  0  0  0  0  0
   58.4390   32.2400   52.1690 C   0  0  0  0  0  0  0  0  0  0  0  0
   59.7760   32.4690   52.5290 C   0  0  0  0  0  0  0  0  0  0  0  0
   60.1078   32.2714   53.5590 H   0  0  0  0  0  0  0  0  0  0  0  0
   60.6870   32.9470   51.5840 C   0  0  0  0  0  0  0  0  0  0  0  0
   61.7332   33.1216   51.8756 H   0  0  0  0  0  0  0  0  0  0  0  0
   60.2780   33.2080   50.2590 C   0  0  0  0  0  0  0  0  0  0  0  0
   61.2750   33.7030   49.2670 C   0  0  0  0  0  0  0  0  0  0  0  0
   62.4170   34.0510   49.6830 O   0  0  0  0  0  0  0  0  0  0  0  0
   60.9920   33.7520   47.8430 N   0  0  1  0  0  0  0  0  0  0  0  0
   61.8000   34.2050   47.3590 H   0  0  0  0  0  0  0  0  0  0  0  0
   60.9090   32.3830   47.2590 C   0  0  0  0  0  0  0  0  0  0  0  0
   61.5362   31.7079   47.8597 H   0  0  0  0  0  0  0  0  0  0  0  0
   61.2553   32.4501   46.2171 H   0  0  0  0  0  0  0  0  0  0  0  0
   59.4730   31.8220   47.2300 C   0  0  0  0  0  0  0  0  0  0  0  0
   59.1277   31.6962   48.2668 H   0  0  0  0  0  0  0  0  0  0  0  0
   59.5101   30.8684   46.6829 H   0  0  0  0  0  0  0  0  0  0  0  0
   58.4530   32.7460   46.4760 C   0  0  2  0  0  0  0  0  0  0  0  0
   57.3040   32.8570   47.2920 O   0  0  0  0  0  0  0  0  0  0  0  0
   56.8580   33.7220   47.0820 H   0  0  0  0  0  0  0  0  0  0  0  0
   58.0250   32.0960   45.1440 C   0  0  0  0  0  0  0  0  0  0  0  0
   57.3860   30.8360   45.1870 C   0  0  0  0  0  0  0  0  0  0  0  0
   57.2371   30.3366   46.1557 H   0  0  0  0  0  0  0  0  0  0  0  0
   56.9410   30.2160   44.0180 C   0  0  0  0  0  0  0  0  0  0  0  0
   56.4647   29.2258   44.0695 H   0  0  0  0  0  0  0  0  0  0  0  0
   57.0990   30.8500   42.7820 C   0  0  0  0  0  0  0  0  0  0  0  0
   56.7547   30.3556   41.8616 H   0  0  0  0  0  0  0  0  0  0  0  0
   57.6950   32.1130   42.7170 C   0  0  0  0  0  0  0  0  0  0  0  0
   57.8200   32.7430   41.5190 F   0  0  0  0  0  0  0  0  0  0  0  0
   58.1490   32.7380   43.8830 C   0  0  0  0  0  0  0  0  0  0  0  0
   58.6066   33.7365   43.8229 H   0  0  0  0  0  0  0  0  0  0  0  0
   59.0650   34.1700   46.3090 C   0  0  0  0  0  0  0  0  0  0  0  0
   58.2609   34.8890   46.0933 H   0  0  0  0  0  0  0  0  0  0  0  0
   59.7870   34.1574   45.4792 H   0  0  0  0  0  0  0  0  0  0  0  0
   59.7860   34.5860   47.5970 C   0  0  0  0  0  0  0  0  0  0  0  0
   59.0949   34.4732   48.4453 H   0  0  0  0  0  0  0  0  0  0  0  0
   60.1076   35.6324   47.4887 H   0  0  0  0  0  0  0  0  0  0  0  0
   58.9310   32.9750   49.9080 C   0  0  0  0  0  0  0  0  0  0  0  0
   58.5958   33.1606   48.8769 H   0  0  0  0  0  0  0  0  0  0  0  0
   58.0190   32.5100   50.8610 C   0  0  0  0  0  0  0  0  0  0  0  0
   56.9664   32.3556   50.5814 H   0  0  0  0  0  0  0  0  0  0  0  0
   54.0530   30.5940   53.0560 C   0  0  0  0  0  0  0  0  0  0  0  0
   54.1270   31.1720   51.7730 C   0  0  0  0  0  0  0  0  0  0  0  0
   55.0996   31.2561   51.2661 H   0  0  0  0  0  0  0  0  0  0  0  0
   52.9710   31.6390   51.1410 C   0  0  0  0  0  0  0  0  0  0  0  0
   53.0313   32.0865   50.1380 H   0  0  0  0  0  0  0  0  0  0  0  0
  1  2  1  0
  2  3  2  0
  3  4  1  0
  4  5  1  0
  5  6  2  0
  6  7  1  0
  6  8  1  0
  8  9  1  0
  8 10  2  0
 10 11  1  0
 10 12  1  0
 12 13  1  0
 13 14  2  0
 13 15  2  0
 13 16  1  0
 16 17  1  0
 17 18  2  0
 18 19  1  0
 18 20  1  0
 20 21  1  0
 20 22  2  0
 22 23  1  0
 23 24  2  0
 23 25  1  0
 25 26  1  1
 25 27  1  0
 27 28  1  0
 27 29  1  0
 27 30  1  0
 30 31  1  0
 30 32  1  0
 30 33  1  0
 33 34  1  6
 34 35  1  0
 33 36  1  0
 36 37  2  0
 37 38  1  0
 37 39  1  0
 39 40  1  0
 39 41  2  0
 41 42  1  0
 41 43  1  0
 43 44  1  0
 43 45  2  0
 45 46  1  0
 33 47  1  0
 47 48  1  0
 47 49  1  0
 47 50  1  0
 50 51  1  0
 50 52  1  0
 22 53  1  0
 53 54  1  0
 53 55  2  0
 55 56  1  0
 12 57  2  0
 57 58  1  0
 58 59  1  0
 58 60  2  0
 60 61  1  0
 60  3  1  0
 57  5  1  0
 55 17  1  0
 50 25  1  0
 45 36  1  0
M  CHG  3   4  -1  16  -1  25   1
M  END
>  <UniqueID>  (72) 
69

>  <SMILES>  (72) 
[H]/N=c1/ccc2c(S(=O)(=O)[N-]c3ccc(C(=O)[NH+]4CCC(O)(c5cccc(F)c5)CC4)cc3)cccc2[n-]1

>  <Energy>  (72) 
103.85228834656905

>  <Genealogy>  (72) 
N=c1ccc2c(S(=O)(=O)[N-]c3ccc(C(=O)[NH+]4CCC(O)(c5cccc(F)c5)CC4)cc3)cccc2[n-]1 (protonated)
[H]/N=c1/ccc2c(S(=O)(=O)[N-]c3ccc(C(=O)[NH+]4CCC(O)(c5cccc(F)c5)CC4)cc3)cccc2[n-]1 (cis-trans isomerization)
[H]/N=c1/ccc2c(S(=O)(=O)[N-]c3ccc(C(=O)[NH+]4CCC(O)(c5cccc(F)c5)CC4)cc3)cccc2[n-]1 (3D coordinates assigned)
[H]/N=c1/ccc2c(S(=O)(=O)[N-]c3ccc(C(=O)[NH+]4CCC(O)(c5cccc(F)c5)CC4)cc3)cccc2[n-]1 (nonaromatic ring conformer: 103.85228834656905 kcal/mol)

>  <smiles>  (72) 
N=c1ccc2c(S(=O)(=O)Nc3ccc(C(=O)N4CCC(O)(c5cccc(F)c5)CC4)cc3)cccc2[nH]1

>  <score_type>  (72) 
oracle

>  <origin>  (72) 
adg

>  <m_score__min__energy>  (72) 
-11.789999999999999

>  <m_primary>  (72) 
energy

$$$$
72:0
     RDKit          3D

 52 55  0  0  0  0  0  0  0  0999 V2000
   60.9380   33.4120   47.9220 C   0  0  0  0  0  0  0  0  0  0  0  0
   59.5860   33.9970   47.9370 N   0  0  0  0  0  0  0  0  0  0  0  0
   59.4120   35.0570   46.9190 C   0  0  0  0  0  0  0  0  0  0  0  0
   59.2810   34.4960   45.4930 C   0  0  0  0  0  0  0  0  0  0  0  0
   58.1530   33.4590   45.4300 C   0  0  0  0  0  0  0  0  0  0  0  0
   57.9110   32.7870   43.7350 S   0  0  0  0  0  0  0  0  0  0  0  0
   57.3650   31.1350   44.1740 C   0  0  0  0  0  0  0  0  0  0  0  0
   56.0900   30.8310   44.5010 N   0  0  0  0  0  0  0  0  0  0  0  0
   55.9300   29.5590   44.8600 N   0  0  0  0  0  0  0  0  0  0  0  0
   57.0780   28.8460   44.8240 C   0  0  0  0  0  0  0  0  0  0  0  0
   57.1790   27.4210   45.2590 C   0  0  0  0  0  0  0  0  0  0  0  0
   58.3140   27.2610   46.1590 N   0  0  0  0  0  0  0  0  0  0  0  0
   59.1680   26.2250   46.2010 C   0  0  0  0  0  0  0  0  0  0  0  0
   60.0490   26.3600   47.2110 N   0  0  0  0  0  0  0  0  0  0  0  0
   59.6660   27.5310   47.7700 C   0  0  0  0  0  0  0  0  0  0  0  0
   60.3170   28.1290   48.9450 C   0  0  0  0  0  0  0  0  0  0  0  0
   61.0010   27.3980   49.7110 O   0  0  0  0  0  0  0  0  0  0  0  0
   60.1740   29.5300   49.2230 N   0  0  0  0  0  0  0  0  0  0  0  0
   60.8610   30.1820   50.3350 C   0  0  0  0  0  0  0  0  0  0  0  0
   60.0320   31.3190   50.8640 C   0  0  0  0  0  0  0  0  0  0  0  0
   58.6310   31.2210   50.9180 C   0  0  0  0  0  0  0  0  0  0  0  0
   57.8710   32.2760   51.4320 C   0  0  0  0  0  0  0  0  0  0  0  0
   58.5030   33.4320   51.9010 C   0  0  0  0  0  0  0  0  0  0  0  0
   57.7630   34.4530   52.4020 F   0  0  0  0  0  0  0  0  0  0  0  0
   59.8950   33.5340   51.8570 C   0  0  0  0  0  0  0  0  0  0  0  0
   60.6590   32.4820   51.3420 C   0  0  0  0  0  0  0  0  0  0  0  0
   58.6060   28.0850   47.1470 N   0  0  0  0  0  0  0  0  0  0  0  0
   58.3820   29.8080   44.3640 S   0  0  0  0  0  0  0  0  0  0  0  0
   58.3690   32.3570   46.4740 C   0  0  0  0  0  0  0  0  0  0  0  0
   58.5210   32.9720   47.8750 C   0  0  0  0  0  0  0  0  0  0  0  0
   61.2842   33.2622   48.9553 H   0  0  0  0  0  0  0  0  0  0  0  0
   60.9130   32.4442   47.3997 H   0  0  0  0  0  0  0  0  0  0  0  0
   61.6263   34.0928   47.3997 H   0  0  0  0  0  0  0  0  0  0  0  0
   58.5023   35.6277   47.1574 H   0  0  0  0  0  0  0  0  0  0  0  0
   60.3097   35.6922   46.9445 H   0  0  0  0  0  0  0  0  0  0  0  0
   59.0564   35.3190   44.7986 H   0  0  0  0  0  0  0  0  0  0  0  0
   60.2277   34.0122   45.2107 H   0  0  0  0  0  0  0  0  0  0  0  0
   57.2138   33.9733   45.6816 H   0  0  0  0  0  0  0  0  0  0  0  0
   56.2549   27.1317   45.7810 H   0  0  0  0  0  0  0  0  0  0  0  0
   57.3210   26.7801   44.3764 H   0  0  0  0  0  0  0  0  0  0  0  0
   59.1502   25.3764   45.5013 H   0  0  0  0  0  0  0  0  0  0  0  0
   59.5600   30.1160   48.6130 H   0  0  0  0  0  0  0  0  0  0  0  0
   61.0276   29.4495   51.1385 H   0  0  0  0  0  0  0  0  0  0  0  0
   61.8245   30.5760   49.9795 H   0  0  0  0  0  0  0  0  0  0  0  0
   58.1307   30.3112   50.5546 H   0  0  0  0  0  0  0  0  0  0  0  0
   56.7744   32.1966   51.4675 H   0  0  0  0  0  0  0  0  0  0  0  0
   60.3912   34.4430   52.2279 H   0  0  0  0  0  0  0  0  0  0  0  0
   61.7554   32.5653   51.3110 H   0  0  0  0  0  0  0  0  0  0  0  0
   57.5044   31.6769   46.4680 H   0  0  0  0  0  0  0  0  0  0  0  0
   59.2860   31.8028   46.2250 H   0  0  0  0  0  0  0  0  0  0  0  0
   57.5665   33.4388   48.1597 H   0  0  0  0  0  0  0  0  0  0  0  0
   58.7997   32.1617   48.5647 H   0  0  0  0  0  0  0  0  0  0  0  0
  1  2  1  0
  2  3  1  0
  3  4  1  0
  4  5  1  0
  5  6  1  0
  6  7  1  0
  7  8  2  0
  8  9  1  0
  9 10  2  0
 10 11  1  0
 11 12  1  0
 12 13  1  0
 13 14  2  0
 14 15  1  0
 15 16  1  0
 16 17  2  0
 16 18  1  0
 18 19  1  0
 19 20  1  0
 20 21  2  0
 21 22  1  0
 22 23  2  0
 23 24  1  0
 23 25  1  0
 25 26  2  0
 15 27  2  0
 10 28  1  0
  5 29  1  0
 29 30  1  0
 30  2  1  0
 28  7  1  0
 27 12  1  0
 26 20  1  0
  1 31  1  0
  1 32  1  0
  1 33  1  0
  3 34  1  0
  3 35  1  0
  4 36  1  0
  4 37  1  0
  5 38  1  0
 11 39  1  0
 11 40  1  0
 13 41  1  0
 18 42  1  0
 19 43  1  0
 19 44  1  0
 21 45  1  0
 22 46  1  0
 25 47  1  0
 26 48  1  0
 29 49  1  0
 29 50  1  0
 30 51  1  0
 30 52  1  0
M  END
>  <UniqueID>  (73) 
70

>  <SMILES>  (73) 
CN1CCC(Sc2nnc(Cn3cnc(C(=O)NCc4ccc(F)cc4)n3)s2)CC1

>  <Energy>  (73) 
113.88995463379138

>  <Genealogy>  (73) 
CN1CCC(Sc2nnc(Cn3cnc(C(=O)NCc4ccc(F)cc4)n3)s2)CC1 (3D coordinates assigned)
CN1CCC(Sc2nnc(Cn3cnc(C(=O)NCc4ccc(F)cc4)n3)s2)CC1 (nonaromatic ring conformer: 113.88995463379138 kcal/mol)

>  <smiles>  (73) 
CN1CCC(Sc2nnc(Cn3cnc(C(=O)NCc4ccc(F)cc4)n3)s2)CC1

>  <score_type>  (73) 
oracle

>  <origin>  (73) 
adg

>  <m_score__min__energy>  (73) 
-9.2400000000000002

>  <m_primary>  (73) 
energy

$$$$
73:0
     RDKit          3D

 54 56  0  0  0  0  0  0  0  0999 V2000
   60.7760   26.6640   46.2400 C   0  0  0  0  0  0  0  0  0  0  0  0
   60.2740   27.9730   45.9800 O   0  0  0  0  0  0  0  0  0  0  0  0
   60.1200   28.9790   46.9510 C   0  0  0  0  0  0  0  0  0  0  0  0
   60.9940   30.0850   47.0280 C   0  0  0  0  0  0  0  0  0  0  0  0
   60.8080   31.0900   47.9990 C   0  0  0  0  0  0  0  0  0  0  0  0
   61.6900   32.2400   48.0560 N   0  0  0  0  0  0  0  0  0  0  0  0
   62.7870   32.4650   47.1220 C   0  0  0  0  0  0  0  0  0  0  0  0
   63.3730   33.8280   47.4780 C   0  0  0  0  0  0  0  0  0  0  0  0
   62.8390   34.1640   48.8700 C   0  0  0  0  0  0  0  0  0  0  0  0
   61.6130   33.2830   49.0740 C   0  0  0  0  0  0  0  0  0  0  0  0
   59.7520   30.9480   48.9180 C   0  0  0  0  0  0  0  0  0  0  0  0
   58.8920   29.8520   48.8510 C   0  0  0  0  0  0  0  0  0  0  0  0
   59.0480   28.8800   47.8550 C   0  0  0  0  0  0  0  0  0  0  0  0
   58.1680   27.7460   47.7800 N   0  0  0  0  0  0  0  0  0  0  0  0
   57.6330   27.1720   46.5810 C   0  0  0  0  0  0  0  0  0  0  0  0
   57.8980   25.9740   46.3150 O   0  0  0  0  0  0  0  0  0  0  0  0
   56.8310   27.9770   45.5950 C   0  0  0  0  0  0  0  0  0  0  0  0
   57.6860   28.9170   44.8690 N   0  0  0  0  0  0  0  0  0  0  0  0
   57.1880   30.1830   44.4140 C   0  0  0  0  0  0  0  0  0  0  0  0
   55.9600   30.4610   44.5100 O   0  0  0  0  0  0  0  0  0  0  0  0
   58.1230   31.2060   43.8430 C   0  0  0  0  0  0  0  0  0  0  0  0
   57.5210   32.6090   43.9860 C   0  0  0  0  0  0  0  0  0  0  0  0
   58.1600   33.3570   45.1240 C   0  0  0  0  0  0  0  0  0  0  0  0
   57.8770   32.9990   46.4610 C   0  0  0  0  0  0  0  0  0  0  0  0
   58.4680   33.6990   47.5220 C   0  0  0  0  0  0  0  0  0  0  0  0
   59.3510   34.7490   47.2580 C   0  0  0  0  0  0  0  0  0  0  0  0
   59.6540   35.0920   45.9360 C   0  0  0  0  0  0  0  0  0  0  0  0
   59.0680   34.3940   44.8720 C   0  0  0  0  0  0  0  0  0  0  0  0
   60.8374   26.5040   47.3266 H   0  0  0  0  0  0  0  0  0  0  0  0
   60.1004   25.9175   45.7970 H   0  0  0  0  0  0  0  0  0  0  0  0
   61.7775   26.5607   45.7970 H   0  0  0  0  0  0  0  0  0  0  0  0
   61.8323   30.1637   46.3201 H   0  0  0  0  0  0  0  0  0  0  0  0
   63.5501   31.6805   47.2332 H   0  0  0  0  0  0  0  0  0  0  0  0
   62.4388   32.4373   46.0789 H   0  0  0  0  0  0  0  0  0  0  0  0
   64.4719   33.7802   47.4912 H   0  0  0  0  0  0  0  0  0  0  0  0
   63.0893   34.5940   46.7413 H   0  0  0  0  0  0  0  0  0  0  0  0
   63.5990   33.9440   49.6342 H   0  0  0  0  0  0  0  0  0  0  0  0
   62.5871   35.2312   48.9579 H   0  0  0  0  0  0  0  0  0  0  0  0
   61.6265   32.8369   50.0794 H   0  0  0  0  0  0  0  0  0  0  0  0
   60.6824   33.8628   48.9857 H   0  0  0  0  0  0  0  0  0  0  0  0
   59.6031   31.7096   49.6977 H   0  0  0  0  0  0  0  0  0  0  0  0
   58.0823   29.7500   49.5886 H   0  0  0  0  0  0  0  0  0  0  0  0
   56.3546   27.2944   44.8759 H   0  0  0  0  0  0  0  0  0  0  0  0
   56.0692   28.5485   46.1455 H   0  0  0  0  0  0  0  0  0  0  0  0
   58.6970   28.6830   44.7180 H   0  0  0  0  0  0  0  0  0  0  0  0
   59.0808   31.1645   44.3823 H   0  0  0  0  0  0  0  0  0  0  0  0
   58.2840   30.9906   42.7764 H   0  0  0  0  0  0  0  0  0  0  0  0
   57.6840   33.1671   43.0522 H   0  0  0  0  0  0  0  0  0  0  0  0
   56.4452   32.5091   44.1928 H   0  0  0  0  0  0  0  0  0  0  0  0
   57.1892   32.1665   46.6706 H   0  0  0  0  0  0  0  0  0  0  0  0
   58.2368   33.4219   48.5611 H   0  0  0  0  0  0  0  0  0  0  0  0
   59.8079   35.3059   48.0894 H   0  0  0  0  0  0  0  0  0  0  0  0
   60.3558   35.9138   45.7309 H   0  0  0  0  0  0  0  0  0  0  0  0
   59.3215   34.6609   43.8354 H   0  0  0  0  0  0  0  0  0  0  0  0
  1  2  1  0
  2  3  1  0
  3  4  2  0
  4  5  1  0
  5  6  1  0
  6  7  1  0
  7  8  1  0
  8  9  1  0
  9 10  1  0
  5 11  2  0
 11 12  1  0
 12 13  2  0
 13 14  1  0
 14 15  1  0
 15 16  2  0
 15 17  1  0
 17 18  1  0
 18 19  1  0
 19 20  2  0
 19 21  1  0
 21 22  1  0
 22 23  1  0
 23 24  2  0
 24 25  1  0
 25 26  2  0
 26 27  1  0
 27 28  2  0
 13  3  1  0
 28 23  1  0
 10  6  1  0
  1 29  1  0
  1 30  1  0
  1 31  1  0
  4 32  1  0
  7 33  1  0
  7 34  1  0
  8 35  1  0
  8 36  1  0
  9 37  1  0
  9 38  1  0
 10 39  1  0
 10 40  1  0
 11 41  1  0
 12 42  1  0
 17 43  1  0
 17 44  1  0
 18 45  1  0
 21 46  1  0
 21 47  1  0
 22 48  1  0
 22 49  1  0
 24 50  1  0
 25 51  1  0
 26 52  1  0
 27 53  1  0
 28 54  1  0
M  CHG  1  14  -1
M  END
>  <UniqueID>  (74) 
71

>  <SMILES>  (74) 
COc1cc(N2CCCC2)ccc1[N-]C(=O)CNC(=O)CCc1ccccc1

>  <Energy>  (74) 
54.34205595667927

>  <Genealogy>  (74) 
COc1cc(N2CCCC2)ccc1[N-]C(=O)CNC(=O)CCc1ccccc1 (protonated)
COc1cc(N2CCCC2)ccc1[N-]C(=O)CNC(=O)CCc1ccccc1 (3D coordinates assigned)
COc1cc(N2CCCC2)ccc1[N-]C(=O)CNC(=O)CCc1ccccc1 (nonaromatic ring conformer: 54.34205595667927 kcal/mol)

>  <smiles>  (74) 
COc1cc(N2CCCC2)ccc1NC(=O)CNC(=O)CCc1ccccc1

>  <score_type>  (74) 
oracle

>  <origin>  (74) 
adg

>  <m_score__min__energy>  (74) 
-9.9900000000000002

>  <m_primary>  (74) 
energy

$$$$
74:0
     RDKit          3D

 65 68  0  0  0  0  0  0  0  0999 V2000
   57.6510   34.5460   44.9440 C   0  0  0  0  0  0  0  0  0  0  0  0
   57.8240   33.0660   44.7220 C   0  0  0  0  0  0  0  0  0  0  0  0
   57.7730   32.5750   43.4070 C   0  0  0  0  0  0  0  0  0  0  0  0
   57.9300   31.2140   43.1500 C   0  0  0  0  0  0  0  0  0  0  0  0
   58.1510   30.3240   44.2000 C   0  0  0  0  0  0  0  0  0  0  0  0
   58.2170   30.7880   45.5180 C   0  0  0  0  0  0  0  0  0  0  0  0
   58.4050   29.8390   46.5730 N   0  0  0  0  0  0  0  0  0  0  0  0
   58.2440   28.4200   46.3770 C   0  0  0  0  0  0  0  0  0  0  0  0
   57.0290   27.9090   45.8780 C   0  0  0  0  0  0  0  0  0  0  0  0
   56.8750   26.5410   45.6410 C   0  0  0  0  0  0  0  0  0  0  0  0
   57.9280   25.6630   45.8970 C   0  0  0  0  0  0  0  0  0  0  0  0
   59.1360   26.1480   46.4010 C   0  0  0  0  0  0  0  0  0  0  0  0
   59.3050   27.5210   46.6560 C   0  0  0  0  0  0  0  0  0  0  0  0
   60.6160   28.0000   47.2370 C   0  0  0  0  0  0  0  0  0  0  0  0
   60.4290   29.1830   48.1530 C   0  0  0  0  0  0  0  0  0  0  0  0
   60.8520   30.3160   47.8000 O   0  0  0  0  0  0  0  0  0  0  0  0
   59.8710   29.0380   49.4680 N   0  0  0  0  0  0  0  0  0  0  0  0
   58.5330   29.4620   49.8730 C   0  0  0  0  0  0  0  0  0  0  0  0
   58.5740   30.8440   50.4680 C   0  0  0  0  0  0  0  0  0  0  0  0
   57.7890   31.1700   51.5820 C   0  0  0  0  0  0  0  0  0  0  0  0
   57.8550   32.4480   52.1410 C   0  0  0  0  0  0  0  0  0  0  0  0
   58.7220   33.4140   51.6200 C   0  0  0  0  0  0  0  0  0  0  0  0
   58.7650   34.6570   52.2570 O   0  0  0  0  0  0  0  0  0  0  0  0
   59.5360   33.0950   50.5020 C   0  0  0  0  0  0  0  0  0  0  0  0
   60.6080   34.0350   49.9730 C   0  0  0  0  0  0  0  0  0  0  0  0
   61.5010   33.4640   48.9400 N   0  0  0  0  0  0  0  0  0  0  0  0
   61.1890   33.8210   47.5540 C   0  0  0  0  0  0  0  0  0  0  0  0
   62.4460   33.5030   46.7490 C   0  0  0  0  0  0  0  0  0  0  0  0
   63.5580   33.3340   47.7830 C   0  0  0  0  0  0  0  0  0  0  0  0
   62.9260   33.7310   49.1050 C   0  0  0  0  0  0  0  0  0  0  0  0
   59.4440   31.8060   49.9380 C   0  0  0  0  0  0  0  0  0  0  0  0
   58.0860   32.1720   45.7940 C   0  0  0  0  0  0  0  0  0  0  0  0
   58.1510   32.6750   47.2180 C   0  0  0  0  0  0  0  0  0  0  0  0
   57.6266   34.7544   46.0238 H   0  0  0  0  0  0  0  0  0  0  0  0
   58.4921   35.0864   44.4851 H   0  0  0  0  0  0  0  0  0  0  0  0
   56.7080   34.8778   44.4851 H   0  0  0  0  0  0  0  0  0  0  0  0
   57.6075   33.2714   42.5717 H   0  0  0  0  0  0  0  0  0  0  0  0
   57.8794   30.8414   42.1163 H   0  0  0  0  0  0  0  0  0  0  0  0
   58.2741   29.2511   43.9910 H   0  0  0  0  0  0  0  0  0  0  0  0
   58.7000   30.2120   47.5000 H   0  0  0  0  0  0  0  0  0  0  0  0
   56.1934   28.5944   45.6731 H   0  0  0  0  0  0  0  0  0  0  0  0
   55.9212   26.1554   45.2516 H   0  0  0  0  0  0  0  0  0  0  0  0
   57.8064   24.5873   45.7016 H   0  0  0  0  0  0  0  0  0  0  0  0
   59.9629   25.4505   46.6005 H   0  0  0  0  0  0  0  0  0  0  0  0
   61.0732   27.1780   47.8073 H   0  0  0  0  0  0  0  0  0  0  0  0
   61.2623   28.3139   46.4041 H   0  0  0  0  0  0  0  0  0  0  0  0
   57.8731   29.4665   48.9929 H   0  0  0  0  0  0  0  0  0  0  0  0
   58.1521   28.7606   50.6299 H   0  0  0  0  0  0  0  0  0  0  0  0
   57.1176   30.4157   52.0182 H   0  0  0  0  0  0  0  0  0  0  0  0
   57.2173   32.6980   53.0017 H   0  0  0  0  0  0  0  0  0  0  0  0
   58.1910   35.4420   51.9960 H   0  0  0  0  0  0  0  0  0  0  0  0
   60.1058   34.9126   49.5397 H   0  0  0  0  0  0  0  0  0  0  0  0
   61.2525   34.2730   50.8321 H   0  0  0  0  0  0  0  0  0  0  0  0
   60.3390   33.2267   47.1875 H   0  0  0  0  0  0  0  0  0  0  0  0
   60.9073   34.8804   47.4627 H   0  0  0  0  0  0  0  0  0  0  0  0
   62.3105   32.5749   46.1744 H   0  0  0  0  0  0  0  0  0  0  0  0
   62.6790   34.2965   46.0237 H   0  0  0  0  0  0  0  0  0  0  0  0
   63.9002   32.2891   47.8160 H   0  0  0  0  0  0  0  0  0  0  0  0
   64.4406   33.9461   47.5457 H   0  0  0  0  0  0  0  0  0  0  0  0
   63.3392   33.1282   49.9271 H   0  0  0  0  0  0  0  0  0  0  0  0
   63.1219   34.7839   49.3559 H   0  0  0  0  0  0  0  0  0  0  0  0
   60.0658   31.5513   49.0671 H   0  0  0  0  0  0  0  0  0  0  0  0
   58.0416   31.8281   47.9114 H   0  0  0  0  0  0  0  0  0  0  0  0
   59.1201   33.1664   47.3894 H   0  0  0  0  0  0  0  0  0  0  0  0
   57.3386   33.3966   47.3894 H   0  0  0  0  0  0  0  0  0  0  0  0
  1  2  1  0
  2  3  2  0
  3  4  1  0
  4  5  2  0
  5  6  1  0
  6  7  1  0
  7  8  1  0
  8  9  2  0
  9 10  1  0
 10 11  2  0
 11 12  1  0
 12 13  2  0
 13 14  1  0
 14 15  1  0
 15 16  2  0
 15 17  1  0
 17 18  1  0
 18 19  1  0
 19 20  2  0
 20 21  1  0
 21 22  2  0
 22 23  1  0
 22 24  1  0
 24 25  1  0
 25 26  1  0
 26 27  1  0
 27 28  1  0
 28 29  1  0
 29 30  1  0
 24 31  2  0
  6 32  2  0
 32 33  1  0
 32  2  1  0
 13  8  1  0
 31 19  1  0
 30 26  1  0
  1 34  1  0
  1 35  1  0
  1 36  1  0
  3 37  1  0
  4 38  1  0
  5 39  1  0
  7 40  1  0
  9 41  1  0
 10 42  1  0
 11 43  1  0
 12 44  1  0
 14 45  1  0
 14 46  1  0
 18 47  1  0
 18 48  1  0
 20 49  1  0
 21 50  1  0
 23 51  1  0
 25 52  1  0
 25 53  1  0
 27 54  1  0
 27 55  1  0
 28 56  1  0
 28 57  1  0
 29 58  1  0
 29 59  1  0
 30 60  1  0
 30 61  1  0
 31 62  1  0
 33 63  1  0
 33 64  1  0
 33 65  1  0
M  CHG  1  17  -1
M  END
>  <UniqueID>  (75) 
72

>  <SMILES>  (75) 
Cc1cccc(Nc2ccccc2CC(=O)[N-]Cc2ccc(O)c(CN3CCCC3)c2)c1C

>  <Energy>  (75) 
79.11094573054528

>  <Genealogy>  (75) 
Cc1cccc(Nc2ccccc2CC(=O)[N-]Cc2ccc(O)c(CN3CCCC3)c2)c1C (protonated)
Cc1cccc(Nc2ccccc2CC(=O)[N-]Cc2ccc(O)c(CN3CCCC3)c2)c1C (3D coordinates assigned)
Cc1cccc(Nc2ccccc2CC(=O)[N-]Cc2ccc(O)c(CN3CCCC3)c2)c1C (nonaromatic ring conformer: 79.11094573054528 kcal/mol)

>  <smiles>  (75) 
Cc1cccc(Nc2ccccc2CC(=O)NCc2ccc(O)c(CN3CCCC3)c2)c1C

>  <score_type>  (75) 
oracle

>  <origin>  (75) 
adg

>  <m_score__min__energy>  (75) 
-11.44

>  <m_primary>  (75) 
energy

$$$$
75:0
     RDKit          3D

 59 62  0  0  0  0  0  0  0  0999 V2000
   61.0830   31.5890   46.7590 C   0  0  0  0  0  0  0  0  0  0  0  0
   60.4650   30.5850   47.6870 C   0  0  0  0  0  0  0  0  0  0  0  0
   59.5300   30.9940   48.6490 C   0  0  0  0  0  0  0  0  0  0  0  0
   58.9380   30.0560   49.4980 C   0  0  0  0  0  0  0  0  0  0  0  0
   59.2630   28.7020   49.3830 C   0  0  0  0  0  0  0  0  0  0  0  0
   60.1760   28.2740   48.4060 C   0  0  0  0  0  0  0  0  0  0  0  0
   60.5730   26.8220   48.3190 C   0  0  0  0  0  0  0  0  0  0  0  0
   60.2220   26.2210   46.9500 C   0  0  0  0  0  0  0  0  0  0  0  0
   58.8380   26.6250   46.4960 C   0  0  0  0  0  0  0  0  0  0  0  0
   58.7350   27.6500   45.7010 N   0  0  0  0  0  0  0  0  0  0  0  0
   57.4730   28.2210   45.3210 C   0  0  0  0  0  0  0  0  0  0  0  0
   57.4310   29.5380   44.6400 C   0  0  0  0  0  0  0  0  0  0  0  0
   57.0680   29.6240   43.2830 C   0  0  0  0  0  0  0  0  0  0  0  0
   57.0370   30.8620   42.6350 C   0  0  0  0  0  0  0  0  0  0  0  0
   57.3680   32.0270   43.3300 C   0  0  0  0  0  0  0  0  0  0  0  0
   57.7260   31.9610   44.6830 C   0  0  0  0  0  0  0  0  0  0  0  0
   58.1760   33.4270   45.5470 S   0  0  0  0  0  0  0  0  0  0  0  0
   57.8640   33.2050   47.2820 C   0  0  0  0  0  0  0  0  0  0  0  0
   59.6350   33.7170   45.3300 O   0  0  0  0  0  0  0  0  0  0  0  0
   57.3720   34.5900   45.0360 O   0  0  0  0  0  0  0  0  0  0  0  0
   57.7610   30.7190   45.3320 C   0  0  0  0  0  0  0  0  0  0  0  0
   56.3690   27.5930   45.6050 N   0  0  0  0  0  0  0  0  0  0  0  0
   56.3420   26.2660   46.2250 C   0  0  1  0  0  0  0  0  0  0  0  0
   56.1820   25.2010   45.1490 C   0  0  0  0  0  0  0  0  0  0  0  0
   55.0510   24.3630   45.1590 C   0  0  0  0  0  0  0  0  0  0  0  0
   54.8970   23.3650   44.1930 C   0  0  0  0  0  0  0  0  0  0  0  0
   55.8720   23.1860   43.2080 C   0  0  0  0  0  0  0  0  0  0  0  0
   55.7220   22.2160   42.2730 F   0  0  0  0  0  0  0  0  0  0  0  0
   57.0030   24.0050   43.1910 C   0  0  0  0  0  0  0  0  0  0  0  0
   57.1610   25.0050   44.1540 C   0  0  0  0  0  0  0  0  0  0  0  0
   57.5820   26.0540   47.1370 C   0  0  1  0  0  0  0  0  0  0  0  0
   57.7210   24.6120   47.5590 C   0  0  0  0  0  0  0  0  0  0  0  0
   58.1670   23.7590   46.7480 O   0  0  0  0  0  0  0  0  0  0  0  0
   57.4040   24.2190   48.8550 O   0  0  0  0  0  0  0  0  0  0  0  0
   60.7740   29.2220   47.5590 C   0  0  0  0  0  0  0  0  0  0  0  0
   61.5703   32.3806   47.3471 H   0  0  0  0  0  0  0  0  0  0  0  0
   61.8308   31.0904   46.1247 H   0  0  0  0  0  0  0  0  0  0  0  0
   60.3010   32.0320   46.1247 H   0  0  0  0  0  0  0  0  0  0  0  0
   59.2619   32.0573   48.7352 H   0  0  0  0  0  0  0  0  0  0  0  0
   58.2144   30.3840   50.2588 H   0  0  0  0  0  0  0  0  0  0  0  0
   58.8017   27.9684   50.0606 H   0  0  0  0  0  0  0  0  0  0  0  0
   61.6583   26.7385   48.4779 H   0  0  0  0  0  0  0  0  0  0  0  0
   60.0192   26.2671   49.0906 H   0  0  0  0  0  0  0  0  0  0  0  0
   60.9558   26.5711   46.2091 H   0  0  0  0  0  0  0  0  0  0  0  0
   60.2444   25.1251   47.0426 H   0  0  0  0  0  0  0  0  0  0  0  0
   56.8069   28.7106   42.7285 H   0  0  0  0  0  0  0  0  0  0  0  0
   56.7510   30.9188   41.5743 H   0  0  0  0  0  0  0  0  0  0  0  0
   57.3476   32.9984   42.8143 H   0  0  0  0  0  0  0  0  0  0  0  0
   58.6248   33.7463   47.8636 H   0  0  0  0  0  0  0  0  0  0  0  0
   56.8663   33.5974   47.5283 H   0  0  0  0  0  0  0  0  0  0  0  0
   57.9077   32.1338   47.5283 H   0  0  0  0  0  0  0  0  0  0  0  0
   58.0491   30.6665   46.3923 H   0  0  0  0  0  0  0  0  0  0  0  0
   55.4703   26.1804   46.8905 H   0  0  0  0  0  0  0  0  0  0  0  0
   54.2816   24.4949   45.9340 H   0  0  0  0  0  0  0  0  0  0  0  0
   54.0067   22.7191   44.2080 H   0  0  0  0  0  0  0  0  0  0  0  0
   57.7717   23.8624   42.4172 H   0  0  0  0  0  0  0  0  0  0  0  0
   58.0561   25.6441   44.1355 H   0  0  0  0  0  0  0  0  0  0  0  0
   57.4292   26.6208   48.0673 H   0  0  0  0  0  0  0  0  0  0  0  0
   61.4892   28.8938   46.7904 H   0  0  0  0  0  0  0  0  0  0  0  0
  1  2  1  0
  2  3  2  0
  3  4  1  0
  4  5  2  0
  5  6  1  0
  6  7  1  0
  7  8  1  0
  8  9  1  0
  9 10  2  0
 10 11  1  0
 11 12  1  0
 12 13  2  0
 13 14  1  0
 14 15  2  0
 15 16  1  0
 16 17  1  0
 17 18  1  0
 17 19  2  0
 17 20  2  0
 16 21  2  0
 11 22  2  0
 22 23  1  0
 23 24  1  0
 24 25  2  0
 25 26  1  0
 26 27  2  0
 27 28  1  0
 27 29  1  0
 29 30  2  0
 23 31  1  0
 31 32  1  0
 32 33  2  0
 32 34  1  0
  6 35  2  0
 35  2  1  0
 31  9  1  0
 21 12  1  0
 30 24  1  0
  1 36  1  0
  1 37  1  0
  1 38  1  0
  3 39  1  0
  4 40  1  0
  5 41  1  0
  7 42  1  0
  7 43  1  0
  8 44  1  0
  8 45  1  0
 13 46  1  0
 14 47  1  0
 15 48  1  0
 18 49  1  0
 18 50  1  0
 18 51  1  0
 21 52  1  0
 23 53  1  1
 25 54  1  0
 26 55  1  0
 29 56  1  0
 30 57  1  0
 31 58  1  1
 35 59  1  0
M  CHG  1  34  -1
M  END
>  <UniqueID>  (76) 
73

>  <SMILES>  (76) 
Cc1cccc(CCC2=NC(c3cccc(S(C)(=O)=O)c3)=N[C@@H](c3ccc(F)cc3)[C@H]2C(=O)[O-])c1

>  <Energy>  (76) 
60.921900870300504

>  <Genealogy>  (76) 
Cc1cccc(CCC2=NC(c3cccc(S(C)(=O)=O)c3)=NC(c3ccc(F)cc3)C2C(=O)[O-])c1 (protonated)
Cc1cccc(CCC2=NC(c3cccc(S(C)(=O)=O)c3)=N[C@@H](c3ccc(F)cc3)[C@H]2C(=O)[O-])c1 (chirality)
Cc1cccc(CCC2=NC(c3cccc(S(C)(=O)=O)c3)=N[C@@H](c3ccc(F)cc3)[C@H]2C(=O)[O-])c1 (3D coordinates assigned)
Cc1cccc(CCC2=NC(c3cccc(S(C)(=O)=O)c3)=N[C@@H](c3ccc(F)cc3)[C@H]2C(=O)[O-])c1 (nonaromatic ring conformer: 60.921900870300504 kcal/mol)

>  <smiles>  (76) 
Cc1cccc(CCC2=NC(c3cccc(S(C)(=O)=O)c3)=NC(c3ccc(F)cc3)C2C(=O)O)c1

>  <score_type>  (76) 
oracle

>  <origin>  (76) 
adg

>  <m_score__min__energy>  (76) 
-11.449999999999999

>  <m_primary>  (76) 
energy

$$$$
76:0
     RDKit          3D

 49 52  0  0  0  0  0  0  0  0999 V2000
   54.5090   29.3820   45.4250 H   0  0  0  0  0  0  0  0  0  0  0  0
   55.3720   29.0240   44.9620 N   0  0  0  0  0  0  0  0  0  0  0  0
   56.5430   29.8310   44.8620 C   0  0  0  0  0  0  0  0  0  0  0  0
   56.5550   30.8090   44.0700 O   0  0  0  0  0  0  0  0  0  0  0  0
   57.6960   29.5600   45.7400 C   0  0  0  0  0  0  0  0  0  0  0  0
   58.1730   30.4500   46.6850 C   0  0  0  0  0  0  0  0  0  0  0  0
   57.6496   31.3505   47.0388 H   0  0  0  0  0  0  0  0  0  0  0  0
   59.3850   30.0320   47.1010 N   0  0  0  0  0  0  0  0  0  0  0  0
   60.2920   30.7910   47.9740 C   0  0  2  0  0  0  0  0  0  0  0  0
   60.9018   30.1032   48.5782 H   0  0  0  0  0  0  0  0  0  0  0  0
   59.4620   31.6420   48.9740 C   0  0  0  0  0  0  0  0  0  0  0  0
   59.6158   31.2371   49.9851 H   0  0  0  0  0  0  0  0  0  0  0  0
   58.4119   31.5817   48.6520 H   0  0  0  0  0  0  0  0  0  0  0  0
   59.8420   33.1290   48.9850 C   0  0  0  0  0  0  0  0  0  0  0  0
   60.8545   33.2364   49.4013 H   0  0  0  0  0  0  0  0  0  0  0  0
   59.1072   33.6691   49.6001 H   0  0  0  0  0  0  0  0  0  0  0  0
   59.8180   33.7270   47.5650 C   0  0  2  0  0  0  0  0  0  0  0  0
   60.2342   34.7439   47.6174 H   0  0  0  0  0  0  0  0  0  0  0  0
   58.4280   33.8080   47.0750 N   0  0  0  0  0  0  0  0  0  0  0  0
   57.9280   34.5200   47.6630 H   0  0  0  0  0  0  0  0  0  0  0  0
   58.3860   34.3260   45.7020 C   0  0  0  0  0  0  0  0  0  0  0  0
   59.1103   35.1437   45.8315 H   0  0  0  0  0  0  0  0  0  0  0  0
   57.0160   34.1770   45.0520 C   0  0  0  0  0  0  0  0  0  0  0  0
   56.1697   33.7864   45.6362 H   0  0  0  0  0  0  0  0  0  0  0  0
   56.3334   34.8507   44.5133 H   0  0  0  0  0  0  0  0  0  0  0  0
   58.1520   33.2520   44.6490 C   0  0  0  0  0  0  0  0  0  0  0  0
   58.1275   32.1918   44.9412 H   0  0  0  0  0  0  0  0  0  0  0  0
   58.6316   32.9792   43.6974 H   0  0  0  0  0  0  0  0  0  0  0  0
   60.7230   32.9270   46.5770 C   0  0  0  0  0  0  0  0  0  0  0  0
   61.5613   33.5759   46.2835 H   0  0  0  0  0  0  0  0  0  0  0  0
   60.0734   32.6373   45.7379 H   0  0  0  0  0  0  0  0  0  0  0  0
   61.3120   31.6090   47.1350 C   0  0  1  0  0  0  0  0  0  0  0  0
   61.5678   30.9834   46.2672 H   0  0  0  0  0  0  0  0  0  0  0  0
   62.5360   31.8830   47.9160 C   0  0  0  0  0  0  0  0  0  0  0  0
   63.4950   32.0960   48.5290 N   0  0  0  0  0  0  0  0  0  0  0  0
   59.7210   28.9220   46.4610 N   0  0  0  0  0  0  0  0  0  0  0  0
   58.7010   28.5910   45.6490 C   0  0  0  0  0  0  0  0  0  0  0  0
   58.7230   27.5010   44.9350 N   0  0  0  0  0  0  0  0  0  0  0  0
   57.8390   26.3760   45.0130 C   0  0  0  0  0  0  0  0  0  0  0  0
   56.9450   26.2830   46.0900 C   0  0  0  0  0  0  0  0  0  0  0  0
   56.9653   27.0413   46.8866 H   0  0  0  0  0  0  0  0  0  0  0  0
   56.0270   25.2280   46.1540 C   0  0  0  0  0  0  0  0  0  0  0  0
   55.3417   25.1467   47.0106 H   0  0  0  0  0  0  0  0  0  0  0  0
   55.9810   24.2780   45.1300 C   0  0  0  0  0  0  0  0  0  0  0  0
   55.2659   23.4440   45.1857 H   0  0  0  0  0  0  0  0  0  0  0  0
   56.8440   24.3870   44.0340 C   0  0  0  0  0  0  0  0  0  0  0  0
   56.8004   23.6441   43.2239 H   0  0  0  0  0  0  0  0  0  0  0  0
   57.7620   25.4400   43.9680 C   0  0  0  0  0  0  0  0  0  0  0  0
   58.4254   25.5357   43.0958 H   0  0  0  0  0  0  0  0  0  0  0  0
  1  2  1  0
  2  3  1  0
  3  4  2  0
  3  5  1  0
  5  6  2  0
  6  7  1  0
  6  8  1  0
  8  9  1  0
  9 10  1  1
  9 11  1  0
 11 12  1  0
 11 13  1  0
 11 14  1  0
 14 15  1  0
 14 16  1  0
 14 17  1  0
 17 18  1  1
 17 19  1  0
 19 20  1  0
 19 21  1  0
 21 22  1  0
 21 23  1  0
 23 24  1  0
 23 25  1  0
 23 26  1  0
 26 27  1  0
 26 28  1  0
 17 29  1  0
 29 30  1  0
 29 31  1  0
 29 32  1  0
 32 33  1  6
 32 34  1  0
 34 35  3  0
  8 36  1  0
 36 37  1  0
 37 38  2  0
 38 39  1  0
 39 40  2  0
 40 41  1  0
 40 42  1  0
 42 43  1  0
 42 44  2  0
 44 45  1  0
 44 46  1  0
 46 47  1  0
 46 48  2  0
 48 49  1  0
 37  5  1  0
 48 39  1  0
 32  9  1  0
 26 21  1  0
M  CHG  2   2  -1  36  -1
M  END
>  <UniqueID>  (77) 
74

>  <SMILES>  (77) 
N#C[C@@H]1C[C@@H](NC2CC2)CCC1n1cc(C([NH-])=O)/c(=N\c2ccccc2)[n-]1

>  <Energy>  (77) 
365.93480224460836

>  <Genealogy>  (77) 
N#CC1CC(NC2CC2)CCC1n1cc(C([NH-])=O)c(=Nc2ccccc2)[n-]1 (protonated)
N#C[C@@H]1C[C@@H](NC2CC2)CCC1n1cc(C([NH-])=O)c(=Nc2ccccc2)[n-]1 (chirality)
N#C[C@@H]1C[C@@H](NC2CC2)CCC1n1cc(C([NH-])=O)/c(=N\c2ccccc2)[n-]1 (cis-trans isomerization)
N#C[C@@H]1C[C@@H](NC2CC2)CCC1n1cc(C([NH-])=O)/c(=N\c2ccccc2)[n-]1 (3D coordinates assigned)
N#C[C@@H]1C[C@@H](NC2CC2)CCC1n1cc(C([NH-])=O)/c(=N\c2ccccc2)[n-]1 (nonaromatic ring conformer: 365.93480224460836 kcal/mol)

>  <smiles>  (77) 
N#CC1CC(NC2CC2)CCC1n1cc(C(N)=O)c(=Nc2ccccc2)[nH]1

>  <score_type>  (77) 
oracle

>  <origin>  (77) 
adg

>  <m_score__min__energy>  (77) 
-12.25

>  <m_primary>  (77) 
energy

$$$$
77:0
     RDKit          3D

 63 67  0  0  0  0  0  0  0  0999 V2000
   58.5622   30.7322   48.1843 H   0  0  0  0  0  0  0  0  0  0  0  0
   58.5220   30.3860   47.1410 C   0  0  0  0  0  0  0  0  0  0  0  0
   58.8090   29.3535   46.8927 H   0  0  0  0  0  0  0  0  0  0  0  0
   58.1220   31.2250   46.1690 C   0  0  0  0  0  0  0  0  0  0  0  0
   58.0260   30.9120   44.8060 C   0  0  0  0  0  0  0  0  0  0  0  0
   58.2860   29.7200   44.2220 C   0  0  0  0  0  0  0  0  0  0  0  0
   58.7242   29.7351   43.2132 H   0  0  0  0  0  0  0  0  0  0  0  0
   58.0280   28.3990   44.8320 C   0  0  0  0  0  0  0  0  0  0  0  0
   58.9670   27.4850   45.1590 N   0  0  0  0  0  0  0  0  0  0  0  0
   58.2610   26.4880   45.7370 C   0  0  0  0  0  0  0  0  0  0  0  0
   58.7960   25.4320   46.1670 O   0  0  0  0  0  0  0  0  0  0  0  0
   56.9350   26.7330   45.8090 N   0  0  0  0  0  0  0  0  0  0  0  0
   55.8870   25.8660   46.3470 C   0  0  0  0  0  0  0  0  0  0  0  0
   56.1011   25.6500   47.4041 H   0  0  0  0  0  0  0  0  0  0  0  0
   54.9170   26.3770   46.2573 H   0  0  0  0  0  0  0  0  0  0  0  0
   55.8350   24.5740   45.5760 C   0  0  0  0  0  0  0  0  0  0  0  0
   55.2620   23.4310   46.1530 C   0  0  0  0  0  0  0  0  0  0  0  0
   54.8474   23.4725   47.1710 H   0  0  0  0  0  0  0  0  0  0  0  0
   55.2220   22.2400   45.4250 C   0  0  0  0  0  0  0  0  0  0  0  0
   54.7831   21.3369   45.8741 H   0  0  0  0  0  0  0  0  0  0  0  0
   55.7240   22.1940   44.1630 N   0  0  0  0  0  0  0  0  0  0  0  0
   56.2720   23.2920   43.5750 C   0  0  0  0  0  0  0  0  0  0  0  0
   56.6681   23.2256   42.5509 H   0  0  0  0  0  0  0  0  0  0  0  0
   56.3330   24.5030   44.2680 C   0  0  0  0  0  0  0  0  0  0  0  0
   56.7683   25.3936   43.7912 H   0  0  0  0  0  0  0  0  0  0  0  0
   56.7910   27.9380   45.2350 C   0  0  0  0  0  0  0  0  0  0  0  0
   55.5780   28.6030   45.0880 O   0  0  0  0  0  0  0  0  0  0  0  0
   57.5850   32.0670   44.1750 C   0  0  0  0  0  0  0  0  0  0  0  0
   57.3974   32.1951   43.0987 H   0  0  0  0  0  0  0  0  0  0  0  0
   57.4270   33.0240   45.1570 C   0  0  0  0  0  0  0  0  0  0  0  0
   57.0170   34.4400   44.8870 C   0  0  0  0  0  0  0  0  0  0  0  0
   56.8647   34.9659   45.8411 H   0  0  0  0  0  0  0  0  0  0  0  0
   57.8054   34.9465   44.3109 H   0  0  0  0  0  0  0  0  0  0  0  0
   56.0800   34.4469   44.3109 H   0  0  0  0  0  0  0  0  0  0  0  0
   57.7540   32.5200   46.3720 N   0  0  0  0  0  0  0  0  0  0  0  0
   57.7820   33.2850   47.6310 C   0  0  0  0  0  0  0  0  0  0  0  0
   57.4028   34.3007   47.4451 H   0  0  0  0  0  0  0  0  0  0  0  0
   57.1505   32.7719   48.3712 H   0  0  0  0  0  0  0  0  0  0  0  0
   59.1870   33.3720   48.1690 C   0  0  0  0  0  0  0  0  0  0  0  0
   59.4770   32.9500   49.4760 C   0  0  0  0  0  0  0  0  0  0  0  0
   58.6683   32.5775   50.1219 H   0  0  0  0  0  0  0  0  0  0  0  0
   60.7860   33.0000   49.9620 C   0  0  0  0  0  0  0  0  0  0  0  0
   61.0006   32.6701   50.9892 H   0  0  0  0  0  0  0  0  0  0  0  0
   61.8300   33.4690   49.1470 C   0  0  0  0  0  0  0  0  0  0  0  0
   63.1870   33.4930   49.6300 N   0  0  0  0  0  0  0  0  0  0  0  0
   64.1750   32.6310   49.0270 C   0  0  0  0  0  0  0  0  0  0  0  0
   63.9890   32.1720   47.8670 O   0  0  0  0  0  0  0  0  0  0  0  0
   65.4420   32.2700   49.7470 C   0  0  0  0  0  0  0  0  0  0  0  0
   66.2893   32.7665   49.2515 H   0  0  0  0  0  0  0  0  0  0  0  0
   65.5586   31.1766   49.7163 H   0  0  0  0  0  0  0  0  0  0  0  0
   65.3950   32.7080   51.2090 C   0  0  0  0  0  0  0  0  0  0  0  0
   66.3962   32.6057   51.6529 H   0  0  0  0  0  0  0  0  0  0  0  0
   64.6803   32.0742   51.7545 H   0  0  0  0  0  0  0  0  0  0  0  0
   64.9470   34.1650   51.3000 C   0  0  0  0  0  0  0  0  0  0  0  0
   65.6086   34.7848   50.6770 H   0  0  0  0  0  0  0  0  0  0  0  0
   64.9996   34.4839   52.3514 H   0  0  0  0  0  0  0  0  0  0  0  0
   63.4990   34.3250   50.8100 C   0  0  0  0  0  0  0  0  0  0  0  0
   63.3339   35.3802   50.5469 H   0  0  0  0  0  0  0  0  0  0  0  0
   62.8400   33.9937   51.6261 H   0  0  0  0  0  0  0  0  0  0  0  0
   61.5360   33.8970   47.8420 C   0  0  0  0  0  0  0  0  0  0  0  0
   62.3436   34.2706   47.1954 H   0  0  0  0  0  0  0  0  0  0  0  0
   60.2270   33.8520   47.3590 C   0  0  0  0  0  0  0  0  0  0  0  0
   60.0096   34.1951   46.3367 H   0  0  0  0  0  0  0  0  0  0  0  0
  1  2  1  0
  2  3  1  0
  2  4  2  0
  4  5  1  0
  5  6  2  0
  6  7  1  0
  6  8  1  0
  8  9  1  0
  9 10  1  0
 10 11  2  0
 10 12  1  0
 12 13  1  0
 13 14  1  0
 13 15  1  0
 13 16  1  0
 16 17  2  0
 17 18  1  0
 17 19  1  0
 19 20  1  0
 19 21  2  0
 21 22  1  0
 22 23  1  0
 22 24  2  0
 24 25  1  0
 12 26  1  0
 26 27  1  0
  5 28  1  0
 28 29  1  0
 28 30  2  0
 30 31  1  0
 31 32  1  0
 31 33  1  0
 31 34  1  0
 30 35  1  0
 35 36  1  0
 36 37  1  0
 36 38  1  0
 36 39  1  0
 39 40  2  0
 40 41  1  0
 40 42  1  0
 42 43  1  0
 42 44  2  0
 44 45  1  0
 45 46  1  0
 46 47  2  0
 46 48  1  0
 48 49  1  0
 48 50  1  0
 48 51  1  0
 51 52  1  0
 51 53  1  0
 51 54  1  0
 54 55  1  0
 54 56  1  0
 54 57  1  0
 57 58  1  0
 57 59  1  0
 44 60  1  0
 60 61  1  0
 60 62  2  0
 62 63  1  0
 35  4  1  0
 62 39  1  0
 26  8  2  0
 57 45  1  0
 24 16  1  0
M  CHG  2   9  -1  27  -1
M  END
>  <UniqueID>  (78) 
75

>  <SMILES>  (78) 
C=c1/c(=C/c2[n-]c(=O)n(Cc3ccncc3)c2[O-])cc(C)n1Cc1ccc(N2CCCCC2=O)cc1

>  <Energy>  (78) 
137.45220572547134

>  <Genealogy>  (78) 
C=c1c(=Cc2[n-]c(=O)n(Cc3ccncc3)c2[O-])cc(C)n1Cc1ccc(N2CCCCC2=O)cc1 (protonated)
C=c1/c(=C/c2[n-]c(=O)n(Cc3ccncc3)c2[O-])cc(C)n1Cc1ccc(N2CCCCC2=O)cc1 (cis-trans isomerization)
C=c1/c(=C/c2[n-]c(=O)n(Cc3ccncc3)c2[O-])cc(C)n1Cc1ccc(N2CCCCC2=O)cc1 (3D coordinates assigned)
C=c1/c(=C/c2[n-]c(=O)n(Cc3ccncc3)c2[O-])cc(C)n1Cc1ccc(N2CCCCC2=O)cc1 (nonaromatic ring conformer: 137.45220572547134 kcal/mol)

>  <smiles>  (78) 
C=c1c(=Cc2[nH]c(=O)n(Cc3ccncc3)c2O)cc(C)n1Cc1ccc(N2CCCCC2=O)cc1

>  <score_type>  (78) 
oracle

>  <origin>  (78) 
adg

>  <m_score__min__energy>  (78) 
-14.390000000000001

>  <m_primary>  (78) 
energy

$$$$
78:0
     RDKit          3D

 71 74  0  0  0  0  0  0  0  0999 V2000
   61.5530   30.7410   50.6690 C   0  0  0  0  0  0  0  0  0  0  0  0
   62.6260   31.6630   50.8490 O   0  0  0  0  0  0  0  0  0  0  0  0
   63.9830   31.3080   50.9130 C   0  0  0  0  0  0  0  0  0  0  0  0
   64.4120   30.1370   51.5700 C   0  0  0  0  0  0  0  0  0  0  0  0
   65.7690   29.8130   51.6240 C   0  0  0  0  0  0  0  0  0  0  0  0
   66.7150   30.6500   51.0330 C   0  0  0  0  0  0  0  0  0  0  0  0
   66.3040   31.8140   50.3770 C   0  0  0  0  0  0  0  0  0  0  0  0
   64.9400   32.1490   50.3040 C   0  0  0  0  0  0  0  0  0  0  0  0
   64.5320   33.4490   49.6520 C   0  0  0  0  0  0  0  0  0  0  0  0
   63.5230   33.2120   48.5600 C   0  0  0  0  0  0  0  0  0  0  0  0
   63.9200   32.9460   47.3900 O   0  0  0  0  0  0  0  0  0  0  0  0
   62.1190   33.3000   48.8530 N   0  0  0  0  0  0  0  0  0  0  0  0
   61.0840   33.0750   47.8810 C   0  0  0  0  0  0  0  0  0  0  0  0
   60.3740   34.1690   47.3670 C   0  0  0  0  0  0  0  0  0  0  0  0
   59.3400   33.9740   46.4420 C   0  0  0  0  0  0  0  0  0  0  0  0
   59.0150   32.6830   46.0090 C   0  0  0  0  0  0  0  0  0  0  0  0
   57.6710   32.4450   44.8970 S   0  0  0  0  0  0  0  0  0  0  0  0
   56.5920   33.4610   45.1570 O   0  0  0  0  0  0  0  0  0  0  0  0
   58.1650   32.6230   43.4900 O   0  0  0  0  0  0  0  0  0  0  0  0
   57.0160   30.8440   45.0710 N   0  0  0  0  0  0  0  0  0  0  0  0
   57.2900   30.0230   43.8890 C   0  0  0  0  0  0  0  0  0  0  0  0
   57.4120   28.5250   44.2430 C   0  0  1  0  0  0  0  0  0  0  0  0
   58.7780   27.9140   43.8540 C   0  0  0  0  0  0  0  0  0  0  0  0
   59.8940   28.1840   44.8760 C   0  0  0  0  0  0  0  0  0  0  0  0
   59.4920   27.8540   46.3280 C   0  0  2  0  0  0  0  0  0  0  0  0
   59.5300   26.3720   46.6150 C   0  0  0  0  0  0  0  0  0  0  0  0
   60.3390   25.6190   46.0030 O   0  0  0  0  0  0  0  0  0  0  0  0
   58.6390   25.8220   47.5900 N   0  0  0  0  0  0  0  0  0  0  0  0
   57.3090   25.3090   47.2770 C   0  0  0  0  0  0  0  0  0  0  0  0
   57.3670   24.3700   46.1070 C   0  0  0  0  0  0  0  0  0  0  0  0
   56.9550   24.7870   44.8300 C   0  0  0  0  0  0  0  0  0  0  0  0
   57.0340   23.8930   43.7620 C   0  0  0  0  0  0  0  0  0  0  0  0
   57.5130   22.5970   43.9710 C   0  0  0  0  0  0  0  0  0  0  0  0
   57.9100   22.2130   45.2550 C   0  0  0  0  0  0  0  0  0  0  0  0
   57.8310   23.1010   46.2840 N   0  0  0  0  0  0  0  0  0  0  0  0
   58.1400   28.4830   46.7150 C   0  0  0  0  0  0  0  0  0  0  0  0
   57.0250   28.1920   45.6990 C   0  0  0  0  0  0  0  0  0  0  0  0
   59.7600   31.5900   46.4770 C   0  0  0  0  0  0  0  0  0  0  0  0
   60.7930   31.7850   47.4000 C   0  0  0  0  0  0  0  0  0  0  0  0
   61.1778   30.4186   51.6515 H   0  0  0  0  0  0  0  0  0  0  0  0
   60.7414   31.2278   50.1083 H   0  0  0  0  0  0  0  0  0  0  0  0
   61.9121   29.8654   50.1083 H   0  0  0  0  0  0  0  0  0  0  0  0
   63.6728   29.4741   52.0433 H   0  0  0  0  0  0  0  0  0  0  0  0
   66.0931   28.8942   52.1346 H   0  0  0  0  0  0  0  0  0  0  0  0
   67.7837   30.3945   51.0830 H   0  0  0  0  0  0  0  0  0  0  0  0
   67.0533   32.4731   49.9143 H   0  0  0  0  0  0  0  0  0  0  0  0
   64.0903   34.1097   50.4125 H   0  0  0  0  0  0  0  0  0  0  0  0
   65.4250   33.9140   49.2089 H   0  0  0  0  0  0  0  0  0  0  0  0
   61.8290   33.4150   49.8520 H   0  0  0  0  0  0  0  0  0  0  0  0
   60.6306   35.1880   47.6923 H   0  0  0  0  0  0  0  0  0  0  0  0
   58.7813   34.8387   46.0545 H   0  0  0  0  0  0  0  0  0  0  0  0
   56.4690   30.1522   43.1684 H   0  0  0  0  0  0  0  0  0  0  0  0
   58.2489   30.3510   43.4614 H   0  0  0  0  0  0  0  0  0  0  0  0
   56.6564   28.0349   43.6114 H   0  0  0  0  0  0  0  0  0  0  0  0
   59.0843   28.3381   42.8864 H   0  0  0  0  0  0  0  0  0  0  0  0
   58.6400   26.8235   43.8121 H   0  0  0  0  0  0  0  0  0  0  0  0
   60.1643   29.2490   44.8231 H   0  0  0  0  0  0  0  0  0  0  0  0
   60.7365   27.5262   44.6162 H   0  0  0  0  0  0  0  0  0  0  0  0
   60.2542   28.3166   46.9722 H   0  0  0  0  0  0  0  0  0  0  0  0
   56.9133   24.7725   48.1519 H   0  0  0  0  0  0  0  0  0  0  0  0
   56.6538   26.1547   47.0210 H   0  0  0  0  0  0  0  0  0  0  0  0
   56.5743   25.8072   44.6741 H   0  0  0  0  0  0  0  0  0  0  0  0
   56.7195   24.2080   42.7561 H   0  0  0  0  0  0  0  0  0  0  0  0
   57.5770   21.8864   43.1338 H   0  0  0  0  0  0  0  0  0  0  0  0
   58.2857   21.1947   45.4339 H   0  0  0  0  0  0  0  0  0  0  0  0
   58.2698   29.5728   46.7893 H   0  0  0  0  0  0  0  0  0  0  0  0
   57.8341   28.0374   47.6731 H   0  0  0  0  0  0  0  0  0  0  0  0
   56.1431   28.7910   45.9698 H   0  0  0  0  0  0  0  0  0  0  0  0
   56.8260   27.1109   45.7401 H   0  0  0  0  0  0  0  0  0  0  0  0
   59.5310   30.5762   46.1169 H   0  0  0  0  0  0  0  0  0  0  0  0
   61.3813   30.9247   47.7519 H   0  0  0  0  0  0  0  0  0  0  0  0
  1  2  1  0
  2  3  1  0
  3  4  2  0
  4  5  1  0
  5  6  2  0
  6  7  1  0
  7  8  2  0
  8  9  1  0
  9 10  1  0
 10 11  2  0
 10 12  1  0
 12 13  1  0
 13 14  2  0
 14 15  1  0
 15 16  2  0
 16 17  1  0
 17 18  2  0
 17 19  2  0
 17 20  1  0
 20 21  1  0
 21 22  1  0
 22 23  1  0
 23 24  1  0
 24 25  1  0
 25 26  1  0
 26 27  2  0
 26 28  1  0
 28 29  1  0
 29 30  1  0
 30 31  2  0
 31 32  1  0
 32 33  2  0
 33 34  1  0
 34 35  2  0
 25 36  1  0
 36 37  1  0
 16 38  1  0
 38 39  2  0
  8  3  1  0
 39 13  1  0
 37 22  1  0
 35 30  1  0
  1 40  1  0
  1 41  1  0
  1 42  1  0
  4 43  1  0
  5 44  1  0
  6 45  1  0
  7 46  1  0
  9 47  1  0
  9 48  1  0
 12 49  1  0
 14 50  1  0
 15 51  1  0
 21 52  1  0
 21 53  1  0
 22 54  1  6
 23 55  1  0
 23 56  1  0
 24 57  1  0
 24 58  1  0
 25 59  1  1
 29 60  1  0
 29 61  1  0
 31 62  1  0
 32 63  1  0
 33 64  1  0
 34 65  1  0
 36 66  1  0
 36 67  1  0
 37 68  1  0
 37 69  1  0
 38 70  1  0
 39 71  1  0
M  CHG  2  20  -1  28  -1
M  END
>  <UniqueID>  (79) 
76

>  <SMILES>  (79) 
COc1ccccc1CC(=O)Nc1ccc(S(=O)(=O)[N-]CC2CCC(C(=O)[N-]Cc3ccccn3)CC2)cc1

>  <Energy>  (79) 
73.23563830303776

>  <Genealogy>  (79) 
COc1ccccc1CC(=O)Nc1ccc(S(=O)(=O)[N-]CC2CCC(C(=O)[N-]Cc3ccccn3)CC2)cc1 (protonated)
COc1ccccc1CC(=O)Nc1ccc(S(=O)(=O)[N-]CC2CCC(C(=O)[N-]Cc3ccccn3)CC2)cc1 (3D coordinates assigned)
COc1ccccc1CC(=O)Nc1ccc(S(=O)(=O)[N-]CC2CCC(C(=O)[N-]Cc3ccccn3)CC2)cc1 (nonaromatic ring conformer: 73.23563830303776 kcal/mol)

>  <smiles>  (79) 
COc1ccccc1CC(=O)Nc1ccc(S(=O)(=O)NCC2CCC(C(=O)NCc3ccccn3)CC2)cc1

>  <score_type>  (79) 
oracle

>  <origin>  (79) 
adg

>  <m_score__min__energy>  (79) 
-12.5

>  <m_primary>  (79) 
energy

$$$$
79:0
     RDKit          3D

 55 58  0  0  0  0  0  0  0  0999 V2000
   60.8088   34.9291   49.5616 H   0  0  0  0  0  0  0  0  0  0  0  0
   60.9670   34.2350   48.7230 C   0  0  0  0  0  0  0  0  0  0  0  0
   62.0190   33.4090   48.7890 C   0  0  0  0  0  0  0  0  0  0  0  0
   62.9573   33.7310   48.3136 H   0  0  0  0  0  0  0  0  0  0  0  0
   61.9990   32.0570   49.4780 C   0  0  0  0  0  0  0  0  0  0  0  0
   61.5860   32.1875   50.4891 H   0  0  0  0  0  0  0  0  0  0  0  0
   63.0348   31.6870   49.4953 H   0  0  0  0  0  0  0  0  0  0  0  0
   61.1820   31.0390   48.7630 N   0  0  0  0  0  0  0  0  0  0  0  0
   61.4510   30.1190   49.1910 H   0  0  0  0  0  0  0  0  0  0  0  0
   59.7300   31.1990   49.0470 C   0  0  0  0  0  0  0  0  0  0  0  0
   59.4306   32.2314   48.8135 H   0  0  0  0  0  0  0  0  0  0  0  0
   59.5569   30.9751   50.1100 H   0  0  0  0  0  0  0  0  0  0  0  0
   58.8870   30.2300   48.2030 C   0  0  0  0  0  0  0  0  0  0  0  0
   57.8206   30.4531   48.3546 H   0  0  0  0  0  0  0  0  0  0  0  0
   59.1104   29.2002   48.5186 H   0  0  0  0  0  0  0  0  0  0  0  0
   59.2100   30.3670   46.7770 N   0  0  0  0  0  0  0  0  0  0  0  0
   58.2800   29.8990   45.7850 C   0  0  0  0  0  0  0  0  0  0  0  0
   57.9900   30.6410   44.8070 O   0  0  0  0  0  0  0  0  0  0  0  0
   57.6520   28.5620   45.8890 C   0  0  0  0  0  0  0  0  0  0  0  0
   58.3740   27.4960   46.4420 C   0  0  0  0  0  0  0  0  0  0  0  0
   59.4074   27.6542   46.7841 H   0  0  0  0  0  0  0  0  0  0  0  0
   57.7890   26.2350   46.5610 C   0  0  0  0  0  0  0  0  0  0  0  0
   58.3618   25.3967   46.9844 H   0  0  0  0  0  0  0  0  0  0  0  0
   56.4650   26.0430   46.1370 C   0  0  0  0  0  0  0  0  0  0  0  0
   55.7940   24.7240   46.2560 C   0  0  0  0  0  0  0  0  0  0  0  0
   54.6480   24.4180   45.4950 C   0  0  0  0  0  0  0  0  0  0  0  0
   54.2466   25.1590   44.7880 H   0  0  0  0  0  0  0  0  0  0  0  0
   54.0190   23.1780   45.6340 C   0  0  0  0  0  0  0  0  0  0  0  0
   53.1232   22.9468   45.0390 H   0  0  0  0  0  0  0  0  0  0  0  0
   54.5270   22.2300   46.5290 C   0  0  0  0  0  0  0  0  0  0  0  0
   54.0343   21.2518   46.6312 H   0  0  0  0  0  0  0  0  0  0  0  0
   55.6590   22.5240   47.2930 C   0  0  0  0  0  0  0  0  0  0  0  0
   56.0556   21.7783   47.9978 H   0  0  0  0  0  0  0  0  0  0  0  0
   56.2880   23.7660   47.1620 C   0  0  0  0  0  0  0  0  0  0  0  0
   57.1747   23.9962   47.7709 H   0  0  0  0  0  0  0  0  0  0  0  0
   55.7710   27.0990   45.6290 N   0  0  0  0  0  0  0  0  0  0  0  0
   56.3180   28.3360   45.4940 C   0  0  0  0  0  0  0  0  0  0  0  0
   55.6120   29.2740   45.0370 O   0  0  0  0  0  0  0  0  0  0  0  0
   60.3440   31.2020   46.3710 C   0  0  0  0  0  0  0  0  0  0  0  0
   60.0552   32.2621   46.4232 H   0  0  0  0  0  0  0  0  0  0  0  0
   60.6331   30.9494   45.3402 H   0  0  0  0  0  0  0  0  0  0  0  0
   61.5330   30.9490   47.3110 C   0  0  0  0  0  0  0  0  0  0  0  0
   62.3114   31.6956   47.0950 H   0  0  0  0  0  0  0  0  0  0  0  0
   61.8754   29.9201   47.1263 H   0  0  0  0  0  0  0  0  0  0  0  0
   60.0050   34.2800   47.6050 C   0  0  0  0  0  0  0  0  0  0  0  0
   60.4250   34.6220   46.3070 C   0  0  0  0  0  0  0  0  0  0  0  0
   61.4656   34.9313   46.1298 H   0  0  0  0  0  0  0  0  0  0  0  0
   59.5180   34.5690   45.2380 C   0  0  0  0  0  0  0  0  0  0  0  0
   59.8434   34.8571   44.2275 H   0  0  0  0  0  0  0  0  0  0  0  0
   58.2020   34.1510   45.4540 C   0  0  0  0  0  0  0  0  0  0  0  0
   57.4908   34.1171   44.6155 H   0  0  0  0  0  0  0  0  0  0  0  0
   57.7900   33.7760   46.7360 C   0  0  0  0  0  0  0  0  0  0  0  0
   56.7589   33.4303   46.9014 H   0  0  0  0  0  0  0  0  0  0  0  0
   58.6840   33.8390   47.8080 C   0  0  0  0  0  0  0  0  0  0  0  0
   58.3540   33.5427   48.8146 H   0  0  0  0  0  0  0  0  0  0  0  0
  1  2  1  0
  2  3  2  0
  3  4  1  0
  3  5  1  0
  5  6  1  0
  5  7  1  0
  5  8  1  0
  8  9  1  0
  8 10  1  0
 10 11  1  0
 10 12  1  0
 10 13  1  0
 13 14  1  0
 13 15  1  0
 13 16  1  0
 16 17  1  0
 17 18  2  0
 17 19  1  0
 19 20  2  0
 20 21  1  0
 20 22  1  0
 22 23  1  0
 22 24  2  0
 24 25  1  0
 25 26  2  0
 26 27  1  0
 26 28  1  0
 28 29  1  0
 28 30  2  0
 30 31  1  0
 30 32  1  0
 32 33  1  0
 32 34  2  0
 34 35  1  0
 24 36  1  0
 36 37  1  0
 37 38  2  0
 16 39  1  0
 39 40  1  0
 39 41  1  0
 39 42  1  0
 42 43  1  0
 42 44  1  0
  2 45  1  0
 45 46  2  0
 46 47  1  0
 46 48  1  0
 48 49  1  0
 48 50  2  0
 50 51  1  0
 50 52  1  0
 52 53  1  0
 52 54  2  0
 54 55  1  0
 42  8  1  0
 54 45  1  0
 37 19  1  0
 34 25  1  0
M  CHG  2   8   1  36  -1
M  END
>  <UniqueID>  (80) 
77

>  <SMILES>  (80) 
O=C(c1ccc(-c2ccccc2)[n-]c1=O)N1CC[NH+](C/C=C\c2ccccc2)CC1

>  <Energy>  (80) 
85.9674061032725

>  <Genealogy>  (80) 
O=C(c1ccc(-c2ccccc2)[n-]c1=O)N1CC[NH+](CC=Cc2ccccc2)CC1 (protonated)
O=C(c1ccc(-c2ccccc2)[n-]c1=O)N1CC[NH+](C/C=C\c2ccccc2)CC1 (cis-trans isomerization)
O=C(c1ccc(-c2ccccc2)[n-]c1=O)N1CC[NH+](C/C=C\c2ccccc2)CC1 (3D coordinates assigned)
O=C(c1ccc(-c2ccccc2)[n-]c1=O)N1CC[NH+](C/C=C\c2ccccc2)CC1 (nonaromatic ring conformer: 85.9674061032725 kcal/mol)

>  <smiles>  (80) 
O=C(c1ccc(-c2ccccc2)[nH]c1=O)N1CCN(CC=Cc2ccccc2)CC1

>  <score_type>  (80) 
oracle

>  <origin>  (80) 
adg

>  <m_score__min__energy>  (80) 
-8.9199999999999999

>  <m_primary>  (80) 
energy

$$$$
80:0
     RDKit          3D

 35 38  0  0  0  0  0  0  0  0999 V2000
   57.4800   23.6560   48.2060 O   0  0  0  0  0  0  0  0  0  0  0  0
   57.0900   24.4730   47.3310 C   0  0  0  0  0  0  0  0  0  0  0  0
   55.7930   24.8110   47.1800 N   0  0  0  0  0  0  0  0  0  0  0  0
   55.8310   25.6870   46.1620 C   0  0  0  0  0  0  0  0  0  0  0  0
   54.6990   26.3200   45.6560 O   0  0  0  0  0  0  0  0  0  0  0  0
   57.1290   25.8500   45.7250 C   0  0  0  0  0  0  0  0  0  0  0  0
   57.6160   26.7710   44.6500 C   0  0  0  0  0  0  0  0  0  0  0  0
   57.6920   28.1820   45.1580 C   0  0  0  0  0  0  0  0  0  0  0  0
   56.6500   29.0980   45.2390 C   0  0  0  0  0  0  0  0  0  0  0  0
   55.3390   28.8390   44.8610 O   0  0  0  0  0  0  0  0  0  0  0  0
   57.0510   30.2920   45.7340 N   0  0  0  0  0  0  0  0  0  0  0  0
   58.3660   30.1220   45.9710 C   0  0  0  0  0  0  0  0  0  0  0  0
   59.2400   31.0750   46.4900 C   0  0  0  0  0  0  0  0  0  0  0  0
   60.5960   30.7170   46.6750 C   0  0  0  0  0  0  0  0  0  0  0  0
   61.5620   31.7020   47.2250 C   0  0  0  0  0  0  0  0  0  0  0  0
   61.6220   33.0100   46.7100 C   0  0  0  0  0  0  0  0  0  0  0  0
   62.5320   33.9340   47.2300 C   0  0  0  0  0  0  0  0  0  0  0  0
   63.3920   33.5660   48.2660 C   0  0  0  0  0  0  0  0  0  0  0  0
   63.3450   32.2700   48.7870 C   0  0  0  0  0  0  0  0  0  0  0  0
   64.4300   31.8070   50.0840 Cl  0  0  0  0  0  0  0  0  0  0  0  0
   62.4350   31.3410   48.2690 C   0  0  0  0  0  0  0  0  0  0  0  0
   61.0230   29.4060   46.3320 C   0  0  0  0  0  0  0  0  0  0  0  0
   60.1170   28.4660   45.8110 C   0  0  0  0  0  0  0  0  0  0  0  0
   58.7920   28.8610   45.6370 C   0  0  0  0  0  0  0  0  0  0  0  0
   57.9390   25.0810   46.4760 N   0  0  0  0  0  0  0  0  0  0  0  0
   54.7710   27.0980   45.0140 H   0  0  0  0  0  0  0  0  0  0  0  0
   58.6163   26.4496   44.3242 H   0  0  0  0  0  0  0  0  0  0  0  0
   56.9115   26.7352   43.8060 H   0  0  0  0  0  0  0  0  0  0  0  0
   58.8837   32.0827   46.7499 H   0  0  0  0  0  0  0  0  0  0  0  0
   60.9482   33.3070   45.8928 H   0  0  0  0  0  0  0  0  0  0  0  0
   62.5708   34.9547   46.8217 H   0  0  0  0  0  0  0  0  0  0  0  0
   64.1070   34.2964   48.6726 H   0  0  0  0  0  0  0  0  0  0  0  0
   62.4017   30.3215   48.6806 H   0  0  0  0  0  0  0  0  0  0  0  0
   62.0762   29.1230   46.4760 H   0  0  0  0  0  0  0  0  0  0  0  0
   60.4441   27.4491   45.5485 H   0  0  0  0  0  0  0  0  0  0  0  0
  1  2  2  0
  2  3  1  0
  3  4  1  0
  4  5  1  0
  4  6  2  0
  6  7  1  0
  7  8  1  0
  8  9  2  0
  9 10  1  0
  9 11  1  0
 11 12  1  0
 12 13  2  0
 13 14  1  0
 14 15  1  0
 15 16  2  0
 16 17  1  0
 17 18  2  0
 18 19  1  0
 19 20  1  0
 19 21  2  0
 14 22  2  0
 22 23  1  0
 23 24  2  0
  6 25  1  0
 25  2  1  0
 24  8  1  0
 24 12  1  0
 21 15  1  0
  5 26  1  0
  7 27  1  0
  7 28  1  0
 13 29  1  0
 16 30  1  0
 17 31  1  0
 18 32  1  0
 21 33  1  0
 22 34  1  0
 23 35  1  0
M  CHG  4   3  -1  10  -1  11  -1  25  -1
M  END
>  <UniqueID>  (81) 
78

>  <SMILES>  (81) 
O=c1[n-]c(O)c(Cc2c([O-])[n-]c3cc(-c4cccc(Cl)c4)ccc23)[n-]1

>  <Energy>  (81) 
104.72812460133947

>  <Genealogy>  (81) 
O=c1[n-]c(O)c(Cc2c([O-])[n-]c3cc(-c4cccc(Cl)c4)ccc23)[n-]1 (protonated)
O=c1[n-]c(O)c(Cc2c([O-])[n-]c3cc(-c4cccc(Cl)c4)ccc23)[n-]1 (3D coordinates assigned)
O=c1[n-]c(O)c(Cc2c([O-])[n-]c3cc(-c4cccc(Cl)c4)ccc23)[n-]1 (optimized conformer: 104.72812460133947 kcal/mol)

>  <smiles>  (81) 
O=c1[nH]c(O)c(Cc2c(O)[nH]c3cc(-c4cccc(Cl)c4)ccc23)[nH]1

>  <score_type>  (81) 
oracle

>  <origin>  (81) 
adg

>  <m_score__min__energy>  (81) 
-17.57

>  <m_primary>  (81) 
energy

$$$$
81:0
     RDKit          3D

 57 60  0  0  0  0  0  0  0  0999 V2000
   52.7920   24.1200   45.2540 C   0  0  0  0  0  0  0  0  0  0  0  0
   54.1070   24.4680   45.8800 C   0  0  0  0  0  0  0  0  0  0  0  0
   54.7890   25.5950   45.6080 N   0  0  0  0  0  0  0  0  0  0  0  0
   55.8890   25.5060   46.3910 C   0  0  0  0  0  0  0  0  0  0  0  0
   56.9670   26.5210   46.4030 C   0  0  0  0  0  0  0  0  0  0  0  0
   56.8730   27.6720   45.6030 C   0  0  0  0  0  0  0  0  0  0  0  0
   57.9140   28.6050   45.5790 C   0  0  0  0  0  0  0  0  0  0  0  0
   59.0700   28.4000   46.3570 C   0  0  0  0  0  0  0  0  0  0  0  0
   60.1580   29.2840   46.3410 O   0  0  0  0  0  0  0  0  0  0  0  0
   60.2750   30.4440   47.1580 C   0  0  0  0  0  0  0  0  0  0  0  0
   58.8890   31.0100   47.5140 C   0  0  0  0  0  0  0  0  0  0  0  0
   58.5870   32.3240   46.9000 N   0  0  0  0  0  0  0  0  0  0  0  0
   59.7440   33.2390   46.8270 C   0  0  0  0  0  0  0  0  0  0  0  0
   59.2820   34.6280   46.3780 C   0  0  0  0  0  0  0  0  0  0  0  0
   58.5240   34.5860   45.0310 C   0  0  0  0  0  0  0  0  0  0  0  0
   58.2420   33.1580   44.5350 C   0  0  0  0  0  0  0  0  0  0  0  0
   57.7430   32.2550   45.6780 C   0  0  0  0  0  0  0  0  0  0  0  0
   59.1510   27.2670   47.1710 C   0  0  0  0  0  0  0  0  0  0  0  0
   58.1130   26.3320   47.1950 C   0  0  0  0  0  0  0  0  0  0  0  0
   55.9240   24.3860   47.1480 N   0  0  0  0  0  0  0  0  0  0  0  0
   54.7910   23.7370   46.8230 C   0  0  0  0  0  0  0  0  0  0  0  0
   54.4030   22.4100   47.4000 C   0  0  0  0  0  0  0  0  0  0  0  0
   55.8720   21.4310   47.8650 S   0  0  0  0  0  0  0  0  0  0  0  0
   56.7380   21.7390   46.3280 C   0  0  0  0  0  0  0  0  0  0  0  0
   56.1040   21.5400   45.1410 N   0  0  0  0  0  0  0  0  0  0  0  0
   56.7450   21.7670   43.9620 C   0  0  0  0  0  0  0  0  0  0  0  0
   56.1460   21.5790   42.8710 O   0  0  0  0  0  0  0  0  0  0  0  0
   58.0730   22.1990   43.9620 C   0  0  0  0  0  0  0  0  0  0  0  0
   58.7070   22.3980   45.1930 C   0  0  0  0  0  0  0  0  0  0  0  0
   60.0610   22.8370   45.2460 N   0  0  0  0  0  0  0  0  0  0  0  0
   58.0260   22.1690   46.3480 N   0  0  0  0  0  0  0  0  0  0  0  0
   52.0509   23.9239   46.0428 H   0  0  0  0  0  0  0  0  0  0  0  0
   52.4498   24.9585   44.6297 H   0  0  0  0  0  0  0  0  0  0  0  0
   52.9093   23.2220   44.6297 H   0  0  0  0  0  0  0  0  0  0  0  0
   55.9743   27.8403   44.9914 H   0  0  0  0  0  0  0  0  0  0  0  0
   57.8298   29.5032   44.9496 H   0  0  0  0  0  0  0  0  0  0  0  0
   60.8043   30.1791   48.0852 H   0  0  0  0  0  0  0  0  0  0  0  0
   60.8338   31.2102   46.6007 H   0  0  0  0  0  0  0  0  0  0  0  0
   58.1274   30.2906   47.1786 H   0  0  0  0  0  0  0  0  0  0  0  0
   58.8839   31.1644   48.6031 H   0  0  0  0  0  0  0  0  0  0  0  0
   60.2132   33.3136   47.8191 H   0  0  0  0  0  0  0  0  0  0  0  0
   60.4709   32.8466   46.1006 H   0  0  0  0  0  0  0  0  0  0  0  0
   58.6147   35.0448   47.1468 H   0  0  0  0  0  0  0  0  0  0  0  0
   60.1768   35.2531   46.2418 H   0  0  0  0  0  0  0  0  0  0  0  0
   57.5639   35.1085   45.1544 H   0  0  0  0  0  0  0  0  0  0  0  0
   59.1665   35.0701   44.2808 H   0  0  0  0  0  0  0  0  0  0  0  0
   57.4739   33.1974   43.7485 H   0  0  0  0  0  0  0  0  0  0  0  0
   59.1794   32.7357   44.1440 H   0  0  0  0  0  0  0  0  0  0  0  0
   56.7206   32.5621   45.9432 H   0  0  0  0  0  0  0  0  0  0  0  0
   57.7859   31.2181   45.3133 H   0  0  0  0  0  0  0  0  0  0  0  0
   60.0404   27.1098   47.7988 H   0  0  0  0  0  0  0  0  0  0  0  0
   58.1930   25.4427   47.8374 H   0  0  0  0  0  0  0  0  0  0  0  0
   53.7853   22.5757   48.2950 H   0  0  0  0  0  0  0  0  0  0  0  0
   53.8419   21.8512   46.6366 H   0  0  0  0  0  0  0  0  0  0  0  0
   58.6073   22.3784   43.0174 H   0  0  0  0  0  0  0  0  0  0  0  0
   60.8200   22.2300   44.8670 H   0  0  0  0  0  0  0  0  0  0  0  0
   60.3130   23.7590   45.6750 H   0  0  0  0  0  0  0  0  0  0  0  0
  1  2  1  0
  2  3  1  0
  3  4  1  0
  4  5  1  0
  5  6  2  0
  6  7  1  0
  7  8  2  0
  8  9  1  0
  9 10  1  0
 10 11  1  0
 11 12  1  0
 12 13  1  0
 13 14  1  0
 14 15  1  0
 15 16  1  0
 16 17  1  0
  8 18  1  0
 18 19  2  0
  4 20  2  0
 20 21  1  0
 21 22  1  0
 22 23  1  0
 23 24  1  0
 24 25  2  0
 25 26  1  0
 26 27  2  0
 26 28  1  0
 28 29  2  0
 29 30  1  0
 29 31  1  0
 21  2  2  0
 31 24  1  0
 19  5  1  0
 17 12  1  0
  1 32  1  0
  1 33  1  0
  1 34  1  0
  6 35  1  0
  7 36  1  0
 10 37  1  0
 10 38  1  0
 11 39  1  0
 11 40  1  0
 13 41  1  0
 13 42  1  0
 14 43  1  0
 14 44  1  0
 15 45  1  0
 15 46  1  0
 16 47  1  0
 16 48  1  0
 17 49  1  0
 17 50  1  0
 18 51  1  0
 19 52  1  0
 22 53  1  0
 22 54  1  0
 28 55  1  0
 30 56  1  0
 30 57  1  0
M  CHG  2   3  -1  31  -1
M  END
>  <UniqueID>  (82) 
79

>  <SMILES>  (82) 
Cc1[n-]c(-c2ccc(OCCN3CCCCC3)cc2)nc1CSc1nc(=O)cc(N)[n-]1

>  <Energy>  (82) 
90.27014644549004

>  <Genealogy>  (82) 
Cc1[n-]c(-c2ccc(OCCN3CCCCC3)cc2)nc1CSc1nc(=O)cc(N)[n-]1 (protonated)
Cc1[n-]c(-c2ccc(OCCN3CCCCC3)cc2)nc1CSc1nc(=O)cc(N)[n-]1 (3D coordinates assigned)
Cc1[n-]c(-c2ccc(OCCN3CCCCC3)cc2)nc1CSc1nc(=O)cc(N)[n-]1 (nonaromatic ring conformer: 90.27014644549004 kcal/mol)

>  <smiles>  (82) 
Cc1[nH]c(-c2ccc(OCCN3CCCCC3)cc2)nc1CSc1nc(=O)cc(N)[nH]1

>  <score_type>  (82) 
oracle

>  <origin>  (82) 
adg

>  <m_score__min__energy>  (82) 
-11.67

>  <m_primary>  (82) 
energy

$$$$
82:0
     RDKit          3D

 43 46  0  0  1  0  0  0  0  0999 V2000
   56.3870   25.3750   45.6010 C   0  0  0  0  0  0  0  0  0  0  0  0
   56.3180   26.7240   46.1320 N   0  0  0  0  0  0  0  0  0  0  0  0
   57.1830   27.7370   45.6320 C   0  0  0  0  0  0  0  0  0  0  0  0
   58.4790   27.4490   45.2980 C   0  0  0  0  0  0  0  0  0  0  0  0
   59.2630   28.4820   44.8200 C   0  0  0  0  0  0  0  0  0  0  0  0
   58.8280   29.7650   44.6600 C   0  0  0  0  0  0  0  0  0  0  0  0
   57.5180   30.0480   45.0010 C   0  0  0  0  0  0  0  0  0  0  0  0
   56.9510   31.3490   44.8780 N   0  0  0  0  0  0  0  0  0  0  0  0
   57.5890   32.3670   45.3420 C   0  0  0  0  0  0  0  0  0  0  0  0
   57.6750   33.4390   44.5040 N   0  0  0  0  0  0  0  0  0  0  0  0
   58.3200   34.5670   44.8760 C   0  0  0  0  0  0  0  0  0  0  0  0
   58.8940   34.6160   46.1300 C   0  0  0  0  0  0  0  0  0  0  0  0
   58.7810   33.5020   46.9470 C   0  0  0  0  0  0  0  0  0  0  0  0
   59.3250   33.5770   48.1050 N   0  0  0  0  0  0  0  0  0  0  0  0
   60.4420   32.7530   48.4180 C   0  0  0  0  0  0  0  0  0  0  0  0
   60.3790   31.7350   49.3570 C   0  0  0  0  0  0  0  0  0  0  0  0
   61.5070   31.0020   49.5830 C   0  0  0  0  0  0  0  0  0  0  0  0
   62.6810   31.2510   48.9090 C   0  0  0  0  0  0  0  0  0  0  0  0
   62.7490   32.2720   47.9660 C   0  0  0  0  0  0  0  0  0  0  0  0
   63.7650   32.7160   47.1770 N   0  0  0  0  0  0  0  0  0  0  0  0
   63.3100   33.7540   46.4190 C   0  0  0  0  0  0  0  0  0  0  0  0
   61.9820   33.9370   46.7630 C   0  0  0  0  0  0  0  0  0  0  0  0
   61.6190   33.0230   47.7240 C   0  0  0  0  0  0  0  0  0  0  0  0
   58.1410   32.3860   46.5740 N   0  0  0  0  0  0  0  0  0  0  0  0
   56.7150   29.0230   45.4830 C   0  0  0  0  0  0  0  0  0  0  0  0
   56.4238   24.6553   46.4320 H   0  0  0  0  0  0  0  0  0  0  0  0
   55.4978   25.1778   44.9843 H   0  0  0  0  0  0  0  0  0  0  0  0
   57.2917   25.2695   44.9843 H   0  0  0  0  0  0  0  0  0  0  0  0
   55.6280   26.9440   46.8830 H   0  0  0  0  0  0  0  0  0  0  0  0
   58.8822   26.4313   45.4062 H   0  0  0  0  0  0  0  0  0  0  0  0
   60.3052   28.2549   44.5512 H   0  0  0  0  0  0  0  0  0  0  0  0
   59.4966   30.5480   44.2728 H   0  0  0  0  0  0  0  0  0  0  0  0
   57.2460   33.4240   43.5460 H   0  0  0  0  0  0  0  0  0  0  0  0
   58.3860   35.4274   44.1939 H   0  0  0  0  0  0  0  0  0  0  0  0
   59.4271   35.5153   46.4721 H   0  0  0  0  0  0  0  0  0  0  0  0
   59.4476   31.5247   49.9032 H   0  0  0  0  0  0  0  0  0  0  0  0
   61.4776   30.1897   50.3242 H   0  0  0  0  0  0  0  0  0  0  0  0
   63.5711   30.6390   49.1171 H   0  0  0  0  0  0  0  0  0  0  0  0
   64.7400   32.3450   47.1380 H   0  0  0  0  0  0  0  0  0  0  0  0
   63.8848   34.3317   45.6802 H   0  0  0  0  0  0  0  0  0  0  0  0
   61.3165   34.6995   46.3321 H   0  0  0  0  0  0  0  0  0  0  0  0
   58.0540   31.5430   47.1880 H   0  0  0  0  0  0  0  0  0  0  0  0
   55.6724   29.2455   45.7542 H   0  0  0  0  0  0  0  0  0  0  0  0
  1  2  1  0
  2  3  1  0
  3  4  2  0
  4  5  1  0
  5  6  2  0
  6  7  1  0
  7  8  1  0
  8  9  2  0
  9 10  1  0
 10 11  1  0
 11 12  2  0
 12 13  1  0
 13 14  2  0
 14 15  1  0
 15 16  2  0
 16 17  1  0
 17 18  2  0
 18 19  1  0
 19 20  1  0
 20 21  1  0
 21 22  2  0
 22 23  1  0
 13 24  1  0
  7 25  2  0
 25  3  1  0
 24  9  1  0
 23 15  1  0
 23 19  2  0
  1 26  1  0
  1 27  1  0
  1 28  1  0
  2 29  1  0
  4 30  1  0
  5 31  1  0
  6 32  1  0
 10 33  1  0
 11 34  1  0
 12 35  1  0
 16 36  1  0
 17 37  1  0
 18 38  1  0
 20 39  1  0
 21 40  1  0
 22 41  1  0
 24 42  1  0
 25 43  1  0
M  END
>  <smiles>  (83) 
CNc1cccc(N=c2[nH]ccc(=Nc3cccc4[nH]ccc34)[nH]2)c1

>  <score_type>  (83) 
oracle

>  <origin>  (83) 
adg

>  <m_score__min__energy>  (83) 
-8.4199999999999999

>  <m_primary>  (83) 
energy

$$$$
83:0
     RDKit          3D

 53 56  0  0  0  0  0  0  0  0999 V2000
   55.2530   24.5440   46.3270 O   0  0  0  0  0  0  0  0  0  0  0  0
   56.0960   25.4070   45.9700 C   0  0  0  0  0  0  0  0  0  0  0  0
   57.4160   24.9530   45.4090 C   0  0  0  0  0  0  0  0  0  0  0  0
   57.2220   23.7150   44.5780 C   0  0  0  0  0  0  0  0  0  0  0  0
   57.9300   22.5390   44.8850 C   0  0  0  0  0  0  0  0  0  0  0  0
   57.7740   21.3970   44.0950 C   0  0  0  0  0  0  0  0  0  0  0  0
   56.9160   21.4200   42.9900 C   0  0  0  0  0  0  0  0  0  0  0  0
   56.2180   22.5880   42.6710 C   0  0  0  0  0  0  0  0  0  0  0  0
   56.3740   23.7360   43.4560 C   0  0  0  0  0  0  0  0  0  0  0  0
   55.7230   26.7890   45.9900 N   0  0  0  0  0  0  0  0  0  0  0  0
   56.5750   27.8800   45.6200 C   0  0  0  0  0  0  0  0  0  0  0  0
   57.9320   27.8270   45.9630 C   0  0  0  0  0  0  0  0  0  0  0  0
   58.7940   28.8760   45.6130 C   0  0  0  0  0  0  0  0  0  0  0  0
   60.4980   28.8010   46.0510 S   0  0  0  0  0  0  0  0  0  0  0  0
   60.7680   27.5580   46.8520 O   0  0  0  0  0  0  0  0  0  0  0  0
   61.3510   28.7650   44.8120 O   0  0  0  0  0  0  0  0  0  0  0  0
   60.8940   30.1870   47.0050 N   0  0  0  0  0  0  0  0  0  0  0  0
   60.0830   30.5560   48.1230 C   0  0  0  0  0  0  0  0  0  0  0  0
   59.7690   29.5930   49.0930 C   0  0  0  0  0  0  0  0  0  0  0  0
   59.0120   29.9420   50.2100 C   0  0  0  0  0  0  0  0  0  0  0  0
   58.5600   31.2540   50.3670 C   0  0  0  0  0  0  0  0  0  0  0  0
   58.8650   32.2200   49.4050 C   0  0  0  0  0  0  0  0  0  0  0  0
   59.6360   31.8880   48.2790 C   0  0  0  0  0  0  0  0  0  0  0  0
   59.9930   32.9300   47.2920 C   0  0  0  0  0  0  0  0  0  0  0  0
   61.1280   33.4740   47.3360 O   0  0  0  0  0  0  0  0  0  0  0  0
   59.0520   33.3680   46.3110 N   0  0  0  0  0  0  0  0  0  0  0  0
   57.6530   33.1090   45.9170 C   0  0  0  0  0  0  0  0  0  0  0  0
   57.5630   34.2090   44.9130 C   0  0  0  0  0  0  0  0  0  0  0  0
   58.9830   34.4470   45.3080 C   0  0  0  0  0  0  0  0  0  0  0  0
   58.3010   29.9610   44.8770 C   0  0  0  0  0  0  0  0  0  0  0  0
   56.9560   30.0020   44.5030 C   0  0  0  0  0  0  0  0  0  0  0  0
   56.0930   28.9620   44.8610 C   0  0  0  0  0  0  0  0  0  0  0  0
   54.7690   28.9980   44.4390 O   0  0  0  0  0  0  0  0  0  0  0  0
   57.8389   25.7509   44.7810 H   0  0  0  0  0  0  0  0  0  0  0  0
   58.1029   24.7279   46.2381 H   0  0  0  0  0  0  0  0  0  0  0  0
   58.6090   22.5182   45.7502 H   0  0  0  0  0  0  0  0  0  0  0  0
   58.3266   20.4785   44.3422 H   0  0  0  0  0  0  0  0  0  0  0  0
   56.7908   20.5185   42.3722 H   0  0  0  0  0  0  0  0  0  0  0  0
   55.5447   22.6050   41.8013 H   0  0  0  0  0  0  0  0  0  0  0  0
   55.8321   24.6570   43.1949 H   0  0  0  0  0  0  0  0  0  0  0  0
   58.3239   26.9570   46.5103 H   0  0  0  0  0  0  0  0  0  0  0  0
   60.1216   28.5581   48.9717 H   0  0  0  0  0  0  0  0  0  0  0  0
   58.7703   29.1832   50.9688 H   0  0  0  0  0  0  0  0  0  0  0  0
   57.9629   31.5272   51.2495 H   0  0  0  0  0  0  0  0  0  0  0  0
   58.4982   33.2494   49.5305 H   0  0  0  0  0  0  0  0  0  0  0  0
   57.5156   32.1137   45.4693 H   0  0  0  0  0  0  0  0  0  0  0  0
   56.9006   33.1013   46.7194 H   0  0  0  0  0  0  0  0  0  0  0  0
   57.4068   33.8900   43.8719 H   0  0  0  0  0  0  0  0  0  0  0  0
   56.7845   34.9861   44.9210 H   0  0  0  0  0  0  0  0  0  0  0  0
   59.6858   34.2974   44.4751 H   0  0  0  0  0  0  0  0  0  0  0  0
   59.2450   35.4607   45.6453 H   0  0  0  0  0  0  0  0  0  0  0  0
   58.9748   30.7828   44.5929 H   0  0  0  0  0  0  0  0  0  0  0  0
   56.5741   30.8561   43.9244 H   0  0  0  0  0  0  0  0  0  0  0  0
  1  2  2  0
  2  3  1  0
  3  4  1  0
  4  5  2  0
  5  6  1  0
  6  7  2  0
  7  8  1  0
  8  9  2  0
  2 10  1  0
 10 11  1  0
 11 12  2  0
 12 13  1  0
 13 14  1  0
 14 15  2  0
 14 16  2  0
 14 17  1  0
 17 18  1  0
 18 19  2  0
 19 20  1  0
 20 21  2  0
 21 22  1  0
 22 23  2  0
 23 24  1  0
 24 25  2  0
 24 26  1  0
 26 27  1  0
 27 28  1  0
 28 29  1  0
 13 30  2  0
 30 31  1  0
 31 32  2  0
 32 33  1  0
  9  4  1  0
 32 11  1  0
 23 18  1  0
 29 26  1  0
  3 34  1  0
  3 35  1  0
  5 36  1  0
  6 37  1  0
  7 38  1  0
  8 39  1  0
  9 40  1  0
 12 41  1  0
 19 42  1  0
 20 43  1  0
 21 44  1  0
 22 45  1  0
 27 46  1  0
 27 47  1  0
 28 48  1  0
 28 49  1  0
 29 50  1  0
 29 51  1  0
 30 52  1  0
 31 53  1  0
M  CHG  3  10  -1  17  -1  33  -1
M  END
>  <UniqueID>  (84) 
80

>  <SMILES>  (84) 
O=C(Cc1ccccc1)[N-]c1cc(S(=O)(=O)[N-]c2ccccc2C(=O)N2CCC2)ccc1[O-]

>  <Energy>  (84) 
113.59445419447667

>  <Genealogy>  (84) 
O=C(Cc1ccccc1)[N-]c1cc(S(=O)(=O)[N-]c2ccccc2C(=O)N2CCC2)ccc1[O-] (protonated)
O=C(Cc1ccccc1)[N-]c1cc(S(=O)(=O)[N-]c2ccccc2C(=O)N2CCC2)ccc1[O-] (3D coordinates assigned)
O=C(Cc1ccccc1)[N-]c1cc(S(=O)(=O)[N-]c2ccccc2C(=O)N2CCC2)ccc1[O-] (nonaromatic ring conformer: 113.59445419447667 kcal/mol)

>  <smiles>  (84) 
O=C(Cc1ccccc1)Nc1cc(S(=O)(=O)Nc2ccccc2C(=O)N2CCC2)ccc1O

>  <score_type>  (84) 
oracle

>  <origin>  (84) 
adg

>  <m_score__min__energy>  (84) 
-16.739999999999998

>  <m_primary>  (84) 
energy

$$$$
84:0
     RDKit          3D

 27 28  0  0  0  0  0  0  0  0999 V2000
   51.1760   31.6990   54.3820 O   0  0  0  0  0  0  0  0  0  0  0  0
   52.0450   31.2530   53.5870 C   0  0  0  0  0  0  0  0  0  0  0  0
   53.2670   30.7300   54.1230 N   0  0  0  0  0  0  0  0  0  0  0  0
   54.3460   30.1210   53.3480 C   0  0  0  0  0  0  0  0  0  0  0  0
   55.7160   30.4640   53.9430 C   0  0  0  0  0  0  0  0  0  0  0  0
   56.7040   30.8960   52.8850 C   0  0  0  0  0  0  0  0  0  0  0  0
   56.8830   32.2660   52.6250 C   0  0  0  0  0  0  0  0  0  0  0  0
   57.7880   32.6880   51.6470 C   0  0  0  0  0  0  0  0  0  0  0  0
   58.5200   31.7480   50.9180 C   0  0  0  0  0  0  0  0  0  0  0  0
   58.3440   30.3840   51.1610 C   0  0  0  0  0  0  0  0  0  0  0  0
   57.4380   29.9530   52.1370 C   0  0  0  0  0  0  0  0  0  0  0  0
   57.2740   28.5890   52.3530 O   0  0  0  0  0  0  0  0  0  0  0  0
   51.7660   31.2830   52.1420 C   0  0  0  0  0  0  0  0  0  0  0  0
   52.0730   30.0100   51.0820 S   0  0  0  0  0  0  0  0  0  0  0  0
   51.4200   30.8320   49.7710 C   0  0  0  0  0  0  0  0  0  0  0  0
   51.3690   30.3740   48.6000 O   0  0  0  0  0  0  0  0  0  0  0  0
   50.9370   32.0460   50.1070 N   0  0  0  0  0  0  0  0  0  0  0  0
   51.1170   32.2930   51.4320 C   0  0  0  0  0  0  0  0  0  0  0  0
   50.6360   33.4540   52.0230 O   0  0  0  0  0  0  0  0  0  0  0  0
   54.2171   29.0286   53.3499 H   0  0  0  0  0  0  0  0  0  0  0  0
   54.3031   30.5142   52.3216 H   0  0  0  0  0  0  0  0  0  0  0  0
   55.5929   31.2819   54.6682 H   0  0  0  0  0  0  0  0  0  0  0  0
   56.1116   29.5582   54.4257 H   0  0  0  0  0  0  0  0  0  0  0  0
   56.3073   33.0103   53.1947 H   0  0  0  0  0  0  0  0  0  0  0  0
   57.9239   33.7619   51.4512 H   0  0  0  0  0  0  0  0  0  0  0  0
   59.2354   32.0822   50.1522 H   0  0  0  0  0  0  0  0  0  0  0  0
   58.9195   29.6457   50.5833 H   0  0  0  0  0  0  0  0  0  0  0  0
  1  2  2  0
  2  3  1  0
  3  4  1  0
  4  5  1  0
  5  6  1  0
  6  7  2  0
  7  8  1  0
  8  9  2  0
  9 10  1  0
 10 11  2  0
 11 12  1  0
  2 13  1  0
 13 14  1  0
 14 15  1  0
 15 16  2  0
 15 17  1  0
 17 18  1  0
 18 19  1  0
 11  6  1  0
 18 13  2  0
  4 20  1  0
  4 21  1  0
  5 22  1  0
  5 23  1  0
  7 24  1  0
  8 25  1  0
  9 26  1  0
 10 27  1  0
M  CHG  4   3  -1  12  -1  17  -1  19  -1
M  END
>  <UniqueID>  (85) 
81

>  <SMILES>  (85) 
O=C([N-]CCc1ccccc1[O-])c1sc(=O)[n-]c1[O-]

>  <Energy>  (85) 
59.43024800950638

>  <Genealogy>  (85) 
O=C([N-]CCc1ccccc1[O-])c1sc(=O)[n-]c1[O-] (protonated)
O=C([N-]CCc1ccccc1[O-])c1sc(=O)[n-]c1[O-] (3D coordinates assigned)
O=C([N-]CCc1ccccc1[O-])c1sc(=O)[n-]c1[O-] (optimized conformer: 59.43024800950638 kcal/mol)

>  <smiles>  (85) 
O=C(NCCc1ccccc1O)c1sc(=O)[nH]c1O

>  <score_type>  (85) 
oracle

>  <origin>  (85) 
adg

>  <m_score__min__energy>  (85) 
-16.699999999999999

>  <m_primary>  (85) 
energy

$$$$
85:0
     RDKit          3D

 41 43  0  0  1  0  0  0  0  0999 V2000
   58.1820   34.2950   45.7330 C   0  0  0  0  0  0  0  0  0  0  0  0
   58.8650   33.7700   44.5120 C   0  0  0  0  0  0  0  0  0  0  0  0
   58.1460   32.5880   43.9740 C   0  0  0  0  0  0  0  0  0  0  0  0
   57.6450   31.6130   44.5120 N   0  0  0  0  0  0  0  0  0  0  0  0
   57.0370   30.6010   43.9410 C   0  0  0  0  0  0  0  0  0  0  0  0
   56.4830   29.4900   44.7600 C   0  0  0  0  0  0  0  0  0  0  0  0
   55.2180   29.4370   44.8680 O   0  0  0  0  0  0  0  0  0  0  0  0
   57.3280   28.5130   45.4050 N   0  0  0  0  0  0  0  0  0  0  0  0
   57.8230   28.7570   46.7280 C   0  0  0  0  0  0  0  0  0  0  0  0
   59.0290   27.9600   47.1190 C   0  0  0  0  0  0  0  0  0  0  0  0
   59.6600   27.2630   45.9570 C   0  0  0  0  0  0  0  0  0  0  0  0
   58.7040   26.5100   45.1140 C   0  0  1  0  0  0  0  0  0  0  0  0
   58.1510   25.3730   45.8420 N   0  0  0  0  0  0  0  0  0  0  0  0
   57.0480   24.8520   45.3750 C   0  0  0  0  0  0  0  0  0  0  0  0
   55.9190   25.1640   46.0850 N   0  0  0  0  0  0  0  0  0  0  0  0
   54.7400   24.6440   45.6580 C   0  0  0  0  0  0  0  0  0  0  0  0
   54.6660   23.8190   44.5350 C   0  0  0  0  0  0  0  0  0  0  0  0
   53.4730   23.3070   44.1300 F   0  0  0  0  0  0  0  0  0  0  0  0
   55.8530   23.5720   43.8960 C   0  0  0  0  0  0  0  0  0  0  0  0
   57.0320   24.0780   44.3040 N   0  0  0  0  0  0  0  0  0  0  0  0
   57.6090   27.3450   44.6000 C   0  0  0  0  0  0  0  0  0  0  0  0
   56.9630   30.6630   42.5670 C   0  0  0  0  0  0  0  0  0  0  0  0
   57.8270   32.2610   42.2170 S   0  0  0  0  0  0  0  0  0  0  0  0
   58.6863   33.9074   46.6305 H   0  0  0  0  0  0  0  0  0  0  0  0
   58.2258   35.3941   45.7337 H   0  0  0  0  0  0  0  0  0  0  0  0
   57.1311   33.9700   45.7337 H   0  0  0  0  0  0  0  0  0  0  0  0
   58.8886   34.5580   43.7448 H   0  0  0  0  0  0  0  0  0  0  0  0
   59.8878   33.4683   44.7819 H   0  0  0  0  0  0  0  0  0  0  0  0
   58.0822   29.8235   46.8022 H   0  0  0  0  0  0  0  0  0  0  0  0
   57.0202   28.4488   47.4139 H   0  0  0  0  0  0  0  0  0  0  0  0
   59.7696   28.6388   47.5669 H   0  0  0  0  0  0  0  0  0  0  0  0
   58.7015   27.1888   47.8317 H   0  0  0  0  0  0  0  0  0  0  0  0
   60.1552   28.0178   45.3284 H   0  0  0  0  0  0  0  0  0  0  0  0
   60.3653   26.5279   46.3720 H   0  0  0  0  0  0  0  0  0  0  0  0
   59.2801   26.1517   44.2481 H   0  0  0  0  0  0  0  0  0  0  0  0
   53.8190   24.8791   46.2116 H   0  0  0  0  0  0  0  0  0  0  0  0
   55.8418   22.9276   43.0046 H   0  0  0  0  0  0  0  0  0  0  0  0
   57.8970   23.8410   43.7650 H   0  0  0  0  0  0  0  0  0  0  0  0
   57.8766   27.6801   43.5870 H   0  0  0  0  0  0  0  0  0  0  0  0
   56.7018   26.7231   44.6166 H   0  0  0  0  0  0  0  0  0  0  0  0
   56.5094   29.9499   41.8629 H   0  0  0  0  0  0  0  0  0  0  0  0
  1  2  1  0
  2  3  1  0
  3  4  2  0
  4  5  1  0
  5  6  1  0
  6  7  2  0
  6  8  1  0
  8  9  1  0
  9 10  1  0
 10 11  1  0
 11 12  1  0
 12 13  1  0
 13 14  2  3
 14 15  1  0
 15 16  2  0
 16 17  1  0
 17 18  1  0
 17 19  2  0
 19 20  1  0
 12 21  1  0
  5 22  2  0
 22 23  1  0
 23  3  1  0
 21  8  1  0
 20 14  1  0
  1 24  1  0
  1 25  1  0
  1 26  1  0
  2 27  1  0
  2 28  1  0
  9 29  1  0
  9 30  1  0
 10 31  1  0
 10 32  1  0
 11 33  1  0
 11 34  1  0
 12 35  1  6
 16 36  1  0
 19 37  1  0
 20 38  1  0
 21 39  1  0
 21 40  1  0
 22 41  1  0
M  END
>  <smiles>  (86) 
CCc1nc(C(=O)N2CCCC(N=c3ncc(F)c[nH]3)C2)cs1

>  <score_type>  (86) 
oracle

>  <origin>  (86) 
adg

>  <m_score__min__energy>  (86) 
-7.6900000000000004

>  <m_primary>  (86) 
energy

$$$$
86:0
     RDKit          3D

 42 44  0  0  0  0  0  0  0  0999 V2000
   58.7080   31.3410   46.0820 C   0  0  0  0  0  0  0  0  0  0  0  0
   57.8040   30.1720   45.8240 C   0  0  0  0  0  0  0  0  0  0  0  0
   56.7180   30.3690   45.0290 N   0  0  0  0  0  0  0  0  0  0  0  0
   55.8480   29.3680   44.7540 C   0  0  0  0  0  0  0  0  0  0  0  0
   54.8560   29.5830   44.0120 O   0  0  0  0  0  0  0  0  0  0  0  0
   56.0490   28.1330   45.2750 N   0  0  0  0  0  0  0  0  0  0  0  0
   57.1090   27.8740   46.0810 C   0  0  0  0  0  0  0  0  0  0  0  0
   57.2570   26.7090   46.5350 O   0  0  0  0  0  0  0  0  0  0  0  0
   58.0230   28.8980   46.3990 C   0  0  0  0  0  0  0  0  0  0  0  0
   59.4060   28.5900   47.4760 S   0  0  0  0  0  0  0  0  0  0  0  0
   60.6580   28.5270   46.6460 O   0  0  0  0  0  0  0  0  0  0  0  0
   59.2590   27.2890   48.2140 O   0  0  0  0  0  0  0  0  0  0  0  0
   59.5590   29.8670   48.6380 N   0  0  0  0  0  0  0  0  0  0  0  0
   59.0520   29.8310   49.9790 C   0  0  0  0  0  0  0  0  0  0  0  0
   59.6500   29.0510   50.9810 C   0  0  0  0  0  0  0  0  0  0  0  0
   59.1180   29.0390   52.2710 C   0  0  0  0  0  0  0  0  0  0  0  0
   57.9900   29.8030   52.5800 C   0  0  0  0  0  0  0  0  0  0  0  0
   57.5010   29.7470   53.8440 F   0  0  0  0  0  0  0  0  0  0  0  0
   57.3760   30.5960   51.5870 C   0  0  0  0  0  0  0  0  0  0  0  0
   56.1720   31.4160   51.8790 C   0  0  0  0  0  0  0  0  0  0  0  0
   56.3040   32.5750   52.3590 O   0  0  0  0  0  0  0  0  0  0  0  0
   54.8580   30.8770   51.6740 N   0  0  0  0  0  0  0  0  0  0  0  0
   53.8890   30.5760   52.6900 C   0  0  0  0  0  0  0  0  0  0  0  0
   54.3000   30.0570   53.9330 C   0  0  0  0  0  0  0  0  0  0  0  0
   53.3690   29.7920   54.9370 C   0  0  0  0  0  0  0  0  0  0  0  0
   52.0180   30.0530   54.7230 C   0  0  0  0  0  0  0  0  0  0  0  0
   51.5940   30.5910   53.5060 C   0  0  0  0  0  0  0  0  0  0  0  0
   52.5160   30.8680   52.4760 C   0  0  0  0  0  0  0  0  0  0  0  0
   52.0150   31.4410   51.1960 C   0  0  0  0  0  0  0  0  0  0  0  0
   52.1540   30.8030   50.1190 O   0  0  0  0  0  0  0  0  0  0  0  0
   51.3910   32.6830   51.1540 O   0  0  0  0  0  0  0  0  0  0  0  0
   57.9230   30.5980   50.2880 C   0  0  0  0  0  0  0  0  0  0  0  0
   58.8198   31.4856   47.1667 H   0  0  0  0  0  0  0  0  0  0  0  0
   59.6940   31.1479   45.6342 H   0  0  0  0  0  0  0  0  0  0  0  0
   58.2730   32.2467   45.6342 H   0  0  0  0  0  0  0  0  0  0  0  0
   60.5401   28.4478   50.7489 H   0  0  0  0  0  0  0  0  0  0  0  0
   59.5904   28.4233   53.0505 H   0  0  0  0  0  0  0  0  0  0  0  0
   55.3667   29.8585   54.1139 H   0  0  0  0  0  0  0  0  0  0  0  0
   53.7024   29.3762   55.8993 H   0  0  0  0  0  0  0  0  0  0  0  0
   51.2843   29.8353   55.5131 H   0  0  0  0  0  0  0  0  0  0  0  0
   50.5258   30.8016   53.3489 H   0  0  0  0  0  0  0  0  0  0  0  0
   57.4550   31.2122   49.5046 H   0  0  0  0  0  0  0  0  0  0  0  0
  1  2  1  0
  2  3  1  0
  3  4  1  0
  4  5  2  0
  4  6  1  0
  6  7  1  0
  7  8  2  0
  7  9  1  0
  9 10  1  0
 10 11  2  0
 10 12  2  0
 10 13  1  0
 13 14  1  0
 14 15  2  0
 15 16  1  0
 16 17  2  0
 17 18  1  0
 17 19  1  0
 19 20  1  0
 20 21  2  0
 20 22  1  0
 22 23  1  0
 23 24  2  0
 24 25  1  0
 25 26  2  0
 26 27  1  0
 27 28  2  0
 28 29  1  0
 29 30  2  0
 29 31  1  0
 19 32  2  0
  9  2  2  0
 32 14  1  0
 28 23  1  0
  1 33  1  0
  1 34  1  0
  1 35  1  0
 15 36  1  0
 16 37  1  0
 24 38  1  0
 25 39  1  0
 26 40  1  0
 27 41  1  0
 32 42  1  0
M  CHG  5   3  -1   6  -1  13  -1  22  -1  31  -1
M  END
>  <UniqueID>  (87) 
82

>  <SMILES>  (87) 
Cc1[n-]c(=O)[n-]c(=O)c1S(=O)(=O)[N-]c1ccc(F)c(C(=O)[N-]c2ccccc2C(=O)[O-])c1

>  <Energy>  (87) 
60.44487168531561

>  <Genealogy>  (87) 
Cc1[n-]c(=O)[n-]c(=O)c1S(=O)(=O)[N-]c1ccc(F)c(C(=O)[N-]c2ccccc2C(=O)[O-])c1 (protonated)
Cc1[n-]c(=O)[n-]c(=O)c1S(=O)(=O)[N-]c1ccc(F)c(C(=O)[N-]c2ccccc2C(=O)[O-])c1 (3D coordinates assigned)
Cc1[n-]c(=O)[n-]c(=O)c1S(=O)(=O)[N-]c1ccc(F)c(C(=O)[N-]c2ccccc2C(=O)[O-])c1 (optimized conformer: 60.44487168531561 kcal/mol)

>  <smiles>  (87) 
Cc1[nH]c(=O)[nH]c(=O)c1S(=O)(=O)Nc1ccc(F)c(C(=O)Nc2ccccc2C(=O)O)c1

>  <score_type>  (87) 
oracle

>  <origin>  (87) 
adg

>  <m_score__min__energy>  (87) 
-16.879999999999999

>  <m_primary>  (87) 
energy

$$$$
87:0
     RDKit          3D

 38 40  0  0  0  0  0  0  0  0999 V2000
   62.7421   32.9957   46.1643 H   0  0  0  0  0  0  0  0  0  0  0  0
   61.8770   33.3150   46.7640 C   0  0  0  0  0  0  0  0  0  0  0  0
   60.6390   33.3420   46.2020 N   0  0  0  0  0  0  0  0  0  0  0  0
   59.5370   33.7280   46.8970 C   0  0  0  0  0  0  0  0  0  0  0  0
   58.2930   33.7180   46.2510 O   0  0  0  0  0  0  0  0  0  0  0  0
   57.9820   32.9820   45.0970 C   0  0  0  0  0  0  0  0  0  0  0  0
   58.4980   33.4090   43.8700 C   0  0  0  0  0  0  0  0  0  0  0  0
   59.1442   34.2982   43.8289 H   0  0  0  0  0  0  0  0  0  0  0  0
   58.1990   32.7150   42.6970 C   0  0  0  0  0  0  0  0  0  0  0  0
   58.6146   33.0552   41.7370 H   0  0  0  0  0  0  0  0  0  0  0  0
   57.3730   31.5890   42.7390 C   0  0  0  0  0  0  0  0  0  0  0  0
   57.1464   31.0428   41.8115 H   0  0  0  0  0  0  0  0  0  0  0  0
   56.8290   31.1490   43.9600 C   0  0  0  0  0  0  0  0  0  0  0  0
   55.9470   29.9580   44.0060 C   0  0  0  0  0  0  0  0  0  0  0  0
   55.2350   29.6680   43.0050 O   0  0  0  0  0  0  0  0  0  0  0  0
   55.9140   29.1410   45.1890 N   0  0  0  0  0  0  0  0  0  0  0  0
   56.7500   28.2000   45.5220 C   0  0  0  0  0  0  0  0  0  0  0  0
   58.0980   28.4030   45.4800 N   0  0  0  0  0  0  0  0  0  0  0  0
   58.9850   27.4310   45.8240 C   0  0  0  0  0  0  0  0  0  0  0  0
   60.0655   27.6313   45.7758 H   0  0  0  0  0  0  0  0  0  0  0  0
   58.5260   26.1800   46.2380 C   0  0  0  0  0  0  0  0  0  0  0  0
   59.2391   25.3903   46.5171 H   0  0  0  0  0  0  0  0  0  0  0  0
   57.1520   25.9420   46.2940 C   0  0  0  0  0  0  0  0  0  0  0  0
   56.7756   24.9612   46.6201 H   0  0  0  0  0  0  0  0  0  0  0  0
   56.2550   26.9520   45.9350 C   0  0  0  0  0  0  0  0  0  0  0  0
   54.8860   26.7150   45.9910 O   0  0  0  0  0  0  0  0  0  0  0  0
   57.1340   31.8600   45.1360 C   0  0  0  0  0  0  0  0  0  0  0  0
   56.7049   31.5350   46.0953 H   0  0  0  0  0  0  0  0  0  0  0  0
   59.6650   34.0790   48.2500 C   0  0  0  0  0  0  0  0  0  0  0  0
   58.7779   34.3647   48.8343 H   0  0  0  0  0  0  0  0  0  0  0  0
   60.9260   34.0630   48.8490 C   0  0  0  0  0  0  0  0  0  0  0  0
   61.0331   34.3419   49.9076 H   0  0  0  0  0  0  0  0  0  0  0  0
   62.0590   33.6920   48.1050 C   0  0  0  0  0  0  0  0  0  0  0  0
   63.4120   33.6630   48.7120 C   0  0  0  0  0  0  0  0  0  0  0  0
   63.5850   34.1320   49.8700 O   0  0  0  0  0  0  0  0  0  0  0  0
   64.5310   33.0980   48.0240 N   0  0  0  0  0  0  0  0  0  0  0  0
   65.4810   33.1410   48.4540 H   0  0  0  0  0  0  0  0  0  0  0  0
   64.4180   32.5600   47.1370 H   0  0  0  0  0  0  0  0  0  0  0  0
  1  2  1  0
  2  3  2  0
  3  4  1  0
  4  5  1  0
  5  6  1  0
  6  7  2  0
  7  8  1  0
  7  9  1  0
  9 10  1  0
  9 11  2  0
 11 12  1  0
 11 13  1  0
 13 14  1  0
 14 15  2  0
 14 16  1  0
 16 17  2  0
 17 18  1  0
 18 19  1  0
 19 20  1  0
 19 21  2  0
 21 22  1  0
 21 23  1  0
 23 24  1  0
 23 25  2  0
 25 26  1  0
 13 27  2  0
 27 28  1  0
  4 29  2  0
 29 30  1  0
 29 31  1  0
 31 32  1  0
 31 33  2  0
 33 34  1  0
 34 35  2  0
 34 36  1  0
 36 37  1  0
 36 38  1  0
 33  2  1  0
 27  6  1  0
 25 17  1  0
M  CHG  2  18  -1  26  -1
M  END
>  <UniqueID>  (88) 
83

>  <SMILES>  (88) 
NC(=O)c1ccc(Oc2cccc(C(=O)/N=c3\[n-]cccc3[O-])c2)nc1

>  <Energy>  (88) 
53.9465351390885

>  <Genealogy>  (88) 
NC(=O)c1ccc(Oc2cccc(C(=O)N=c3[n-]cccc3[O-])c2)nc1 (protonated)
NC(=O)c1ccc(Oc2cccc(C(=O)/N=c3\[n-]cccc3[O-])c2)nc1 (cis-trans isomerization)
NC(=O)c1ccc(Oc2cccc(C(=O)/N=c3\[n-]cccc3[O-])c2)nc1 (3D coordinates assigned)
NC(=O)c1ccc(Oc2cccc(C(=O)/N=c3\[n-]cccc3[O-])c2)nc1 (optimized conformer: 53.9465351390885 kcal/mol)

>  <smiles>  (88) 
NC(=O)c1ccc(Oc2cccc(C(=O)N=c3[nH]cccc3O)c2)nc1

>  <score_type>  (88) 
oracle

>  <origin>  (88) 
adg

>  <m_score__min__energy>  (88) 
-14.140000000000001

>  <m_primary>  (88) 
energy

$$$$
