0:0
     RDKit          3D

 50 53  0  0  0  0  0  0  0  0999 V2000
   58.1700   29.3370   46.9890 C   0  0  0  0  0  0  0  0  0  0  0  0
   57.9560   29.7010   45.7140 C   0  0  0  0  0  0  0  0  0  0  0  0
   57.4850   28.8980   44.6580 C   0  0  0  0  0  0  0  0  0  0  0  0
   57.2290   27.5760   44.5930 C   0  0  0  0  0  0  0  0  0  0  0  0
   57.3000   26.6290   45.7220 C   0  0  0  0  0  0  0  0  0  0  0  0
   56.1280   26.2060   46.3640 C   0  0  0  0  0  0  0  0  0  0  0  0
   54.8900   26.7090   45.9830 O   0  0  0  0  0  0  0  0  0  0  0  0
   56.1980   25.3000   47.3740 N   0  0  0  0  0  0  0  0  0  0  0  0
   57.3900   24.7800   47.7690 C   0  0  0  0  0  0  0  0  0  0  0  0
   57.4310   23.9460   48.7100 O   0  0  0  0  0  0  0  0  0  0  0  0
   58.5350   25.1560   47.1440 N   0  0  0  0  0  0  0  0  0  0  0  0
   58.5180   26.0570   46.1280 C   0  0  0  0  0  0  0  0  0  0  0  0
   59.5980   26.3670   45.5590 O   0  0  0  0  0  0  0  0  0  0  0  0
   57.3240   29.7430   43.5720 C   0  0  0  0  0  0  0  0  0  0  0  0
   57.7250   30.9980   43.9760 C   0  0  0  0  0  0  0  0  0  0  0  0
   57.7530   32.2130   43.0980 C   0  0  0  0  0  0  0  0  0  0  0  0
   58.1150   30.9740   45.2680 N   0  0  0  0  0  0  0  0  0  0  0  0
   58.5700   32.1110   46.0190 C   0  0  0  0  0  0  0  0  0  0  0  0
   59.9000   32.1690   46.4610 C   0  0  0  0  0  0  0  0  0  0  0  0
   60.3660   33.2830   47.1820 C   0  0  0  0  0  0  0  0  0  0  0  0
   61.7360   33.3430   47.6340 N   0  0  0  0  0  0  0  0  0  0  0  0
   62.7920   33.8110   46.7270 C   0  0  0  0  0  0  0  0  0  0  0  0
   64.1330   33.0940   46.9960 C   0  0  0  0  0  0  0  0  0  0  0  0
   64.3250   32.6650   48.3990 N   0  0  0  0  0  0  0  0  0  0  0  0
   63.5100   33.4270   49.3530 C   0  0  0  0  0  0  0  0  0  0  0  0
   62.0240   33.1970   49.0680 C   0  0  0  0  0  0  0  0  0  0  0  0
   59.4810   34.3410   47.4500 C   0  0  0  0  0  0  0  0  0  0  0  0
   58.1570   34.2860   47.0060 C   0  0  0  0  0  0  0  0  0  0  0  0
   57.7010   33.1770   46.2900 C   0  0  0  0  0  0  0  0  0  0  0  0
   56.4180   33.1450   45.8480 F   0  0  0  0  0  0  0  0  0  0  0  0
   58.5431   30.0734   47.7160 H   0  0  0  0  0  0  0  0  0  0  0  0
   57.9722   28.3025   47.3062 H   0  0  0  0  0  0  0  0  0  0  0  0
   56.9422   27.1678   43.6126 H   0  0  0  0  0  0  0  0  0  0  0  0
   56.9476   29.4650   42.5765 H   0  0  0  0  0  0  0  0  0  0  0  0
   57.7738   33.1173   43.7239 H   0  0  0  0  0  0  0  0  0  0  0  0
   58.6508   32.1859   42.4629 H   0  0  0  0  0  0  0  0  0  0  0  0
   56.8549   32.2273   42.4629 H   0  0  0  0  0  0  0  0  0  0  0  0
   60.5843   31.3361   46.2418 H   0  0  0  0  0  0  0  0  0  0  0  0
   62.4841   33.6143   45.6894 H   0  0  0  0  0  0  0  0  0  0  0  0
   62.9382   34.8880   46.8966 H   0  0  0  0  0  0  0  0  0  0  0  0
   64.1815   32.2023   46.3537 H   0  0  0  0  0  0  0  0  0  0  0  0
   64.9281   33.8223   46.7784 H   0  0  0  0  0  0  0  0  0  0  0  0
   64.0890   31.6470   48.4880 H   0  0  0  0  0  0  0  0  0  0  0  0
   65.3340   32.7780   48.6570 H   0  0  0  0  0  0  0  0  0  0  0  0
   63.7408   33.0956   50.3762 H   0  0  0  0  0  0  0  0  0  0  0  0
   63.7373   34.4982   49.2492 H   0  0  0  0  0  0  0  0  0  0  0  0
   61.7487   32.1815   49.3890 H   0  0  0  0  0  0  0  0  0  0  0  0
   61.4399   33.9467   49.6218 H   0  0  0  0  0  0  0  0  0  0  0  0
   59.8326   35.2182   48.0129 H   0  0  0  0  0  0  0  0  0  0  0  0
   57.4717   35.1191   47.2212 H   0  0  0  0  0  0  0  0  0  0  0  0
  1  2  2  0
  2  3  1  0
  3  4  2  3
  4  5  1  0
  5  6  2  0
  6  7  1  0
  6  8  1  0
  8  9  1  0
  9 10  2  0
  9 11  1  0
 11 12  1  0
 12 13  2  0
  3 14  1  0
 14 15  2  0
 15 16  1  0
 15 17  1  0
 17 18  1  0
 18 19  2  0
 19 20  1  0
 20 21  1  0
 21 22  1  0
 22 23  1  0
 23 24  1  0
 24 25  1  0
 25 26  1  0
 20 27  2  0
 27 28  1  0
 28 29  2  0
 29 30  1  0
 17  2  1  0
 29 18  1  0
 12  5  1  0
 26 21  1  0
  1 31  1  0
  1 32  1  0
  4 33  1  0
 14 34  1  0
 16 35  1  0
 16 36  1  0
 16 37  1  0
 19 38  1  0
 22 39  1  0
 22 40  1  0
 23 41  1  0
 23 42  1  0
 24 43  1  0
 24 44  1  0
 25 45  1  0
 25 46  1  0
 26 47  1  0
 26 48  1  0
 27 49  1  0
 28 50  1  0
M  CHG  4   7  -1   8  -1  11  -1  24   1
M  END
>  <UniqueID>  (1) 
1

>  <SMILES>  (1) 
C=c1c(=Cc2c([O-])[n-]c(=O)[n-]c2=O)cc(C)n1-c1cc(N2CC[NH2+]CC2)ccc1F

>  <Energy>  (1) 
110.70900053968036

>  <Genealogy>  (1) 
C=c1c(=Cc2c([O-])[n-]c(=O)[n-]c2=O)cc(C)n1-c1cc(N2CC[NH2+]CC2)ccc1F (protonated)
C=c1c(=Cc2c([O-])[n-]c(=O)[n-]c2=O)cc(C)n1-c1cc(N2CC[NH2+]CC2)ccc1F (3D coordinates assigned)
C=c1c(=Cc2c([O-])[n-]c(=O)[n-]c2=O)cc(C)n1-c1cc(N2CC[NH2+]CC2)ccc1F (nonaromatic ring conformer: 110.70900053968036 kcal/mol)

>  <smiles>  (1) 
C=c1c(=Cc2c(O)[nH]c(=O)[nH]c2=O)cc(C)n1-c1cc(N2CCNCC2)ccc1F

>  <score_type>  (1) 
oracle

>  <origin>  (1) 
adg

>  <m_score__min__energy>  (1) 
-15.550000000000001

>  <m_primary>  (1) 
energy

$$$$
1:0
     RDKit          3D

 41 43  0  0  0  0  0  0  0  0999 V2000
   51.0580   32.2940   50.3890 N   0  0  0  0  0  0  0  0  0  0  0  0
   51.8170   31.0880   50.4480 C   0  0  0  0  0  0  0  0  0  0  0  0
   51.7750   30.2950   49.4700 O   0  0  0  0  0  0  0  0  0  0  0  0
   52.6420   30.7750   51.6480 C   0  0  0  0  0  0  0  0  0  0  0  0
   53.9800   30.3660   51.4900 C   0  0  0  0  0  0  0  0  0  0  0  0
   54.7620   30.0740   52.5740 N   0  0  0  0  0  0  0  0  0  0  0  0
   56.1410   29.6160   52.3720 C   0  0  0  0  0  0  0  0  0  0  0  0
   57.0520   30.7960   52.1620 C   0  0  0  0  0  0  0  0  0  0  0  0
   57.5040   31.5450   53.2600 C   0  0  0  0  0  0  0  0  0  0  0  0
   58.2990   32.6760   53.0590 C   0  0  0  0  0  0  0  0  0  0  0  0
   58.6460   33.0680   51.7650 C   0  0  0  0  0  0  0  0  0  0  0  0
   58.2130   32.3270   50.6590 C   0  0  0  0  0  0  0  0  0  0  0  0
   58.5640   32.7830   49.3440 N   0  0  0  0  0  0  0  0  0  0  0  0
   59.2590   32.0340   48.3400 C   0  0  0  0  0  0  0  0  0  0  0  0
   60.2450   31.3120   48.6500 O   0  0  0  0  0  0  0  0  0  0  0  0
   58.8450   32.1360   46.9240 C   0  0  0  0  0  0  0  0  0  0  0  0
   58.4970   30.9790   46.1870 C   0  0  0  0  0  0  0  0  0  0  0  0
   58.4660   29.3760   46.9180 Cl  0  0  0  0  0  0  0  0  0  0  0  0
   58.1100   31.0920   44.8480 C   0  0  0  0  0  0  0  0  0  0  0  0
   58.0640   32.3410   44.2280 C   0  0  0  0  0  0  0  0  0  0  0  0
   58.4030   33.4880   44.9440 C   0  0  0  0  0  0  0  0  0  0  0  0
   58.7930   33.3960   46.2850 C   0  0  0  0  0  0  0  0  0  0  0  0
   59.2630   34.8810   47.1100 Cl  0  0  0  0  0  0  0  0  0  0  0  0
   57.3940   31.2010   50.8620 C   0  0  0  0  0  0  0  0  0  0  0  0
   54.2540   30.1550   53.8390 C   0  0  0  0  0  0  0  0  0  0  0  0
   52.9360   30.5540   54.0490 C   0  0  0  0  0  0  0  0  0  0  0  0
   52.1250   30.8660   52.9580 C   0  0  0  0  0  0  0  0  0  0  0  0
   50.9340   31.2260   53.1660 O   0  0  0  0  0  0  0  0  0  0  0  0
   50.6460   32.7140   51.2510 H   0  0  0  0  0  0  0  0  0  0  0  0
   54.4035   30.2798   50.4785 H   0  0  0  0  0  0  0  0  0  0  0  0
   56.4714   29.0543   53.2582 H   0  0  0  0  0  0  0  0  0  0  0  0
   56.1791   28.9688   51.4833 H   0  0  0  0  0  0  0  0  0  0  0  0
   57.2315   31.2405   54.2813 H   0  0  0  0  0  0  0  0  0  0  0  0
   58.6523   33.2589   53.9223 H   0  0  0  0  0  0  0  0  0  0  0  0
   59.2639   33.9653   51.6133 H   0  0  0  0  0  0  0  0  0  0  0  0
   57.8400   30.1898   44.2795 H   0  0  0  0  0  0  0  0  0  0  0  0
   57.7601   32.4207   43.1738 H   0  0  0  0  0  0  0  0  0  0  0  0
   58.3638   34.4711   44.4522 H   0  0  0  0  0  0  0  0  0  0  0  0
   57.0194   30.6345   49.9967 H   0  0  0  0  0  0  0  0  0  0  0  0
   54.8911   29.9030   54.6996 H   0  0  0  0  0  0  0  0  0  0  0  0
   52.5363   30.6228   55.0715 H   0  0  0  0  0  0  0  0  0  0  0  0
  1  2  1  0
  2  3  2  0
  2  4  1  0
  4  5  2  0
  5  6  1  0
  6  7  1  0
  7  8  1  0
  8  9  2  0
  9 10  1  0
 10 11  2  0
 11 12  1  0
 12 13  1  0
 13 14  1  0
 14 15  2  0
 14 16  1  0
 16 17  2  0
 17 18  1  0
 17 19  1  0
 19 20  2  0
 20 21  1  0
 21 22  2  0
 22 23  1  0
 12 24  2  0
  6 25  1  0
 25 26  2  0
 26 27  1  0
 27 28  2  0
 27  4  1  0
 24  8  1  0
 22 16  1  0
  1 29  1  0
  5 30  1  0
  7 31  1  0
  7 32  1  0
  9 33  1  0
 10 34  1  0
 11 35  1  0
 19 36  1  0
 20 37  1  0
 21 38  1  0
 24 39  1  0
 25 40  1  0
 26 41  1  0
M  CHG  2   1  -1  13  -1
M  END
>  <UniqueID>  (2) 
2

>  <SMILES>  (2) 
[NH-]C(=O)c1cn(Cc2cccc([N-]C(=O)c3c(Cl)cccc3Cl)c2)ccc1=O

>  <Energy>  (2) 
56.55003004069731

>  <Genealogy>  (2) 
[NH-]C(=O)c1cn(Cc2cccc([N-]C(=O)c3c(Cl)cccc3Cl)c2)ccc1=O (protonated)
[NH-]C(=O)c1cn(Cc2cccc([N-]C(=O)c3c(Cl)cccc3Cl)c2)ccc1=O (3D coordinates assigned)
[NH-]C(=O)c1cn(Cc2cccc([N-]C(=O)c3c(Cl)cccc3Cl)c2)ccc1=O (optimized conformer: 56.55003004069731 kcal/mol)

>  <smiles>  (2) 
NC(=O)c1cn(Cc2cccc(NC(=O)c3c(Cl)cccc3Cl)c2)ccc1=O

>  <score_type>  (2) 
oracle

>  <origin>  (2) 
adg

>  <m_score__min__energy>  (2) 
-12.76

>  <m_primary>  (2) 
energy

$$$$
2:0
     RDKit          3D

 80 83  0  0  0  0  0  0  0  0999 V2000
   58.0780   27.0010   44.2270 C   0  0  0  0  0  0  0  0  0  0  0  0
   59.0540   28.1710   44.3100 C   0  0  0  0  0  0  0  0  0  0  0  0
   58.5440   29.2090   45.2190 N   0  0  0  0  0  0  0  0  0  0  0  0
   57.4020   30.0260   44.8840 C   0  0  0  0  0  0  0  0  0  0  0  0
   56.2530   29.6390   45.2190 O   0  0  0  0  0  0  0  0  0  0  0  0
   57.5560   31.3800   44.2470 C   0  0  0  0  0  0  0  0  0  0  0  0
   56.6210   32.3260   44.8510 N   0  0  0  0  0  0  0  0  0  0  0  0
   56.9760   33.5340   45.5320 C   0  0  0  0  0  0  0  0  0  0  0  0
   56.3590   34.5930   45.2390 O   0  0  0  0  0  0  0  0  0  0  0  0
   58.0620   33.5930   46.5320 C   0  0  0  0  0  0  0  0  0  0  0  0
   59.0830   34.5500   46.4380 C   0  0  0  0  0  0  0  0  0  0  0  0
   60.1260   34.5660   47.3660 C   0  0  0  0  0  0  0  0  0  0  0  0
   60.1710   33.6120   48.3940 C   0  0  0  0  0  0  0  0  0  0  0  0
   61.3010   33.6000   49.3460 C   0  0  0  0  0  0  0  0  0  0  0  0
   61.0220   33.7920   50.7090 C   0  0  0  0  0  0  0  0  0  0  0  0
   62.0550   33.8380   51.6450 C   0  0  0  0  0  0  0  0  0  0  0  0
   63.3790   33.7000   51.2300 C   0  0  0  0  0  0  0  0  0  0  0  0
   63.6750   33.4990   49.8800 C   0  0  0  0  0  0  0  0  0  0  0  0
   62.6470   33.4290   48.9250 C   0  0  0  0  0  0  0  0  0  0  0  0
   63.0670   33.0970   47.2320 S   0  0  0  0  0  0  0  0  0  0  0  0
   64.1020   31.7160   47.1020 N   0  0  0  0  0  0  0  0  0  0  0  0
   61.8220   32.8120   46.4420 O   0  0  0  0  0  0  0  0  0  0  0  0
   63.7690   34.2880   46.6480 O   0  0  0  0  0  0  0  0  0  0  0  0
   59.1780   32.6220   48.4600 C   0  0  0  0  0  0  0  0  0  0  0  0
   58.1320   32.6110   47.5340 C   0  0  0  0  0  0  0  0  0  0  0  0
   59.2070   29.4290   46.4760 C   0  0  0  0  0  0  0  0  0  0  0  0
   58.5540   29.1160   47.6750 C   0  0  0  0  0  0  0  0  0  0  0  0
   59.1710   29.3700   48.9020 C   0  0  0  0  0  0  0  0  0  0  0  0
   60.4530   29.9350   48.9460 C   0  0  0  0  0  0  0  0  0  0  0  0
   61.0230   30.2280   50.1940 O   0  0  0  0  0  0  0  0  0  0  0  0
   61.0840   29.3420   51.3270 C   0  0  0  0  0  0  0  0  0  0  0  0
   62.1700   29.8940   52.2620 C   0  0  0  0  0  0  0  0  0  0  0  0
   61.4910   27.9230   50.8910 C   0  0  0  0  0  0  0  0  0  0  0  0
   59.7560   29.3190   52.0710 C   0  0  0  0  0  0  0  0  0  0  0  0
   59.2350   28.2230   52.4070 O   0  0  0  0  0  0  0  0  0  0  0  0
   59.0350   30.5340   52.3290 N   0  0  0  0  0  0  0  0  0  0  0  0
   57.8640   30.8490   51.5000 C   0  0  0  0  0  0  0  0  0  0  0  0
   57.2660   32.2140   51.8670 C   0  0  0  0  0  0  0  0  0  0  0  0
   58.3900   33.2180   52.1560 C   0  0  0  0  0  0  0  0  0  0  0  0
   57.8450   34.4670   52.3960 F   0  0  0  0  0  0  0  0  0  0  0  0
   59.2440   32.7820   53.3650 C   0  0  0  0  0  0  0  0  0  0  0  0
   59.2580   31.2570   53.5880 C   0  0  0  0  0  0  0  0  0  0  0  0
   61.1000   30.2700   47.7440 C   0  0  0  0  0  0  0  0  0  0  0  0
   60.4840   30.0080   46.5160 C   0  0  0  0  0  0  0  0  0  0  0  0
   57.8073   26.6765   45.2426 H   0  0  0  0  0  0  0  0  0  0  0  0
   57.1719   27.3168   43.6893 H   0  0  0  0  0  0  0  0  0  0  0  0
   58.5512   26.1662   43.6893 H   0  0  0  0  0  0  0  0  0  0  0  0
   60.0226   27.8076   44.6838 H   0  0  0  0  0  0  0  0  0  0  0  0
   59.1715   28.6059   43.3065 H   0  0  0  0  0  0  0  0  0  0  0  0
   58.5850   31.7385   44.3976 H   0  0  0  0  0  0  0  0  0  0  0  0
   57.3427   31.2990   43.1709 H   0  0  0  0  0  0  0  0  0  0  0  0
   59.0619   35.2932   45.6274 H   0  0  0  0  0  0  0  0  0  0  0  0
   60.9149   35.3289   47.2910 H   0  0  0  0  0  0  0  0  0  0  0  0
   59.9797   33.9071   51.0412 H   0  0  0  0  0  0  0  0  0  0  0  0
   61.8252   33.9832   52.7109 H   0  0  0  0  0  0  0  0  0  0  0  0
   64.1930   33.7496   51.9683 H   0  0  0  0  0  0  0  0  0  0  0  0
   64.7227   33.3945   49.5615 H   0  0  0  0  0  0  0  0  0  0  0  0
   64.8460   31.9430   46.4060 H   0  0  0  0  0  0  0  0  0  0  0  0
   64.5660   31.5810   48.0280 H   0  0  0  0  0  0  0  0  0  0  0  0
   59.2237   31.8518   49.2440 H   0  0  0  0  0  0  0  0  0  0  0  0
   57.3596   31.8297   47.5898 H   0  0  0  0  0  0  0  0  0  0  0  0
   57.5498   28.6677   47.6501 H   0  0  0  0  0  0  0  0  0  0  0  0
   58.6483   29.1254   49.8385 H   0  0  0  0  0  0  0  0  0  0  0  0
   61.8664   29.7397   53.3080 H   0  0  0  0  0  0  0  0  0  0  0  0
   63.1177   29.3682   52.0739 H   0  0  0  0  0  0  0  0  0  0  0  0
   62.3038   30.9695   52.0739 H   0  0  0  0  0  0  0  0  0  0  0  0
   61.6689   27.3026   51.7818 H   0  0  0  0  0  0  0  0  0  0  0  0
   60.6841   27.4785   50.2898 H   0  0  0  0  0  0  0  0  0  0  0  0
   62.4108   27.9738   50.2898 H   0  0  0  0  0  0  0  0  0  0  0  0
   58.1681   30.8645   50.4430 H   0  0  0  0  0  0  0  0  0  0  0  0
   57.0990   30.0784   51.6761 H   0  0  0  0  0  0  0  0  0  0  0  0
   56.6556   32.5816   51.0290 H   0  0  0  0  0  0  0  0  0  0  0  0
   56.6396   32.1046   52.7646 H   0  0  0  0  0  0  0  0  0  0  0  0
   59.0469   33.2572   51.2746 H   0  0  0  0  0  0  0  0  0  0  0  0
   60.2780   33.1197   53.2011 H   0  0  0  0  0  0  0  0  0  0  0  0
   58.7944   33.2364   54.2602 H   0  0  0  0  0  0  0  0  0  0  0  0
   60.2340   30.9639   54.0021 H   0  0  0  0  0  0  0  0  0  0  0  0
   58.4475   30.9996   54.2858 H   0  0  0  0  0  0  0  0  0  0  0  0
   62.0943   30.7399   47.7692 H   0  0  0  0  0  0  0  0  0  0  0  0
   61.0027   30.2568   45.5784 H   0  0  0  0  0  0  0  0  0  0  0  0
  1  2  1  0
  2  3  1  0
  3  4  1  0
  4  5  2  0
  4  6  1  0
  6  7  1  0
  7  8  1  0
  8  9  2  0
  8 10  1  0
 10 11  2  0
 11 12  1  0
 12 13  2  0
 13 14  1  0
 14 15  2  0
 15 16  1  0
 16 17  2  0
 17 18  1  0
 18 19  2  0
 19 20  1  0
 20 21  1  0
 20 22  2  0
 20 23  2  0
 13 24  1  0
 24 25  2  0
  3 26  1  0
 26 27  2  0
 27 28  1  0
 28 29  2  0
 29 30  1  0
 30 31  1  0
 31 32  1  0
 31 33  1  0
 31 34  1  0
 34 35  2  0
 34 36  1  0
 36 37  1  0
 37 38  1  0
 38 39  1  0
 39 40  1  0
 39 41  1  0
 41 42  1  0
 29 43  1  0
 43 44  2  0
 25 10  1  0
 44 26  1  0
 19 14  1  0
 42 36  1  0
  1 45  1  0
  1 46  1  0
  1 47  1  0
  2 48  1  0
  2 49  1  0
  6 50  1  0
  6 51  1  0
 11 52  1  0
 12 53  1  0
 15 54  1  0
 16 55  1  0
 17 56  1  0
 18 57  1  0
 21 58  1  0
 21 59  1  0
 24 60  1  0
 25 61  1  0
 27 62  1  0
 28 63  1  0
 32 64  1  0
 32 65  1  0
 32 66  1  0
 33 67  1  0
 33 68  1  0
 33 69  1  0
 37 70  1  0
 37 71  1  0
 38 72  1  0
 38 73  1  0
 39 74  1  0
 41 75  1  0
 41 76  1  0
 42 77  1  0
 42 78  1  0
 43 79  1  0
 44 80  1  0
M  CHG  1   7  -1
M  END
>  <UniqueID>  (3) 
3

>  <SMILES>  (3) 
CCN(C(=O)C[N-]C(=O)c1ccc(-c2ccccc2S(N)(=O)=O)cc1)c1ccc(OC(C)(C)C(=O)N2CCC(F)CC2)cc1

>  <Energy>  (3) 
111.00169383427178

>  <Genealogy>  (3) 
CCN(C(=O)C[N-]C(=O)c1ccc(-c2ccccc2S(N)(=O)=O)cc1)c1ccc(OC(C)(C)C(=O)N2CCC(F)CC2)cc1 (protonated)
CCN(C(=O)C[N-]C(=O)c1ccc(-c2ccccc2S(N)(=O)=O)cc1)c1ccc(OC(C)(C)C(=O)N2CCC(F)CC2)cc1 (3D coordinates assigned)
CCN(C(=O)C[N-]C(=O)c1ccc(-c2ccccc2S(N)(=O)=O)cc1)c1ccc(OC(C)(C)C(=O)N2CCC(F)CC2)cc1 (nonaromatic ring conformer: 111.00169383427178 kcal/mol)

>  <smiles>  (3) 
CCN(C(=O)CNC(=O)c1ccc(-c2ccccc2S(N)(=O)=O)cc1)c1ccc(OC(C)(C)C(=O)N2CCC(F)CC2)cc1

>  <score_type>  (3) 
oracle

>  <origin>  (3) 
adg

>  <m_score__min__energy>  (3) 
-11.44

>  <m_primary>  (3) 
energy

$$$$
3:0
     RDKit          3D

 48 51  0  0  0  0  0  0  0  0999 V2000
   60.8770   30.8830   51.9090 C   0  0  0  0  0  0  0  0  0  0  0  0
   59.9440   32.0230   52.0050 N   0  0  0  0  0  0  0  0  0  0  0  0
   60.5090   33.2440   51.3510 C   0  0  0  0  0  0  0  0  0  0  0  0
   59.6590   33.7830   50.1910 C   0  0  0  0  0  0  0  0  0  0  0  0
   59.2010   32.6730   49.3510 N   0  0  0  0  0  0  0  0  0  0  0  0
   59.2870   32.7400   47.9130 C   0  0  0  0  0  0  0  0  0  0  0  0
   58.3210   32.2140   47.2080 N   0  0  0  0  0  0  0  0  0  0  0  0
   58.1900   32.1400   45.7790 C   0  0  0  0  0  0  0  0  0  0  0  0
   57.5510   31.0210   45.2300 C   0  0  0  0  0  0  0  0  0  0  0  0
   57.3670   30.9150   43.8490 C   0  0  0  0  0  0  0  0  0  0  0  0
   57.8030   31.9370   43.0050 C   0  0  0  0  0  0  0  0  0  0  0  0
   58.4140   33.0730   43.5410 C   0  0  0  0  0  0  0  0  0  0  0  0
   58.6020   33.1910   44.9300 C   0  0  0  0  0  0  0  0  0  0  0  0
   59.2200   34.4330   45.5020 C   0  0  0  0  0  0  0  0  0  0  0  0
   60.4940   34.0740   46.2010 C   0  0  0  0  0  0  0  0  0  0  0  0
   60.5310   33.2810   47.2840 C   0  0  0  0  0  0  0  0  0  0  0  0
   61.8400   32.9410   47.9000 C   0  0  0  0  0  0  0  0  0  0  0  0
   61.9740   31.7670   48.6620 C   0  0  0  0  0  0  0  0  0  0  0  0
   63.1920   31.4550   49.2740 C   0  0  0  0  0  0  0  0  0  0  0  0
   64.2860   32.3110   49.1340 C   0  0  0  0  0  0  0  0  0  0  0  0
   64.1660   33.4800   48.3780 C   0  0  0  0  0  0  0  0  0  0  0  0
   62.9510   33.7960   47.7640 C   0  0  0  0  0  0  0  0  0  0  0  0
   58.5280   31.5370   49.9900 C   0  0  0  0  0  0  0  0  0  0  0  0
   58.5930   31.6460   51.5230 C   0  0  0  0  0  0  0  0  0  0  0  0
   61.1514   30.5477   52.9201 H   0  0  0  0  0  0  0  0  0  0  0  0
   60.3923   30.0571   51.3677 H   0  0  0  0  0  0  0  0  0  0  0  0
   61.7824   31.1948   51.3677 H   0  0  0  0  0  0  0  0  0  0  0  0
   59.8450   32.2300   53.0280 H   0  0  0  0  0  0  0  0  0  0  0  0
   60.5968   34.0341   52.1113 H   0  0  0  0  0  0  0  0  0  0  0  0
   61.4811   32.9551   50.9250 H   0  0  0  0  0  0  0  0  0  0  0  0
   58.7873   34.3182   50.5955 H   0  0  0  0  0  0  0  0  0  0  0  0
   60.2678   34.4694   49.5842 H   0  0  0  0  0  0  0  0  0  0  0  0
   57.1911   30.2191   45.8914 H   0  0  0  0  0  0  0  0  0  0  0  0
   56.8779   30.0248   43.4267 H   0  0  0  0  0  0  0  0  0  0  0  0
   57.6655   31.8481   41.9173 H   0  0  0  0  0  0  0  0  0  0  0  0
   58.7500   33.8799   42.8731 H   0  0  0  0  0  0  0  0  0  0  0  0
   59.4337   35.1444   44.6907 H   0  0  0  0  0  0  0  0  0  0  0  0
   58.5242   34.8951   46.2178 H   0  0  0  0  0  0  0  0  0  0  0  0
   61.4403   34.4770   45.8109 H   0  0  0  0  0  0  0  0  0  0  0  0
   61.1151   31.0895   48.7775 H   0  0  0  0  0  0  0  0  0  0  0  0
   63.2883   30.5334   49.8668 H   0  0  0  0  0  0  0  0  0  0  0  0
   65.2423   32.0652   49.6188 H   0  0  0  0  0  0  0  0  0  0  0  0
   65.0292   34.1526   48.2660 H   0  0  0  0  0  0  0  0  0  0  0  0
   62.8618   34.7181   47.1709 H   0  0  0  0  0  0  0  0  0  0  0  0
   57.4741   31.5204   49.6753 H   0  0  0  0  0  0  0  0  0  0  0  0
   59.0375   30.6115   49.6835 H   0  0  0  0  0  0  0  0  0  0  0  0
   57.8738   32.4097   51.8539 H   0  0  0  0  0  0  0  0  0  0  0  0
   58.3510   30.6575   51.9406 H   0  0  0  0  0  0  0  0  0  0  0  0
  1  2  1  0
  2  3  1  0
  3  4  1  0
  4  5  1  0
  5  6  1  0
  6  7  2  0
  7  8  1  0
  8  9  2  0
  9 10  1  0
 10 11  2  0
 11 12  1  0
 12 13  2  0
 13 14  1  0
 14 15  1  0
 15 16  2  0
 16 17  1  0
 17 18  2  0
 18 19  1  0
 19 20  2  0
 20 21  1  0
 21 22  2  0
  5 23  1  0
 23 24  1  0
 24  2  1  0
 16  6  1  0
 22 17  1  0
 13  8  1  0
  1 25  1  0
  1 26  1  0
  1 27  1  0
  2 28  1  0
  3 29  1  0
  3 30  1  0
  4 31  1  0
  4 32  1  0
  9 33  1  0
 10 34  1  0
 11 35  1  0
 12 36  1  0
 14 37  1  0
 14 38  1  0
 15 39  1  0
 18 40  1  0
 19 41  1  0
 20 42  1  0
 21 43  1  0
 22 44  1  0
 23 45  1  0
 23 46  1  0
 24 47  1  0
 24 48  1  0
M  CHG  1   2   1
M  END
>  <UniqueID>  (4) 
4

>  <SMILES>  (4) 
C[NH+]1CCN(C2=Nc3ccccc3CC=C2c2ccccc2)CC1

>  <Energy>  (4) 
74.3317225547306

>  <Genealogy>  (4) 
C[NH+]1CCN(C2=Nc3ccccc3CC=C2c2ccccc2)CC1 (protonated)
C[NH+]1CCN(C2=Nc3ccccc3CC=C2c2ccccc2)CC1 (3D coordinates assigned)
C[NH+]1CCN(C2=Nc3ccccc3CC=C2c2ccccc2)CC1 (nonaromatic ring conformer: 74.3317225547306 kcal/mol)

>  <smiles>  (4) 
CN1CCN(C2=Nc3ccccc3CC=C2c2ccccc2)CC1

>  <score_type>  (4) 
oracle

>  <origin>  (4) 
adg

>  <m_score__min__energy>  (4) 
-5.2800000000000002

>  <m_primary>  (4) 
energy

$$$$
4:0
     RDKit          3D

 48 51  0  0  0  0  0  0  0  0999 V2000
   66.4690   32.9370   49.7340 N   0  0  0  0  0  0  0  0  0  0  0  0
   64.9440   32.6910   50.5070 S   0  0  0  0  0  0  0  0  0  0  0  0
   64.7380   33.7430   51.5600 O   0  0  0  0  0  0  0  0  0  0  0  0
   64.9250   31.3390   51.1640 O   0  0  0  0  0  0  0  0  0  0  0  0
   63.6590   32.7880   49.3070 C   0  0  0  0  0  0  0  0  0  0  0  0
   63.8140   32.1730   48.0580 C   0  0  0  0  0  0  0  0  0  0  0  0
   62.7930   32.2480   47.1080 C   0  0  0  0  0  0  0  0  0  0  0  0
   61.6100   32.9320   47.4000 C   0  0  0  0  0  0  0  0  0  0  0  0
   61.4380   33.5400   48.6520 C   0  0  0  0  0  0  0  0  0  0  0  0
   60.1820   34.3080   48.9670 C   0  0  0  0  0  0  0  0  0  0  0  0
   59.2470   34.2270   47.8340 N   0  0  0  0  0  0  0  0  0  0  0  0
   59.1080   35.3640   46.9250 C   0  0  0  0  0  0  0  0  0  0  0  0
   59.7390   35.0250   45.5800 C   0  0  0  0  0  0  0  0  0  0  0  0
   58.8850   34.1680   44.8360 O   0  0  0  0  0  0  0  0  0  0  0  0
   58.6120   32.8140   45.0980 C   0  0  0  0  0  0  0  0  0  0  0  0
   58.5310   31.9800   43.9770 C   0  0  0  0  0  0  0  0  0  0  0  0
   58.2640   30.6190   44.1070 C   0  0  0  0  0  0  0  0  0  0  0  0
   58.0670   30.0530   45.3720 C   0  0  0  0  0  0  0  0  0  0  0  0
   57.7830   28.6020   45.5130 C   0  0  0  0  0  0  0  0  0  0  0  0
   58.8350   27.6660   45.5280 C   0  0  0  0  0  0  0  0  0  0  0  0
   58.5670   26.3000   45.6630 C   0  0  0  0  0  0  0  0  0  0  0  0
   57.2490   25.8520   45.7840 C   0  0  0  0  0  0  0  0  0  0  0  0
   56.9900   24.4940   45.9180 O   0  0  0  0  0  0  0  0  0  0  0  0
   56.1950   26.7730   45.7690 C   0  0  0  0  0  0  0  0  0  0  0  0
   54.8810   26.3310   45.8860 O   0  0  0  0  0  0  0  0  0  0  0  0
   56.4590   28.1400   45.6360 C   0  0  0  0  0  0  0  0  0  0  0  0
   58.1420   30.8800   46.5040 C   0  0  0  0  0  0  0  0  0  0  0  0
   58.4190   32.2580   46.3950 C   0  0  0  0  0  0  0  0  0  0  0  0
   58.4450   33.0380   47.6620 C   0  0  0  0  0  0  0  0  0  0  0  0
   57.7830   32.5990   48.6420 O   0  0  0  0  0  0  0  0  0  0  0  0
   62.4680   33.4650   49.6040 C   0  0  0  0  0  0  0  0  0  0  0  0
   66.2730   33.1220   48.7240 H   0  0  0  0  0  0  0  0  0  0  0  0
   64.7418   31.6299   47.8250 H   0  0  0  0  0  0  0  0  0  0  0  0
   62.9205   31.7672   46.1269 H   0  0  0  0  0  0  0  0  0  0  0  0
   60.8116   32.9937   46.6459 H   0  0  0  0  0  0  0  0  0  0  0  0
   59.7077   33.8798   49.8624 H   0  0  0  0  0  0  0  0  0  0  0  0
   60.4386   35.3619   49.1496 H   0  0  0  0  0  0  0  0  0  0  0  0
   58.0410   35.5897   46.7820 H   0  0  0  0  0  0  0  0  0  0  0  0
   59.6158   36.2396   47.3558 H   0  0  0  0  0  0  0  0  0  0  0  0
   59.9050   35.9529   45.0131 H   0  0  0  0  0  0  0  0  0  0  0  0
   60.6967   34.5125   45.7535 H   0  0  0  0  0  0  0  0  0  0  0  0
   58.6810   32.4072   42.9745 H   0  0  0  0  0  0  0  0  0  0  0  0
   58.2076   29.9850   43.2098 H   0  0  0  0  0  0  0  0  0  0  0  0
   59.8749   28.0117   45.4329 H   0  0  0  0  0  0  0  0  0  0  0  0
   59.3957   25.5767   45.6739 H   0  0  0  0  0  0  0  0  0  0  0  0
   55.6265   28.8589   45.6275 H   0  0  0  0  0  0  0  0  0  0  0  0
   57.9807   30.4422   47.5001 H   0  0  0  0  0  0  0  0  0  0  0  0
   62.3394   33.9400   50.5878 H   0  0  0  0  0  0  0  0  0  0  0  0
  1  2  1  0
  2  3  2  0
  2  4  2  0
  2  5  1  0
  5  6  2  0
  6  7  1  0
  7  8  2  0
  8  9  1  0
  9 10  1  0
 10 11  1  0
 11 12  1  0
 12 13  1  0
 13 14  1  0
 14 15  1  0
 15 16  2  0
 16 17  1  0
 17 18  2  0
 18 19  1  0
 19 20  2  0
 20 21  1  0
 21 22  2  0
 22 23  1  0
 22 24  1  0
 24 25  1  0
 24 26  2  0
 18 27  1  0
 27 28  2  0
 28 29  1  0
 29 30  2  0
  9 31  2  0
 31  5  1  0
 29 11  1  0
 28 15  1  0
 26 19  1  0
  1 32  1  0
  6 33  1  0
  7 34  1  0
  8 35  1  0
 10 36  1  0
 10 37  1  0
 12 38  1  0
 12 39  1  0
 13 40  1  0
 13 41  1  0
 16 42  1  0
 17 43  1  0
 20 44  1  0
 21 45  1  0
 26 46  1  0
 27 47  1  0
 31 48  1  0
M  CHG  3   1  -1  23  -1  25  -1
M  END
>  <UniqueID>  (5) 
5

>  <SMILES>  (5) 
[NH-]S(=O)(=O)c1cccc(CN2CCOc3ccc(-c4ccc([O-])c([O-])c4)cc3C2=O)c1

>  <Energy>  (5) 
66.86617479974225

>  <Genealogy>  (5) 
[NH-]S(=O)(=O)c1cccc(CN2CCOc3ccc(-c4ccc([O-])c([O-])c4)cc3C2=O)c1 (protonated)
[NH-]S(=O)(=O)c1cccc(CN2CCOc3ccc(-c4ccc([O-])c([O-])c4)cc3C2=O)c1 (3D coordinates assigned)
[NH-]S(=O)(=O)c1cccc(CN2CCOc3ccc(-c4ccc([O-])c([O-])c4)cc3C2=O)c1 (nonaromatic ring conformer: 66.86617479974225 kcal/mol)

>  <smiles>  (5) 
NS(=O)(=O)c1cccc(CN2CCOc3ccc(-c4ccc(O)c(O)c4)cc3C2=O)c1

>  <score_type>  (5) 
oracle

>  <origin>  (5) 
adg

>  <m_score__min__energy>  (5) 
-14.93

>  <m_primary>  (5) 
energy

$$$$
5:0
     RDKit          3D

 52 54  0  0  0  0  0  0  0  0999 V2000
   54.7670   27.0960   46.6610 H   0  0  0  0  0  0  0  0  0  0  0  0
   54.7440   26.2950   45.9920 N   0  0  0  0  0  0  0  0  0  0  0  0
   56.1580   25.3420   46.2820 S   0  0  0  0  0  0  0  0  0  0  0  0
   55.9730   24.5860   47.5690 O   0  0  0  0  0  0  0  0  0  0  0  0
   56.3480   24.3610   45.1610 O   0  0  0  0  0  0  0  0  0  0  0  0
   57.5700   26.3950   46.3920 C   0  0  0  0  0  0  0  0  0  0  0  0
   58.4660   26.2740   47.4630 C   0  0  0  0  0  0  0  0  0  0  0  0
   58.3049   25.5009   48.2287 H   0  0  0  0  0  0  0  0  0  0  0  0
   59.5630   27.1330   47.5600 C   0  0  0  0  0  0  0  0  0  0  0  0
   60.2595   27.0400   48.4063 H   0  0  0  0  0  0  0  0  0  0  0  0
   59.7780   28.1100   46.5850 C   0  0  0  0  0  0  0  0  0  0  0  0
   60.6323   28.7967   46.6783 H   0  0  0  0  0  0  0  0  0  0  0  0
   58.9100   28.2210   45.4860 C   0  0  0  0  0  0  0  0  0  0  0  0
   59.1660   29.2810   44.4850 C   0  0  0  0  0  0  0  0  0  0  0  0
   60.1184   29.2299   43.9369 H   0  0  0  0  0  0  0  0  0  0  0  0
   58.3450   30.2980   44.1840 C   0  0  0  0  0  0  0  0  0  0  0  0
   57.9710   30.3508   43.1509 H   0  0  0  0  0  0  0  0  0  0  0  0
   57.8970   31.3560   45.1180 C   0  0  0  0  0  0  0  0  0  0  0  0
   56.6590   31.5660   45.2160 O   0  0  0  0  0  0  0  0  0  0  0  0
   58.8100   32.1110   45.9410 N   0  0  0  0  0  0  0  0  0  0  0  0
   58.4120   33.4580   46.3790 C   0  0  0  0  0  0  0  0  0  0  0  0
   58.2059   34.0765   45.4930 H   0  0  0  0  0  0  0  0  0  0  0  0
   57.5141   33.3673   47.0079 H   0  0  0  0  0  0  0  0  0  0  0  0
   59.5120   34.1210   47.2030 C   0  0  0  0  0  0  0  0  0  0  0  0
   60.3610   34.3706   46.5497 H   0  0  0  0  0  0  0  0  0  0  0  0
   59.1242   35.0416   47.6635 H   0  0  0  0  0  0  0  0  0  0  0  0
   59.9570   33.1920   48.2550 N   0  0  0  0  0  0  0  0  0  0  0  0
   59.9040   33.5840   49.6480 C   0  0  0  0  0  0  0  0  0  0  0  0
   59.2860   34.6350   49.9670 O   0  0  0  0  0  0  0  0  0  0  0  0
   60.5490   32.7550   50.7040 C   0  0  0  0  0  0  0  0  0  0  0  0
   61.4571   33.1614   51.1732 H   0  0  0  0  0  0  0  0  0  0  0  0
   60.1230   31.5560   51.1360 C   0  0  0  0  0  0  0  0  0  0  0  0
   60.8500   30.7305   51.1350 H   0  0  0  0  0  0  0  0  0  0  0  0
   58.7600   31.2580   51.6110 C   0  0  0  0  0  0  0  0  0  0  0  0
   58.4060   29.9310   51.8990 C   0  0  0  0  0  0  0  0  0  0  0  0
   59.1328   29.1217   51.7352 H   0  0  0  0  0  0  0  0  0  0  0  0
   57.1310   29.6340   52.3940 C   0  0  0  0  0  0  0  0  0  0  0  0
   56.8517   28.5905   52.6017 H   0  0  0  0  0  0  0  0  0  0  0  0
   56.2110   30.6630   52.6250 C   0  0  0  0  0  0  0  0  0  0  0  0
   55.2107   30.4284   53.0178 H   0  0  0  0  0  0  0  0  0  0  0  0
   56.5640   31.9920   52.3560 C   0  0  0  0  0  0  0  0  0  0  0  0
   55.8387   32.8002   52.5314 H   0  0  0  0  0  0  0  0  0  0  0  0
   57.8400   32.2910   51.8640 C   0  0  0  0  0  0  0  0  0  0  0  0
   58.1238   33.3368   51.6748 H   0  0  0  0  0  0  0  0  0  0  0  0
   60.3210   31.8140   47.8770 C   0  0  0  0  0  0  0  0  0  0  0  0
   61.3831   31.6504   48.1120 H   0  0  0  0  0  0  0  0  0  0  0  0
   59.6766   31.1256   48.4435 H   0  0  0  0  0  0  0  0  0  0  0  0
   60.0980   31.5480   46.3810 C   0  0  0  0  0  0  0  0  0  0  0  0
   60.9116   32.0139   45.8057 H   0  0  0  0  0  0  0  0  0  0  0  0
   60.0864   30.4612   46.2118 H   0  0  0  0  0  0  0  0  0  0  0  0
   57.7900   27.3700   45.4070 C   0  0  0  0  0  0  0  0  0  0  0  0
   57.0845   27.4703   44.5690 H   0  0  0  0  0  0  0  0  0  0  0  0
  1  2  1  0
  2  3  1  0
  3  4  2  0
  3  5  2  0
  3  6  1  0
  6  7  2  0
  7  8  1  0
  7  9  1  0
  9 10  1  0
  9 11  2  0
 11 12  1  0
 11 13  1  0
 13 14  1  0
 14 15  1  0
 14 16  2  3
 16 17  1  0
 16 18  1  0
 18 19  2  0
 18 20  1  0
 20 21  1  0
 21 22  1  0
 21 23  1  0
 21 24  1  0
 24 25  1  0
 24 26  1  0
 24 27  1  0
 27 28  1  0
 28 29  2  0
 28 30  1  0
 30 31  1  0
 30 32  2  0
 32 33  1  0
 32 34  1  0
 34 35  2  0
 35 36  1  0
 35 37  1  0
 37 38  1  0
 37 39  2  0
 39 40  1  0
 39 41  1  0
 41 42  1  0
 41 43  2  0
 43 44  1  0
 27 45  1  0
 45 46  1  0
 45 47  1  0
 45 48  1  0
 48 49  1  0
 48 50  1  0
 13 51  2  0
 51 52  1  0
 51  6  1  0
 48 20  1  0
 43 34  1  0
M  CHG  1   2  -1
M  END
>  <UniqueID>  (6) 
6

>  <SMILES>  (6) 
[NH-]S(=O)(=O)c1cccc(C=CC(=O)N2CCN(C(=O)/C=C\c3ccccc3)CC2)c1

>  <Energy>  (6) 
72.32405123457448

>  <Genealogy>  (6) 
[NH-]S(=O)(=O)c1cccc(C=CC(=O)N2CCN(C(=O)C=Cc3ccccc3)CC2)c1 (protonated)
[NH-]S(=O)(=O)c1cccc(C=CC(=O)N2CCN(C(=O)/C=C\c3ccccc3)CC2)c1 (cis-trans isomerization)
[NH-]S(=O)(=O)c1cccc(C=CC(=O)N2CCN(C(=O)/C=C\c3ccccc3)CC2)c1 (3D coordinates assigned)
[NH-]S(=O)(=O)c1cccc(C=CC(=O)N2CCN(C(=O)/C=C\c3ccccc3)CC2)c1 (nonaromatic ring conformer: 72.32405123457448 kcal/mol)

>  <smiles>  (6) 
NS(=O)(=O)c1cccc(C=CC(=O)N2CCN(C(=O)C=Cc3ccccc3)CC2)c1

>  <score_type>  (6) 
oracle

>  <origin>  (6) 
adg

>  <m_score__min__energy>  (6) 
-12.41

>  <m_primary>  (6) 
energy

$$$$
6:0
     RDKit          3D

 42 43  0  0  0  0  0  0  0  0999 V2000
   61.5430   29.9420   50.2810 C   0  0  0  0  0  0  0  0  0  0  0  0
   62.1520   31.0130   49.3980 C   0  0  0  0  0  0  0  0  0  0  0  0
   61.4640   31.4250   48.2410 C   0  0  0  0  0  0  0  0  0  0  0  0
   60.2520   30.7680   47.8270 N   0  0  0  0  0  0  0  0  0  0  0  0
   60.2170   29.8340   46.7350 C   0  0  0  0  0  0  0  0  0  0  0  0
   61.2210   29.7240   45.9780 O   0  0  0  0  0  0  0  0  0  0  0  0
   59.0060   29.0240   46.4620 C   0  0  0  0  0  0  0  0  0  0  0  0
   58.0290   29.4610   45.5500 C   0  0  0  0  0  0  0  0  0  0  0  0
   56.8920   28.6880   45.3040 C   0  0  0  0  0  0  0  0  0  0  0  0
   56.7010   27.4690   45.9660 C   0  0  0  0  0  0  0  0  0  0  0  0
   55.5170   26.7120   45.6790 N   0  0  0  0  0  0  0  0  0  0  0  0
   55.3700   24.9860   45.7700 S   0  0  0  0  0  0  0  0  0  0  0  0
   56.3340   24.2200   44.4860 C   0  0  0  0  0  0  0  0  0  0  0  0
   55.8900   24.5270   47.1020 O   0  0  0  0  0  0  0  0  0  0  0  0
   53.9260   24.5860   45.6520 O   0  0  0  0  0  0  0  0  0  0  0  0
   57.6700   27.0320   46.8850 C   0  0  0  0  0  0  0  0  0  0  0  0
   58.8080   27.8040   47.1340 C   0  0  0  0  0  0  0  0  0  0  0  0
   62.0120   32.4500   47.4620 C   0  0  0  0  0  0  0  0  0  0  0  0
   61.4370   32.7870   46.3890 O   0  0  0  0  0  0  0  0  0  0  0  0
   63.1680   33.0690   47.8480 N   0  0  0  0  0  0  0  0  0  0  0  0
   63.7240   34.1640   47.0320 C   0  0  0  0  0  0  0  0  0  0  0  0
   63.8600   32.6120   48.9400 C   0  0  0  0  0  0  0  0  0  0  0  0
   64.9560   33.1590   49.2540 O   0  0  0  0  0  0  0  0  0  0  0  0
   63.3780   31.5650   49.6910 N   0  0  0  0  0  0  0  0  0  0  0  0
   64.1630   31.0740   50.8410 C   0  0  0  0  0  0  0  0  0  0  0  0
   61.6943   30.2081   51.3375 H   0  0  0  0  0  0  0  0  0  0  0  0
   60.4656   29.8643   50.0731 H   0  0  0  0  0  0  0  0  0  0  0  0
   62.0271   28.9764   50.0731 H   0  0  0  0  0  0  0  0  0  0  0  0
   59.3510   31.0960   48.2400 H   0  0  0  0  0  0  0  0  0  0  0  0
   58.1612   30.4192   45.0262 H   0  0  0  0  0  0  0  0  0  0  0  0
   56.1393   29.0402   44.5833 H   0  0  0  0  0  0  0  0  0  0  0  0
   57.1187   23.5964   44.9392 H   0  0  0  0  0  0  0  0  0  0  0  0
   55.6809   23.5918   43.8624 H   0  0  0  0  0  0  0  0  0  0  0  0
   56.7984   24.9981   43.8624 H   0  0  0  0  0  0  0  0  0  0  0  0
   57.5320   26.0762   47.4117 H   0  0  0  0  0  0  0  0  0  0  0  0
   59.5553   27.4547   47.8617 H   0  0  0  0  0  0  0  0  0  0  0  0
   64.1221   34.9481   47.6929 H   0  0  0  0  0  0  0  0  0  0  0  0
   64.5332   33.7738   46.3972 H   0  0  0  0  0  0  0  0  0  0  0  0
   62.9315   34.5871   46.3972 H   0  0  0  0  0  0  0  0  0  0  0  0
   63.6731   31.3804   51.7770 H   0  0  0  0  0  0  0  0  0  0  0  0
   64.2241   29.9764   50.8014 H   0  0  0  0  0  0  0  0  0  0  0  0
   65.1767   31.4993   50.8014 H   0  0  0  0  0  0  0  0  0  0  0  0
  1  2  1  0
  2  3  2  0
  3  4  1  0
  4  5  1  0
  5  6  2  0
  5  7  1  0
  7  8  2  0
  8  9  1  0
  9 10  2  0
 10 11  1  0
 11 12  1  0
 12 13  1  0
 12 14  2  0
 12 15  2  0
 10 16  1  0
 16 17  2  0
  3 18  1  0
 18 19  2  0
 18 20  1  0
 20 21  1  0
 20 22  1  0
 22 23  2  0
 22 24  1  0
 24 25  1  0
 24  2  1  0
 17  7  1  0
  1 26  1  0
  1 27  1  0
  1 28  1  0
  4 29  1  0
  8 30  1  0
  9 31  1  0
 13 32  1  0
 13 33  1  0
 13 34  1  0
 16 35  1  0
 17 36  1  0
 21 37  1  0
 21 38  1  0
 21 39  1  0
 25 40  1  0
 25 41  1  0
 25 42  1  0
M  CHG  1  11  -1
M  END
>  <UniqueID>  (7) 
7

>  <SMILES>  (7) 
Cc1c(NC(=O)c2ccc([N-]S(C)(=O)=O)cc2)c(=O)n(C)c(=O)n1C

>  <Energy>  (7) 
59.01240214478652

>  <Genealogy>  (7) 
Cc1c(NC(=O)c2ccc([N-]S(C)(=O)=O)cc2)c(=O)n(C)c(=O)n1C (protonated)
Cc1c(NC(=O)c2ccc([N-]S(C)(=O)=O)cc2)c(=O)n(C)c(=O)n1C (3D coordinates assigned)
Cc1c(NC(=O)c2ccc([N-]S(C)(=O)=O)cc2)c(=O)n(C)c(=O)n1C (optimized conformer: 59.01240214478652 kcal/mol)

>  <smiles>  (7) 
Cc1c(NC(=O)c2ccc(NS(C)(=O)=O)cc2)c(=O)n(C)c(=O)n1C

>  <score_type>  (7) 
oracle

>  <origin>  (7) 
adg

>  <m_score__min__energy>  (7) 
-8.5800000000000001

>  <m_primary>  (7) 
energy

$$$$
7:0
     RDKit          3D

 54 58  0  0  0  0  0  0  0  0999 V2000
   60.5290   27.3290   47.9450 C   0  0  0  0  0  0  0  0  0  0  0  0
   60.1340   27.9380   46.8240 C   0  0  0  0  0  0  0  0  0  0  0  0
   60.9880   28.5490   46.0330 O   0  0  0  0  0  0  0  0  0  0  0  0
   60.3620   28.9630   44.9560 C   0  0  0  0  0  0  0  0  0  0  0  0
   59.0310   28.6000   45.0230 C   0  0  0  0  0  0  0  0  0  0  0  0
   57.9730   29.0080   44.0360 C   0  0  0  0  0  0  0  0  0  0  0  0
   57.0170   29.9730   44.6830 C   0  0  0  0  0  0  0  0  0  0  0  0
   55.7790   29.8500   44.4660 O   0  0  0  0  0  0  0  0  0  0  0  0
   57.4920   31.0780   45.4720 N   0  0  0  0  0  0  0  0  0  0  0  0
   56.9510   32.4180   45.2110 C   0  0  0  0  0  0  0  0  0  0  0  0
   57.6550   33.4820   46.0610 C   0  0  0  0  0  0  0  0  0  0  0  0
   59.1050   33.2350   46.0710 N   0  0  0  0  0  0  0  0  0  0  0  0
   60.0160   34.2400   45.5840 C   0  0  0  0  0  0  0  0  0  0  0  0
   59.6470   35.0320   44.6730 O   0  0  0  0  0  0  0  0  0  0  0  0
   61.3620   34.3270   46.0710 N   0  0  0  0  0  0  0  0  0  0  0  0
   61.8080   33.8640   47.3540 C   0  0  0  0  0  0  0  0  0  0  0  0
   63.0410   33.1730   47.4430 C   0  0  0  0  0  0  0  0  0  0  0  0
   63.5180   32.7170   48.6880 C   0  0  0  0  0  0  0  0  0  0  0  0
   62.7490   32.9840   49.8180 C   0  0  0  0  0  0  0  0  0  0  0  0
   61.5770   33.6630   49.7420 C   0  0  0  0  0  0  0  0  0  0  0  0
   61.0690   34.1310   48.5310 C   0  0  0  0  0  0  0  0  0  0  0  0
   61.0370   33.7910   51.0100 O   0  0  0  0  0  0  0  0  0  0  0  0
   61.9250   33.1490   51.9400 C   0  0  0  0  0  0  0  0  0  0  0  0
   63.0050   32.6480   51.1370 O   0  0  0  0  0  0  0  0  0  0  0  0
   59.6120   31.8950   46.4140 C   0  0  0  0  0  0  0  0  0  0  0  0
   58.4690   30.8800   46.5510 C   0  0  0  0  0  0  0  0  0  0  0  0
   58.8530   27.9780   46.2560 C   0  0  0  0  0  0  0  0  0  0  0  0
   57.6640   27.5590   46.7390 C   0  0  0  0  0  0  0  0  0  0  0  0
   57.1420   26.1890   46.6380 C   0  0  0  0  0  0  0  0  0  0  0  0
   57.8190   25.0860   47.0110 N   0  0  0  0  0  0  0  0  0  0  0  0
   56.8980   24.1020   46.8990 C   0  0  0  0  0  0  0  0  0  0  0  0
   57.1580   22.8970   47.1590 O   0  0  0  0  0  0  0  0  0  0  0  0
   55.6720   24.5140   46.5020 N   0  0  0  0  0  0  0  0  0  0  0  0
   55.8420   25.8400   46.3580 C   0  0  0  0  0  0  0  0  0  0  0  0
   54.8260   26.7130   45.9850 O   0  0  0  0  0  0  0  0  0  0  0  0
   59.7909   26.8259   48.5870 H   0  0  0  0  0  0  0  0  0  0  0  0
   61.5924   27.3305   48.2263 H   0  0  0  0  0  0  0  0  0  0  0  0
   60.8269   29.5153   44.1260 H   0  0  0  0  0  0  0  0  0  0  0  0
   58.4486   29.4908   43.1696 H   0  0  0  0  0  0  0  0  0  0  0  0
   57.4206   28.1157   43.7063 H   0  0  0  0  0  0  0  0  0  0  0  0
   57.0916   32.6595   44.1471 H   0  0  0  0  0  0  0  0  0  0  0  0
   55.8828   32.4168   45.4737 H   0  0  0  0  0  0  0  0  0  0  0  0
   57.4574   34.4774   45.6367 H   0  0  0  0  0  0  0  0  0  0  0  0
   57.2722   33.4346   47.0911 H   0  0  0  0  0  0  0  0  0  0  0  0
   63.6311   32.9908   46.5328 H   0  0  0  0  0  0  0  0  0  0  0  0
   64.4678   32.1675   48.7650 H   0  0  0  0  0  0  0  0  0  0  0  0
   60.1228   34.6906   48.4916 H   0  0  0  0  0  0  0  0  0  0  0  0
   62.2971   33.8717   52.6811 H   0  0  0  0  0  0  0  0  0  0  0  0
   61.4241   32.3488   52.5046 H   0  0  0  0  0  0  0  0  0  0  0  0
   60.2964   31.5580   45.6215 H   0  0  0  0  0  0  0  0  0  0  0  0
   60.1339   31.9600   47.3801 H   0  0  0  0  0  0  0  0  0  0  0  0
   58.8775   29.8604   46.4905 H   0  0  0  0  0  0  0  0  0  0  0  0
   57.9711   31.0243   47.5212 H   0  0  0  0  0  0  0  0  0  0  0  0
   57.0351   28.3033   47.2494 H   0  0  0  0  0  0  0  0  0  0  0  0
  1  2  2  0
  2  3  1  0
  3  4  1  0
  4  5  2  0
  5  6  1  0
  6  7  1  0
  7  8  2  0
  7  9  1  0
  9 10  1  0
 10 11  1  0
 11 12  1  0
 12 13  1  0
 13 14  2  0
 13 15  1  0
 15 16  1  0
 16 17  2  0
 17 18  1  0
 18 19  2  0
 19 20  1  0
 20 21  2  0
 20 22  1  0
 22 23  1  0
 23 24  1  0
 12 25  1  0
 25 26  1  0
  5 27  1  0
 27 28  2  3
 28 29  1  0
 29 30  1  0
 30 31  1  0
 31 32  2  0
 31 33  1  0
 33 34  1  0
 34 35  1  0
 27  2  1  0
 34 29  2  0
 26  9  1  0
 21 16  1  0
 24 19  1  0
  1 36  1  0
  1 37  1  0
  4 38  1  0
  6 39  1  0
  6 40  1  0
 10 41  1  0
 10 42  1  0
 11 43  1  0
 11 44  1  0
 17 45  1  0
 18 46  1  0
 21 47  1  0
 23 48  1  0
 23 49  1  0
 25 50  1  0
 25 51  1  0
 26 52  1  0
 26 53  1  0
 28 54  1  0
M  CHG  4  15  -1  30  -1  33  -1  35  -1
M  END
>  <UniqueID>  (8) 
8

>  <SMILES>  (8) 
C=c1occ(CC(=O)N2CCN(C(=O)[N-]c3ccc4c(c3)OCO4)CC2)c1=Cc1[n-]c(=O)[n-]c1[O-]

>  <Energy>  (8) 
159.7197414551957

>  <Genealogy>  (8) 
C=c1occ(CC(=O)N2CCN(C(=O)[N-]c3ccc4c(c3)OCO4)CC2)c1=Cc1[n-]c(=O)[n-]c1[O-] (protonated)
C=c1occ(CC(=O)N2CCN(C(=O)[N-]c3ccc4c(c3)OCO4)CC2)c1=Cc1[n-]c(=O)[n-]c1[O-] (3D coordinates assigned)
C=c1occ(CC(=O)N2CCN(C(=O)[N-]c3ccc4c(c3)OCO4)CC2)c1=Cc1[n-]c(=O)[n-]c1[O-] (nonaromatic ring conformer: 159.7197414551957 kcal/mol)

>  <smiles>  (8) 
C=c1occ(CC(=O)N2CCN(C(=O)Nc3ccc4c(c3)OCO4)CC2)c1=Cc1[nH]c(=O)[nH]c1O

>  <score_type>  (8) 
oracle

>  <origin>  (8) 
adg

>  <m_score__min__energy>  (8) 
-18.050000000000001

>  <m_primary>  (8) 
energy

$$$$
8:0
     RDKit          3D

 54 57  0  0  0  0  0  0  0  0999 V2000
   57.8740   27.0360   42.9680 C   0  0  0  0  0  0  0  0  0  0  0  0
   58.2620   26.6620   44.1990 C   0  0  0  0  0  0  0  0  0  0  0  0
   57.8040   25.5560   44.9320 C   0  0  0  0  0  0  0  0  0  0  0  0
   57.0230   24.5170   44.5780 C   0  0  0  0  0  0  0  0  0  0  0  0
   55.6450   24.2840   45.0330 C   0  0  0  0  0  0  0  0  0  0  0  0
   54.9640   23.1530   44.7790 N   0  0  0  0  0  0  0  0  0  0  0  0
   53.7360   23.4080   45.2800 C   0  0  0  0  0  0  0  0  0  0  0  0
   52.8010   22.5660   45.2450 O   0  0  0  0  0  0  0  0  0  0  0  0
   53.5840   24.6390   45.8120 N   0  0  0  0  0  0  0  0  0  0  0  0
   54.7970   25.1900   45.6360 C   0  0  0  0  0  0  0  0  0  0  0  0
   55.1000   26.5010   45.9970 O   0  0  0  0  0  0  0  0  0  0  0  0
   58.3340   25.6910   46.2040 C   0  0  0  0  0  0  0  0  0  0  0  0
   59.1130   26.8290   46.1990 C   0  0  0  0  0  0  0  0  0  0  0  0
   59.8480   27.3230   47.3800 C   0  0  0  0  0  0  0  0  0  0  0  0
   60.4710   26.4930   48.0970 O   0  0  0  0  0  0  0  0  0  0  0  0
   59.8360   28.7160   47.7490 N   0  0  0  0  0  0  0  0  0  0  0  0
   60.9470   29.2490   48.5460 C   0  0  0  0  0  0  0  0  0  0  0  0
   61.1530   30.7330   48.2390 C   0  0  0  0  0  0  0  0  0  0  0  0
   59.8540   31.5490   48.4750 C   0  0  0  0  0  0  0  0  0  0  0  0
   59.4630   31.5620   49.9220 N   0  0  0  0  0  0  0  0  0  0  0  0
   60.4220   32.3440   50.7590 C   0  0  0  0  0  0  0  0  0  0  0  0
   59.9670   33.7820   51.0410 C   0  0  0  0  0  0  0  0  0  0  0  0
   58.5290   33.8280   52.1700 S   0  0  0  0  0  0  0  0  0  0  0  0
   57.7530   32.2660   51.6220 C   0  0  0  0  0  0  0  0  0  0  0  0
   58.0510   31.9740   50.1500 C   0  0  0  0  0  0  0  0  0  0  0  0
   58.7770   30.9450   47.5310 C   0  0  0  0  0  0  0  0  0  0  0  0
   58.5590   29.4420   47.7710 C   0  0  0  0  0  0  0  0  0  0  0  0
   59.1000   27.4030   44.9710 N   0  0  0  0  0  0  0  0  0  0  0  0
   59.8440   28.5960   44.5530 C   0  0  0  0  0  0  0  0  0  0  0  0
   58.3132   27.9298   42.5007 H   0  0  0  0  0  0  0  0  0  0  0  0
   57.1172   26.4484   42.4276 H   0  0  0  0  0  0  0  0  0  0  0  0
   57.4548   23.7777   43.8874 H   0  0  0  0  0  0  0  0  0  0  0  0
   54.3950   27.1230   46.3720 H   0  0  0  0  0  0  0  0  0  0  0  0
   58.1655   25.0177   47.0574 H   0  0  0  0  0  0  0  0  0  0  0  0
   60.7183   29.1275   49.6151 H   0  0  0  0  0  0  0  0  0  0  0  0
   61.8658   28.6994   48.2936 H   0  0  0  0  0  0  0  0  0  0  0  0
   61.9457   31.1264   48.8923 H   0  0  0  0  0  0  0  0  0  0  0  0
   61.4338   30.8303   47.1799 H   0  0  0  0  0  0  0  0  0  0  0  0
   59.9913   32.6132   48.2330 H   0  0  0  0  0  0  0  0  0  0  0  0
   60.5466   31.8247   51.7206 H   0  0  0  0  0  0  0  0  0  0  0  0
   61.3622   32.4106   50.1919 H   0  0  0  0  0  0  0  0  0  0  0  0
   60.7990   34.3354   51.5009 H   0  0  0  0  0  0  0  0  0  0  0  0
   59.6682   34.2403   50.0867 H   0  0  0  0  0  0  0  0  0  0  0  0
   58.1420   31.4399   52.2355 H   0  0  0  0  0  0  0  0  0  0  0  0
   56.6636   32.3639   51.7392 H   0  0  0  0  0  0  0  0  0  0  0  0
   57.3886   31.1641   49.8105 H   0  0  0  0  0  0  0  0  0  0  0  0
   57.8797   32.9023   49.5852 H   0  0  0  0  0  0  0  0  0  0  0  0
   57.8255   31.4707   47.6995 H   0  0  0  0  0  0  0  0  0  0  0  0
   59.1310   31.0702   46.4971 H   0  0  0  0  0  0  0  0  0  0  0  0
   58.0808   29.2997   48.7514 H   0  0  0  0  0  0  0  0  0  0  0  0
   57.9173   29.0479   46.9692 H   0  0  0  0  0  0  0  0  0  0  0  0
   60.1864   29.1450   45.4426 H   0  0  0  0  0  0  0  0  0  0  0  0
   60.7139   28.2936   43.9515 H   0  0  0  0  0  0  0  0  0  0  0  0
   59.1897   29.2441   43.9515 H   0  0  0  0  0  0  0  0  0  0  0  0
  1  2  2  0
  2  3  1  0
  3  4  2  3
  4  5  1  0
  5  6  1  0
  6  7  1  0
  7  8  2  0
  7  9  1  0
  9 10  1  0
 10 11  1  0
  3 12  1  0
 12 13  2  0
 13 14  1  0
 14 15  2  0
 14 16  1  0
 16 17  1  0
 17 18  1  0
 18 19  1  0
 19 20  1  0
 20 21  1  0
 21 22  1  0
 22 23  1  0
 23 24  1  0
 24 25  1  0
 19 26  1  0
 26 27  1  0
 13 28  1  0
 28 29  1  0
 28  2  1  0
 10  5  2  0
 27 16  1  0
 25 20  1  0
  1 30  1  0
  1 31  1  0
  4 32  1  0
 11 33  1  0
 12 34  1  0
 17 35  1  0
 17 36  1  0
 18 37  1  0
 18 38  1  0
 19 39  1  0
 21 40  1  0
 21 41  1  0
 22 42  1  0
 22 43  1  0
 24 44  1  0
 24 45  1  0
 25 46  1  0
 25 47  1  0
 26 48  1  0
 26 49  1  0
 27 50  1  0
 27 51  1  0
 29 52  1  0
 29 53  1  0
 29 54  1  0
M  CHG  2   6  -1   9  -1
M  END
>  <UniqueID>  (9) 
9

>  <SMILES>  (9) 
C=c1c(=Cc2[n-]c(=O)[n-]c2O)cc(C(=O)N2CCC(N3CCSCC3)CC2)n1C

>  <Energy>  (9) 
141.76186418137112

>  <Genealogy>  (9) 
C=c1c(=Cc2[n-]c(=O)[n-]c2O)cc(C(=O)N2CCC(N3CCSCC3)CC2)n1C (protonated)
C=c1c(=Cc2[n-]c(=O)[n-]c2O)cc(C(=O)N2CCC(N3CCSCC3)CC2)n1C (3D coordinates assigned)
C=c1c(=Cc2[n-]c(=O)[n-]c2O)cc(C(=O)N2CCC(N3CCSCC3)CC2)n1C (nonaromatic ring conformer: 141.76186418137112 kcal/mol)

>  <smiles>  (9) 
C=c1c(=Cc2[nH]c(=O)[nH]c2O)cc(C(=O)N2CCC(N3CCSCC3)CC2)n1C

>  <score_type>  (9) 
oracle

>  <origin>  (9) 
adg

>  <m_score__min__energy>  (9) 
-13.35

>  <m_primary>  (9) 
energy

$$$$
9:0
     RDKit          3D

 41 43  0  0  0  0  0  0  0  0999 V2000
   64.7910   32.6910   49.6980 C   0  0  0  0  0  0  0  0  0  0  0  0
   63.6750   32.6910   48.6950 C   0  0  0  0  0  0  0  0  0  0  0  0
   63.4000   33.8440   47.9450 C   0  0  0  0  0  0  0  0  0  0  0  0
   62.3820   33.8330   46.9880 C   0  0  0  0  0  0  0  0  0  0  0  0
   61.6430   32.6700   46.7610 C   0  0  0  0  0  0  0  0  0  0  0  0
   61.9250   31.4990   47.4840 C   0  0  0  0  0  0  0  0  0  0  0  0
   61.1460   30.2340   47.2290 C   0  0  0  0  0  0  0  0  0  0  0  0
   59.6810   30.4330   47.4980 C   0  0  0  0  0  0  0  0  0  0  0  0
   59.3130   30.8410   48.6340 O   0  0  0  0  0  0  0  0  0  0  0  0
   58.6980   30.1730   46.4790 N   0  0  0  0  0  0  0  0  0  0  0  0
   58.1290   28.8150   46.4300 C   0  0  0  0  0  0  0  0  0  0  0  0
   57.3730   28.5580   45.1270 C   0  0  0  0  0  0  0  0  0  0  0  0
   56.4870   29.7200   44.8250 C   0  0  0  0  0  0  0  0  0  0  0  0
   55.3860   29.5470   44.2410 O   0  0  0  0  0  0  0  0  0  0  0  0
   56.9400   31.0420   45.1120 N   0  0  0  0  0  0  0  0  0  0  0  0
   57.9930   31.2730   45.8410 C   0  0  0  0  0  0  0  0  0  0  0  0
   58.4600   32.6730   45.9600 C   0  0  0  0  0  0  0  0  0  0  0  0
   58.8100   33.4110   44.8160 C   0  0  0  0  0  0  0  0  0  0  0  0
   59.2330   34.7400   44.9350 C   0  0  0  0  0  0  0  0  0  0  0  0
   59.2940   35.3450   46.1930 C   0  0  0  0  0  0  0  0  0  0  0  0
   58.9300   34.6250   47.3330 C   0  0  0  0  0  0  0  0  0  0  0  0
   58.5070   33.2970   47.2190 C   0  0  0  0  0  0  0  0  0  0  0  0
   62.9450   31.5170   48.4510 C   0  0  0  0  0  0  0  0  0  0  0  0
   65.0637   31.6539   49.9431 H   0  0  0  0  0  0  0  0  0  0  0  0
   65.6641   33.2095   49.2751 H   0  0  0  0  0  0  0  0  0  0  0  0
   64.4633   33.2095   50.6111 H   0  0  0  0  0  0  0  0  0  0  0  0
   63.9873   34.7592   48.1107 H   0  0  0  0  0  0  0  0  0  0  0  0
   62.1619   34.7435   46.4114 H   0  0  0  0  0  0  0  0  0  0  0  0
   60.8366   32.6708   46.0128 H   0  0  0  0  0  0  0  0  0  0  0  0
   61.2805   29.9356   46.1788 H   0  0  0  0  0  0  0  0  0  0  0  0
   61.5209   29.4522   47.9060 H   0  0  0  0  0  0  0  0  0  0  0  0
   58.9465   28.0841   46.5164 H   0  0  0  0  0  0  0  0  0  0  0  0
   57.4163   28.7149   47.2619 H   0  0  0  0  0  0  0  0  0  0  0  0
   58.0930   28.4236   44.3063 H   0  0  0  0  0  0  0  0  0  0  0  0
   56.7613   27.6499   45.2325 H   0  0  0  0  0  0  0  0  0  0  0  0
   58.7512   32.9420   43.8227 H   0  0  0  0  0  0  0  0  0  0  0  0
   59.5176   35.3086   44.0374 H   0  0  0  0  0  0  0  0  0  0  0  0
   59.6288   36.3887   46.2855 H   0  0  0  0  0  0  0  0  0  0  0  0
   58.9761   35.1034   48.3224 H   0  0  0  0  0  0  0  0  0  0  0  0
   58.2097   32.7380   48.1185 H   0  0  0  0  0  0  0  0  0  0  0  0
   63.1730   30.6042   49.0209 H   0  0  0  0  0  0  0  0  0  0  0  0
  1  2  1  0
  2  3  2  0
  3  4  1  0
  4  5  2  0
  5  6  1  0
  6  7  1  0
  7  8  1  0
  8  9  2  0
  8 10  1  0
 10 11  1  0
 11 12  1  0
 12 13  1  0
 13 14  2  0
 13 15  1  0
 15 16  2  0
 16 17  1  0
 17 18  2  0
 18 19  1  0
 19 20  2  0
 20 21  1  0
 21 22  2  0
  6 23  2  0
 23  2  1  0
 16 10  1  0
 22 17  1  0
  1 24  1  0
  1 25  1  0
  1 26  1  0
  3 27  1  0
  4 28  1  0
  5 29  1  0
  7 30  1  0
  7 31  1  0
 11 32  1  0
 11 33  1  0
 12 34  1  0
 12 35  1  0
 18 36  1  0
 19 37  1  0
 20 38  1  0
 21 39  1  0
 22 40  1  0
 23 41  1  0
M  END
>  <UniqueID>  (10) 
10

>  <SMILES>  (10) 
Cc1cccc(CC(=O)N2CCC(=O)N=C2c2ccccc2)c1

>  <Energy>  (10) 
50.851755531348054

>  <Genealogy>  (10) 
Cc1cccc(CC(=O)N2CCC(=O)N=C2c2ccccc2)c1 (3D coordinates assigned)
Cc1cccc(CC(=O)N2CCC(=O)N=C2c2ccccc2)c1 (nonaromatic ring conformer: 50.851755531348054 kcal/mol)

>  <smiles>  (10) 
Cc1cccc(CC(=O)N2CCC(=O)N=C2c2ccccc2)c1

>  <score_type>  (10) 
oracle

>  <origin>  (10) 
adg

>  <m_score__min__energy>  (10) 
-8.6600000000000001

>  <m_primary>  (10) 
energy

$$$$
10:0
     RDKit          3D

 53 56  0  0  0  0  0  0  0  0999 V2000
   57.3830   31.2790   42.6980 C   0  0  0  0  0  0  0  0  0  0  0  0
   56.4850   30.4470   43.6090 C   0  0  0  0  0  0  0  0  0  0  0  0
   56.9030   30.5560   44.9690 O   0  0  0  0  0  0  0  0  0  0  0  0
   57.7440   29.6520   45.6410 C   0  0  0  0  0  0  0  0  0  0  0  0
   57.3430   28.3480   45.9850 C   0  0  0  0  0  0  0  0  0  0  0  0
   58.2240   27.4920   46.6530 C   0  0  0  0  0  0  0  0  0  0  0  0
   59.5210   27.9190   46.9890 C   0  0  0  0  0  0  0  0  0  0  0  0
   60.4540   27.0130   47.7010 C   0  0  0  0  0  0  0  0  0  0  0  0
   61.4900   26.5880   47.1190 O   0  0  0  0  0  0  0  0  0  0  0  0
   60.1840   26.6160   49.0510 N   0  0  0  0  0  0  0  0  0  0  0  0
   60.6770   27.3370   50.2190 C   0  0  0  0  0  0  0  0  0  0  0  0
   60.7240   28.8030   49.9350 C   0  0  0  0  0  0  0  0  0  0  0  0
   61.8900   29.4870   49.7960 N   0  0  0  0  0  0  0  0  0  0  0  0
   61.4580   30.7250   49.5040 C   0  0  0  0  0  0  0  0  0  0  0  0
   60.1130   30.7580   49.4660 C   0  0  0  0  0  0  0  0  0  0  0  0
   59.6030   29.5460   49.7320 N   0  0  0  0  0  0  0  0  0  0  0  0
   59.4460   31.9290   49.1570 C   0  0  0  0  0  0  0  0  0  0  0  0
   58.1840   31.9470   49.1230 O   0  0  0  0  0  0  0  0  0  0  0  0
   60.1900   33.0570   48.8870 N   0  0  0  0  0  0  0  0  0  0  0  0
   59.5140   34.3130   48.5070 C   0  0  0  0  0  0  0  0  0  0  0  0
   58.9650   34.2130   47.1060 C   0  0  0  0  0  0  0  0  0  0  0  0
   57.6300   33.8310   46.8920 C   0  0  0  0  0  0  0  0  0  0  0  0
   57.1330   33.7060   45.5910 C   0  0  0  0  0  0  0  0  0  0  0  0
   57.9620   33.9580   44.4950 C   0  0  0  0  0  0  0  0  0  0  0  0
   59.2920   34.3360   44.6990 C   0  0  0  0  0  0  0  0  0  0  0  0
   59.7940   34.4620   45.9980 C   0  0  0  0  0  0  0  0  0  0  0  0
   61.5760   32.9960   48.9270 C   0  0  0  0  0  0  0  0  0  0  0  0
   62.2570   34.0250   48.6570 O   0  0  0  0  0  0  0  0  0  0  0  0
   62.2220   31.8240   49.2560 N   0  0  0  0  0  0  0  0  0  0  0  0
   63.6880   31.7390   49.2640 C   0  0  0  0  0  0  0  0  0  0  0  0
   59.9180   29.2220   46.6400 C   0  0  0  0  0  0  0  0  0  0  0  0
   59.0350   30.0750   45.9720 C   0  0  0  0  0  0  0  0  0  0  0  0
   58.0529   31.8997   43.3111 H   0  0  0  0  0  0  0  0  0  0  0  0
   57.9821   30.6097   42.0631 H   0  0  0  0  0  0  0  0  0  0  0  0
   56.7613   31.9274   42.0631 H   0  0  0  0  0  0  0  0  0  0  0  0
   55.4491   30.8063   43.5202 H   0  0  0  0  0  0  0  0  0  0  0  0
   56.5520   29.3926   43.3029 H   0  0  0  0  0  0  0  0  0  0  0  0
   56.3317   28.0003   45.7272 H   0  0  0  0  0  0  0  0  0  0  0  0
   57.8994   26.4750   46.9182 H   0  0  0  0  0  0  0  0  0  0  0  0
   60.0055   27.1527   51.0706 H   0  0  0  0  0  0  0  0  0  0  0  0
   61.6908   26.9839   50.4587 H   0  0  0  0  0  0  0  0  0  0  0  0
   58.6876   34.5057   49.2070 H   0  0  0  0  0  0  0  0  0  0  0  0
   60.2430   35.1359   48.5461 H   0  0  0  0  0  0  0  0  0  0  0  0
   56.9733   33.6295   47.7511 H   0  0  0  0  0  0  0  0  0  0  0  0
   56.0863   33.4084   45.4300 H   0  0  0  0  0  0  0  0  0  0  0  0
   57.5684   33.8590   43.4726 H   0  0  0  0  0  0  0  0  0  0  0  0
   59.9449   34.5347   43.8363 H   0  0  0  0  0  0  0  0  0  0  0  0
   60.8421   34.7572   46.1537 H   0  0  0  0  0  0  0  0  0  0  0  0
   64.0484   31.7181   50.3031 H   0  0  0  0  0  0  0  0  0  0  0  0
   64.0049   30.8210   48.7475 H   0  0  0  0  0  0  0  0  0  0  0  0
   64.1089   32.6143   48.7475 H   0  0  0  0  0  0  0  0  0  0  0  0
   60.9294   29.5720   46.8942 H   0  0  0  0  0  0  0  0  0  0  0  0
   59.3595   31.0912   45.7035 H   0  0  0  0  0  0  0  0  0  0  0  0
  1  2  1  0
  2  3  1  0
  3  4  1  0
  4  5  2  0
  5  6  1  0
  6  7  2  0
  7  8  1  0
  8  9  2  0
  8 10  1  0
 10 11  1  0
 11 12  1  0
 12 13  2  0
 13 14  1  0
 14 15  2  0
 15 16  1  0
 15 17  1  0
 17 18  2  0
 17 19  1  0
 19 20  1  0
 20 21  1  0
 21 22  2  0
 22 23  1  0
 23 24  2  0
 24 25  1  0
 25 26  2  0
 19 27  1  0
 27 28  2  0
 27 29  1  0
 29 30  1  0
  7 31  1  0
 31 32  2  0
 32  4  1  0
 16 12  1  0
 26 21  1  0
 29 14  1  0
  1 33  1  0
  1 34  1  0
  1 35  1  0
  2 36  1  0
  2 37  1  0
  5 38  1  0
  6 39  1  0
 11 40  1  0
 11 41  1  0
 20 42  1  0
 20 43  1  0
 22 44  1  0
 23 45  1  0
 24 46  1  0
 25 47  1  0
 26 48  1  0
 30 49  1  0
 30 50  1  0
 30 51  1  0
 31 52  1  0
 32 53  1  0
M  CHG  2  10  -1  16  -1
M  END
>  <UniqueID>  (11) 
11

>  <SMILES>  (11) 
CCOc1ccc(C(=O)[N-]Cc2nc3c([n-]2)c(=O)n(Cc2ccccc2)c(=O)n3C)cc1

>  <Energy>  (11) 
94.6573713921261

>  <Genealogy>  (11) 
CCOc1ccc(C(=O)[N-]Cc2nc3c([n-]2)c(=O)n(Cc2ccccc2)c(=O)n3C)cc1 (protonated)
CCOc1ccc(C(=O)[N-]Cc2nc3c([n-]2)c(=O)n(Cc2ccccc2)c(=O)n3C)cc1 (3D coordinates assigned)
CCOc1ccc(C(=O)[N-]Cc2nc3c([n-]2)c(=O)n(Cc2ccccc2)c(=O)n3C)cc1 (optimized conformer: 94.6573713921261 kcal/mol)

>  <smiles>  (11) 
CCOc1ccc(C(=O)NCc2nc3c([nH]2)c(=O)n(Cc2ccccc2)c(=O)n3C)cc1

>  <score_type>  (11) 
oracle

>  <origin>  (11) 
adg

>  <m_score__min__energy>  (11) 
-12.06

>  <m_primary>  (11) 
energy

$$$$
11:0
     RDKit          3D

 57 60  0  0  0  0  0  0  0  0999 V2000
   57.7430   26.5550   44.5640 C   0  0  0  0  0  0  0  0  0  0  0  0
   56.6260   27.1570   45.8080 S   0  0  0  0  0  0  0  0  0  0  0  0
   55.5720   26.1180   46.0660 O   0  0  0  0  0  0  0  0  0  0  0  0
   57.3970   27.4300   47.0690 O   0  0  0  0  0  0  0  0  0  0  0  0
   55.8860   28.6200   45.2420 N   0  0  0  0  0  0  0  0  0  0  0  0
   56.5800   29.7090   44.6190 C   0  0  0  0  0  0  0  0  0  0  0  0
   56.3300   30.0920   43.2910 C   0  0  0  0  0  0  0  0  0  0  0  0
   57.0280   31.1610   42.7270 C   0  0  0  0  0  0  0  0  0  0  0  0
   57.9770   31.8570   43.4770 C   0  0  0  0  0  0  0  0  0  0  0  0
   58.2450   31.4900   44.8090 C   0  0  0  0  0  0  0  0  0  0  0  0
   59.2390   32.2340   45.6230 C   0  0  0  0  0  0  0  0  0  0  0  0
   59.3490   33.6190   45.7530 C   0  0  0  0  0  0  0  0  0  0  0  0
   60.3640   34.0240   46.6300 C   0  0  0  0  0  0  0  0  0  0  0  0
   61.0600   32.9660   47.2000 C   0  0  0  0  0  0  0  0  0  0  0  0
   62.1320   33.0830   48.1990 C   0  0  0  0  0  0  0  0  0  0  0  0
   63.2750   33.4750   47.8450 O   0  0  0  0  0  0  0  0  0  0  0  0
   61.8960   32.7610   49.5760 N   0  0  0  0  0  0  0  0  0  0  0  0
   60.9530   33.4540   50.4650 C   0  0  0  0  0  0  0  0  0  0  0  0
   60.7260   32.6260   51.7490 C   0  0  0  0  0  0  0  0  0  0  0  0
   59.2860   32.7460   52.2640 C   0  0  0  0  0  0  0  0  0  0  0  0
   58.2940   32.2790   51.2630 N   0  0  0  0  0  0  0  0  0  0  0  0
   58.0720   30.8190   51.3730 C   0  0  0  0  0  0  0  0  0  0  0  0
   59.0080   30.0560   50.4700 C   0  0  0  0  0  0  0  0  0  0  0  0
   58.6230   29.7250   49.1580 C   0  0  0  0  0  0  0  0  0  0  0  0
   59.4870   28.9970   48.3340 C   0  0  0  0  0  0  0  0  0  0  0  0
   60.7380   28.5960   48.8120 C   0  0  0  0  0  0  0  0  0  0  0  0
   61.1260   28.9190   50.1160 C   0  0  0  0  0  0  0  0  0  0  0  0
   60.2640   29.6440   50.9450 C   0  0  0  0  0  0  0  0  0  0  0  0
   58.6000   32.6870   49.8630 C   0  0  0  0  0  0  0  0  0  0  0  0
   59.6240   33.8290   49.7670 C   0  0  0  0  0  0  0  0  0  0  0  0
   60.4210   31.5320   46.6010 S   0  0  0  0  0  0  0  0  0  0  0  0
   57.5340   30.4100   45.3680 C   0  0  0  0  0  0  0  0  0  0  0  0
   58.6126   26.0863   45.0479 H   0  0  0  0  0  0  0  0  0  0  0  0
   57.2278   25.8124   43.9370 H   0  0  0  0  0  0  0  0  0  0  0  0
   58.0800   27.3936   43.9370 H   0  0  0  0  0  0  0  0  0  0  0  0
   55.5827   29.5484   42.6943 H   0  0  0  0  0  0  0  0  0  0  0  0
   56.8291   31.4563   41.6862 H   0  0  0  0  0  0  0  0  0  0  0  0
   58.5200   32.6993   43.0234 H   0  0  0  0  0  0  0  0  0  0  0  0
   58.6995   34.3268   45.2170 H   0  0  0  0  0  0  0  0  0  0  0  0
   60.5881   35.0790   46.8463 H   0  0  0  0  0  0  0  0  0  0  0  0
   61.4100   34.4140   50.7470 H   0  0  0  0  0  0  0  0  0  0  0  0
   60.9384   31.5688   51.5318 H   0  0  0  0  0  0  0  0  0  0  0  0
   61.3985   33.0156   52.5275 H   0  0  0  0  0  0  0  0  0  0  0  0
   59.1834   32.1384   53.1752 H   0  0  0  0  0  0  0  0  0  0  0  0
   59.0867   33.8084   52.4681 H   0  0  0  0  0  0  0  0  0  0  0  0
   58.2439   30.5073   52.4138 H   0  0  0  0  0  0  0  0  0  0  0  0
   57.0380   30.5998   51.0684 H   0  0  0  0  0  0  0  0  0  0  0  0
   57.6394   30.0398   48.7792 H   0  0  0  0  0  0  0  0  0  0  0  0
   59.1820   28.7397   47.3089 H   0  0  0  0  0  0  0  0  0  0  0  0
   61.4178   28.0259   48.1617 H   0  0  0  0  0  0  0  0  0  0  0  0
   62.1107   28.6024   50.4903 H   0  0  0  0  0  0  0  0  0  0  0  0
   60.5705   29.8923   51.9719 H   0  0  0  0  0  0  0  0  0  0  0  0
   59.0001   31.8145   49.3257 H   0  0  0  0  0  0  0  0  0  0  0  0
   57.6624   33.0553   49.4211 H   0  0  0  0  0  0  0  0  0  0  0  0
   59.8242   34.0423   48.7066 H   0  0  0  0  0  0  0  0  0  0  0  0
   59.2055   34.7132   50.2701 H   0  0  0  0  0  0  0  0  0  0  0  0
   57.7309   30.1125   46.4086 H   0  0  0  0  0  0  0  0  0  0  0  0
  1  2  1  0
  2  3  2  0
  2  4  2  0
  2  5  1  0
  5  6  1  0
  6  7  2  0
  7  8  1  0
  8  9  2  0
  9 10  1  0
 10 11  1  0
 11 12  2  0
 12 13  1  0
 13 14  2  0
 14 15  1  0
 15 16  2  0
 15 17  1  0
 17 18  1  0
 18 19  1  0
 19 20  1  0
 20 21  1  0
 21 22  1  0
 22 23  1  0
 23 24  2  0
 24 25  1  0
 25 26  2  0
 26 27  1  0
 27 28  2  0
 21 29  1  0
 29 30  1  0
 14 31  1  0
 10 32  2  0
 32  6  1  0
 31 11  1  0
 30 18  1  0
 28 23  1  0
  1 33  1  0
  1 34  1  0
  1 35  1  0
  7 36  1  0
  8 37  1  0
  9 38  1  0
 12 39  1  0
 13 40  1  0
 18 41  1  0
 19 42  1  0
 19 43  1  0
 20 44  1  0
 20 45  1  0
 22 46  1  0
 22 47  1  0
 24 48  1  0
 25 49  1  0
 26 50  1  0
 27 51  1  0
 28 52  1  0
 29 53  1  0
 29 54  1  0
 30 55  1  0
 30 56  1  0
 32 57  1  0
M  CHG  2   5  -1  17  -1
M  END
>  <UniqueID>  (12) 
12

>  <SMILES>  (12) 
CS(=O)(=O)[N-]c1cccc(-c2ccc(C(=O)[N-]C3CCN(Cc4ccccc4)CC3)s2)c1

>  <Energy>  (12) 
103.42466347023752

>  <Genealogy>  (12) 
CS(=O)(=O)[N-]c1cccc(-c2ccc(C(=O)[N-]C3CCN(Cc4ccccc4)CC3)s2)c1 (protonated)
CS(=O)(=O)[N-]c1cccc(-c2ccc(C(=O)[N-]C3CCN(Cc4ccccc4)CC3)s2)c1 (3D coordinates assigned)
CS(=O)(=O)[N-]c1cccc(-c2ccc(C(=O)[N-]C3CCN(Cc4ccccc4)CC3)s2)c1 (nonaromatic ring conformer: 103.42466347023752 kcal/mol)

>  <smiles>  (12) 
CS(=O)(=O)Nc1cccc(-c2ccc(C(=O)NC3CCN(Cc4ccccc4)CC3)s2)c1

>  <score_type>  (12) 
oracle

>  <origin>  (12) 
adg

>  <m_score__min__energy>  (12) 
-12.550000000000001

>  <m_primary>  (12) 
energy

$$$$
12:0
     RDKit          3D

 46 47  0  0  0  0  0  0  0  0999 V2000
   59.5850   26.6610   46.0170 C   0  0  0  0  0  0  0  0  0  0  0  0
   60.1800   27.9310   45.4150 C   0  0  0  0  0  0  0  0  0  0  0  0
   59.2350   29.0920   45.5850 C   0  0  0  0  0  0  0  0  0  0  0  0
   58.4680   29.4560   44.5230 N   0  0  0  0  0  0  0  0  0  0  0  0
   57.6520   30.5420   44.5680 C   0  0  0  0  0  0  0  0  0  0  0  0
   56.8720   30.9450   43.3450 C   0  0  0  0  0  0  0  0  0  0  0  0
   56.3310   29.7040   42.6270 C   0  0  0  0  0  0  0  0  0  0  0  0
   57.7300   31.7920   42.4020 C   0  0  0  0  0  0  0  0  0  0  0  0
   57.6090   31.3040   45.6930 N   0  0  0  0  0  0  0  0  0  0  0  0
   58.3620   30.9950   46.7790 C   0  0  0  0  0  0  0  0  0  0  0  0
   59.2010   29.8760   46.7590 C   0  0  0  0  0  0  0  0  0  0  0  0
   60.0760   29.6110   47.9170 C   0  0  0  0  0  0  0  0  0  0  0  0
   59.6310   28.9230   48.8720 O   0  0  0  0  0  0  0  0  0  0  0  0
   61.4170   30.1090   47.9830 N   0  0  0  0  0  0  0  0  0  0  0  0
   61.7830   31.5180   48.0730 C   0  0  0  0  0  0  0  0  0  0  0  0
   63.1360   31.7600   47.4050 C   0  0  0  0  0  0  0  0  0  0  0  0
   63.3200   33.5180   46.9400 S   0  0  0  0  0  0  0  0  0  0  0  0
   61.5750   33.8960   47.0730 C   0  0  0  0  0  0  0  0  0  0  0  0
   61.0430   34.2460   48.2730 N   0  0  0  0  0  0  0  0  0  0  0  0
   59.7260   34.5510   48.3880 C   0  0  0  0  0  0  0  0  0  0  0  0
   58.9020   34.5210   47.2630 C   0  0  0  0  0  0  0  0  0  0  0  0
   59.4660   34.1620   46.0320 C   0  0  0  0  0  0  0  0  0  0  0  0
   58.6410   34.1170   44.7830 C   0  0  0  0  0  0  0  0  0  0  0  0
   60.7890   33.8580   45.9650 N   0  0  0  0  0  0  0  0  0  0  0  0
   59.6156   26.7263   47.1146 H   0  0  0  0  0  0  0  0  0  0  0  0
   58.5420   26.5517   45.6851 H   0  0  0  0  0  0  0  0  0  0  0  0
   60.1686   25.7896   45.6851 H   0  0  0  0  0  0  0  0  0  0  0  0
   61.1293   28.1605   45.9211 H   0  0  0  0  0  0  0  0  0  0  0  0
   60.3511   27.7676   44.3408 H   0  0  0  0  0  0  0  0  0  0  0  0
   56.0189   31.5612   43.6651 H   0  0  0  0  0  0  0  0  0  0  0  0
   56.0074   28.9616   43.3714 H   0  0  0  0  0  0  0  0  0  0  0  0
   55.4753   29.9887   41.9971 H   0  0  0  0  0  0  0  0  0  0  0  0
   57.1220   29.2709   41.9971 H   0  0  0  0  0  0  0  0  0  0  0  0
   58.3902   32.4438   42.9930 H   0  0  0  0  0  0  0  0  0  0  0  0
   58.3392   31.1313   41.7677 H   0  0  0  0  0  0  0  0  0  0  0  0
   57.0772   32.4096   41.7677 H   0  0  0  0  0  0  0  0  0  0  0  0
   58.3123   31.6268   47.6781 H   0  0  0  0  0  0  0  0  0  0  0  0
   61.0162   32.1247   47.5691 H   0  0  0  0  0  0  0  0  0  0  0  0
   61.8525   31.8019   49.1335 H   0  0  0  0  0  0  0  0  0  0  0  0
   63.9388   31.4855   48.1051 H   0  0  0  0  0  0  0  0  0  0  0  0
   63.1969   31.1447   46.4952 H   0  0  0  0  0  0  0  0  0  0  0  0
   59.3080   34.8220   49.3687 H   0  0  0  0  0  0  0  0  0  0  0  0
   57.8342   34.7734   47.3406 H   0  0  0  0  0  0  0  0  0  0  0  0
   57.5753   34.0589   45.0494 H   0  0  0  0  0  0  0  0  0  0  0  0
   58.8219   35.0263   44.1911 H   0  0  0  0  0  0  0  0  0  0  0  0
   58.9198   33.2327   44.1911 H   0  0  0  0  0  0  0  0  0  0  0  0
  1  2  1  0
  2  3  1  0
  3  4  2  0
  4  5  1  0
  5  6  1  0
  6  7  1  0
  6  8  1  0
  5  9  2  0
  9 10  1  0
 10 11  2  0
 11 12  1  0
 12 13  2  0
 12 14  1  0
 14 15  1  0
 15 16  1  0
 16 17  1  0
 17 18  1  0
 18 19  2  0
 19 20  1  0
 20 21  2  0
 21 22  1  0
 22 23  1  0
 22 24  2  0
 11  3  1  0
 24 18  1  0
  1 25  1  0
  1 26  1  0
  1 27  1  0
  2 28  1  0
  2 29  1  0
  6 30  1  0
  7 31  1  0
  7 32  1  0
  7 33  1  0
  8 34  1  0
  8 35  1  0
  8 36  1  0
 10 37  1  0
 15 38  1  0
 15 39  1  0
 16 40  1  0
 16 41  1  0
 20 42  1  0
 21 43  1  0
 23 44  1  0
 23 45  1  0
 23 46  1  0
M  CHG  1  14  -1
M  END
>  <UniqueID>  (13) 
13

>  <SMILES>  (13) 
CCc1nc(C(C)C)ncc1C(=O)[N-]CCSc1nccc(C)n1

>  <Energy>  (13) 
35.321090665917446

>  <Genealogy>  (13) 
CCc1nc(C(C)C)ncc1C(=O)[N-]CCSc1nccc(C)n1 (protonated)
CCc1nc(C(C)C)ncc1C(=O)[N-]CCSc1nccc(C)n1 (3D coordinates assigned)
CCc1nc(C(C)C)ncc1C(=O)[N-]CCSc1nccc(C)n1 (optimized conformer: 35.321090665917446 kcal/mol)

>  <smiles>  (13) 
CCc1nc(C(C)C)ncc1C(=O)NCCSc1nccc(C)n1

>  <score_type>  (13) 
oracle

>  <origin>  (13) 
adg

>  <m_score__min__energy>  (13) 
-8.3100000000000005

>  <m_primary>  (13) 
energy

$$$$
13:0
     RDKit          3D

 55 58  0  0  0  0  0  0  0  0999 V2000
   55.1370   30.0990   43.6060 C   0  0  0  0  0  0  0  0  0  0  0  0
   56.1600   29.6600   44.3430 C   0  0  0  0  0  0  0  0  0  0  0  0
   56.1150   28.5190   45.0600 N   0  0  0  0  0  0  0  0  0  0  0  0
   57.3200   28.3880   45.6610 C   0  0  0  0  0  0  0  0  0  0  0  0
   57.7020   27.3880   46.4780 C   0  0  0  0  0  0  0  0  0  0  0  0
   57.0930   26.0420   46.5580 C   0  0  0  0  0  0  0  0  0  0  0  0
   57.7330   24.8970   46.8600 N   0  0  0  0  0  0  0  0  0  0  0  0
   56.7570   23.9650   46.8090 C   0  0  0  0  0  0  0  0  0  0  0  0
   56.9740   22.7450   47.0260 O   0  0  0  0  0  0  0  0  0  0  0  0
   55.5340   24.4430   46.5020 N   0  0  0  0  0  0  0  0  0  0  0  0
   55.7640   25.7570   46.3490 C   0  0  0  0  0  0  0  0  0  0  0  0
   54.7770   26.6790   46.0230 O   0  0  0  0  0  0  0  0  0  0  0  0
   58.1370   29.4560   45.3260 C   0  0  0  0  0  0  0  0  0  0  0  0
   57.3970   30.2730   44.4920 C   0  0  0  0  0  0  0  0  0  0  0  0
   57.8980   31.5430   43.8580 C   0  0  0  0  0  0  0  0  0  0  0  0
   58.4060   32.4980   44.9070 C   0  0  0  0  0  0  0  0  0  0  0  0
   58.8730   33.7680   44.5380 C   0  0  0  0  0  0  0  0  0  0  0  0
   59.3500   34.6530   45.5080 C   0  0  0  0  0  0  0  0  0  0  0  0
   59.3580   34.2810   46.8540 C   0  0  0  0  0  0  0  0  0  0  0  0
   58.8920   33.0150   47.2440 C   0  0  0  0  0  0  0  0  0  0  0  0
   58.8640   32.6340   48.6740 C   0  0  0  0  0  0  0  0  0  0  0  0
   57.7830   32.7090   49.3190 O   0  0  0  0  0  0  0  0  0  0  0  0
   60.0550   32.1950   49.3420 N   0  0  0  0  0  0  0  0  0  0  0  0
   60.3580   32.7140   50.6820 C   0  0  0  0  0  0  0  0  0  0  0  0
   61.8810   32.7560   50.9480 C   0  0  0  0  0  0  0  0  0  0  0  0
   62.6640   32.0340   49.9210 N   0  0  0  0  0  0  0  0  0  0  0  0
   64.0720   31.8690   50.3440 C   0  0  0  0  0  0  0  0  0  0  0  0
   64.8980   33.0930   49.9400 C   0  0  0  0  0  0  0  0  0  0  0  0
   64.5710   34.1670   50.7500 F   0  0  0  0  0  0  0  0  0  0  0  0
   64.6610   33.4330   48.6230 F   0  0  0  0  0  0  0  0  0  0  0  0
   66.6350   32.7450   50.1300 Cl  0  0  0  0  0  0  0  0  0  0  0  0
   62.0300   30.7380   49.6240 C   0  0  0  0  0  0  0  0  0  0  0  0
   60.7330   30.9890   48.8520 C   0  0  0  0  0  0  0  0  0  0  0  0
   58.4130   32.1280   46.2630 C   0  0  0  0  0  0  0  0  0  0  0  0
   55.2295   31.0380   43.0405 H   0  0  0  0  0  0  0  0  0  0  0  0
   54.2016   29.5217   43.5642 H   0  0  0  0  0  0  0  0  0  0  0  0
   55.2890   27.8860   45.1210 H   0  0  0  0  0  0  0  0  0  0  0  0
   58.5483   27.5915   47.1506 H   0  0  0  0  0  0  0  0  0  0  0  0
   59.1723   29.6213   45.6588 H   0  0  0  0  0  0  0  0  0  0  0  0
   58.7159   31.3014   43.1633 H   0  0  0  0  0  0  0  0  0  0  0  0
   57.0669   32.0203   43.3182 H   0  0  0  0  0  0  0  0  0  0  0  0
   58.8636   34.0686   43.4799 H   0  0  0  0  0  0  0  0  0  0  0  0
   59.7202   35.6453   45.2108 H   0  0  0  0  0  0  0  0  0  0  0  0
   59.7316   34.9838   47.6133 H   0  0  0  0  0  0  0  0  0  0  0  0
   59.9525   33.7328   50.7699 H   0  0  0  0  0  0  0  0  0  0  0  0
   59.8990   32.0420   51.4220 H   0  0  0  0  0  0  0  0  0  0  0  0
   62.2060   33.8068   50.9630 H   0  0  0  0  0  0  0  0  0  0  0  0
   62.0620   32.2583   51.9121 H   0  0  0  0  0  0  0  0  0  0  0  0
   64.1105   31.7505   51.4369 H   0  0  0  0  0  0  0  0  0  0  0  0
   64.4901   30.9784   49.8521 H   0  0  0  0  0  0  0  0  0  0  0  0
   62.7101   30.1247   49.0147 H   0  0  0  0  0  0  0  0  0  0  0  0
   61.8100   30.2060   50.5613 H   0  0  0  0  0  0  0  0  0  0  0  0
   60.9683   31.1168   47.7851 H   0  0  0  0  0  0  0  0  0  0  0  0
   60.0653   30.1272   48.9985 H   0  0  0  0  0  0  0  0  0  0  0  0
   58.0407   31.1363   46.5596 H   0  0  0  0  0  0  0  0  0  0  0  0
  1  2  2  0
  2  3  1  0
  3  4  1  0
  4  5  2  3
  5  6  1  0
  6  7  1  0
  7  8  1  0
  8  9  2  0
  8 10  1  0
 10 11  1  0
 11 12  1  0
  4 13  1  0
 13 14  2  0
 14 15  1  0
 15 16  1  0
 16 17  2  0
 17 18  1  0
 18 19  2  0
 19 20  1  0
 20 21  1  0
 21 22  2  0
 21 23  1  0
 23 24  1  0
 24 25  1  0
 25 26  1  0
 26 27  1  0
 27 28  1  0
 28 29  1  0
 28 30  1  0
 28 31  1  0
 26 32  1  0
 32 33  1  0
 20 34  2  0
 14  2  1  0
 34 16  1  0
 11  6  2  0
 33 23  1  0
  1 35  1  0
  1 36  1  0
  3 37  1  0
  5 38  1  0
 13 39  1  0
 15 40  1  0
 15 41  1  0
 17 42  1  0
 18 43  1  0
 19 44  1  0
 24 45  1  0
 24 46  1  0
 25 47  1  0
 25 48  1  0
 27 49  1  0
 27 50  1  0
 32 51  1  0
 32 52  1  0
 33 53  1  0
 33 54  1  0
 34 55  1  0
M  CHG  3   7  -1  10  -1  12  -1
M  END
>  <UniqueID>  (14) 
14

>  <SMILES>  (14) 
C=c1[nH]c(=Cc2[n-]c(=O)[n-]c2[O-])cc1Cc1cccc(C(=O)N2CCN(CC(F)(F)Cl)CC2)c1

>  <Energy>  (14) 
126.02200705022788

>  <Genealogy>  (14) 
C=c1[nH]c(=Cc2[n-]c(=O)[n-]c2[O-])cc1Cc1cccc(C(=O)N2CCN(CC(F)(F)Cl)CC2)c1 (protonated)
C=c1[nH]c(=Cc2[n-]c(=O)[n-]c2[O-])cc1Cc1cccc(C(=O)N2CCN(CC(F)(F)Cl)CC2)c1 (3D coordinates assigned)
C=c1[nH]c(=Cc2[n-]c(=O)[n-]c2[O-])cc1Cc1cccc(C(=O)N2CCN(CC(F)(F)Cl)CC2)c1 (nonaromatic ring conformer: 126.02200705022788 kcal/mol)

>  <smiles>  (14) 
C=c1[nH]c(=Cc2[nH]c(=O)[nH]c2O)cc1Cc1cccc(C(=O)N2CCN(CC(F)(F)Cl)CC2)c1

>  <score_type>  (14) 
oracle

>  <origin>  (14) 
adg

>  <m_score__min__energy>  (14) 
-19.120000000000001

>  <m_primary>  (14) 
energy

$$$$
14:0
     RDKit          3D

 39 40  0  0  0  0  0  0  0  0999 V2000
   59.5080   25.5100   46.0290 C   0  0  0  0  0  0  0  0  0  0  0  0
   58.3470   26.1590   45.9280 C   0  0  0  0  0  0  0  0  0  0  0  0
   58.2660   27.4270   45.5840 O   0  0  0  0  0  0  0  0  0  0  0  0
   57.0000   27.7840   45.5650 C   0  0  0  0  0  0  0  0  0  0  0  0
   56.5370   29.1300   45.2040 C   0  0  0  0  0  0  0  0  0  0  0  0
   55.4840   29.2710   44.5240 O   0  0  0  0  0  0  0  0  0  0  0  0
   57.2800   30.2450   45.6080 O   0  0  0  0  0  0  0  0  0  0  0  0
   58.7040   30.2710   45.5980 C   0  0  0  0  0  0  0  0  0  0  0  0
   59.2200   30.1380   46.9950 C   0  0  0  0  0  0  0  0  0  0  0  0
   60.3080   29.5330   47.2040 O   0  0  0  0  0  0  0  0  0  0  0  0
   58.5200   30.7650   48.0710 N   0  0  0  0  0  0  0  0  0  0  0  0
   58.6810   32.1740   48.4080 C   0  0  0  0  0  0  0  0  0  0  0  0
   58.6270   33.0060   47.1500 C   0  0  0  0  0  0  0  0  0  0  0  0
   57.4030   33.1850   46.4820 C   0  0  0  0  0  0  0  0  0  0  0  0
   57.3230   34.0150   45.3630 C   0  0  0  0  0  0  0  0  0  0  0  0
   58.4640   34.6700   44.8950 C   0  0  0  0  0  0  0  0  0  0  0  0
   59.6850   34.5050   45.5530 C   0  0  0  0  0  0  0  0  0  0  0  0
   59.7800   33.6730   46.6860 C   0  0  0  0  0  0  0  0  0  0  0  0
   60.9920   33.4970   47.3750 O   0  0  0  0  0  0  0  0  0  0  0  0
   62.2780   33.5310   46.7690 C   0  0  0  0  0  0  0  0  0  0  0  0
   56.2140   26.7040   45.9100 C   0  0  0  0  0  0  0  0  0  0  0  0
   54.8270   26.6820   45.9970 O   0  0  0  0  0  0  0  0  0  0  0  0
   57.0690   25.6490   46.1470 C   0  0  0  0  0  0  0  0  0  0  0  0
   56.7120   24.4150   46.5070 C   0  0  0  0  0  0  0  0  0  0  0  0
   59.5217   24.4494   46.3204 H   0  0  0  0  0  0  0  0  0  0  0  0
   60.4517   26.0354   45.8209 H   0  0  0  0  0  0  0  0  0  0  0  0
   59.0807   29.4367   44.9880 H   0  0  0  0  0  0  0  0  0  0  0  0
   59.0481   31.2249   45.1717 H   0  0  0  0  0  0  0  0  0  0  0  0
   57.8717   32.4828   49.0859 H   0  0  0  0  0  0  0  0  0  0  0  0
   59.6526   32.3222   48.9020 H   0  0  0  0  0  0  0  0  0  0  0  0
   56.5023   32.6674   46.8438 H   0  0  0  0  0  0  0  0  0  0  0  0
   56.3603   34.1534   44.8492 H   0  0  0  0  0  0  0  0  0  0  0  0
   58.4012   35.3165   44.0073 H   0  0  0  0  0  0  0  0  0  0  0  0
   60.5792   35.0286   45.1838 H   0  0  0  0  0  0  0  0  0  0  0  0
   63.0514   33.5514   47.5510 H   0  0  0  0  0  0  0  0  0  0  0  0
   62.4124   32.6361   46.1436 H   0  0  0  0  0  0  0  0  0  0  0  0
   62.3650   34.4318   46.1436 H   0  0  0  0  0  0  0  0  0  0  0  0
   57.4810   23.6457   46.6709 H   0  0  0  0  0  0  0  0  0  0  0  0
   55.6486   24.1668   46.6399 H   0  0  0  0  0  0  0  0  0  0  0  0
  1  2  2  0
  2  3  1  0
  3  4  1  0
  4  5  1  0
  5  6  2  0
  5  7  1  0
  7  8  1  0
  8  9  1  0
  9 10  2  0
  9 11  1  0
 11 12  1  0
 12 13  1  0
 13 14  2  0
 14 15  1  0
 15 16  2  0
 16 17  1  0
 17 18  2  0
 18 19  1  0
 19 20  1  0
  4 21  2  0
 21 22  1  0
 21 23  1  0
 23 24  2  0
 23  2  1  0
 18 13  1  0
  1 25  1  0
  1 26  1  0
  8 27  1  0
  8 28  1  0
 12 29  1  0
 12 30  1  0
 14 31  1  0
 15 32  1  0
 16 33  1  0
 17 34  1  0
 20 35  1  0
 20 36  1  0
 20 37  1  0
 24 38  1  0
 24 39  1  0
M  CHG  2  11  -1  22  -1
M  END
>  <UniqueID>  (15) 
15

>  <SMILES>  (15) 
C=c1oc(C(=O)OCC(=O)[N-]Cc2ccccc2OC)c([O-])c1=C

>  <Energy>  (15) 
61.83458166680056

>  <Genealogy>  (15) 
C=c1oc(C(=O)OCC(=O)[N-]Cc2ccccc2OC)c([O-])c1=C (protonated)
C=c1oc(C(=O)OCC(=O)[N-]Cc2ccccc2OC)c([O-])c1=C (3D coordinates assigned)
C=c1oc(C(=O)OCC(=O)[N-]Cc2ccccc2OC)c([O-])c1=C (optimized conformer: 61.83458166680056 kcal/mol)

>  <smiles>  (15) 
C=c1oc(C(=O)OCC(=O)NCc2ccccc2OC)c(O)c1=C

>  <score_type>  (15) 
oracle

>  <origin>  (15) 
adg

>  <m_score__min__energy>  (15) 
-12.69

>  <m_primary>  (15) 
energy

$$$$
15:0
     RDKit          3D

 37 40  0  0  0  0  0  0  0  0999 V2000
   63.8862   34.8165   48.1867 H   0  0  0  0  0  0  0  0  0  0  0  0
   63.7480   33.9510   47.5220 C   0  0  0  0  0  0  0  0  0  0  0  0
   64.3755   33.8404   46.6253 H   0  0  0  0  0  0  0  0  0  0  0  0
   62.8240   33.0400   47.8020 C   0  0  0  0  0  0  0  0  0  0  0  0
   62.5730   31.9090   47.0220 O   0  0  0  0  0  0  0  0  0  0  0  0
   61.5400   31.2080   47.6450 C   0  0  0  0  0  0  0  0  0  0  0  0
   60.9590   30.0190   47.2140 C   0  0  0  0  0  0  0  0  0  0  0  0
   61.3009   29.5265   46.2917 H   0  0  0  0  0  0  0  0  0  0  0  0
   59.9170   29.4590   47.9920 C   0  0  0  0  0  0  0  0  0  0  0  0
   59.2730   28.2680   47.6250 O   0  0  0  0  0  0  0  0  0  0  0  0
   58.1390   28.1820   46.8080 C   0  0  0  0  0  0  0  0  0  0  0  0
   57.7830   29.2500   46.0520 N   0  0  0  0  0  0  0  0  0  0  0  0
   56.6760   29.2060   45.2640 C   0  0  0  0  0  0  0  0  0  0  0  0
   56.3130   30.2170   44.5230 N   0  0  0  0  0  0  0  0  0  0  0  0
   56.8300   31.5910   44.3800 C   0  0  0  0  0  0  0  0  0  0  0  0
   55.8946   32.0483   44.7348 H   0  0  0  0  0  0  0  0  0  0  0  0
   57.7850   31.8580   43.2270 C   0  0  0  0  0  0  0  0  0  0  0  0
   58.0379   31.0512   42.5233 H   0  0  0  0  0  0  0  0  0  0  0  0
   57.8293   32.5876   42.4050 H   0  0  0  0  0  0  0  0  0  0  0  0
   58.3070   31.8120   44.6650 C   0  0  0  0  0  0  0  0  0  0  0  0
   58.9356   30.9721   44.9960 H   0  0  0  0  0  0  0  0  0  0  0  0
   58.8829   32.4949   45.3069 H   0  0  0  0  0  0  0  0  0  0  0  0
   55.9220   28.0780   45.2440 N   0  0  0  0  0  0  0  0  0  0  0  0
   56.2620   27.0050   46.0020 C   0  0  0  0  0  0  0  0  0  0  0  0
   55.5260   25.9360   45.9640 N   0  0  0  0  0  0  0  0  0  0  0  0
   55.9910   24.6120   46.3650 C   0  0  0  0  0  0  0  0  0  0  0  0
   56.0134   24.5482   47.4629 H   0  0  0  0  0  0  0  0  0  0  0  0
   55.3076   23.8473   45.9672 H   0  0  0  0  0  0  0  0  0  0  0  0
   57.0024   24.4425   45.9672 H   0  0  0  0  0  0  0  0  0  0  0  0
   57.3700   27.0620   46.7880 N   0  0  0  0  0  0  0  0  0  0  0  0
   59.4740   30.1280   49.1560 C   0  0  0  0  0  0  0  0  0  0  0  0
   58.6466   29.7043   49.7442 H   0  0  0  0  0  0  0  0  0  0  0  0
   60.0770   31.3270   49.5710 C   0  0  0  0  0  0  0  0  0  0  0  0
   59.7413   31.8453   50.4813 H   0  0  0  0  0  0  0  0  0  0  0  0
   61.1130   31.8390   48.7940 C   0  0  0  0  0  0  0  0  0  0  0  0
   61.9140   33.0380   48.9450 C   0  0  0  0  0  0  0  0  0  0  0  0
   61.8380   33.8950   49.8650 O   0  0  0  0  0  0  0  0  0  0  0  0
  1  2  1  0
  2  3  1  0
  2  4  2  0
  4  5  1  0
  5  6  1  0
  6  7  2  0
  7  8  1  0
  7  9  1  0
  9 10  1  0
 10 11  1  0
 11 12  2  0
 12 13  1  0
 13 14  2  0
 14 15  1  0
 15 16  1  0
 15 17  1  0
 17 18  1  0
 17 19  1  0
 17 20  1  0
 20 21  1  0
 20 22  1  0
 13 23  1  0
 23 24  1  0
 24 25  2  3
 25 26  1  0
 26 27  1  0
 26 28  1  0
 26 29  1  0
 24 30  1  0
  9 31  2  0
 31 32  1  0
 31 33  1  0
 33 34  1  0
 33 35  2  0
 35 36  1  0
 36 37  2  0
 36  4  1  0
 35  6  1  0
 30 11  1  0
 20 15  1  0
M  CHG  2  23  -1  30  -1
M  END
>  <UniqueID>  (16) 
16

>  <SMILES>  (16) 
C=C1Oc2cc(Oc3n/c(=N\C4CC4)[n-]c(=NC)[n-]3)ccc2C1=O

>  <Energy>  (16) 
349.2019321682647

>  <Genealogy>  (16) 
C=C1Oc2cc(Oc3nc(=NC4CC4)[n-]c(=NC)[n-]3)ccc2C1=O (protonated)
C=C1Oc2cc(Oc3n/c(=N\C4CC4)[n-]c(=NC)[n-]3)ccc2C1=O (cis-trans isomerization)
C=C1Oc2cc(Oc3n/c(=N\C4CC4)[n-]c(=NC)[n-]3)ccc2C1=O (3D coordinates assigned)
C=C1Oc2cc(Oc3n/c(=N\C4CC4)[n-]c(=NC)[n-]3)ccc2C1=O (nonaromatic ring conformer: 349.2019321682647 kcal/mol)

>  <smiles>  (16) 
C=C1Oc2cc(Oc3nc(=NC4CC4)[nH]c(=NC)[nH]3)ccc2C1=O

>  <score_type>  (16) 
oracle

>  <origin>  (16) 
adg

>  <m_score__min__energy>  (16) 
-10.449999999999999

>  <m_primary>  (16) 
energy

$$$$
16:0
     RDKit          3D

 49 52  0  0  0  0  0  0  0  0999 V2000
   60.6495   34.8218   49.5505 H   0  0  0  0  0  0  0  0  0  0  0  0
   60.1110   34.5850   48.6210 C   0  0  0  0  0  0  0  0  0  0  0  0
   60.1580   35.2870   47.5090 O   0  0  0  0  0  0  0  0  0  0  0  0
   59.4170   34.7440   46.5890 N   0  0  0  0  0  0  0  0  0  0  0  0
   59.2740   35.1430   45.6350 H   0  0  0  0  0  0  0  0  0  0  0  0
   58.8640   33.6390   47.1240 C   0  0  0  0  0  0  0  0  0  0  0  0
   58.0290   32.8410   46.5220 N   0  0  0  0  0  0  0  0  0  0  0  0
   57.8520   32.7340   45.1030 C   0  0  0  0  0  0  0  0  0  0  0  0
   57.9050   33.7840   44.4080 O   0  0  0  0  0  0  0  0  0  0  0  0
   57.5400   31.4410   44.4460 C   0  0  0  0  0  0  0  0  0  0  0  0
   56.9850   31.4070   43.1550 C   0  0  0  0  0  0  0  0  0  0  0  0
   56.7850   32.3474   42.6205 H   0  0  0  0  0  0  0  0  0  0  0  0
   56.6860   30.1850   42.5470 C   0  0  0  0  0  0  0  0  0  0  0  0
   56.2453   30.1670   41.5393 H   0  0  0  0  0  0  0  0  0  0  0  0
   56.9450   28.9870   43.2150 C   0  0  0  0  0  0  0  0  0  0  0  0
   56.6997   28.0277   42.7358 H   0  0  0  0  0  0  0  0  0  0  0  0
   57.5160   29.0030   44.4930 C   0  0  0  0  0  0  0  0  0  0  0  0
   57.8040   27.4880   45.3450 S   0  0  0  0  0  0  0  0  0  0  0  0
   56.5370   27.0770   46.0420 O   0  0  0  0  0  0  0  0  0  0  0  0
   58.1810   26.4130   44.3630 O   0  0  0  0  0  0  0  0  0  0  0  0
   59.0800   27.6950   46.5200 N   0  0  0  0  0  0  0  0  0  0  0  0
   58.6370   28.6240   47.5810 C   0  0  0  0  0  0  0  0  0  0  0  0
   58.1008   29.4647   47.1166 H   0  0  0  0  0  0  0  0  0  0  0  0
   57.9830   28.0686   48.2694 H   0  0  0  0  0  0  0  0  0  0  0  0
   59.8170   29.1740   48.3870 C   0  0  0  0  0  0  0  0  0  0  0  0
   59.4438   29.8872   49.1367 H   0  0  0  0  0  0  0  0  0  0  0  0
   60.3309   28.3389   48.8855 H   0  0  0  0  0  0  0  0  0  0  0  0
   60.7650   29.8570   47.4980 N   0  0  0  0  0  0  0  0  0  0  0  0
   61.6550   30.8700   48.0170 C   0  0  0  0  0  0  0  0  0  0  0  0
   62.2960   31.7770   47.1510 C   0  0  0  0  0  0  0  0  0  0  0  0
   62.1206   31.7127   46.0670 H   0  0  0  0  0  0  0  0  0  0  0  0
   63.1530   32.7580   47.6570 C   0  0  0  0  0  0  0  0  0  0  0  0
   63.6496   33.4603   46.9713 H   0  0  0  0  0  0  0  0  0  0  0  0
   63.3800   32.8480   49.0330 C   0  0  0  0  0  0  0  0  0  0  0  0
   64.2120   33.8000   49.5220 F   0  0  0  0  0  0  0  0  0  0  0  0
   62.7490   31.9570   49.9040 C   0  0  0  0  0  0  0  0  0  0  0  0
   62.9280   32.0279   50.9870 H   0  0  0  0  0  0  0  0  0  0  0  0
   61.8900   30.9750   49.4010 C   0  0  0  0  0  0  0  0  0  0  0  0
   61.3936   30.2785   50.0927 H   0  0  0  0  0  0  0  0  0  0  0  0
   60.7480   29.5370   46.0640 C   0  0  0  0  0  0  0  0  0  0  0  0
   60.0177   30.1834   45.5553 H   0  0  0  0  0  0  0  0  0  0  0  0
   61.7510   29.7051   45.6449 H   0  0  0  0  0  0  0  0  0  0  0  0
   60.3560   28.0670   45.8580 C   0  0  0  0  0  0  0  0  0  0  0  0
   60.2549   27.8818   44.7784 H   0  0  0  0  0  0  0  0  0  0  0  0
   61.1475   27.4545   46.3145 H   0  0  0  0  0  0  0  0  0  0  0  0
   57.8120   30.2300   45.1060 C   0  0  0  0  0  0  0  0  0  0  0  0
   58.2602   30.2444   46.1104 H   0  0  0  0  0  0  0  0  0  0  0  0
   59.2740   33.5010   48.4300 C   0  0  0  0  0  0  0  0  0  0  0  0
   59.0011   32.7157   49.1504 H   0  0  0  0  0  0  0  0  0  0  0  0
  1  2  1  0
  2  3  1  0
  3  4  1  0
  4  5  1  0
  4  6  1  0
  6  7  2  0
  7  8  1  0
  8  9  2  0
  8 10  1  0
 10 11  2  0
 11 12  1  0
 11 13  1  0
 13 14  1  0
 13 15  2  0
 15 16  1  0
 15 17  1  0
 17 18  1  0
 18 19  2  0
 18 20  2  0
 18 21  1  0
 21 22  1  0
 22 23  1  0
 22 24  1  0
 22 25  1  0
 25 26  1  0
 25 27  1  0
 25 28  1  0
 28 29  1  0
 29 30  2  0
 30 31  1  0
 30 32  1  0
 32 33  1  0
 32 34  2  0
 34 35  1  0
 34 36  1  0
 36 37  1  0
 36 38  2  0
 38 39  1  0
 28 40  1  0
 40 41  1  0
 40 42  1  0
 40 43  1  0
 43 44  1  0
 43 45  1  0
 17 46  2  0
 46 47  1  0
  6 48  1  0
 48 49  1  0
 48  2  2  0
 46 10  1  0
 43 21  1  0
 38 29  1  0
M  END
>  <UniqueID>  (17) 
17

>  <SMILES>  (17) 
O=C(/N=c1/cco[nH]1)c1cccc(S(=O)(=O)N2CCN(c3ccc(F)cc3)CC2)c1

>  <Energy>  (17) 
100.83079262821714

>  <Genealogy>  (17) 
O=C(/N=c1/cco[nH]1)c1cccc(S(=O)(=O)N2CCN(c3ccc(F)cc3)CC2)c1 (cis-trans isomerization)
O=C(/N=c1/cco[nH]1)c1cccc(S(=O)(=O)N2CCN(c3ccc(F)cc3)CC2)c1 (3D coordinates assigned)
O=C(/N=c1/cco[nH]1)c1cccc(S(=O)(=O)N2CCN(c3ccc(F)cc3)CC2)c1 (nonaromatic ring conformer: 100.83079262821714 kcal/mol)

>  <smiles>  (17) 
O=C(N=c1cco[nH]1)c1cccc(S(=O)(=O)N2CCN(c3ccc(F)cc3)CC2)c1

>  <score_type>  (17) 
oracle

>  <origin>  (17) 
adg

>  <m_score__min__energy>  (17) 
-9.8900000000000006

>  <m_primary>  (17) 
energy

$$$$
17:0
     RDKit          3D

 59 62  0  0  0  0  0  0  0  0999 V2000
   63.4310   31.8067   51.2701 H   0  0  0  0  0  0  0  0  0  0  0  0
   62.4440   32.1050   50.8870 C   0  0  0  0  0  0  0  0  0  0  0  0
   61.6930   32.9020   51.6640 C   0  0  0  0  0  0  0  0  0  0  0  0
   62.1882   33.7039   52.2313 H   0  0  0  0  0  0  0  0  0  0  0  0
   60.2240   32.7460   51.7890 C   0  0  0  0  0  0  0  0  0  0  0  0
   59.4650   33.8290   52.2620 C   0  0  0  0  0  0  0  0  0  0  0  0
   59.9581   34.7742   52.5329 H   0  0  0  0  0  0  0  0  0  0  0  0
   58.0810   33.6980   52.3860 C   0  0  0  0  0  0  0  0  0  0  0  0
   57.4799   34.5382   52.7639 H   0  0  0  0  0  0  0  0  0  0  0  0
   57.4610   32.5000   52.0300 C   0  0  0  0  0  0  0  0  0  0  0  0
   56.3719   32.3857   52.1336 H   0  0  0  0  0  0  0  0  0  0  0  0
   58.2370   31.4480   51.5410 C   0  0  0  0  0  0  0  0  0  0  0  0
   57.7568   30.5027   51.2482 H   0  0  0  0  0  0  0  0  0  0  0  0
   59.5880   31.5880   51.4250 N   0  0  0  0  0  0  0  0  0  0  0  0
   60.1220   30.7870   51.0180 H   0  0  0  0  0  0  0  0  0  0  0  0
   62.0460   31.5960   49.5530 C   0  0  0  0  0  0  0  0  0  0  0  0
   61.1540   30.5690   49.5150 N   0  0  0  0  0  0  0  0  0  0  0  0
   60.7090   30.0200   48.3510 C   0  0  0  0  0  0  0  0  0  0  0  0
   59.7170   28.8900   48.3940 C   0  0  0  0  0  0  0  0  0  0  0  0
   58.8421   29.1640   47.7861 H   0  0  0  0  0  0  0  0  0  0  0  0
   59.4397   28.7254   49.4457 H   0  0  0  0  0  0  0  0  0  0  0  0
   60.3050   27.5760   47.8510 C   0  0  0  0  0  0  0  0  0  0  0  0
   59.8582   26.7400   48.4090 H   0  0  0  0  0  0  0  0  0  0  0  0
   61.3955   27.6363   47.9817 H   0  0  0  0  0  0  0  0  0  0  0  0
   60.0470   27.3500   46.3510 C   0  0  0  0  0  0  0  0  0  0  0  0
   60.0458   26.2683   46.1510 H   0  0  0  0  0  0  0  0  0  0  0  0
   60.8445   27.8603   45.7910 H   0  0  0  0  0  0  0  0  0  0  0  0
   58.7280   27.9270   45.9060 C   0  0  0  0  0  0  0  0  0  0  0  0
   57.5450   27.1880   46.0420 C   0  0  0  0  0  0  0  0  0  0  0  0
   57.5742   26.1845   46.4916 H   0  0  0  0  0  0  0  0  0  0  0  0
   56.3640   27.7060   45.6210 N   0  0  0  0  0  0  0  0  0  0  0  0
   56.2800   28.9360   45.0470 C   0  0  0  0  0  0  0  0  0  0  0  0
   55.1530   29.3790   44.7000 O   0  0  0  0  0  0  0  0  0  0  0  0
   57.4430   29.7050   44.8620 C   0  0  0  0  0  0  0  0  0  0  0  0
   57.3930   31.0450   44.2470 C   0  0  0  0  0  0  0  0  0  0  0  0
   57.8780   31.2110   43.0960 O   0  0  0  0  0  0  0  0  0  0  0  0
   56.8060   32.1650   44.9210 N   0  0  0  0  0  0  0  0  0  0  0  0
   57.3780   33.5080   44.9390 C   0  0  0  0  0  0  0  0  0  0  0  0
   57.9756   33.6653   44.0290 H   0  0  0  0  0  0  0  0  0  0  0  0
   56.5695   34.2529   44.9769 H   0  0  0  0  0  0  0  0  0  0  0  0
   58.2570   33.6560   46.1490 C   0  0  0  0  0  0  0  0  0  0  0  0
   58.0700   32.8300   47.2710 C   0  0  0  0  0  0  0  0  0  0  0  0
   57.2978   32.0468   47.2527 H   0  0  0  0  0  0  0  0  0  0  0  0
   58.8630   33.0010   48.4110 C   0  0  0  0  0  0  0  0  0  0  0  0
   58.7176   32.3475   49.2838 H   0  0  0  0  0  0  0  0  0  0  0  0
   59.8410   34.0020   48.4430 C   0  0  0  0  0  0  0  0  0  0  0  0
   60.4669   34.1324   49.3382 H   0  0  0  0  0  0  0  0  0  0  0  0
   60.0210   34.8360   47.3350 C   0  0  0  0  0  0  0  0  0  0  0  0
   60.7879   35.6242   47.3601 H   0  0  0  0  0  0  0  0  0  0  0  0
   59.2280   34.6700   46.1950 C   0  0  0  0  0  0  0  0  0  0  0  0
   59.3653   35.3364   45.3307 H   0  0  0  0  0  0  0  0  0  0  0  0
   58.6650   29.2000   45.3220 C   0  0  0  0  0  0  0  0  0  0  0  0
   59.5791   29.8042   45.2249 H   0  0  0  0  0  0  0  0  0  0  0  0
   61.1930   30.5080   47.1310 C   0  0  0  0  0  0  0  0  0  0  0  0
   60.8531   30.0673   46.1822 H   0  0  0  0  0  0  0  0  0  0  0  0
   62.1100   31.5580   47.1310 C   0  0  0  0  0  0  0  0  0  0  0  0
   62.4938   31.9522   46.1785 H   0  0  0  0  0  0  0  0  0  0  0  0
   62.5420   32.1100   48.3390 C   0  0  0  0  0  0  0  0  0  0  0  0
   63.2641   32.9398   48.3423 H   0  0  0  0  0  0  0  0  0  0  0  0
  1  2  1  0
  2  3  2  0
  3  4  1  0
  3  5  1  0
  5  6  2  0
  6  7  1  0
  6  8  1  0
  8  9  1  0
  8 10  2  0
 10 11  1  0
 10 12  1  0
 12 13  1  0
 12 14  2  0
 14 15  1  0
  2 16  1  0
 16 17  2  0
 17 18  1  0
 18 19  1  0
 19 20  1  0
 19 21  1  0
 19 22  1  0
 22 23  1  0
 22 24  1  0
 22 25  1  0
 25 26  1  0
 25 27  1  0
 25 28  1  0
 28 29  2  0
 29 30  1  0
 29 31  1  0
 31 32  1  0
 32 33  2  0
 32 34  1  0
 34 35  1  0
 35 36  2  0
 35 37  1  0
 37 38  1  0
 38 39  1  0
 38 40  1  0
 38 41  1  0
 41 42  2  0
 42 43  1  0
 42 44  1  0
 44 45  1  0
 44 46  2  0
 46 47  1  0
 46 48  1  0
 48 49  1  0
 48 50  2  0
 50 51  1  0
 34 52  2  0
 52 53  1  0
 18 54  2  0
 54 55  1  0
 54 56  1  0
 56 57  1  0
 56 58  2  0
 58 59  1  0
 14  5  1  0
 58 16  1  0
 52 28  1  0
 50 41  1  0
M  CHG  3  14   1  31  -1  37  -1
M  END
>  <UniqueID>  (18) 
18

>  <SMILES>  (18) 
O=C([N-]Cc1ccccc1)c1cc(CCCc2cccc(/C=C/c3cccc[nH+]3)n2)c[n-]c1=O

>  <Energy>  (18) 
69.09171301781072

>  <Genealogy>  (18) 
O=C([N-]Cc1ccccc1)c1cc(CCCc2cccc(C=Cc3cccc[nH+]3)n2)c[n-]c1=O (protonated)
O=C([N-]Cc1ccccc1)c1cc(CCCc2cccc(/C=C/c3cccc[nH+]3)n2)c[n-]c1=O (cis-trans isomerization)
O=C([N-]Cc1ccccc1)c1cc(CCCc2cccc(/C=C/c3cccc[nH+]3)n2)c[n-]c1=O (3D coordinates assigned)
O=C([N-]Cc1ccccc1)c1cc(CCCc2cccc(/C=C/c3cccc[nH+]3)n2)c[n-]c1=O (optimized conformer: 69.09171301781072 kcal/mol)

>  <smiles>  (18) 
O=C(NCc1ccccc1)c1cc(CCCc2cccc(C=Cc3ccccn3)n2)c[nH]c1=O

>  <score_type>  (18) 
oracle

>  <origin>  (18) 
adg

>  <m_score__min__energy>  (18) 
-11.81

>  <m_primary>  (18) 
energy

$$$$
18:0
     RDKit          3D

 54 56  0  0  0  0  0  0  0  0999 V2000
   55.9110   27.7980   45.4690 O   0  0  0  0  0  0  0  0  0  0  0  0
   56.7490   28.7290   45.3290 C   0  0  0  0  0  0  0  0  0  0  0  0
   58.1830   28.3790   45.2170 C   0  0  0  0  0  0  0  0  0  0  0  0
   58.9830   27.9850   46.2200 C   0  0  0  0  0  0  0  0  0  0  0  0
   59.8280   28.8870   47.0180 C   0  0  0  0  0  0  0  0  0  0  0  0
   60.6630   29.8140   46.3760 C   0  0  0  0  0  0  0  0  0  0  0  0
   61.4670   30.6730   47.1330 C   0  0  0  0  0  0  0  0  0  0  0  0
   61.4510   30.5990   48.5300 C   0  0  0  0  0  0  0  0  0  0  0  0
   60.6390   29.6590   49.1710 C   0  0  0  0  0  0  0  0  0  0  0  0
   59.8250   28.8040   48.4170 C   0  0  0  0  0  0  0  0  0  0  0  0
   56.2990   30.0850   45.2600 N   0  0  0  0  0  0  0  0  0  0  0  0
   56.2510   30.8660   44.0290 C   0  0  0  0  0  0  0  0  0  0  0  0
   57.5530   31.5870   43.8100 C   0  0  0  0  0  0  0  0  0  0  0  0
   58.1870   31.3540   42.7450 O   0  0  0  0  0  0  0  0  0  0  0  0
   58.0710   32.5500   44.7590 N   0  0  0  0  0  0  0  0  0  0  0  0
   59.0000   33.6120   44.3440 C   0  0  0  0  0  0  0  0  0  0  0  0
   58.5950   34.9550   44.9810 C   0  0  0  0  0  0  0  0  0  0  0  0
   58.5060   34.9270   46.5220 C   0  0  0  0  0  0  0  0  0  0  0  0
   59.3950   33.9280   47.1590 N   0  0  0  0  0  0  0  0  0  0  0  0
   59.8350   34.3390   48.5120 C   0  0  0  0  0  0  0  0  0  0  0  0
   61.2620   33.9400   48.8360 C   0  0  0  0  0  0  0  0  0  0  0  0
   62.2190   33.8540   47.8110 C   0  0  0  0  0  0  0  0  0  0  0  0
   63.5410   33.5030   48.1040 C   0  0  0  0  0  0  0  0  0  0  0  0
   63.9170   33.2270   49.4220 C   0  0  0  0  0  0  0  0  0  0  0  0
   65.5750   32.7860   49.7870 Cl  0  0  0  0  0  0  0  0  0  0  0  0
   62.9680   33.2920   50.4460 C   0  0  0  0  0  0  0  0  0  0  0  0
   61.6450   33.6420   50.1570 C   0  0  0  0  0  0  0  0  0  0  0  0
   58.8650   32.5480   47.1070 C   0  0  0  0  0  0  0  0  0  0  0  0
   57.6560   32.4960   46.1690 C   0  0  0  0  0  0  0  0  0  0  0  0
   58.6358   28.4484   44.2169 H   0  0  0  0  0  0  0  0  0  0  0  0
   59.0087   26.9124   46.4624 H   0  0  0  0  0  0  0  0  0  0  0  0
   60.6855   29.8654   45.2774 H   0  0  0  0  0  0  0  0  0  0  0  0
   62.1125   31.4075   46.6292 H   0  0  0  0  0  0  0  0  0  0  0  0
   62.0775   31.2806   49.1240 H   0  0  0  0  0  0  0  0  0  0  0  0
   60.6392   29.5906   50.2689 H   0  0  0  0  0  0  0  0  0  0  0  0
   59.1835   28.0675   48.9229 H   0  0  0  0  0  0  0  0  0  0  0  0
   56.0634   30.1921   43.1801 H   0  0  0  0  0  0  0  0  0  0  0  0
   55.4432   31.6082   44.1104 H   0  0  0  0  0  0  0  0  0  0  0  0
   60.0184   33.3498   44.6665 H   0  0  0  0  0  0  0  0  0  0  0  0
   58.9653   33.7102   43.2489 H   0  0  0  0  0  0  0  0  0  0  0  0
   59.3399   35.7113   44.6928 H   0  0  0  0  0  0  0  0  0  0  0  0
   57.5851   35.1865   44.6117 H   0  0  0  0  0  0  0  0  0  0  0  0
   58.7766   35.9231   46.9022 H   0  0  0  0  0  0  0  0  0  0  0  0
   57.4742   34.6425   46.7760 H   0  0  0  0  0  0  0  0  0  0  0  0
   59.7551   35.4336   48.5857 H   0  0  0  0  0  0  0  0  0  0  0  0
   59.1848   33.8215   49.2327 H   0  0  0  0  0  0  0  0  0  0  0  0
   61.9269   34.0640   46.7715 H   0  0  0  0  0  0  0  0  0  0  0  0
   64.2856   33.4441   47.2965 H   0  0  0  0  0  0  0  0  0  0  0  0
   63.2623   33.0673   51.4818 H   0  0  0  0  0  0  0  0  0  0  0  0
   60.9006   33.6845   50.9658 H   0  0  0  0  0  0  0  0  0  0  0  0
   59.6467   31.8697   46.7344 H   0  0  0  0  0  0  0  0  0  0  0  0
   58.5574   32.2370   48.1163 H   0  0  0  0  0  0  0  0  0  0  0  0
   57.1059   31.5598   46.3450 H   0  0  0  0  0  0  0  0  0  0  0  0
   57.0176   33.3674   46.3767 H   0  0  0  0  0  0  0  0  0  0  0  0
  1  2  2  0
  2  3  1  0
  3  4  2  3
  4  5  1  0
  5  6  2  0
  6  7  1  0
  7  8  2  0
  8  9  1  0
  9 10  2  0
  2 11  1  0
 11 12  1  0
 12 13  1  0
 13 14  2  0
 13 15  1  0
 15 16  1  0
 16 17  1  0
 17 18  1  0
 18 19  1  0
 19 20  1  0
 20 21  1  0
 21 22  2  0
 22 23  1  0
 23 24  2  0
 24 25  1  0
 24 26  1  0
 26 27  2  0
 19 28  1  0
 28 29  1  0
 10  5  1  0
 29 15  1  0
 27 21  1  0
  3 30  1  0
  4 31  1  0
  6 32  1  0
  7 33  1  0
  8 34  1  0
  9 35  1  0
 10 36  1  0
 12 37  1  0
 12 38  1  0
 16 39  1  0
 16 40  1  0
 17 41  1  0
 17 42  1  0
 18 43  1  0
 18 44  1  0
 20 45  1  0
 20 46  1  0
 22 47  1  0
 23 48  1  0
 26 49  1  0
 27 50  1  0
 28 51  1  0
 28 52  1  0
 29 53  1  0
 29 54  1  0
M  CHG  1  11  -1
M  END
>  <UniqueID>  (19) 
19

>  <SMILES>  (19) 
O=C(C=Cc1ccccc1)[N-]CC(=O)N1CCCN(Cc2ccc(Cl)cc2)CC1

>  <Energy>  (19) 
69.50254849382732

>  <Genealogy>  (19) 
O=C(C=Cc1ccccc1)[N-]CC(=O)N1CCCN(Cc2ccc(Cl)cc2)CC1 (protonated)
O=C(C=Cc1ccccc1)[N-]CC(=O)N1CCCN(Cc2ccc(Cl)cc2)CC1 (3D coordinates assigned)
O=C(C=Cc1ccccc1)[N-]CC(=O)N1CCCN(Cc2ccc(Cl)cc2)CC1 (nonaromatic ring conformer: 69.50254849382732 kcal/mol)

>  <smiles>  (19) 
O=C(C=Cc1ccccc1)NCC(=O)N1CCCN(Cc2ccc(Cl)cc2)CC1

>  <score_type>  (19) 
oracle

>  <origin>  (19) 
adg

>  <m_score__min__energy>  (19) 
-8.0600000000000005

>  <m_primary>  (19) 
energy

$$$$
19:0
     RDKit          3D

 61 64  0  0  1  0  0  0  0  0999 V2000
   58.4050   32.3080   49.7090 C   0  0  0  0  0  0  0  0  0  0  0  0
   58.4230   31.3810   50.9050 C   0  0  0  0  0  0  0  0  0  0  0  0
   59.1980   31.8930   51.9920 N   0  0  0  0  0  0  0  0  0  0  0  0
   59.5380   33.2760   51.9020 C   0  0  0  0  0  0  0  0  0  0  0  0
   61.0420   33.4590   51.8020 C   0  0  0  0  0  0  0  0  0  0  0  0
   61.4940   32.5340   50.7950 N   0  0  0  0  0  0  0  0  0  0  0  0
   62.1150   32.9000   49.5790 C   0  0  0  0  0  0  0  0  0  0  0  0
   63.4540   32.7390   49.3100 C   0  0  0  0  0  0  0  0  0  0  0  0
   64.0410   33.1020   48.1100 C   0  0  0  0  0  0  0  0  0  0  0  0
   63.2820   33.6580   47.1040 C   0  0  0  0  0  0  0  0  0  0  0  0
   61.9370   33.8260   47.3610 C   0  0  0  0  0  0  0  0  0  0  0  0
   61.1590   34.4060   46.3010 N   0  0  0  0  0  0  0  0  0  0  0  0
   59.9860   33.9340   45.9940 C   0  0  0  0  0  0  0  0  0  0  0  0
   59.1660   34.7000   45.2450 N   0  0  0  0  0  0  0  0  0  0  0  0
   57.9360   34.2910   44.8820 C   0  0  0  0  0  0  0  0  0  0  0  0
   57.5390   33.0420   45.3110 C   0  0  0  0  0  0  0  0  0  0  0  0
   56.2940   32.6400   44.9380 F   0  0  0  0  0  0  0  0  0  0  0  0
   58.3550   32.2230   46.0850 C   0  0  0  0  0  0  0  0  0  0  0  0
   57.9130   31.0880   46.4370 N   0  0  0  0  0  0  0  0  0  0  0  0
   58.6810   29.8900   46.5060 C   0  0  0  0  0  0  0  0  0  0  0  0
   59.2910   29.5880   47.7090 C   0  0  0  0  0  0  0  0  0  0  0  0
   60.0440   28.4550   47.8500 C   0  0  0  0  0  0  0  0  0  0  0  0
   60.1670   27.6320   46.7490 C   0  0  0  0  0  0  0  0  0  0  0  0
   59.5550   27.9270   45.5310 C   0  0  0  0  0  0  0  0  0  0  0  0
   58.7840   29.0870   45.3860 C   0  0  0  0  0  0  0  0  0  0  0  0
   58.1670   29.3880   44.1500 N   0  0  0  0  0  0  0  0  0  0  0  0
   56.7940   29.6810   43.9850 C   0  0  0  0  0  0  0  0  0  0  0  0
   56.2650   29.9840   42.6080 C   0  0  0  0  0  0  0  0  0  0  0  0
   55.9530   29.7130   44.9100 O   0  0  0  0  0  0  0  0  0  0  0  0
   59.5670   32.7170   46.3970 N   0  0  0  0  0  0  0  0  0  0  0  0
   61.3530   33.4640   48.5540 C   0  0  0  0  0  0  0  0  0  0  0  0
   61.2850   31.1140   51.0670 C   0  0  0  0  0  0  0  0  0  0  0  0
   60.3210   31.0200   52.2240 C   0  0  0  0  0  0  0  0  0  0  0  0
   58.3847   33.3521   50.0546 H   0  0  0  0  0  0  0  0  0  0  0  0
   59.3066   32.1403   49.1015 H   0  0  0  0  0  0  0  0  0  0  0  0
   57.5106   32.1054   49.1015 H   0  0  0  0  0  0  0  0  0  0  0  0
   57.3891   31.2325   51.2500 H   0  0  0  0  0  0  0  0  0  0  0  0
   58.8863   30.4362   50.5844 H   0  0  0  0  0  0  0  0  0  0  0  0
   59.0627   33.7063   51.0082 H   0  0  0  0  0  0  0  0  0  0  0  0
   59.1816   33.7852   52.8096 H   0  0  0  0  0  0  0  0  0  0  0  0
   61.2816   34.4911   51.5066 H   0  0  0  0  0  0  0  0  0  0  0  0
   61.5334   33.2710   52.7680 H   0  0  0  0  0  0  0  0  0  0  0  0
   64.0925   32.2984   50.0898 H   0  0  0  0  0  0  0  0  0  0  0  0
   65.1193   32.9456   47.9591 H   0  0  0  0  0  0  0  0  0  0  0  0
   63.7267   33.9537   46.1423 H   0  0  0  0  0  0  0  0  0  0  0  0
   59.4490   35.6500   44.9110 H   0  0  0  0  0  0  0  0  0  0  0  0
   57.2770   34.9248   44.2705 H   0  0  0  0  0  0  0  0  0  0  0  0
   59.1692   30.2683   48.5648 H   0  0  0  0  0  0  0  0  0  0  0  0
   60.5328   28.2092   48.8043 H   0  0  0  0  0  0  0  0  0  0  0  0
   60.7669   26.7140   46.8349 H   0  0  0  0  0  0  0  0  0  0  0  0
   59.6788   27.2435   44.6780 H   0  0  0  0  0  0  0  0  0  0  0  0
   58.7630   29.3970   43.2760 H   0  0  0  0  0  0  0  0  0  0  0  0
   55.3133   30.5291   42.6926 H   0  0  0  0  0  0  0  0  0  0  0  0
   56.9940   30.6015   42.0628 H   0  0  0  0  0  0  0  0  0  0  0  0
   56.1012   29.0428   42.0628 H   0  0  0  0  0  0  0  0  0  0  0  0
   60.1930   32.1130   46.9790 H   0  0  0  0  0  0  0  0  0  0  0  0
   60.2742   33.6208   48.7013 H   0  0  0  0  0  0  0  0  0  0  0  0
   60.8605   30.6188   50.1812 H   0  0  0  0  0  0  0  0  0  0  0  0
   62.2365   30.6181   51.3094 H   0  0  0  0  0  0  0  0  0  0  0  0
   59.9649   29.9837   52.3201 H   0  0  0  0  0  0  0  0  0  0  0  0
   60.8323   31.3220   53.1500 H   0  0  0  0  0  0  0  0  0  0  0  0
  1  2  1  0
  2  3  1  0
  3  4  1  0
  4  5  1  0
  5  6  1  0
  6  7  1  0
  7  8  2  0
  8  9  1  0
  9 10  2  0
 10 11  1  0
 11 12  1  0
 12 13  2  0
 13 14  1  0
 14 15  1  0
 15 16  2  0
 16 17  1  0
 16 18  1  0
 18 19  2  0
 19 20  1  0
 20 21  2  0
 21 22  1  0
 22 23  2  0
 23 24  1  0
 24 25  2  0
 25 26  1  0
 26 27  1  0
 27 28  1  0
 27 29  2  0
 18 30  1  0
 11 31  2  0
  6 32  1  0
 32 33  1  0
 33  3  1  0
 31  7  1  0
 30 13  1  0
 25 20  1  0
  1 34  1  0
  1 35  1  0
  1 36  1  0
  2 37  1  0
  2 38  1  0
  4 39  1  0
  4 40  1  0
  5 41  1  0
  5 42  1  0
  8 43  1  0
  9 44  1  0
 10 45  1  0
 14 46  1  0
 15 47  1  0
 21 48  1  0
 22 49  1  0
 23 50  1  0
 24 51  1  0
 26 52  1  0
 28 53  1  0
 28 54  1  0
 28 55  1  0
 30 56  1  0
 31 57  1  0
 32 58  1  0
 32 59  1  0
 33 60  1  0
 33 61  1  0
M  END
>  <smiles>  (20) 
CCN1CCN(c2cccc(N=c3[nH]cc(F)c(=Nc4ccccc4NC(C)=O)[nH]3)c2)CC1

>  <score_type>  (20) 
oracle

>  <origin>  (20) 
adg

>  <m_score__min__energy>  (20) 
-10.050000000000001

>  <m_primary>  (20) 
energy

$$$$
20:0
     RDKit          3D

 68 71  0  0  0  0  0  0  0  0999 V2000
   54.9990   25.4530   45.6380 C   0  0  0  0  0  0  0  0  0  0  0  0
   55.5430   26.7690   45.9350 N   0  0  0  0  0  0  0  0  0  0  0  0
   56.8550   27.2040   45.5590 C   0  0  0  0  0  0  0  0  0  0  0  0
   57.7830   26.3520   45.4830 O   0  0  0  0  0  0  0  0  0  0  0  0
   57.1590   28.6170   45.2770 C   0  0  0  0  0  0  0  0  0  0  0  0
   58.4310   29.1280   45.5620 C   0  0  0  0  0  0  0  0  0  0  0  0
   58.7400   30.4570   45.2650 C   0  0  0  0  0  0  0  0  0  0  0  0
   57.7750   31.3080   44.6960 C   0  0  0  0  0  0  0  0  0  0  0  0
   58.0800   32.7160   44.3370 C   0  0  0  0  0  0  0  0  0  0  0  0
   58.2440   32.9820   43.1140 O   0  0  0  0  0  0  0  0  0  0  0  0
   58.1590   33.7990   45.3050 N   0  0  0  0  0  0  0  0  0  0  0  0
   57.6120   33.4280   46.6350 C   0  0  0  0  0  0  0  0  0  0  0  0
   58.6220   32.7080   47.5430 C   0  0  0  0  0  0  0  0  0  0  0  0
   59.9570   33.3060   47.4560 N   0  0  0  0  0  0  0  0  0  0  0  0
   61.0630   32.6010   48.0640 C   0  0  0  0  0  0  0  0  0  0  0  0
   61.1030   31.3450   47.9590 O   0  0  0  0  0  0  0  0  0  0  0  0
   62.1700   33.2610   48.8800 C   0  0  2  0  0  0  0  0  0  0  0  0
   63.6030   32.8740   48.5040 C   0  0  0  0  0  0  0  0  0  0  0  0
   64.2180   32.1690   49.6490 N   0  0  0  0  0  0  0  0  0  0  0  0
   65.5460   32.7170   50.0290 C   0  0  0  0  0  0  0  0  0  0  0  0
   66.4790   31.5930   50.4930 C   0  0  0  0  0  0  0  0  0  0  0  0
   65.4840   33.8530   51.0730 C   0  0  0  0  0  0  0  0  0  0  0  0
   63.2270   32.0930   50.7430 C   0  0  0  0  0  0  0  0  0  0  0  0
   62.0900   33.0520   50.3970 C   0  0  2  0  0  0  0  0  0  0  0  0
   60.7090   32.7050   50.9460 C   0  0  0  0  0  0  0  0  0  0  0  0
   60.1390   31.4210   50.8340 C   0  0  0  0  0  0  0  0  0  0  0  0
   58.8390   31.1820   51.2870 C   0  0  0  0  0  0  0  0  0  0  0  0
   58.0770   32.2210   51.8210 C   0  0  0  0  0  0  0  0  0  0  0  0
   58.6120   33.5060   51.9050 C   0  0  0  0  0  0  0  0  0  0  0  0
   57.8550   34.5280   52.3820 F   0  0  0  0  0  0  0  0  0  0  0  0
   59.9180   33.7470   51.4710 C   0  0  0  0  0  0  0  0  0  0  0  0
   60.1180   34.5610   46.7210 C   0  0  0  0  0  0  0  0  0  0  0  0
   59.4960   34.4560   45.3210 C   0  0  0  0  0  0  0  0  0  0  0  0
   56.5120   30.7830   44.3790 C   0  0  0  0  0  0  0  0  0  0  0  0
   56.2060   29.4460   44.6630 C   0  0  0  0  0  0  0  0  0  0  0  0
   54.9770   28.9670   44.3520 F   0  0  0  0  0  0  0  0  0  0  0  0
   54.7810   24.9256   46.5784 H   0  0  0  0  0  0  0  0  0  0  0  0
   54.0723   25.5622   45.0555 H   0  0  0  0  0  0  0  0  0  0  0  0
   55.7323   24.8760   45.0555 H   0  0  0  0  0  0  0  0  0  0  0  0
   59.1908   28.4792   46.0222 H   0  0  0  0  0  0  0  0  0  0  0  0
   59.7480   30.8424   45.4781 H   0  0  0  0  0  0  0  0  0  0  0  0
   57.4930   34.5270   44.9550 H   0  0  0  0  0  0  0  0  0  0  0  0
   57.2825   34.3464   47.1428 H   0  0  0  0  0  0  0  0  0  0  0  0
   56.7847   32.7254   46.4562 H   0  0  0  0  0  0  0  0  0  0  0  0
   58.2717   32.7697   48.5839 H   0  0  0  0  0  0  0  0  0  0  0  0
   58.6944   31.6619   47.2107 H   0  0  0  0  0  0  0  0  0  0  0  0
   61.9685   34.3091   48.6137 H   0  0  0  0  0  0  0  0  0  0  0  0
   63.5896   32.2123   47.6254 H   0  0  0  0  0  0  0  0  0  0  0  0
   64.1843   33.7760   48.2623 H   0  0  0  0  0  0  0  0  0  0  0  0
   65.9554   33.1785   49.1183 H   0  0  0  0  0  0  0  0  0  0  0  0
   66.5017   31.5657   51.5924 H   0  0  0  0  0  0  0  0  0  0  0  0
   66.1114   30.6297   50.1098 H   0  0  0  0  0  0  0  0  0  0  0  0
   67.4935   31.7770   50.1098 H   0  0  0  0  0  0  0  0  0  0  0  0
   65.5075   33.4226   52.0850 H   0  0  0  0  0  0  0  0  0  0  0  0
   66.3470   34.5218   50.9389 H   0  0  0  0  0  0  0  0  0  0  0  0
   64.5534   34.4239   50.9389 H   0  0  0  0  0  0  0  0  0  0  0  0
   62.8402   31.0669   50.8293 H   0  0  0  0  0  0  0  0  0  0  0  0
   63.6874   32.3671   51.7037 H   0  0  0  0  0  0  0  0  0  0  0  0
   62.2332   34.0034   50.9302 H   0  0  0  0  0  0  0  0  0  0  0  0
   60.7213   30.6017   50.3871 H   0  0  0  0  0  0  0  0  0  0  0  0
   58.4144   30.1693   51.2221 H   0  0  0  0  0  0  0  0  0  0  0  0
   57.0541   32.0268   52.1759 H   0  0  0  0  0  0  0  0  0  0  0  0
   60.3343   34.7629   51.5399 H   0  0  0  0  0  0  0  0  0  0  0  0
   59.6218   35.3705   47.2764 H   0  0  0  0  0  0  0  0  0  0  0  0
   61.1923   34.7724   46.6148 H   0  0  0  0  0  0  0  0  0  0  0  0
   59.3883   35.4715   44.9122 H   0  0  0  0  0  0  0  0  0  0  0  0
   60.1686   33.8286   44.7177 H   0  0  0  0  0  0  0  0  0  0  0  0
   55.7570   31.4266   43.9040 H   0  0  0  0  0  0  0  0  0  0  0  0
  1  2  1  0
  2  3  1  0
  3  4  2  0
  3  5  1  0
  5  6  2  0
  6  7  1  0
  7  8  2  0
  8  9  1  0
  9 10  2  0
  9 11  1  0
 11 12  1  0
 12 13  1  0
 13 14  1  0
 14 15  1  0
 15 16  2  0
 15 17  1  0
 17 18  1  0
 18 19  1  0
 19 20  1  0
 20 21  1  0
 20 22  1  0
 19 23  1  0
 23 24  1  0
 24 25  1  0
 25 26  2  0
 26 27  1  0
 27 28  2  0
 28 29  1  0
 29 30  1  0
 29 31  2  0
 14 32  1  0
 32 33  1  0
  8 34  1  0
 34 35  2  0
 35 36  1  0
 35  5  1  0
 33 11  1  0
 24 17  1  0
 31 25  1  0
  1 37  1  0
  1 38  1  0
  1 39  1  0
  6 40  1  0
  7 41  1  0
 11 42  1  0
 12 43  1  0
 12 44  1  0
 13 45  1  0
 13 46  1  0
 17 47  1  1
 18 48  1  0
 18 49  1  0
 20 50  1  0
 21 51  1  0
 21 52  1  0
 21 53  1  0
 22 54  1  0
 22 55  1  0
 22 56  1  0
 23 57  1  0
 23 58  1  0
 24 59  1  1
 26 60  1  0
 27 61  1  0
 28 62  1  0
 31 63  1  0
 32 64  1  0
 32 65  1  0
 33 66  1  0
 33 67  1  0
 34 68  1  0
M  CHG  2   2  -1  11   1
M  END
>  <UniqueID>  (21) 
20

>  <SMILES>  (21) 
C[N-]C(=O)c1ccc(C(=O)[NH+]2CCN(C(=O)[C@@H]3CN(C(C)C)C[C@@H]3c3cccc(F)c3)CC2)cc1F

>  <Energy>  (21) 
108.21959571182471

>  <Genealogy>  (21) 
C[N-]C(=O)c1ccc(C(=O)[NH+]2CCN(C(=O)C3CN(C(C)C)CC3c3cccc(F)c3)CC2)cc1F (protonated)
C[N-]C(=O)c1ccc(C(=O)[NH+]2CCN(C(=O)[C@@H]3CN(C(C)C)C[C@@H]3c3cccc(F)c3)CC2)cc1F (chirality)
C[N-]C(=O)c1ccc(C(=O)[NH+]2CCN(C(=O)[C@@H]3CN(C(C)C)C[C@@H]3c3cccc(F)c3)CC2)cc1F (3D coordinates assigned)
C[N-]C(=O)c1ccc(C(=O)[NH+]2CCN(C(=O)[C@@H]3CN(C(C)C)C[C@@H]3c3cccc(F)c3)CC2)cc1F (nonaromatic ring conformer: 108.21959571182471 kcal/mol)

>  <smiles>  (21) 
CNC(=O)c1ccc(C(=O)N2CCN(C(=O)C3CN(C(C)C)CC3c3cccc(F)c3)CC2)cc1F

>  <score_type>  (21) 
oracle

>  <origin>  (21) 
adg

>  <m_score__min__energy>  (21) 
-11.18

>  <m_primary>  (21) 
energy

$$$$
21:0
     RDKit          3D

 50 54  0  0  0  0  0  0  0  0999 V2000
   57.0060   22.9240   47.1170 C   0  0  0  0  0  0  0  0  0  0  0  0
   56.9710   24.3880   46.7910 C   0  0  0  0  0  0  0  0  0  0  0  0
   55.9280   24.9160   46.0140 C   0  0  0  0  0  0  0  0  0  0  0  0
   55.9040   26.2750   45.6820 C   0  0  0  0  0  0  0  0  0  0  0  0
   56.9390   27.1200   46.1150 C   0  0  0  0  0  0  0  0  0  0  0  0
   58.0000   26.5860   46.8890 C   0  0  0  0  0  0  0  0  0  0  0  0
   58.0140   25.2260   47.2150 C   0  0  0  0  0  0  0  0  0  0  0  0
   59.0100   27.4030   47.3110 N   0  0  0  0  0  0  0  0  0  0  0  0
   59.0330   28.7370   47.0210 C   0  0  0  0  0  0  0  0  0  0  0  0
   60.1250   29.5560   47.4680 N   0  0  0  0  0  0  0  0  0  0  0  0
   60.8250   30.4000   46.4890 C   0  0  0  0  0  0  0  0  0  0  0  0
   61.9550   31.1980   47.1480 C   0  0  0  0  0  0  0  0  0  0  0  0
   61.4870   31.7480   48.4270 N   0  0  0  0  0  0  0  0  0  0  0  0
   61.6650   33.1370   48.7530 C   0  0  0  0  0  0  0  0  0  0  0  0
   62.0730   33.4580   49.9030 O   0  0  0  0  0  0  0  0  0  0  0  0
   61.3080   34.2200   47.7750 C   0  0  0  0  0  0  0  0  0  0  0  0
   59.9420   33.9670   47.1980 C   0  0  0  0  0  0  0  0  0  0  0  0
   59.6280   34.3680   45.8910 C   0  0  0  0  0  0  0  0  0  0  0  0
   58.3470   34.1490   45.3830 C   0  0  0  0  0  0  0  0  0  0  0  0
   57.3840   33.5400   46.1910 C   0  0  0  0  0  0  0  0  0  0  0  0
   57.6970   33.1700   47.4620 N   0  0  0  0  0  0  0  0  0  0  0  0
   58.9390   33.3690   47.9780 C   0  0  0  0  0  0  0  0  0  0  0  0
   60.8550   30.8640   49.4160 C   0  0  0  0  0  0  0  0  0  0  0  0
   60.6270   29.4580   48.8460 C   0  0  0  0  0  0  0  0  0  0  0  0
   57.9890   29.2500   46.2430 C   0  0  0  0  0  0  0  0  0  0  0  0
   57.8520   30.5150   45.8000 N   0  0  0  0  0  0  0  0  0  0  0  0
   56.7370   30.5420   45.0790 N   0  0  0  0  0  0  0  0  0  0  0  0
   56.2280   29.2930   45.0970 C   0  0  0  0  0  0  0  0  0  0  0  0
   55.1700   28.9670   44.4970 O   0  0  0  0  0  0  0  0  0  0  0  0
   56.9960   28.4520   45.8200 N   0  0  0  0  0  0  0  0  0  0  0  0
   57.0092   22.7915   48.2090 H   0  0  0  0  0  0  0  0  0  0  0  0
   56.1194   22.4321   46.6905 H   0  0  0  0  0  0  0  0  0  0  0  0
   57.9151   22.4750   46.6905 H   0  0  0  0  0  0  0  0  0  0  0  0
   55.1219   24.2551   45.6628 H   0  0  0  0  0  0  0  0  0  0  0  0
   55.0757   26.6810   45.0827 H   0  0  0  0  0  0  0  0  0  0  0  0
   58.8447   24.8120   47.8053 H   0  0  0  0  0  0  0  0  0  0  0  0
   61.2504   29.7590   45.7028 H   0  0  0  0  0  0  0  0  0  0  0  0
   60.1012   31.1105   46.0631 H   0  0  0  0  0  0  0  0  0  0  0  0
   62.8151   30.5359   47.3267 H   0  0  0  0  0  0  0  0  0  0  0  0
   62.2568   32.0215   46.4841 H   0  0  0  0  0  0  0  0  0  0  0  0
   61.3105   35.1914   48.2912 H   0  0  0  0  0  0  0  0  0  0  0  0
   62.0470   34.2267   46.9602 H   0  0  0  0  0  0  0  0  0  0  0  0
   60.3915   34.8550   45.2666 H   0  0  0  0  0  0  0  0  0  0  0  0
   58.0978   34.4531   44.3557 H   0  0  0  0  0  0  0  0  0  0  0  0
   56.3721   33.3595   45.7993 H   0  0  0  0  0  0  0  0  0  0  0  0
   59.1591   33.0603   49.0106 H   0  0  0  0  0  0  0  0  0  0  0  0
   61.5071   30.7908   50.2988 H   0  0  0  0  0  0  0  0  0  0  0  0
   59.8777   31.2903   49.6865 H   0  0  0  0  0  0  0  0  0  0  0  0
   61.5770   28.9035   48.8502 H   0  0  0  0  0  0  0  0  0  0  0  0
   59.8875   28.9298   49.4658 H   0  0  0  0  0  0  0  0  0  0  0  0
  1  2  1  0
  2  3  2  0
  3  4  1  0
  4  5  2  0
  5  6  1  0
  6  7  2  0
  6  8  1  0
  8  9  2  0
  9 10  1  0
 10 11  1  0
 11 12  1  0
 12 13  1  0
 13 14  1  0
 14 15  2  0
 14 16  1  0
 16 17  1  0
 17 18  2  0
 18 19  1  0
 19 20  2  0
 20 21  1  0
 21 22  2  0
 13 23  1  0
 23 24  1  0
  9 25  1  0
 25 26  2  0
 26 27  1  0
 27 28  1  0
 28 29  2  0
 28 30  1  0
  7  2  1  0
 24 10  1  0
 30 25  1  0
 30  5  1  0
 22 17  1  0
  1 31  1  0
  1 32  1  0
  1 33  1  0
  3 34  1  0
  4 35  1  0
  7 36  1  0
 11 37  1  0
 11 38  1  0
 12 39  1  0
 12 40  1  0
 16 41  1  0
 16 42  1  0
 18 43  1  0
 19 44  1  0
 20 45  1  0
 22 46  1  0
 23 47  1  0
 23 48  1  0
 24 49  1  0
 24 50  1  0
M  CHG  1  27  -1
M  END
>  <UniqueID>  (22) 
21

>  <SMILES>  (22) 
Cc1ccc2c(c1)nc(N1CCN(C(=O)Cc3cccnc3)CC1)c1n[n-]c(=O)n12

>  <Energy>  (22) 
110.09658637340377

>  <Genealogy>  (22) 
Cc1ccc2c(c1)nc(N1CCN(C(=O)Cc3cccnc3)CC1)c1n[n-]c(=O)n12 (protonated)
Cc1ccc2c(c1)nc(N1CCN(C(=O)Cc3cccnc3)CC1)c1n[n-]c(=O)n12 (3D coordinates assigned)
Cc1ccc2c(c1)nc(N1CCN(C(=O)Cc3cccnc3)CC1)c1n[n-]c(=O)n12 (nonaromatic ring conformer: 110.09658637340377 kcal/mol)

>  <smiles>  (22) 
Cc1ccc2c(c1)nc(N1CCN(C(=O)Cc3cccnc3)CC1)c1n[nH]c(=O)n12

>  <score_type>  (22) 
oracle

>  <origin>  (22) 
adg

>  <m_score__min__energy>  (22) 
-10.18

>  <m_primary>  (22) 
energy

$$$$
22:0
     RDKit          3D

 68 71  0  0  0  0  0  0  0  0999 V2000
   56.2590   28.3730   44.2880 H   0  0  0  0  0  0  0  0  0  0  0  0
   56.0710   28.2000   45.2690 O   0  0  0  0  0  0  0  0  0  0  0  0
   56.0830   26.9040   45.7750 C   0  0  0  0  0  0  0  0  0  0  0  0
   55.0250   26.0760   45.7460 N   0  0  0  0  0  0  0  0  0  0  0  0
   55.5120   24.9570   46.3240 C   0  0  0  0  0  0  0  0  0  0  0  0
   54.8180   23.9210   46.4850 O   0  0  0  0  0  0  0  0  0  0  0  0
   56.8050   25.0310   46.7060 N   0  0  0  0  0  0  0  0  0  0  0  0
   57.1530   26.2890   46.3780 C   0  0  0  0  0  0  0  0  0  0  0  0
   58.5120   26.8430   46.5010 C   0  0  0  0  0  0  0  0  0  0  0  0
   59.3515   26.1693   46.2743 H   0  0  0  0  0  0  0  0  0  0  0  0
   58.8160   28.1030   46.8670 C   0  0  0  0  0  0  0  0  0  0  0  0
   58.7290   28.5400   48.1780 C   0  0  0  0  0  0  0  0  0  0  0  0
   58.4797   27.9292   49.0582 H   0  0  0  0  0  0  0  0  0  0  0  0
   59.0150   29.8880   48.1670 C   0  0  0  0  0  0  0  0  0  0  0  0
   58.9610   30.7640   49.3460 C   0  0  0  0  0  0  0  0  0  0  0  0
   58.3580   31.8680   49.2390 O   0  0  0  0  0  0  0  0  0  0  0  0
   59.6310   30.4150   50.5790 N   0  0  0  0  0  0  0  0  0  0  0  0
   60.0350   31.4680   51.5130 C   0  0  0  0  0  0  0  0  0  0  0  0
   59.4146   32.3623   51.3541 H   0  0  0  0  0  0  0  0  0  0  0  0
   59.9031   31.1224   52.5489 H   0  0  0  0  0  0  0  0  0  0  0  0
   61.5030   31.8080   51.2590 C   0  0  0  0  0  0  0  0  0  0  0  0
   61.5895   32.3311   50.2952 H   0  0  0  0  0  0  0  0  0  0  0  0
   61.8612   32.4483   52.0786 H   0  0  0  0  0  0  0  0  0  0  0  0
   62.3290   30.5880   51.2210 N   0  0  0  0  0  0  0  0  0  0  0  0
   63.7370   30.6700   51.5200 C   0  0  0  0  0  0  0  0  0  0  0  0
   64.3190   29.6810   52.0410 O   0  0  0  0  0  0  0  0  0  0  0  0
   64.5360   31.9180   51.2330 C   0  0  2  0  0  0  0  0  0  0  0  0
   64.4341   32.5824   52.1037 H   0  0  0  0  0  0  0  0  0  0  0  0
   64.0430   32.5430   50.0700 O   0  0  0  0  0  0  0  0  0  0  0  0
   65.1510   33.0510   49.3590 C   0  0  0  0  0  0  0  0  0  0  0  0
   65.0682   34.1455   49.2870 H   0  0  0  0  0  0  0  0  0  0  0  0
   65.1668   32.6136   48.3498 H   0  0  0  0  0  0  0  0  0  0  0  0
   66.4360   32.6890   50.0830 C   0  0  0  0  0  0  0  0  0  0  0  0
   66.8362   33.5546   50.6313 H   0  0  0  0  0  0  0  0  0  0  0  0
   67.2388   32.3721   49.4010 H   0  0  0  0  0  0  0  0  0  0  0  0
   66.0090   31.6070   51.0270 C   0  0  0  0  0  0  0  0  0  0  0  0
   66.5642   31.6636   51.9749 H   0  0  0  0  0  0  0  0  0  0  0  0
   66.1953   30.5920   50.6461 H   0  0  0  0  0  0  0  0  0  0  0  0
   61.8520   29.3920   50.5000 C   0  0  0  0  0  0  0  0  0  0  0  0
   62.0251   29.5315   49.4227 H   0  0  0  0  0  0  0  0  0  0  0  0
   62.4056   28.5189   50.8759 H   0  0  0  0  0  0  0  0  0  0  0  0
   60.3580   29.1520   50.7370 C   0  0  0  0  0  0  0  0  0  0  0  0
   59.9837   28.4192   50.0070 H   0  0  0  0  0  0  0  0  0  0  0  0
   60.2050   28.7648   51.7552 H   0  0  0  0  0  0  0  0  0  0  0  0
   59.3140   30.3030   46.9150 N   0  0  0  0  0  0  0  0  0  0  0  0
   59.6620   31.6810   46.5370 C   0  0  0  0  0  0  0  0  0  0  0  0
   59.6248   31.7784   45.4419 H   0  0  0  0  0  0  0  0  0  0  0  0
   58.9430   32.3737   46.9987 H   0  0  0  0  0  0  0  0  0  0  0  0
   61.0770   32.0220   47.0300 C   0  0  0  0  0  0  0  0  0  0  0  0
   61.2282   31.5268   48.0005 H   0  0  0  0  0  0  0  0  0  0  0  0
   61.7664   31.6724   46.2474 H   0  0  0  0  0  0  0  0  0  0  0  0
   61.3650   33.5430   47.2140 C   0  0  0  0  0  0  0  0  0  0  0  0
   61.2480   33.9500   48.6990 C   0  0  0  0  0  0  0  0  0  0  0  0
   61.4958   33.0881   49.3360 H   0  0  0  0  0  0  0  0  0  0  0  0
   61.9456   34.7740   48.9094 H   0  0  0  0  0  0  0  0  0  0  0  0
   60.2193   34.2778   48.9094 H   0  0  0  0  0  0  0  0  0  0  0  0
   62.8080   33.8190   46.7420 C   0  0  0  0  0  0  0  0  0  0  0  0
   63.4624   33.9442   47.6172 H   0  0  0  0  0  0  0  0  0  0  0  0
   63.1638   32.9726   46.1362 H   0  0  0  0  0  0  0  0  0  0  0  0
   62.8264   34.7369   46.1362 H   0  0  0  0  0  0  0  0  0  0  0  0
   60.4010   34.4020   46.3670 C   0  0  0  0  0  0  0  0  0  0  0  0
   59.7474   34.9844   47.0331 H   0  0  0  0  0  0  0  0  0  0  0  0
   60.9820   35.0873   45.7323 H   0  0  0  0  0  0  0  0  0  0  0  0
   59.7869   33.7462   45.7323 H   0  0  0  0  0  0  0  0  0  0  0  0
   59.2230   29.2140   46.1070 C   0  0  0  0  0  0  0  0  0  0  0  0
   59.6020   29.2170   44.8200 C   0  0  0  0  0  0  0  0  0  0  0  0
   59.8998   30.1591   44.3365 H   0  0  0  0  0  0  0  0  0  0  0  0
   59.6150   28.2773   44.2483 H   0  0  0  0  0  0  0  0  0  0  0  0
  1  2  1  0
  2  3  1  0
  3  4  1  0
  4  5  1  0
  5  6  2  0
  5  7  1  0
  7  8  1  0
  8  9  1  0
  9 10  1  0
  9 11  2  0
 11 12  1  0
 12 13  1  0
 12 14  2  0
 14 15  1  0
 15 16  2  0
 15 17  1  0
 17 18  1  0
 18 19  1  0
 18 20  1  0
 18 21  1  0
 21 22  1  0
 21 23  1  0
 21 24  1  0
 24 25  1  0
 25 26  2  0
 25 27  1  0
 27 28  1  1
 27 29  1  0
 29 30  1  0
 30 31  1  0
 30 32  1  0
 30 33  1  0
 33 34  1  0
 33 35  1  0
 33 36  1  0
 36 37  1  0
 36 38  1  0
 24 39  1  0
 39 40  1  0
 39 41  1  0
 39 42  1  0
 42 43  1  0
 42 44  1  0
 14 45  1  0
 45 46  1  0
 46 47  1  0
 46 48  1  0
 46 49  1  0
 49 50  1  0
 49 51  1  0
 49 52  1  0
 52 53  1  0
 53 54  1  0
 53 55  1  0
 53 56  1  0
 52 57  1  0
 57 58  1  0
 57 59  1  0
 57 60  1  0
 52 61  1  0
 61 62  1  0
 61 63  1  0
 61 64  1  0
 45 65  1  0
 65 66  2  0
 66 67  1  0
 66 68  1  0
  8  3  2  0
 65 11  1  0
 42 17  1  0
 36 27  1  0
M  CHG  2   4  -1   7  -1
M  END
>  <UniqueID>  (23) 
22

>  <SMILES>  (23) 
C=c1/c(=C\c2[n-]c(=O)[n-]c2O)cc(C(=O)N2CCN(C(=O)[C@H]3CCCO3)CC2)n1CCC(C)(C)C

>  <Energy>  (23) 
139.71065107965248

>  <Genealogy>  (23) 
C=c1c(=Cc2[n-]c(=O)[n-]c2O)cc(C(=O)N2CCN(C(=O)C3CCCO3)CC2)n1CCC(C)(C)C (protonated)
C=c1c(=Cc2[n-]c(=O)[n-]c2O)cc(C(=O)N2CCN(C(=O)[C@H]3CCCO3)CC2)n1CCC(C)(C)C (chirality)
C=c1/c(=C\c2[n-]c(=O)[n-]c2O)cc(C(=O)N2CCN(C(=O)[C@H]3CCCO3)CC2)n1CCC(C)(C)C (cis-trans isomerization)
C=c1/c(=C\c2[n-]c(=O)[n-]c2O)cc(C(=O)N2CCN(C(=O)[C@H]3CCCO3)CC2)n1CCC(C)(C)C (3D coordinates assigned)
C=c1/c(=C\c2[n-]c(=O)[n-]c2O)cc(C(=O)N2CCN(C(=O)[C@H]3CCCO3)CC2)n1CCC(C)(C)C (nonaromatic ring conformer: 139.71065107965248 kcal/mol)

>  <smiles>  (23) 
C=c1c(=Cc2[nH]c(=O)[nH]c2O)cc(C(=O)N2CCN(C(=O)C3CCCO3)CC2)n1CCC(C)(C)C

>  <score_type>  (23) 
oracle

>  <origin>  (23) 
adg

>  <m_score__min__energy>  (23) 
-13.23

>  <m_primary>  (23) 
energy

$$$$
23:0
     RDKit          3D

 41 44  0  0  0  0  0  0  0  0999 V2000
   55.2230   29.1110   44.5570 O   0  0  0  0  0  0  0  0  0  0  0  0
   56.3000   29.7290   44.7660 C   0  0  0  0  0  0  0  0  0  0  0  0
   57.4620   28.9630   45.3520 C   0  0  0  0  0  0  0  0  0  0  0  0
   57.3620   27.4850   45.0630 C   0  0  0  0  0  0  0  0  0  0  0  0
   57.8480   26.9610   43.8560 C   0  0  0  0  0  0  0  0  0  0  0  0
   57.7650   25.5910   43.5930 C   0  0  0  0  0  0  0  0  0  0  0  0
   57.2150   24.7140   44.5450 C   0  0  0  0  0  0  0  0  0  0  0  0
   57.1080   23.3020   44.2740 N   0  0  0  0  0  0  0  0  0  0  0  0
   56.6220   22.7340   43.0250 C   0  0  0  0  0  0  0  0  0  0  0  0
   56.9170   21.2240   43.0990 C   0  0  0  0  0  0  0  0  0  0  0  0
   57.2930   20.9090   44.5530 C   0  0  0  0  0  0  0  0  0  0  0  0
   57.4430   22.2470   45.1610 C   0  0  0  0  0  0  0  0  0  0  0  0
   57.7620   22.4270   46.3670 O   0  0  0  0  0  0  0  0  0  0  0  0
   56.7400   25.2400   45.7580 C   0  0  0  0  0  0  0  0  0  0  0  0
   56.8240   26.6100   46.0210 C   0  0  0  0  0  0  0  0  0  0  0  0
   56.3340   31.1430   44.4970 N   0  0  0  0  0  0  0  0  0  0  0  0
   57.1540   32.0370   44.9670 C   0  0  0  0  0  0  0  0  0  0  0  0
   57.6630   31.9400   46.2230 N   0  0  0  0  0  0  0  0  0  0  0  0
   58.4320   33.0350   46.3060 C   0  0  0  0  0  0  0  0  0  0  0  0
   59.2130   33.4500   47.3840 C   0  0  0  0  0  0  0  0  0  0  0  0
   59.9460   34.6430   47.2370 C   0  0  0  0  0  0  0  0  0  0  0  0
   59.8800   35.3800   46.0320 C   0  0  0  0  0  0  0  0  0  0  0  0
   59.0800   34.9290   44.9650 C   0  0  0  0  0  0  0  0  0  0  0  0
   58.3680   33.7450   45.1470 C   0  0  0  0  0  0  0  0  0  0  0  0
   57.5550   33.1360   44.2740 N   0  0  0  0  0  0  0  0  0  0  0  0
   58.3969   29.3480   44.9188 H   0  0  0  0  0  0  0  0  0  0  0  0
   57.4461   29.0998   46.4433 H   0  0  0  0  0  0  0  0  0  0  0  0
   58.2979   27.6336   43.1108 H   0  0  0  0  0  0  0  0  0  0  0  0
   58.1325   25.1957   42.6345 H   0  0  0  0  0  0  0  0  0  0  0  0
   55.5406   22.9071   42.9222 H   0  0  0  0  0  0  0  0  0  0  0  0
   57.1117   23.1970   42.1556 H   0  0  0  0  0  0  0  0  0  0  0  0
   56.0249   20.6504   42.8071 H   0  0  0  0  0  0  0  0  0  0  0  0
   57.7340   20.9505   42.4151 H   0  0  0  0  0  0  0  0  0  0  0  0
   56.4966   20.3366   45.0511 H   0  0  0  0  0  0  0  0  0  0  0  0
   58.1994   20.2919   44.6399 H   0  0  0  0  0  0  0  0  0  0  0  0
   56.2979   24.5673   46.5077 H   0  0  0  0  0  0  0  0  0  0  0  0
   56.4669   27.0052   46.9834 H   0  0  0  0  0  0  0  0  0  0  0  0
   59.2549   32.8664   48.3155 H   0  0  0  0  0  0  0  0  0  0  0  0
   60.5740   35.0041   48.0648 H   0  0  0  0  0  0  0  0  0  0  0  0
   60.4569   36.3108   45.9278 H   0  0  0  0  0  0  0  0  0  0  0  0
   59.0191   35.4911   44.0214 H   0  0  0  0  0  0  0  0  0  0  0  0
  1  2  2  0
  2  3  1  0
  3  4  1  0
  4  5  2  0
  5  6  1  0
  6  7  2  0
  7  8  1  0
  8  9  1  0
  9 10  1  0
 10 11  1  0
 11 12  1  0
 12 13  2  0
  7 14  1  0
 14 15  2  0
  2 16  1  0
 16 17  2  3
 17 18  1  0
 18 19  1  0
 19 20  2  0
 20 21  1  0
 21 22  2  0
 22 23  1  0
 23 24  2  0
 24 25  1  0
 15  4  1  0
 25 17  1  0
 12  8  1  0
 24 19  1  0
  3 26  1  0
  3 27  1  0
  5 28  1  0
  6 29  1  0
  9 30  1  0
  9 31  1  0
 10 32  1  0
 10 33  1  0
 11 34  1  0
 11 35  1  0
 14 36  1  0
 15 37  1  0
 20 38  1  0
 21 39  1  0
 22 40  1  0
 23 41  1  0
M  CHG  2  18  -1  25  -1
M  END
>  <UniqueID>  (24) 
23

>  <SMILES>  (24) 
O=C(Cc1ccc(N2CCCC2=O)cc1)N=c1[n-]c2ccccc2[n-]1

>  <Energy>  (24) 
92.8631994913254

>  <Genealogy>  (24) 
O=C(Cc1ccc(N2CCCC2=O)cc1)N=c1[n-]c2ccccc2[n-]1 (protonated)
O=C(Cc1ccc(N2CCCC2=O)cc1)N=c1[n-]c2ccccc2[n-]1 (3D coordinates assigned)
O=C(Cc1ccc(N2CCCC2=O)cc1)N=c1[n-]c2ccccc2[n-]1 (nonaromatic ring conformer: 92.8631994913254 kcal/mol)

>  <smiles>  (24) 
O=C(Cc1ccc(N2CCCC2=O)cc1)N=c1[nH]c2ccccc2[nH]1

>  <score_type>  (24) 
oracle

>  <origin>  (24) 
adg

>  <m_score__min__energy>  (24) 
-11.539999999999999

>  <m_primary>  (24) 
energy

$$$$
24:0
     RDKit          3D

 61 64  0  0  0  0  0  0  0  0999 V2000
   56.7685   29.5148   43.2613 H   0  0  0  0  0  0  0  0  0  0  0  0
   56.5530   30.4800   43.7430 C   0  0  0  0  0  0  0  0  0  0  0  0
   55.6284   31.0229   43.4975 H   0  0  0  0  0  0  0  0  0  0  0  0
   57.4180   30.9950   44.6300 C   0  0  0  0  0  0  0  0  0  0  0  0
   57.0820   32.1870   45.1800 N   0  0  0  0  0  0  0  0  0  0  0  0
   57.7560   32.7290   46.2170 C   0  0  0  0  0  0  0  0  0  0  0  0
   57.3910   33.8530   46.6560 O   0  0  0  0  0  0  0  0  0  0  0  0
   58.7980   32.0550   46.7930 N   0  0  0  0  0  0  0  0  0  0  0  0
   59.5120   32.6540   47.9410 C   0  0  0  0  0  0  0  0  0  0  0  0
   59.0914   33.6487   48.1500 H   0  0  0  0  0  0  0  0  0  0  0  0
   59.3903   31.9995   48.8167 H   0  0  0  0  0  0  0  0  0  0  0  0
   60.9810   32.7910   47.6350 C   0  0  0  0  0  0  0  0  0  0  0  0
   61.9300   32.0210   48.3310 C   0  0  0  0  0  0  0  0  0  0  0  0
   61.5973   31.2934   49.0859 H   0  0  0  0  0  0  0  0  0  0  0  0
   63.2940   32.1760   48.0680 C   0  0  0  0  0  0  0  0  0  0  0  0
   64.0313   31.5715   48.6166 H   0  0  0  0  0  0  0  0  0  0  0  0
   63.7220   33.0970   47.1100 C   0  0  0  0  0  0  0  0  0  0  0  0
   64.7958   33.2166   46.9037 H   0  0  0  0  0  0  0  0  0  0  0  0
   62.7870   33.8670   46.4130 C   0  0  0  0  0  0  0  0  0  0  0  0
   63.1258   34.5907   45.6571 H   0  0  0  0  0  0  0  0  0  0  0  0
   61.4210   33.7190   46.6750 C   0  0  0  0  0  0  0  0  0  0  0  0
   60.6885   34.3308   46.1280 H   0  0  0  0  0  0  0  0  0  0  0  0
   59.2070   30.8560   46.2620 C   0  0  0  0  0  0  0  0  0  0  0  0
   60.1830   30.2450   46.7870 O   0  0  0  0  0  0  0  0  0  0  0  0
   58.5790   30.3160   45.1070 C   0  0  0  0  0  0  0  0  0  0  0  0
   59.1260   29.2170   44.5180 C   0  0  0  0  0  0  0  0  0  0  0  0
   60.1048   29.3396   44.0313 H   0  0  0  0  0  0  0  0  0  0  0  0
   58.5140   27.8760   44.4790 C   0  0  0  0  0  0  0  0  0  0  0  0
   58.1600   27.0300   43.0620 S   0  0  0  0  0  0  0  0  0  0  0  0
   57.6850   25.6550   43.8910 C   0  0  0  0  0  0  0  0  0  0  0  0
   57.2690   24.6070   43.3290 O   0  0  0  0  0  0  0  0  0  0  0  0
   57.8010   25.7960   45.2360 N   0  0  0  0  0  0  0  0  0  0  0  0
   57.4150   24.7440   46.1870 C   0  0  0  0  0  0  0  0  0  0  0  0
   57.7040   23.7625   45.7831 H   0  0  0  0  0  0  0  0  0  0  0  0
   57.9265   24.9152   47.1457 H   0  0  0  0  0  0  0  0  0  0  0  0
   55.9270   24.7760   46.4050 C   0  0  0  0  0  0  0  0  0  0  0  0
   55.2750   25.7740   45.9990 O   0  0  0  0  0  0  0  0  0  0  0  0
   55.2260   23.6590   46.9830 N   0  0  0  0  0  0  0  0  0  0  0  0
   55.8280   22.8550   48.0540 C   0  0  0  0  0  0  0  0  0  0  0  0
   56.4179   22.0401   47.6091 H   0  0  0  0  0  0  0  0  0  0  0  0
   56.4784   23.4987   48.6644 H   0  0  0  0  0  0  0  0  0  0  0  0
   54.7310   22.2580   48.9480 C   0  0  0  0  0  0  0  0  0  0  0  0
   55.2050   21.5943   49.6862 H   0  0  0  0  0  0  0  0  0  0  0  0
   54.2051   23.0989   49.4237 H   0  0  0  0  0  0  0  0  0  0  0  0
   53.7150   21.4740   48.1910 N   0  0  0  0  0  0  0  0  0  0  0  0
   52.7870   21.6440   48.6470 H   0  0  0  0  0  0  0  0  0  0  0  0
   53.9800   20.0270   48.3020 C   0  0  0  0  0  0  0  0  0  0  0  0
   54.0318   19.7441   49.3637 H   0  0  0  0  0  0  0  0  0  0  0  0
   53.1694   19.4672   47.8125 H   0  0  0  0  0  0  0  0  0  0  0  0
   54.9363   19.7908   47.8125 H   0  0  0  0  0  0  0  0  0  0  0  0
   53.5830   21.8560   46.7610 C   0  0  0  0  0  0  0  0  0  0  0  0
   54.2953   21.2628   46.1688 H   0  0  0  0  0  0  0  0  0  0  0  0
   52.5452   21.6597   46.4537 H   0  0  0  0  0  0  0  0  0  0  0  0
   53.8680   23.3430   46.5300 C   0  0  0  0  0  0  0  0  0  0  0  0
   53.7773   23.5710   45.4577 H   0  0  0  0  0  0  0  0  0  0  0  0
   53.1438   23.9464   47.0970 H   0  0  0  0  0  0  0  0  0  0  0  0
   58.2690   27.0400   45.5780 C   0  0  0  0  0  0  0  0  0  0  0  0
   58.5060   27.4620   47.0010 C   0  0  0  0  0  0  0  0  0  0  0  0
   58.0830   26.7089   47.6821 H   0  0  0  0  0  0  0  0  0  0  0  0
   59.5873   27.5532   47.1812 H   0  0  0  0  0  0  0  0  0  0  0  0
   58.0211   28.4328   47.1812 H   0  0  0  0  0  0  0  0  0  0  0  0
  1  2  1  0
  2  3  1  0
  2  4  2  0
  4  5  1  0
  5  6  1  0
  6  7  2  0
  6  8  1  0
  8  9  1  0
  9 10  1  0
  9 11  1  0
  9 12  1  0
 12 13  2  0
 13 14  1  0
 13 15  1  0
 15 16  1  0
 15 17  2  0
 17 18  1  0
 17 19  1  0
 19 20  1  0
 19 21  2  0
 21 22  1  0
  8 23  1  0
 23 24  2  0
 23 25  1  0
 25 26  2  0
 26 27  1  0
 26 28  1  0
 28 29  1  0
 29 30  1  0
 30 31  2  0
 30 32  1  0
 32 33  1  0
 33 34  1  0
 33 35  1  0
 33 36  1  0
 36 37  2  0
 36 38  1  0
 38 39  1  0
 39 40  1  0
 39 41  1  0
 39 42  1  0
 42 43  1  0
 42 44  1  0
 42 45  1  0
 45 46  1  0
 45 47  1  0
 47 48  1  0
 47 49  1  0
 47 50  1  0
 45 51  1  0
 51 52  1  0
 51 53  1  0
 51 54  1  0
 54 55  1  0
 54 56  1  0
 32 57  1  0
 57 58  1  0
 58 59  1  0
 58 60  1  0
 58 61  1  0
 25  4  1  0
 57 28  2  0
 21 12  1  0
 54 38  1  0
M  CHG  2   5  -1  45   1
M  END
>  <UniqueID>  (25) 
24

>  <SMILES>  (25) 
C=c1[n-]c(=O)n(Cc2ccccc2)c(=O)/c1=C/c1sc(=O)n(CC(=O)N2CC[NH+](C)CC2)c1C

>  <Energy>  (25) 
128.48368264547418

>  <Genealogy>  (25) 
C=c1[n-]c(=O)n(Cc2ccccc2)c(=O)c1=Cc1sc(=O)n(CC(=O)N2CC[NH+](C)CC2)c1C (protonated)
C=c1[n-]c(=O)n(Cc2ccccc2)c(=O)/c1=C/c1sc(=O)n(CC(=O)N2CC[NH+](C)CC2)c1C (cis-trans isomerization)
C=c1[n-]c(=O)n(Cc2ccccc2)c(=O)/c1=C/c1sc(=O)n(CC(=O)N2CC[NH+](C)CC2)c1C (3D coordinates assigned)
C=c1[n-]c(=O)n(Cc2ccccc2)c(=O)/c1=C/c1sc(=O)n(CC(=O)N2CC[NH+](C)CC2)c1C (nonaromatic ring conformer: 128.48368264547418 kcal/mol)

>  <smiles>  (25) 
C=c1[nH]c(=O)n(Cc2ccccc2)c(=O)c1=Cc1sc(=O)n(CC(=O)N2CCN(C)CC2)c1C

>  <score_type>  (25) 
oracle

>  <origin>  (25) 
adg

>  <m_score__min__energy>  (25) 
-10.02

>  <m_primary>  (25) 
energy

$$$$
25:0
     RDKit          3D

 55 57  0  0  0  0  0  0  0  0999 V2000
   58.1082   29.9822   47.5427 H   0  0  0  0  0  0  0  0  0  0  0  0
   58.9610   30.1130   48.2250 C   0  0  0  0  0  0  0  0  0  0  0  0
   59.3130   31.3940   48.6570 C   0  0  0  0  0  0  0  0  0  0  0  0
   58.7322   32.2649   48.3191 H   0  0  0  0  0  0  0  0  0  0  0  0
   60.4030   31.5740   49.5190 C   0  0  0  0  0  0  0  0  0  0  0  0
   60.8680   33.1940   50.0330 S   0  0  0  0  0  0  0  0  0  0  0  0
   59.6430   33.9670   50.4370 O   0  0  0  0  0  0  0  0  0  0  0  0
   61.7820   33.0940   51.2230 O   0  0  0  0  0  0  0  0  0  0  0  0
   61.7000   34.0050   48.7290 N   0  0  0  0  0  0  0  0  0  0  0  0
   62.8370   33.2140   48.2560 C   0  0  0  0  0  0  0  0  0  0  0  0
   63.7474   33.4873   48.8096 H   0  0  0  0  0  0  0  0  0  0  0  0
   62.6669   32.1383   48.4107 H   0  0  0  0  0  0  0  0  0  0  0  0
   63.0000   33.5380   46.7890 C   0  0  0  0  0  0  0  0  0  0  0  0
   63.6391   34.4229   46.6528 H   0  0  0  0  0  0  0  0  0  0  0  0
   63.4826   32.7247   46.2272 H   0  0  0  0  0  0  0  0  0  0  0  0
   61.5910   33.8150   46.3160 C   0  0  0  0  0  0  0  0  0  0  0  0
   61.5846   34.6340   45.5817 H   0  0  0  0  0  0  0  0  0  0  0  0
   61.1445   32.9407   45.8198 H   0  0  0  0  0  0  0  0  0  0  0  0
   60.8190   34.2150   47.5710 C   0  0  0  0  0  0  0  0  0  0  0  0
   60.5285   35.2742   47.5095 H   0  0  0  0  0  0  0  0  0  0  0  0
   59.9061   33.6091   47.6689 H   0  0  0  0  0  0  0  0  0  0  0  0
   61.1430   30.4620   49.9390 C   0  0  0  0  0  0  0  0  0  0  0  0
   62.0067   30.5993   50.6063 H   0  0  0  0  0  0  0  0  0  0  0  0
   60.7890   29.1780   49.5140 C   0  0  0  0  0  0  0  0  0  0  0  0
   61.3737   28.3098   49.8522 H   0  0  0  0  0  0  0  0  0  0  0  0
   59.6890   28.9890   48.6560 C   0  0  0  0  0  0  0  0  0  0  0  0
   59.3140   27.6370   48.1810 C   0  0  0  0  0  0  0  0  0  0  0  0
   60.1310   26.6860   48.3150 O   0  0  0  0  0  0  0  0  0  0  0  0
   58.0400   27.3950   47.5600 N   0  0  0  0  0  0  0  0  0  0  0  0
   57.4380   28.2010   47.2780 H   0  0  0  0  0  0  0  0  0  0  0  0
   57.5890   26.0500   47.2030 C   0  0  0  0  0  0  0  0  0  0  0  0
   57.4055   25.4781   48.1245 H   0  0  0  0  0  0  0  0  0  0  0  0
   58.3724   25.5729   46.5958 H   0  0  0  0  0  0  0  0  0  0  0  0
   56.3170   26.0910   46.3890 C   0  0  0  0  0  0  0  0  0  0  0  0
   55.5640   25.0800   46.3680 O   0  0  0  0  0  0  0  0  0  0  0  0
   55.9180   27.2480   45.6310 N   0  0  0  0  0  0  0  0  0  0  0  0
   56.6650   28.2110   45.1770 C   0  0  0  0  0  0  0  0  0  0  0  0
   58.0160   28.2040   45.1730 N   0  0  0  0  0  0  0  0  0  0  0  0
   58.5310   29.3470   44.6410 C   0  0  0  0  0  0  0  0  0  0  0  0
   60.0100   29.5440   44.5310 C   0  0  0  0  0  0  0  0  0  0  0  0
   60.4481   29.6023   45.5383 H   0  0  0  0  0  0  0  0  0  0  0  0
   60.4533   28.6970   43.9869 H   0  0  0  0  0  0  0  0  0  0  0  0
   60.2161   30.4775   43.9869 H   0  0  0  0  0  0  0  0  0  0  0  0
   57.5690   30.2750   44.2130 C   0  0  0  0  0  0  0  0  0  0  0  0
   57.7970   31.5920   43.5940 C   0  0  0  0  0  0  0  0  0  0  0  0
   57.4310   31.7870   42.4020 O   0  0  0  0  0  0  0  0  0  0  0  0
   58.4100   32.6200   44.3180 O   0  0  0  0  0  0  0  0  0  0  0  0
   57.6800   33.6950   44.8970 C   0  0  0  0  0  0  0  0  0  0  0  0
   56.6836   33.7523   44.4346 H   0  0  0  0  0  0  0  0  0  0  0  0
   58.2194   34.6382   44.7254 H   0  0  0  0  0  0  0  0  0  0  0  0
   57.5320   33.4620   46.3900 C   0  0  0  0  0  0  0  0  0  0  0  0
   58.0431   34.2666   46.9391 H   0  0  0  0  0  0  0  0  0  0  0  0
   56.4647   33.4569   46.6563 H   0  0  0  0  0  0  0  0  0  0  0  0
   57.9810   32.4938   46.6563 H   0  0  0  0  0  0  0  0  0  0  0  0
   56.0440   29.6270   44.5270 S   0  0  0  0  0  0  0  0  0  0  0  0
  1  2  1  0
  2  3  2  0
  3  4  1  0
  3  5  1  0
  5  6  1  0
  6  7  2  0
  6  8  2  0
  6  9  1  0
  9 10  1  0
 10 11  1  0
 10 12  1  0
 10 13  1  0
 13 14  1  0
 13 15  1  0
 13 16  1  0
 16 17  1  0
 16 18  1  0
 16 19  1  0
 19 20  1  0
 19 21  1  0
  5 22  2  0
 22 23  1  0
 22 24  1  0
 24 25  1  0
 24 26  2  0
 26 27  1  0
 27 28  2  0
 27 29  1  0
 29 30  1  0
 29 31  1  0
 31 32  1  0
 31 33  1  0
 31 34  1  0
 34 35  2  0
 34 36  1  0
 36 37  2  0
 37 38  1  0
 38 39  1  0
 39 40  1  0
 40 41  1  0
 40 42  1  0
 40 43  1  0
 39 44  2  0
 44 45  1  0
 45 46  2  0
 45 47  1  0
 47 48  1  0
 48 49  1  0
 48 50  1  0
 48 51  1  0
 51 52  1  0
 51 53  1  0
 51 54  1  0
 44 55  1  0
 26  2  1  0
 55 37  1  0
 19  9  1  0
M  CHG  1  38  -1
M  END
>  <UniqueID>  (26) 
25

>  <SMILES>  (26) 
CCOC(=O)c1s/c(=N/C(=O)CNC(=O)c2ccc(S(=O)(=O)N3CCCC3)cc2)[n-]c1C

>  <Energy>  (26) 
84.52038615801995

>  <Genealogy>  (26) 
CCOC(=O)c1sc(=NC(=O)CNC(=O)c2ccc(S(=O)(=O)N3CCCC3)cc2)[n-]c1C (protonated)
CCOC(=O)c1s/c(=N/C(=O)CNC(=O)c2ccc(S(=O)(=O)N3CCCC3)cc2)[n-]c1C (cis-trans isomerization)
CCOC(=O)c1s/c(=N/C(=O)CNC(=O)c2ccc(S(=O)(=O)N3CCCC3)cc2)[n-]c1C (3D coordinates assigned)
CCOC(=O)c1s/c(=N/C(=O)CNC(=O)c2ccc(S(=O)(=O)N3CCCC3)cc2)[n-]c1C (nonaromatic ring conformer: 84.52038615801995 kcal/mol)

>  <smiles>  (26) 
CCOC(=O)c1sc(=NC(=O)CNC(=O)c2ccc(S(=O)(=O)N3CCCC3)cc2)[nH]c1C

>  <score_type>  (26) 
oracle

>  <origin>  (26) 
adg

>  <m_score__min__energy>  (26) 
-10.460000000000001

>  <m_primary>  (26) 
energy

$$$$
26:0
     RDKit          3D

 44 48  0  0  0  0  0  0  0  0999 V2000
   65.1070   32.5800   49.7340 C   0  0  0  0  0  0  0  0  0  0  0  0
   64.2460   33.2380   48.9580 C   0  0  0  0  0  0  0  0  0  0  0  0
   62.7970   33.3060   49.2310 C   0  0  0  0  0  0  0  0  0  0  0  0
   61.7700   32.8410   48.4260 C   0  0  0  0  0  0  0  0  0  0  0  0
   60.5870   33.1300   49.0890 C   0  0  0  0  0  0  0  0  0  0  0  0
   59.2330   32.8300   48.5530 C   0  0  0  0  0  0  0  0  0  0  0  0
   58.5850   31.9000   49.1060 O   0  0  0  0  0  0  0  0  0  0  0  0
   58.5660   33.5220   47.3700 C   0  0  1  0  0  0  0  0  0  0  0  0
   58.9320   35.0010   47.2000 C   0  0  0  0  0  0  0  0  0  0  0  0
   59.6960   35.1640   45.9520 N   0  0  0  0  0  0  0  0  0  0  0  0
   59.8520   33.8420   45.3380 C   0  0  0  0  0  0  0  0  0  0  0  0
   58.8480   32.9020   45.9920 C   0  0  2  0  0  0  0  0  0  0  0  0
   57.5660   32.8170   45.1710 C   0  0  0  0  0  0  0  0  0  0  0  0
   56.8330   33.7930   44.8560 O   0  0  0  0  0  0  0  0  0  0  0  0
   57.3060   31.4350   44.8060 C   0  0  0  0  0  0  0  0  0  0  0  0
   56.2770   30.8420   44.0710 C   0  0  0  0  0  0  0  0  0  0  0  0
   56.3370   29.4480   43.8490 C   0  0  0  0  0  0  0  0  0  0  0  0
   57.4210   28.6850   44.3470 C   0  0  0  0  0  0  0  0  0  0  0  0
   58.4450   29.3200   45.0730 C   0  0  0  0  0  0  0  0  0  0  0  0
   59.5880   28.6700   45.5700 C   0  0  0  0  0  0  0  0  0  0  0  0
   60.5840   29.4190   46.2390 C   0  0  0  0  0  0  0  0  0  0  0  0
   60.4360   30.8100   46.4260 C   0  0  0  0  0  0  0  0  0  0  0  0
   59.2690   31.4370   45.9630 C   0  0  0  0  0  0  0  0  0  0  0  0
   58.3330   30.6890   45.2920 C   0  0  0  0  0  0  0  0  0  0  0  0
   60.9510   33.7640   50.2680 C   0  0  0  0  0  0  0  0  0  0  0  0
   62.2900   33.8630   50.3440 N   0  0  0  0  0  0  0  0  0  0  0  0
   66.1769   32.5650   49.4789 H   0  0  0  0  0  0  0  0  0  0  0  0
   64.7477   32.0519   50.6296 H   0  0  0  0  0  0  0  0  0  0  0  0
   64.6349   33.7566   48.0692 H   0  0  0  0  0  0  0  0  0  0  0  0
   61.8728   32.3406   47.4518 H   0  0  0  0  0  0  0  0  0  0  0  0
   57.5114   33.3903   47.6536 H   0  0  0  0  0  0  0  0  0  0  0  0
   58.0140   35.6052   47.1523 H   0  0  0  0  0  0  0  0  0  0  0  0
   59.5391   35.3348   48.0544 H   0  0  0  0  0  0  0  0  0  0  0  0
   59.1390   35.7640   45.2980 H   0  0  0  0  0  0  0  0  0  0  0  0
   59.6556   33.9060   44.2576 H   0  0  0  0  0  0  0  0  0  0  0  0
   60.8769   33.4700   45.4834 H   0  0  0  0  0  0  0  0  0  0  0  0
   55.4442   31.4427   43.6765 H   0  0  0  0  0  0  0  0  0  0  0  0
   55.5345   28.9509   43.2843 H   0  0  0  0  0  0  0  0  0  0  0  0
   57.4621   27.6006   44.1670 H   0  0  0  0  0  0  0  0  0  0  0  0
   59.7072   27.5843   45.4393 H   0  0  0  0  0  0  0  0  0  0  0  0
   61.4837   28.9118   46.6176 H   0  0  0  0  0  0  0  0  0  0  0  0
   61.2228   31.3934   46.9266 H   0  0  0  0  0  0  0  0  0  0  0  0
   60.2474   34.1319   51.0293 H   0  0  0  0  0  0  0  0  0  0  0  0
   62.8300   34.2980   51.1250 H   0  0  0  0  0  0  0  0  0  0  0  0
  1  2  2  0
  2  3  1  0
  3  4  2  0
  4  5  1  0
  5  6  1  0
  6  7  2  0
  6  8  1  0
  8  9  1  0
  9 10  1  0
 10 11  1  0
 12 11  1  6
 12 13  1  0
 13 14  2  0
 13 15  1  0
 15 16  1  0
 16 17  2  0
 17 18  1  0
 18 19  2  0
 19 20  1  0
 20 21  2  0
 21 22  1  0
 22 23  2  0
 23 24  1  0
  5 25  2  0
 25 26  1  0
 26  3  1  0
 12  8  1  0
 24 15  2  0
 23 12  1  0
 24 19  1  0
  1 27  1  0
  1 28  1  0
  2 29  1  0
  4 30  1  0
  8 31  1  1
  9 32  1  0
  9 33  1  0
 10 34  1  0
 11 35  1  0
 11 36  1  0
 16 37  1  0
 17 38  1  0
 18 39  1  0
 20 40  1  0
 21 41  1  0
 22 42  1  0
 25 43  1  0
 26 44  1  0
M  END
>  <UniqueID>  (27) 
26

>  <SMILES>  (27) 
C=Cc1cc(C(=O)[C@H]2CNC[C@]23C(=O)c2cccc4cccc3c24)c[nH]1

>  <Energy>  (27) 
112.97328702878357

>  <Genealogy>  (27) 
C=Cc1cc(C(=O)[C@H]2CNC[C@]23C(=O)c2cccc4cccc3c24)c[nH]1 (chirality)
C=Cc1cc(C(=O)[C@H]2CNC[C@]23C(=O)c2cccc4cccc3c24)c[nH]1 (3D coordinates assigned)
C=Cc1cc(C(=O)[C@H]2CNC[C@]23C(=O)c2cccc4cccc3c24)c[nH]1 (nonaromatic ring conformer: 112.97328702878357 kcal/mol)

>  <smiles>  (27) 
C=Cc1cc(C(=O)C2CNCC23C(=O)c2cccc4cccc3c24)c[nH]1

>  <score_type>  (27) 
oracle

>  <origin>  (27) 
adg

>  <m_score__min__energy>  (27) 
-8.75

>  <m_primary>  (27) 
energy

$$$$
27:0
     RDKit          3D

 35 37  0  0  0  0  0  0  0  0999 V2000
   56.1280   26.9690   45.9780 O   0  0  0  0  0  0  0  0  0  0  0  0
   56.5110   28.0160   45.3920 C   0  0  0  0  0  0  0  0  0  0  0  0
   55.5500   28.9390   44.8740 N   0  0  0  0  0  0  0  0  0  0  0  0
   55.8660   29.9110   43.8360 C   0  0  0  0  0  0  0  0  0  0  0  0
   56.2860   31.2450   44.4610 C   0  0  0  0  0  0  0  0  0  0  0  0
   57.6990   31.6870   44.0520 C   0  0  0  0  0  0  0  0  0  0  0  0
   58.1670   32.7990   44.8760 N   0  0  0  0  0  0  0  0  0  0  0  0
   58.9790   33.8000   44.4990 C   0  0  0  0  0  0  0  0  0  0  0  0
   59.1250   34.6500   45.5720 C   0  0  0  0  0  0  0  0  0  0  0  0
   58.4050   34.1900   46.6160 N   0  0  0  0  0  0  0  0  0  0  0  0
   57.8310   33.0590   46.1540 C   0  0  0  0  0  0  0  0  0  0  0  0
   57.9490   28.2980   45.2300 C   0  0  0  0  0  0  0  0  0  0  0  0
   58.7670   27.8010   44.2170 C   0  0  0  0  0  0  0  0  0  0  0  0
   60.0330   28.2510   44.3650 N   0  0  0  0  0  0  0  0  0  0  0  0
   60.0260   29.0260   45.4630 C   0  0  0  0  0  0  0  0  0  0  0  0
   61.1090   29.7110   46.0140 C   0  0  0  0  0  0  0  0  0  0  0  0
   60.8850   30.4710   47.1750 C   0  0  0  0  0  0  0  0  0  0  0  0
   59.5990   30.5320   47.7530 C   0  0  0  0  0  0  0  0  0  0  0  0
   58.5240   29.8310   47.1760 C   0  0  0  0  0  0  0  0  0  0  0  0
   58.7720   29.0820   46.0230 C   0  0  0  0  0  0  0  0  0  0  0  0
   56.6900   29.5255   43.2176 H   0  0  0  0  0  0  0  0  0  0  0  0
   54.9717   30.0739   43.2166 H   0  0  0  0  0  0  0  0  0  0  0  0
   55.5721   32.0196   44.1442 H   0  0  0  0  0  0  0  0  0  0  0  0
   56.2897   31.1077   45.5524 H   0  0  0  0  0  0  0  0  0  0  0  0
   58.3884   30.8381   44.1708 H   0  0  0  0  0  0  0  0  0  0  0  0
   57.6687   32.0202   43.0041 H   0  0  0  0  0  0  0  0  0  0  0  0
   59.4444   33.9194   43.5095 H   0  0  0  0  0  0  0  0  0  0  0  0
   59.7357   35.5649   45.5773 H   0  0  0  0  0  0  0  0  0  0  0  0
   57.1643   32.4218   46.7535 H   0  0  0  0  0  0  0  0  0  0  0  0
   58.4293   27.1351   43.4092 H   0  0  0  0  0  0  0  0  0  0  0  0
   60.8490   28.0360   43.7500 H   0  0  0  0  0  0  0  0  0  0  0  0
   62.1070   29.6581   45.5544 H   0  0  0  0  0  0  0  0  0  0  0  0
   61.7178   31.0220   47.6362 H   0  0  0  0  0  0  0  0  0  0  0  0
   59.4359   31.1316   48.6607 H   0  0  0  0  0  0  0  0  0  0  0  0
   57.5182   29.8715   47.6196 H   0  0  0  0  0  0  0  0  0  0  0  0
  1  2  2  0
  2  3  1  0
  3  4  1  0
  4  5  1  0
  5  6  1  0
  6  7  1  0
  7  8  1  0
  8  9  2  0
  9 10  1  0
 10 11  2  0
  2 12  1  0
 12 13  2  0
 13 14  1  0
 14 15  1  0
 15 16  2  0
 16 17  1  0
 17 18  2  0
 18 19  1  0
 19 20  2  0
 11  7  1  0
 20 12  1  0
 20 15  1  0
  4 21  1  0
  4 22  1  0
  5 23  1  0
  5 24  1  0
  6 25  1  0
  6 26  1  0
  8 27  1  0
  9 28  1  0
 11 29  1  0
 13 30  1  0
 14 31  1  0
 16 32  1  0
 17 33  1  0
 18 34  1  0
 19 35  1  0
M  CHG  1   3  -1
M  END
>  <UniqueID>  (28) 
27

>  <SMILES>  (28) 
O=C([N-]CCCn1ccnc1)c1c[nH]c2ccccc12

>  <Energy>  (28) 
92.21174206907082

>  <Genealogy>  (28) 
O=C([N-]CCCn1ccnc1)c1c[nH]c2ccccc12 (protonated)
O=C([N-]CCCn1ccnc1)c1c[nH]c2ccccc12 (3D coordinates assigned)
O=C([N-]CCCn1ccnc1)c1c[nH]c2ccccc12 (optimized conformer: 92.21174206907082 kcal/mol)

>  <smiles>  (28) 
O=C(NCCCn1ccnc1)c1c[nH]c2ccccc12

>  <score_type>  (28) 
oracle

>  <origin>  (28) 
adg

>  <m_score__min__energy>  (28) 
-8.2400000000000002

>  <m_primary>  (28) 
energy

$$$$
28:0
     RDKit          3D

 43 44  0  0  0  0  0  0  0  0999 V2000
   52.7370   22.2510   47.0360 C   0  0  0  0  0  0  0  0  0  0  0  0
   52.5710   22.4840   45.6100 N   0  0  0  0  0  0  0  0  0  0  0  0
   52.6220   23.7910   45.0250 C   0  0  0  0  0  0  0  0  0  0  0  0
   52.0150   24.0180   43.9440 O   0  0  0  0  0  0  0  0  0  0  0  0
   53.3500   24.8580   45.6490 N   0  0  0  0  0  0  0  0  0  0  0  0
   54.6380   25.0350   45.6180 C   0  0  0  0  0  0  0  0  0  0  0  0
   55.2560   26.2040   45.8930 N   0  0  0  0  0  0  0  0  0  0  0  0
   56.6080   26.0910   45.7860 C   0  0  0  0  0  0  0  0  0  0  0  0
   57.5190   27.2350   46.1130 C   0  0  0  0  0  0  0  0  0  0  0  0
   56.8780   28.4950   45.7520 N   0  0  0  0  0  0  0  0  0  0  0  0
   57.6250   29.6150   45.2650 C   0  0  0  0  0  0  0  0  0  0  0  0
   58.8080   29.4610   44.8570 O   0  0  0  0  0  0  0  0  0  0  0  0
   57.0220   30.9120   45.2510 N   0  0  0  0  0  0  0  0  0  0  0  0
   57.7450   32.1250   45.5040 C   0  0  0  0  0  0  0  0  0  0  0  0
   57.4720   33.2340   44.6980 C   0  0  0  0  0  0  0  0  0  0  0  0
   58.1730   34.4250   44.8740 C   0  0  0  0  0  0  0  0  0  0  0  0
   59.1540   34.5210   45.8600 C   0  0  0  0  0  0  0  0  0  0  0  0
   59.4270   33.4320   46.7060 C   0  0  0  0  0  0  0  0  0  0  0  0
   60.4380   33.5140   47.7250 N   0  0  0  0  0  0  0  0  0  0  0  0
   62.0600   32.9110   47.6140 S   0  0  0  0  0  0  0  0  0  0  0  0
   62.9980   33.8740   46.4470 C   0  0  0  0  0  0  0  0  0  0  0  0
   62.0130   31.4870   47.1350 O   0  0  0  0  0  0  0  0  0  0  0  0
   62.7160   32.9440   48.9660 O   0  0  0  0  0  0  0  0  0  0  0  0
   58.6910   32.2330   46.5570 C   0  0  0  0  0  0  0  0  0  0  0  0
   58.9230   31.0880   47.5170 C   0  0  0  0  0  0  0  0  0  0  0  0
   57.0690   24.8220   45.4350 C   0  0  0  0  0  0  0  0  0  0  0  0
   55.7310   23.8180   45.2450 S   0  0  0  0  0  0  0  0  0  0  0  0
   52.1888   23.0204   47.5995 H   0  0  0  0  0  0  0  0  0  0  0  0
   52.3424   21.2570   47.2935 H   0  0  0  0  0  0  0  0  0  0  0  0
   53.8053   22.2993   47.2935 H   0  0  0  0  0  0  0  0  0  0  0  0
   57.7370   27.2318   47.1912 H   0  0  0  0  0  0  0  0  0  0  0  0
   58.4553   27.1278   45.5456 H   0  0  0  0  0  0  0  0  0  0  0  0
   55.8610   28.6200   45.9580 H   0  0  0  0  0  0  0  0  0  0  0  0
   56.6981   33.1658   43.9192 H   0  0  0  0  0  0  0  0  0  0  0  0
   57.9520   35.2916   44.2336 H   0  0  0  0  0  0  0  0  0  0  0  0
   59.7194   35.4573   45.9770 H   0  0  0  0  0  0  0  0  0  0  0  0
   63.6656   34.5594   46.9898 H   0  0  0  0  0  0  0  0  0  0  0  0
   63.5974   33.2022   45.8150 H   0  0  0  0  0  0  0  0  0  0  0  0
   62.3106   34.4555   45.8150 H   0  0  0  0  0  0  0  0  0  0  0  0
   58.8485   31.4557   48.5511 H   0  0  0  0  0  0  0  0  0  0  0  0
   58.1644   30.3093   47.3492 H   0  0  0  0  0  0  0  0  0  0  0  0
   59.9249   30.6660   47.3492 H   0  0  0  0  0  0  0  0  0  0  0  0
   58.1213   24.5290   45.3052 H   0  0  0  0  0  0  0  0  0  0  0  0
  1  2  1  0
  2  3  1  0
  3  4  2  0
  3  5  1  0
  5  6  2  3
  6  7  1  0
  7  8  1  0
  8  9  1  0
  9 10  1  0
 10 11  1  0
 11 12  2  0
 11 13  1  0
 13 14  1  0
 14 15  2  0
 15 16  1  0
 16 17  2  0
 17 18  1  0
 18 19  1  0
 19 20  1  0
 20 21  1  0
 20 22  2  0
 20 23  2  0
 18 24  2  0
 24 25  1  0
  8 26  2  0
 26 27  1  0
 27  6  1  0
 24 14  1  0
  1 28  1  0
  1 29  1  0
  1 30  1  0
  9 31  1  0
  9 32  1  0
 10 33  1  0
 15 34  1  0
 16 35  1  0
 17 36  1  0
 21 37  1  0
 21 38  1  0
 21 39  1  0
 25 40  1  0
 25 41  1  0
 25 42  1  0
 26 43  1  0
M  CHG  4   2  -1   7  -1  13  -1  19  -1
M  END
>  <UniqueID>  (29) 
28

>  <SMILES>  (29) 
C[N-]C(=O)N=c1[n-]c(CNC(=O)[N-]c2cccc([N-]S(C)(=O)=O)c2C)cs1

>  <Energy>  (29) 
74.42907519149331

>  <Genealogy>  (29) 
C[N-]C(=O)N=c1[n-]c(CNC(=O)[N-]c2cccc([N-]S(C)(=O)=O)c2C)cs1 (protonated)
C[N-]C(=O)N=c1[n-]c(CNC(=O)[N-]c2cccc([N-]S(C)(=O)=O)c2C)cs1 (3D coordinates assigned)
C[N-]C(=O)N=c1[n-]c(CNC(=O)[N-]c2cccc([N-]S(C)(=O)=O)c2C)cs1 (optimized conformer: 74.42907519149331 kcal/mol)

>  <smiles>  (29) 
CNC(=O)N=c1[nH]c(CNC(=O)Nc2cccc(NS(C)(=O)=O)c2C)cs1

>  <score_type>  (29) 
oracle

>  <origin>  (29) 
adg

>  <m_score__min__energy>  (29) 
-13.720000000000001

>  <m_primary>  (29) 
energy

$$$$
29:0
     RDKit          3D

 54 57  0  0  0  0  0  0  0  0999 V2000
   54.4038   31.2808   50.9612 H   0  0  0  0  0  0  0  0  0  0  0  0
   54.8130   30.5280   51.6510 C   0  0  0  0  0  0  0  0  0  0  0  0
   56.1530   30.4770   51.8820 N   0  0  0  0  0  0  0  0  0  0  0  0
   56.7070   29.5750   52.7350 C   0  0  0  0  0  0  0  0  0  0  0  0
   58.0010   29.5970   52.8990 N   0  0  0  0  0  0  0  0  0  0  0  0
   59.0140   29.3580   51.9120 C   0  0  0  0  0  0  0  0  0  0  0  0
   59.9170   28.5020   52.1260 O   0  0  0  0  0  0  0  0  0  0  0  0
   59.0630   30.1790   50.6840 C   0  0  0  0  0  0  0  0  0  0  0  0
   59.0480   31.5810   50.7550 C   0  0  0  0  0  0  0  0  0  0  0  0
   59.0228   32.0804   51.7348 H   0  0  0  0  0  0  0  0  0  0  0  0
   59.0650   32.3420   49.5870 C   0  0  0  0  0  0  0  0  0  0  0  0
   59.0470   33.4404   49.6427 H   0  0  0  0  0  0  0  0  0  0  0  0
   59.1050   31.7030   48.3460 C   0  0  0  0  0  0  0  0  0  0  0  0
   59.1240   32.4890   47.1860 O   0  0  0  0  0  0  0  0  0  0  0  0
   58.4890   32.1290   45.9930 C   0  0  0  0  0  0  0  0  0  0  0  0
   57.7670   30.9310   45.9550 C   0  0  0  0  0  0  0  0  0  0  0  0
   57.7704   30.2643   46.8299 H   0  0  0  0  0  0  0  0  0  0  0  0
   57.0390   30.5730   44.8110 C   0  0  0  0  0  0  0  0  0  0  0  0
   56.2260   29.3390   44.8160 C   0  0  0  0  0  0  0  0  0  0  0  0
   55.0350   29.3870   44.4110 O   0  0  0  0  0  0  0  0  0  0  0  0
   56.7340   28.0880   45.3020 N   0  0  0  0  0  0  0  0  0  0  0  0
   58.0460   27.8250   45.8240 C   0  0  0  0  0  0  0  0  0  0  0  0
   58.1600   27.1610   47.0520 C   0  0  0  0  0  0  0  0  0  0  0  0
   57.2527   26.8716   47.6024 H   0  0  0  0  0  0  0  0  0  0  0  0
   59.4200   26.8630   47.5840 C   0  0  0  0  0  0  0  0  0  0  0  0
   59.4992   26.3414   48.5492 H   0  0  0  0  0  0  0  0  0  0  0  0
   60.5770   27.2270   46.8910 C   0  0  0  0  0  0  0  0  0  0  0  0
   61.5671   27.0089   47.3177 H   0  0  0  0  0  0  0  0  0  0  0  0
   60.4730   27.8690   45.6540 C   0  0  0  0  0  0  0  0  0  0  0  0
   61.3834   28.1536   45.1062 H   0  0  0  0  0  0  0  0  0  0  0  0
   59.2160   28.1510   45.1100 C   0  0  0  0  0  0  0  0  0  0  0  0
   59.1405   28.6286   44.1220 H   0  0  0  0  0  0  0  0  0  0  0  0
   57.0820   31.4030   43.6820 C   0  0  0  0  0  0  0  0  0  0  0  0
   56.5201   31.1261   42.7778 H   0  0  0  0  0  0  0  0  0  0  0  0
   57.8340   32.5790   43.6990 C   0  0  0  0  0  0  0  0  0  0  0  0
   57.8596   33.2230   42.8076 H   0  0  0  0  0  0  0  0  0  0  0  0
   58.5570   32.9460   44.8430 C   0  0  0  0  0  0  0  0  0  0  0  0
   59.3480   34.2250   44.8420 C   0  0  0  0  0  0  0  0  0  0  0  0
   59.5412   34.5374   45.8788 H   0  0  0  0  0  0  0  0  0  0  0  0
   60.3045   34.0641   44.3232 H   0  0  0  0  0  0  0  0  0  0  0  0
   58.7768   35.0090   44.3232 H   0  0  0  0  0  0  0  0  0  0  0  0
   59.1480   30.3380   48.2910 N   0  0  0  0  0  0  0  0  0  0  0  0
   59.2070   29.8460   47.3740 H   0  0  0  0  0  0  0  0  0  0  0  0
   59.1170   29.5760   49.4180 C   0  0  0  0  0  0  0  0  0  0  0  0
   59.1344   28.4792   49.3360 H   0  0  0  0  0  0  0  0  0  0  0  0
   55.8710   28.6380   53.3830 C   0  0  0  0  0  0  0  0  0  0  0  0
   56.3019   27.9041   54.0799 H   0  0  0  0  0  0  0  0  0  0  0  0
   54.4880   28.6460   53.1350 C   0  0  0  0  0  0  0  0  0  0  0  0
   53.5860   27.6600   53.8340 C   0  0  0  0  0  0  0  0  0  0  0  0
   53.9570   26.3640   53.5170 F   0  0  0  0  0  0  0  0  0  0  0  0
   53.6890   27.8350   55.2030 F   0  0  0  0  0  0  0  0  0  0  0  0
   52.2680   27.8370   53.4550 F   0  0  0  0  0  0  0  0  0  0  0  0
   53.9570   29.6290   52.2860 C   0  0  0  0  0  0  0  0  0  0  0  0
   52.8710   29.6900   52.1223 H   0  0  0  0  0  0  0  0  0  0  0  0
  1  2  1  0
  2  3  1  0
  3  4  1  0
  4  5  2  0
  5  6  1  0
  6  7  2  0
  6  8  1  0
  8  9  2  0
  9 10  1  0
  9 11  1  0
 11 12  1  0
 11 13  2  0
 13 14  1  0
 14 15  1  0
 15 16  2  0
 16 17  1  0
 16 18  1  0
 18 19  1  0
 19 20  2  0
 19 21  1  0
 21 22  1  0
 22 23  2  0
 23 24  1  0
 23 25  1  0
 25 26  1  0
 25 27  2  0
 27 28  1  0
 27 29  1  0
 29 30  1  0
 29 31  2  0
 31 32  1  0
 18 33  2  0
 33 34  1  0
 33 35  1  0
 35 36  1  0
 35 37  2  0
 37 38  1  0
 38 39  1  0
 38 40  1  0
 38 41  1  0
 13 42  1  0
 42 43  1  0
 42 44  2  0
 44 45  1  0
  4 46  1  0
 46 47  1  0
 46 48  2  0
 48 49  1  0
 49 50  1  0
 49 51  1  0
 49 52  1  0
 48 53  1  0
 53 54  1  0
 53  2  2  0
 44  8  1  0
 37 15  1  0
 31 22  1  0
M  CHG  3   3  -1  21  -1  42   1
M  END
>  <UniqueID>  (30) 
29

>  <SMILES>  (30) 
Cc1ccc(C(=O)[N-]c2ccccc2)cc1Oc1ccc(C(=O)/N=c2\cc(C(F)(F)F)cc[n-]2)c[nH+]1

>  <Energy>  (30) 
84.15937974242539

>  <Genealogy>  (30) 
Cc1ccc(C(=O)[N-]c2ccccc2)cc1Oc1ccc(C(=O)N=c2cc(C(F)(F)F)cc[n-]2)c[nH+]1 (protonated)
Cc1ccc(C(=O)[N-]c2ccccc2)cc1Oc1ccc(C(=O)/N=c2\cc(C(F)(F)F)cc[n-]2)c[nH+]1 (cis-trans isomerization)
Cc1ccc(C(=O)[N-]c2ccccc2)cc1Oc1ccc(C(=O)/N=c2\cc(C(F)(F)F)cc[n-]2)c[nH+]1 (3D coordinates assigned)
Cc1ccc(C(=O)[N-]c2ccccc2)cc1Oc1ccc(C(=O)/N=c2\cc(C(F)(F)F)cc[n-]2)c[nH+]1 (optimized conformer: 84.15937974242539 kcal/mol)

>  <smiles>  (30) 
Cc1ccc(C(=O)Nc2ccccc2)cc1Oc1ccc(C(=O)N=c2cc(C(F)(F)F)cc[nH]2)cn1

>  <score_type>  (30) 
oracle

>  <origin>  (30) 
adg

>  <m_score__min__energy>  (30) 
-10.210000000000001

>  <m_primary>  (30) 
energy

$$$$
30:0
     RDKit          3D

 27 28  0  0  0  0  0  0  0  0999 V2000
   59.2300   29.5810   44.5790 O   0  0  0  0  0  0  0  0  0  0  0  0
   57.9780   29.4210   44.6080 C   0  0  0  0  0  0  0  0  0  0  0  0
   57.1150   30.4500   44.1000 N   0  0  0  0  0  0  0  0  0  0  0  0
   57.6310   31.6660   43.4740 C   0  0  0  0  0  0  0  0  0  0  0  0
   58.0360   32.6620   44.5260 C   0  0  0  0  0  0  0  0  0  0  0  0
   57.6100   32.4940   45.8540 C   0  0  0  0  0  0  0  0  0  0  0  0
   58.0000   33.4070   46.8400 C   0  0  0  0  0  0  0  0  0  0  0  0
   58.8220   34.4890   46.5080 C   0  0  0  0  0  0  0  0  0  0  0  0
   59.2010   35.3700   47.4650 F   0  0  0  0  0  0  0  0  0  0  0  0
   59.2540   34.6590   45.1890 C   0  0  0  0  0  0  0  0  0  0  0  0
   58.8650   33.7490   44.2010 C   0  0  0  0  0  0  0  0  0  0  0  0
   57.4160   28.1780   45.1870 C   0  0  0  0  0  0  0  0  0  0  0  0
   56.0250   28.0060   45.3080 C   0  0  0  0  0  0  0  0  0  0  0  0
   55.1450   28.9910   44.8720 O   0  0  0  0  0  0  0  0  0  0  0  0
   55.5240   26.8620   45.8410 N   0  0  0  0  0  0  0  0  0  0  0  0
   56.3420   25.8700   46.2690 C   0  0  0  0  0  0  0  0  0  0  0  0
   55.8540   24.8180   46.7550 O   0  0  0  0  0  0  0  0  0  0  0  0
   57.6880   26.0120   46.1740 N   0  0  0  0  0  0  0  0  0  0  0  0
   58.2430   27.1370   45.6520 C   0  0  0  0  0  0  0  0  0  0  0  0
   59.4980   27.2400   45.6150 O   0  0  0  0  0  0  0  0  0  0  0  0
   56.0820   30.3670   44.2300 H   0  0  0  0  0  0  0  0  0  0  0  0
   58.5060   31.4135   42.8570 H   0  0  0  0  0  0  0  0  0  0  0  0
   56.8430   32.1080   42.8465 H   0  0  0  0  0  0  0  0  0  0  0  0
   56.9675   31.6416   46.1197 H   0  0  0  0  0  0  0  0  0  0  0  0
   57.6598   33.2737   47.8775 H   0  0  0  0  0  0  0  0  0  0  0  0
   59.9007   35.5097   44.9282 H   0  0  0  0  0  0  0  0  0  0  0  0
   59.2094   33.8847   43.1652 H   0  0  0  0  0  0  0  0  0  0  0  0
  1  2  2  0
  2  3  1  0
  3  4  1  0
  4  5  1  0
  5  6  2  0
  6  7  1  0
  7  8  2  0
  8  9  1  0
  8 10  1  0
 10 11  2  0
  2 12  1  0
 12 13  2  0
 13 14  1  0
 13 15  1  0
 15 16  1  0
 16 17  2  0
 16 18  1  0
 18 19  1  0
 19 20  2  0
 11  5  1  0
 19 12  1  0
  3 21  1  0
  4 22  1  0
  4 23  1  0
  6 24  1  0
  7 25  1  0
 10 26  1  0
 11 27  1  0
M  CHG  3  14  -1  15  -1  18  -1
M  END
>  <UniqueID>  (31) 
30

>  <SMILES>  (31) 
O=C(NCc1ccc(F)cc1)c1c([O-])[n-]c(=O)[n-]c1=O

>  <Energy>  (31) 
32.37634928246966

>  <Genealogy>  (31) 
O=C(NCc1ccc(F)cc1)c1c([O-])[n-]c(=O)[n-]c1=O (protonated)
O=C(NCc1ccc(F)cc1)c1c([O-])[n-]c(=O)[n-]c1=O (3D coordinates assigned)
O=C(NCc1ccc(F)cc1)c1c([O-])[n-]c(=O)[n-]c1=O (optimized conformer: 32.37634928246966 kcal/mol)

>  <smiles>  (31) 
O=C(NCc1ccc(F)cc1)c1c(O)[nH]c(=O)[nH]c1=O

>  <score_type>  (31) 
oracle

>  <origin>  (31) 
adg

>  <m_score__min__energy>  (31) 
-14.02

>  <m_primary>  (31) 
energy

$$$$
31:0
     RDKit          3D

 51 53  0  0  0  0  0  0  0  0999 V2000
   57.3345   22.8534   43.9577 H   0  0  0  0  0  0  0  0  0  0  0  0
   56.4660   23.1100   44.5820 C   0  0  0  0  0  0  0  0  0  0  0  0
   56.0945   22.3930   45.3290 H   0  0  0  0  0  0  0  0  0  0  0  0
   55.8620   24.2930   44.4330 C   0  0  0  0  0  0  0  0  0  0  0  0
   56.2456   24.9989   43.6816 H   0  0  0  0  0  0  0  0  0  0  0  0
   54.6690   24.6860   45.2670 C   0  0  0  0  0  0  0  0  0  0  0  0
   53.7646   24.6297   44.6434 H   0  0  0  0  0  0  0  0  0  0  0  0
   54.6052   23.9940   46.1197 H   0  0  0  0  0  0  0  0  0  0  0  0
   54.7980   26.0500   45.7950 N   0  0  0  0  0  0  0  0  0  0  0  0
   54.3950   26.7290   45.1040 H   0  0  0  0  0  0  0  0  0  0  0  0
   56.1960   26.4100   46.0570 C   0  0  0  0  0  0  0  0  0  0  0  0
   56.4000   26.3253   47.1346 H   0  0  0  0  0  0  0  0  0  0  0  0
   56.8586   25.7295   45.5022 H   0  0  0  0  0  0  0  0  0  0  0  0
   56.4440   27.8180   45.6120 C   0  0  0  0  0  0  0  0  0  0  0  0
   55.5240   28.5850   45.0000 N   0  0  0  0  0  0  0  0  0  0  0  0
   56.1770   29.7490   44.8000 C   0  0  0  0  0  0  0  0  0  0  0  0
   55.6430   30.7360   44.2310 O   0  0  0  0  0  0  0  0  0  0  0  0
   57.4490   29.7700   45.2510 N   0  0  0  0  0  0  0  0  0  0  0  0
   57.5990   28.5510   45.7990 C   0  0  0  0  0  0  0  0  0  0  0  0
   58.8670   28.0460   46.3510 C   0  0  0  0  0  0  0  0  0  0  0  0
   59.5310   28.6080   47.4860 C   0  0  0  0  0  0  0  0  0  0  0  0
   59.2730   29.7760   48.0160 N   0  0  0  0  0  0  0  0  0  0  0  0
   60.0480   31.0180   48.0730 C   0  0  0  0  0  0  0  0  0  0  0  0
   61.0010   30.8262   48.5878 H   0  0  0  0  0  0  0  0  0  0  0  0
   59.2830   32.0870   48.8590 C   0  0  0  0  0  0  0  0  0  0  0  0
   58.3416   32.3184   48.3393 H   0  0  0  0  0  0  0  0  0  0  0  0
   59.0660   31.7090   49.8690 H   0  0  0  0  0  0  0  0  0  0  0  0
   60.1330   33.3630   48.9670 C   0  0  0  0  0  0  0  0  0  0  0  0
   59.4793   34.1884   49.2854 H   0  0  0  0  0  0  0  0  0  0  0  0
   60.9327   33.1529   49.6925 H   0  0  0  0  0  0  0  0  0  0  0  0
   60.7960   33.7550   47.6970 N   0  0  0  0  0  0  0  0  0  0  0  0
   62.5430   33.7040   47.8070 S   0  0  0  0  0  0  0  0  0  0  0  0
   63.0140   34.5980   48.9200 O   0  0  0  0  0  0  0  0  0  0  0  0
   63.1730   34.1510   46.5180 O   0  0  0  0  0  0  0  0  0  0  0  0
   63.0680   32.0410   48.1630 C   0  0  0  0  0  0  0  0  0  0  0  0
   63.1137   31.8962   49.2525 H   0  0  0  0  0  0  0  0  0  0  0  0
   62.3509   31.3291   47.7283 H   0  0  0  0  0  0  0  0  0  0  0  0
   64.0639   31.8699   47.7283 H   0  0  0  0  0  0  0  0  0  0  0  0
   60.2950   33.0480   46.4990 C   0  0  0  0  0  0  0  0  0  0  0  0
   59.2538   33.3553   46.3217 H   0  0  0  0  0  0  0  0  0  0  0  0
   60.9541   33.3180   45.6607 H   0  0  0  0  0  0  0  0  0  0  0  0
   60.3360   31.5110   46.6380 C   0  0  0  0  0  0  0  0  0  0  0  0
   59.5823   31.0794   45.9630 H   0  0  0  0  0  0  0  0  0  0  0  0
   61.3560   31.1885   46.3820 H   0  0  0  0  0  0  0  0  0  0  0  0
   60.5460   27.8950   48.0450 N   0  0  0  0  0  0  0  0  0  0  0  0
   60.9760   26.7140   47.5380 C   0  0  0  0  0  0  0  0  0  0  0  0
   61.7955   26.1657   48.0256 H   0  0  0  0  0  0  0  0  0  0  0  0
   60.3720   26.2030   46.3970 C   0  0  0  0  0  0  0  0  0  0  0  0
   60.7324   25.2634   45.9528 H   0  0  0  0  0  0  0  0  0  0  0  0
   59.3340   26.8710   45.8340 N   0  0  0  0  0  0  0  0  0  0  0  0
   58.8610   26.4420   45.0060 H   0  0  0  0  0  0  0  0  0  0  0  0
  1  2  1  0
  2  3  1  0
  2  4  2  0
  4  5  1  0
  4  6  1  0
  6  7  1  0
  6  8  1  0
  6  9  1  0
  9 10  1  0
  9 11  1  0
 11 12  1  0
 11 13  1  0
 11 14  1  0
 14 15  1  0
 15 16  1  0
 16 17  2  0
 16 18  1  0
 18 19  1  0
 19 20  1  0
 20 21  1  0
 21 22  2  0
 22 23  1  0
 23 24  1  0
 23 25  1  0
 25 26  1  0
 25 27  1  0
 25 28  1  0
 28 29  1  0
 28 30  1  0
 28 31  1  0
 31 32  1  0
 32 33  2  0
 32 34  2  0
 32 35  1  0
 35 36  1  0
 35 37  1  0
 35 38  1  0
 31 39  1  0
 39 40  1  0
 39 41  1  0
 39 42  1  0
 42 43  1  0
 42 44  1  0
 21 45  1  0
 45 46  1  0
 46 47  1  0
 46 48  2  0
 48 49  1  0
 48 50  1  0
 50 51  1  0
 19 14  2  0
 50 20  2  0
 42 23  1  0
M  CHG  4  15  -1  18  -1  45  -1  50   1
M  END
>  <UniqueID>  (32) 
31

>  <SMILES>  (32) 
C=CCNCc1[n-]c(=O)[n-]c1-c1[nH+]cc[n-]/c1=N/C1CCN(S(C)(=O)=O)CC1

>  <Energy>  (32) 
96.83717797886258

>  <Genealogy>  (32) 
C=CCNCc1[n-]c(=O)[n-]c1-c1[nH+]cc[n-]c1=NC1CCN(S(C)(=O)=O)CC1 (protonated)
C=CCNCc1[n-]c(=O)[n-]c1-c1[nH+]cc[n-]/c1=N/C1CCN(S(C)(=O)=O)CC1 (cis-trans isomerization)
C=CCNCc1[n-]c(=O)[n-]c1-c1[nH+]cc[n-]/c1=N/C1CCN(S(C)(=O)=O)CC1 (3D coordinates assigned)
C=CCNCc1[n-]c(=O)[n-]c1-c1[nH+]cc[n-]/c1=N/C1CCN(S(C)(=O)=O)CC1 (nonaromatic ring conformer: 96.83717797886258 kcal/mol)

>  <smiles>  (32) 
C=CCNCc1[nH]c(=O)[nH]c1-c1ncc[nH]c1=NC1CCN(S(C)(=O)=O)CC1

>  <score_type>  (32) 
oracle

>  <origin>  (32) 
adg

>  <m_score__min__energy>  (32) 
-11.359999999999999

>  <m_primary>  (32) 
energy

$$$$
32:0
     RDKit          3D

 58 60  0  0  0  0  0  0  0  0999 V2000
   57.8280   34.0670   45.4710 C   0  0  0  0  0  0  0  0  0  0  0  0
   58.3410   33.0050   46.4450 C   0  0  0  0  0  0  0  0  0  0  0  0
   58.2100   31.6210   45.8460 C   0  0  0  0  0  0  0  0  0  0  0  0
   57.3650   31.4560   44.7410 C   0  0  0  0  0  0  0  0  0  0  0  0
   57.2100   30.2030   44.1440 C   0  0  0  0  0  0  0  0  0  0  0  0
   56.2980   30.0430   42.9650 C   0  0  0  0  0  0  0  0  0  0  0  0
   57.9680   29.1240   44.6050 C   0  0  0  0  0  0  0  0  0  0  0  0
   58.8450   29.2610   45.6960 C   0  0  0  0  0  0  0  0  0  0  0  0
   59.7130   28.0850   46.0450 C   0  0  0  0  0  0  0  0  0  0  0  0
   58.9240   30.5120   46.3720 C   0  0  0  0  0  0  0  0  0  0  0  0
   59.6780   30.7380   47.5820 N   0  0  0  0  0  0  0  0  0  0  0  0
   59.2690   30.7290   49.2710 S   0  0  0  0  0  0  0  0  0  0  0  0
   58.8320   32.1080   49.6780 O   0  0  0  0  0  0  0  0  0  0  0  0
   58.1790   29.7410   49.5810 O   0  0  0  0  0  0  0  0  0  0  0  0
   60.7150   30.2720   50.1930 C   0  0  0  0  0  0  0  0  0  0  0  0
   60.7900   28.9820   50.7320 C   0  0  0  0  0  0  0  0  0  0  0  0
   61.8910   28.6030   51.5070 C   0  0  0  0  0  0  0  0  0  0  0  0
   61.9830   27.2140   52.0680 C   0  0  0  0  0  0  0  0  0  0  0  0
   62.9090   29.4890   51.7060 N   0  0  0  0  0  0  0  0  0  0  0  0
   62.8710   30.7630   51.2260 C   0  0  0  0  0  0  0  0  0  0  0  0
   64.0120   31.6890   51.5700 C   0  0  0  0  0  0  0  0  0  0  0  0
   61.7910   31.1760   50.4040 C   0  0  0  0  0  0  0  0  0  0  0  0
   61.7350   32.5420   49.8490 C   0  0  0  0  0  0  0  0  0  0  0  0
   61.2190   33.4620   50.5350 O   0  0  0  0  0  0  0  0  0  0  0  0
   62.2460   32.8320   48.5420 N   0  0  0  0  0  0  0  0  0  0  0  0
   61.4990   33.5780   47.5410 C   0  0  0  0  0  0  0  0  0  0  0  0
   62.4660   33.8160   46.3880 C   0  0  0  0  0  0  0  0  0  0  0  0
   63.7690   33.0850   46.7370 C   0  0  0  0  0  0  0  0  0  0  0  0
   63.6310   32.6020   48.1740 C   0  0  0  0  0  0  0  0  0  0  0  0
   57.4178   34.9162   46.0372 H   0  0  0  0  0  0  0  0  0  0  0  0
   58.6574   34.4149   44.8377 H   0  0  0  0  0  0  0  0  0  0  0  0
   57.0399   33.6336   44.8377 H   0  0  0  0  0  0  0  0  0  0  0  0
   59.3996   33.2024   46.6696 H   0  0  0  0  0  0  0  0  0  0  0  0
   57.7404   33.0500   47.3655 H   0  0  0  0  0  0  0  0  0  0  0  0
   56.8181   32.3219   44.3395 H   0  0  0  0  0  0  0  0  0  0  0  0
   55.2716   29.8629   43.3172 H   0  0  0  0  0  0  0  0  0  0  0  0
   56.3214   30.9590   42.3564 H   0  0  0  0  0  0  0  0  0  0  0  0
   56.6318   29.1897   42.3564 H   0  0  0  0  0  0  0  0  0  0  0  0
   57.8772   28.1484   44.1051 H   0  0  0  0  0  0  0  0  0  0  0  0
   59.7818   27.9918   47.1389 H   0  0  0  0  0  0  0  0  0  0  0  0
   59.2737   27.1678   45.6258 H   0  0  0  0  0  0  0  0  0  0  0  0
   60.7189   28.2345   45.6258 H   0  0  0  0  0  0  0  0  0  0  0  0
   59.9789   28.2629   50.5450 H   0  0  0  0  0  0  0  0  0  0  0  0
   61.9799   27.2615   53.1670 H   0  0  0  0  0  0  0  0  0  0  0  0
   61.1221   26.6219   51.7241 H   0  0  0  0  0  0  0  0  0  0  0  0
   62.9145   26.7406   51.7241 H   0  0  0  0  0  0  0  0  0  0  0  0
   63.7350   29.1890   52.2760 H   0  0  0  0  0  0  0  0  0  0  0  0
   64.1057   31.7650   52.6634 H   0  0  0  0  0  0  0  0  0  0  0  0
   64.9470   31.2911   51.1487 H   0  0  0  0  0  0  0  0  0  0  0  0
   63.8150   32.6858   51.1487 H   0  0  0  0  0  0  0  0  0  0  0  0
   60.6314   32.9951   47.1983 H   0  0  0  0  0  0  0  0  0  0  0  0
   61.1149   34.5253   47.9474 H   0  0  0  0  0  0  0  0  0  0  0  0
   62.0462   33.4145   45.4539 H   0  0  0  0  0  0  0  0  0  0  0  0
   62.6461   34.8913   46.2424 H   0  0  0  0  0  0  0  0  0  0  0  0
   63.9153   32.2288   46.0621 H   0  0  0  0  0  0  0  0  0  0  0  0
   64.6372   33.7513   46.6262 H   0  0  0  0  0  0  0  0  0  0  0  0
   63.8717   31.5308   48.2420 H   0  0  0  0  0  0  0  0  0  0  0  0
   64.3202   33.1344   48.8460 H   0  0  0  0  0  0  0  0  0  0  0  0
  1  2  1  0
  2  3  1  0
  3  4  2  0
  4  5  1  0
  5  6  1  0
  5  7  2  0
  7  8  1  0
  8  9  1  0
  8 10  2  0
 10 11  1  0
 11 12  1  0
 12 13  2  0
 12 14  2  0
 12 15  1  0
 15 16  2  0
 16 17  1  0
 17 18  1  0
 17 19  2  0
 19 20  1  0
 20 21  1  0
 20 22  2  0
 22 23  1  0
 23 24  2  0
 23 25  1  0
 25 26  1  0
 26 27  1  0
 27 28  1  0
 28 29  1  0
 10  3  1  0
 22 15  1  0
 29 25  1  0
  1 30  1  0
  1 31  1  0
  1 32  1  0
  2 33  1  0
  2 34  1  0
  4 35  1  0
  6 36  1  0
  6 37  1  0
  6 38  1  0
  7 39  1  0
  9 40  1  0
  9 41  1  0
  9 42  1  0
 16 43  1  0
 18 44  1  0
 18 45  1  0
 18 46  1  0
 19 47  1  0
 21 48  1  0
 21 49  1  0
 21 50  1  0
 26 51  1  0
 26 52  1  0
 27 53  1  0
 27 54  1  0
 28 55  1  0
 28 56  1  0
 29 57  1  0
 29 58  1  0
M  CHG  2  11  -1  19   1
M  END
>  <UniqueID>  (33) 
32

>  <SMILES>  (33) 
CCc1cc(C)cc(C)c1[N-]S(=O)(=O)c1cc(C)[nH+]c(C)c1C(=O)N1CCCC1

>  <Energy>  (33) 
82.55391062060373

>  <Genealogy>  (33) 
CCc1cc(C)cc(C)c1[N-]S(=O)(=O)c1cc(C)[nH+]c(C)c1C(=O)N1CCCC1 (protonated)
CCc1cc(C)cc(C)c1[N-]S(=O)(=O)c1cc(C)[nH+]c(C)c1C(=O)N1CCCC1 (3D coordinates assigned)
CCc1cc(C)cc(C)c1[N-]S(=O)(=O)c1cc(C)[nH+]c(C)c1C(=O)N1CCCC1 (nonaromatic ring conformer: 82.55391062060373 kcal/mol)

>  <smiles>  (33) 
CCc1cc(C)cc(C)c1NS(=O)(=O)c1cc(C)nc(C)c1C(=O)N1CCCC1

>  <score_type>  (33) 
oracle

>  <origin>  (33) 
adg

>  <m_score__min__energy>  (33) 
-8.2899999999999991

>  <m_primary>  (33) 
energy

$$$$
33:0
     RDKit          3D

 39 41  0  0  0  0  0  0  0  0999 V2000
   56.1340   29.7980   43.7550 C   0  0  0  0  0  0  0  0  0  0  0  0
   55.8640   29.1270   44.8740 C   0  0  0  0  0  0  0  0  0  0  0  0
   56.8030   28.1480   45.4740 C   0  0  0  0  0  0  0  0  0  0  0  0
   56.2820   26.9600   46.0180 C   0  0  0  0  0  0  0  0  0  0  0  0
   54.9110   26.7160   45.9850 O   0  0  0  0  0  0  0  0  0  0  0  0
   57.1360   26.0050   46.5770 C   0  0  0  0  0  0  0  0  0  0  0  0
   56.6080   24.7930   47.1110 N   0  0  0  0  0  0  0  0  0  0  0  0
   55.6010   23.6920   47.1580 C   0  0  0  0  0  0  0  0  0  0  0  0
   56.6410   23.6420   48.0620 C   0  0  0  0  0  0  0  0  0  0  0  0
   58.5100   26.2360   46.6240 C   0  0  0  0  0  0  0  0  0  0  0  0
   59.0530   27.4320   46.1300 C   0  0  0  0  0  0  0  0  0  0  0  0
   60.5040   27.6590   46.2970 C   0  0  0  0  0  0  0  0  0  0  0  0
   61.2960   26.6810   46.3790 O   0  0  0  0  0  0  0  0  0  0  0  0
   61.0160   28.9940   46.3090 N   0  0  0  0  0  0  0  0  0  0  0  0
   60.6260   30.1250   47.5610 S   0  0  0  0  0  0  0  0  0  0  0  0
   60.9470   29.5170   48.8980 O   0  0  0  0  0  0  0  0  0  0  0  0
   59.1560   30.4330   47.5100 O   0  0  0  0  0  0  0  0  0  0  0  0
   61.5840   31.5870   47.3510 C   0  0  0  0  0  0  0  0  0  0  0  0
   62.9300   31.5950   47.7440 C   0  0  0  0  0  0  0  0  0  0  0  0
   63.7070   32.7440   47.5660 C   0  0  0  0  0  0  0  0  0  0  0  0
   63.1430   33.8880   46.9910 C   0  0  0  0  0  0  0  0  0  0  0  0
   61.8030   33.8830   46.5950 C   0  0  0  0  0  0  0  0  0  0  0  0
   61.0230   32.7360   46.7720 C   0  0  0  0  0  0  0  0  0  0  0  0
   58.1960   28.3910   45.5330 C   0  0  0  0  0  0  0  0  0  0  0  0
   58.6980   29.5800   44.9930 O   0  0  0  0  0  0  0  0  0  0  0  0
   55.4017   30.5133   43.3524 H   0  0  0  0  0  0  0  0  0  0  0  0
   57.0892   29.6366   43.2338 H   0  0  0  0  0  0  0  0  0  0  0  0
   54.9016   29.3071   45.3753 H   0  0  0  0  0  0  0  0  0  0  0  0
   54.5819   23.9032   47.5141 H   0  0  0  0  0  0  0  0  0  0  0  0
   55.2052   22.9881   46.4111 H   0  0  0  0  0  0  0  0  0  0  0  0
   56.4410   23.8140   49.1299 H   0  0  0  0  0  0  0  0  0  0  0  0
   57.3958   22.8830   48.3154 H   0  0  0  0  0  0  0  0  0  0  0  0
   59.1757   25.4725   47.0529 H   0  0  0  0  0  0  0  0  0  0  0  0
   63.3758   30.6954   48.1934 H   0  0  0  0  0  0  0  0  0  0  0  0
   64.7618   32.7484   47.8781 H   0  0  0  0  0  0  0  0  0  0  0  0
   63.7545   34.7915   46.8506 H   0  0  0  0  0  0  0  0  0  0  0  0
   61.3608   34.7831   46.1431 H   0  0  0  0  0  0  0  0  0  0  0  0
   59.9690   32.7342   46.4572 H   0  0  0  0  0  0  0  0  0  0  0  0
   59.4710   30.0950   45.3930 H   0  0  0  0  0  0  0  0  0  0  0  0
  1  2  2  0
  2  3  1  0
  3  4  2  0
  4  5  1  0
  4  6  1  0
  6  7  1  0
  7  8  1  0
  8  9  1  0
  6 10  2  0
 10 11  1  0
 11 12  1  0
 12 13  2  0
 12 14  1  0
 14 15  1  0
 15 16  2  0
 15 17  2  0
 15 18  1  0
 18 19  2  0
 19 20  1  0
 20 21  2  0
 21 22  1  0
 22 23  2  0
 11 24  2  0
 24 25  1  0
 24  3  1  0
  9  7  1  0
 23 18  1  0
  1 26  1  0
  1 27  1  0
  2 28  1  0
  8 29  1  0
  8 30  1  0
  9 31  1  0
  9 32  1  0
 10 33  1  0
 19 34  1  0
 20 35  1  0
 21 36  1  0
 22 37  1  0
 23 38  1  0
 25 39  1  0
M  CHG  2   5  -1  14  -1
M  END
>  <UniqueID>  (34) 
33

>  <SMILES>  (34) 
C=Cc1c([O-])c(N2CC2)cc(C(=O)[N-]S(=O)(=O)c2ccccc2)c1O

>  <Energy>  (34) 
284.4347191670127

>  <Genealogy>  (34) 
C=Cc1c([O-])c(N2CC2)cc(C(=O)[N-]S(=O)(=O)c2ccccc2)c1O (protonated)
C=Cc1c([O-])c(N2CC2)cc(C(=O)[N-]S(=O)(=O)c2ccccc2)c1O (3D coordinates assigned)
C=Cc1c([O-])c(N2CC2)cc(C(=O)[N-]S(=O)(=O)c2ccccc2)c1O (nonaromatic ring conformer: 284.4347191670127 kcal/mol)

>  <smiles>  (34) 
C=Cc1c(O)c(C(=O)NS(=O)(=O)c2ccccc2)cc(N2CC2)c1O

>  <score_type>  (34) 
oracle

>  <origin>  (34) 
adg

>  <m_score__min__energy>  (34) 
-11.24

>  <m_primary>  (34) 
energy

$$$$
34:0
     RDKit          3D

 56 59  0  0  0  0  0  0  0  0999 V2000
   55.2930   26.7340   45.7970 O   0  0  0  0  0  0  0  0  0  0  0  0
   56.2420   27.5480   45.6310 C   0  0  0  0  0  0  0  0  0  0  0  0
   55.9660   28.9260   45.3560 N   0  0  0  0  0  0  0  0  0  0  0  0
   55.5110   29.4050   44.0570 C   0  0  0  0  0  0  0  0  0  0  0  0
   56.4170   30.5130   43.6000 C   0  0  0  0  0  0  0  0  0  0  0  0
   56.7790   30.6230   42.2500 C   0  0  0  0  0  0  0  0  0  0  0  0
   57.5680   31.6940   41.8200 C   0  0  0  0  0  0  0  0  0  0  0  0
   57.9760   32.6750   42.7270 C   0  0  0  0  0  0  0  0  0  0  0  0
   57.5940   32.5930   44.0740 C   0  0  0  0  0  0  0  0  0  0  0  0
   57.9740   33.6490   45.0300 C   0  0  0  0  0  0  0  0  0  0  0  0
   57.9130   34.8530   44.6500 O   0  0  0  0  0  0  0  0  0  0  0  0
   58.4610   33.3280   46.3520 N   0  0  0  0  0  0  0  0  0  0  0  0
   58.6340   34.3800   47.3640 C   0  0  0  0  0  0  0  0  0  0  0  0
   60.1000   34.4300   47.8010 C   0  0  0  0  0  0  0  0  0  0  0  0
   60.6090   33.0870   48.1220 N   0  0  0  0  0  0  0  0  0  0  0  0
   61.9850   32.9410   48.5300 C   0  0  0  0  0  0  0  0  0  0  0  0
   62.8440   33.7640   48.1110 O   0  0  0  0  0  0  0  0  0  0  0  0
   62.4200   31.8510   49.4340 C   0  0  0  0  0  0  0  0  0  0  0  0
   61.5390   30.8130   49.7860 C   0  0  0  0  0  0  0  0  0  0  0  0
   61.9590   29.7940   50.6470 C   0  0  0  0  0  0  0  0  0  0  0  0
   63.2540   29.8080   51.1710 C   0  0  0  0  0  0  0  0  0  0  0  0
   64.1310   30.8430   50.8400 C   0  0  0  0  0  0  0  0  0  0  0  0
   63.7160   31.8660   49.9800 C   0  0  0  0  0  0  0  0  0  0  0  0
   59.7310   31.9150   47.9710 C   0  0  0  0  0  0  0  0  0  0  0  0
   58.9830   31.9780   46.6340 C   0  0  0  0  0  0  0  0  0  0  0  0
   56.8290   31.5010   44.5090 C   0  0  0  0  0  0  0  0  0  0  0  0
   57.5910   27.0650   45.6570 N   0  0  0  0  0  0  0  0  0  0  0  0
   58.7760   27.8640   45.7970 C   0  0  0  0  0  0  0  0  0  0  0  0
   59.5060   28.2010   44.6510 C   0  0  0  0  0  0  0  0  0  0  0  0
   60.6660   28.9750   44.7580 C   0  0  0  0  0  0  0  0  0  0  0  0
   61.0950   29.3880   46.0210 C   0  0  0  0  0  0  0  0  0  0  0  0
   60.3970   29.0270   47.1300 N   0  0  0  0  0  0  0  0  0  0  0  0
   59.2620   28.2790   47.0510 C   0  0  0  0  0  0  0  0  0  0  0  0
   55.5400   28.5808   43.3291 H   0  0  0  0  0  0  0  0  0  0  0  0
   54.4794   29.7780   44.1387 H   0  0  0  0  0  0  0  0  0  0  0  0
   56.4415   29.8651   41.5277 H   0  0  0  0  0  0  0  0  0  0  0  0
   57.8685   31.7644   40.7642 H   0  0  0  0  0  0  0  0  0  0  0  0
   58.5987   33.5143   42.3837 H   0  0  0  0  0  0  0  0  0  0  0  0
   58.3453   35.3515   46.9363 H   0  0  0  0  0  0  0  0  0  0  0  0
   57.9987   34.1599   48.2346 H   0  0  0  0  0  0  0  0  0  0  0  0
   60.7026   34.8559   46.9853 H   0  0  0  0  0  0  0  0  0  0  0  0
   60.1716   35.0533   48.7046 H   0  0  0  0  0  0  0  0  0  0  0  0
   60.5157   30.8025   49.3826 H   0  0  0  0  0  0  0  0  0  0  0  0
   61.2683   28.9799   50.9121 H   0  0  0  0  0  0  0  0  0  0  0  0
   63.5830   29.0032   51.8448 H   0  0  0  0  0  0  0  0  0  0  0  0
   65.1493   30.8542   51.2558 H   0  0  0  0  0  0  0  0  0  0  0  0
   64.4063   32.6852   49.7300 H   0  0  0  0  0  0  0  0  0  0  0  0
   60.3396   30.9993   48.0033 H   0  0  0  0  0  0  0  0  0  0  0  0
   58.9977   31.9098   48.7909 H   0  0  0  0  0  0  0  0  0  0  0  0
   59.6733   31.6893   45.8277 H   0  0  0  0  0  0  0  0  0  0  0  0
   58.1268   31.2899   46.6928 H   0  0  0  0  0  0  0  0  0  0  0  0
   56.5497   31.4178   45.5697 H   0  0  0  0  0  0  0  0  0  0  0  0
   59.1662   27.8560   43.6633 H   0  0  0  0  0  0  0  0  0  0  0  0
   61.2334   29.2550   43.8582 H   0  0  0  0  0  0  0  0  0  0  0  0
   61.9994   30.0065   46.1186 H   0  0  0  0  0  0  0  0  0  0  0  0
   58.7241   27.9986   47.9686 H   0  0  0  0  0  0  0  0  0  0  0  0
  1  2  2  0
  2  3  1  0
  3  4  1  0
  4  5  1  0
  5  6  2  0
  6  7  1  0
  7  8  2  0
  8  9  1  0
  9 10  1  0
 10 11  2  0
 10 12  1  0
 12 13  1  0
 13 14  1  0
 14 15  1  0
 15 16  1  0
 16 17  2  0
 16 18  1  0
 18 19  2  0
 19 20  1  0
 20 21  2  0
 21 22  1  0
 22 23  2  0
 15 24  1  0
 24 25  1  0
  9 26  2  0
  2 27  1  0
 27 28  1  0
 28 29  2  0
 29 30  1  0
 30 31  2  0
 31 32  1  0
 32 33  2  0
 26  5  1  0
 33 28  1  0
 25 12  1  0
 23 18  1  0
  4 34  1  0
  4 35  1  0
  6 36  1  0
  7 37  1  0
  8 38  1  0
 13 39  1  0
 13 40  1  0
 14 41  1  0
 14 42  1  0
 19 43  1  0
 20 44  1  0
 21 45  1  0
 22 46  1  0
 23 47  1  0
 24 48  1  0
 24 49  1  0
 25 50  1  0
 25 51  1  0
 26 52  1  0
 29 53  1  0
 30 54  1  0
 31 55  1  0
 33 56  1  0
M  CHG  2   3  -1  27  -1
M  END
>  <UniqueID>  (35) 
34

>  <SMILES>  (35) 
O=C([N-]Cc1cccc(C(=O)N2CCN(C(=O)c3ccccc3)CC2)c1)[N-]c1cccnc1

>  <Energy>  (35) 
71.99647976431424

>  <Genealogy>  (35) 
O=C([N-]Cc1cccc(C(=O)N2CCN(C(=O)c3ccccc3)CC2)c1)[N-]c1cccnc1 (protonated)
O=C([N-]Cc1cccc(C(=O)N2CCN(C(=O)c3ccccc3)CC2)c1)[N-]c1cccnc1 (3D coordinates assigned)
O=C([N-]Cc1cccc(C(=O)N2CCN(C(=O)c3ccccc3)CC2)c1)[N-]c1cccnc1 (nonaromatic ring conformer: 71.99647976431424 kcal/mol)

>  <smiles>  (35) 
O=C(NCc1cccc(C(=O)N2CCN(C(=O)c3ccccc3)CC2)c1)Nc1cccnc1

>  <score_type>  (35) 
oracle

>  <origin>  (35) 
adg

>  <m_score__min__energy>  (35) 
-13.93

>  <m_primary>  (35) 
energy

$$$$
35:0
     RDKit          3D

 31 33  0  0  0  0  0  0  0  0999 V2000
   56.2720   27.9530   53.4580 C   0  0  0  0  0  0  0  0  0  0  0  0
   55.5770   29.0340   53.1000 C   0  0  0  0  0  0  0  0  0  0  0  0
   54.3450   28.9740   52.5590 N   0  0  0  0  0  0  0  0  0  0  0  0
   53.9520   30.2430   52.3180 C   0  0  0  0  0  0  0  0  0  0  0  0
   52.7590   30.5320   51.7670 C   0  0  0  0  0  0  0  0  0  0  0  0
   51.7510   31.4680   52.3140 C   0  0  0  0  0  0  0  0  0  0  0  0
   51.4200   31.6090   53.6090 N   0  0  0  0  0  0  0  0  0  0  0  0
   50.4710   32.5700   53.5920 C   0  0  0  0  0  0  0  0  0  0  0  0
   49.9060   32.9840   54.6370 O   0  0  0  0  0  0  0  0  0  0  0  0
   50.1760   33.0510   52.3660 N   0  0  0  0  0  0  0  0  0  0  0  0
   50.9940   32.3430   51.5700 C   0  0  0  0  0  0  0  0  0  0  0  0
   51.0460   32.4950   50.1900 O   0  0  0  0  0  0  0  0  0  0  0  0
   54.9490   31.1290   52.7140 C   0  0  0  0  0  0  0  0  0  0  0  0
   55.9820   30.3570   53.2170 C   0  0  0  0  0  0  0  0  0  0  0  0
   57.3030   30.8890   53.6990 C   0  0  0  0  0  0  0  0  0  0  0  0
   57.9580   31.7260   52.6280 C   0  0  0  0  0  0  0  0  0  0  0  0
   58.4510   33.0040   52.9280 C   0  0  0  0  0  0  0  0  0  0  0  0
   59.0650   33.7430   51.9680 N   0  0  0  0  0  0  0  0  0  0  0  0
   59.2180   33.2610   50.7070 C   0  0  0  0  0  0  0  0  0  0  0  0
   59.7910   33.9610   49.8320 O   0  0  0  0  0  0  0  0  0  0  0  0
   58.7550   32.0250   50.3910 N   0  0  0  0  0  0  0  0  0  0  0  0
   58.1320   31.2500   51.3160 C   0  0  0  0  0  0  0  0  0  0  0  0
   57.7160   30.1080   50.9850 O   0  0  0  0  0  0  0  0  0  0  0  0
   57.2751   28.0641   53.8955 H   0  0  0  0  0  0  0  0  0  0  0  0
   55.8419   26.9506   53.3156 H   0  0  0  0  0  0  0  0  0  0  0  0
   53.7980   28.1050   52.3590 H   0  0  0  0  0  0  0  0  0  0  0  0
   52.5096   30.0259   50.8227 H   0  0  0  0  0  0  0  0  0  0  0  0
   54.9217   32.2263   52.6417 H   0  0  0  0  0  0  0  0  0  0  0  0
   57.1393   31.5085   54.5931 H   0  0  0  0  0  0  0  0  0  0  0  0
   57.9612   30.0414   53.9404 H   0  0  0  0  0  0  0  0  0  0  0  0
   58.3401   33.4095   53.9445 H   0  0  0  0  0  0  0  0  0  0  0  0
  1  2  2  0
  2  3  1  0
  3  4  1  0
  4  5  2  3
  5  6  1  0
  6  7  1  0
  7  8  1  0
  8  9  2  0
  8 10  1  0
 10 11  1  0
 11 12  1  0
  4 13  1  0
 13 14  2  0
 14 15  1  0
 15 16  1  0
 16 17  2  0
 17 18  1  0
 18 19  1  0
 19 20  2  0
 19 21  1  0
 21 22  1  0
 22 23  2  0
 14  2  1  0
 22 16  1  0
 11  6  2  0
  1 24  1  0
  1 25  1  0
  3 26  1  0
  5 27  1  0
 13 28  1  0
 15 29  1  0
 15 30  1  0
 17 31  1  0
M  CHG  5   7  -1  10  -1  12  -1  18  -1  21  -1
M  END
>  <UniqueID>  (36) 
35

>  <SMILES>  (36) 
C=c1[nH]c(=Cc2[n-]c(=O)[n-]c2[O-])cc1Cc1c[n-]c(=O)[n-]c1=O

>  <Energy>  (36) 
92.74722226331392

>  <Genealogy>  (36) 
C=c1[nH]c(=Cc2[n-]c(=O)[n-]c2[O-])cc1Cc1c[n-]c(=O)[n-]c1=O (protonated)
C=c1[nH]c(=Cc2[n-]c(=O)[n-]c2[O-])cc1Cc1c[n-]c(=O)[n-]c1=O (3D coordinates assigned)
C=c1[nH]c(=Cc2[n-]c(=O)[n-]c2[O-])cc1Cc1c[n-]c(=O)[n-]c1=O (optimized conformer: 92.74722226331392 kcal/mol)

>  <smiles>  (36) 
C=c1[nH]c(=Cc2[nH]c(=O)[nH]c2O)cc1Cc1c[nH]c(=O)[nH]c1=O

>  <score_type>  (36) 
oracle

>  <origin>  (36) 
adg

>  <m_score__min__energy>  (36) 
-17.649999999999999

>  <m_primary>  (36) 
energy

$$$$
36:0
     RDKit          3D

 53 56  0  0  0  0  0  0  0  0999 V2000
   54.6000   27.0850   46.6530 H   0  0  0  0  0  0  0  0  0  0  0  0
   54.8190   26.3140   45.9840 N   0  0  0  0  0  0  0  0  0  0  0  0
   55.8030   25.3290   46.2940 C   0  0  0  0  0  0  0  0  0  0  0  0
   56.2780   25.2950   47.4600 O   0  0  0  0  0  0  0  0  0  0  0  0
   56.2530   24.3370   45.2770 C   0  0  0  0  0  0  0  0  0  0  0  0
   55.3070   23.8270   44.3640 C   0  0  0  0  0  0  0  0  0  0  0  0
   54.2595   24.1571   44.4261 H   0  0  0  0  0  0  0  0  0  0  0  0
   55.6830   22.9090   43.3830 C   0  0  0  0  0  0  0  0  0  0  0  0
   54.9344   22.5272   42.6732 H   0  0  0  0  0  0  0  0  0  0  0  0
   57.0030   22.4750   43.3000 C   0  0  0  0  0  0  0  0  0  0  0  0
   57.2957   21.7506   42.5257 H   0  0  0  0  0  0  0  0  0  0  0  0
   57.9550   22.9580   44.1980 C   0  0  0  0  0  0  0  0  0  0  0  0
   58.9933   22.6000   44.1364 H   0  0  0  0  0  0  0  0  0  0  0  0
   57.5990   23.9000   45.1830 C   0  0  0  0  0  0  0  0  0  0  0  0
   58.5800   24.3500   46.1330 N   0  0  0  0  0  0  0  0  0  0  0  0
   59.1410   25.6670   46.2150 C   0  0  0  0  0  0  0  0  0  0  0  0
   60.1780   25.8350   46.9110 O   0  0  0  0  0  0  0  0  0  0  0  0
   58.5100   26.8330   45.5540 C   0  0  0  0  0  0  0  0  0  0  0  0
   57.9600   27.8680   46.3260 C   0  0  0  0  0  0  0  0  0  0  0  0
   57.9998   27.8107   47.4238 H   0  0  0  0  0  0  0  0  0  0  0  0
   57.3620   28.9710   45.7100 C   0  0  0  0  0  0  0  0  0  0  0  0
   56.9496   29.7820   46.3282 H   0  0  0  0  0  0  0  0  0  0  0  0
   57.2820   29.0550   44.3120 C   0  0  0  0  0  0  0  0  0  0  0  0
   56.6460   30.2520   43.7080 C   0  0  0  0  0  0  0  0  0  0  0  0
   55.8572   30.0957   42.9575 H   0  0  0  0  0  0  0  0  0  0  0  0
   56.9760   31.5130   44.0230 C   0  0  0  0  0  0  0  0  0  0  0  0
   56.5979   31.9410   44.9631 H   0  0  0  0  0  0  0  0  0  0  0  0
   57.8260   32.3450   43.1560 C   0  0  0  0  0  0  0  0  0  0  0  0
   57.8380   32.1670   41.9070 O   0  0  0  0  0  0  0  0  0  0  0  0
   58.6790   33.3250   43.7590 N   0  0  0  0  0  0  0  0  0  0  0  0
   58.8990   33.5180   45.1650 C   0  0  0  0  0  0  0  0  0  0  0  0
   59.2260   34.8000   45.6220 C   0  0  0  0  0  0  0  0  0  0  0  0
   59.2915   35.6330   44.9065 H   0  0  0  0  0  0  0  0  0  0  0  0
   59.4700   35.0320   46.9780 C   0  0  0  0  0  0  0  0  0  0  0  0
   59.7138   36.0466   47.3260 H   0  0  0  0  0  0  0  0  0  0  0  0
   59.4050   33.9780   47.8930 C   0  0  0  0  0  0  0  0  0  0  0  0
   59.6470   34.2100   49.2110 N   0  0  0  0  0  0  0  0  0  0  0  0
   59.6110   33.2140   50.1370 C   0  0  0  0  0  0  0  0  0  0  0  0
   59.8540   33.5320   51.5780 C   0  0  0  0  0  0  0  0  0  0  0  0
   59.3069   32.8160   52.2088 H   0  0  0  0  0  0  0  0  0  0  0  0
   60.9306   33.4616   51.7925 H   0  0  0  0  0  0  0  0  0  0  0  0
   59.5033   34.5523   51.7925 H   0  0  0  0  0  0  0  0  0  0  0  0
   59.3000   31.9070   49.7420 C   0  0  0  0  0  0  0  0  0  0  0  0
   59.2541   31.1009   50.4891 H   0  0  0  0  0  0  0  0  0  0  0  0
   59.0480   31.6300   48.3950 C   0  0  0  0  0  0  0  0  0  0  0  0
   58.7750   30.4500   48.0470 O   0  0  0  0  0  0  0  0  0  0  0  0
   59.0980   32.6720   47.4480 C   0  0  0  0  0  0  0  0  0  0  0  0
   58.8540   32.4480   46.0800 C   0  0  0  0  0  0  0  0  0  0  0  0
   58.6271   31.4324   45.7237 H   0  0  0  0  0  0  0  0  0  0  0  0
   57.8320   28.0150   43.5370 C   0  0  0  0  0  0  0  0  0  0  0  0
   57.7898   28.0705   42.4392 H   0  0  0  0  0  0  0  0  0  0  0  0
   58.4310   26.9130   44.1540 C   0  0  0  0  0  0  0  0  0  0  0  0
   58.8442   26.1011   43.5375 H   0  0  0  0  0  0  0  0  0  0  0  0
  1  2  1  0
  2  3  1  0
  3  4  2  0
  3  5  1  0
  5  6  2  0
  6  7  1  0
  6  8  1  0
  8  9  1  0
  8 10  2  0
 10 11  1  0
 10 12  1  0
 12 13  1  0
 12 14  2  0
 14 15  1  0
 15 16  1  0
 16 17  2  0
 16 18  1  0
 18 19  2  0
 19 20  1  0
 19 21  1  0
 21 22  1  0
 21 23  2  0
 23 24  1  0
 24 25  1  0
 24 26  2  0
 26 27  1  0
 26 28  1  0
 28 29  2  0
 28 30  1  0
 30 31  1  0
 31 32  2  0
 32 33  1  0
 32 34  1  0
 34 35  1  0
 34 36  2  0
 36 37  1  0
 37 38  1  0
 38 39  1  0
 39 40  1  0
 39 41  1  0
 39 42  1  0
 38 43  2  0
 43 44  1  0
 43 45  1  0
 45 46  2  0
 45 47  1  0
 47 48  2  0
 48 49  1  0
 23 50  1  0
 50 51  1  0
 50 52  2  0
 52 53  1  0
 14  5  1  0
 52 18  1  0
 48 31  1  0
 47 36  1  0
M  CHG  4   2  -1  15  -1  30  -1  37  -1
M  END
>  <UniqueID>  (37) 
36

>  <SMILES>  (37) 
Cc1cc(=O)c2cc([N-]C(=O)/C=C/c3ccc(C(=O)[N-]c4ccccc4C([NH-])=O)cc3)ccc2[n-]1

>  <Energy>  (37) 
76.16706093038685

>  <Genealogy>  (37) 
Cc1cc(=O)c2cc([N-]C(=O)C=Cc3ccc(C(=O)[N-]c4ccccc4C([NH-])=O)cc3)ccc2[n-]1 (protonated)
Cc1cc(=O)c2cc([N-]C(=O)/C=C/c3ccc(C(=O)[N-]c4ccccc4C([NH-])=O)cc3)ccc2[n-]1 (cis-trans isomerization)
Cc1cc(=O)c2cc([N-]C(=O)/C=C/c3ccc(C(=O)[N-]c4ccccc4C([NH-])=O)cc3)ccc2[n-]1 (3D coordinates assigned)
Cc1cc(=O)c2cc([N-]C(=O)/C=C/c3ccc(C(=O)[N-]c4ccccc4C([NH-])=O)cc3)ccc2[n-]1 (optimized conformer: 76.16706093038685 kcal/mol)

>  <smiles>  (37) 
Cc1cc(=O)c2cc(NC(=O)C=Cc3ccc(C(=O)Nc4ccccc4C(N)=O)cc3)ccc2[nH]1

>  <score_type>  (37) 
oracle

>  <origin>  (37) 
adg

>  <m_score__min__energy>  (37) 
-17.280000000000001

>  <m_primary>  (37) 
energy

$$$$
37:0
     RDKit          3D

 60 64  0  0  0  0  0  0  0  0999 V2000
   58.6196   28.1701   42.6386 H   0  0  0  0  0  0  0  0  0  0  0  0
   58.1220   27.2650   43.0170 C   0  0  0  0  0  0  0  0  0  0  0  0
   57.4181   26.7151   42.3750 H   0  0  0  0  0  0  0  0  0  0  0  0
   58.3740   26.8310   44.2640 C   0  0  0  0  0  0  0  0  0  0  0  0
   57.8160   25.7010   44.8740 C   0  0  0  0  0  0  0  0  0  0  0  0
   56.9160   24.8480   44.3390 C   0  0  0  0  0  0  0  0  0  0  0  0
   57.1916   24.3483   43.3986 H   0  0  0  0  0  0  0  0  0  0  0  0
   55.5900   24.5300   44.9130 C   0  0  0  0  0  0  0  0  0  0  0  0
   54.9340   23.3630   44.7850 N   0  0  0  0  0  0  0  0  0  0  0  0
   53.7710   23.5810   45.4350 C   0  0  0  0  0  0  0  0  0  0  0  0
   52.8780   22.7000   45.5400 O   0  0  0  0  0  0  0  0  0  0  0  0
   53.6390   24.8160   45.9630 N   0  0  0  0  0  0  0  0  0  0  0  0
   54.7950   25.4050   45.6180 C   0  0  0  0  0  0  0  0  0  0  0  0
   55.1190   26.7170   45.9440 O   0  0  0  0  0  0  0  0  0  0  0  0
   58.3390   25.6630   46.1590 C   0  0  0  0  0  0  0  0  0  0  0  0
   58.1195   24.9117   46.9318 H   0  0  0  0  0  0  0  0  0  0  0  0
   59.1870   26.7460   46.2850 C   0  0  0  0  0  0  0  0  0  0  0  0
   59.8940   27.1050   47.5320 C   0  0  0  0  0  0  0  0  0  0  0  0
   60.8330   26.3790   47.9570 O   0  0  0  0  0  0  0  0  0  0  0  0
   59.5350   28.2760   48.2680 N   0  0  0  0  0  0  0  0  0  0  0  0
   59.9310   28.8970   49.5440 C   0  0  0  0  0  0  0  0  0  0  0  0
   59.7956   28.2239   50.4035 H   0  0  0  0  0  0  0  0  0  0  0  0
   60.9856   29.1907   49.6514 H   0  0  0  0  0  0  0  0  0  0  0  0
   58.9200   29.9960   49.5080 C   0  0  0  0  0  0  0  0  0  0  0  0
   58.1549   29.9637   50.2977 H   0  0  0  0  0  0  0  0  0  0  0  0
   59.1664   31.0621   49.6204 H   0  0  0  0  0  0  0  0  0  0  0  0
   58.5370   29.3600   48.2130 C   0  0  0  0  0  0  0  0  0  0  0  0
   57.5029   28.9851   48.2139 H   0  0  0  0  0  0  0  0  0  0  0  0
   58.5436   30.0013   47.3193 H   0  0  0  0  0  0  0  0  0  0  0  0
   59.2190   27.4520   45.1270 N   0  0  0  0  0  0  0  0  0  0  0  0
   60.0140   28.6630   44.8630 C   0  0  0  0  0  0  0  0  0  0  0  0
   60.8532   28.7044   45.5730 H   0  0  0  0  0  0  0  0  0  0  0  0
   60.3864   28.6196   43.8289 H   0  0  0  0  0  0  0  0  0  0  0  0
   59.1770   29.9000   45.0190 C   0  0  0  0  0  0  0  0  0  0  0  0
   57.8910   30.1040   44.5450 C   0  0  0  0  0  0  0  0  0  0  0  0
   57.3026   29.4187   43.9172 H   0  0  0  0  0  0  0  0  0  0  0  0
   57.4960   31.3390   45.0180 C   0  0  0  0  0  0  0  0  0  0  0  0
   56.5222   31.8106   44.8199 H   0  0  0  0  0  0  0  0  0  0  0  0
   58.4830   31.8800   45.7590 N   0  0  0  0  0  0  0  0  0  0  0  0
   58.4170   33.1390   46.5000 C   0  0  0  0  0  0  0  0  0  0  0  0
   58.8093   33.9487   45.8671 H   0  0  0  0  0  0  0  0  0  0  0  0
   57.3676   33.3301   46.7687 H   0  0  0  0  0  0  0  0  0  0  0  0
   59.2300   33.0690   47.7700 C   0  0  0  0  0  0  0  0  0  0  0  0
   58.6280   32.9850   48.8780 O   0  0  0  0  0  0  0  0  0  0  0  0
   60.6750   33.1360   47.7460 N   0  0  0  0  0  0  0  0  0  0  0  0
   61.3990   33.2850   46.4740 C   0  0  0  0  0  0  0  0  0  0  0  0
   61.4910   32.2996   45.9939 H   0  0  0  0  0  0  0  0  0  0  0  0
   60.8372   33.9751   45.8273 H   0  0  0  0  0  0  0  0  0  0  0  0
   62.7990   33.8620   46.7090 C   0  0  0  0  0  0  0  0  0  0  0  0
   63.3736   33.8050   45.7727 H   0  0  0  0  0  0  0  0  0  0  0  0
   62.6975   34.9076   47.0351 H   0  0  0  0  0  0  0  0  0  0  0  0
   63.4810   33.1400   47.7150 O   0  0  0  0  0  0  0  0  0  0  0  0
   62.8200   33.3230   48.9510 C   0  0  0  0  0  0  0  0  0  0  0  0
   63.4152   32.8581   49.7508 H   0  0  0  0  0  0  0  0  0  0  0  0
   62.7082   34.4017   49.1352 H   0  0  0  0  0  0  0  0  0  0  0  0
   61.4300   32.6830   48.9230 C   0  0  0  0  0  0  0  0  0  0  0  0
   61.5366   31.5888   48.8849 H   0  0  0  0  0  0  0  0  0  0  0  0
   60.8843   32.9810   49.8304 H   0  0  0  0  0  0  0  0  0  0  0  0
   59.5060   31.0030   45.7790 C   0  0  0  0  0  0  0  0  0  0  0  0
   60.4549   31.1446   46.3172 H   0  0  0  0  0  0  0  0  0  0  0  0
  1  2  1  0
  2  3  1  0
  2  4  2  0
  4  5  1  0
  5  6  2  0
  6  7  1  0
  6  8  1  0
  8  9  1  0
  9 10  1  0
 10 11  2  0
 10 12  1  0
 12 13  1  0
 13 14  1  0
  5 15  1  0
 15 16  1  0
 15 17  2  0
 17 18  1  0
 18 19  2  0
 18 20  1  0
 20 21  1  0
 21 22  1  0
 21 23  1  0
 21 24  1  0
 24 25  1  0
 24 26  1  0
 24 27  1  0
 27 28  1  0
 27 29  1  0
 17 30  1  0
 30 31  1  0
 31 32  1  0
 31 33  1  0
 31 34  1  0
 34 35  1  0
 35 36  1  0
 35 37  2  0
 37 38  1  0
 37 39  1  0
 39 40  1  0
 40 41  1  0
 40 42  1  0
 40 43  1  0
 43 44  2  0
 43 45  1  0
 45 46  1  0
 46 47  1  0
 46 48  1  0
 46 49  1  0
 49 50  1  0
 49 51  1  0
 49 52  1  0
 52 53  1  0
 53 54  1  0
 53 55  1  0
 53 56  1  0
 56 57  1  0
 56 58  1  0
 39 59  1  0
 59 60  1  0
 30  4  1  0
 59 34  2  0
 13  8  2  0
 27 20  1  0
 56 45  1  0
M  CHG  3   9  -1  12  -1  14  -1
M  END
>  <UniqueID>  (38) 
37

>  <SMILES>  (38) 
C=c1/c(=C/c2[n-]c(=O)[n-]c2[O-])cc(C(=O)N2CCC2)n1Cc1ccn(CC(=O)N2CCOCC2)c1

>  <Energy>  (38) 
198.47348637687182

>  <Genealogy>  (38) 
C=c1c(=Cc2[n-]c(=O)[n-]c2[O-])cc(C(=O)N2CCC2)n1Cc1ccn(CC(=O)N2CCOCC2)c1 (protonated)
C=c1/c(=C/c2[n-]c(=O)[n-]c2[O-])cc(C(=O)N2CCC2)n1Cc1ccn(CC(=O)N2CCOCC2)c1 (cis-trans isomerization)
C=c1/c(=C/c2[n-]c(=O)[n-]c2[O-])cc(C(=O)N2CCC2)n1Cc1ccn(CC(=O)N2CCOCC2)c1 (3D coordinates assigned)
C=c1/c(=C/c2[n-]c(=O)[n-]c2[O-])cc(C(=O)N2CCC2)n1Cc1ccn(CC(=O)N2CCOCC2)c1 (nonaromatic ring conformer: 198.47348637687182 kcal/mol)

>  <smiles>  (38) 
C=c1c(=Cc2[nH]c(=O)[nH]c2O)cc(C(=O)N2CCC2)n1Cc1ccn(CC(=O)N2CCOCC2)c1

>  <score_type>  (38) 
oracle

>  <origin>  (38) 
adg

>  <m_score__min__energy>  (38) 
-17.09

>  <m_primary>  (38) 
energy

$$$$
38:0
     RDKit          3D

 31 32  0  0  0  0  0  0  0  0999 V2000
   60.2970   28.5870   49.0920 C   0  0  0  0  0  0  0  0  0  0  0  0
   59.9380   29.2450   47.8820 O   0  0  0  0  0  0  0  0  0  0  0  0
   58.9380   28.7670   47.0290 C   0  0  0  0  0  0  0  0  0  0  0  0
   58.0970   29.6740   46.3830 C   0  0  0  0  0  0  0  0  0  0  0  0
   57.1050   29.1800   45.5370 C   0  0  0  0  0  0  0  0  0  0  0  0
   56.2570   30.0730   44.8760 O   0  0  0  0  0  0  0  0  0  0  0  0
   56.2010   30.1750   43.4590 C   0  0  0  0  0  0  0  0  0  0  0  0
   56.9750   27.8360   45.3650 N   0  0  0  0  0  0  0  0  0  0  0  0
   57.7920   26.9580   46.0060 C   0  0  0  0  0  0  0  0  0  0  0  0
   57.6340   25.6840   45.7950 N   0  0  0  0  0  0  0  0  0  0  0  0
   57.0070   24.6970   46.6370 C   0  0  0  0  0  0  0  0  0  0  0  0
   57.0830   24.8420   47.8850 O   0  0  0  0  0  0  0  0  0  0  0  0
   56.3050   23.4760   46.1020 C   0  0  0  0  0  0  0  0  0  0  0  0
   54.8530   23.7170   45.7850 C   0  0  0  0  0  0  0  0  0  0  0  0
   53.9840   22.7150   45.5580 N   0  0  0  0  0  0  0  0  0  0  0  0
   52.8350   23.3510   45.2480 C   0  0  0  0  0  0  0  0  0  0  0  0
   51.7720   22.7350   44.9740 O   0  0  0  0  0  0  0  0  0  0  0  0
   52.9150   24.6970   45.2510 N   0  0  0  0  0  0  0  0  0  0  0  0
   54.1980   24.9180   45.5850 C   0  0  0  0  0  0  0  0  0  0  0  0
   54.7530   26.1880   45.6980 O   0  0  0  0  0  0  0  0  0  0  0  0
   58.7710   27.4330   46.8240 N   0  0  0  0  0  0  0  0  0  0  0  0
   59.9672   29.1914   49.9499 H   0  0  0  0  0  0  0  0  0  0  0  0
   59.8122   27.6004   49.1306 H   0  0  0  0  0  0  0  0  0  0  0  0
   61.3890   28.4607   49.1306 H   0  0  0  0  0  0  0  0  0  0  0  0
   58.2143   30.7567   46.5381 H   0  0  0  0  0  0  0  0  0  0  0  0
   55.6891   31.1073   43.1784 H   0  0  0  0  0  0  0  0  0  0  0  0
   57.2226   30.1805   43.0511 H   0  0  0  0  0  0  0  0  0  0  0  0
   55.6480   29.3160   43.0511 H   0  0  0  0  0  0  0  0  0  0  0  0
   56.8150   23.1548   45.1818 H   0  0  0  0  0  0  0  0  0  0  0  0
   56.3445   22.7064   46.8869 H   0  0  0  0  0  0  0  0  0  0  0  0
   55.6470   26.4000   45.2720 H   0  0  0  0  0  0  0  0  0  0  0  0
  1  2  1  0
  2  3  1  0
  3  4  1  0
  4  5  2  0
  5  6  1  0
  6  7  1  0
  5  8  1  0
  8  9  1  0
  9 10  2  3
 10 11  1  0
 11 12  2  0
 11 13  1  0
 13 14  1  0
 14 15  1  0
 15 16  1  0
 16 17  2  0
 16 18  1  0
 18 19  1  0
 19 20  1  0
  9 21  1  0
 21  3  2  0
 19 14  2  0
  1 22  1  0
  1 23  1  0
  1 24  1  0
  4 25  1  0
  7 26  1  0
  7 27  1  0
  7 28  1  0
 13 29  1  0
 13 30  1  0
 20 31  1  0
M  CHG  3   8  -1  15  -1  18  -1
M  END
>  <UniqueID>  (39) 
38

>  <SMILES>  (39) 
COc1cc(OC)[n-]c(=NC(=O)Cc2[n-]c(=O)[n-]c2O)n1

>  <Energy>  (39) 
59.702114130949376

>  <Genealogy>  (39) 
COc1cc(OC)[n-]c(=NC(=O)Cc2[n-]c(=O)[n-]c2O)n1 (protonated)
COc1cc(OC)[n-]c(=NC(=O)Cc2[n-]c(=O)[n-]c2O)n1 (3D coordinates assigned)
COc1cc(OC)[n-]c(=NC(=O)Cc2[n-]c(=O)[n-]c2O)n1 (optimized conformer: 59.702114130949376 kcal/mol)

>  <smiles>  (39) 
COc1cc(OC)[nH]c(=NC(=O)Cc2[nH]c(=O)[nH]c2O)n1

>  <score_type>  (39) 
oracle

>  <origin>  (39) 
adg

>  <m_score__min__energy>  (39) 
-11.699999999999999

>  <m_primary>  (39) 
energy

$$$$
39:0
     RDKit          3D

 49 52  0  0  0  0  0  0  0  0999 V2000
   53.6140   26.3630   53.4910 C   0  0  0  0  0  0  0  0  0  0  0  0
   54.6840   26.9010   54.4380 C   0  0  0  0  0  0  0  0  0  0  0  0
   55.3580   25.7460   55.1860 C   0  0  0  0  0  0  0  0  0  0  0  0
   55.6500   27.6260   53.6730 O   0  0  0  0  0  0  0  0  0  0  0  0
   55.4720   28.9040   53.1150 C   0  0  0  0  0  0  0  0  0  0  0  0
   56.6150   29.6330   52.7750 C   0  0  0  0  0  0  0  0  0  0  0  0
   56.5130   30.9140   52.2120 C   0  0  0  0  0  0  0  0  0  0  0  0
   57.7290   31.6810   51.8500 C   0  0  0  0  0  0  0  0  0  0  0  0
   58.2210   32.4980   52.6780 O   0  0  0  0  0  0  0  0  0  0  0  0
   58.3680   31.4930   50.5780 N   0  0  0  0  0  0  0  0  0  0  0  0
   59.3760   32.3900   50.0880 C   0  0  0  0  0  0  0  0  0  0  0  0
   60.5300   32.5920   50.8570 C   0  0  0  0  0  0  0  0  0  0  0  0
   61.5130   33.4900   50.4380 C   0  0  0  0  0  0  0  0  0  0  0  0
   61.3620   34.1840   49.2380 C   0  0  0  0  0  0  0  0  0  0  0  0
   60.2380   33.9650   48.4360 C   0  0  0  0  0  0  0  0  0  0  0  0
   59.2390   33.0520   48.8430 C   0  0  0  0  0  0  0  0  0  0  0  0
   58.0110   32.8640   47.9700 C   0  0  0  0  0  0  0  0  0  0  0  0
   58.3180   33.0360   46.4760 C   0  0  0  0  0  0  0  0  0  0  0  0
   59.1250   34.2760   46.2390 C   0  0  0  0  0  0  0  0  0  0  0  0
   58.9820   34.9380   45.1790 O   0  0  0  0  0  0  0  0  0  0  0  0
   60.1200   34.6560   47.1890 N   0  0  0  0  0  0  0  0  0  0  0  0
   55.2390   31.4570   51.9740 C   0  0  0  0  0  0  0  0  0  0  0  0
   54.0750   30.7410   52.3060 C   0  0  0  0  0  0  0  0  0  0  0  0
   52.7320   31.3260   52.0570 C   0  0  0  0  0  0  0  0  0  0  0  0
   51.6510   31.3670   52.9190 C   0  0  0  0  0  0  0  0  0  0  0  0
   50.6230   31.9870   52.3100 N   0  0  0  0  0  0  0  0  0  0  0  0
   51.0040   32.3420   51.0920 N   0  0  0  0  0  0  0  0  0  0  0  0
   52.2800   31.9550   50.9120 C   0  0  0  0  0  0  0  0  0  0  0  0
   54.2020   29.4620   52.8770 C   0  0  0  0  0  0  0  0  0  0  0  0
   52.7823   25.9448   54.0771 H   0  0  0  0  0  0  0  0  0  0  0  0
   53.2409   27.1807   52.8568 H   0  0  0  0  0  0  0  0  0  0  0  0
   54.0478   25.5759   52.8568 H   0  0  0  0  0  0  0  0  0  0  0  0
   54.2222   27.5680   55.1809 H   0  0  0  0  0  0  0  0  0  0  0  0
   55.2641   25.9069   56.2701 H   0  0  0  0  0  0  0  0  0  0  0  0
   54.8712   24.7983   54.9124 H   0  0  0  0  0  0  0  0  0  0  0  0
   56.4226   25.7037   54.9124 H   0  0  0  0  0  0  0  0  0  0  0  0
   57.6090   29.1960   52.9514 H   0  0  0  0  0  0  0  0  0  0  0  0
   58.2720   30.5660   50.1050 H   0  0  0  0  0  0  0  0  0  0  0  0
   60.6622   32.0384   51.7983 H   0  0  0  0  0  0  0  0  0  0  0  0
   62.4088   33.6506   51.0558 H   0  0  0  0  0  0  0  0  0  0  0  0
   62.1294   34.9058   48.9215 H   0  0  0  0  0  0  0  0  0  0  0  0
   57.6137   31.8514   48.1339 H   0  0  0  0  0  0  0  0  0  0  0  0
   57.2803   33.6365   48.2514 H   0  0  0  0  0  0  0  0  0  0  0  0
   58.8855   32.1629   46.1214 H   0  0  0  0  0  0  0  0  0  0  0  0
   57.3681   33.1229   45.9281 H   0  0  0  0  0  0  0  0  0  0  0  0
   55.1509   32.4559   51.5218 H   0  0  0  0  0  0  0  0  0  0  0  0
   51.6341   30.9579   53.9400 H   0  0  0  0  0  0  0  0  0  0  0  0
   52.8705   32.1141   49.9977 H   0  0  0  0  0  0  0  0  0  0  0  0
   53.2991   28.8916   53.1404 H   0  0  0  0  0  0  0  0  0  0  0  0
  1  2  1  0
  2  3  1  0
  2  4  1  0
  4  5  1  0
  5  6  2  0
  6  7  1  0
  7  8  1  0
  8  9  2  0
  8 10  1  0
 10 11  1  0
 11 12  2  0
 12 13  1  0
 13 14  2  0
 14 15  1  0
 15 16  2  0
 16 17  1  0
 17 18  1  0
 18 19  1  0
 19 20  2  0
 19 21  1  0
  7 22  2  0
 22 23  1  0
 23 24  1  0
 24 25  1  0
 25 26  2  0
 26 27  1  0
 27 28  1  0
 23 29  2  0
 29  5  1  0
 16 11  1  0
 28 24  2  0
 21 15  1  0
  1 30  1  0
  1 31  1  0
  1 32  1  0
  2 33  1  0
  3 34  1  0
  3 35  1  0
  3 36  1  0
  6 37  1  0
 10 38  1  0
 12 39  1  0
 13 40  1  0
 14 41  1  0
 17 42  1  0
 17 43  1  0
 18 44  1  0
 18 45  1  0
 22 46  1  0
 25 47  1  0
 28 48  1  0
 29 49  1  0
M  CHG  2  21  -1  27  -1
M  END
>  <UniqueID>  (40) 
39

>  <SMILES>  (40) 
CC(C)Oc1cc(C(=O)Nc2cccc3c2CCC(=O)[N-]3)cc(-c2cn[n-]c2)c1

>  <Energy>  (40) 
89.25143834861572

>  <Genealogy>  (40) 
CC(C)Oc1cc(C(=O)Nc2cccc3c2CCC(=O)[N-]3)cc(-c2cn[n-]c2)c1 (protonated)
CC(C)Oc1cc(C(=O)Nc2cccc3c2CCC(=O)[N-]3)cc(-c2cn[n-]c2)c1 (3D coordinates assigned)
CC(C)Oc1cc(C(=O)Nc2cccc3c2CCC(=O)[N-]3)cc(-c2cn[n-]c2)c1 (nonaromatic ring conformer: 89.25143834861572 kcal/mol)

>  <smiles>  (40) 
CC(C)Oc1cc(C(=O)Nc2cccc3c2CCC(=O)N3)cc(-c2cn[nH]c2)c1

>  <score_type>  (40) 
oracle

>  <origin>  (40) 
adg

>  <m_score__min__energy>  (40) 
-11.52

>  <m_primary>  (40) 
energy

$$$$
40:0
     RDKit          3D

 43 45  0  0  0  0  0  0  0  0999 V2000
   54.4050   29.3470   45.5350 H   0  0  0  0  0  0  0  0  0  0  0  0
   55.1820   29.1800   44.8580 N   0  0  0  0  0  0  0  0  0  0  0  0
   56.3370   30.0180   44.8470 C   0  0  0  0  0  0  0  0  0  0  0  0
   56.2230   31.2150   44.4710 O   0  0  0  0  0  0  0  0  0  0  0  0
   57.6560   29.4900   45.2730 C   0  0  0  0  0  0  0  0  0  0  0  0
   58.3760   28.6210   44.4380 C   0  0  0  0  0  0  0  0  0  0  0  0
   57.9581   28.3280   43.4636 H   0  0  0  0  0  0  0  0  0  0  0  0
   59.6200   28.1260   44.8370 C   0  0  0  0  0  0  0  0  0  0  0  0
   60.1780   27.4486   44.1739 H   0  0  0  0  0  0  0  0  0  0  0  0
   60.1580   28.4870   46.0730 C   0  0  0  0  0  0  0  0  0  0  0  0
   61.1405   28.0964   46.3765 H   0  0  0  0  0  0  0  0  0  0  0  0
   59.4520   29.3470   46.9330 C   0  0  0  0  0  0  0  0  0  0  0  0
   60.0120   29.7510   48.2500 C   0  0  0  0  0  0  0  0  0  0  0  0
   59.8510   31.0330   48.6810 N   0  0  0  0  0  0  0  0  0  0  0  0
   60.3340   31.4660   49.8750 C   0  0  0  0  0  0  0  0  0  0  0  0
   60.1450   32.7090   50.2140 N   0  0  0  0  0  0  0  0  0  0  0  0
   60.7350   33.8790   49.5680 C   0  0  0  0  0  0  0  0  0  0  0  0
   61.8317   33.7962   49.5886 H   0  0  0  0  0  0  0  0  0  0  0  0
   60.4281   34.7896   50.1034 H   0  0  0  0  0  0  0  0  0  0  0  0
   60.2620   33.9500   48.1380 C   0  0  0  0  0  0  0  0  0  0  0  0
   58.8920   34.1730   47.9050 C   0  0  0  0  0  0  0  0  0  0  0  0
   58.2100   34.3039   48.7580 H   0  0  0  0  0  0  0  0  0  0  0  0
   58.3890   34.2300   46.6060 C   0  0  0  0  0  0  0  0  0  0  0  0
   57.3168   34.4100   46.4391 H   0  0  0  0  0  0  0  0  0  0  0  0
   59.2440   34.0590   45.5190 C   0  0  0  0  0  0  0  0  0  0  0  0
   58.8473   34.1140   44.4945 H   0  0  0  0  0  0  0  0  0  0  0  0
   60.6030   33.8180   45.7280 C   0  0  0  0  0  0  0  0  0  0  0  0
   61.2706   33.6837   44.8641 H   0  0  0  0  0  0  0  0  0  0  0  0
   61.1280   33.7450   47.0300 C   0  0  0  0  0  0  0  0  0  0  0  0
   62.8640   33.4320   47.2100 S   0  0  0  0  0  0  0  0  0  0  0  0
   63.4020   34.2170   48.3740 O   0  0  0  0  0  0  0  0  0  0  0  0
   63.6140   33.8550   45.9780 O   0  0  0  0  0  0  0  0  0  0  0  0
   63.1350   31.7010   47.5210 C   0  0  0  0  0  0  0  0  0  0  0  0
   63.1628   31.5234   48.6062 H   0  0  0  0  0  0  0  0  0  0  0  0
   62.3175   31.1159   47.0745 H   0  0  0  0  0  0  0  0  0  0  0  0
   64.0922   31.3937   47.0745 H   0  0  0  0  0  0  0  0  0  0  0  0
   61.0210   30.5510   50.6940 C   0  0  0  0  0  0  0  0  0  0  0  0
   61.4290   30.8722   51.6637 H   0  0  0  0  0  0  0  0  0  0  0  0
   61.1760   29.2680   50.2770 N   0  0  0  0  0  0  0  0  0  0  0  0
   60.6900   28.8460   49.0820 C   0  0  0  0  0  0  0  0  0  0  0  0
   60.8266   27.8009   48.7672 H   0  0  0  0  0  0  0  0  0  0  0  0
   58.2040   29.8500   46.5190 C   0  0  0  0  0  0  0  0  0  0  0  0
   57.6492   30.5339   47.1782 H   0  0  0  0  0  0  0  0  0  0  0  0
  1  2  1  0
  2  3  1  0
  3  4  2  0
  3  5  1  0
  5  6  2  0
  6  7  1  0
  6  8  1  0
  8  9  1  0
  8 10  2  0
 10 11  1  0
 10 12  1  0
 12 13  1  0
 13 14  1  0
 14 15  1  0
 15 16  2  0
 16 17  1  0
 17 18  1  0
 17 19  1  0
 17 20  1  0
 20 21  2  0
 21 22  1  0
 21 23  1  0
 23 24  1  0
 23 25  2  0
 25 26  1  0
 25 27  1  0
 27 28  1  0
 27 29  2  0
 29 30  1  0
 30 31  2  0
 30 32  2  0
 30 33  1  0
 33 34  1  0
 33 35  1  0
 33 36  1  0
 15 37  1  0
 37 38  1  0
 37 39  2  0
 39 40  1  0
 40 41  1  0
 12 42  2  0
 42 43  1  0
 42  5  1  0
 40 13  2  0
 29 20  1  0
M  CHG  2   2  -1  14  -1
M  END
>  <UniqueID>  (41) 
40

>  <SMILES>  (41) 
CS(=O)(=O)c1ccccc1C/N=c1\cncc(-c2cccc(C([NH-])=O)c2)[n-]1

>  <Energy>  (41) 
52.35052098415291

>  <Genealogy>  (41) 
CS(=O)(=O)c1ccccc1CN=c1cncc(-c2cccc(C([NH-])=O)c2)[n-]1 (protonated)
CS(=O)(=O)c1ccccc1C/N=c1\cncc(-c2cccc(C([NH-])=O)c2)[n-]1 (cis-trans isomerization)
CS(=O)(=O)c1ccccc1C/N=c1\cncc(-c2cccc(C([NH-])=O)c2)[n-]1 (3D coordinates assigned)
CS(=O)(=O)c1ccccc1C/N=c1\cncc(-c2cccc(C([NH-])=O)c2)[n-]1 (optimized conformer: 52.35052098415291 kcal/mol)

>  <smiles>  (41) 
CS(=O)(=O)c1ccccc1CN=c1cncc(-c2cccc(C(N)=O)c2)[nH]1

>  <score_type>  (41) 
oracle

>  <origin>  (41) 
adg

>  <m_score__min__energy>  (41) 
-13.869999999999999

>  <m_primary>  (41) 
energy

$$$$
41:0
     RDKit          3D

 56 60  0  0  0  0  0  0  0  0999 V2000
   56.0460   29.7647   44.5381 H   0  0  0  0  0  0  0  0  0  0  0  0
   56.7640   29.2610   45.2020 C   0  0  0  0  0  0  0  0  0  0  0  0
   56.5230   27.9820   45.6210 N   0  0  0  0  0  0  0  0  0  0  0  0
   57.4350   27.3900   46.4270 C   0  0  0  0  0  0  0  0  0  0  0  0
   57.4320   26.1520   47.0130 C   0  0  0  0  0  0  0  0  0  0  0  0
   56.3340   25.2290   47.0000 N   0  0  0  0  0  0  0  0  0  0  0  0
   55.7590   24.6810   45.9660 C   0  0  0  0  0  0  0  0  0  0  0  0
   54.3990   24.6310   45.9360 N   0  0  0  0  0  0  0  0  0  0  0  0
   53.7060   24.0860   44.8970 C   0  0  0  0  0  0  0  0  0  0  0  0
   52.2110   24.0870   44.9180 C   0  0  0  0  0  0  0  0  0  0  0  0
   51.8589   24.0872   45.9601 H   0  0  0  0  0  0  0  0  0  0  0  0
   51.8377   24.9854   44.4047 H   0  0  0  0  0  0  0  0  0  0  0  0
   51.8365   23.1891   44.4047 H   0  0  0  0  0  0  0  0  0  0  0  0
   54.3980   23.5690   43.7970 C   0  0  0  0  0  0  0  0  0  0  0  0
   53.8491   23.1286   42.9516 H   0  0  0  0  0  0  0  0  0  0  0  0
   55.7910   23.6180   43.7840 C   0  0  0  0  0  0  0  0  0  0  0  0
   56.3465   23.2151   42.9243 H   0  0  0  0  0  0  0  0  0  0  0  0
   56.4830   24.1780   44.8610 C   0  0  0  0  0  0  0  0  0  0  0  0
   57.5818   24.2270   44.8491 H   0  0  0  0  0  0  0  0  0  0  0  0
   58.5720   26.1250   47.8250 C   0  0  0  0  0  0  0  0  0  0  0  0
   58.8620   25.2858   48.4743 H   0  0  0  0  0  0  0  0  0  0  0  0
   59.2680   27.2830   47.6960 N   0  0  0  0  0  0  0  0  0  0  0  0
   60.1420   27.5540   48.1980 H   0  0  0  0  0  0  0  0  0  0  0  0
   58.5550   28.0370   46.8430 C   0  0  0  0  0  0  0  0  0  0  0  0
   58.8210   29.3090   46.4640 N   0  0  0  0  0  0  0  0  0  0  0  0
   57.9440   29.9450   45.6230 C   0  0  0  0  0  0  0  0  0  0  0  0
   58.2250   31.3380   45.1950 C   0  0  0  0  0  0  0  0  0  0  0  0
   57.8600   31.7910   43.9140 C   0  0  0  0  0  0  0  0  0  0  0  0
   57.3550   31.1076   43.2154 H   0  0  0  0  0  0  0  0  0  0  0  0
   58.1350   33.1020   43.5250 C   0  0  0  0  0  0  0  0  0  0  0  0
   57.8409   33.4493   42.5236 H   0  0  0  0  0  0  0  0  0  0  0  0
   58.7810   33.9740   44.4000 C   0  0  0  0  0  0  0  0  0  0  0  0
   58.9919   35.0064   44.0844 H   0  0  0  0  0  0  0  0  0  0  0  0
   59.1650   33.5450   45.6820 C   0  0  0  0  0  0  0  0  0  0  0  0
   59.8860   34.4560   46.6050 C   0  0  0  0  0  0  0  0  0  0  0  0
   59.4470   35.6220   46.8060 O   0  0  0  0  0  0  0  0  0  0  0  0
   61.0690   34.0290   47.2970 N   0  0  0  0  0  0  0  0  0  0  0  0
   61.0950   34.0960   48.7600 C   0  0  0  0  0  0  0  0  0  0  0  0
   60.9084   35.1328   49.0767 H   0  0  0  0  0  0  0  0  0  0  0  0
   60.3166   33.4278   49.1570 H   0  0  0  0  0  0  0  0  0  0  0  0
   62.4580   33.6410   49.3040 C   0  0  0  0  0  0  0  0  0  0  0  0
   63.1806   34.4621   49.1869 H   0  0  0  0  0  0  0  0  0  0  0  0
   62.3323   33.3743   50.3638 H   0  0  0  0  0  0  0  0  0  0  0  0
   62.9640   32.4520   48.5870 N   0  0  0  0  0  0  0  0  0  0  0  0
   62.1480   31.2570   48.8630 C   0  0  0  0  0  0  0  0  0  0  0  0
   62.0545   31.1200   49.9504 H   0  0  0  0  0  0  0  0  0  0  0  0
   61.1484   31.3858   48.4223 H   0  0  0  0  0  0  0  0  0  0  0  0
   62.6318   30.3728   48.4223 H   0  0  0  0  0  0  0  0  0  0  0  0
   63.1430   32.6770   47.1270 C   0  0  0  0  0  0  0  0  0  0  0  0
   64.2077   32.8791   46.9385 H   0  0  0  0  0  0  0  0  0  0  0  0
   62.7821   31.7679   46.6238 H   0  0  0  0  0  0  0  0  0  0  0  0
   62.3210   33.8510   46.5550 C   0  0  0  0  0  0  0  0  0  0  0  0
   62.9152   34.7740   46.6261 H   0  0  0  0  0  0  0  0  0  0  0  0
   62.0770   33.6284   45.5058 H   0  0  0  0  0  0  0  0  0  0  0  0
   58.8870   32.2200   46.0670 C   0  0  0  0  0  0  0  0  0  0  0  0
   59.1920   31.8697   47.0641 H   0  0  0  0  0  0  0  0  0  0  0  0
  1  2  1  0
  2  3  2  0
  3  4  1  0
  4  5  1  0
  5  6  1  0
  6  7  2  0
  7  8  1  0
  8  9  1  0
  9 10  1  0
 10 11  1  0
 10 12  1  0
 10 13  1  0
  9 14  2  0
 14 15  1  0
 14 16  1  0
 16 17  1  0
 16 18  2  0
 18 19  1  0
  5 20  2  0
 20 21  1  0
 20 22  1  0
 22 23  1  0
 22 24  1  0
 24 25  1  0
 25 26  2  0
 26 27  1  0
 27 28  2  0
 28 29  1  0
 28 30  1  0
 30 31  1  0
 30 32  2  0
 32 33  1  0
 32 34  1  0
 34 35  1  0
 35 36  2  0
 35 37  1  0
 37 38  1  0
 38 39  1  0
 38 40  1  0
 38 41  1  0
 41 42  1  0
 41 43  1  0
 41 44  1  0
 44 45  1  0
 45 46  1  0
 45 47  1  0
 45 48  1  0
 44 49  1  0
 49 50  1  0
 49 51  1  0
 49 52  1  0
 52 53  1  0
 52 54  1  0
 34 55  2  0
 55 56  1  0
 26  2  1  0
 55 27  1  0
 24  4  2  0
 52 37  1  0
 18  7  1  0
M  CHG  1   8  -1
M  END
>  <UniqueID>  (42) 
41

>  <SMILES>  (42) 
Cc1ccc/c(=N\c2c[nH]c3nc(-c4cccc(C(=O)N5CCN(C)CC5)c4)cnc23)[n-]1

>  <Energy>  (42) 
125.11629988749716

>  <Genealogy>  (42) 
Cc1cccc(=Nc2c[nH]c3nc(-c4cccc(C(=O)N5CCN(C)CC5)c4)cnc23)[n-]1 (protonated)
Cc1ccc/c(=N\c2c[nH]c3nc(-c4cccc(C(=O)N5CCN(C)CC5)c4)cnc23)[n-]1 (cis-trans isomerization)
Cc1ccc/c(=N\c2c[nH]c3nc(-c4cccc(C(=O)N5CCN(C)CC5)c4)cnc23)[n-]1 (3D coordinates assigned)
Cc1ccc/c(=N\c2c[nH]c3nc(-c4cccc(C(=O)N5CCN(C)CC5)c4)cnc23)[n-]1 (nonaromatic ring conformer: 125.11629988749716 kcal/mol)

>  <smiles>  (42) 
Cc1cccc(=Nc2c[nH]c3nc(-c4cccc(C(=O)N5CCN(C)CC5)c4)cnc23)[nH]1

>  <score_type>  (42) 
oracle

>  <origin>  (42) 
adg

>  <m_score__min__energy>  (42) 
-11.16

>  <m_primary>  (42) 
energy

$$$$
42:0
     RDKit          3D

 43 45  0  0  0  0  0  0  0  0999 V2000
   64.1090   33.2710   48.5370 C   0  0  0  0  0  0  0  0  0  0  0  0
   62.9200   33.9000   49.1320 N   0  0  0  0  0  0  0  0  0  0  0  0
   62.9700   34.4560   50.4730 C   0  0  0  0  0  0  0  0  0  0  0  0
   61.7580   33.9030   48.3260 C   0  0  0  0  0  0  0  0  0  0  0  0
   61.7450   33.7660   46.9590 C   0  0  0  0  0  0  0  0  0  0  0  0
   60.6090   33.7800   46.2380 N   0  0  0  0  0  0  0  0  0  0  0  0
   59.4270   33.9330   46.8560 C   0  0  0  0  0  0  0  0  0  0  0  0
   58.2120   33.9510   46.1730 O   0  0  0  0  0  0  0  0  0  0  0  0
   57.9480   32.8550   45.3290 C   0  0  0  0  0  0  0  0  0  0  0  0
   57.9440   33.0340   43.9660 C   0  0  0  0  0  0  0  0  0  0  0  0
   57.6910   31.9840   43.1350 C   0  0  0  0  0  0  0  0  0  0  0  0
   57.6870   32.2080   41.3980 Cl  0  0  0  0  0  0  0  0  0  0  0  0
   57.4380   30.7420   43.6490 C   0  0  0  0  0  0  0  0  0  0  0  0
   57.4270   30.4950   45.0480 C   0  0  0  0  0  0  0  0  0  0  0  0
   57.1650   29.2370   45.4060 O   0  0  0  0  0  0  0  0  0  0  0  0
   57.7120   28.0380   45.0510 C   0  0  0  0  0  0  0  0  0  0  0  0
   56.7790   26.9240   45.3140 C   0  0  0  0  0  0  0  0  0  0  0  0
   57.2850   25.6400   45.0670 C   0  0  0  0  0  0  0  0  0  0  0  0
   56.5420   24.5060   45.2870 C   0  0  0  0  0  0  0  0  0  0  0  0
   57.0370   23.3650   45.0490 O   0  0  0  0  0  0  0  0  0  0  0  0
   55.2620   24.6720   45.7650 C   0  0  0  0  0  0  0  0  0  0  0  0
   54.5860   23.6370   45.9650 O   0  0  0  0  0  0  0  0  0  0  0  0
   54.8110   25.9170   45.9910 N   0  0  0  0  0  0  0  0  0  0  0  0
   55.5440   27.0060   45.7720 N   0  0  0  0  0  0  0  0  0  0  0  0
   57.6900   31.5940   45.8180 C   0  0  0  0  0  0  0  0  0  0  0  0
   59.4210   34.0740   48.2470 C   0  0  0  0  0  0  0  0  0  0  0  0
   60.5690   34.0560   48.9380 N   0  0  0  0  0  0  0  0  0  0  0  0
   64.7762   32.9180   49.3371 H   0  0  0  0  0  0  0  0  0  0  0  0
   63.8000   32.4184   47.9144 H   0  0  0  0  0  0  0  0  0  0  0  0
   64.6400   34.0062   47.9144 H   0  0  0  0  0  0  0  0  0  0  0  0
   62.8969   33.6428   51.2101 H   0  0  0  0  0  0  0  0  0  0  0  0
   63.9200   34.9927   50.6122 H   0  0  0  0  0  0  0  0  0  0  0  0
   62.1310   35.1536   50.6122 H   0  0  0  0  0  0  0  0  0  0  0  0
   62.7025   33.6397   46.4324 H   0  0  0  0  0  0  0  0  0  0  0  0
   58.1460   34.0296   43.5441 H   0  0  0  0  0  0  0  0  0  0  0  0
   57.2371   29.9096   42.9586 H   0  0  0  0  0  0  0  0  0  0  0  0
   57.9531   28.0578   43.9779 H   0  0  0  0  0  0  0  0  0  0  0  0
   58.6202   27.8794   45.6510 H   0  0  0  0  0  0  0  0  0  0  0  0
   58.3112   25.5374   44.6843 H   0  0  0  0  0  0  0  0  0  0  0  0
   53.8180   25.9750   46.3560 H   0  0  0  0  0  0  0  0  0  0  0  0
   55.1450   27.9390   45.9740 H   0  0  0  0  0  0  0  0  0  0  0  0
   57.6959   31.4607   46.9099 H   0  0  0  0  0  0  0  0  0  0  0  0
   58.4663   34.2007   48.7784 H   0  0  0  0  0  0  0  0  0  0  0  0
  1  2  1  0
  2  3  1  0
  2  4  1  0
  4  5  2  0
  5  6  1  0
  6  7  2  0
  7  8  1  0
  8  9  1  0
  9 10  2  0
 10 11  1  0
 11 12  1  0
 11 13  2  0
 13 14  1  0
 14 15  1  0
 15 16  1  0
 16 17  1  0
 17 18  2  0
 18 19  1  0
 19 20  2  0
 19 21  1  0
 21 22  2  0
 21 23  1  0
 23 24  1  0
 14 25  2  0
  7 26  1  0
 26 27  2  0
 27  4  1  0
 25  9  1  0
 24 17  1  0
  1 28  1  0
  1 29  1  0
  1 30  1  0
  3 31  1  0
  3 32  1  0
  3 33  1  0
  5 34  1  0
 10 35  1  0
 13 36  1  0
 16 37  1  0
 16 38  1  0
 18 39  1  0
 23 40  1  0
 24 41  1  0
 25 42  1  0
 26 43  1  0
M  END
>  <smiles>  (43) 
CN(C)c1cnc(Oc2cc(Cl)cc(OCc3cc(=O)c(=O)[nH][nH]3)c2)cn1

>  <score_type>  (43) 
oracle

>  <origin>  (43) 
adg

>  <m_score__min__energy>  (43) 
-8.2599999999999998

>  <m_primary>  (43) 
energy

$$$$
43:0
     RDKit          3D

 45 47  0  0  0  0  0  0  0  0999 V2000
   63.4120   33.8890   46.6710 C   0  0  0  0  0  0  0  0  0  0  0  0
   62.7590   32.7750   47.4340 C   0  0  0  0  0  0  0  0  0  0  0  0
   63.3330   32.3010   48.6240 C   0  0  0  0  0  0  0  0  0  0  0  0
   62.7050   31.2870   49.3540 C   0  0  0  0  0  0  0  0  0  0  0  0
   61.4870   30.7460   48.9130 C   0  0  0  0  0  0  0  0  0  0  0  0
   60.8280   29.6410   49.6930 C   0  0  0  0  0  0  0  0  0  0  0  0
   60.5780   28.4910   48.8270 N   0  0  0  0  0  0  0  0  0  0  0  0
   59.3630   28.3390   48.0790 C   0  0  0  0  0  0  0  0  0  0  0  0
   58.4390   29.1910   48.1840 O   0  0  0  0  0  0  0  0  0  0  0  0
   59.1710   27.1460   47.1960 C   0  0  0  0  0  0  0  0  0  0  0  0
   57.8220   27.1980   46.5450 C   0  0  0  0  0  0  0  0  0  0  0  0
   56.8760   26.2620   46.7340 N   0  0  0  0  0  0  0  0  0  0  0  0
   55.8340   26.7200   46.0130 C   0  0  0  0  0  0  0  0  0  0  0  0
   54.7390   26.1040   45.9320 O   0  0  0  0  0  0  0  0  0  0  0  0
   56.0550   27.8940   45.3850 N   0  0  0  0  0  0  0  0  0  0  0  0
   57.3180   28.1990   45.7330 C   0  0  0  0  0  0  0  0  0  0  0  0
   58.0290   29.4270   45.2490 C   0  0  0  0  0  0  0  0  0  0  0  0
   56.8590   30.5760   44.4450 S   0  0  0  0  0  0  0  0  0  0  0  0
   57.6810   32.0670   45.0200 C   0  0  0  0  0  0  0  0  0  0  0  0
   57.7840   32.3180   46.3950 C   0  0  0  0  0  0  0  0  0  0  0  0
   58.4020   33.4870   46.8500 C   0  0  0  0  0  0  0  0  0  0  0  0
   58.9300   34.4020   45.9340 C   0  0  0  0  0  0  0  0  0  0  0  0
   58.8410   34.1480   44.5620 C   0  0  0  0  0  0  0  0  0  0  0  0
   58.2210   32.9810   44.1020 C   0  0  0  0  0  0  0  0  0  0  0  0
   58.1340   32.7490   42.7680 F   0  0  0  0  0  0  0  0  0  0  0  0
   60.9080   31.2310   47.7290 C   0  0  0  0  0  0  0  0  0  0  0  0
   61.5360   32.2440   47.0000 C   0  0  0  0  0  0  0  0  0  0  0  0
   63.8384   34.6165   47.3773 H   0  0  0  0  0  0  0  0  0  0  0  0
   64.2131   33.4796   46.0380 H   0  0  0  0  0  0  0  0  0  0  0  0
   62.6634   34.3880   46.0380 H   0  0  0  0  0  0  0  0  0  0  0  0
   64.2804   32.7288   48.9837 H   0  0  0  0  0  0  0  0  0  0  0  0
   63.1678   30.9114   50.2785 H   0  0  0  0  0  0  0  0  0  0  0  0
   61.4870   29.3368   50.5196 H   0  0  0  0  0  0  0  0  0  0  0  0
   59.8695   30.0053   50.0911 H   0  0  0  0  0  0  0  0  0  0  0  0
   61.3090   27.7470   48.7620 H   0  0  0  0  0  0  0  0  0  0  0  0
   59.9497   27.1394   46.4191 H   0  0  0  0  0  0  0  0  0  0  0  0
   59.2416   26.2326   47.8049 H   0  0  0  0  0  0  0  0  0  0  0  0
   58.5005   29.9321   46.1049 H   0  0  0  0  0  0  0  0  0  0  0  0
   58.7915   29.1278   44.5148 H   0  0  0  0  0  0  0  0  0  0  0  0
   57.3781   31.5944   47.1173 H   0  0  0  0  0  0  0  0  0  0  0  0
   58.4728   33.6869   47.9294 H   0  0  0  0  0  0  0  0  0  0  0  0
   59.4154   35.3216   46.2928 H   0  0  0  0  0  0  0  0  0  0  0  0
   59.2594   34.8673   43.8425 H   0  0  0  0  0  0  0  0  0  0  0  0
   59.9553   30.8112   47.3738 H   0  0  0  0  0  0  0  0  0  0  0  0
   61.0686   32.6270   46.0808 H   0  0  0  0  0  0  0  0  0  0  0  0
  1  2  1  0
  2  3  2  0
  3  4  1  0
  4  5  2  0
  5  6  1  0
  6  7  1  0
  7  8  1  0
  8  9  2  0
  8 10  1  0
 10 11  1  0
 11 12  1  0
 12 13  1  0
 13 14  2  0
 13 15  1  0
 15 16  1  0
 16 17  1  0
 17 18  1  0
 18 19  1  0
 19 20  2  0
 20 21  1  0
 21 22  2  0
 22 23  1  0
 23 24  2  0
 24 25  1  0
  5 26  1  0
 26 27  2  0
 27  2  1  0
 16 11  2  0
 24 19  1  0
  1 28  1  0
  1 29  1  0
  1 30  1  0
  3 31  1  0
  4 32  1  0
  6 33  1  0
  6 34  1  0
  7 35  1  0
 10 36  1  0
 10 37  1  0
 17 38  1  0
 17 39  1  0
 20 40  1  0
 21 41  1  0
 22 42  1  0
 23 43  1  0
 26 44  1  0
 27 45  1  0
M  CHG  2  12  -1  15  -1
M  END
>  <UniqueID>  (44) 
42

>  <SMILES>  (44) 
Cc1ccc(CNC(=O)Cc2[n-]c(=O)[n-]c2CSc2ccccc2F)cc1

>  <Energy>  (44) 
63.1807099319343

>  <Genealogy>  (44) 
Cc1ccc(CNC(=O)Cc2[n-]c(=O)[n-]c2CSc2ccccc2F)cc1 (protonated)
Cc1ccc(CNC(=O)Cc2[n-]c(=O)[n-]c2CSc2ccccc2F)cc1 (3D coordinates assigned)
Cc1ccc(CNC(=O)Cc2[n-]c(=O)[n-]c2CSc2ccccc2F)cc1 (optimized conformer: 63.1807099319343 kcal/mol)

>  <smiles>  (44) 
Cc1ccc(CNC(=O)Cc2[nH]c(=O)[nH]c2CSc2ccccc2F)cc1

>  <score_type>  (44) 
oracle

>  <origin>  (44) 
adg

>  <m_score__min__energy>  (44) 
-12.050000000000001

>  <m_primary>  (44) 
energy

$$$$
44:0
     RDKit          3D

 37 39  0  0  0  0  0  0  0  0999 V2000
   60.1396   26.1399   46.8890 H   0  0  0  0  0  0  0  0  0  0  0  0
   59.0630   26.2440   46.6890 C   0  0  0  0  0  0  0  0  0  0  0  0
   58.6290   27.1260   45.7510 N   0  0  0  0  0  0  0  0  0  0  0  0
   57.3100   27.2950   45.4570 C   0  0  0  0  0  0  0  0  0  0  0  0
   57.0010   28.1610   44.5300 N   0  0  0  0  0  0  0  0  0  0  0  0
   56.3550   29.4310   44.6880 C   0  0  0  0  0  0  0  0  0  0  0  0
   55.2040   29.4640   45.2000 O   0  0  0  0  0  0  0  0  0  0  0  0
   57.0460   30.6980   44.3390 C   0  0  0  0  0  0  0  0  0  0  0  0
   57.1260   31.1300   43.0040 C   0  0  0  0  0  0  0  0  0  0  0  0
   56.6771   30.5212   42.2054 H   0  0  0  0  0  0  0  0  0  0  0  0
   57.7710   32.3260   42.6840 C   0  0  0  0  0  0  0  0  0  0  0  0
   57.8215   32.6586   41.6367 H   0  0  0  0  0  0  0  0  0  0  0  0
   58.3520   33.1010   43.6890 C   0  0  0  0  0  0  0  0  0  0  0  0
   58.8515   34.0462   43.4302 H   0  0  0  0  0  0  0  0  0  0  0  0
   58.3030   32.6820   45.0280 C   0  0  0  0  0  0  0  0  0  0  0  0
   58.9190   33.5120   46.0910 C   0  0  0  0  0  0  0  0  0  0  0  0
   58.2340   33.8370   47.0980 O   0  0  0  0  0  0  0  0  0  0  0  0
   60.2990   33.9040   46.0470 N   0  0  0  0  0  0  0  0  0  0  0  0
   61.1750   33.7070   46.9890 C   0  0  0  0  0  0  0  0  0  0  0  0
   62.8390   33.4980   46.7770 S   0  0  0  0  0  0  0  0  0  0  0  0
   63.1240   33.3670   48.4310 C   0  0  0  0  0  0  0  0  0  0  0  0
   64.4680   33.2330   49.0650 C   0  0  0  0  0  0  0  0  0  0  0  0
   64.3598   33.2438   50.1596 H   0  0  0  0  0  0  0  0  0  0  0  0
   64.9284   32.2845   48.7514 H   0  0  0  0  0  0  0  0  0  0  0  0
   65.1066   34.0719   48.7514 H   0  0  0  0  0  0  0  0  0  0  0  0
   61.9180   33.5250   49.1070 C   0  0  0  0  0  0  0  0  0  0  0  0
   61.8422   33.5028   50.2042 H   0  0  0  0  0  0  0  0  0  0  0  0
   60.8420   33.7090   48.2980 N   0  0  0  0  0  0  0  0  0  0  0  0
   59.8700   33.8460   48.6540 H   0  0  0  0  0  0  0  0  0  0  0  0
   57.6360   31.4850   45.3450 C   0  0  0  0  0  0  0  0  0  0  0  0
   57.5748   31.1596   46.3940 H   0  0  0  0  0  0  0  0  0  0  0  0
   56.3480   26.5440   46.1830 C   0  0  0  0  0  0  0  0  0  0  0  0
   54.9800   26.7090   45.9980 O   0  0  0  0  0  0  0  0  0  0  0  0
   56.7850   25.6270   47.1430 C   0  0  0  0  0  0  0  0  0  0  0  0
   56.0511   25.0257   47.6997 H   0  0  0  0  0  0  0  0  0  0  0  0
   58.1450   25.4710   47.3980 C   0  0  0  0  0  0  0  0  0  0  0  0
   58.4908   24.7464   48.1499 H   0  0  0  0  0  0  0  0  0  0  0  0
  1  2  1  0
  2  3  1  0
  3  4  1  0
  4  5  2  3
  5  6  1  0
  6  7  2  0
  6  8  1  0
  8  9  2  0
  9 10  1  0
  9 11  1  0
 11 12  1  0
 11 13  2  0
 13 14  1  0
 13 15  1  0
 15 16  1  0
 16 17  2  0
 16 18  1  0
 18 19  2  0
 19 20  1  0
 20 21  1  0
 21 22  1  0
 22 23  1  0
 22 24  1  0
 22 25  1  0
 21 26  2  0
 26 27  1  0
 26 28  1  0
 28 29  1  0
 15 30  2  0
 30 31  1  0
  4 32  1  0
 32 33  1  0
 32 34  2  0
 34 35  1  0
 34 36  1  0
 36 37  1  0
 36  2  2  0
 30  8  1  0
 28 19  1  0
M  CHG  2   3  -1  33  -1
M  END
>  <UniqueID>  (45) 
43

>  <SMILES>  (45) 
Cc1c[nH]/c(=N/C(=O)c2cccc(C(=O)N=c3[n-]cccc3[O-])c2)s1

>  <Energy>  (45) 
91.37770664149315

>  <Genealogy>  (45) 
Cc1c[nH]c(=NC(=O)c2cccc(C(=O)N=c3[n-]cccc3[O-])c2)s1 (protonated)
Cc1c[nH]/c(=N/C(=O)c2cccc(C(=O)N=c3[n-]cccc3[O-])c2)s1 (cis-trans isomerization)
Cc1c[nH]/c(=N/C(=O)c2cccc(C(=O)N=c3[n-]cccc3[O-])c2)s1 (3D coordinates assigned)
Cc1c[nH]/c(=N/C(=O)c2cccc(C(=O)N=c3[n-]cccc3[O-])c2)s1 (optimized conformer: 91.37770664149315 kcal/mol)

>  <smiles>  (45) 
Cc1c[nH]c(=NC(=O)c2cccc(C(=O)N=c3[nH]cccc3O)c2)s1

>  <score_type>  (45) 
oracle

>  <origin>  (45) 
adg

>  <m_score__min__energy>  (45) 
-14.199999999999999

>  <m_primary>  (45) 
energy

$$$$
45:0
     RDKit          3D

 55 58  0  0  0  0  0  0  0  0999 V2000
   59.2510   29.8070   46.9780 C   0  0  0  0  0  0  0  0  0  0  0  0
   58.4580   29.3010   46.0160 C   0  0  0  0  0  0  0  0  0  0  0  0
   57.9650   27.9840   45.9310 C   0  0  0  0  0  0  0  0  0  0  0  0
   58.0800   26.9340   46.7660 C   0  0  0  0  0  0  0  0  0  0  0  0
   57.2530   25.7280   46.7280 C   0  0  0  0  0  0  0  0  0  0  0  0
   57.6890   24.5010   47.0680 N   0  0  0  0  0  0  0  0  0  0  0  0
   56.5900   23.7330   46.9130 C   0  0  0  0  0  0  0  0  0  0  0  0
   56.5960   22.4940   47.1340 O   0  0  0  0  0  0  0  0  0  0  0  0
   55.4870   24.3960   46.5010 N   0  0  0  0  0  0  0  0  0  0  0  0
   55.9240   25.6600   46.3970 C   0  0  0  0  0  0  0  0  0  0  0  0
   55.1270   26.7280   45.9970 O   0  0  0  0  0  0  0  0  0  0  0  0
   57.2610   27.9120   44.7440 C   0  0  0  0  0  0  0  0  0  0  0  0
   57.3250   29.1560   44.1580 C   0  0  0  0  0  0  0  0  0  0  0  0
   56.6270   29.5130   42.8770 C   0  0  0  0  0  0  0  0  0  0  0  0
   58.0480   30.0090   44.9250 N   0  0  0  0  0  0  0  0  0  0  0  0
   58.3060   31.4290   44.6100 C   0  0  0  0  0  0  0  0  0  0  0  0
   57.0230   32.2670   44.6870 C   0  0  0  0  0  0  0  0  0  0  0  0
   57.2880   33.6590   45.1940 C   0  0  0  0  0  0  0  0  0  0  0  0
   56.9070   34.6440   44.5040 O   0  0  0  0  0  0  0  0  0  0  0  0
   58.0300   33.8900   46.4060 N   0  0  0  0  0  0  0  0  0  0  0  0
   59.0420   34.9580   46.4310 C   0  0  0  0  0  0  0  0  0  0  0  0
   59.8130   34.9660   47.7570 C   0  0  0  0  0  0  0  0  0  0  0  0
   60.1220   33.5860   48.1550 N   0  0  0  0  0  0  0  0  0  0  0  0
   61.4840   33.1610   48.3310 C   0  0  0  0  0  0  0  0  0  0  0  0
   61.8680   32.4870   49.5020 C   0  0  0  0  0  0  0  0  0  0  0  0
   63.2060   32.1360   49.7040 C   0  0  0  0  0  0  0  0  0  0  0  0
   64.1640   32.4380   48.7300 C   0  0  0  0  0  0  0  0  0  0  0  0
   63.7860   33.0920   47.5560 C   0  0  0  0  0  0  0  0  0  0  0  0
   62.4510   33.4570   47.3580 C   0  0  0  0  0  0  0  0  0  0  0  0
   59.0470   32.5840   48.2130 C   0  0  0  0  0  0  0  0  0  0  0  0
   57.7410   33.1390   47.6360 C   0  0  0  0  0  0  0  0  0  0  0  0
   59.5701   30.8587   46.9311 H   0  0  0  0  0  0  0  0  0  0  0  0
   59.5802   29.1690   47.8114 H   0  0  0  0  0  0  0  0  0  0  0  0
   58.8597   26.9875   47.5401 H   0  0  0  0  0  0  0  0  0  0  0  0
   56.7461   27.0267   44.3427 H   0  0  0  0  0  0  0  0  0  0  0  0
   55.6690   30.0030   43.1056 H   0  0  0  0  0  0  0  0  0  0  0  0
   57.2593   30.1984   42.2936 H   0  0  0  0  0  0  0  0  0  0  0  0
   56.4414   28.5991   42.2936 H   0  0  0  0  0  0  0  0  0  0  0  0
   59.0362   31.8273   45.3298 H   0  0  0  0  0  0  0  0  0  0  0  0
   58.6944   31.4883   43.5826 H   0  0  0  0  0  0  0  0  0  0  0  0
   56.5814   32.3333   43.6817 H   0  0  0  0  0  0  0  0  0  0  0  0
   56.3370   31.7738   45.3914 H   0  0  0  0  0  0  0  0  0  0  0  0
   59.7512   34.7987   45.6054 H   0  0  0  0  0  0  0  0  0  0  0  0
   58.5285   35.9247   46.3227 H   0  0  0  0  0  0  0  0  0  0  0  0
   60.7494   35.5297   47.6328 H   0  0  0  0  0  0  0  0  0  0  0  0
   59.1976   35.4417   48.5348 H   0  0  0  0  0  0  0  0  0  0  0  0
   61.1139   32.2347   50.2621 H   0  0  0  0  0  0  0  0  0  0  0  0
   63.5058   31.6221   50.6292 H   0  0  0  0  0  0  0  0  0  0  0  0
   65.2162   32.1598   48.8895 H   0  0  0  0  0  0  0  0  0  0  0  0
   64.5385   33.3201   46.7868 H   0  0  0  0  0  0  0  0  0  0  0  0
   62.1572   33.9787   46.4352 H   0  0  0  0  0  0  0  0  0  0  0  0
   59.3488   31.6999   47.6322 H   0  0  0  0  0  0  0  0  0  0  0  0
   58.8766   32.3164   49.2663 H   0  0  0  0  0  0  0  0  0  0  0  0
   57.0588   32.3073   47.4063 H   0  0  0  0  0  0  0  0  0  0  0  0
   57.2693   33.8070   48.3717 H   0  0  0  0  0  0  0  0  0  0  0  0
  1  2  2  0
  2  3  1  0
  3  4  2  3
  4  5  1  0
  5  6  1  0
  6  7  1  0
  7  8  2  0
  7  9  1  0
  9 10  1  0
 10 11  1  0
  3 12  1  0
 12 13  2  0
 13 14  1  0
 13 15  1  0
 15 16  1  0
 16 17  1  0
 17 18  1  0
 18 19  2  0
 18 20  1  0
 20 21  1  0
 21 22  1  0
 22 23  1  0
 23 24  1  0
 24 25  2  0
 25 26  1  0
 26 27  2  0
 27 28  1  0
 28 29  2  0
 23 30  1  0
 30 31  1  0
 15  2  1  0
 31 20  1  0
 10  5  2  0
 29 24  1  0
  1 32  1  0
  1 33  1  0
  4 34  1  0
 12 35  1  0
 14 36  1  0
 14 37  1  0
 14 38  1  0
 16 39  1  0
 16 40  1  0
 17 41  1  0
 17 42  1  0
 21 43  1  0
 21 44  1  0
 22 45  1  0
 22 46  1  0
 25 47  1  0
 26 48  1  0
 27 49  1  0
 28 50  1  0
 29 51  1  0
 30 52  1  0
 30 53  1  0
 31 54  1  0
 31 55  1  0
M  CHG  3   6  -1   9  -1  11  -1
M  END
>  <UniqueID>  (46) 
44

>  <SMILES>  (46) 
C=c1c(=Cc2[n-]c(=O)[n-]c2[O-])cc(C)n1CCC(=O)N1CCN(c2ccccc2)CC1

>  <Energy>  (46) 
128.8707512741676

>  <Genealogy>  (46) 
C=c1c(=Cc2[n-]c(=O)[n-]c2[O-])cc(C)n1CCC(=O)N1CCN(c2ccccc2)CC1 (protonated)
C=c1c(=Cc2[n-]c(=O)[n-]c2[O-])cc(C)n1CCC(=O)N1CCN(c2ccccc2)CC1 (3D coordinates assigned)
C=c1c(=Cc2[n-]c(=O)[n-]c2[O-])cc(C)n1CCC(=O)N1CCN(c2ccccc2)CC1 (nonaromatic ring conformer: 128.8707512741676 kcal/mol)

>  <smiles>  (46) 
C=c1c(=Cc2[nH]c(=O)[nH]c2O)cc(C)n1CCC(=O)N1CCN(c2ccccc2)CC1

>  <score_type>  (46) 
oracle

>  <origin>  (46) 
adg

>  <m_score__min__energy>  (46) 
-17.989999999999998

>  <m_primary>  (46) 
energy

$$$$
46:0
     RDKit          3D

 48 51  0  0  0  0  0  0  0  0999 V2000
   56.1840   32.2510   52.2640 C   0  0  0  0  0  0  0  0  0  0  0  0
   55.6840   31.0380   52.5560 C   0  0  0  0  0  0  0  0  0  0  0  0
   54.4870   30.4930   52.0590 C   0  0  0  0  0  0  0  0  0  0  0  0
   53.4680   31.0590   51.3820 C   0  0  0  0  0  0  0  0  0  0  0  0
   52.2650   31.6590   51.9810 C   0  0  0  0  0  0  0  0  0  0  0  0
   51.8230   31.4090   53.2280 N   0  0  0  0  0  0  0  0  0  0  0  0
   50.6390   32.0590   53.2740 C   0  0  0  0  0  0  0  0  0  0  0  0
   49.9150   32.0740   54.3030 O   0  0  0  0  0  0  0  0  0  0  0  0
   50.2880   32.6790   52.1280 N   0  0  0  0  0  0  0  0  0  0  0  0
   51.3210   32.4030   51.3170 C   0  0  0  0  0  0  0  0  0  0  0  0
   51.3980   32.8200   49.9940 O   0  0  0  0  0  0  0  0  0  0  0  0
   54.4870   29.1600   52.4230 C   0  0  0  0  0  0  0  0  0  0  0  0
   55.6150   28.9530   53.1860 C   0  0  0  0  0  0  0  0  0  0  0  0
   55.9910   27.6290   53.7830 C   0  0  0  0  0  0  0  0  0  0  0  0
   56.3530   30.0870   53.2680 N   0  0  0  0  0  0  0  0  0  0  0  0
   57.6350   30.2090   53.9870 C   0  0  0  0  0  0  0  0  0  0  0  0
   58.7190   30.7540   53.0850 C   0  0  0  0  0  0  0  0  0  0  0  0
   59.5780   31.7610   53.5520 C   0  0  0  0  0  0  0  0  0  0  0  0
   60.5890   32.2680   52.7330 C   0  0  0  0  0  0  0  0  0  0  0  0
   60.7630   31.7870   51.4220 C   0  0  0  0  0  0  0  0  0  0  0  0
   61.8120   32.3100   50.5740 N   0  0  0  0  0  0  0  0  0  0  0  0
   61.8440   33.6740   50.0670 C   0  0  0  0  0  0  0  0  0  0  0  0
   63.1910   33.8300   49.3750 C   0  0  0  0  0  0  0  0  0  0  0  0
   63.6970   32.4130   49.1300 C   0  0  0  0  0  0  0  0  0  0  0  0
   62.9590   31.5320   50.1270 C   0  0  0  0  0  0  0  0  0  0  0  0
   59.8910   30.7840   50.9550 C   0  0  0  0  0  0  0  0  0  0  0  0
   58.8790   30.2750   51.7740 C   0  0  0  0  0  0  0  0  0  0  0  0
   58.0570   29.3170   51.2810 F   0  0  0  0  0  0  0  0  0  0  0  0
   57.1341   32.5768   52.7126 H   0  0  0  0  0  0  0  0  0  0  0  0
   55.6431   32.9179   51.5764 H   0  0  0  0  0  0  0  0  0  0  0  0
   53.5422   31.0737   50.2846 H   0  0  0  0  0  0  0  0  0  0  0  0
   53.7306   28.4078   52.1547 H   0  0  0  0  0  0  0  0  0  0  0  0
   55.9702   27.7024   54.8804 H   0  0  0  0  0  0  0  0  0  0  0  0
   55.2753   26.8616   53.4532 H   0  0  0  0  0  0  0  0  0  0  0  0
   57.0032   27.3523   53.4532 H   0  0  0  0  0  0  0  0  0  0  0  0
   57.5037   30.8893   54.8414 H   0  0  0  0  0  0  0  0  0  0  0  0
   57.9381   29.2088   54.3301 H   0  0  0  0  0  0  0  0  0  0  0  0
   59.4537   32.1541   54.5718 H   0  0  0  0  0  0  0  0  0  0  0  0
   61.2573   33.0527   53.1172 H   0  0  0  0  0  0  0  0  0  0  0  0
   61.0249   33.8354   49.3508 H   0  0  0  0  0  0  0  0  0  0  0  0
   61.7178   34.4087   50.8758 H   0  0  0  0  0  0  0  0  0  0  0  0
   63.0722   34.3649   48.4212 H   0  0  0  0  0  0  0  0  0  0  0  0
   63.8960   34.4122   49.9866 H   0  0  0  0  0  0  0  0  0  0  0  0
   63.4716   32.0983   48.1004 H   0  0  0  0  0  0  0  0  0  0  0  0
   64.7874   32.3443   49.2581 H   0  0  0  0  0  0  0  0  0  0  0  0
   62.6255   30.6024   49.6427 H   0  0  0  0  0  0  0  0  0  0  0  0
   63.6059   31.2456   50.9693 H   0  0  0  0  0  0  0  0  0  0  0  0
   60.0080   30.3962   49.9323 H   0  0  0  0  0  0  0  0  0  0  0  0
  1  2  2  0
  2  3  1  0
  3  4  2  3
  4  5  1  0
  5  6  1  0
  6  7  1  0
  7  8  2  0
  7  9  1  0
  9 10  1  0
 10 11  1  0
  3 12  1  0
 12 13  2  0
 13 14  1  0
 13 15  1  0
 15 16  1  0
 16 17  1  0
 17 18  2  0
 18 19  1  0
 19 20  2  0
 20 21  1  0
 21 22  1  0
 22 23  1  0
 23 24  1  0
 24 25  1  0
 20 26  1  0
 26 27  2  0
 27 28  1  0
 15  2  1  0
 27 17  1  0
 10  5  2  0
 25 21  1  0
  1 29  1  0
  1 30  1  0
  4 31  1  0
 12 32  1  0
 14 33  1  0
 14 34  1  0
 14 35  1  0
 16 36  1  0
 16 37  1  0
 18 38  1  0
 19 39  1  0
 22 40  1  0
 22 41  1  0
 23 42  1  0
 23 43  1  0
 24 44  1  0
 24 45  1  0
 25 46  1  0
 25 47  1  0
 26 48  1  0
M  CHG  3   6  -1   9  -1  11  -1
M  END
>  <UniqueID>  (47) 
45

>  <SMILES>  (47) 
C=c1c(=Cc2[n-]c(=O)[n-]c2[O-])cc(C)n1Cc1ccc(N2CCCC2)cc1F

>  <Energy>  (47) 
121.93853940761632

>  <Genealogy>  (47) 
C=c1c(=Cc2[n-]c(=O)[n-]c2[O-])cc(C)n1Cc1ccc(N2CCCC2)cc1F (protonated)
C=c1c(=Cc2[n-]c(=O)[n-]c2[O-])cc(C)n1Cc1ccc(N2CCCC2)cc1F (3D coordinates assigned)
C=c1c(=Cc2[n-]c(=O)[n-]c2[O-])cc(C)n1Cc1ccc(N2CCCC2)cc1F (nonaromatic ring conformer: 121.93853940761632 kcal/mol)

>  <smiles>  (47) 
C=c1c(=Cc2[nH]c(=O)[nH]c2O)cc(C)n1Cc1ccc(N2CCCC2)cc1F

>  <score_type>  (47) 
oracle

>  <origin>  (47) 
adg

>  <m_score__min__energy>  (47) 
-16.489999999999998

>  <m_primary>  (47) 
energy

$$$$
47:0
     RDKit          3D

 80 84  0  0  0  0  0  0  0  0999 V2000
   60.2800   34.5750   47.2150 C   0  0  0  0  0  0  0  0  0  0  0  0
   60.6370   34.1280   48.4280 C   0  0  0  0  0  0  0  0  0  0  0  0
   59.6440   34.2000   49.5650 C   0  0  0  0  0  0  0  0  0  0  0  0
   59.1560   32.8660   49.9120 N   0  0  0  0  0  0  0  0  0  0  0  0
   58.7370   32.4440   51.1160 C   0  0  0  0  0  0  0  0  0  0  0  0
   58.3550   31.1220   50.9910 C   0  0  0  0  0  0  0  0  0  0  0  0
   57.7770   30.2830   52.0510 C   0  0  0  0  0  0  0  0  0  0  0  0
   56.5480   30.0050   51.9850 O   0  0  0  0  0  0  0  0  0  0  0  0
   58.5830   29.7600   53.1320 N   0  0  0  0  0  0  0  0  0  0  0  0
   58.3610   30.2380   54.5090 C   0  0  0  0  0  0  0  0  0  0  0  0
   58.2360   31.7610   54.5780 C   0  0  0  0  0  0  0  0  0  0  0  0
   59.6190   28.7500   52.8570 C   0  0  0  0  0  0  0  0  0  0  0  0
   60.9440   29.3680   52.4500 C   0  0  0  0  0  0  0  0  0  0  0  0
   61.6460   30.1380   53.3990 C   0  0  0  0  0  0  0  0  0  0  0  0
   62.8950   30.6850   53.0930 C   0  0  0  0  0  0  0  0  0  0  0  0
   63.4640   30.4670   51.8390 C   0  0  0  0  0  0  0  0  0  0  0  0
   62.7850   29.7120   50.8820 C   0  0  0  0  0  0  0  0  0  0  0  0
   61.5220   29.1690   51.1670 C   0  0  0  0  0  0  0  0  0  0  0  0
   60.8570   28.3900   50.1110 C   0  0  0  0  0  0  0  0  0  0  0  0
   60.7670   27.1400   50.2420 O   0  0  0  0  0  0  0  0  0  0  0  0
   60.3320   29.0490   48.9460 N   0  0  0  0  0  0  0  0  0  0  0  0
   59.5430   28.3810   47.9490 C   0  0  0  0  0  0  0  0  0  0  0  0
   59.5550   26.9820   47.8870 C   0  0  0  0  0  0  0  0  0  0  0  0
   58.8080   26.3090   46.9170 C   0  0  0  0  0  0  0  0  0  0  0  0
   58.0230   27.0320   46.0130 C   0  0  0  0  0  0  0  0  0  0  0  0
   57.9780   28.4350   46.0750 C   0  0  0  0  0  0  0  0  0  0  0  0
   57.0970   29.2010   45.1620 C   0  0  0  0  0  0  0  0  0  0  0  0
   55.9060   28.8210   44.9950 O   0  0  0  0  0  0  0  0  0  0  0  0
   57.5680   30.3640   44.4580 N   0  0  0  0  0  0  0  0  0  0  0  0
   58.4550   31.3340   45.1200 C   0  0  0  0  0  0  0  0  0  0  0  0
   57.9590   32.7620   44.8530 C   0  0  0  0  0  0  0  0  0  0  0  0
   57.7500   33.0570   43.3520 C   0  0  0  0  0  0  0  0  0  0  0  0
   57.8100   31.8110   42.4570 C   0  0  0  0  0  0  0  0  0  0  0  0
   57.0800   30.6220   43.0950 C   0  0  0  0  0  0  0  0  0  0  0  0
   58.7310   29.1030   47.0560 C   0  0  0  0  0  0  0  0  0  0  0  0
   58.5190   30.7100   49.7170 N   0  0  0  0  0  0  0  0  0  0  0  0
   59.0210   31.8000   49.0980 C   0  0  0  0  0  0  0  0  0  0  0  0
   59.3280   31.8140   47.8750 O   0  0  0  0  0  0  0  0  0  0  0  0
   61.9720   33.5020   48.6340 C   0  0  0  0  0  0  0  0  0  0  0  0
   62.7820   33.8780   49.7270 C   0  0  0  0  0  0  0  0  0  0  0  0
   64.0480   33.3080   49.9050 C   0  0  0  0  0  0  0  0  0  0  0  0
   64.5170   32.3530   49.0000 C   0  0  0  0  0  0  0  0  0  0  0  0
   63.7230   31.9700   47.9150 C   0  0  0  0  0  0  0  0  0  0  0  0
   62.4610   32.5460   47.7250 C   0  0  0  0  0  0  0  0  0  0  0  0
   60.9939   34.5279   46.3795 H   0  0  0  0  0  0  0  0  0  0  0  0
   59.2733   34.9887   47.0556 H   0  0  0  0  0  0  0  0  0  0  0  0
   60.1334   34.6451   50.4438 H   0  0  0  0  0  0  0  0  0  0  0  0
   58.7900   34.8173   49.2494 H   0  0  0  0  0  0  0  0  0  0  0  0
   58.7038   33.0438   52.0375 H   0  0  0  0  0  0  0  0  0  0  0  0
   57.4342   29.7885   54.8951 H   0  0  0  0  0  0  0  0  0  0  0  0
   59.2310   29.9425   55.1138 H   0  0  0  0  0  0  0  0  0  0  0  0
   58.2099   32.0794   55.6306 H   0  0  0  0  0  0  0  0  0  0  0  0
   59.0993   32.2228   54.0765 H   0  0  0  0  0  0  0  0  0  0  0  0
   57.3090   32.0759   54.0765 H   0  0  0  0  0  0  0  0  0  0  0  0
   59.7748   28.1491   53.7651 H   0  0  0  0  0  0  0  0  0  0  0  0
   59.2676   28.1328   52.0170 H   0  0  0  0  0  0  0  0  0  0  0  0
   61.2056   30.3104   54.3921 H   0  0  0  0  0  0  0  0  0  0  0  0
   63.4295   31.2879   53.8419 H   0  0  0  0  0  0  0  0  0  0  0  0
   64.4511   30.8914   51.6034 H   0  0  0  0  0  0  0  0  0  0  0  0
   63.2428   29.5409   49.8965 H   0  0  0  0  0  0  0  0  0  0  0  0
   60.4140   30.0900   48.8890 H   0  0  0  0  0  0  0  0  0  0  0  0
   60.1570   26.4088   48.6074 H   0  0  0  0  0  0  0  0  0  0  0  0
   58.8372   25.2107   46.8643 H   0  0  0  0  0  0  0  0  0  0  0  0
   57.4375   26.4993   45.2492 H   0  0  0  0  0  0  0  0  0  0  0  0
   58.4577   31.1454   46.2037 H   0  0  0  0  0  0  0  0  0  0  0  0
   59.4742   31.2240   44.7211 H   0  0  0  0  0  0  0  0  0  0  0  0
   57.0011   32.9037   45.3748 H   0  0  0  0  0  0  0  0  0  0  0  0
   58.7324   33.4530   45.2197 H   0  0  0  0  0  0  0  0  0  0  0  0
   56.7633   33.5265   43.2258 H   0  0  0  0  0  0  0  0  0  0  0  0
   58.5746   33.7142   43.0387 H   0  0  0  0  0  0  0  0  0  0  0  0
   57.3385   32.0426   41.4905 H   0  0  0  0  0  0  0  0  0  0  0  0
   58.8661   31.5344   42.3224 H   0  0  0  0  0  0  0  0  0  0  0  0
   56.0032   30.8428   43.1358 H   0  0  0  0  0  0  0  0  0  0  0  0
   57.2713   29.7283   42.4829 H   0  0  0  0  0  0  0  0  0  0  0  0
   58.6848   30.1998   47.1259 H   0  0  0  0  0  0  0  0  0  0  0  0
   62.4151   34.6258   50.4455 H   0  0  0  0  0  0  0  0  0  0  0  0
   64.6733   33.6121   50.7573 H   0  0  0  0  0  0  0  0  0  0  0  0
   65.5106   31.9025   49.1409 H   0  0  0  0  0  0  0  0  0  0  0  0
   64.0914   31.2127   47.2073 H   0  0  0  0  0  0  0  0  0  0  0  0
   61.8487   32.2495   46.8606 H   0  0  0  0  0  0  0  0  0  0  0  0
  1  2  2  0
  2  3  1  0
  3  4  1  0
  4  5  1  0
  5  6  2  0
  6  7  1  0
  7  8  2  0
  7  9  1  0
  9 10  1  0
 10 11  1  0
  9 12  1  0
 12 13  1  0
 13 14  2  0
 14 15  1  0
 15 16  2  0
 16 17  1  0
 17 18  2  0
 18 19  1  0
 19 20  2  0
 19 21  1  0
 21 22  1  0
 22 23  2  0
 23 24  1  0
 24 25  2  0
 25 26  1  0
 26 27  1  0
 27 28  2  0
 27 29  1  0
 29 30  1  0
 30 31  1  0
 31 32  1  0
 32 33  1  0
 33 34  1  0
 26 35  2  0
  6 36  1  0
 36 37  1  0
 37 38  2  0
  2 39  1  0
 39 40  2  0
 40 41  1  0
 41 42  2  0
 42 43  1  0
 43 44  2  0
 37  4  1  0
 44 39  1  0
 18 13  1  0
 35 22  1  0
 34 29  1  0
  1 45  1  0
  1 46  1  0
  3 47  1  0
  3 48  1  0
  5 49  1  0
 10 50  1  0
 10 51  1  0
 11 52  1  0
 11 53  1  0
 11 54  1  0
 12 55  1  0
 12 56  1  0
 14 57  1  0
 15 58  1  0
 16 59  1  0
 17 60  1  0
 21 61  1  0
 23 62  1  0
 24 63  1  0
 25 64  1  0
 30 65  1  0
 30 66  1  0
 31 67  1  0
 31 68  1  0
 32 69  1  0
 32 70  1  0
 33 71  1  0
 33 72  1  0
 34 73  1  0
 34 74  1  0
 35 75  1  0
 40 76  1  0
 41 77  1  0
 42 78  1  0
 43 79  1  0
 44 80  1  0
M  CHG  1  36  -1
M  END
>  <UniqueID>  (48) 
46

>  <SMILES>  (48) 
C=C(Cn1cc(C(=O)N(CC)Cc2ccccc2C(=O)Nc2cccc(C(=O)N3CCCCC3)c2)[n-]c1=O)c1ccccc1

>  <Energy>  (48) 
136.60138529270967

>  <Genealogy>  (48) 
C=C(Cn1cc(C(=O)N(CC)Cc2ccccc2C(=O)Nc2cccc(C(=O)N3CCCCC3)c2)[n-]c1=O)c1ccccc1 (protonated)
C=C(Cn1cc(C(=O)N(CC)Cc2ccccc2C(=O)Nc2cccc(C(=O)N3CCCCC3)c2)[n-]c1=O)c1ccccc1 (3D coordinates assigned)
C=C(Cn1cc(C(=O)N(CC)Cc2ccccc2C(=O)Nc2cccc(C(=O)N3CCCCC3)c2)[n-]c1=O)c1ccccc1 (nonaromatic ring conformer: 136.60138529270967 kcal/mol)

>  <smiles>  (48) 
C=C(Cn1cc(C(=O)N(CC)Cc2ccccc2C(=O)Nc2cccc(C(=O)N3CCCCC3)c2)[nH]c1=O)c1ccccc1

>  <score_type>  (48) 
oracle

>  <origin>  (48) 
adg

>  <m_score__min__energy>  (48) 
-12.67

>  <m_primary>  (48) 
energy

$$$$
48:0
     RDKit          3D

 81 86  0  0  0  0  0  0  0  0999 V2000
   60.2720   34.2310   49.7600 C   0  0  0  0  0  0  0  0  0  0  0  0
   61.5290   34.6220   49.2180 O   0  0  0  0  0  0  0  0  0  0  0  0
   62.7700   34.1290   49.6510 C   0  0  0  0  0  0  0  0  0  0  0  0
   63.4050   34.6190   50.8070 C   0  0  0  0  0  0  0  0  0  0  0  0
   64.6450   34.1060   51.2130 C   0  0  0  0  0  0  0  0  0  0  0  0
   65.2420   33.0640   50.4770 C   0  0  0  0  0  0  0  0  0  0  0  0
   64.6210   32.5940   49.3130 C   0  0  0  0  0  0  0  0  0  0  0  0
   63.3830   33.1180   48.8970 C   0  0  0  0  0  0  0  0  0  0  0  0
   62.7320   32.6610   47.7400 O   0  0  0  0  0  0  0  0  0  0  0  0
   62.4650   31.2930   47.4510 C   0  0  0  0  0  0  0  0  0  0  0  0
   66.5940   32.5220   50.8740 C   0  0  0  0  0  0  0  0  0  0  0  0
   66.8750   32.7550   52.3090 N   0  0  0  0  0  0  0  0  0  0  0  0
   68.2260   32.2700   52.6680 C   0  0  0  0  0  0  0  0  0  0  0  0
   68.1800   30.7880   53.0620 C   0  0  0  0  0  0  0  0  0  0  0  0
   66.8400   30.1890   52.7330 C   0  0  0  0  0  0  0  0  0  0  0  0
   65.7000   30.5520   53.4650 C   0  0  0  0  0  0  0  0  0  0  0  0
   64.4510   30.0160   53.1410 C   0  0  0  0  0  0  0  0  0  0  0  0
   64.3200   29.1040   52.0830 C   0  0  0  0  0  0  0  0  0  0  0  0
   63.0190   28.5860   51.7560 N   0  0  0  0  0  0  0  0  0  0  0  0
   62.0510   29.2810   50.9530 C   0  0  0  0  0  0  0  0  0  0  0  0
   62.3760   30.3140   50.3070 O   0  0  0  0  0  0  0  0  0  0  0  0
   60.6420   28.7720   50.8600 C   0  0  0  0  0  0  0  0  0  0  0  0
   60.0140   29.2160   49.5960 N   0  0  0  0  0  0  0  0  0  0  0  0
   60.1320   28.4410   48.4780 C   0  0  0  0  0  0  0  0  0  0  0  0
   60.7710   27.3510   48.5290 O   0  0  0  0  0  0  0  0  0  0  0  0
   59.5500   28.8480   47.2720 C   0  0  0  0  0  0  0  0  0  0  0  0
   59.6490   28.0440   46.1180 C   0  0  0  0  0  0  0  0  0  0  0  0
   59.0590   28.4460   44.9240 C   0  0  0  0  0  0  0  0  0  0  0  0
   58.3590   29.6450   44.8660 C   0  0  0  0  0  0  0  0  0  0  0  0
   58.2510   30.4550   45.9980 C   0  0  0  0  0  0  0  0  0  0  0  0
   58.8560   30.0820   47.2290 C   0  0  0  0  0  0  0  0  0  0  0  0
   58.7880   30.8690   48.3660 N   0  0  0  0  0  0  0  0  0  0  0  0
   58.1630   32.2160   48.3720 C   0  0  0  0  0  0  0  0  0  0  0  0
   58.5580   32.9980   47.1410 C   0  0  0  0  0  0  0  0  0  0  0  0
   59.9120   33.2440   46.8490 C   0  0  0  0  0  0  0  0  0  0  0  0
   60.2680   33.9910   45.7220 C   0  0  0  0  0  0  0  0  0  0  0  0
   59.2790   34.4990   44.8770 C   0  0  0  0  0  0  0  0  0  0  0  0
   57.9320   34.2610   45.1570 C   0  0  0  0  0  0  0  0  0  0  0  0
   57.5720   33.5140   46.2830 C   0  0  0  0  0  0  0  0  0  0  0  0
   59.3690   30.4250   49.5350 C   0  0  0  0  0  0  0  0  0  0  0  0
   59.3120   31.1440   50.5740 O   0  0  0  0  0  0  0  0  0  0  0  0
   65.4570   28.7720   51.3230 C   0  0  0  0  0  0  0  0  0  0  0  0
   66.7070   29.3070   51.6480 C   0  0  0  0  0  0  0  0  0  0  0  0
   66.7380   34.1930   52.6110 C   0  0  0  0  0  0  0  0  0  0  0  0
   65.2720   34.6110   52.4860 C   0  0  0  0  0  0  0  0  0  0  0  0
   60.3253   34.2476   50.8586 H   0  0  0  0  0  0  0  0  0  0  0  0
   59.4930   34.9293   49.4201 H   0  0  0  0  0  0  0  0  0  0  0  0
   60.0265   33.2140   49.4201 H   0  0  0  0  0  0  0  0  0  0  0  0
   62.9239   35.4123   51.3980 H   0  0  0  0  0  0  0  0  0  0  0  0
   65.1063   31.8067   48.7175 H   0  0  0  0  0  0  0  0  0  0  0  0
   62.3559   30.7340   48.3920 H   0  0  0  0  0  0  0  0  0  0  0  0
   61.5349   31.2160   46.8688 H   0  0  0  0  0  0  0  0  0  0  0  0
   63.2979   30.8719   46.8688 H   0  0  0  0  0  0  0  0  0  0  0  0
   66.6167   31.4400   50.6770 H   0  0  0  0  0  0  0  0  0  0  0  0
   67.3610   33.0451   50.2840 H   0  0  0  0  0  0  0  0  0  0  0  0
   68.8960   32.3940   51.8045 H   0  0  0  0  0  0  0  0  0  0  0  0
   68.5967   32.8534   53.5237 H   0  0  0  0  0  0  0  0  0  0  0  0
   68.9627   30.2444   52.5126 H   0  0  0  0  0  0  0  0  0  0  0  0
   68.3461   30.7062   54.1463 H   0  0  0  0  0  0  0  0  0  0  0  0
   65.7898   31.2631   54.2994 H   0  0  0  0  0  0  0  0  0  0  0  0
   63.5635   30.3114   53.7199 H   0  0  0  0  0  0  0  0  0  0  0  0
   62.7960   27.6070   52.0490 H   0  0  0  0  0  0  0  0  0  0  0  0
   60.6512   27.6725   50.8932 H   0  0  0  0  0  0  0  0  0  0  0  0
   60.0624   29.1716   51.7052 H   0  0  0  0  0  0  0  0  0  0  0  0
   60.1971   27.0913   46.1621 H   0  0  0  0  0  0  0  0  0  0  0  0
   59.1465   27.8155   44.0269 H   0  0  0  0  0  0  0  0  0  0  0  0
   57.8873   29.9577   43.9228 H   0  0  0  0  0  0  0  0  0  0  0  0
   57.6881   31.3980   45.9362 H   0  0  0  0  0  0  0  0  0  0  0  0
   57.0688   32.1054   48.3929 H   0  0  0  0  0  0  0  0  0  0  0  0
   58.5106   32.7613   49.2619 H   0  0  0  0  0  0  0  0  0  0  0  0
   60.6952   32.8463   47.5112 H   0  0  0  0  0  0  0  0  0  0  0  0
   61.3290   34.1789   45.5005 H   0  0  0  0  0  0  0  0  0  0  0  0
   59.5612   35.0866   43.9909 H   0  0  0  0  0  0  0  0  0  0  0  0
   57.1533   34.6615   44.4913 H   0  0  0  0  0  0  0  0  0  0  0  0
   56.5093   33.3290   46.4986 H   0  0  0  0  0  0  0  0  0  0  0  0
   65.3615   28.0870   50.4676 H   0  0  0  0  0  0  0  0  0  0  0  0
   67.5904   29.0360   51.0513 H   0  0  0  0  0  0  0  0  0  0  0  0
   67.0866   34.3857   53.6364 H   0  0  0  0  0  0  0  0  0  0  0  0
   67.3432   34.7731   51.8988 H   0  0  0  0  0  0  0  0  0  0  0  0
   64.7132   34.2048   53.3420 H   0  0  0  0  0  0  0  0  0  0  0  0
   65.2336   35.7102   52.4694 H   0  0  0  0  0  0  0  0  0  0  0  0
  1  2  1  0
  2  3  1  0
  3  4  2  0
  4  5  1  0
  5  6  2  0
  6  7  1  0
  7  8  2  0
  8  9  1  0
  9 10  1  0
  6 11  1  0
 11 12  1  0
 12 13  1  0
 13 14  1  0
 14 15  1  0
 15 16  2  0
 16 17  1  0
 17 18  2  0
 18 19  1  0
 19 20  1  0
 20 21  2  0
 20 22  1  0
 22 23  1  0
 23 24  1  0
 24 25  2  0
 24 26  1  0
 26 27  2  0
 27 28  1  0
 28 29  2  0
 29 30  1  0
 30 31  2  0
 31 32  1  0
 32 33  1  0
 33 34  1  0
 34 35  2  0
 35 36  1  0
 36 37  2  0
 37 38  1  0
 38 39  2  0
 32 40  1  0
 40 41  2  0
 18 42  1  0
 42 43  2  0
 12 44  1  0
 44 45  1  0
  8  3  1  0
 43 15  1  0
 45  5  1  0
 40 23  1  0
 31 26  1  0
 39 34  1  0
  1 46  1  0
  1 47  1  0
  1 48  1  0
  4 49  1  0
  7 50  1  0
 10 51  1  0
 10 52  1  0
 10 53  1  0
 11 54  1  0
 11 55  1  0
 13 56  1  0
 13 57  1  0
 14 58  1  0
 14 59  1  0
 16 60  1  0
 17 61  1  0
 19 62  1  0
 22 63  1  0
 22 64  1  0
 27 65  1  0
 28 66  1  0
 29 67  1  0
 30 68  1  0
 33 69  1  0
 33 70  1  0
 35 71  1  0
 36 72  1  0
 37 73  1  0
 38 74  1  0
 39 75  1  0
 42 76  1  0
 43 77  1  0
 44 78  1  0
 44 79  1  0
 45 80  1  0
 45 81  1  0
M  END
>  <UniqueID>  (49) 
47

>  <SMILES>  (49) 
COc1cc2c(cc1OC)CN(CCc1ccc(NC(=O)Cn3c(=O)c4ccccc4n(Cc4ccccc4)c3=O)cc1)CC2

>  <Energy>  (49) 
109.14296485990288

>  <Genealogy>  (49) 
COc1cc2c(cc1OC)CN(CCc1ccc(NC(=O)Cn3c(=O)c4ccccc4n(Cc4ccccc4)c3=O)cc1)CC2 (3D coordinates assigned)
COc1cc2c(cc1OC)CN(CCc1ccc(NC(=O)Cn3c(=O)c4ccccc4n(Cc4ccccc4)c3=O)cc1)CC2 (nonaromatic ring conformer: 109.14296485990288 kcal/mol)

>  <smiles>  (49) 
COc1cc2c(cc1OC)CN(CCc1ccc(NC(=O)Cn3c(=O)c4ccccc4n(Cc4ccccc4)c3=O)cc1)CC2

>  <score_type>  (49) 
oracle

>  <origin>  (49) 
adg

>  <m_score__min__energy>  (49) 
-10.140000000000001

>  <m_primary>  (49) 
energy

$$$$
49:0
     RDKit          3D

 40 42  0  0  0  0  0  0  0  0999 V2000
   58.8360   30.2660   44.5480 C   0  0  0  0  0  0  0  0  0  0  0  0
   59.0200   29.7320   45.7680 C   0  0  0  0  0  0  0  0  0  0  0  0
   58.4150   28.5610   46.2570 C   0  0  0  0  0  0  0  0  0  0  0  0
   57.6940   27.6040   45.6370 C   0  0  0  0  0  0  0  0  0  0  0  0
   57.2030   26.3610   46.2470 C   0  0  0  0  0  0  0  0  0  0  0  0
   58.0050   25.3500   46.6210 N   0  0  0  0  0  0  0  0  0  0  0  0
   57.1350   24.3900   47.0080 C   0  0  0  0  0  0  0  0  0  0  0  0
   57.5110   23.2730   47.4490 O   0  0  0  0  0  0  0  0  0  0  0  0
   55.8320   24.7180   46.8740 N   0  0  0  0  0  0  0  0  0  0  0  0
   55.8920   25.9630   46.3770 C   0  0  0  0  0  0  0  0  0  0  0  0
   54.7740   26.7060   46.0200 O   0  0  0  0  0  0  0  0  0  0  0  0
   58.6700   28.5340   47.6110 C   0  0  0  0  0  0  0  0  0  0  0  0
   59.4390   29.6390   47.9030 C   0  0  0  0  0  0  0  0  0  0  0  0
   59.9000   29.9620   49.2970 C   0  0  0  0  0  0  0  0  0  0  0  0
   59.7040   30.3520   46.7760 N   0  0  0  0  0  0  0  0  0  0  0  0
   60.4380   31.6350   46.7110 C   0  0  0  0  0  0  0  0  0  0  0  0
   59.5930   32.8120   47.0120 N   0  0  0  0  0  0  0  0  0  0  0  0
   59.9710   34.1010   46.4020 C   0  0  0  0  0  0  0  0  0  0  0  0
   59.2410   34.3640   45.0780 C   0  0  0  0  0  0  0  0  0  0  0  0
   57.7780   34.1030   45.2430 C   0  0  0  0  0  0  0  0  0  0  0  0
   56.9530   34.8740   44.7750 O   0  0  0  0  0  0  0  0  0  0  0  0
   57.3440   32.8320   45.9000 C   0  0  0  0  0  0  0  0  0  0  0  0
   58.1420   32.5980   47.1890 C   0  0  0  0  0  0  0  0  0  0  0  0
   59.3621   31.1903   44.2672 H   0  0  0  0  0  0  0  0  0  0  0  0
   58.1594   29.7786   43.8306 H   0  0  0  0  0  0  0  0  0  0  0  0
   57.4514   27.7697   44.5770 H   0  0  0  0  0  0  0  0  0  0  0  0
   58.3241   27.7723   48.3253 H   0  0  0  0  0  0  0  0  0  0  0  0
   59.2249   29.4890   50.0253 H   0  0  0  0  0  0  0  0  0  0  0  0
   60.9216   29.5811   49.4428 H   0  0  0  0  0  0  0  0  0  0  0  0
   59.8909   31.0523   49.4428 H   0  0  0  0  0  0  0  0  0  0  0  0
   61.2622   31.6023   47.4388 H   0  0  0  0  0  0  0  0  0  0  0  0
   60.7991   31.7503   45.6784 H   0  0  0  0  0  0  0  0  0  0  0  0
   59.7255   34.9095   47.1063 H   0  0  0  0  0  0  0  0  0  0  0  0
   61.0490   34.0641   46.1864 H   0  0  0  0  0  0  0  0  0  0  0  0
   59.3932   35.4117   44.7794 H   0  0  0  0  0  0  0  0  0  0  0  0
   59.6432   33.6945   44.3034 H   0  0  0  0  0  0  0  0  0  0  0  0
   56.2732   32.8967   46.1431 H   0  0  0  0  0  0  0  0  0  0  0  0
   57.5246   31.9939   45.2109 H   0  0  0  0  0  0  0  0  0  0  0  0
   57.7760   33.2923   47.9597 H   0  0  0  0  0  0  0  0  0  0  0  0
   57.9959   31.5480   47.4824 H   0  0  0  0  0  0  0  0  0  0  0  0
  1  2  2  0
  2  3  1  0
  3  4  2  3
  4  5  1  0
  5  6  1  0
  6  7  1  0
  7  8  2  0
  7  9  1  0
  9 10  1  0
 10 11  1  0
  3 12  1  0
 12 13  2  0
 13 14  1  0
 13 15  1  0
 15 16  1  0
 16 17  1  0
 17 18  1  0
 18 19  1  0
 19 20  1  0
 20 21  2  0
 20 22  1  0
 22 23  1  0
 15  2  1  0
 23 17  1  0
 10  5  2  0
  1 24  1  0
  1 25  1  0
  4 26  1  0
 12 27  1  0
 14 28  1  0
 14 29  1  0
 14 30  1  0
 16 31  1  0
 16 32  1  0
 18 33  1  0
 18 34  1  0
 19 35  1  0
 19 36  1  0
 22 37  1  0
 22 38  1  0
 23 39  1  0
 23 40  1  0
M  CHG  3   6  -1   9  -1  11  -1
M  END
>  <UniqueID>  (50) 
48

>  <SMILES>  (50) 
C=c1c(=Cc2[n-]c(=O)[n-]c2[O-])cc(C)n1CN1CCC(=O)CC1

>  <Energy>  (50) 
121.41183754885094

>  <Genealogy>  (50) 
C=c1c(=Cc2[n-]c(=O)[n-]c2[O-])cc(C)n1CN1CCC(=O)CC1 (protonated)
C=c1c(=Cc2[n-]c(=O)[n-]c2[O-])cc(C)n1CN1CCC(=O)CC1 (3D coordinates assigned)
C=c1c(=Cc2[n-]c(=O)[n-]c2[O-])cc(C)n1CN1CCC(=O)CC1 (nonaromatic ring conformer: 121.41183754885094 kcal/mol)

>  <smiles>  (50) 
C=c1c(=Cc2[nH]c(=O)[nH]c2O)cc(C)n1CN1CCC(=O)CC1

>  <score_type>  (50) 
oracle

>  <origin>  (50) 
adg

>  <m_score__min__energy>  (50) 
-15.26

>  <m_primary>  (50) 
energy

$$$$
50:0
     RDKit          3D

 50 54  0  0  1  0  0  0  0  0999 V2000
   55.7500   26.7560   45.9600 O   0  0  0  0  0  0  0  0  0  0  0  0
   56.6410   27.6160   45.7070 C   0  0  0  0  0  0  0  0  0  0  0  0
   56.3060   28.6610   44.8290 N   0  0  0  0  0  0  0  0  0  0  0  0
   57.0280   29.7240   44.7340 C   0  0  0  0  0  0  0  0  0  0  0  0
   57.9480   29.9400   43.7490 N   0  0  0  0  0  0  0  0  0  0  0  0
   58.4640   31.1280   44.0050 N   0  0  0  0  0  0  0  0  0  0  0  0
   57.9130   31.6670   45.1010 C   0  0  0  0  0  0  0  0  0  0  0  0
   58.1710   32.9690   45.7660 C   0  0  0  0  0  0  0  0  0  0  0  0
   58.7670   34.0960   45.0350 C   0  0  0  0  0  0  0  0  0  0  0  0
   57.2570   34.0770   45.2440 C   0  0  0  0  0  0  0  0  0  0  0  0
   57.0310   30.7860   45.5340 O   0  0  0  0  0  0  0  0  0  0  0  0
   57.9640   27.4950   46.3230 C   0  0  0  0  0  0  0  0  0  0  0  0
   58.9300   26.6320   45.8600 C   0  0  0  0  0  0  0  0  0  0  0  0
   60.1620   26.5490   46.4720 C   0  0  0  0  0  0  0  0  0  0  0  0
   60.4110   27.3600   47.5740 C   0  0  0  0  0  0  0  0  0  0  0  0
   59.4480   28.2280   48.0450 C   0  0  0  0  0  0  0  0  0  0  0  0
   59.7590   29.2530   49.4500 S   0  0  0  0  0  0  0  0  0  0  0  0
   60.8150   28.5490   50.2640 O   0  0  0  0  0  0  0  0  0  0  0  0
   58.5050   29.3540   50.2780 O   0  0  0  0  0  0  0  0  0  0  0  0
   60.3250   30.7370   48.9110 N   0  0  0  0  0  0  0  0  0  0  0  0
   59.4400   31.6710   48.3730 C   0  0  0  0  0  0  0  0  0  0  0  0
   59.9660   33.0870   48.5880 C   0  0  0  0  0  0  0  0  0  0  0  0
   61.2820   33.1650   47.9010 C   0  0  0  0  0  0  0  0  0  0  0  0
   61.6470   34.1550   47.0390 C   0  0  0  0  0  0  0  0  0  0  0  0
   62.9090   34.1080   46.4640 C   0  0  0  0  0  0  0  0  0  0  0  0
   63.7780   33.0770   46.7600 C   0  0  0  0  0  0  0  0  0  0  0  0
   63.4280   32.0610   47.6310 C   0  0  0  0  0  0  0  0  0  0  0  0
   62.1730   32.1300   48.1870 C   0  0  0  0  0  0  0  0  0  0  0  0
   61.6530   31.1020   49.1490 C   0  0  0  0  0  0  0  0  0  0  0  0
   58.2240   28.2930   47.4170 C   0  0  0  0  0  0  0  0  0  0  0  0
   58.1410   29.2560   42.9900 H   0  0  0  0  0  0  0  0  0  0  0  0
   58.4446   32.5097   46.7273 H   0  0  0  0  0  0  0  0  0  0  0  0
   59.3837   34.8311   45.5729 H   0  0  0  0  0  0  0  0  0  0  0  0
   59.4213   34.1830   44.1550 H   0  0  0  0  0  0  0  0  0  0  0  0
   56.7827   34.7825   45.9421 H   0  0  0  0  0  0  0  0  0  0  0  0
   56.3675   34.1317   44.5991 H   0  0  0  0  0  0  0  0  0  0  0  0
   58.7156   25.9979   44.9871 H   0  0  0  0  0  0  0  0  0  0  0  0
   60.9308   25.8571   46.0974 H   0  0  0  0  0  0  0  0  0  0  0  0
   61.3882   27.3086   48.0764 H   0  0  0  0  0  0  0  0  0  0  0  0
   59.3286   31.4855   47.2945 H   0  0  0  0  0  0  0  0  0  0  0  0
   58.4668   31.5715   48.8760 H   0  0  0  0  0  0  0  0  0  0  0  0
   59.2689   33.8197   48.1554 H   0  0  0  0  0  0  0  0  0  0  0  0
   60.0663   33.3124   49.6600 H   0  0  0  0  0  0  0  0  0  0  0  0
   60.9542   34.9762   46.8033 H   0  0  0  0  0  0  0  0  0  0  0  0
   63.2198   34.8994   45.7661 H   0  0  0  0  0  0  0  0  0  0  0  0
   64.7732   33.0631   46.2917 H   0  0  0  0  0  0  0  0  0  0  0  0
   64.1196   31.2388   47.8669 H   0  0  0  0  0  0  0  0  0  0  0  0
   62.2809   30.2022   49.0701 H   0  0  0  0  0  0  0  0  0  0  0  0
   61.6904   31.5501   50.1529 H   0  0  0  0  0  0  0  0  0  0  0  0
   57.4522   28.9829   47.7889 H   0  0  0  0  0  0  0  0  0  0  0  0
  1  2  2  0
  2  3  1  0
  3  4  2  0
  4  5  1  0
  5  6  1  0
  6  7  2  0
  7  8  1  0
  8  9  1  0
  9 10  1  0
  7 11  1  0
  2 12  1  0
 12 13  2  0
 13 14  1  0
 14 15  2  0
 15 16  1  0
 16 17  1  0
 17 18  2  0
 17 19  2  0
 17 20  1  0
 20 21  1  0
 21 22  1  0
 22 23  1  0
 23 24  2  0
 24 25  1  0
 25 26  2  0
 26 27  1  0
 27 28  2  0
 28 29  1  0
 16 30  2  0
 11  4  1  0
 30 12  1  0
 10  8  1  0
 29 20  1  0
 28 23  1  0
  5 31  1  0
  8 32  1  0
  9 33  1  0
  9 34  1  0
 10 35  1  0
 10 36  1  0
 13 37  1  0
 14 38  1  0
 15 39  1  0
 21 40  1  0
 21 41  1  0
 22 42  1  0
 22 43  1  0
 24 44  1  0
 25 45  1  0
 26 46  1  0
 27 47  1  0
 29 48  1  0
 29 49  1  0
 30 50  1  0
M  END
>  <smiles>  (51) 
O=C(N=c1[nH]nc(C2CC2)o1)c1cccc(S(=O)(=O)N2CCc3ccccc3C2)c1

>  <score_type>  (51) 
oracle

>  <origin>  (51) 
adg

>  <m_score__min__energy>  (51) 
-10.91

>  <m_primary>  (51) 
energy

$$$$
51:0
     RDKit          3D

 62 64  0  0  0  0  0  0  0  0999 V2000
   57.3900   24.7380   43.8410 C   0  0  0  0  0  0  0  0  0  0  0  0
   57.7410   25.8710   44.8120 C   0  0  0  0  0  0  0  0  0  0  0  0
   58.4970   25.3140   46.0190 C   0  0  0  0  0  0  0  0  0  0  0  0
   58.5640   26.8440   44.1640 O   0  0  0  0  0  0  0  0  0  0  0  0
   58.9030   28.1090   44.6750 C   0  0  0  0  0  0  0  0  0  0  0  0
   60.1760   28.4080   45.1930 C   0  0  0  0  0  0  0  0  0  0  0  0
   60.4600   29.6920   45.6850 C   0  0  0  0  0  0  0  0  0  0  0  0
   61.7040   30.0000   46.2540 O   0  0  0  0  0  0  0  0  0  0  0  0
   61.8920   30.8620   47.3430 C   0  0  0  0  0  0  0  0  0  0  0  0
   62.4790   32.1140   47.1240 C   0  0  0  0  0  0  0  0  0  0  0  0
   62.7180   32.9800   48.1960 C   0  0  0  0  0  0  0  0  0  0  0  0
   62.3930   32.5900   49.5060 C   0  0  0  0  0  0  0  0  0  0  0  0
   62.7140   33.6820   50.8520 S   0  0  0  0  0  0  0  0  0  0  0  0
   64.0980   33.0880   51.8010 C   0  0  0  0  0  0  0  0  0  0  0  0
   63.0150   35.0560   50.3230 O   0  0  0  0  0  0  0  0  0  0  0  0
   61.5140   33.7550   51.7560 O   0  0  0  0  0  0  0  0  0  0  0  0
   61.7950   31.3400   49.7260 C   0  0  0  0  0  0  0  0  0  0  0  0
   61.5440   30.4820   48.6500 C   0  0  0  0  0  0  0  0  0  0  0  0
   59.4730   30.6800   45.6510 C   0  0  0  0  0  0  0  0  0  0  0  0
   58.1960   30.4030   45.1300 C   0  0  0  0  0  0  0  0  0  0  0  0
   57.1580   31.4640   45.0420 C   0  0  0  0  0  0  0  0  0  0  0  0
   56.0320   31.2000   44.5400 O   0  0  0  0  0  0  0  0  0  0  0  0
   57.4220   32.8150   45.4480 N   0  0  0  0  0  0  0  0  0  0  0  0
   58.1100   33.1940   46.4860 C   0  0  0  0  0  0  0  0  0  0  0  0
   58.9220   34.3460   46.4770 C   0  0  0  0  0  0  0  0  0  0  0  0
   59.6420   34.6830   47.6210 C   0  0  0  0  0  0  0  0  0  0  0  0
   59.5690   33.8780   48.7560 C   0  0  0  0  0  0  0  0  0  0  0  0
   58.7650   32.7280   48.7360 C   0  0  0  0  0  0  0  0  0  0  0  0
   58.6850   31.8340   49.9190 C   0  0  0  0  0  0  0  0  0  0  0  0
   58.2310   30.6620   49.7750 O   0  0  0  0  0  0  0  0  0  0  0  0
   59.1280   32.2750   51.2270 N   0  0  0  0  0  0  0  0  0  0  0  0
   59.4890   31.1130   52.0530 C   0  0  0  0  0  0  0  0  0  0  0  0
   58.0750   33.0700   51.8800 C   0  0  0  0  0  0  0  0  0  0  0  0
   58.0640   32.4280   47.6080 N   0  0  0  0  0  0  0  0  0  0  0  0
   57.9240   29.1060   44.6560 C   0  0  0  0  0  0  0  0  0  0  0  0
   57.1116   23.8395   44.4112 H   0  0  0  0  0  0  0  0  0  0  0  0
   56.5453   25.0465   43.2075 H   0  0  0  0  0  0  0  0  0  0  0  0
   58.2612   24.5150   43.2075 H   0  0  0  0  0  0  0  0  0  0  0  0
   56.8039   26.3421   45.1434 H   0  0  0  0  0  0  0  0  0  0  0  0
   58.0193   25.6660   46.9452 H   0  0  0  0  0  0  0  0  0  0  0  0
   58.4750   24.2146   45.9900 H   0  0  0  0  0  0  0  0  0  0  0  0
   59.5405   25.6608   45.9900 H   0  0  0  0  0  0  0  0  0  0  0  0
   60.9542   27.6308   45.2128 H   0  0  0  0  0  0  0  0  0  0  0  0
   62.7538   32.4183   46.1033 H   0  0  0  0  0  0  0  0  0  0  0  0
   63.1619   33.9697   48.0128 H   0  0  0  0  0  0  0  0  0  0  0  0
   63.8750   33.1837   52.8739 H   0  0  0  0  0  0  0  0  0  0  0  0
   64.2829   32.0313   51.5578 H   0  0  0  0  0  0  0  0  0  0  0  0
   64.9913   33.6820   51.5578 H   0  0  0  0  0  0  0  0  0  0  0  0
   61.5229   31.0339   50.7469 H   0  0  0  0  0  0  0  0  0  0  0  0
   61.0717   29.5047   48.8282 H   0  0  0  0  0  0  0  0  0  0  0  0
   59.6969   31.6858   46.0359 H   0  0  0  0  0  0  0  0  0  0  0  0
   58.9866   34.9729   45.5754 H   0  0  0  0  0  0  0  0  0  0  0  0
   60.2694   35.5865   47.6283 H   0  0  0  0  0  0  0  0  0  0  0  0
   60.1370   34.1418   49.6603 H   0  0  0  0  0  0  0  0  0  0  0  0
   59.9740   32.8880   51.1450 H   0  0  0  0  0  0  0  0  0  0  0  0
   59.4062   31.3796   53.1170 H   0  0  0  0  0  0  0  0  0  0  0  0
   58.8077   30.2787   51.8299 H   0  0  0  0  0  0  0  0  0  0  0  0
   60.5231   30.8116   51.8299 H   0  0  0  0  0  0  0  0  0  0  0  0
   58.1799   32.9908   52.9721 H   0  0  0  0  0  0  0  0  0  0  0  0
   58.1703   34.1234   51.5779 H   0  0  0  0  0  0  0  0  0  0  0  0
   57.0880   32.6898   51.5779 H   0  0  0  0  0  0  0  0  0  0  0  0
   56.9231   28.8730   44.2637 H   0  0  0  0  0  0  0  0  0  0  0  0
  1  2  1  0
  2  3  1  0
  2  4  1  0
  4  5  1  0
  5  6  2  0
  6  7  1  0
  7  8  1  0
  8  9  1  0
  9 10  2  0
 10 11  1  0
 11 12  2  0
 12 13  1  0
 13 14  1  0
 13 15  2  0
 13 16  2  0
 12 17  1  0
 17 18  2  0
  7 19  2  0
 19 20  1  0
 20 21  1  0
 21 22  2  0
 21 23  1  0
 23 24  2  3
 24 25  1  0
 25 26  2  0
 26 27  1  0
 27 28  2  0
 28 29  1  0
 29 30  2  0
 29 31  1  0
 31 32  1  0
 31 33  1  0
 28 34  1  0
 20 35  2  0
 35  5  1  0
 18  9  1  0
 34 24  1  0
  1 36  1  0
  1 37  1  0
  1 38  1  0
  2 39  1  0
  3 40  1  0
  3 41  1  0
  3 42  1  0
  6 43  1  0
 10 44  1  0
 11 45  1  0
 14 46  1  0
 14 47  1  0
 14 48  1  0
 17 49  1  0
 18 50  1  0
 19 51  1  0
 25 52  1  0
 26 53  1  0
 27 54  1  0
 31 55  1  0
 32 56  1  0
 32 57  1  0
 32 58  1  0
 33 59  1  0
 33 60  1  0
 33 61  1  0
 35 62  1  0
M  CHG  2  31   1  34  -1
M  END
>  <UniqueID>  (52) 
49

>  <SMILES>  (52) 
CC(C)Oc1cc(Oc2ccc(S(C)(=O)=O)cc2)cc(C(=O)N=c2cccc(C(=O)[NH+](C)C)[n-]2)c1

>  <Energy>  (52) 
77.17504220028076

>  <Genealogy>  (52) 
CC(C)Oc1cc(Oc2ccc(S(C)(=O)=O)cc2)cc(C(=O)N=c2cccc(C(=O)[NH+](C)C)[n-]2)c1 (protonated)
CC(C)Oc1cc(Oc2ccc(S(C)(=O)=O)cc2)cc(C(=O)N=c2cccc(C(=O)[NH+](C)C)[n-]2)c1 (3D coordinates assigned)
CC(C)Oc1cc(Oc2ccc(S(C)(=O)=O)cc2)cc(C(=O)N=c2cccc(C(=O)[NH+](C)C)[n-]2)c1 (optimized conformer: 77.17504220028076 kcal/mol)

>  <smiles>  (52) 
CC(C)Oc1cc(Oc2ccc(S(C)(=O)=O)cc2)cc(C(=O)N=c2cccc(C(=O)N(C)C)[nH]2)c1

>  <score_type>  (52) 
oracle

>  <origin>  (52) 
adg

>  <m_score__min__energy>  (52) 
-8.7400000000000002

>  <m_primary>  (52) 
energy

$$$$
52:0
     RDKit          3D

 54 56  0  0  0  0  0  0  0  0999 V2000
   54.6180   23.7220   44.6140 C   0  0  0  0  0  0  0  0  0  0  0  0
   54.6130   23.6230   46.1340 C   0  0  0  0  0  0  0  0  0  0  0  0
   55.5860   24.5460   46.7110 N   0  0  0  0  0  0  0  0  0  0  0  0
   55.9960   25.7970   46.1400 C   0  0  0  0  0  0  0  0  0  0  0  0
   55.1370   26.7060   45.9880 O   0  0  0  0  0  0  0  0  0  0  0  0
   57.4240   26.0850   45.7870 C   0  0  0  0  0  0  0  0  0  0  0  0
   58.1470   27.2030   47.0320 S   0  0  0  0  0  0  0  0  0  0  0  0
   58.1100   28.6260   45.9340 C   0  0  0  0  0  0  0  0  0  0  0  0
   57.3370   28.5740   44.7660 C   0  0  0  0  0  0  0  0  0  0  0  0
   57.3310   29.6540   43.8800 C   0  0  0  0  0  0  0  0  0  0  0  0
   58.0950   30.7910   44.1560 C   0  0  0  0  0  0  0  0  0  0  0  0
   58.8620   30.8530   45.3230 C   0  0  0  0  0  0  0  0  0  0  0  0
   58.8780   29.7690   46.2160 C   0  0  0  0  0  0  0  0  0  0  0  0
   59.6440   29.8320   47.4280 N   0  0  0  0  0  0  0  0  0  0  0  0
   59.2760   30.5660   48.5990 C   0  0  0  0  0  0  0  0  0  0  0  0
   58.2500   31.2990   48.5620 O   0  0  0  0  0  0  0  0  0  0  0  0
   60.0280   30.4110   49.8890 C   0  0  0  0  0  0  0  0  0  0  0  0
   60.2270   31.7230   50.4900 N   0  0  0  0  0  0  0  0  0  0  0  0
   60.4670   32.9180   49.7430 C   0  0  0  0  0  0  0  0  0  0  0  0
   59.7130   33.9170   49.9100 O   0  0  0  0  0  0  0  0  0  0  0  0
   61.5690   32.9760   48.7460 C   0  0  0  0  0  0  0  0  0  0  0  0
   62.6970   32.1490   48.9020 C   0  0  0  0  0  0  0  0  0  0  0  0
   63.7510   32.2100   47.9920 C   0  0  0  0  0  0  0  0  0  0  0  0
   63.6770   33.0950   46.9200 C   0  0  0  0  0  0  0  0  0  0  0  0
   62.5840   33.8850   46.7690 N   0  0  0  0  0  0  0  0  0  0  0  0
   61.5390   33.8610   47.6430 C   0  0  0  0  0  0  0  0  0  0  0  0
   60.4220   34.6790   47.4220 O   0  0  0  0  0  0  0  0  0  0  0  0
   59.3020   34.3400   46.6480 C   0  0  0  0  0  0  0  0  0  0  0  0
   59.2470   34.5710   45.2600 C   0  0  0  0  0  0  0  0  0  0  0  0
   58.1020   34.2250   44.5340 C   0  0  0  0  0  0  0  0  0  0  0  0
   57.0040   33.6610   45.1870 C   0  0  0  0  0  0  0  0  0  0  0  0
   57.0420   33.4560   46.5690 C   0  0  0  0  0  0  0  0  0  0  0  0
   58.1850   33.8020   47.2970 C   0  0  0  0  0  0  0  0  0  0  0  0
   54.6714   24.7794   44.3156 H   0  0  0  0  0  0  0  0  0  0  0  0
   55.4901   23.1837   44.2144 H   0  0  0  0  0  0  0  0  0  0  0  0
   53.6961   23.2744   44.2144 H   0  0  0  0  0  0  0  0  0  0  0  0
   53.6099   23.8735   46.5095 H   0  0  0  0  0  0  0  0  0  0  0  0
   54.8818   22.5965   46.4240 H   0  0  0  0  0  0  0  0  0  0  0  0
   57.9929   25.1438   45.7656 H   0  0  0  0  0  0  0  0  0  0  0  0
   57.4667   26.5632   44.7973 H   0  0  0  0  0  0  0  0  0  0  0  0
   56.7337   27.6808   44.5465 H   0  0  0  0  0  0  0  0  0  0  0  0
   56.7240   29.6093   42.9637 H   0  0  0  0  0  0  0  0  0  0  0  0
   58.0929   31.6381   43.4542 H   0  0  0  0  0  0  0  0  0  0  0  0
   59.4547   31.7533   45.5426 H   0  0  0  0  0  0  0  0  0  0  0  0
   59.4510   29.7753   50.5767 H   0  0  0  0  0  0  0  0  0  0  0  0
   61.0041   29.9432   49.6930 H   0  0  0  0  0  0  0  0  0  0  0  0
   62.7472   31.4488   49.7489 H   0  0  0  0  0  0  0  0  0  0  0  0
   64.6329   31.5650   48.1197 H   0  0  0  0  0  0  0  0  0  0  0  0
   64.5033   33.1539   46.1963 H   0  0  0  0  0  0  0  0  0  0  0  0
   60.1066   35.0247   44.7450 H   0  0  0  0  0  0  0  0  0  0  0  0
   58.0667   34.3974   43.4482 H   0  0  0  0  0  0  0  0  0  0  0  0
   56.1090   33.3780   44.6135 H   0  0  0  0  0  0  0  0  0  0  0  0
   56.1724   33.0223   47.0844 H   0  0  0  0  0  0  0  0  0  0  0  0
   58.2061   33.6503   48.3863 H   0  0  0  0  0  0  0  0  0  0  0  0
  1  2  1  0
  2  3  1  0
  3  4  1  0
  4  5  2  0
  4  6  1  0
  6  7  1  0
  7  8  1  0
  8  9  2  0
  9 10  1  0
 10 11  2  0
 11 12  1  0
 12 13  2  0
 13 14  1  0
 14 15  1  0
 15 16  2  0
 15 17  1  0
 17 18  1  0
 18 19  1  0
 19 20  2  0
 19 21  1  0
 21 22  2  0
 22 23  1  0
 23 24  2  0
 24 25  1  0
 25 26  2  0
 26 27  1  0
 27 28  1  0
 28 29  2  0
 29 30  1  0
 30 31  2  0
 31 32  1  0
 32 33  2  0
 13  8  1  0
 26 21  1  0
 33 28  1  0
  1 34  1  0
  1 35  1  0
  1 36  1  0
  2 37  1  0
  2 38  1  0
  6 39  1  0
  6 40  1  0
  9 41  1  0
 10 42  1  0
 11 43  1  0
 12 44  1  0
 17 45  1  0
 17 46  1  0
 22 47  1  0
 23 48  1  0
 24 49  1  0
 29 50  1  0
 30 51  1  0
 31 52  1  0
 32 53  1  0
 33 54  1  0
M  CHG  3   3  -1  14  -1  18  -1
M  END
>  <UniqueID>  (53) 
50

>  <SMILES>  (53) 
CC[N-]C(=O)CSc1ccccc1[N-]C(=O)C[N-]C(=O)c1cccnc1Oc1ccccc1

>  <Energy>  (53) 
53.484992516084475

>  <Genealogy>  (53) 
CC[N-]C(=O)CSc1ccccc1[N-]C(=O)C[N-]C(=O)c1cccnc1Oc1ccccc1 (protonated)
CC[N-]C(=O)CSc1ccccc1[N-]C(=O)C[N-]C(=O)c1cccnc1Oc1ccccc1 (3D coordinates assigned)
CC[N-]C(=O)CSc1ccccc1[N-]C(=O)C[N-]C(=O)c1cccnc1Oc1ccccc1 (optimized conformer: 53.484992516084475 kcal/mol)

>  <smiles>  (53) 
CCNC(=O)CSc1ccccc1NC(=O)CNC(=O)c1cccnc1Oc1ccccc1

>  <score_type>  (53) 
oracle

>  <origin>  (53) 
adg

>  <m_score__min__energy>  (53) 
-14.119999999999999

>  <m_primary>  (53) 
energy

$$$$
53:0
     RDKit          3D

 53 56  0  0  0  0  0  0  0  0999 V2000
   55.3820   29.7140   44.8610 O   0  0  0  0  0  0  0  0  0  0  0  0
   56.6400   29.6730   44.8740 C   0  0  0  0  0  0  0  0  0  0  0  0
   57.2750   28.3840   44.8320 N   0  0  0  0  0  0  0  0  0  0  0  0
   58.0020   27.7230   45.8810 C   0  0  0  0  0  0  0  0  0  0  0  0
   59.2470   28.2080   46.3250 C   0  0  0  0  0  0  0  0  0  0  0  0
   59.9580   27.5340   47.3200 C   0  0  0  0  0  0  0  0  0  0  0  0
   59.4540   26.3500   47.8580 C   0  0  0  0  0  0  0  0  0  0  0  0
   58.2450   25.8300   47.3930 C   0  0  0  0  0  0  0  0  0  0  0  0
   57.5110   26.5080   46.4080 C   0  0  0  0  0  0  0  0  0  0  0  0
   56.2800   25.8850   45.8850 C   0  0  0  0  0  0  0  0  0  0  0  0
   55.1740   26.4380   46.1290 O   0  0  0  0  0  0  0  0  0  0  0  0
   56.3170   24.6880   45.0850 N   0  0  0  0  0  0  0  0  0  0  0  0
   55.1140   24.0010   44.6450 C   0  0  0  0  0  0  0  0  0  0  0  0
   55.5660   23.0240   43.5670 C   0  0  0  0  0  0  0  0  0  0  0  0
   57.0820   22.9180   43.7030 C   0  0  0  0  0  0  0  0  0  0  0  0
   57.5240   24.1470   44.4860 C   0  0  0  0  0  0  0  0  0  0  0  0
   57.4000   30.9440   44.9890 C   0  0  0  0  0  0  0  0  0  0  0  0
   57.1860   31.9720   44.0530 C   0  0  0  0  0  0  0  0  0  0  0  0
   57.8940   33.1720   44.1450 C   0  0  0  0  0  0  0  0  0  0  0  0
   58.8090   33.3710   45.1810 C   0  0  0  0  0  0  0  0  0  0  0  0
   59.0100   32.3720   46.1480 C   0  0  0  0  0  0  0  0  0  0  0  0
   59.9640   32.5380   47.2100 N   0  0  0  0  0  0  0  0  0  0  0  0
   61.2120   33.2410   47.0660 C   0  0  0  0  0  0  0  0  0  0  0  0
   61.4920   33.8110   45.9760 O   0  0  0  0  0  0  0  0  0  0  0  0
   62.1830   33.3200   48.1830 C   0  0  0  0  0  0  0  0  0  0  0  0
   63.4200   32.6560   48.0820 C   0  0  0  0  0  0  0  0  0  0  0  0
   64.3490   32.7220   49.1250 C   0  0  0  0  0  0  0  0  0  0  0  0
   64.0600   33.4580   50.2750 C   0  0  0  0  0  0  0  0  0  0  0  0
   62.8420   34.1340   50.3830 C   0  0  0  0  0  0  0  0  0  0  0  0
   61.9080   34.0700   49.3430 C   0  0  0  0  0  0  0  0  0  0  0  0
   58.3130   31.1600   46.0370 C   0  0  0  0  0  0  0  0  0  0  0  0
   59.6632   29.1259   45.8842 H   0  0  0  0  0  0  0  0  0  0  0  0
   60.9162   27.9371   47.6797 H   0  0  0  0  0  0  0  0  0  0  0  0
   60.0097   25.8256   48.6493 H   0  0  0  0  0  0  0  0  0  0  0  0
   57.8650   24.8820   47.8016 H   0  0  0  0  0  0  0  0  0  0  0  0
   54.6533   23.4594   45.4843 H   0  0  0  0  0  0  0  0  0  0  0  0
   54.3613   24.7063   44.2629 H   0  0  0  0  0  0  0  0  0  0  0  0
   55.0988   22.0404   43.7226 H   0  0  0  0  0  0  0  0  0  0  0  0
   55.2750   23.3687   42.5638 H   0  0  0  0  0  0  0  0  0  0  0  0
   57.3531   22.0012   44.2470 H   0  0  0  0  0  0  0  0  0  0  0  0
   57.5710   22.8719   42.7188 H   0  0  0  0  0  0  0  0  0  0  0  0
   58.2460   23.8650   45.2665 H   0  0  0  0  0  0  0  0  0  0  0  0
   58.0202   24.8840   43.8375 H   0  0  0  0  0  0  0  0  0  0  0  0
   56.4557   31.8295   43.2428 H   0  0  0  0  0  0  0  0  0  0  0  0
   57.7304   33.9634   43.3987 H   0  0  0  0  0  0  0  0  0  0  0  0
   59.3741   34.3129   45.2401 H   0  0  0  0  0  0  0  0  0  0  0  0
   59.6940   32.1650   48.1470 H   0  0  0  0  0  0  0  0  0  0  0  0
   63.6578   32.0805   47.1752 H   0  0  0  0  0  0  0  0  0  0  0  0
   65.3095   32.1928   49.0389 H   0  0  0  0  0  0  0  0  0  0  0  0
   64.7907   33.5059   51.0959 H   0  0  0  0  0  0  0  0  0  0  0  0
   62.6168   34.7179   51.2876 H   0  0  0  0  0  0  0  0  0  0  0  0
   60.9531   34.6088   49.4320 H   0  0  0  0  0  0  0  0  0  0  0  0
   58.4828   30.3670   46.7802 H   0  0  0  0  0  0  0  0  0  0  0  0
  1  2  2  0
  2  3  1  0
  3  4  1  0
  4  5  2  0
  5  6  1  0
  6  7  2  0
  7  8  1  0
  8  9  2  0
  9 10  1  0
 10 11  2  0
 10 12  1  0
 12 13  1  0
 13 14  1  0
 14 15  1  0
 15 16  1  0
  2 17  1  0
 17 18  2  0
 18 19  1  0
 19 20  2  0
 20 21  1  0
 21 22  1  0
 22 23  1  0
 23 24  2  0
 23 25  1  0
 25 26  2  0
 26 27  1  0
 27 28  2  0
 28 29  1  0
 29 30  2  0
 21 31  2  0
  9  4  1  0
 16 12  1  0
 31 17  1  0
 30 25  1  0
  5 32  1  0
  6 33  1  0
  7 34  1  0
  8 35  1  0
 13 36  1  0
 13 37  1  0
 14 38  1  0
 14 39  1  0
 15 40  1  0
 15 41  1  0
 16 42  1  0
 16 43  1  0
 18 44  1  0
 19 45  1  0
 20 46  1  0
 22 47  1  0
 26 48  1  0
 27 49  1  0
 28 50  1  0
 29 51  1  0
 30 52  1  0
 31 53  1  0
M  CHG  1   3  -1
M  END
>  <UniqueID>  (54) 
51

>  <SMILES>  (54) 
O=C([N-]c1ccccc1C(=O)N1CCCC1)c1cccc(NC(=O)c2ccccc2)c1

>  <Energy>  (54) 
75.95714645691729

>  <Genealogy>  (54) 
O=C([N-]c1ccccc1C(=O)N1CCCC1)c1cccc(NC(=O)c2ccccc2)c1 (protonated)
O=C([N-]c1ccccc1C(=O)N1CCCC1)c1cccc(NC(=O)c2ccccc2)c1 (3D coordinates assigned)
O=C([N-]c1ccccc1C(=O)N1CCCC1)c1cccc(NC(=O)c2ccccc2)c1 (nonaromatic ring conformer: 75.95714645691729 kcal/mol)

>  <smiles>  (54) 
O=C(Nc1cccc(C(=O)Nc2ccccc2C(=O)N2CCCC2)c1)c1ccccc1

>  <score_type>  (54) 
oracle

>  <origin>  (54) 
adg

>  <m_score__min__energy>  (54) 
-11.57

>  <m_primary>  (54) 
energy

$$$$
54:0
     RDKit          3D

 63 67  0  0  0  0  0  0  0  0999 V2000
   61.3460   31.4730   49.9260 C   0  0  0  0  0  0  0  0  0  0  0  0
   60.2240   32.5400   50.0450 C   0  0  2  0  0  0  0  0  0  0  0  0
   59.8830   32.8120   51.5150 C   0  0  0  0  0  0  0  0  0  0  0  0
   59.2020   31.5750   52.1760 C   0  0  0  0  0  0  0  0  0  0  0  0
   58.4590   30.6120   51.2370 C   0  0  0  0  0  0  0  0  0  0  0  0
   57.8720   29.6630   51.7340 O   0  0  0  0  0  0  0  0  0  0  0  0
   58.4520   30.7460   49.7200 C   0  0  0  0  0  0  0  0  0  0  0  0
   58.9010   32.1490   49.3460 C   0  0  2  0  0  0  0  0  0  0  0  0
   59.1260   32.5350   47.9210 C   0  0  0  0  0  0  0  0  0  0  0  0
   58.3970   32.1760   46.7870 C   0  0  0  0  0  0  0  0  0  0  0  0
   58.6770   32.8310   45.5680 C   0  0  0  0  0  0  0  0  0  0  0  0
   57.9490   32.4340   44.3100 C   0  0  0  0  0  0  0  0  0  0  0  0
   57.1410   31.1740   44.5030 C   0  0  0  0  0  0  0  0  0  0  0  0
   55.8890   31.2150   44.3410 O   0  0  0  0  0  0  0  0  0  0  0  0
   57.7810   29.9140   44.8030 N   0  0  0  0  0  0  0  0  0  0  0  0
   56.9720   28.7630   45.2280 C   0  0  0  0  0  0  0  0  0  0  0  0
   57.7000   27.9590   46.3160 C   0  0  0  0  0  0  0  0  0  0  0  0
   59.2000   27.6810   46.0010 C   0  0  0  0  0  0  0  0  0  0  0  0
   59.5090   26.1690   46.0920 C   0  0  0  0  0  0  0  0  0  0  0  0
   58.2760   25.3230   45.8980 C   0  0  0  0  0  0  0  0  0  0  0  0
   57.6280   24.7520   47.0060 C   0  0  0  0  0  0  0  0  0  0  0  0
   56.5050   23.9400   46.8230 C   0  0  0  0  0  0  0  0  0  0  0  0
   56.0210   23.6930   45.5370 C   0  0  0  0  0  0  0  0  0  0  0  0
   56.6600   24.2550   44.4300 C   0  0  0  0  0  0  0  0  0  0  0  0
   57.7850   25.0650   44.6060 C   0  0  0  0  0  0  0  0  0  0  0  0
   59.6320   28.2620   44.6380 C   0  0  0  0  0  0  0  0  0  0  0  0
   59.2130   29.7300   44.5170 C   0  0  0  0  0  0  0  0  0  0  0  0
   59.6660   33.8430   45.5260 C   0  0  0  0  0  0  0  0  0  0  0  0
   60.3560   34.2170   46.6900 C   0  0  0  0  0  0  0  0  0  0  0  0
   60.0550   33.5540   47.8780 C   0  0  0  0  0  0  0  0  0  0  0  0
   60.6420   33.7110   49.2020 C   0  0  0  0  0  0  0  0  0  0  0  0
   61.4650   34.6020   49.5370 O   0  0  0  0  0  0  0  0  0  0  0  0
   61.6685   31.1663   50.9319 H   0  0  0  0  0  0  0  0  0  0  0  0
   60.9632   30.5976   49.3809 H   0  0  0  0  0  0  0  0  0  0  0  0
   62.2011   31.8993   49.3809 H   0  0  0  0  0  0  0  0  0  0  0  0
   60.8092   33.0454   52.0606 H   0  0  0  0  0  0  0  0  0  0  0  0
   59.1823   33.6589   51.5583 H   0  0  0  0  0  0  0  0  0  0  0  0
   59.9849   30.9997   52.6919 H   0  0  0  0  0  0  0  0  0  0  0  0
   58.4265   31.9906   52.8362 H   0  0  0  0  0  0  0  0  0  0  0  0
   59.1407   30.0090   49.2813 H   0  0  0  0  0  0  0  0  0  0  0  0
   57.4375   30.5651   49.3353 H   0  0  0  0  0  0  0  0  0  0  0  0
   57.9924   32.6755   49.6735 H   0  0  0  0  0  0  0  0  0  0  0  0
   57.6203   31.3989   46.8415 H   0  0  0  0  0  0  0  0  0  0  0  0
   57.2715   33.2500   44.0182 H   0  0  0  0  0  0  0  0  0  0  0  0
   58.6983   32.2428   43.5277 H   0  0  0  0  0  0  0  0  0  0  0  0
   56.0125   29.1238   45.6269 H   0  0  0  0  0  0  0  0  0  0  0  0
   56.8030   28.1097   44.3593 H   0  0  0  0  0  0  0  0  0  0  0  0
   57.6432   28.5226   47.2590 H   0  0  0  0  0  0  0  0  0  0  0  0
   57.2008   26.9807   46.3767 H   0  0  0  0  0  0  0  0  0  0  0  0
   59.7944   28.2016   46.7663 H   0  0  0  0  0  0  0  0  0  0  0  0
   60.2424   25.9099   45.3142 H   0  0  0  0  0  0  0  0  0  0  0  0
   59.9037   25.9649   47.0983 H   0  0  0  0  0  0  0  0  0  0  0  0
   58.0056   24.9446   48.0210 H   0  0  0  0  0  0  0  0  0  0  0  0
   56.0017   23.4948   47.6939 H   0  0  0  0  0  0  0  0  0  0  0  0
   55.1359   23.0554   45.3958 H   0  0  0  0  0  0  0  0  0  0  0  0
   56.2771   24.0598   43.4174 H   0  0  0  0  0  0  0  0  0  0  0  0
   58.2881   25.5022   43.7309 H   0  0  0  0  0  0  0  0  0  0  0  0
   60.7257   28.1900   44.5453 H   0  0  0  0  0  0  0  0  0  0  0  0
   59.1421   27.6877   43.8379 H   0  0  0  0  0  0  0  0  0  0  0  0
   59.7986   30.3276   45.2311 H   0  0  0  0  0  0  0  0  0  0  0  0
   59.4002   30.0553   43.4830 H   0  0  0  0  0  0  0  0  0  0  0  0
   59.8960   34.3409   44.5725 H   0  0  0  0  0  0  0  0  0  0  0  0
   61.1148   35.0130   46.6648 H   0  0  0  0  0  0  0  0  0  0  0  0
  2  1  1  1
  2  3  1  0
  3  4  1  0
  4  5  1  0
  5  6  2  0
  5  7  1  0
  7  8  1  0
  8  9  1  0
  9 10  2  0
 10 11  1  0
 11 12  1  0
 12 13  1  0
 13 14  2  0
 13 15  1  0
 15 16  1  0
 16 17  1  0
 17 18  1  0
 18 19  1  0
 19 20  1  0
 20 21  2  0
 21 22  1  0
 22 23  2  0
 23 24  1  0
 24 25  2  0
 18 26  1  0
 26 27  1  0
 11 28  2  0
 28 29  1  0
 29 30  2  0
 30 31  1  0
 31 32  2  0
  8  2  1  0
 30  9  1  0
 31  2  1  0
 27 15  1  0
 25 20  1  0
  1 33  1  0
  1 34  1  0
  1 35  1  0
  3 36  1  0
  3 37  1  0
  4 38  1  0
  4 39  1  0
  7 40  1  0
  7 41  1  0
  8 42  1  1
 10 43  1  0
 12 44  1  0
 12 45  1  0
 16 46  1  0
 16 47  1  0
 17 48  1  0
 17 49  1  0
 18 50  1  0
 19 51  1  0
 19 52  1  0
 21 53  1  0
 22 54  1  0
 23 55  1  0
 24 56  1  0
 25 57  1  0
 26 58  1  0
 26 59  1  0
 27 60  1  0
 27 61  1  0
 28 62  1  0
 29 63  1  0
M  END
>  <UniqueID>  (55) 
52

>  <SMILES>  (55) 
C[C@]12CCC(=O)C[C@@H]1c1cc(CC(=O)N3CCC(Cc4ccccc4)CC3)ccc1C2=O

>  <Energy>  (55) 
99.01745496423864

>  <Genealogy>  (55) 
C[C@]12CCC(=O)C[C@@H]1c1cc(CC(=O)N3CCC(Cc4ccccc4)CC3)ccc1C2=O (chirality)
C[C@]12CCC(=O)C[C@@H]1c1cc(CC(=O)N3CCC(Cc4ccccc4)CC3)ccc1C2=O (3D coordinates assigned)
C[C@]12CCC(=O)C[C@@H]1c1cc(CC(=O)N3CCC(Cc4ccccc4)CC3)ccc1C2=O (nonaromatic ring conformer: 99.01745496423864 kcal/mol)

>  <smiles>  (55) 
CC12CCC(=O)CC1c1cc(CC(=O)N3CCC(Cc4ccccc4)CC3)ccc1C2=O

>  <score_type>  (55) 
oracle

>  <origin>  (55) 
adg

>  <m_score__min__energy>  (55) 
-11.19

>  <m_primary>  (55) 
energy

$$$$
55:0
     RDKit          3D

 44 46  0  0  0  0  0  0  0  0999 V2000
   55.7590   28.9540   45.1610 O   0  0  0  0  0  0  0  0  0  0  0  0
   56.9330   28.4990   45.1900 C   0  0  0  0  0  0  0  0  0  0  0  0
   58.0740   29.4190   44.8470 C   0  0  0  0  0  0  0  0  0  0  0  0
   58.8260   29.8300   46.0860 C   0  0  0  0  0  0  0  0  0  0  0  0
   58.2640   29.6130   47.3540 C   0  0  0  0  0  0  0  0  0  0  0  0
   58.9680   29.9710   48.5050 C   0  0  0  0  0  0  0  0  0  0  0  0
   60.2420   30.5300   48.4020 C   0  0  0  0  0  0  0  0  0  0  0  0
   60.8240   30.7540   47.1470 C   0  0  0  0  0  0  0  0  0  0  0  0
   62.1500   31.3010   47.1040 N   0  0  0  0  0  0  0  0  0  0  0  0
   62.6310   32.9210   47.5150 S   0  0  0  0  0  0  0  0  0  0  0  0
   63.2060   33.6210   46.3170 O   0  0  0  0  0  0  0  0  0  0  0  0
   63.7030   32.8380   48.5640 O   0  0  0  0  0  0  0  0  0  0  0  0
   61.2610   33.8550   48.1880 C   0  0  0  0  0  0  0  0  0  0  0  0
   60.0870   33.8690   47.2480 C   0  0  0  0  0  0  0  0  0  0  0  0
   60.2570   34.2780   45.9130 C   0  0  0  0  0  0  0  0  0  0  0  0
   59.1650   34.3100   45.0420 C   0  0  0  0  0  0  0  0  0  0  0  0
   57.9010   33.9210   45.4900 C   0  0  0  0  0  0  0  0  0  0  0  0
   57.7250   33.5080   46.8140 C   0  0  0  0  0  0  0  0  0  0  0  0
   58.8110   33.4900   47.6950 C   0  0  0  0  0  0  0  0  0  0  0  0
   60.0970   30.4260   45.9860 C   0  0  0  0  0  0  0  0  0  0  0  0
   57.1520   27.1060   45.6430 C   0  0  0  0  0  0  0  0  0  0  0  0
   58.4680   26.6240   45.7390 C   0  0  0  0  0  0  0  0  0  0  0  0
   58.7180   25.3100   46.1470 C   0  0  0  0  0  0  0  0  0  0  0  0
   57.6560   24.4670   46.4760 C   0  0  0  0  0  0  0  0  0  0  0  0
   56.3430   24.9390   46.4110 C   0  0  0  0  0  0  0  0  0  0  0  0
   56.0850   26.2550   46.0090 C   0  0  0  0  0  0  0  0  0  0  0  0
   54.7710   26.7070   46.0100 O   0  0  0  0  0  0  0  0  0  0  0  0
   58.7623   28.8996   44.1639 H   0  0  0  0  0  0  0  0  0  0  0  0
   57.6655   30.3215   44.3689 H   0  0  0  0  0  0  0  0  0  0  0  0
   57.2657   29.1594   47.4408 H   0  0  0  0  0  0  0  0  0  0  0  0
   58.5171   29.8119   49.4957 H   0  0  0  0  0  0  0  0  0  0  0  0
   60.7950   30.7975   49.3145 H   0  0  0  0  0  0  0  0  0  0  0  0
   60.9511   33.3989   49.1398 H   0  0  0  0  0  0  0  0  0  0  0  0
   61.5931   34.8926   48.3400 H   0  0  0  0  0  0  0  0  0  0  0  0
   61.2535   34.5738   45.5533 H   0  0  0  0  0  0  0  0  0  0  0  0
   59.3012   34.6420   44.0022 H   0  0  0  0  0  0  0  0  0  0  0  0
   57.0436   33.9395   44.8011 H   0  0  0  0  0  0  0  0  0  0  0  0
   56.7297   33.1964   47.1637 H   0  0  0  0  0  0  0  0  0  0  0  0
   58.6653   33.1784   48.7398 H   0  0  0  0  0  0  0  0  0  0  0  0
   60.5253   30.6370   44.9950 H   0  0  0  0  0  0  0  0  0  0  0  0
   59.3101   27.2867   45.4908 H   0  0  0  0  0  0  0  0  0  0  0  0
   59.7524   24.9408   46.2086 H   0  0  0  0  0  0  0  0  0  0  0  0
   57.8528   23.4303   46.7867 H   0  0  0  0  0  0  0  0  0  0  0  0
   55.5081   24.2739   46.6768 H   0  0  0  0  0  0  0  0  0  0  0  0
  1  2  2  0
  2  3  1  0
  3  4  1  0
  4  5  2  0
  5  6  1  0
  6  7  2  0
  7  8  1  0
  8  9  1  0
  9 10  1  0
 10 11  2  0
 10 12  2  0
 10 13  1  0
 13 14  1  0
 14 15  2  0
 15 16  1  0
 16 17  2  0
 17 18  1  0
 18 19  2  0
  8 20  2  0
  2 21  1  0
 21 22  2  0
 22 23  1  0
 23 24  2  0
 24 25  1  0
 25 26  2  0
 26 27  1  0
 20  4  1  0
 26 21  1  0
 19 14  1  0
  3 28  1  0
  3 29  1  0
  5 30  1  0
  6 31  1  0
  7 32  1  0
 13 33  1  0
 13 34  1  0
 15 35  1  0
 16 36  1  0
 17 37  1  0
 18 38  1  0
 19 39  1  0
 20 40  1  0
 22 41  1  0
 23 42  1  0
 24 43  1  0
 25 44  1  0
M  CHG  2   9  -1  27  -1
M  END
>  <UniqueID>  (56) 
53

>  <SMILES>  (56) 
O=C(Cc1cccc([N-]S(=O)(=O)Cc2ccccc2)c1)c1ccccc1[O-]

>  <Energy>  (56) 
47.676233804406486

>  <Genealogy>  (56) 
O=C(Cc1cccc([N-]S(=O)(=O)Cc2ccccc2)c1)c1ccccc1[O-] (protonated)
O=C(Cc1cccc([N-]S(=O)(=O)Cc2ccccc2)c1)c1ccccc1[O-] (3D coordinates assigned)
O=C(Cc1cccc([N-]S(=O)(=O)Cc2ccccc2)c1)c1ccccc1[O-] (optimized conformer: 47.676233804406486 kcal/mol)

>  <smiles>  (56) 
O=C(Cc1cccc(NS(=O)(=O)Cc2ccccc2)c1)c1ccccc1O

>  <score_type>  (56) 
oracle

>  <origin>  (56) 
adg

>  <m_score__min__energy>  (56) 
-14.48

>  <m_primary>  (56) 
energy

$$$$
56:0
     RDKit          3D

 60 62  0  0  0  0  0  0  0  0999 V2000
   57.7650   32.2620   42.7580 C   0  0  0  0  0  0  0  0  0  0  0  0
   57.5460   31.4470   44.0010 C   0  0  0  0  0  0  0  0  0  0  0  0
   56.8910   30.2710   43.8980 C   0  0  0  0  0  0  0  0  0  0  0  0
   57.3270   28.9950   44.5160 C   0  0  0  0  0  0  0  0  0  0  0  0
   57.3380   28.8840   45.9140 C   0  0  0  0  0  0  0  0  0  0  0  0
   57.7410   27.6910   46.5250 C   0  0  0  0  0  0  0  0  0  0  0  0
   58.1430   26.5960   45.7530 C   0  0  0  0  0  0  0  0  0  0  0  0
   58.5070   25.4120   46.4160 O   0  0  0  0  0  0  0  0  0  0  0  0
   57.6220   24.3310   46.7100 C   0  0  0  0  0  0  0  0  0  0  0  0
   57.0710   23.7070   45.4410 C   0  0  0  0  0  0  0  0  0  0  0  0
   57.8610   22.7600   44.7520 C   0  0  0  0  0  0  0  0  0  0  0  0
   59.0640   22.3700   45.2480 F   0  0  0  0  0  0  0  0  0  0  0  0
   57.4260   22.2170   43.5430 C   0  0  0  0  0  0  0  0  0  0  0  0
   56.1950   22.5920   43.0070 C   0  0  0  0  0  0  0  0  0  0  0  0
   55.3830   23.4990   43.6870 C   0  0  0  0  0  0  0  0  0  0  0  0
   55.7910   24.0460   44.9170 C   0  0  0  0  0  0  0  0  0  0  0  0
   54.8530   24.9560   45.6120 C   0  0  0  0  0  0  0  0  0  0  0  0
   55.0780   26.1960   45.6200 O   0  0  0  0  0  0  0  0  0  0  0  0
   53.6680   24.4390   46.2230 N   0  0  0  0  0  0  0  0  0  0  0  0
   52.7670   23.1230   45.5450 S   0  0  0  0  0  0  0  0  0  0  0  0
   51.2270   22.9360   46.4160 C   0  0  0  0  0  0  0  0  0  0  0  0
   52.4870   23.4140   44.0980 O   0  0  0  0  0  0  0  0  0  0  0  0
   53.5700   21.8570   45.6420 O   0  0  0  0  0  0  0  0  0  0  0  0
   58.1660   26.7170   44.3510 C   0  0  0  0  0  0  0  0  0  0  0  0
   57.7840   27.9150   43.7410 C   0  0  0  0  0  0  0  0  0  0  0  0
   58.0840   31.9520   45.2870 C   0  0  0  0  0  0  0  0  0  0  0  0
   59.2530   31.4020   45.8390 C   0  0  0  0  0  0  0  0  0  0  0  0
   59.7290   31.8510   47.0740 C   0  0  0  0  0  0  0  0  0  0  0  0
   59.0390   32.8520   47.7820 C   0  0  0  0  0  0  0  0  0  0  0  0
   59.4640   33.3210   49.0340 O   0  0  0  0  0  0  0  0  0  0  0  0
   59.1480   32.7440   50.2690 C   0  0  0  0  0  0  0  0  0  0  0  0
   58.5250   33.3950   51.1520 O   0  0  0  0  0  0  0  0  0  0  0  0
   59.5970   31.3500   50.5630 C   0  0  0  0  0  0  0  0  0  0  0  0
   58.5230   30.3750   50.2050 C   0  0  0  0  0  0  0  0  0  0  0  0
   58.5270   29.8150   49.0760 O   0  0  0  0  0  0  0  0  0  0  0  0
   57.5060   30.0950   51.1100 O   0  0  0  0  0  0  0  0  0  0  0  0
   57.9020   33.4320   47.2050 C   0  0  0  0  0  0  0  0  0  0  0  0
   57.4260   32.9890   45.9660 C   0  0  0  0  0  0  0  0  0  0  0  0
   58.0411   33.2895   43.0372 H   0  0  0  0  0  0  0  0  0  0  0  0
   58.5745   31.8135   42.1634 H   0  0  0  0  0  0  0  0  0  0  0  0
   56.8397   32.2797   42.1634 H   0  0  0  0  0  0  0  0  0  0  0  0
   55.9615   30.2581   43.3099 H   0  0  0  0  0  0  0  0  0  0  0  0
   57.0284   29.7387   46.5334 H   0  0  0  0  0  0  0  0  0  0  0  0
   57.7416   27.6138   47.6223 H   0  0  0  0  0  0  0  0  0  0  0  0
   58.1696   23.5642   47.2776 H   0  0  0  0  0  0  0  0  0  0  0  0
   56.7790   24.7232   47.2977 H   0  0  0  0  0  0  0  0  0  0  0  0
   58.0568   21.4900   43.0105 H   0  0  0  0  0  0  0  0  0  0  0  0
   55.8636   22.1717   42.0460 H   0  0  0  0  0  0  0  0  0  0  0  0
   54.4132   23.7898   43.2570 H   0  0  0  0  0  0  0  0  0  0  0  0
   51.4136   22.9587   47.4998 H   0  0  0  0  0  0  0  0  0  0  0  0
   50.5493   23.7585   46.1434 H   0  0  0  0  0  0  0  0  0  0  0  0
   50.7659   21.9753   46.1434 H   0  0  0  0  0  0  0  0  0  0  0  0
   58.4859   25.8652   43.7328 H   0  0  0  0  0  0  0  0  0  0  0  0
   57.8414   28.0134   42.6469 H   0  0  0  0  0  0  0  0  0  0  0  0
   59.7963   30.6142   45.2966 H   0  0  0  0  0  0  0  0  0  0  0  0
   60.6488   31.4190   47.4951 H   0  0  0  0  0  0  0  0  0  0  0  0
   60.5000   31.1277   49.9754 H   0  0  0  0  0  0  0  0  0  0  0  0
   59.8168   31.2630   51.6373 H   0  0  0  0  0  0  0  0  0  0  0  0
   57.3782   34.2437   47.7311 H   0  0  0  0  0  0  0  0  0  0  0  0
   56.5335   33.4549   45.5229 H   0  0  0  0  0  0  0  0  0  0  0  0
  1  2  1  0
  2  3  2  3
  3  4  1  0
  4  5  2  0
  5  6  1  0
  6  7  2  0
  7  8  1  0
  8  9  1  0
  9 10  1  0
 10 11  2  0
 11 12  1  0
 11 13  1  0
 13 14  2  0
 14 15  1  0
 15 16  2  0
 16 17  1  0
 17 18  2  0
 17 19  1  0
 19 20  1  0
 20 21  1  0
 20 22  2  0
 20 23  2  0
  7 24  1  0
 24 25  2  0
  2 26  1  0
 26 27  2  0
 27 28  1  0
 28 29  2  0
 29 30  1  0
 30 31  1  0
 31 32  2  0
 31 33  1  0
 33 34  1  0
 34 35  2  0
 34 36  1  0
 29 37  1  0
 37 38  2  0
 25  4  1  0
 38 26  1  0
 16 10  1  0
  1 39  1  0
  1 40  1  0
  1 41  1  0
  3 42  1  0
  5 43  1  0
  6 44  1  0
  9 45  1  0
  9 46  1  0
 13 47  1  0
 14 48  1  0
 15 49  1  0
 21 50  1  0
 21 51  1  0
 21 52  1  0
 24 53  1  0
 25 54  1  0
 27 55  1  0
 28 56  1  0
 33 57  1  0
 33 58  1  0
 37 59  1  0
 38 60  1  0
M  CHG  2  19  -1  36  -1
M  END
>  <UniqueID>  (57) 
54

>  <SMILES>  (57) 
CC(=Cc1ccc(OCc2c(F)cccc2C(=O)[N-]S(C)(=O)=O)cc1)c1ccc(OC(=O)CC(=O)[O-])cc1

>  <Energy>  (57) 
77.68705151116498

>  <Genealogy>  (57) 
CC(=Cc1ccc(OCc2c(F)cccc2C(=O)[N-]S(C)(=O)=O)cc1)c1ccc(OC(=O)CC(=O)[O-])cc1 (protonated)
CC(=Cc1ccc(OCc2c(F)cccc2C(=O)[N-]S(C)(=O)=O)cc1)c1ccc(OC(=O)CC(=O)[O-])cc1 (3D coordinates assigned)
CC(=Cc1ccc(OCc2c(F)cccc2C(=O)[N-]S(C)(=O)=O)cc1)c1ccc(OC(=O)CC(=O)[O-])cc1 (optimized conformer: 77.68705151116498 kcal/mol)

>  <smiles>  (57) 
CC(=Cc1ccc(OCc2c(F)cccc2C(=O)NS(C)(=O)=O)cc1)c1ccc(OC(=O)CC(=O)O)cc1

>  <score_type>  (57) 
oracle

>  <origin>  (57) 
adg

>  <m_score__min__energy>  (57) 
-14.720000000000001

>  <m_primary>  (57) 
energy

$$$$
57:0
     RDKit          3D

 60 63  0  0  0  0  0  0  0  0999 V2000
   55.8930   26.3630   46.0300 C   0  0  0  0  0  0  0  0  0  0  0  0
   57.3610   26.0230   46.0130 C   0  0  0  0  0  0  0  0  0  0  0  0
   57.7300   24.6700   45.8990 C   0  0  0  0  0  0  0  0  0  0  0  0
   59.0720   24.2930   45.9010 C   0  0  0  0  0  0  0  0  0  0  0  0
   60.0670   25.2590   46.0250 C   0  0  0  0  0  0  0  0  0  0  0  0
   59.7250   26.6060   46.1360 C   0  0  0  0  0  0  0  0  0  0  0  0
   58.3750   27.0200   46.1160 C   0  0  0  0  0  0  0  0  0  0  0  0
   58.0450   28.5110   46.2370 C   0  0  2  0  0  0  0  0  0  0  0  0
   57.7970   29.1620   44.8530 C   0  0  0  0  0  0  0  0  0  0  0  0
   56.5000   29.9390   44.7640 C   0  0  0  0  0  0  0  0  0  0  0  0
   55.4150   29.3050   44.8420 O   0  0  0  0  0  0  0  0  0  0  0  0
   56.4450   31.3540   44.5400 N   0  0  0  0  0  0  0  0  0  0  0  0
   57.3530   32.3370   45.0470 C   0  0  0  0  0  0  0  0  0  0  0  0
   57.6570   33.4980   44.3190 C   0  0  0  0  0  0  0  0  0  0  0  0
   58.5090   34.4620   44.8650 C   0  0  0  0  0  0  0  0  0  0  0  0
   59.0610   34.2740   46.1360 C   0  0  0  0  0  0  0  0  0  0  0  0
   58.7790   33.1050   46.8590 C   0  0  0  0  0  0  0  0  0  0  0  0
   59.4380   32.8640   48.4780 S   0  0  0  0  0  0  0  0  0  0  0  0
   59.8150   34.2030   49.0460 O   0  0  0  0  0  0  0  0  0  0  0  0
   58.3990   32.2330   49.3620 O   0  0  0  0  0  0  0  0  0  0  0  0
   60.8490   31.8310   48.4120 N   0  0  0  0  0  0  0  0  0  0  0  0
   61.7010   32.0670   49.5970 C   0  0  0  0  0  0  0  0  0  0  0  0
   63.1480   31.6210   49.3290 C   0  0  0  0  0  0  0  0  0  0  0  0
   63.7730   32.2940   48.2410 O   0  0  0  0  0  0  0  0  0  0  0  0
   62.8570   32.8560   47.3130 C   0  0  0  0  0  0  0  0  0  0  0  0
   61.5830   32.0100   47.1330 C   0  0  0  0  0  0  0  0  0  0  0  0
   57.9470   32.1290   46.2960 C   0  0  0  0  0  0  0  0  0  0  0  0
   59.0940   29.2430   47.0350 C   0  0  0  0  0  0  0  0  0  0  0  0
   60.0330   29.8510   46.4520 O   0  0  0  0  0  0  0  0  0  0  0  0
   58.9550   29.2970   48.4640 N   0  0  0  0  0  0  0  0  0  0  0  0
   59.8190   28.9100   49.3540 C   0  0  0  0  0  0  0  0  0  0  0  0
   60.2480   29.7310   50.3340 N   0  0  0  0  0  0  0  0  0  0  0  0
   61.1150   29.1030   51.1740 C   0  0  0  0  0  0  0  0  0  0  0  0
   61.3760   27.7710   50.8670 C   0  0  0  0  0  0  0  0  0  0  0  0
   60.4890   27.3660   49.4960 S   0  0  0  0  0  0  0  0  0  0  0  0
   55.5472   26.4431   47.0712 H   0  0  0  0  0  0  0  0  0  0  0  0
   55.7328   27.3220   45.5156 H   0  0  0  0  0  0  0  0  0  0  0  0
   55.3275   25.5721   45.5156 H   0  0  0  0  0  0  0  0  0  0  0  0
   56.9497   23.9001   45.8071 H   0  0  0  0  0  0  0  0  0  0  0  0
   59.3450   23.2318   45.8046 H   0  0  0  0  0  0  0  0  0  0  0  0
   61.1252   24.9588   46.0354 H   0  0  0  0  0  0  0  0  0  0  0  0
   60.5200   27.3589   46.2409 H   0  0  0  0  0  0  0  0  0  0  0  0
   57.1003   28.5961   46.7940 H   0  0  0  0  0  0  0  0  0  0  0  0
   58.6283   29.8501   44.6399 H   0  0  0  0  0  0  0  0  0  0  0  0
   57.7292   28.3426   44.1222 H   0  0  0  0  0  0  0  0  0  0  0  0
   57.2247   33.6491   43.3189 H   0  0  0  0  0  0  0  0  0  0  0  0
   58.7461   35.3713   44.2932 H   0  0  0  0  0  0  0  0  0  0  0  0
   59.7170   35.0433   46.5694 H   0  0  0  0  0  0  0  0  0  0  0  0
   60.5050   30.8420   48.4490 H   0  0  0  0  0  0  0  0  0  0  0  0
   61.6936   33.1402   49.8381 H   0  0  0  0  0  0  0  0  0  0  0  0
   61.3027   31.4817   50.4389 H   0  0  0  0  0  0  0  0  0  0  0  0
   63.7405   31.8079   50.2367 H   0  0  0  0  0  0  0  0  0  0  0  0
   63.1061   30.5552   49.0600 H   0  0  0  0  0  0  0  0  0  0  0  0
   62.5662   33.8551   47.6697 H   0  0  0  0  0  0  0  0  0  0  0  0
   63.3632   32.8979   46.3373 H   0  0  0  0  0  0  0  0  0  0  0  0
   60.9220   32.5124   46.4114 H   0  0  0  0  0  0  0  0  0  0  0  0
   61.8836   31.0155   46.7715 H   0  0  0  0  0  0  0  0  0  0  0  0
   57.7593   31.1917   46.8403 H   0  0  0  0  0  0  0  0  0  0  0  0
   61.5762   29.6114   52.0335 H   0  0  0  0  0  0  0  0  0  0  0  0
   62.0459   27.0995   51.4240 H   0  0  0  0  0  0  0  0  0  0  0  0
  1  2  1  0
  2  3  2  0
  3  4  1  0
  4  5  2  0
  5  6  1  0
  6  7  2  0
  7  8  1  0
  8  9  1  0
  9 10  1  0
 10 11  2  0
 10 12  1  0
 12 13  1  0
 13 14  2  0
 14 15  1  0
 15 16  2  0
 16 17  1  0
 17 18  1  0
 18 19  2  0
 18 20  2  0
 18 21  1  0
 21 22  1  0
 22 23  1  0
 23 24  1  0
 24 25  1  0
 25 26  1  0
 17 27  2  0
  8 28  1  0
 28 29  2  0
 28 30  1  0
 30 31  2  3
 31 32  1  0
 32 33  1  0
 33 34  2  0
 34 35  1  0
  7  2  1  0
 27 13  1  0
 35 31  1  0
 26 21  1  0
  1 36  1  0
  1 37  1  0
  1 38  1  0
  3 39  1  0
  4 40  1  0
  5 41  1  0
  6 42  1  0
  8 43  1  1
  9 44  1  0
  9 45  1  0
 14 46  1  0
 15 47  1  0
 16 48  1  0
 21 49  1  0
 22 50  1  0
 22 51  1  0
 23 52  1  0
 23 53  1  0
 25 54  1  0
 25 55  1  0
 26 56  1  0
 26 57  1  0
 27 58  1  0
 33 59  1  0
 34 60  1  0
M  CHG  3  12  -1  21   1  32  -1
M  END
>  <UniqueID>  (58) 
55

>  <SMILES>  (58) 
Cc1ccccc1[C@H](CC(=O)[N-]c1cccc(S(=O)(=O)[NH+]2CCOCC2)c1)C(=O)N=c1[n-]ccs1

>  <Energy>  (58) 
110.8587307098221

>  <Genealogy>  (58) 
Cc1ccccc1C(CC(=O)[N-]c1cccc(S(=O)(=O)[NH+]2CCOCC2)c1)C(=O)N=c1[n-]ccs1 (protonated)
Cc1ccccc1[C@H](CC(=O)[N-]c1cccc(S(=O)(=O)[NH+]2CCOCC2)c1)C(=O)N=c1[n-]ccs1 (chirality)
Cc1ccccc1[C@H](CC(=O)[N-]c1cccc(S(=O)(=O)[NH+]2CCOCC2)c1)C(=O)N=c1[n-]ccs1 (3D coordinates assigned)
Cc1ccccc1[C@H](CC(=O)[N-]c1cccc(S(=O)(=O)[NH+]2CCOCC2)c1)C(=O)N=c1[n-]ccs1 (nonaromatic ring conformer: 110.8587307098221 kcal/mol)

>  <smiles>  (58) 
Cc1ccccc1C(CC(=O)Nc1cccc(S(=O)(=O)N2CCOCC2)c1)C(=O)N=c1[nH]ccs1

>  <score_type>  (58) 
oracle

>  <origin>  (58) 
adg

>  <m_score__min__energy>  (58) 
-11.58

>  <m_primary>  (58) 
energy

$$$$
58:0
     RDKit          3D

 54 57  0  0  0  0  0  0  0  0999 V2000
   53.6650   25.9440   46.3650 H   0  0  0  0  0  0  0  0  0  0  0  0
   54.5720   26.1470   45.9630 O   0  0  0  0  0  0  0  0  0  0  0  0
   55.6930   25.4130   46.3390 C   0  0  0  0  0  0  0  0  0  0  0  0
   55.6460   24.3050   47.0970 N   0  0  0  0  0  0  0  0  0  0  0  0
   56.9500   23.9730   47.2140 C   0  0  0  0  0  0  0  0  0  0  0  0
   57.3380   22.9700   47.8690 O   0  0  0  0  0  0  0  0  0  0  0  0
   57.8070   24.8050   46.5830 N   0  0  0  0  0  0  0  0  0  0  0  0
   56.9920   25.7060   46.0020 C   0  0  0  0  0  0  0  0  0  0  0  0
   57.4470   26.9140   45.2960 C   0  0  0  0  0  0  0  0  0  0  0  0
   57.4173   26.8932   44.1966 H   0  0  0  0  0  0  0  0  0  0  0  0
   57.8970   28.0440   45.8770 C   0  0  0  0  0  0  0  0  0  0  0  0
   58.5290   28.0460   47.1060 C   0  0  0  0  0  0  0  0  0  0  0  0
   58.6838   27.1772   47.7627 H   0  0  0  0  0  0  0  0  0  0  0  0
   58.9290   29.3420   47.3540 C   0  0  0  0  0  0  0  0  0  0  0  0
   59.7380   29.7270   48.5310 C   0  0  0  0  0  0  0  0  0  0  0  0
   60.8650   30.2570   48.3470 O   0  0  0  0  0  0  0  0  0  0  0  0
   59.2680   29.5470   49.8730 N   0  0  0  0  0  0  0  0  0  0  0  0
   58.6540   30.4250   50.6160 C   0  0  0  0  0  0  0  0  0  0  0  0
   57.4880   30.0640   51.2140 N   0  0  0  0  0  0  0  0  0  0  0  0
   56.7870   30.9100   52.0120 C   0  0  0  0  0  0  0  0  0  0  0  0
   55.8489   30.5741   52.4780 H   0  0  0  0  0  0  0  0  0  0  0  0
   57.2540   32.2040   52.2420 C   0  0  0  0  0  0  0  0  0  0  0  0
   56.6878   32.8917   52.8874 H   0  0  0  0  0  0  0  0  0  0  0  0
   58.4500   32.6200   51.6440 C   0  0  0  0  0  0  0  0  0  0  0  0
   58.9480   34.0220   51.8350 C   0  0  0  0  0  0  0  0  0  0  0  0
   59.0255   34.2403   52.9103 H   0  0  0  0  0  0  0  0  0  0  0  0
   59.9382   34.1263   51.3674 H   0  0  0  0  0  0  0  0  0  0  0  0
   58.2455   34.7275   51.3674 H   0  0  0  0  0  0  0  0  0  0  0  0
   59.1450   31.7350   50.8080 C   0  0  0  0  0  0  0  0  0  0  0  0
   60.0676   32.0592   50.3044 H   0  0  0  0  0  0  0  0  0  0  0  0
   58.5550   30.1560   46.3360 N   0  0  0  0  0  0  0  0  0  0  0  0
   58.8600   31.5920   46.2060 C   0  0  0  0  0  0  0  0  0  0  0  0
   59.9484   31.7366   46.2730 H   0  0  0  0  0  0  0  0  0  0  0  0
   58.4849   31.9445   45.2339 H   0  0  0  0  0  0  0  0  0  0  0  0
   58.1700   32.4070   47.3280 C   0  0  0  0  0  0  0  0  0  0  0  0
   57.1666   31.9864   47.4902 H   0  0  0  0  0  0  0  0  0  0  0  0
   58.8182   32.3298   48.2133 H   0  0  0  0  0  0  0  0  0  0  0  0
   58.0240   33.8530   47.0390 N   0  0  0  0  0  0  0  0  0  0  0  0
   57.6500   34.1480   45.6500 C   0  0  0  0  0  0  0  0  0  0  0  0
   57.3270   33.2262   45.1441 H   0  0  0  0  0  0  0  0  0  0  0  0
   56.8182   34.8670   45.6170 H   0  0  0  0  0  0  0  0  0  0  0  0
   58.8750   34.7160   44.9590 C   0  0  0  0  0  0  0  0  0  0  0  0
   59.4332   33.9200   44.4444 H   0  0  0  0  0  0  0  0  0  0  0  0
   58.6110   35.4596   44.1926 H   0  0  0  0  0  0  0  0  0  0  0  0
   59.7060   35.3150   46.0720 C   0  0  0  0  0  0  0  0  0  0  0  0
   60.7732   35.1033   45.9100 H   0  0  0  0  0  0  0  0  0  0  0  0
   59.5962   36.4086   46.1162 H   0  0  0  0  0  0  0  0  0  0  0  0
   59.2210   34.6490   47.3560 C   0  0  0  0  0  0  0  0  0  0  0  0
   60.0087   33.9934   47.7557 H   0  0  0  0  0  0  0  0  0  0  0  0
   58.9805   35.4115   48.1114 H   0  0  0  0  0  0  0  0  0  0  0  0
   57.8950   29.3780   45.4350 C   0  0  0  0  0  0  0  0  0  0  0  0
   57.2640   29.8640   44.3530 C   0  0  0  0  0  0  0  0  0  0  0  0
   57.3372   30.9338   44.1079 H   0  0  0  0  0  0  0  0  0  0  0  0
   56.6741   29.1921   43.7122 H   0  0  0  0  0  0  0  0  0  0  0  0
  1  2  1  0
  2  3  1  0
  3  4  1  0
  4  5  1  0
  5  6  2  0
  5  7  1  0
  7  8  1  0
  8  9  1  0
  9 10  1  0
  9 11  2  0
 11 12  1  0
 12 13  1  0
 12 14  2  0
 14 15  1  0
 15 16  2  0
 15 17  1  0
 17 18  2  3
 18 19  1  0
 19 20  1  0
 20 21  1  0
 20 22  2  0
 22 23  1  0
 22 24  1  0
 24 25  1  0
 25 26  1  0
 25 27  1  0
 25 28  1  0
 24 29  2  0
 29 30  1  0
 14 31  1  0
 31 32  1  0
 32 33  1  0
 32 34  1  0
 32 35  1  0
 35 36  1  0
 35 37  1  0
 35 38  1  0
 38 39  1  0
 39 40  1  0
 39 41  1  0
 39 42  1  0
 42 43  1  0
 42 44  1  0
 42 45  1  0
 45 46  1  0
 45 47  1  0
 45 48  1  0
 48 49  1  0
 48 50  1  0
 31 51  1  0
 51 52  2  0
 52 53  1  0
 52 54  1  0
  8  3  2  0
 51 11  1  0
 29 18  1  0
 48 38  1  0
M  CHG  3   4  -1   7  -1  19  -1
M  END
>  <UniqueID>  (59) 
56

>  <SMILES>  (59) 
C=c1/c(=C\c2[n-]c(=O)[n-]c2O)cc(C(=O)N=c2cc(C)cc[n-]2)n1CCN1CCCC1

>  <Energy>  (59) 
140.75895592115987

>  <Genealogy>  (59) 
C=c1c(=Cc2[n-]c(=O)[n-]c2O)cc(C(=O)N=c2cc(C)cc[n-]2)n1CCN1CCCC1 (protonated)
C=c1/c(=C\c2[n-]c(=O)[n-]c2O)cc(C(=O)N=c2cc(C)cc[n-]2)n1CCN1CCCC1 (cis-trans isomerization)
C=c1/c(=C\c2[n-]c(=O)[n-]c2O)cc(C(=O)N=c2cc(C)cc[n-]2)n1CCN1CCCC1 (3D coordinates assigned)
C=c1/c(=C\c2[n-]c(=O)[n-]c2O)cc(C(=O)N=c2cc(C)cc[n-]2)n1CCN1CCCC1 (nonaromatic ring conformer: 140.75895592115987 kcal/mol)

>  <smiles>  (59) 
C=c1c(=Cc2[nH]c(=O)[nH]c2O)cc(C(=O)N=c2cc(C)cc[nH]2)n1CCN1CCCC1

>  <score_type>  (59) 
oracle

>  <origin>  (59) 
adg

>  <m_score__min__energy>  (59) 
-14.83

>  <m_primary>  (59) 
energy

$$$$
59:0
     RDKit          3D

 52 55  0  0  0  0  0  0  0  0999 V2000
   56.1550   27.0440   45.6870 O   0  0  0  0  0  0  0  0  0  0  0  0
   57.1290   27.8380   45.7940 C   0  0  0  0  0  0  0  0  0  0  0  0
   57.0010   29.2010   45.2610 C   0  0  0  0  0  0  0  0  0  0  0  0
   58.0310   30.0490   45.0840 N   0  0  0  0  0  0  0  0  0  0  0  0
   57.4000   31.1220   44.5630 C   0  0  0  0  0  0  0  0  0  0  0  0
   58.1060   32.3600   44.1170 C   0  0  0  0  0  0  0  0  0  0  0  0
   57.9060   33.6520   45.3320 S   0  0  0  0  0  0  0  0  0  0  0  0
   56.5680   33.4980   46.0010 O   0  0  0  0  0  0  0  0  0  0  0  0
   57.9500   34.9790   44.6260 O   0  0  0  0  0  0  0  0  0  0  0  0
   59.1820   33.5870   46.5290 N   0  0  0  0  0  0  0  0  0  0  0  0
   60.4700   33.9260   45.9110 C   0  0  0  0  0  0  0  0  0  0  0  0
   61.5400   33.9990   46.9970 C   0  0  0  0  0  0  0  0  0  0  0  0
   61.5670   32.7640   47.7920 N   0  0  0  0  0  0  0  0  0  0  0  0
   62.7040   32.5010   48.6460 C   0  0  0  0  0  0  0  0  0  0  0  0
   63.8830   33.2590   48.5190 C   0  0  0  0  0  0  0  0  0  0  0  0
   64.9870   32.9980   49.3360 C   0  0  0  0  0  0  0  0  0  0  0  0
   64.9310   31.9730   50.2840 C   0  0  0  0  0  0  0  0  0  0  0  0
   63.7710   31.2080   50.4180 C   0  0  0  0  0  0  0  0  0  0  0  0
   62.6630   31.4690   49.6060 C   0  0  0  0  0  0  0  0  0  0  0  0
   60.5910   31.7010   47.5090 C   0  0  0  0  0  0  0  0  0  0  0  0
   59.1850   32.2680   47.2110 C   0  0  0  0  0  0  0  0  0  0  0  0
   56.0750   30.9290   44.4220 N   0  0  0  0  0  0  0  0  0  0  0  0
   55.8680   29.7280   44.8690 O   0  0  0  0  0  0  0  0  0  0  0  0
   58.3580   27.3850   46.3860 N   0  0  0  0  0  0  0  0  0  0  0  0
   58.7970   26.0100   46.1460 C   0  0  0  0  0  0  0  0  0  0  0  0
   60.3070   25.9030   46.3740 C   0  0  0  0  0  0  0  0  0  0  0  0
   60.6580   26.4140   47.6440 O   0  0  0  0  0  0  0  0  0  0  0  0
   60.3980   27.8040   47.6890 C   0  0  0  0  0  0  0  0  0  0  0  0
   58.8950   28.0830   47.5600 C   0  0  0  0  0  0  0  0  0  0  0  0
   59.1768   32.1425   43.9902 H   0  0  0  0  0  0  0  0  0  0  0  0
   57.6763   32.6949   43.1614 H   0  0  0  0  0  0  0  0  0  0  0  0
   60.7416   33.1527   45.1774 H   0  0  0  0  0  0  0  0  0  0  0  0
   60.3924   34.8974   45.4007 H   0  0  0  0  0  0  0  0  0  0  0  0
   62.5227   34.1446   46.5248 H   0  0  0  0  0  0  0  0  0  0  0  0
   61.3053   34.8411   47.6647 H   0  0  0  0  0  0  0  0  0  0  0  0
   63.9363   34.0635   47.7707 H   0  0  0  0  0  0  0  0  0  0  0  0
   65.9014   33.6006   49.2324 H   0  0  0  0  0  0  0  0  0  0  0  0
   65.8013   31.7688   50.9250 H   0  0  0  0  0  0  0  0  0  0  0  0
   63.7286   30.3995   51.1627 H   0  0  0  0  0  0  0  0  0  0  0  0
   61.7512   30.8638   49.7171 H   0  0  0  0  0  0  0  0  0  0  0  0
   60.9346   31.1272   46.6357 H   0  0  0  0  0  0  0  0  0  0  0  0
   60.5168   31.0625   48.4017 H   0  0  0  0  0  0  0  0  0  0  0  0
   58.6540   31.5491   46.5698 H   0  0  0  0  0  0  0  0  0  0  0  0
   58.6972   32.4197   48.1852 H   0  0  0  0  0  0  0  0  0  0  0  0
   58.2740   25.3332   46.8377 H   0  0  0  0  0  0  0  0  0  0  0  0
   58.5646   25.7294   45.1081 H   0  0  0  0  0  0  0  0  0  0  0  0
   60.6072   24.8464   46.3144 H   0  0  0  0  0  0  0  0  0  0  0  0
   60.8238   26.4909   45.6012 H   0  0  0  0  0  0  0  0  0  0  0  0
   60.7585   28.2072   48.6468 H   0  0  0  0  0  0  0  0  0  0  0  0
   60.9190   28.2869   46.8491 H   0  0  0  0  0  0  0  0  0  0  0  0
   58.3788   27.7273   48.4639 H   0  0  0  0  0  0  0  0  0  0  0  0
   58.7355   29.1651   47.4432 H   0  0  0  0  0  0  0  0  0  0  0  0
  1  2  2  0
  2  3  1  0
  3  4  2  0
  4  5  1  0
  5  6  1  0
  6  7  1  0
  7  8  2  0
  7  9  2  0
  7 10  1  0
 10 11  1  0
 11 12  1  0
 12 13  1  0
 13 14  1  0
 14 15  2  0
 15 16  1  0
 16 17  2  0
 17 18  1  0
 18 19  2  0
 13 20  1  0
 20 21  1  0
  5 22  2  0
 22 23  1  0
  2 24  1  0
 24 25  1  0
 25 26  1  0
 26 27  1  0
 27 28  1  0
 28 29  1  0
 23  3  1  0
 29 24  1  0
 21 10  1  0
 19 14  1  0
  6 30  1  0
  6 31  1  0
 11 32  1  0
 11 33  1  0
 12 34  1  0
 12 35  1  0
 15 36  1  0
 16 37  1  0
 17 38  1  0
 18 39  1  0
 19 40  1  0
 20 41  1  0
 20 42  1  0
 21 43  1  0
 21 44  1  0
 25 45  1  0
 25 46  1  0
 26 47  1  0
 26 48  1  0
 28 49  1  0
 28 50  1  0
 29 51  1  0
 29 52  1  0
M  END
>  <UniqueID>  (60) 
57

>  <SMILES>  (60) 
O=C(c1nc(CS(=O)(=O)N2CCN(c3ccccc3)CC2)no1)N1CCOCC1

>  <Energy>  (60) 
90.42302071099954

>  <Genealogy>  (60) 
O=C(c1nc(CS(=O)(=O)N2CCN(c3ccccc3)CC2)no1)N1CCOCC1 (3D coordinates assigned)
O=C(c1nc(CS(=O)(=O)N2CCN(c3ccccc3)CC2)no1)N1CCOCC1 (nonaromatic ring conformer: 90.42302071099954 kcal/mol)

>  <smiles>  (60) 
O=C(c1nc(CS(=O)(=O)N2CCN(c3ccccc3)CC2)no1)N1CCOCC1

>  <score_type>  (60) 
oracle

>  <origin>  (60) 
adg

>  <m_score__min__energy>  (60) 
-9.8300000000000001

>  <m_primary>  (60) 
energy

$$$$
60:0
     RDKit          3D

 33 34  0  0  0  0  0  0  0  0999 V2000
   58.4687   27.9596   42.4195 H   0  0  0  0  0  0  0  0  0  0  0  0
   58.1080   27.1260   43.0400 C   0  0  0  0  0  0  0  0  0  0  0  0
   57.7629   26.1959   42.5649 H   0  0  0  0  0  0  0  0  0  0  0  0
   58.0890   27.2440   44.3790 C   0  0  0  0  0  0  0  0  0  0  0  0
   57.6570   26.2660   45.2870 C   0  0  0  0  0  0  0  0  0  0  0  0
   57.1740   25.0390   44.9890 C   0  0  0  0  0  0  0  0  0  0  0  0
   57.8674   24.3278   44.5164 H   0  0  0  0  0  0  0  0  0  0  0  0
   55.7940   24.5690   45.2430 C   0  0  0  0  0  0  0  0  0  0  0  0
   55.3300   23.3240   45.0320 N   0  0  0  0  0  0  0  0  0  0  0  0
   54.0260   23.4100   45.3690 C   0  0  0  0  0  0  0  0  0  0  0  0
   53.2440   22.4260   45.3080 O   0  0  0  0  0  0  0  0  0  0  0  0
   53.6250   24.6330   45.7720 N   0  0  0  0  0  0  0  0  0  0  0  0
   54.7540   25.3550   45.6820 C   0  0  0  0  0  0  0  0  0  0  0  0
   54.8320   26.7060   45.9960 O   0  0  0  0  0  0  0  0  0  0  0  0
   57.8040   26.8250   46.5500 C   0  0  0  0  0  0  0  0  0  0  0  0
   57.5653   26.3457   47.5109 H   0  0  0  0  0  0  0  0  0  0  0  0
   58.3070   28.0970   46.3680 C   0  0  0  0  0  0  0  0  0  0  0  0
   58.6270   29.0450   47.4850 C   0  0  0  0  0  0  0  0  0  0  0  0
   58.4582   28.5449   48.4501 H   0  0  0  0  0  0  0  0  0  0  0  0
   59.6797   29.3555   47.4121 H   0  0  0  0  0  0  0  0  0  0  0  0
   57.9778   29.9300   47.4121 H   0  0  0  0  0  0  0  0  0  0  0  0
   58.4930   28.3530   45.0540 N   0  0  0  0  0  0  0  0  0  0  0  0
   58.9770   29.6260   44.4930 C   0  0  0  0  0  0  0  0  0  0  0  0
   59.7175   30.0626   45.1793 H   0  0  0  0  0  0  0  0  0  0  0  0
   59.4311   29.4252   43.5114 H   0  0  0  0  0  0  0  0  0  0  0  0
   57.8260   30.6170   44.3030 C   0  0  0  0  0  0  0  0  0  0  0  0
   58.0775   31.5657   44.7996 H   0  0  0  0  0  0  0  0  0  0  0  0
   57.6715   30.7861   43.2271 H   0  0  0  0  0  0  0  0  0  0  0  0
   56.6350   30.0960   44.8650 O   0  0  0  0  0  0  0  0  0  0  0  0
   55.6850   29.8300   43.8580 C   0  0  0  0  0  0  0  0  0  0  0  0
   54.7245   29.5611   44.3219 H   0  0  0  0  0  0  0  0  0  0  0  0
   55.5524   30.7256   43.2332 H   0  0  0  0  0  0  0  0  0  0  0  0
   56.0368   28.9958   43.2332 H   0  0  0  0  0  0  0  0  0  0  0  0
  1  2  1  0
  2  3  1  0
  2  4  2  0
  4  5  1  0
  5  6  2  0
  6  7  1  0
  6  8  1  0
  8  9  1  0
  9 10  1  0
 10 11  2  0
 10 12  1  0
 12 13  1  0
 13 14  1  0
  5 15  1  0
 15 16  1  0
 15 17  2  0
 17 18  1  0
 18 19  1  0
 18 20  1  0
 18 21  1  0
 17 22  1  0
 22 23  1  0
 23 24  1  0
 23 25  1  0
 23 26  1  0
 26 27  1  0
 26 28  1  0
 26 29  1  0
 29 30  1  0
 30 31  1  0
 30 32  1  0
 30 33  1  0
 22  4  1  0
 13  8  2  0
M  CHG  3   9  -1  12  -1  14  -1
M  END
>  <UniqueID>  (61) 
58

>  <SMILES>  (61) 
C=c1/c(=C/c2[n-]c(=O)[n-]c2[O-])cc(C)n1CCOC

>  <Energy>  (61) 
94.41353979545629

>  <Genealogy>  (61) 
C=c1c(=Cc2[n-]c(=O)[n-]c2[O-])cc(C)n1CCOC (protonated)
C=c1/c(=C/c2[n-]c(=O)[n-]c2[O-])cc(C)n1CCOC (cis-trans isomerization)
C=c1/c(=C/c2[n-]c(=O)[n-]c2[O-])cc(C)n1CCOC (3D coordinates assigned)
C=c1/c(=C/c2[n-]c(=O)[n-]c2[O-])cc(C)n1CCOC (optimized conformer: 94.41353979545629 kcal/mol)

>  <smiles>  (61) 
C=c1c(=Cc2[nH]c(=O)[nH]c2O)cc(C)n1CCOC

>  <score_type>  (61) 
oracle

>  <origin>  (61) 
adg

>  <m_score__min__energy>  (61) 
-14.98

>  <m_primary>  (61) 
energy

$$$$
61:0
     RDKit          3D

 27 28  0  0  0  0  0  0  0  0999 V2000
   58.5610   33.5890   45.0870 C   0  0  0  0  0  0  0  0  0  0  0  0
   57.9470   32.4850   44.3600 N   0  0  0  0  0  0  0  0  0  0  0  0
   57.0310   31.6290   44.8510 C   0  0  0  0  0  0  0  0  0  0  0  0
   56.6330   30.7960   43.8210 C   0  0  0  0  0  0  0  0  0  0  0  0
   55.5820   29.7340   43.8710 C   0  0  0  0  0  0  0  0  0  0  0  0
   55.5940   29.0700   45.1700 N   0  0  0  0  0  0  0  0  0  0  0  0
   56.6390   28.1910   45.6010 C   0  0  0  0  0  0  0  0  0  0  0  0
   57.8300   28.6050   45.6620 O   0  0  0  0  0  0  0  0  0  0  0  0
   56.3150   26.8000   45.9680 C   0  0  0  0  0  0  0  0  0  0  0  0
   57.2470   25.9830   46.6250 C   0  0  0  0  0  0  0  0  0  0  0  0
   56.8780   24.6760   46.9470 C   0  0  0  0  0  0  0  0  0  0  0  0
   57.6910   23.9160   47.5360 O   0  0  0  0  0  0  0  0  0  0  0  0
   55.6400   24.2220   46.6250 N   0  0  0  0  0  0  0  0  0  0  0  0
   54.7460   25.0230   45.9890 C   0  0  0  0  0  0  0  0  0  0  0  0
   53.6040   24.5850   45.7000 O   0  0  0  0  0  0  0  0  0  0  0  0
   55.0860   26.2990   45.6670 N   0  0  0  0  0  0  0  0  0  0  0  0
   57.3340   31.2210   42.7070 C   0  0  0  0  0  0  0  0  0  0  0  0
   58.1210   32.2500   43.0690 N   0  0  0  0  0  0  0  0  0  0  0  0
   58.4640   33.4146   46.1688 H   0  0  0  0  0  0  0  0  0  0  0  0
   59.6261   33.6562   44.8205 H   0  0  0  0  0  0  0  0  0  0  0  0
   58.0563   34.5293   44.8205 H   0  0  0  0  0  0  0  0  0  0  0  0
   56.6642   31.5977   45.8876 H   0  0  0  0  0  0  0  0  0  0  0  0
   54.5954   30.1919   43.7067 H   0  0  0  0  0  0  0  0  0  0  0  0
   55.7876   28.9901   43.0872 H   0  0  0  0  0  0  0  0  0  0  0  0
   58.2467   26.3640   46.8808 H   0  0  0  0  0  0  0  0  0  0  0  0
   57.2605   30.7909   41.6973 H   0  0  0  0  0  0  0  0  0  0  0  0
   58.7510   32.7960   42.4390 H   0  0  0  0  0  0  0  0  0  0  0  0
  1  2  1  0
  2  3  1  0
  3  4  2  0
  4  5  1  0
  5  6  1  0
  6  7  1  0
  7  8  2  0
  7  9  1  0
  9 10  2  0
 10 11  1  0
 11 12  2  0
 11 13  1  0
 13 14  1  0
 14 15  2  0
 14 16  1  0
  4 17  1  0
 17 18  2  0
 18  2  1  0
 16  9  1  0
  1 19  1  0
  1 20  1  0
  1 21  1  0
  3 22  1  0
  5 23  1  0
  5 24  1  0
 10 25  1  0
 17 26  1  0
 18 27  1  0
M  CHG  4   6  -1  13  -1  16  -1  18   1
M  END
>  <UniqueID>  (62) 
59

>  <SMILES>  (62) 
Cn1cc(C[N-]C(=O)c2cc(=O)[n-]c(=O)[n-]2)c[nH+]1

>  <Energy>  (62) 
54.82062987133896

>  <Genealogy>  (62) 
Cn1cc(C[N-]C(=O)c2cc(=O)[n-]c(=O)[n-]2)c[nH+]1 (protonated)
Cn1cc(C[N-]C(=O)c2cc(=O)[n-]c(=O)[n-]2)c[nH+]1 (3D coordinates assigned)
Cn1cc(C[N-]C(=O)c2cc(=O)[n-]c(=O)[n-]2)c[nH+]1 (optimized conformer: 54.82062987133896 kcal/mol)

>  <smiles>  (62) 
Cn1cc(CNC(=O)c2cc(=O)[nH]c(=O)[nH]2)cn1

>  <score_type>  (62) 
oracle

>  <origin>  (62) 
adg

>  <m_score__min__energy>  (62) 
-10.58

>  <m_primary>  (62) 
energy

$$$$
62:0
     RDKit          3D

 58 61  0  0  0  0  0  0  0  0999 V2000
   65.1850   33.4440   50.4650 C   0  0  0  0  0  0  0  0  0  0  0  0
   64.7920   32.4550   49.3690 C   0  0  0  0  0  0  0  0  0  0  0  0
   63.4500   32.7780   48.8390 N   0  0  0  0  0  0  0  0  0  0  0  0
   63.5140   33.2200   47.4330 C   0  0  0  0  0  0  0  0  0  0  0  0
   62.0990   33.2180   46.8450 C   0  0  0  0  0  0  0  0  0  0  0  0
   61.1180   33.6590   47.8490 N   0  0  0  0  0  0  0  0  0  0  0  0
   59.7620   33.1710   47.8120 C   0  0  0  0  0  0  0  0  0  0  0  0
   59.1610   32.9240   48.8930 O   0  0  0  0  0  0  0  0  0  0  0  0
   59.0620   32.9260   46.5320 C   0  0  0  0  0  0  0  0  0  0  0  0
   59.2110   33.8280   45.4650 C   0  0  0  0  0  0  0  0  0  0  0  0
   58.5510   33.6020   44.2550 C   0  0  0  0  0  0  0  0  0  0  0  0
   57.7360   32.4790   44.0990 C   0  0  0  0  0  0  0  0  0  0  0  0
   57.5710   31.5740   45.1600 C   0  0  0  0  0  0  0  0  0  0  0  0
   56.7010   30.4400   45.0480 N   0  0  0  0  0  0  0  0  0  0  0  0
   57.1600   29.0870   45.0040 C   0  0  0  0  0  0  0  0  0  0  0  0
   57.5050   28.5850   43.9010 O   0  0  0  0  0  0  0  0  0  0  0  0
   57.3340   28.2970   46.2720 C   0  0  0  0  0  0  0  0  0  0  0  0
   57.2010   26.8630   46.0180 N   0  0  0  0  0  0  0  0  0  0  0  0
   58.1990   26.0020   45.7210 C   0  0  0  0  0  0  0  0  0  0  0  0
   59.5480   26.3400   45.7150 O   0  0  0  0  0  0  0  0  0  0  0  0
   57.6840   24.7660   45.3890 C   0  0  0  0  0  0  0  0  0  0  0  0
   56.3150   24.8630   45.5160 C   0  0  0  0  0  0  0  0  0  0  0  0
   56.0500   26.1680   45.8800 C   0  0  0  0  0  0  0  0  0  0  0  0
   54.7810   26.7140   46.0420 O   0  0  0  0  0  0  0  0  0  0  0  0
   55.3610   23.7920   45.0860 C   0  0  0  0  0  0  0  0  0  0  0  0
   56.0870   22.4350   44.9980 C   0  0  0  0  0  0  0  0  0  0  0  0
   57.4350   22.5580   44.2550 C   0  0  0  0  0  0  0  0  0  0  0  0
   58.4020   23.5170   44.9770 C   0  0  0  0  0  0  0  0  0  0  0  0
   58.2610   31.7850   46.3600 C   0  0  0  0  0  0  0  0  0  0  0  0
   61.5870   34.4740   48.9770 C   0  0  0  0  0  0  0  0  0  0  0  0
   62.7840   33.8000   49.6820 C   0  0  0  0  0  0  0  0  0  0  0  0
   65.0046   32.9899   51.4505 H   0  0  0  0  0  0  0  0  0  0  0  0
   66.2514   33.6954   50.3668 H   0  0  0  0  0  0  0  0  0  0  0  0
   64.5820   34.3588   50.3668 H   0  0  0  0  0  0  0  0  0  0  0  0
   65.5267   32.5088   48.5521 H   0  0  0  0  0  0  0  0  0  0  0  0
   64.7726   31.4408   49.7944 H   0  0  0  0  0  0  0  0  0  0  0  0
   63.9322   34.2363   47.3845 H   0  0  0  0  0  0  0  0  0  0  0  0
   64.1567   32.5375   46.8576 H   0  0  0  0  0  0  0  0  0  0  0  0
   62.0652   33.9005   45.9830 H   0  0  0  0  0  0  0  0  0  0  0  0
   61.8479   32.1941   46.5311 H   0  0  0  0  0  0  0  0  0  0  0  0
   59.8499   34.7156   45.5831 H   0  0  0  0  0  0  0  0  0  0  0  0
   58.6736   34.3106   43.4227 H   0  0  0  0  0  0  0  0  0  0  0  0
   57.2219   32.3028   43.1426 H   0  0  0  0  0  0  0  0  0  0  0  0
   58.3328   28.4978   46.6868 H   0  0  0  0  0  0  0  0  0  0  0  0
   56.5529   28.6008   46.9844 H   0  0  0  0  0  0  0  0  0  0  0  0
   54.5428   23.7194   45.8176 H   0  0  0  0  0  0  0  0  0  0  0  0
   54.9578   24.0478   44.0950 H   0  0  0  0  0  0  0  0  0  0  0  0
   56.2734   22.0633   46.0164 H   0  0  0  0  0  0  0  0  0  0  0  0
   55.4471   21.7385   44.4363 H   0  0  0  0  0  0  0  0  0  0  0  0
   57.8999   21.5629   44.1941 H   0  0  0  0  0  0  0  0  0  0  0  0
   57.2365   22.9641   43.2522 H   0  0  0  0  0  0  0  0  0  0  0  0
   58.8068   23.0195   45.8707 H   0  0  0  0  0  0  0  0  0  0  0  0
   59.2199   23.7838   44.2915 H   0  0  0  0  0  0  0  0  0  0  0  0
   58.1751   31.0511   47.1748 H   0  0  0  0  0  0  0  0  0  0  0  0
   61.8977   35.4610   48.6038 H   0  0  0  0  0  0  0  0  0  0  0  0
   60.7656   34.5788   49.7010 H   0  0  0  0  0  0  0  0  0  0  0  0
   63.5203   34.5750   49.9413 H   0  0  0  0  0  0  0  0  0  0  0  0
   62.3956   33.2888   50.5752 H   0  0  0  0  0  0  0  0  0  0  0  0
  1  2  1  0
  2  3  1  0
  3  4  1  0
  4  5  1  0
  5  6  1  0
  6  7  1  0
  7  8  2  0
  7  9  1  0
  9 10  2  0
 10 11  1  0
 11 12  2  0
 12 13  1  0
 13 14  1  0
 14 15  1  0
 15 16  2  0
 15 17  1  0
 17 18  1  0
 18 19  1  0
 19 20  1  0
 19 21  2  0
 21 22  1  0
 22 23  2  0
 23 24  1  0
 22 25  1  0
 25 26  1  0
 26 27  1  0
 27 28  1  0
 13 29  2  0
  6 30  1  0
 30 31  1  0
 31  3  1  0
 29  9  1  0
 23 18  1  0
 28 21  1  0
  1 32  1  0
  1 33  1  0
  1 34  1  0
  2 35  1  0
  2 36  1  0
  4 37  1  0
  4 38  1  0
  5 39  1  0
  5 40  1  0
 10 41  1  0
 11 42  1  0
 12 43  1  0
 17 44  1  0
 17 45  1  0
 25 46  1  0
 25 47  1  0
 26 48  1  0
 26 49  1  0
 27 50  1  0
 27 51  1  0
 28 52  1  0
 28 53  1  0
 29 54  1  0
 30 55  1  0
 30 56  1  0
 31 57  1  0
 31 58  1  0
M  CHG  3  14  -1  20  -1  24  -1
M  END
>  <UniqueID>  (63) 
60

>  <SMILES>  (63) 
CCN1CCN(C(=O)c2cccc([N-]C(=O)Cn3c([O-])c4c(c3[O-])CCCC4)c2)CC1

>  <Energy>  (63) 
100.68459032653442

>  <Genealogy>  (63) 
CCN1CCN(C(=O)c2cccc([N-]C(=O)Cn3c([O-])c4c(c3[O-])CCCC4)c2)CC1 (protonated)
CCN1CCN(C(=O)c2cccc([N-]C(=O)Cn3c([O-])c4c(c3[O-])CCCC4)c2)CC1 (3D coordinates assigned)
CCN1CCN(C(=O)c2cccc([N-]C(=O)Cn3c([O-])c4c(c3[O-])CCCC4)c2)CC1 (nonaromatic ring conformer: 100.68459032653442 kcal/mol)

>  <smiles>  (63) 
CCN1CCN(C(=O)c2cccc(NC(=O)Cn3c(O)c4c(c3O)CCCC4)c2)CC1

>  <score_type>  (63) 
oracle

>  <origin>  (63) 
adg

>  <m_score__min__energy>  (63) 
-15.69

>  <m_primary>  (63) 
energy

$$$$
63:0
     RDKit          3D

 58 60  0  0  0  0  0  0  0  0999 V2000
   58.4340   30.1010   48.1570 O   0  0  0  0  0  0  0  0  0  0  0  0
   59.5610   29.7990   48.6350 C   0  0  0  0  0  0  0  0  0  0  0  0
   60.0490   30.4750   49.8790 C   0  0  0  0  0  0  0  0  0  0  0  0
   59.2220   31.7230   50.2310 C   0  0  0  0  0  0  0  0  0  0  0  0
   60.0410   33.0300   50.3250 C   0  0  0  0  0  0  0  0  0  0  0  0
   61.5540   32.8300   50.5370 C   0  0  0  0  0  0  0  0  0  0  0  0
   62.4440   33.7310   49.6700 C   0  0  0  0  0  0  0  0  0  0  0  0
   63.3390   32.9130   48.8110 N   0  0  0  0  0  0  0  0  0  0  0  0
   63.7370   33.6090   47.5680 C   0  0  0  0  0  0  0  0  0  0  0  0
   62.5320   33.8370   46.6360 C   0  0  0  0  0  0  0  0  0  0  0  0
   61.5620   32.7470   46.7760 N   0  0  0  0  0  0  0  0  0  0  0  0
   60.1720   32.9600   46.4560 C   0  0  0  0  0  0  0  0  0  0  0  0
   59.5990   34.2370   46.5900 C   0  0  0  0  0  0  0  0  0  0  0  0
   58.2460   34.4400   46.2910 C   0  0  0  0  0  0  0  0  0  0  0  0
   57.4520   33.3720   45.8640 C   0  0  0  0  0  0  0  0  0  0  0  0
   58.0090   32.0960   45.7390 C   0  0  0  0  0  0  0  0  0  0  0  0
   59.3610   31.8880   46.0360 C   0  0  0  0  0  0  0  0  0  0  0  0
   62.0520   31.4330   47.2050 C   0  0  0  0  0  0  0  0  0  0  0  0
   62.8100   31.5490   48.5420 C   0  0  0  0  0  0  0  0  0  0  0  0
   60.3820   28.8100   47.9950 N   0  0  0  0  0  0  0  0  0  0  0  0
   60.2050   28.3880   46.6100 C   0  0  0  0  0  0  0  0  0  0  0  0
   58.8080   27.8700   46.3940 C   0  0  0  0  0  0  0  0  0  0  0  0
   58.4290   26.6300   46.9310 C   0  0  0  0  0  0  0  0  0  0  0  0
   57.1250   26.1570   46.7630 C   0  0  0  0  0  0  0  0  0  0  0  0
   56.1860   26.9180   46.0580 C   0  0  0  0  0  0  0  0  0  0  0  0
   54.8910   26.4330   45.8960 O   0  0  0  0  0  0  0  0  0  0  0  0
   56.5560   28.1640   45.5190 C   0  0  0  0  0  0  0  0  0  0  0  0
   55.6400   28.9480   44.8190 O   0  0  0  0  0  0  0  0  0  0  0  0
   57.8630   28.6330   45.6860 C   0  0  0  0  0  0  0  0  0  0  0  0
   59.9875   29.7630   50.7153 H   0  0  0  0  0  0  0  0  0  0  0  0
   61.0851   30.7986   49.7005 H   0  0  0  0  0  0  0  0  0  0  0  0
   58.4526   31.8549   49.4560 H   0  0  0  0  0  0  0  0  0  0  0  0
   58.7999   31.5462   51.2313 H   0  0  0  0  0  0  0  0  0  0  0  0
   59.8977   33.5917   49.3902 H   0  0  0  0  0  0  0  0  0  0  0  0
   59.6716   33.5640   51.2129 H   0  0  0  0  0  0  0  0  0  0  0  0
   61.7828   33.0354   51.5931 H   0  0  0  0  0  0  0  0  0  0  0  0
   61.7765   31.7940   50.2416 H   0  0  0  0  0  0  0  0  0  0  0  0
   61.8073   34.3611   49.0316 H   0  0  0  0  0  0  0  0  0  0  0  0
   63.0620   34.3582   50.3293 H   0  0  0  0  0  0  0  0  0  0  0  0
   64.1759   34.5833   47.8291 H   0  0  0  0  0  0  0  0  0  0  0  0
   64.4671   32.9788   47.0391 H   0  0  0  0  0  0  0  0  0  0  0  0
   62.0471   34.7891   46.8975 H   0  0  0  0  0  0  0  0  0  0  0  0
   62.8873   33.8660   45.5954 H   0  0  0  0  0  0  0  0  0  0  0  0
   60.2166   35.0808   46.9314 H   0  0  0  0  0  0  0  0  0  0  0  0
   57.8067   35.4433   46.3926 H   0  0  0  0  0  0  0  0  0  0  0  0
   56.3904   33.5353   45.6267 H   0  0  0  0  0  0  0  0  0  0  0  0
   57.3839   31.2541   45.4067 H   0  0  0  0  0  0  0  0  0  0  0  0
   59.7928   30.8808   45.9407 H   0  0  0  0  0  0  0  0  0  0  0  0
   61.1976   30.7518   47.3313 H   0  0  0  0  0  0  0  0  0  0  0  0
   62.7389   31.0425   46.4397 H   0  0  0  0  0  0  0  0  0  0  0  0
   62.1226   31.2759   49.3562 H   0  0  0  0  0  0  0  0  0  0  0  0
   63.6761   30.8736   48.4811 H   0  0  0  0  0  0  0  0  0  0  0  0
   60.3805   29.2460   45.9444 H   0  0  0  0  0  0  0  0  0  0  0  0
   60.9222   27.5842   46.3873 H   0  0  0  0  0  0  0  0  0  0  0  0
   59.1623   26.0274   47.4870 H   0  0  0  0  0  0  0  0  0  0  0  0
   56.8358   25.1837   47.1861 H   0  0  0  0  0  0  0  0  0  0  0  0
   54.7500   28.5780   44.5010 H   0  0  0  0  0  0  0  0  0  0  0  0
   58.1534   29.6050   45.2607 H   0  0  0  0  0  0  0  0  0  0  0  0
  1  2  2  0
  2  3  1  0
  3  4  1  0
  4  5  1  0
  5  6  1  0
  6  7  1  0
  7  8  1  0
  8  9  1  0
  9 10  1  0
 10 11  1  0
 11 12  1  0
 12 13  2  0
 13 14  1  0
 14 15  2  0
 15 16  1  0
 16 17  2  0
 11 18  1  0
 18 19  1  0
  2 20  1  0
 20 21  1  0
 21 22  1  0
 22 23  2  0
 23 24  1  0
 24 25  2  0
 25 26  1  0
 25 27  1  0
 27 28  1  0
 27 29  2  0
 19  8  1  0
 29 22  1  0
 17 12  1  0
  3 30  1  0
  3 31  1  0
  4 32  1  0
  4 33  1  0
  5 34  1  0
  5 35  1  0
  6 36  1  0
  6 37  1  0
  7 38  1  0
  7 39  1  0
  9 40  1  0
  9 41  1  0
 10 42  1  0
 10 43  1  0
 13 44  1  0
 14 45  1  0
 15 46  1  0
 16 47  1  0
 17 48  1  0
 18 49  1  0
 18 50  1  0
 19 51  1  0
 19 52  1  0
 21 53  1  0
 21 54  1  0
 23 55  1  0
 24 56  1  0
 28 57  1  0
 29 58  1  0
M  CHG  2  20  -1  26  -1
M  END
>  <UniqueID>  (64) 
61

>  <SMILES>  (64) 
O=C(CCCCCN1CCN(c2ccccc2)CC1)[N-]Cc1ccc([O-])c(O)c1

>  <Energy>  (64) 
64.66941116683549

>  <Genealogy>  (64) 
O=C(CCCCCN1CCN(c2ccccc2)CC1)[N-]Cc1ccc([O-])c(O)c1 (protonated)
O=C(CCCCCN1CCN(c2ccccc2)CC1)[N-]Cc1ccc([O-])c(O)c1 (3D coordinates assigned)
O=C(CCCCCN1CCN(c2ccccc2)CC1)[N-]Cc1ccc([O-])c(O)c1 (nonaromatic ring conformer: 64.66941116683549 kcal/mol)

>  <smiles>  (64) 
O=C(CCCCCN1CCN(c2ccccc2)CC1)NCc1ccc(O)c(O)c1

>  <score_type>  (64) 
oracle

>  <origin>  (64) 
adg

>  <m_score__min__energy>  (64) 
-14.130000000000001

>  <m_primary>  (64) 
energy

$$$$
64:0
     RDKit          3D

 50 53  0  0  0  0  0  0  0  0999 V2000
   53.3098   28.0124   53.2234 H   0  0  0  0  0  0  0  0  0  0  0  0
   54.3760   28.2830   53.2270 C   0  0  0  0  0  0  0  0  0  0  0  0
   55.1232   27.5696   53.6047 H   0  0  0  0  0  0  0  0  0  0  0  0
   54.7640   29.4800   52.7720 C   0  0  0  0  0  0  0  0  0  0  0  0
   53.9520   30.5110   52.2860 C   0  0  0  0  0  0  0  0  0  0  0  0
   52.6100   30.4860   52.1490 C   0  0  0  0  0  0  0  0  0  0  0  0
   52.0185   30.1919   53.0286 H   0  0  0  0  0  0  0  0  0  0  0  0
   51.8690   30.8210   50.9150 C   0  0  0  0  0  0  0  0  0  0  0  0
   51.8210   30.0750   49.7960 N   0  0  0  0  0  0  0  0  0  0  0  0
   51.0840   30.8240   48.9480 C   0  0  0  0  0  0  0  0  0  0  0  0
   50.8090   30.4510   47.7780 O   0  0  0  0  0  0  0  0  0  0  0  0
   50.6680   32.0060   49.4530 N   0  0  0  0  0  0  0  0  0  0  0  0
   51.1780   31.9890   50.6950 C   0  0  0  0  0  0  0  0  0  0  0  0
   51.0160   33.0230   51.6080 O   0  0  0  0  0  0  0  0  0  0  0  0
   54.8170   31.5530   51.9670 C   0  0  0  0  0  0  0  0  0  0  0  0
   54.5386   32.5377   51.5634 H   0  0  0  0  0  0  0  0  0  0  0  0
   56.0950   31.1100   52.2560 C   0  0  0  0  0  0  0  0  0  0  0  0
   57.3190   31.9190   52.1080 C   0  0  0  0  0  0  0  0  0  0  0  0
   57.2570   33.1580   52.3200 O   0  0  0  0  0  0  0  0  0  0  0  0
   58.5690   31.3570   51.6880 N   0  0  0  0  0  0  0  0  0  0  0  0
   58.7250   30.3070   50.6890 C   0  0  0  0  0  0  0  0  0  0  0  0
   59.6865   29.7949   50.8416 H   0  0  0  0  0  0  0  0  0  0  0  0
   57.9048   29.5807   50.7874 H   0  0  0  0  0  0  0  0  0  0  0  0
   58.6940   30.9170   49.3170 C   0  0  0  0  0  0  0  0  0  0  0  0
   58.8800   32.2980   49.1560 C   0  0  0  0  0  0  0  0  0  0  0  0
   59.0313   32.9364   50.0389 H   0  0  0  0  0  0  0  0  0  0  0  0
   58.8740   32.8670   47.8790 C   0  0  0  0  0  0  0  0  0  0  0  0
   59.0246   33.9504   47.7622 H   0  0  0  0  0  0  0  0  0  0  0  0
   58.6770   32.0640   46.7460 C   0  0  0  0  0  0  0  0  0  0  0  0
   58.6790   32.6740   45.4020 C   0  0  0  0  0  0  0  0  0  0  0  0
   59.1490   33.8360   45.2650 O   0  0  0  0  0  0  0  0  0  0  0  0
   58.1320   31.9900   44.2570 N   0  0  0  0  0  0  0  0  0  0  0  0
   58.3050   32.4810   42.8990 C   0  0  0  0  0  0  0  0  0  0  0  0
   58.1360   33.5673   42.8605 H   0  0  0  0  0  0  0  0  0  0  0  0
   59.3249   32.2973   42.5301 H   0  0  0  0  0  0  0  0  0  0  0  0
   57.2660   31.7530   42.0560 C   0  0  0  0  0  0  0  0  0  0  0  0
   56.4333   32.4285   41.8102 H   0  0  0  0  0  0  0  0  0  0  0  0
   57.6956   31.4016   41.1063 H   0  0  0  0  0  0  0  0  0  0  0  0
   56.7680   30.5870   42.9060 C   0  0  0  0  0  0  0  0  0  0  0  0
   55.6746   30.4969   42.8261 H   0  0  0  0  0  0  0  0  0  0  0  0
   57.2022   29.6335   42.5709 H   0  0  0  0  0  0  0  0  0  0  0  0
   57.1680   30.9040   44.3420 C   0  0  0  0  0  0  0  0  0  0  0  0
   56.2887   31.2176   44.9237 H   0  0  0  0  0  0  0  0  0  0  0  0
   57.5944   30.0241   44.8460 H   0  0  0  0  0  0  0  0  0  0  0  0
   58.5320   30.6770   46.9050 C   0  0  0  0  0  0  0  0  0  0  0  0
   58.4090   30.0352   46.0202 H   0  0  0  0  0  0  0  0  0  0  0  0
   58.5430   30.1060   48.1820 C   0  0  0  0  0  0  0  0  0  0  0  0
   58.4329   29.0176   48.2967 H   0  0  0  0  0  0  0  0  0  0  0  0
   56.0580   29.8600   52.7550 N   0  0  0  0  0  0  0  0  0  0  0  0
   56.8670   29.3090   53.1230 H   0  0  0  0  0  0  0  0  0  0  0  0
  1  2  1  0
  2  3  1  0
  2  4  2  0
  4  5  1  0
  5  6  2  0
  6  7  1  0
  6  8  1  0
  8  9  1  0
  9 10  1  0
 10 11  2  0
 10 12  1  0
 12 13  1  0
 13 14  1  0
  5 15  1  0
 15 16  1  0
 15 17  2  0
 17 18  1  0
 18 19  2  0
 18 20  1  0
 20 21  1  0
 21 22  1  0
 21 23  1  0
 21 24  1  0
 24 25  2  0
 25 26  1  0
 25 27  1  0
 27 28  1  0
 27 29  2  0
 29 30  1  0
 30 31  2  0
 30 32  1  0
 32 33  1  0
 33 34  1  0
 33 35  1  0
 33 36  1  0
 36 37  1  0
 36 38  1  0
 36 39  1  0
 39 40  1  0
 39 41  1  0
 39 42  1  0
 42 43  1  0
 42 44  1  0
 29 45  1  0
 45 46  1  0
 45 47  2  0
 47 48  1  0
 17 49  1  0
 49 50  1  0
 49  4  1  0
 13  8  2  0
 47 24  1  0
 42 32  1  0
M  CHG  4   9  -1  12  -1  14  -1  20  -1
M  END
>  <UniqueID>  (65) 
62

>  <SMILES>  (65) 
C=c1[nH]c(C(=O)[N-]Cc2ccc(C(=O)N3CCCC3)cc2)c/c1=C\c1[n-]c(=O)[n-]c1[O-]

>  <Energy>  (65) 
120.10814387961159

>  <Genealogy>  (65) 
C=c1[nH]c(C(=O)[N-]Cc2ccc(C(=O)N3CCCC3)cc2)cc1=Cc1[n-]c(=O)[n-]c1[O-] (protonated)
C=c1[nH]c(C(=O)[N-]Cc2ccc(C(=O)N3CCCC3)cc2)c/c1=C\c1[n-]c(=O)[n-]c1[O-] (cis-trans isomerization)
C=c1[nH]c(C(=O)[N-]Cc2ccc(C(=O)N3CCCC3)cc2)c/c1=C\c1[n-]c(=O)[n-]c1[O-] (3D coordinates assigned)
C=c1[nH]c(C(=O)[N-]Cc2ccc(C(=O)N3CCCC3)cc2)c/c1=C\c1[n-]c(=O)[n-]c1[O-] (nonaromatic ring conformer: 120.10814387961159 kcal/mol)

>  <smiles>  (65) 
C=c1[nH]c(C(=O)NCc2ccc(C(=O)N3CCCC3)cc2)cc1=Cc1[nH]c(=O)[nH]c1O

>  <score_type>  (65) 
oracle

>  <origin>  (65) 
adg

>  <m_score__min__energy>  (65) 
-19.02

>  <m_primary>  (65) 
energy

$$$$
65:0
     RDKit          3D

 79 82  0  0  0  0  0  0  0  0999 V2000
   64.6080   35.3720   52.4600 C   0  0  0  0  0  0  0  0  0  0  0  0
   65.2570   34.2790   52.8630 C   0  0  0  0  0  0  0  0  0  0  0  0
   64.7410   32.8920   52.5600 C   0  0  0  0  0  0  0  0  0  0  0  0
   65.7840   32.0340   51.9600 N   0  0  2  0  0  0  0  0  0  0  0  0
   66.1720   32.5370   50.6540 C   0  0  0  0  0  0  0  0  0  0  0  0
   67.2640   32.2580   50.1780 O   0  0  0  0  0  0  0  0  0  0  0  0
   65.1910   33.3210   49.8130 C   0  0  0  0  0  0  0  0  0  0  0  0
   64.2580   32.4200   48.9940 C   0  0  0  0  0  0  0  0  0  0  0  0
   62.8940   33.0330   48.8180 C   0  0  0  0  0  0  0  0  0  0  0  0
   62.3550   33.6000   47.6570 C   0  0  0  0  0  0  0  0  0  0  0  0
   63.0990   33.8350   46.3710 C   0  0  0  0  0  0  0  0  0  0  0  0
   61.0800   34.0190   47.8850 N   0  0  0  0  0  0  0  0  0  0  0  0
   60.2140   34.7390   46.9400 C   0  0  0  0  0  0  0  0  0  0  0  0
   59.3000   33.7770   46.2260 C   0  0  0  0  0  0  0  0  0  0  0  0
   58.6030   32.7880   46.9390 C   0  0  0  0  0  0  0  0  0  0  0  0
   57.7760   31.8840   46.2670 C   0  0  0  0  0  0  0  0  0  0  0  0
   57.6240   31.9600   44.8720 C   0  0  0  0  0  0  0  0  0  0  0  0
   56.7770   30.9790   44.1590 C   0  0  0  0  0  0  0  0  0  0  0  0
   56.6430   31.0700   42.9100 O   0  0  0  0  0  0  0  0  0  0  0  0
   56.0480   29.9620   44.8570 N   0  0  0  0  0  0  0  0  0  0  0  0
   56.5980   28.6630   45.2390 C   0  0  0  0  0  0  0  0  0  0  0  0
   58.0730   28.5720   44.8460 C   0  0  0  0  0  0  0  0  0  0  0  0
   58.9730   29.0430   45.9600 C   0  0  0  0  0  0  0  0  0  0  0  0
   60.2040   29.6530   45.6660 C   0  0  0  0  0  0  0  0  0  0  0  0
   61.0200   30.1190   46.6980 C   0  0  0  0  0  0  0  0  0  0  0  0
   60.6140   29.9870   48.0280 C   0  0  0  0  0  0  0  0  0  0  0  0
   59.3850   29.3950   48.3400 C   0  0  0  0  0  0  0  0  0  0  0  0
   59.0190   29.2960   49.6910 O   0  0  0  0  0  0  0  0  0  0  0  0
   58.5740   30.3910   50.4860 C   0  0  0  0  0  0  0  0  0  0  0  0
   58.5620   28.9250   47.2980 C   0  0  0  0  0  0  0  0  0  0  0  0
   58.3380   32.9360   44.1600 C   0  0  0  0  0  0  0  0  0  0  0  0
   59.1580   33.8440   44.8320 C   0  0  0  0  0  0  0  0  0  0  0  0
   60.8150   33.7260   49.1790 C   0  0  0  0  0  0  0  0  0  0  0  0
   59.6420   33.9750   49.9010 C   0  0  0  0  0  0  0  0  0  0  0  0
   59.6040   33.6010   51.2560 C   0  0  0  0  0  0  0  0  0  0  0  0
   60.7190   32.9870   51.8600 C   0  0  0  0  0  0  0  0  0  0  0  0
   60.6670   32.6330   53.1690 F   0  0  0  0  0  0  0  0  0  0  0  0
   61.8860   32.7440   51.1170 C   0  0  0  0  0  0  0  0  0  0  0  0
   61.8990   33.1260   49.7730 C   0  0  0  0  0  0  0  0  0  0  0  0
   65.2160   30.3790   51.8720 S   0  0  0  0  0  0  0  0  0  0  0  0
   64.8340   29.7140   53.4860 C   0  0  0  0  0  0  0  0  0  0  0  0
   63.9860   30.3000   51.0120 O   0  0  0  0  0  0  0  0  0  0  0  0
   66.2880   29.5250   51.2540 O   0  0  0  0  0  0  0  0  0  0  0  0
   65.0094   36.3685   52.6963 H   0  0  0  0  0  0  0  0  0  0  0  0
   63.6713   35.2771   51.8912 H   0  0  0  0  0  0  0  0  0  0  0  0
   66.1925   34.3903   53.4309 H   0  0  0  0  0  0  0  0  0  0  0  0
   64.3950   32.4291   53.4960 H   0  0  0  0  0  0  0  0  0  0  0  0
   63.9185   32.9854   51.8356 H   0  0  0  0  0  0  0  0  0  0  0  0
   66.6250   32.0160   52.5820 H   0  0  0  0  0  0  0  0  0  0  0  0
   64.5794   33.9476   50.4788 H   0  0  0  0  0  0  0  0  0  0  0  0
   65.7732   33.9273   49.1035 H   0  0  0  0  0  0  0  0  0  0  0  0
   64.7040   32.2550   48.0021 H   0  0  0  0  0  0  0  0  0  0  0  0
   64.1370   31.4718   49.5382 H   0  0  0  0  0  0  0  0  0  0  0  0
   64.1258   34.1593   46.5955 H   0  0  0  0  0  0  0  0  0  0  0  0
   63.1281   32.9023   45.7885 H   0  0  0  0  0  0  0  0  0  0  0  0
   62.5871   34.6152   45.7885 H   0  0  0  0  0  0  0  0  0  0  0  0
   59.6080   35.4732   47.4911 H   0  0  0  0  0  0  0  0  0  0  0  0
   60.8443   35.2498   46.1971 H   0  0  0  0  0  0  0  0  0  0  0  0
   58.7086   32.7246   48.0321 H   0  0  0  0  0  0  0  0  0  0  0  0
   57.2406   31.1079   46.8336 H   0  0  0  0  0  0  0  0  0  0  0  0
   56.5045   28.5358   46.3276 H   0  0  0  0  0  0  0  0  0  0  0  0
   56.0402   27.8718   44.7166 H   0  0  0  0  0  0  0  0  0  0  0  0
   58.3156   27.5256   44.6090 H   0  0  0  0  0  0  0  0  0  0  0  0
   58.2375   29.2203   43.9727 H   0  0  0  0  0  0  0  0  0  0  0  0
   60.5255   29.7636   44.6199 H   0  0  0  0  0  0  0  0  0  0  0  0
   61.9853   30.5914   46.4634 H   0  0  0  0  0  0  0  0  0  0  0  0
   61.2653   30.3512   48.8362 H   0  0  0  0  0  0  0  0  0  0  0  0
   58.6774   30.1366   51.5512 H   0  0  0  0  0  0  0  0  0  0  0  0
   59.1826   31.2791   50.2604 H   0  0  0  0  0  0  0  0  0  0  0  0
   57.5184   30.6028   50.2604 H   0  0  0  0  0  0  0  0  0  0  0  0
   57.5919   28.4629   47.5334 H   0  0  0  0  0  0  0  0  0  0  0  0
   58.2509   32.9859   43.0646 H   0  0  0  0  0  0  0  0  0  0  0  0
   59.6965   34.6174   44.2646 H   0  0  0  0  0  0  0  0  0  0  0  0
   58.7736   34.4503   49.4215 H   0  0  0  0  0  0  0  0  0  0  0  0
   58.6968   33.7893   51.8489 H   0  0  0  0  0  0  0  0  0  0  0  0
   62.7631   32.2674   51.5792 H   0  0  0  0  0  0  0  0  0  0  0  0
   65.2222   30.3898   54.2623 H   0  0  0  0  0  0  0  0  0  0  0  0
   63.7435   29.6188   53.5946 H   0  0  0  0  0  0  0  0  0  0  0  0
   65.3011   28.7241   53.5946 H   0  0  0  0  0  0  0  0  0  0  0  0
  1  2  2  0
  2  3  1  0
  3  4  1  0
  4  5  1  0
  5  6  2  0
  5  7  1  0
  7  8  1  0
  8  9  1  0
  9 10  2  0
 10 11  1  0
 10 12  1  0
 12 13  1  0
 13 14  1  0
 14 15  2  0
 15 16  1  0
 16 17  2  0
 17 18  1  0
 18 19  2  0
 18 20  1  0
 20 21  1  0
 21 22  1  0
 22 23  1  0
 23 24  2  0
 24 25  1  0
 25 26  2  0
 26 27  1  0
 27 28  1  0
 28 29  1  0
 27 30  2  0
 17 31  1  0
 31 32  2  0
 12 33  1  0
 33 34  2  0
 34 35  1  0
 35 36  2  0
 36 37  1  0
 36 38  1  0
 38 39  2  0
  4 40  1  0
 40 41  1  0
 40 42  2  0
 40 43  2  0
 39  9  1  0
 32 14  1  0
 39 33  1  0
 30 23  1  0
  1 44  1  0
  1 45  1  0
  2 46  1  0
  3 47  1  0
  3 48  1  0
  4 49  1  1
  7 50  1  0
  7 51  1  0
  8 52  1  0
  8 53  1  0
 11 54  1  0
 11 55  1  0
 11 56  1  0
 13 57  1  0
 13 58  1  0
 15 59  1  0
 16 60  1  0
 21 61  1  0
 21 62  1  0
 22 63  1  0
 22 64  1  0
 24 65  1  0
 25 66  1  0
 26 67  1  0
 29 68  1  0
 29 69  1  0
 29 70  1  0
 30 71  1  0
 31 72  1  0
 32 73  1  0
 34 74  1  0
 35 75  1  0
 38 76  1  0
 41 77  1  0
 41 78  1  0
 41 79  1  0
M  CHG  2   4   1  20  -1
M  END
>  <UniqueID>  (66) 
63

>  <SMILES>  (66) 
C=CC[N@H+](C(=O)CCc1c(C)n(Cc2ccc(C(=O)[N-]CCc3cccc(OC)c3)cc2)c2ccc(F)cc12)S(C)(=O)=O

>  <Energy>  (66) 
105.59350736400711

>  <Genealogy>  (66) 
C=CC[NH+](C(=O)CCc1c(C)n(Cc2ccc(C(=O)[N-]CCc3cccc(OC)c3)cc2)c2ccc(F)cc12)S(C)(=O)=O (protonated)
C=CC[N@H+](C(=O)CCc1c(C)n(Cc2ccc(C(=O)[N-]CCc3cccc(OC)c3)cc2)c2ccc(F)cc12)S(C)(=O)=O (chirality)
C=CC[N@H+](C(=O)CCc1c(C)n(Cc2ccc(C(=O)[N-]CCc3cccc(OC)c3)cc2)c2ccc(F)cc12)S(C)(=O)=O (3D coordinates assigned)
C=CC[N@H+](C(=O)CCc1c(C)n(Cc2ccc(C(=O)[N-]CCc3cccc(OC)c3)cc2)c2ccc(F)cc12)S(C)(=O)=O (optimized conformer: 105.59350736400711 kcal/mol)

>  <smiles>  (66) 
C=CCN(C(=O)CCc1c(C)n(Cc2ccc(C(=O)NCCc3cccc(OC)c3)cc2)c2ccc(F)cc12)S(C)(=O)=O

>  <score_type>  (66) 
oracle

>  <origin>  (66) 
adg

>  <m_score__min__energy>  (66) 
-11.119999999999999

>  <m_primary>  (66) 
energy

$$$$
66:0
     RDKit          3D

 63 66  0  0  0  0  0  0  0  0999 V2000
   55.1480   27.5450   45.4450 H   0  0  0  0  0  0  0  0  0  0  0  0
   54.9810   26.7060   45.9890 O   0  0  0  0  0  0  0  0  0  0  0  0
   56.0350   25.8670   46.3380 C   0  0  0  0  0  0  0  0  0  0  0  0
   55.9950   25.0040   47.3670 N   0  0  0  0  0  0  0  0  0  0  0  0
   57.2330   24.4650   47.3460 C   0  0  0  0  0  0  0  0  0  0  0  0
   57.6120   23.6060   48.1850 O   0  0  0  0  0  0  0  0  0  0  0  0
   58.0440   24.9360   46.3740 N   0  0  0  0  0  0  0  0  0  0  0  0
   57.2620   25.8090   45.7150 C   0  0  0  0  0  0  0  0  0  0  0  0
   57.7640   26.7160   44.6740 C   0  0  0  0  0  0  0  0  0  0  0  0
   57.9987   26.2724   43.6952 H   0  0  0  0  0  0  0  0  0  0  0  0
   57.9630   28.0410   44.8090 C   0  0  0  0  0  0  0  0  0  0  0  0
   57.7330   28.9400   43.7780 C   0  0  0  0  0  0  0  0  0  0  0  0
   57.3260   28.7056   42.7833 H   0  0  0  0  0  0  0  0  0  0  0  0
   58.1120   30.1840   44.2380 C   0  0  0  0  0  0  0  0  0  0  0  0
   57.9830   31.4620   43.4650 C   0  0  0  0  0  0  0  0  0  0  0  0
   57.8977   32.3066   44.1645 H   0  0  0  0  0  0  0  0  0  0  0  0
   58.8719   31.5988   42.8316 H   0  0  0  0  0  0  0  0  0  0  0  0
   57.0847   31.4184   42.8316 H   0  0  0  0  0  0  0  0  0  0  0  0
   58.5190   30.1010   45.5210 N   0  0  0  0  0  0  0  0  0  0  0  0
   58.9000   31.2220   46.3330 C   0  0  0  0  0  0  0  0  0  0  0  0
   59.6010   31.0260   47.3610 O   0  0  0  0  0  0  0  0  0  0  0  0
   58.4630   32.5500   45.9920 N   0  0  0  0  0  0  0  0  0  0  0  0
   57.0290   32.8590   45.9980 C   0  0  0  0  0  0  0  0  0  0  0  0
   56.6747   32.9353   47.0366 H   0  0  0  0  0  0  0  0  0  0  0  0
   56.8577   33.8147   45.4810 H   0  0  0  0  0  0  0  0  0  0  0  0
   56.4793   32.0587   45.4810 H   0  0  0  0  0  0  0  0  0  0  0  0
   59.4450   33.5930   45.6700 C   0  0  0  0  0  0  0  0  0  0  0  0
   59.9599   33.3271   44.7350 H   0  0  0  0  0  0  0  0  0  0  0  0
   58.9170   34.5514   45.5575 H   0  0  0  0  0  0  0  0  0  0  0  0
   60.4620   33.7290   46.7720 C   0  0  0  0  0  0  0  0  0  0  0  0
   60.0570   34.0460   48.0780 C   0  0  0  0  0  0  0  0  0  0  0  0
   58.9879   34.1697   48.3055 H   0  0  0  0  0  0  0  0  0  0  0  0
   61.0070   34.2050   49.0900 C   0  0  0  0  0  0  0  0  0  0  0  0
   60.6825   34.4684   50.1075 H   0  0  0  0  0  0  0  0  0  0  0  0
   62.3720   34.0310   48.8170 C   0  0  0  0  0  0  0  0  0  0  0  0
   63.3680   34.2010   49.8950 C   0  0  0  0  0  0  0  0  0  0  0  0
   63.3050   35.2300   50.6220 O   0  0  0  0  0  0  0  0  0  0  0  0
   64.3960   33.2200   50.1400 N   0  0  0  0  0  0  0  0  0  0  0  0
   64.1670   31.8010   49.8370 C   0  0  0  0  0  0  0  0  0  0  0  0
   63.0891   31.5870   49.8863 H   0  0  0  0  0  0  0  0  0  0  0  0
   64.5444   31.5812   48.8274 H   0  0  0  0  0  0  0  0  0  0  0  0
   64.9050   30.9250   50.8520 C   0  0  0  0  0  0  0  0  0  0  0  0
   64.5088   31.1326   51.8570 H   0  0  0  0  0  0  0  0  0  0  0  0
   64.7466   29.8720   50.5761 H   0  0  0  0  0  0  0  0  0  0  0  0
   66.3610   31.1900   50.8460 N   0  0  0  0  0  0  0  0  0  0  0  0
   66.9820   30.6530   52.0670 C   0  0  0  0  0  0  0  0  0  0  0  0
   66.4858   31.0821   52.9500 H   0  0  0  0  0  0  0  0  0  0  0  0
   66.8748   29.5583   52.0819 H   0  0  0  0  0  0  0  0  0  0  0  0
   68.0497   30.9171   52.0819 H   0  0  0  0  0  0  0  0  0  0  0  0
   66.7350   32.6140   50.6320 C   0  0  0  0  0  0  0  0  0  0  0  0
   67.5725   32.8585   51.3020 H   0  0  0  0  0  0  0  0  0  0  0  0
   67.0043   32.7218   49.5709 H   0  0  0  0  0  0  0  0  0  0  0  0
   65.5880   33.5970   50.9090 C   0  0  0  0  0  0  0  0  0  0  0  0
   65.3474   33.5806   51.9822 H   0  0  0  0  0  0  0  0  0  0  0  0
   65.9026   34.6073   50.6083 H   0  0  0  0  0  0  0  0  0  0  0  0
   62.7760   33.7190   47.5100 C   0  0  0  0  0  0  0  0  0  0  0  0
   63.8448   33.5903   47.2839 H   0  0  0  0  0  0  0  0  0  0  0  0
   61.8290   33.5710   46.4950 C   0  0  0  0  0  0  0  0  0  0  0  0
   62.1558   33.3293   45.4728 H   0  0  0  0  0  0  0  0  0  0  0  0
   58.4210   28.8040   45.8980 C   0  0  0  0  0  0  0  0  0  0  0  0
   58.6460   28.3860   47.1540 C   0  0  0  0  0  0  0  0  0  0  0  0
   59.0068   29.0953   47.9134 H   0  0  0  0  0  0  0  0  0  0  0  0
   58.4695   27.3342   47.4236 H   0  0  0  0  0  0  0  0  0  0  0  0
  1  2  1  0
  2  3  1  0
  3  4  1  0
  4  5  1  0
  5  6  2  0
  5  7  1  0
  7  8  1  0
  8  9  1  0
  9 10  1  0
  9 11  2  0
 11 12  1  0
 12 13  1  0
 12 14  2  0
 14 15  1  0
 15 16  1  0
 15 17  1  0
 15 18  1  0
 14 19  1  0
 19 20  1  0
 20 21  2  0
 20 22  1  0
 22 23  1  0
 23 24  1  0
 23 25  1  0
 23 26  1  0
 22 27  1  0
 27 28  1  0
 27 29  1  0
 27 30  1  0
 30 31  2  0
 31 32  1  0
 31 33  1  0
 33 34  1  0
 33 35  2  0
 35 36  1  0
 36 37  2  0
 36 38  1  0
 38 39  1  0
 39 40  1  0
 39 41  1  0
 39 42  1  0
 42 43  1  0
 42 44  1  0
 42 45  1  0
 45 46  1  0
 46 47  1  0
 46 48  1  0
 46 49  1  0
 45 50  1  0
 50 51  1  0
 50 52  1  0
 50 53  1  0
 53 54  1  0
 53 55  1  0
 35 56  1  0
 56 57  1  0
 56 58  2  0
 58 59  1  0
 19 60  1  0
 60 61  2  0
 61 62  1  0
 61 63  1  0
  8  3  2  0
 60 11  1  0
 58 30  1  0
 53 38  1  0
M  CHG  2   4  -1   7  -1
M  END
>  <UniqueID>  (67) 
64

>  <SMILES>  (67) 
C=c1/c(=C\c2[n-]c(=O)[n-]c2O)cc(C)n1C(=O)N(C)Cc1ccc(C(=O)N2CCN(C)CC2)cc1

>  <Energy>  (67) 
148.75012914372442

>  <Genealogy>  (67) 
C=c1c(=Cc2[n-]c(=O)[n-]c2O)cc(C)n1C(=O)N(C)Cc1ccc(C(=O)N2CCN(C)CC2)cc1 (protonated)
C=c1/c(=C\c2[n-]c(=O)[n-]c2O)cc(C)n1C(=O)N(C)Cc1ccc(C(=O)N2CCN(C)CC2)cc1 (cis-trans isomerization)
C=c1/c(=C\c2[n-]c(=O)[n-]c2O)cc(C)n1C(=O)N(C)Cc1ccc(C(=O)N2CCN(C)CC2)cc1 (3D coordinates assigned)
C=c1/c(=C\c2[n-]c(=O)[n-]c2O)cc(C)n1C(=O)N(C)Cc1ccc(C(=O)N2CCN(C)CC2)cc1 (nonaromatic ring conformer: 148.75012914372442 kcal/mol)

>  <smiles>  (67) 
C=c1c(=Cc2[nH]c(=O)[nH]c2O)cc(C)n1C(=O)N(C)Cc1ccc(C(=O)N2CCN(C)CC2)cc1

>  <score_type>  (67) 
oracle

>  <origin>  (67) 
adg

>  <m_score__min__energy>  (67) 
-14.24

>  <m_primary>  (67) 
energy

$$$$
67:0
     RDKit          3D

 54 57  0  0  0  0  0  0  0  0999 V2000
   55.8830   20.4110   44.1190 N   0  0  0  0  0  0  0  0  0  0  0  0
   56.6550   21.6640   43.2150 S   0  0  0  0  0  0  0  0  0  0  0  0
   55.9590   21.8320   41.8960 O   0  0  0  0  0  0  0  0  0  0  0  0
   58.0870   21.2860   42.9600 O   0  0  0  0  0  0  0  0  0  0  0  0
   56.5820   23.1710   44.1180 C   0  0  0  0  0  0  0  0  0  0  0  0
   55.3640   23.6240   44.6410 C   0  0  0  0  0  0  0  0  0  0  0  0
   55.3050   24.8260   45.3530 C   0  0  0  0  0  0  0  0  0  0  0  0
   56.4640   25.6000   45.5310 C   0  0  0  0  0  0  0  0  0  0  0  0
   56.4130   26.8610   46.3400 C   0  0  0  0  0  0  0  0  0  0  0  0
   56.8270   27.9840   45.5040 N   0  0  0  0  0  0  0  0  0  0  0  0
   57.5620   28.9930   45.8750 C   0  0  0  0  0  0  0  0  0  0  0  0
   58.7820   28.8280   46.5610 C   0  0  0  0  0  0  0  0  0  0  0  0
   59.5280   29.9540   46.9150 C   0  0  0  0  0  0  0  0  0  0  0  0
   59.0740   31.2390   46.5800 C   0  0  0  0  0  0  0  0  0  0  0  0
   59.8560   32.4450   46.9420 C   0  0  0  0  0  0  0  0  0  0  0  0
   60.2180   33.2420   46.0340 O   0  0  0  0  0  0  0  0  0  0  0  0
   60.2090   32.7250   48.3110 N   0  0  0  0  0  0  0  0  0  0  0  0
   60.3350   34.1090   48.7720 C   0  0  0  0  0  0  0  0  0  0  0  0
   61.8150   34.4720   48.8950 C   0  0  0  0  0  0  0  0  0  0  0  0
   62.5390   33.4400   49.6580 N   0  0  0  0  0  0  0  0  0  0  0  0
   63.6550   33.8310   50.4920 C   0  0  0  0  0  0  0  0  0  0  0  0
   63.7180   35.0050   50.9460 O   0  0  0  0  0  0  0  0  0  0  0  0
   64.7330   32.8560   50.8780 C   0  0  0  0  0  0  0  0  0  0  0  0
   65.7680   32.5840   49.7960 C   0  0  0  0  0  0  0  0  0  0  0  0
   66.1290   33.4550   50.9840 C   0  0  0  0  0  0  0  0  0  0  0  0
   62.3460   32.0300   49.2740 C   0  0  0  0  0  0  0  0  0  0  0  0
   60.8580   31.7040   49.1360 C   0  0  0  0  0  0  0  0  0  0  0  0
   57.8430   31.3580   45.9190 C   0  0  0  0  0  0  0  0  0  0  0  0
   57.1330   30.2490   45.5820 N   0  0  0  0  0  0  0  0  0  0  0  0
   57.6840   25.1420   45.0070 C   0  0  0  0  0  0  0  0  0  0  0  0
   57.7400   23.9390   44.2980 C   0  0  0  0  0  0  0  0  0  0  0  0
   56.5080   19.5750   44.0780 H   0  0  0  0  0  0  0  0  0  0  0  0
   54.4496   23.0313   44.4909 H   0  0  0  0  0  0  0  0  0  0  0  0
   54.3481   25.1667   45.7751 H   0  0  0  0  0  0  0  0  0  0  0  0
   55.3862   27.0274   46.6978 H   0  0  0  0  0  0  0  0  0  0  0  0
   57.0887   26.7740   47.2036 H   0  0  0  0  0  0  0  0  0  0  0  0
   59.1435   27.8207   46.8154 H   0  0  0  0  0  0  0  0  0  0  0  0
   60.4763   29.8333   47.4592 H   0  0  0  0  0  0  0  0  0  0  0  0
   59.8512   34.7819   48.0487 H   0  0  0  0  0  0  0  0  0  0  0  0
   59.8486   34.2146   49.7530 H   0  0  0  0  0  0  0  0  0  0  0  0
   62.2527   34.5519   47.8890 H   0  0  0  0  0  0  0  0  0  0  0  0
   61.9025   35.4321   49.4246 H   0  0  0  0  0  0  0  0  0  0  0  0
   64.0982   32.2335   51.5258 H   0  0  0  0  0  0  0  0  0  0  0  0
   66.2081   31.5808   49.6962 H   0  0  0  0  0  0  0  0  0  0  0  0
   65.8007   32.7077   48.7035 H   0  0  0  0  0  0  0  0  0  0  0  0
   66.8304   33.0831   51.7454 H   0  0  0  0  0  0  0  0  0  0  0  0
   66.5314   34.4711   51.1091 H   0  0  0  0  0  0  0  0  0  0  0  0
   62.8462   31.8465   48.3117 H   0  0  0  0  0  0  0  0  0  0  0  0
   62.7765   31.3889   50.0574 H   0  0  0  0  0  0  0  0  0  0  0  0
   60.7410   30.7192   48.6601 H   0  0  0  0  0  0  0  0  0  0  0  0
   60.3924   31.6874   50.1325 H   0  0  0  0  0  0  0  0  0  0  0  0
   57.4495   32.3550   45.6717 H   0  0  0  0  0  0  0  0  0  0  0  0
   58.5998   25.7330   45.1554 H   0  0  0  0  0  0  0  0  0  0  0  0
   58.6969   23.5937   43.8796 H   0  0  0  0  0  0  0  0  0  0  0  0
  1  2  1  0
  2  3  2  0
  2  4  2  0
  2  5  1  0
  5  6  2  0
  6  7  1  0
  7  8  2  0
  8  9  1  0
  9 10  1  0
 10 11  2  3
 11 12  1  0
 12 13  2  0
 13 14  1  0
 14 15  1  0
 15 16  2  0
 15 17  1  0
 17 18  1  0
 18 19  1  0
 19 20  1  0
 20 21  1  0
 21 22  2  0
 21 23  1  0
 23 24  1  0
 24 25  1  0
 20 26  1  0
 26 27  1  0
 14 28  2  0
 28 29  1  0
  8 30  1  0
 30 31  2  0
 31  5  1  0
 29 11  1  0
 27 17  1  0
 25 23  1  0
  1 32  1  0
  6 33  1  0
  7 34  1  0
  9 35  1  0
  9 36  1  0
 12 37  1  0
 13 38  1  0
 18 39  1  0
 18 40  1  0
 19 41  1  0
 19 42  1  0
 23 43  1  0
 24 44  1  0
 24 45  1  0
 25 46  1  0
 25 47  1  0
 26 48  1  0
 26 49  1  0
 27 50  1  0
 27 51  1  0
 28 52  1  0
 30 53  1  0
 31 54  1  0
M  CHG  2   1  -1  29  -1
M  END
>  <UniqueID>  (68) 
65

>  <SMILES>  (68) 
[NH-]S(=O)(=O)c1ccc(CN=c2ccc(C(=O)N3CCN(C(=O)C4CC4)CC3)c[n-]2)cc1

>  <Energy>  (68) 
325.70648694095473

>  <Genealogy>  (68) 
[NH-]S(=O)(=O)c1ccc(CN=c2ccc(C(=O)N3CCN(C(=O)C4CC4)CC3)c[n-]2)cc1 (protonated)
[NH-]S(=O)(=O)c1ccc(CN=c2ccc(C(=O)N3CCN(C(=O)C4CC4)CC3)c[n-]2)cc1 (3D coordinates assigned)
[NH-]S(=O)(=O)c1ccc(CN=c2ccc(C(=O)N3CCN(C(=O)C4CC4)CC3)c[n-]2)cc1 (nonaromatic ring conformer: 325.70648694095473 kcal/mol)

>  <smiles>  (68) 
NS(=O)(=O)c1ccc(CN=c2ccc(C(=O)N3CCN(C(=O)C4CC4)CC3)c[nH]2)cc1

>  <score_type>  (68) 
oracle

>  <origin>  (68) 
adg

>  <m_score__min__energy>  (68) 
-13.029999999999999

>  <m_primary>  (68) 
energy

$$$$
68:0
     RDKit          3D

 54 57  0  0  0  0  0  0  0  0999 V2000
   55.1520   30.0790   45.5640 H   0  0  0  0  0  0  0  0  0  0  0  0
   55.3870   29.3540   44.8990 O   0  0  0  0  0  0  0  0  0  0  0  0
   56.1150   28.2270   45.2720 C   0  0  0  0  0  0  0  0  0  0  0  0
   55.5460   27.0980   45.7230 N   0  0  0  0  0  0  0  0  0  0  0  0
   56.6110   26.3180   46.0070 C   0  0  0  0  0  0  0  0  0  0  0  0
   56.4950   25.1530   46.4710 O   0  0  0  0  0  0  0  0  0  0  0  0
   57.8120   26.8870   45.7670 N   0  0  0  0  0  0  0  0  0  0  0  0
   57.4900   28.0950   45.2720 C   0  0  0  0  0  0  0  0  0  0  0  0
   58.4860   29.1260   44.9450 C   0  0  0  0  0  0  0  0  0  0  0  0
   59.2749   28.8518   44.2291 H   0  0  0  0  0  0  0  0  0  0  0  0
   58.5180   30.3780   45.4450 C   0  0  0  0  0  0  0  0  0  0  0  0
   58.1320   31.4810   44.7070 C   0  0  0  0  0  0  0  0  0  0  0  0
   57.7040   31.4734   43.6937 H   0  0  0  0  0  0  0  0  0  0  0  0
   58.3850   32.5910   45.4810 C   0  0  0  0  0  0  0  0  0  0  0  0
   58.2060   34.0030   45.0070 C   0  0  0  0  0  0  0  0  0  0  0  0
   58.1210   34.6732   45.8751 H   0  0  0  0  0  0  0  0  0  0  0  0
   59.0739   34.2985   44.3992 H   0  0  0  0  0  0  0  0  0  0  0  0
   57.2918   34.0726   44.3992 H   0  0  0  0  0  0  0  0  0  0  0  0
   58.8880   32.2290   46.6870 N   0  0  0  0  0  0  0  0  0  0  0  0
   59.3440   33.1610   47.7310 C   0  0  0  0  0  0  0  0  0  0  0  0
   58.9350   34.1616   47.5274 H   0  0  0  0  0  0  0  0  0  0  0  0
   58.9925   32.8009   48.7091 H   0  0  0  0  0  0  0  0  0  0  0  0
   60.8490   33.2340   47.7490 C   0  0  0  0  0  0  0  0  0  0  0  0
   61.5550   33.5850   46.5870 C   0  0  0  0  0  0  0  0  0  0  0  0
   61.0080   33.7922   45.6554 H   0  0  0  0  0  0  0  0  0  0  0  0
   62.9470   33.6720   46.6090 C   0  0  0  0  0  0  0  0  0  0  0  0
   63.4939   33.9422   45.6936 H   0  0  0  0  0  0  0  0  0  0  0  0
   63.6490   33.4170   47.7900 C   0  0  0  0  0  0  0  0  0  0  0  0
   64.7469   33.4837   47.7992 H   0  0  0  0  0  0  0  0  0  0  0  0
   62.9600   33.0760   48.9650 C   0  0  0  0  0  0  0  0  0  0  0  0
   63.6810   32.8090   50.1830 N   0  0  0  0  0  0  0  0  0  0  0  0
   63.9320   31.4370   50.6310 C   0  0  0  0  0  0  0  0  0  0  0  0
   63.4096   31.2650   51.5836 H   0  0  0  0  0  0  0  0  0  0  0  0
   63.5620   30.7376   49.8669 H   0  0  0  0  0  0  0  0  0  0  0  0
   65.4430   31.2080   50.8310 C   0  0  0  0  0  0  0  0  0  0  0  0
   65.5771   30.4298   51.5968 H   0  0  0  0  0  0  0  0  0  0  0  0
   65.8537   30.9137   49.8539 H   0  0  0  0  0  0  0  0  0  0  0  0
   66.1840   32.4230   51.2630 N   0  0  0  0  0  0  0  0  0  0  0  0
   66.9680   33.0070   50.1590 C   0  0  0  0  0  0  0  0  0  0  0  0
   67.7856   33.6160   50.5720 H   0  0  0  0  0  0  0  0  0  0  0  0
   67.3881   32.2000   49.5407 H   0  0  0  0  0  0  0  0  0  0  0  0
   66.3151   33.6406   49.5407 H   0  0  0  0  0  0  0  0  0  0  0  0
   65.3250   33.4310   51.9200 C   0  0  0  0  0  0  0  0  0  0  0  0
   64.8769   32.9842   52.8198 H   0  0  0  0  0  0  0  0  0  0  0  0
   65.9519   34.2974   52.1775 H   0  0  0  0  0  0  0  0  0  0  0  0
   64.1980   33.9170   50.9920 C   0  0  0  0  0  0  0  0  0  0  0  0
   63.3813   34.3312   51.6015 H   0  0  0  0  0  0  0  0  0  0  0  0
   64.6007   34.6889   50.3197 H   0  0  0  0  0  0  0  0  0  0  0  0
   61.5580   32.9750   48.9330 C   0  0  0  0  0  0  0  0  0  0  0  0
   61.0114   32.6904   49.8441 H   0  0  0  0  0  0  0  0  0  0  0  0
   58.9480   30.8680   46.6910 C   0  0  0  0  0  0  0  0  0  0  0  0
   59.2690   30.1340   47.7700 C   0  0  0  0  0  0  0  0  0  0  0  0
   59.5944   30.6306   48.6960 H   0  0  0  0  0  0  0  0  0  0  0  0
   59.2063   29.0366   47.7272 H   0  0  0  0  0  0  0  0  0  0  0  0
  1  2  1  0
  2  3  1  0
  3  4  1  0
  4  5  1  0
  5  6  2  0
  5  7  1  0
  7  8  1  0
  8  9  1  0
  9 10  1  0
  9 11  2  0
 11 12  1  0
 12 13  1  0
 12 14  2  0
 14 15  1  0
 15 16  1  0
 15 17  1  0
 15 18  1  0
 14 19  1  0
 19 20  1  0
 20 21  1  0
 20 22  1  0
 20 23  1  0
 23 24  2  0
 24 25  1  0
 24 26  1  0
 26 27  1  0
 26 28  2  0
 28 29  1  0
 28 30  1  0
 30 31  1  0
 31 32  1  0
 32 33  1  0
 32 34  1  0
 32 35  1  0
 35 36  1  0
 35 37  1  0
 35 38  1  0
 38 39  1  0
 39 40  1  0
 39 41  1  0
 39 42  1  0
 38 43  1  0
 43 44  1  0
 43 45  1  0
 43 46  1  0
 46 47  1  0
 46 48  1  0
 30 49  2  0
 49 50  1  0
 19 51  1  0
 51 52  2  0
 52 53  1  0
 52 54  1  0
  8  3  2  0
 51 11  1  0
 49 23  1  0
 46 31  1  0
M  CHG  2   4  -1   7  -1
M  END
>  <UniqueID>  (69) 
66

>  <SMILES>  (69) 
C=c1/c(=C\c2[n-]c(=O)[n-]c2O)cc(C)n1Cc1cccc(N2CCN(C)CC2)c1

>  <Energy>  (69) 
136.14203385497726

>  <Genealogy>  (69) 
C=c1c(=Cc2[n-]c(=O)[n-]c2O)cc(C)n1Cc1cccc(N2CCN(C)CC2)c1 (protonated)
C=c1/c(=C\c2[n-]c(=O)[n-]c2O)cc(C)n1Cc1cccc(N2CCN(C)CC2)c1 (cis-trans isomerization)
C=c1/c(=C\c2[n-]c(=O)[n-]c2O)cc(C)n1Cc1cccc(N2CCN(C)CC2)c1 (3D coordinates assigned)
C=c1/c(=C\c2[n-]c(=O)[n-]c2O)cc(C)n1Cc1cccc(N2CCN(C)CC2)c1 (nonaromatic ring conformer: 136.14203385497726 kcal/mol)

>  <smiles>  (69) 
C=c1c(=Cc2[nH]c(=O)[nH]c2O)cc(C)n1Cc1cccc(N2CCN(C)CC2)c1

>  <score_type>  (69) 
oracle

>  <origin>  (69) 
adg

>  <m_score__min__energy>  (69) 
-14.33

>  <m_primary>  (69) 
energy

$$$$
69:0
     RDKit          3D

 58 61  0  0  0  0  0  0  0  0999 V2000
   59.5930   32.4190   49.8040 C   0  0  0  0  0  0  0  0  0  0  0  0
   58.1650   32.3190   49.2760 C   0  0  0  0  0  0  0  0  0  0  0  0
   58.1610   32.1130   47.8620 O   0  0  0  0  0  0  0  0  0  0  0  0
   58.5390   33.0560   46.8910 C   0  0  0  0  0  0  0  0  0  0  0  0
   59.3250   34.1820   47.2040 C   0  0  0  0  0  0  0  0  0  0  0  0
   59.6480   35.1120   46.2140 C   0  0  0  0  0  0  0  0  0  0  0  0
   59.1840   34.9410   44.9100 C   0  0  0  0  0  0  0  0  0  0  0  0
   58.4010   33.8320   44.5880 C   0  0  0  0  0  0  0  0  0  0  0  0
   58.0970   32.8760   45.5630 C   0  0  0  0  0  0  0  0  0  0  0  0
   57.2860   31.7530   45.1980 N   0  0  0  0  0  0  0  0  0  0  0  0
   57.1250   31.2490   43.8660 C   0  0  0  0  0  0  0  0  0  0  0  0
   57.4300   31.9890   42.8950 O   0  0  0  0  0  0  0  0  0  0  0  0
   56.7150   29.8260   43.5980 C   0  0  0  0  0  0  0  0  0  0  0  0
   55.5520   29.4300   44.5080 C   0  0  0  0  0  0  0  0  0  0  0  0
   55.8990   28.2180   45.2440 N   0  0  0  0  0  0  0  0  0  0  0  0
   57.2280   27.6960   45.3250 C   0  0  0  0  0  0  0  0  0  0  0  0
   57.4660   26.5580   44.8390 O   0  0  0  0  0  0  0  0  0  0  0  0
   58.3350   28.4830   45.9090 C   0  0  0  0  0  0  0  0  0  0  0  0
   59.3400   29.0150   45.0850 C   0  0  0  0  0  0  0  0  0  0  0  0
   60.3690   29.7860   45.6330 C   0  0  0  0  0  0  0  0  0  0  0  0
   60.4090   30.0510   47.0150 C   0  0  0  0  0  0  0  0  0  0  0  0
   61.5000   30.8700   47.5980 C   0  0  0  0  0  0  0  0  0  0  0  0
   62.0330   31.9050   46.8930 N   0  0  0  0  0  0  0  0  0  0  0  0
   63.0340   32.6720   47.3960 C   0  0  0  0  0  0  0  0  0  0  0  0
   63.4930   33.6200   46.7030 O   0  0  0  0  0  0  0  0  0  0  0  0
   63.5440   32.3980   48.6750 C   0  0  0  0  0  0  0  0  0  0  0  0
   64.5820   33.1510   49.2510 C   0  0  0  0  0  0  0  0  0  0  0  0
   65.0490   32.8420   50.5390 C   0  0  0  0  0  0  0  0  0  0  0  0
   66.1840   33.6180   51.1370 C   0  0  0  0  0  0  0  0  0  0  0  0
   64.4930   31.7590   51.2370 C   0  0  0  0  0  0  0  0  0  0  0  0
   63.4590   31.0070   50.6680 C   0  0  0  0  0  0  0  0  0  0  0  0
   62.9820   31.3230   49.3920 C   0  0  0  0  0  0  0  0  0  0  0  0
   61.9810   30.5900   48.8400 N   0  0  0  0  0  0  0  0  0  0  0  0
   59.3900   29.5300   47.8330 C   0  0  0  0  0  0  0  0  0  0  0  0
   58.3590   28.7630   47.2840 C   0  0  0  0  0  0  0  0  0  0  0  0
   59.5782   32.4180   50.9039 H   0  0  0  0  0  0  0  0  0  0  0  0
   60.1779   31.5596   49.4444 H   0  0  0  0  0  0  0  0  0  0  0  0
   60.0524   33.3515   49.4444 H   0  0  0  0  0  0  0  0  0  0  0  0
   57.6578   31.4743   49.7651 H   0  0  0  0  0  0  0  0  0  0  0  0
   57.6402   33.2601   49.4971 H   0  0  0  0  0  0  0  0  0  0  0  0
   59.6859   34.3293   48.2326 H   0  0  0  0  0  0  0  0  0  0  0  0
   60.2712   35.9834   46.4636 H   0  0  0  0  0  0  0  0  0  0  0  0
   59.4353   35.6804   44.1354 H   0  0  0  0  0  0  0  0  0  0  0  0
   58.0211   33.7089   43.5631 H   0  0  0  0  0  0  0  0  0  0  0  0
   56.4032   29.7296   42.5475 H   0  0  0  0  0  0  0  0  0  0  0  0
   57.5693   29.1629   43.7992 H   0  0  0  0  0  0  0  0  0  0  0  0
   55.3490   30.2447   45.2186 H   0  0  0  0  0  0  0  0  0  0  0  0
   54.6564   29.2435   43.8972 H   0  0  0  0  0  0  0  0  0  0  0  0
   59.3173   28.8238   44.0020 H   0  0  0  0  0  0  0  0  0  0  0  0
   61.1552   30.1896   44.9780 H   0  0  0  0  0  0  0  0  0  0  0  0
   65.0300   33.9851   48.6910 H   0  0  0  0  0  0  0  0  0  0  0  0
   66.1201   33.5743   52.2343 H   0  0  0  0  0  0  0  0  0  0  0  0
   67.1392   33.1831   50.8077 H   0  0  0  0  0  0  0  0  0  0  0  0
   66.1254   34.6659   50.8077 H   0  0  0  0  0  0  0  0  0  0  0  0
   64.8719   31.4998   52.2366 H   0  0  0  0  0  0  0  0  0  0  0  0
   63.0208   30.1660   51.2253 H   0  0  0  0  0  0  0  0  0  0  0  0
   59.4049   29.7282   48.9149 H   0  0  0  0  0  0  0  0  0  0  0  0
   57.5606   28.3759   47.9342 H   0  0  0  0  0  0  0  0  0  0  0  0
  1  2  1  0
  2  3  1  0
  3  4  1  0
  4  5  2  0
  5  6  1  0
  6  7  2  0
  7  8  1  0
  8  9  2  0
  9 10  1  0
 10 11  1  0
 11 12  2  0
 11 13  1  0
 13 14  1  0
 14 15  1  0
 15 16  1  0
 16 17  2  0
 16 18  1  0
 18 19  2  0
 19 20  1  0
 20 21  2  0
 21 22  1  0
 22 23  2  0
 23 24  1  0
 24 25  2  0
 24 26  1  0
 26 27  2  0
 27 28  1  0
 28 29  1  0
 28 30  2  0
 30 31  1  0
 31 32  2  0
 32 33  1  0
 21 34  1  0
 34 35  2  0
  9  4  1  0
 35 18  1  0
 33 22  1  0
 32 26  1  0
  1 36  1  0
  1 37  1  0
  1 38  1  0
  2 39  1  0
  2 40  1  0
  5 41  1  0
  6 42  1  0
  7 43  1  0
  8 44  1  0
 13 45  1  0
 13 46  1  0
 14 47  1  0
 14 48  1  0
 19 49  1  0
 20 50  1  0
 27 51  1  0
 29 52  1  0
 29 53  1  0
 29 54  1  0
 30 55  1  0
 31 56  1  0
 34 57  1  0
 35 58  1  0
M  CHG  3  10  -1  15  -1  33  -1
M  END
>  <UniqueID>  (70) 
67

>  <SMILES>  (70) 
CCOc1ccccc1[N-]C(=O)CC[N-]C(=O)c1ccc(-c2nc(=O)c3cc(C)ccc3[n-]2)cc1

>  <Energy>  (70) 
73.78700417065137

>  <Genealogy>  (70) 
CCOc1ccccc1[N-]C(=O)CC[N-]C(=O)c1ccc(-c2nc(=O)c3cc(C)ccc3[n-]2)cc1 (protonated)
CCOc1ccccc1[N-]C(=O)CC[N-]C(=O)c1ccc(-c2nc(=O)c3cc(C)ccc3[n-]2)cc1 (3D coordinates assigned)
CCOc1ccccc1[N-]C(=O)CC[N-]C(=O)c1ccc(-c2nc(=O)c3cc(C)ccc3[n-]2)cc1 (optimized conformer: 73.78700417065137 kcal/mol)

>  <smiles>  (70) 
CCOc1ccccc1NC(=O)CCNC(=O)c1ccc(-c2nc(=O)c3cc(C)ccc3[nH]2)cc1

>  <score_type>  (70) 
oracle

>  <origin>  (70) 
adg

>  <m_score__min__energy>  (70) 
-13.84

>  <m_primary>  (70) 
energy

$$$$
70:0
     RDKit          3D

 52 54  0  0  0  0  0  0  0  0999 V2000
   67.9720   33.1370   51.1640 C   0  0  0  0  0  0  0  0  0  0  0  0
   66.7460   33.1230   51.6890 C   0  0  0  0  0  0  0  0  0  0  0  0
   65.4990   33.3210   50.9090 C   0  0  0  0  0  0  0  0  0  0  0  0
   65.3600   32.6500   49.6840 C   0  0  0  0  0  0  0  0  0  0  0  0
   64.2020   32.7980   48.9160 C   0  0  0  0  0  0  0  0  0  0  0  0
   63.1450   33.6010   49.3710 C   0  0  0  0  0  0  0  0  0  0  0  0
   61.8980   33.7840   48.5330 C   0  0  0  0  0  0  0  0  0  0  0  0
   60.6370   33.6640   49.3300 N   0  0  1  0  0  0  0  0  0  0  0  0
   59.6000   34.5970   48.8340 C   0  0  0  0  0  0  0  0  0  0  0  0
   59.1920   34.2930   47.3840 C   0  0  0  0  0  0  0  0  0  0  0  0
   59.0170   32.8180   47.1280 C   0  0  0  0  0  0  0  0  0  0  0  0
   58.4260   32.4160   45.9200 C   0  0  0  0  0  0  0  0  0  0  0  0
   58.2430   31.0640   45.6180 C   0  0  0  0  0  0  0  0  0  0  0  0
   57.6430   30.7480   44.3890 O   0  0  0  0  0  0  0  0  0  0  0  0
   56.6520   29.3920   44.0370 S   0  0  0  0  0  0  0  0  0  0  0  0
   55.4510   29.4650   44.9370 O   0  0  0  0  0  0  0  0  0  0  0  0
   56.1680   29.4220   42.6140 O   0  0  0  0  0  0  0  0  0  0  0  0
   57.4860   27.8440   44.3970 C   0  0  0  0  0  0  0  0  0  0  0  0
   56.9650   27.1370   45.6460 C   0  0  0  0  0  0  0  0  0  0  0  0
   55.5830   27.0880   45.6310 F   0  0  0  0  0  0  0  0  0  0  0  0
   57.3980   27.7840   46.7890 F   0  0  0  0  0  0  0  0  0  0  0  0
   57.4470   25.8410   45.6650 F   0  0  0  0  0  0  0  0  0  0  0  0
   58.6700   30.0990   46.5440 C   0  0  0  0  0  0  0  0  0  0  0  0
   59.2690   30.4860   47.7440 C   0  0  0  0  0  0  0  0  0  0  0  0
   59.4880   31.8460   48.0400 C   0  0  0  0  0  0  0  0  0  0  0  0
   60.0740   32.2820   49.3820 C   0  0  1  0  0  0  0  0  0  0  0  0
   61.0820   31.2750   49.9720 C   0  0  0  0  0  0  0  0  0  0  0  0
   63.2840   34.2850   50.5890 C   0  0  0  0  0  0  0  0  0  0  0  0
   64.4420   34.1390   51.3580 C   0  0  0  0  0  0  0  0  0  0  0  0
   68.8487   32.9820   51.8100 H   0  0  0  0  0  0  0  0  0  0  0  0
   68.1064   33.3035   50.0850 H   0  0  0  0  0  0  0  0  0  0  0  0
   66.6530   32.9535   52.7719 H   0  0  0  0  0  0  0  0  0  0  0  0
   66.1717   32.0004   49.3245 H   0  0  0  0  0  0  0  0  0  0  0  0
   64.1185   32.2816   47.9483 H   0  0  0  0  0  0  0  0  0  0  0  0
   61.9282   34.7825   48.0724 H   0  0  0  0  0  0  0  0  0  0  0  0
   61.8880   32.9844   47.7777 H   0  0  0  0  0  0  0  0  0  0  0  0
   60.8220   33.9570   50.3180 H   0  0  0  0  0  0  0  0  0  0  0  0
   58.7114   34.5135   49.4770 H   0  0  0  0  0  0  0  0  0  0  0  0
   60.0193   35.6136   48.8610 H   0  0  0  0  0  0  0  0  0  0  0  0
   58.2407   34.8027   47.1715 H   0  0  0  0  0  0  0  0  0  0  0  0
   59.9996   34.6513   46.7287 H   0  0  0  0  0  0  0  0  0  0  0  0
   58.1009   33.1793   45.1977 H   0  0  0  0  0  0  0  0  0  0  0  0
   57.3534   27.1709   43.5372 H   0  0  0  0  0  0  0  0  0  0  0  0
   58.5425   28.0863   44.5843 H   0  0  0  0  0  0  0  0  0  0  0  0
   58.5316   29.0305   46.3224 H   0  0  0  0  0  0  0  0  0  0  0  0
   59.5746   29.7177   48.4694 H   0  0  0  0  0  0  0  0  0  0  0  0
   59.2235   32.2988   50.0793 H   0  0  0  0  0  0  0  0  0  0  0  0
   61.0410   31.3160   51.0705 H   0  0  0  0  0  0  0  0  0  0  0  0
   60.8272   30.2600   49.6332 H   0  0  0  0  0  0  0  0  0  0  0  0
   62.0968   31.5308   49.6332 H   0  0  0  0  0  0  0  0  0  0  0  0
   62.4747   34.9415   50.9412 H   0  0  0  0  0  0  0  0  0  0  0  0
   64.5293   34.6657   52.3198 H   0  0  0  0  0  0  0  0  0  0  0  0
  1  2  2  0
  2  3  1  0
  3  4  2  0
  4  5  1  0
  5  6  2  0
  6  7  1  0
  7  8  1  0
  8  9  1  0
  9 10  1  0
 10 11  1  0
 11 12  2  0
 12 13  1  0
 13 14  1  0
 14 15  1  0
 15 16  2  0
 15 17  2  0
 15 18  1  0
 18 19  1  0
 19 20  1  0
 19 21  1  0
 19 22  1  0
 13 23  2  0
 23 24  1  0
 24 25  2  0
 25 26  1  0
 26 27  1  0
  6 28  1  0
 28 29  2  0
 29  3  1  0
 26  8  1  0
 25 11  1  0
  1 30  1  0
  1 31  1  0
  2 32  1  0
  4 33  1  0
  5 34  1  0
  7 35  1  0
  7 36  1  0
  8 37  1  1
  9 38  1  0
  9 39  1  0
 10 40  1  0
 10 41  1  0
 12 42  1  0
 18 43  1  0
 18 44  1  0
 23 45  1  0
 24 46  1  0
 26 47  1  1
 27 48  1  0
 27 49  1  0
 27 50  1  0
 28 51  1  0
 29 52  1  0
M  CHG  1   8   1
M  END
>  <UniqueID>  (71) 
68

>  <SMILES>  (71) 
C=Cc1ccc(C[N@H+]2CCc3cc(OS(=O)(=O)CC(F)(F)F)ccc3[C@H]2C)cc1

>  <Energy>  (71) 
63.99133718394027

>  <Genealogy>  (71) 
C=Cc1ccc(C[NH+]2CCc3cc(OS(=O)(=O)CC(F)(F)F)ccc3C2C)cc1 (protonated)
C=Cc1ccc(C[N@H+]2CCc3cc(OS(=O)(=O)CC(F)(F)F)ccc3[C@H]2C)cc1 (chirality)
C=Cc1ccc(C[N@H+]2CCc3cc(OS(=O)(=O)CC(F)(F)F)ccc3[C@H]2C)cc1 (3D coordinates assigned)
C=Cc1ccc(C[N@H+]2CCc3cc(OS(=O)(=O)CC(F)(F)F)ccc3[C@H]2C)cc1 (nonaromatic ring conformer: 63.99133718394027 kcal/mol)

>  <smiles>  (71) 
C=Cc1ccc(CN2CCc3cc(OS(=O)(=O)CC(F)(F)F)ccc3C2C)cc1

>  <score_type>  (71) 
oracle

>  <origin>  (71) 
adg

>  <m_score__min__energy>  (71) 
-7.3399999999999999

>  <m_primary>  (71) 
energy

$$$$
71:0
     RDKit          3D

 42 44  0  0  0  0  0  0  0  0999 V2000
   58.3510   29.3870   46.7670 C   0  0  0  0  0  0  0  0  0  0  0  0
   57.7940   30.4300   45.8500 C   0  0  0  0  0  0  0  0  0  0  0  0
   57.0570   30.1160   44.7640 N   0  0  0  0  0  0  0  0  0  0  0  0
   56.7200   31.3100   44.2330 C   0  0  0  0  0  0  0  0  0  0  0  0
   57.2520   32.3220   44.9990 C   0  0  0  0  0  0  0  0  0  0  0  0
   57.9420   31.7660   46.0100 N   0  0  0  0  0  0  0  0  0  0  0  0
   58.6480   32.4790   47.0420 C   0  0  0  0  0  0  0  0  0  0  0  0
   59.4720   33.5700   46.7240 C   0  0  0  0  0  0  0  0  0  0  0  0
   60.1430   34.2650   47.7330 C   0  0  0  0  0  0  0  0  0  0  0  0
   59.9950   33.8830   49.0700 C   0  0  0  0  0  0  0  0  0  0  0  0
   60.6500   34.5800   50.0340 F   0  0  0  0  0  0  0  0  0  0  0  0
   59.1730   32.7950   49.4050 C   0  0  0  0  0  0  0  0  0  0  0  0
   58.9740   32.4010   50.8430 C   0  0  0  0  0  0  0  0  0  0  0  0
   57.9920   31.3220   50.9290 N   0  0  0  0  0  0  0  0  0  0  0  0
   56.7680   31.4290   51.6670 C   0  0  0  0  0  0  0  0  0  0  0  0
   56.5000   32.4800   52.3100 O   0  0  0  0  0  0  0  0  0  0  0  0
   55.8310   30.3460   51.6230 N   0  0  0  0  0  0  0  0  0  0  0  0
   54.4710   30.3790   52.0830 C   0  0  0  0  0  0  0  0  0  0  0  0
   53.9910   29.4740   53.0460 C   0  0  0  0  0  0  0  0  0  0  0  0
   52.6530   29.5150   53.4430 C   0  0  0  0  0  0  0  0  0  0  0  0
   51.7810   30.4500   52.8810 C   0  0  0  0  0  0  0  0  0  0  0  0
   52.2390   31.3510   51.9050 C   0  0  0  0  0  0  0  0  0  0  0  0
   51.3110   32.3350   51.3040 C   0  0  0  0  0  0  0  0  0  0  0  0
   50.7410   33.2000   52.0220 O   0  0  0  0  0  0  0  0  0  0  0  0
   51.0570   32.3200   49.9370 O   0  0  0  0  0  0  0  0  0  0  0  0
   53.5880   31.3010   51.5070 C   0  0  0  0  0  0  0  0  0  0  0  0
   58.4880   32.1100   48.3880 C   0  0  0  0  0  0  0  0  0  0  0  0
   58.1881   29.6920   47.8112 H   0  0  0  0  0  0  0  0  0  0  0  0
   57.8449   28.4280   46.5819 H   0  0  0  0  0  0  0  0  0  0  0  0
   59.4294   29.2742   46.5819 H   0  0  0  0  0  0  0  0  0  0  0  0
   56.1131   31.4525   43.3267 H   0  0  0  0  0  0  0  0  0  0  0  0
   57.1331   33.4001   44.8156 H   0  0  0  0  0  0  0  0  0  0  0  0
   59.5899   33.8792   45.6750 H   0  0  0  0  0  0  0  0  0  0  0  0
   60.7903   35.1161   47.4748 H   0  0  0  0  0  0  0  0  0  0  0  0
   59.9309   32.0583   51.2636 H   0  0  0  0  0  0  0  0  0  0  0  0
   58.6097   33.2699   51.4107 H   0  0  0  0  0  0  0  0  0  0  0  0
   58.1780   30.4420   50.3980 H   0  0  0  0  0  0  0  0  0  0  0  0
   54.6716   28.7314   53.4880 H   0  0  0  0  0  0  0  0  0  0  0  0
   52.2844   28.8083   54.2011 H   0  0  0  0  0  0  0  0  0  0  0  0
   50.7300   30.4812   53.2042 H   0  0  0  0  0  0  0  0  0  0  0  0
   53.9530   31.9940   50.7347 H   0  0  0  0  0  0  0  0  0  0  0  0
   57.8194   31.2761   48.6481 H   0  0  0  0  0  0  0  0  0  0  0  0
  1  2  1  0
  2  3  2  0
  3  4  1  0
  4  5  2  0
  5  6  1  0
  6  7  1  0
  7  8  2  0
  8  9  1  0
  9 10  2  0
 10 11  1  0
 10 12  1  0
 12 13  1  0
 13 14  1  0
 14 15  1  0
 15 16  2  0
 15 17  1  0
 17 18  1  0
 18 19  2  0
 19 20  1  0
 20 21  2  0
 21 22  1  0
 22 23  1  0
 23 24  2  0
 23 25  1  0
 22 26  2  0
 12 27  2  0
  6  2  1  0
 27  7  1  0
 26 18  1  0
  1 28  1  0
  1 29  1  0
  1 30  1  0
  4 31  1  0
  5 32  1  0
  8 33  1  0
  9 34  1  0
 13 35  1  0
 13 36  1  0
 14 37  1  0
 19 38  1  0
 20 39  1  0
 21 40  1  0
 26 41  1  0
 27 42  1  0
M  CHG  2  17  -1  25  -1
M  END
>  <UniqueID>  (72) 
69

>  <SMILES>  (72) 
Cc1nccn1-c1ccc(F)c(CNC(=O)[N-]c2cccc(C(=O)[O-])c2)c1

>  <Energy>  (72) 
80.72852640152225

>  <Genealogy>  (72) 
Cc1nccn1-c1ccc(F)c(CNC(=O)[N-]c2cccc(C(=O)[O-])c2)c1 (protonated)
Cc1nccn1-c1ccc(F)c(CNC(=O)[N-]c2cccc(C(=O)[O-])c2)c1 (3D coordinates assigned)
Cc1nccn1-c1ccc(F)c(CNC(=O)[N-]c2cccc(C(=O)[O-])c2)c1 (optimized conformer: 80.72852640152225 kcal/mol)

>  <smiles>  (72) 
Cc1nccn1-c1ccc(F)c(CNC(=O)Nc2cccc(C(=O)O)c2)c1

>  <score_type>  (72) 
oracle

>  <origin>  (72) 
adg

>  <m_score__min__energy>  (72) 
-13.619999999999999

>  <m_primary>  (72) 
energy

$$$$
72:0
     RDKit          3D

 45 48  0  0  0  0  0  0  0  0999 V2000
   52.7202   29.3377   54.8253 H   0  0  0  0  0  0  0  0  0  0  0  0
   53.7840   29.6170   54.8430 C   0  0  0  0  0  0  0  0  0  0  0  0
   54.3999   29.3816   55.7235 H   0  0  0  0  0  0  0  0  0  0  0  0
   54.3270   30.2410   53.7970 C   0  0  0  0  0  0  0  0  0  0  0  0
   55.5910   30.5970   53.7650 O   0  0  0  0  0  0  0  0  0  0  0  0
   55.8370   31.1840   52.6160 C   0  0  0  0  0  0  0  0  0  0  0  0
   57.1580   31.7080   52.2200 C   0  0  0  0  0  0  0  0  0  0  0  0
   57.8590   32.3130   53.0790 O   0  0  0  0  0  0  0  0  0  0  0  0
   57.6250   31.5850   50.8550 N   0  0  0  0  0  0  0  0  0  0  0  0
   56.7970   31.6480   50.2150 H   0  0  0  0  0  0  0  0  0  0  0  0
   58.2510   30.2680   50.6370 C   0  0  0  0  0  0  0  0  0  0  0  0
   59.2000   30.2168   51.1909 H   0  0  0  0  0  0  0  0  0  0  0  0
   57.5753   29.4769   50.9941 H   0  0  0  0  0  0  0  0  0  0  0  0
   58.5210   30.0730   49.1420 C   0  0  0  0  0  0  0  0  0  0  0  0
   59.1960   29.2148   49.0083 H   0  0  0  0  0  0  0  0  0  0  0  0
   57.5612   29.8943   48.6352 H   0  0  0  0  0  0  0  0  0  0  0  0
   59.1430   31.2690   48.5530 N   0  0  0  0  0  0  0  0  0  0  0  0
   59.6550   31.2170   47.2040 C   0  0  0  0  0  0  0  0  0  0  0  0
   60.7000   31.8600   46.9110 O   0  0  0  0  0  0  0  0  0  0  0  0
   58.9890   30.4380   46.1410 C   0  0  0  0  0  0  0  0  0  0  0  0
   57.7190   30.5370   45.8200 O   0  0  0  0  0  0  0  0  0  0  0  0
   57.4670   29.7170   44.8260 C   0  0  0  0  0  0  0  0  0  0  0  0
   56.4857   29.5843   44.3469 H   0  0  0  0  0  0  0  0  0  0  0  0
   58.6210   29.0470   44.4740 C   0  0  0  0  0  0  0  0  0  0  0  0
   58.7326   28.2942   43.6797 H   0  0  0  0  0  0  0  0  0  0  0  0
   59.6050   29.5120   45.3190 C   0  0  0  0  0  0  0  0  0  0  0  0
   60.6624   29.2092   45.3362 H   0  0  0  0  0  0  0  0  0  0  0  0
   59.5810   32.3670   49.4310 C   0  0  0  0  0  0  0  0  0  0  0  0
   60.5254   32.0758   49.9141 H   0  0  0  0  0  0  0  0  0  0  0  0
   59.7033   33.2636   48.8056 H   0  0  0  0  0  0  0  0  0  0  0  0
   58.5460   32.7020   50.5300 C   0  0  0  0  0  0  0  0  0  0  0  0
   59.0907   32.9781   51.4449 H   0  0  0  0  0  0  0  0  0  0  0  0
   57.9250   33.5226   50.1415 H   0  0  0  0  0  0  0  0  0  0  0  0
   54.6900   31.2220   51.8460 C   0  0  0  0  0  0  0  0  0  0  0  0
   54.5826   31.6448   50.8362 H   0  0  0  0  0  0  0  0  0  0  0  0
   53.7020   30.6170   52.6090 C   0  0  0  0  0  0  0  0  0  0  0  0
   52.4230   30.3950   52.2510 C   0  0  0  0  0  0  0  0  0  0  0  0
   51.7832   29.8308   52.9455 H   0  0  0  0  0  0  0  0  0  0  0  0
   51.8280   30.8610   50.9870 C   0  0  0  0  0  0  0  0  0  0  0  0
   51.7170   30.0860   49.8940 N   0  0  0  0  0  0  0  0  0  0  0  0
   51.0500   30.8700   49.0200 C   0  0  0  0  0  0  0  0  0  0  0  0
   50.7640   30.4920   47.8530 O   0  0  0  0  0  0  0  0  0  0  0  0
   50.7060   32.0850   49.4950 N   0  0  0  0  0  0  0  0  0  0  0  0
   51.1940   32.0610   50.7460 C   0  0  0  0  0  0  0  0  0  0  0  0
   51.0160   33.0940   51.6580 O   0  0  0  0  0  0  0  0  0  0  0  0
  1  2  1  0
  2  3  1  0
  2  4  2  0
  4  5  1  0
  5  6  1  0
  6  7  1  0
  7  8  2  0
  7  9  1  0
  9 10  1  0
  9 11  1  0
 11 12  1  0
 11 13  1  0
 11 14  1  0
 14 15  1  0
 14 16  1  0
 14 17  1  0
 17 18  1  0
 18 19  2  0
 18 20  1  0
 20 21  1  0
 21 22  1  0
 22 23  1  0
 22 24  2  0
 24 25  1  0
 24 26  1  0
 26 27  1  0
 17 28  1  0
 28 29  1  0
 28 30  1  0
 28 31  1  0
 31 32  1  0
 31 33  1  0
  6 34  2  0
 34 35  1  0
 34 36  1  0
 36 37  2  0
 37 38  1  0
 37 39  1  0
 39 40  1  0
 40 41  1  0
 41 42  2  0
 41 43  1  0
 43 44  1  0
 44 45  1  0
 36  4  1  0
 44 39  2  0
 31  9  1  0
 26 20  2  0
M  CHG  4   9   1  40  -1  43  -1  45  -1
M  END
>  <UniqueID>  (73) 
70

>  <SMILES>  (73) 
C=c1oc(C(=O)[NH+]2CCN(C(=O)c3ccco3)CC2)c/c1=C\c1[n-]c(=O)[n-]c1[O-]

>  <Energy>  (73) 
147.08030380555743

>  <Genealogy>  (73) 
C=c1oc(C(=O)[NH+]2CCN(C(=O)c3ccco3)CC2)cc1=Cc1[n-]c(=O)[n-]c1[O-] (protonated)
C=c1oc(C(=O)[NH+]2CCN(C(=O)c3ccco3)CC2)c/c1=C\c1[n-]c(=O)[n-]c1[O-] (cis-trans isomerization)
C=c1oc(C(=O)[NH+]2CCN(C(=O)c3ccco3)CC2)c/c1=C\c1[n-]c(=O)[n-]c1[O-] (3D coordinates assigned)
C=c1oc(C(=O)[NH+]2CCN(C(=O)c3ccco3)CC2)c/c1=C\c1[n-]c(=O)[n-]c1[O-] (nonaromatic ring conformer: 147.08030380555743 kcal/mol)

>  <smiles>  (73) 
C=c1oc(C(=O)N2CCN(C(=O)c3ccco3)CC2)cc1=Cc1[nH]c(=O)[nH]c1O

>  <score_type>  (73) 
oracle

>  <origin>  (73) 
adg

>  <m_score__min__energy>  (73) 
-17.16

>  <m_primary>  (73) 
energy

$$$$
73:0
     RDKit          3D

 57 61  0  0  0  0  0  0  0  0999 V2000
   63.0150   33.9740   53.0050 O   0  0  0  0  0  0  0  0  0  0  0  0
   63.4770   34.1970   51.5930 S   0  0  0  0  0  0  0  0  0  0  0  0
   63.8130   35.6500   51.4090 O   0  0  0  0  0  0  0  0  0  0  0  0
   64.8900   33.1930   51.2870 C   0  0  0  0  0  0  0  0  0  0  0  0
   66.1080   33.7900   50.9320 C   0  0  0  0  0  0  0  0  0  0  0  0
   67.2380   32.9990   50.7030 C   0  0  0  0  0  0  0  0  0  0  0  0
   67.1550   31.6090   50.8230 C   0  0  0  0  0  0  0  0  0  0  0  0
   65.9410   31.0080   51.1680 C   0  0  0  0  0  0  0  0  0  0  0  0
   64.8100   31.7970   51.3990 C   0  0  0  0  0  0  0  0  0  0  0  0
   62.2140   33.7690   50.4840 N   0  0  0  0  0  0  0  0  0  0  0  0
   60.9830   33.3210   50.8150 C   0  0  0  0  0  0  0  0  0  0  0  0
   60.2540   33.0230   49.6710 C   0  0  0  0  0  0  0  0  0  0  0  0
   61.0920   33.3110   48.6070 C   0  0  0  0  0  0  0  0  0  0  0  0
   60.9100   33.1700   47.2230 C   0  0  0  0  0  0  0  0  0  0  0  0
   59.6640   32.7160   46.6600 N   0  0  0  0  0  0  0  0  0  0  0  0
   58.8200   33.6260   45.8800 C   0  0  0  0  0  0  0  0  0  0  0  0
   58.2550   32.8710   44.6730 C   0  0  0  0  0  0  0  0  0  0  0  0
   57.4680   31.6680   45.0620 N   0  0  0  0  0  0  0  0  0  0  0  0
   57.5250   30.6200   44.0200 C   0  0  0  0  0  0  0  0  0  0  0  0
   57.5640   29.2460   44.6390 C   0  0  0  0  0  0  0  0  0  0  0  0
   58.7960   28.6100   44.8580 C   0  0  0  0  0  0  0  0  0  0  0  0
   58.8410   27.3450   45.4500 C   0  0  0  0  0  0  0  0  0  0  0  0
   57.6570   26.7080   45.8320 C   0  0  0  0  0  0  0  0  0  0  0  0
   56.4220   27.3380   45.6240 C   0  0  0  0  0  0  0  0  0  0  0  0
   55.2350   26.7150   46.0040 O   0  0  0  0  0  0  0  0  0  0  0  0
   56.3770   28.6040   45.0310 C   0  0  0  0  0  0  0  0  0  0  0  0
   57.8030   31.1200   46.4030 C   0  0  0  0  0  0  0  0  0  0  0  0
   59.2820   31.3030   46.7690 C   0  0  0  0  0  0  0  0  0  0  0  0
   62.0040   33.4940   46.3900 C   0  0  0  0  0  0  0  0  0  0  0  0
   63.2200   33.9490   46.9410 C   0  0  0  0  0  0  0  0  0  0  0  0
   63.3660   34.0850   48.3300 C   0  0  0  0  0  0  0  0  0  0  0  0
   62.2790   33.7540   49.1400 C   0  0  0  0  0  0  0  0  0  0  0  0
   66.1747   34.8835   50.8334 H   0  0  0  0  0  0  0  0  0  0  0  0
   68.1929   33.4710   50.4282 H   0  0  0  0  0  0  0  0  0  0  0  0
   68.0453   30.9877   50.6459 H   0  0  0  0  0  0  0  0  0  0  0  0
   65.8754   29.9136   51.2578 H   0  0  0  0  0  0  0  0  0  0  0  0
   63.8554   31.3220   51.6692 H   0  0  0  0  0  0  0  0  0  0  0  0
   60.6111   33.2083   51.8441 H   0  0  0  0  0  0  0  0  0  0  0  0
   59.2248   32.6381   49.6207 H   0  0  0  0  0  0  0  0  0  0  0  0
   57.9930   33.9905   46.5071 H   0  0  0  0  0  0  0  0  0  0  0  0
   59.4171   34.4833   45.5358 H   0  0  0  0  0  0  0  0  0  0  0  0
   57.6010   33.5512   44.1076 H   0  0  0  0  0  0  0  0  0  0  0  0
   59.1073   32.5280   44.0681 H   0  0  0  0  0  0  0  0  0  0  0  0
   56.6347   30.7009   43.3790 H   0  0  0  0  0  0  0  0  0  0  0  0
   58.4403   30.7640   43.4271 H   0  0  0  0  0  0  0  0  0  0  0  0
   59.7303   29.1096   44.5623 H   0  0  0  0  0  0  0  0  0  0  0  0
   59.8093   26.8500   45.6155 H   0  0  0  0  0  0  0  0  0  0  0  0
   57.6942   25.7115   46.2963 H   0  0  0  0  0  0  0  0  0  0  0  0
   55.1140   26.3270   46.9320 H   0  0  0  0  0  0  0  0  0  0  0  0
   55.4080   29.0994   44.8707 H   0  0  0  0  0  0  0  0  0  0  0  0
   57.1885   31.6347   47.1563 H   0  0  0  0  0  0  0  0  0  0  0  0
   57.5996   30.0392   46.3788 H   0  0  0  0  0  0  0  0  0  0  0  0
   59.4448   30.9620   47.8021 H   0  0  0  0  0  0  0  0  0  0  0  0
   59.8976   30.7119   46.0749 H   0  0  0  0  0  0  0  0  0  0  0  0
   61.9064   33.3902   45.2993 H   0  0  0  0  0  0  0  0  0  0  0  0
   64.0604   34.1992   46.2768 H   0  0  0  0  0  0  0  0  0  0  0  0
   64.3099   34.4422   48.7676 H   0  0  0  0  0  0  0  0  0  0  0  0
  1  2  2  0
  2  3  2  0
  2  4  1  0
  4  5  2  0
  5  6  1  0
  6  7  2  0
  7  8  1  0
  8  9  2  0
  2 10  1  0
 10 11  1  0
 11 12  2  0
 12 13  1  0
 13 14  2  0
 14 15  1  0
 15 16  1  0
 16 17  1  0
 17 18  1  0
 18 19  1  0
 19 20  1  0
 20 21  2  0
 21 22  1  0
 22 23  2  0
 23 24  1  0
 24 25  1  0
 24 26  2  0
 18 27  1  0
 27 28  1  0
 14 29  1  0
 29 30  2  0
 30 31  1  0
 31 32  2  0
  9  4  1  0
 32 10  1  0
 32 13  1  0
 28 15  1  0
 26 20  1  0
  5 33  1  0
  6 34  1  0
  7 35  1  0
  8 36  1  0
  9 37  1  0
 11 38  1  0
 12 39  1  0
 16 40  1  0
 16 41  1  0
 17 42  1  0
 17 43  1  0
 19 44  1  0
 19 45  1  0
 21 46  1  0
 22 47  1  0
 23 48  1  0
 25 49  1  0
 26 50  1  0
 27 51  1  0
 27 52  1  0
 28 53  1  0
 28 54  1  0
 29 55  1  0
 30 56  1  0
 31 57  1  0
M  END
>  <UniqueID>  (74) 
71

>  <SMILES>  (74) 
O=S(=O)(c1ccccc1)n1ccc2c(N3CCN(Cc4cccc(O)c4)CC3)cccc21

>  <Energy>  (74) 
108.7054939771378

>  <Genealogy>  (74) 
O=S(=O)(c1ccccc1)n1ccc2c(N3CCN(Cc4cccc(O)c4)CC3)cccc21 (3D coordinates assigned)
O=S(=O)(c1ccccc1)n1ccc2c(N3CCN(Cc4cccc(O)c4)CC3)cccc21 (nonaromatic ring conformer: 108.7054939771378 kcal/mol)

>  <smiles>  (74) 
O=S(=O)(c1ccccc1)n1ccc2c(N3CCN(Cc4cccc(O)c4)CC3)cccc21

>  <score_type>  (74) 
oracle

>  <origin>  (74) 
adg

>  <m_score__min__energy>  (74) 
-10.949999999999999

>  <m_primary>  (74) 
energy

$$$$
74:0
     RDKit          3D

 56 57  0  0  0  0  0  0  0  0999 V2000
   56.3950   31.8680   52.4390 N   0  0  0  0  0  0  0  0  0  0  0  0
   56.2080   30.6180   52.1260 C   0  0  0  0  0  0  0  0  0  0  0  0
   57.2850   29.8140   51.6120 N   0  0  0  0  0  0  0  0  0  0  0  0
   58.6890   30.2330   51.6350 C   0  0  0  0  0  0  0  0  0  0  0  0
   59.4620   29.7130   50.4100 C   0  0  0  0  0  0  0  0  0  0  0  0
   59.3490   30.6340   49.1790 C   0  0  0  0  0  0  0  0  0  0  0  0
   59.9180   30.0190   47.9660 N   0  0  0  0  0  0  0  0  0  0  0  0
   59.0780   28.9080   47.4630 C   0  0  0  0  0  0  0  0  0  0  0  0
   59.5390   28.3810   46.0910 C   0  0  0  0  0  0  0  0  0  0  0  0
   59.5320   29.4740   45.0050 C   0  0  0  0  0  0  0  0  0  0  0  0
   58.3080   29.4400   44.1830 N   0  0  0  0  0  0  0  0  0  0  0  0
   57.2300   30.2780   44.7280 C   0  0  0  0  0  0  0  0  0  0  0  0
   57.7280   31.6730   45.0050 C   0  0  0  0  0  0  0  0  0  0  0  0
   57.8240   32.1480   46.3250 C   0  0  0  0  0  0  0  0  0  0  0  0
   58.2770   33.4480   46.5740 C   0  0  0  0  0  0  0  0  0  0  0  0
   58.6360   34.2800   45.5120 C   0  0  0  0  0  0  0  0  0  0  0  0
   58.5390   33.8150   44.1960 C   0  0  0  0  0  0  0  0  0  0  0  0
   58.0850   32.5170   43.9420 C   0  0  0  0  0  0  0  0  0  0  0  0
   54.9350   29.9910   52.3580 N   0  0  0  0  0  0  0  0  0  0  0  0
   53.6660   30.6620   52.2720 C   0  0  0  0  0  0  0  0  0  0  0  0
   52.8380   30.8080   53.4010 C   0  0  0  0  0  0  0  0  0  0  0  0
   51.6200   31.4890   53.2970 C   0  0  0  0  0  0  0  0  0  0  0  0
   51.2280   32.0420   52.0750 C   0  0  0  0  0  0  0  0  0  0  0  0
   50.0170   32.7150   51.9750 O   0  0  0  0  0  0  0  0  0  0  0  0
   52.0560   31.9200   50.9560 C   0  0  0  0  0  0  0  0  0  0  0  0
   53.2730   31.2400   51.0550 C   0  0  0  0  0  0  0  0  0  0  0  0
   56.7100   32.1440   53.3950 H   0  0  0  0  0  0  0  0  0  0  0  0
   56.2550   32.6390   51.7510 H   0  0  0  0  0  0  0  0  0  0  0  0
   57.0390   28.8620   51.2580 H   0  0  0  0  0  0  0  0  0  0  0  0
   58.7322   31.3321   51.6428 H   0  0  0  0  0  0  0  0  0  0  0  0
   59.1562   29.8119   52.5375 H   0  0  0  0  0  0  0  0  0  0  0  0
   60.5242   29.6217   50.6809 H   0  0  0  0  0  0  0  0  0  0  0  0
   59.0190   28.7449   50.1332 H   0  0  0  0  0  0  0  0  0  0  0  0
   58.2866   30.8547   48.9987 H   0  0  0  0  0  0  0  0  0  0  0  0
   59.9193   31.5504   49.3909 H   0  0  0  0  0  0  0  0  0  0  0  0
   59.9580   30.7530   47.2190 H   0  0  0  0  0  0  0  0  0  0  0  0
   60.8960   29.6970   48.1510 H   0  0  0  0  0  0  0  0  0  0  0  0
   59.1183   28.0816   48.1879 H   0  0  0  0  0  0  0  0  0  0  0  0
   58.0561   29.2963   47.3408 H   0  0  0  0  0  0  0  0  0  0  0  0
   60.5619   27.9886   46.1896 H   0  0  0  0  0  0  0  0  0  0  0  0
   58.8327   27.5971   45.7801 H   0  0  0  0  0  0  0  0  0  0  0  0
   59.6031   30.4574   45.4927 H   0  0  0  0  0  0  0  0  0  0  0  0
   60.3888   29.2920   44.3396 H   0  0  0  0  0  0  0  0  0  0  0  0
   58.5290   29.7620   43.2110 H   0  0  0  0  0  0  0  0  0  0  0  0
   56.4070   30.3264   43.9998 H   0  0  0  0  0  0  0  0  0  0  0  0
   56.8794   29.8339   45.6713 H   0  0  0  0  0  0  0  0  0  0  0  0
   57.5420   31.4954   47.1644 H   0  0  0  0  0  0  0  0  0  0  0  0
   58.3504   33.8152   47.6083 H   0  0  0  0  0  0  0  0  0  0  0  0
   58.9950   35.3008   45.7098 H   0  0  0  0  0  0  0  0  0  0  0  0
   58.8204   34.4717   43.3596 H   0  0  0  0  0  0  0  0  0  0  0  0
   58.0074   32.1563   42.9057 H   0  0  0  0  0  0  0  0  0  0  0  0
   54.9360   28.9730   52.5910 H   0  0  0  0  0  0  0  0  0  0  0  0
   53.1493   30.3856   54.3678 H   0  0  0  0  0  0  0  0  0  0  0  0
   50.9700   31.5892   54.1787 H   0  0  0  0  0  0  0  0  0  0  0  0
   51.7494   32.3599   49.9955 H   0  0  0  0  0  0  0  0  0  0  0  0
   53.9265   31.1574   50.1741 H   0  0  0  0  0  0  0  0  0  0  0  0
  1  2  2  0
  2  3  1  0
  3  4  1  0
  4  5  1  0
  5  6  1  0
  6  7  1  0
  7  8  1  0
  8  9  1  0
  9 10  1  0
 10 11  1  0
 11 12  1  0
 12 13  1  0
 13 14  2  0
 14 15  1  0
 15 16  2  0
 16 17  1  0
 17 18  2  0
  2 19  1  0
 19 20  1  0
 20 21  2  0
 21 22  1  0
 22 23  2  0
 23 24  1  0
 23 25  1  0
 25 26  2  0
 18 13  1  0
 26 20  1  0
  1 27  1  0
  1 28  1  0
  3 29  1  0
  4 30  1  0
  4 31  1  0
  5 32  1  0
  5 33  1  0
  6 34  1  0
  6 35  1  0
  7 36  1  0
  7 37  1  0
  8 38  1  0
  8 39  1  0
  9 40  1  0
  9 41  1  0
 10 42  1  0
 10 43  1  0
 11 44  1  0
 12 45  1  0
 12 46  1  0
 14 47  1  0
 15 48  1  0
 16 49  1  0
 17 50  1  0
 18 51  1  0
 19 52  1  0
 21 53  1  0
 22 54  1  0
 25 55  1  0
 26 56  1  0
M  CHG  3   1   1   7   1  24  -1
M  END
>  <UniqueID>  (75) 
72

>  <SMILES>  (75) 
[NH2+]=C(NCCC[NH2+]CCCNCc1ccccc1)Nc1ccc([O-])cc1

>  <Energy>  (75) 
56.66041819601001

>  <Genealogy>  (75) 
[NH2+]=C(NCCC[NH2+]CCCNCc1ccccc1)Nc1ccc([O-])cc1 (protonated)
[NH2+]=C(NCCC[NH2+]CCCNCc1ccccc1)Nc1ccc([O-])cc1 (3D coordinates assigned)
[NH2+]=C(NCCC[NH2+]CCCNCc1ccccc1)Nc1ccc([O-])cc1 (optimized conformer: 56.66041819601001 kcal/mol)

>  <smiles>  (75) 
N=C(NCCCNCCCNCc1ccccc1)Nc1ccc(O)cc1

>  <score_type>  (75) 
oracle

>  <origin>  (75) 
adg

>  <m_score__min__energy>  (75) 
-8.2799999999999994

>  <m_primary>  (75) 
energy

$$$$
75:0
     RDKit          3D

 58 61  0  0  0  0  0  0  0  0999 V2000
   64.4550   32.1670   47.4830 H   0  0  0  0  0  0  0  0  0  0  0  0
   63.4130   32.1170   47.5420 N   0  0  0  0  0  0  0  0  0  0  0  0
   62.8170   33.7230   47.3170 S   0  0  0  0  0  0  0  0  0  0  0  0
   63.2320   34.5810   48.4790 O   0  0  0  0  0  0  0  0  0  0  0  0
   63.3960   34.3040   46.0570 O   0  0  0  0  0  0  0  0  0  0  0  0
   61.0610   33.6820   47.2030 C   0  0  0  0  0  0  0  0  0  0  0  0
   60.2880   33.4310   48.3450 C   0  0  0  0  0  0  0  0  0  0  0  0
   60.7797   33.2534   49.3128 H   0  0  0  0  0  0  0  0  0  0  0  0
   58.8940   33.4060   48.2560 C   0  0  0  0  0  0  0  0  0  0  0  0
   58.2909   33.2006   49.1527 H   0  0  0  0  0  0  0  0  0  0  0  0
   58.2640   33.6410   47.0320 C   0  0  0  0  0  0  0  0  0  0  0  0
   57.1664   33.6113   46.9663 H   0  0  0  0  0  0  0  0  0  0  0  0
   59.0260   33.9150   45.8850 C   0  0  0  0  0  0  0  0  0  0  0  0
   58.3510   34.1650   44.5600 C   0  0  0  0  0  0  0  0  0  0  0  0
   57.2722   34.3017   44.7256 H   0  0  0  0  0  0  0  0  0  0  0  0
   58.7879   35.0676   44.1080 H   0  0  0  0  0  0  0  0  0  0  0  0
   58.5570   33.0380   43.6470 N   0  0  0  0  0  0  0  0  0  0  0  0
   57.9860   31.8660   43.6990 C   0  0  0  0  0  0  0  0  0  0  0  0
   58.3390   31.0200   44.7040 N   0  0  0  0  0  0  0  0  0  0  0  0
   57.8110   29.7720   44.8330 C   0  0  0  0  0  0  0  0  0  0  0  0
   58.2280   28.9220   45.9690 C   0  0  0  0  0  0  0  0  0  0  0  0
   58.3520   27.5220   45.8560 C   0  0  0  0  0  0  0  0  0  0  0  0
   58.1110   26.6720   44.3320 Cl  0  0  0  0  0  0  0  0  0  0  0  0
   58.7450   26.7810   46.9740 C   0  0  0  0  0  0  0  0  0  0  0  0
   58.8375   25.6873   46.9008 H   0  0  0  0  0  0  0  0  0  0  0  0
   59.0130   27.4040   48.1490 N   0  0  0  0  0  0  0  0  0  0  0  0
   58.9180   28.7540   48.2900 C   0  0  0  0  0  0  0  0  0  0  0  0
   59.1860   29.3350   49.4240 N   0  0  0  0  0  0  0  0  0  0  0  0
   59.9810   30.5520   49.6400 C   0  0  1  0  0  0  0  0  0  0  0  0
   59.5008   31.3679   49.0800 H   0  0  0  0  0  0  0  0  0  0  0  0
   59.9630   30.9810   51.1210 C   0  0  0  0  0  0  0  0  0  0  0  0
   60.2727   30.1332   51.7497 H   0  0  0  0  0  0  0  0  0  0  0  0
   58.9447   31.2951   51.3939 H   0  0  0  0  0  0  0  0  0  0  0  0
   60.9250   32.1510   51.3380 C   0  0  0  0  0  0  0  0  0  0  0  0
   60.8711   32.4612   52.3920 H   0  0  0  0  0  0  0  0  0  0  0  0
   60.6213   32.9633   50.6612 H   0  0  0  0  0  0  0  0  0  0  0  0
   62.3960   31.7820   51.0020 C   0  0  2  0  0  0  0  0  0  0  0  0
   62.8800   31.5250   51.9558 H   0  0  0  0  0  0  0  0  0  0  0  0
   63.0900   32.9280   50.4010 N   0  0  0  0  0  0  0  0  0  0  0  0
   62.4300   33.7340   50.3040 H   0  0  0  0  0  0  0  0  0  0  0  0
   63.9010   33.2180   50.9930 H   0  0  0  0  0  0  0  0  0  0  0  0
   63.4330   32.6730   49.4460 H   0  0  0  0  0  0  0  0  0  0  0  0
   62.5220   30.5260   50.0990 C   0  0  0  0  0  0  0  0  0  0  0  0
   62.4736   29.6299   50.7352 H   0  0  0  0  0  0  0  0  0  0  0  0
   63.4813   30.5976   49.5655 H   0  0  0  0  0  0  0  0  0  0  0  0
   61.4110   30.4370   49.0410 C   0  0  0  0  0  0  0  0  0  0  0  0
   61.4967   29.4692   48.5252 H   0  0  0  0  0  0  0  0  0  0  0  0
   61.5460   31.2858   48.3545 H   0  0  0  0  0  0  0  0  0  0  0  0
   58.5310   29.5340   47.1960 C   0  0  0  0  0  0  0  0  0  0  0  0
   58.4639   30.6273   47.2965 H   0  0  0  0  0  0  0  0  0  0  0  0
   56.8390   29.3380   43.9210 C   0  0  0  0  0  0  0  0  0  0  0  0
   56.3851   28.3415   44.0254 H   0  0  0  0  0  0  0  0  0  0  0  0
   56.4530   30.1820   42.8800 C   0  0  0  0  0  0  0  0  0  0  0  0
   55.6980   29.8481   42.1530 H   0  0  0  0  0  0  0  0  0  0  0  0
   57.0230   31.4480   42.7600 C   0  0  0  0  0  0  0  0  0  0  0  0
   56.7233   32.1154   41.9386 H   0  0  0  0  0  0  0  0  0  0  0  0
   60.4280   33.9240   45.9760 C   0  0  0  0  0  0  0  0  0  0  0  0
   61.0327   34.1222   45.0787 H   0  0  0  0  0  0  0  0  0  0  0  0
  1  2  1  0
  2  3  1  0
  3  4  2  0
  3  5  2  0
  3  6  1  0
  6  7  2  0
  7  8  1  0
  7  9  1  0
  9 10  1  0
  9 11  2  0
 11 12  1  0
 11 13  1  0
 13 14  1  0
 14 15  1  0
 14 16  1  0
 14 17  1  0
 17 18  2  3
 18 19  1  0
 19 20  1  0
 20 21  1  0
 21 22  1  0
 22 23  1  0
 22 24  2  0
 24 25  1  0
 24 26  1  0
 26 27  1  0
 27 28  2  0
 28 29  1  0
 29 30  1  6
 29 31  1  0
 31 32  1  0
 31 33  1  0
 31 34  1  0
 34 35  1  0
 34 36  1  0
 34 37  1  0
 37 38  1  1
 37 39  1  0
 39 40  1  0
 39 41  1  0
 39 42  1  0
 37 43  1  0
 43 44  1  0
 43 45  1  0
 43 46  1  0
 46 47  1  0
 46 48  1  0
 27 49  1  0
 49 50  1  0
 20 51  2  0
 51 52  1  0
 51 53  1  0
 53 54  1  0
 53 55  2  0
 55 56  1  0
 13 57  2  0
 57 58  1  0
 57  6  1  0
 55 18  1  0
 49 21  2  0
 46 29  1  0
M  CHG  4   2  -1  19  -1  26  -1  39   1
M  END
>  <UniqueID>  (76) 
73

>  <SMILES>  (76) 
[NH-]S(=O)(=O)c1cccc(CN=c2cccc(-c3c/c(=N/C4CCC([NH3+])CC4)[n-]cc3Cl)[n-]2)c1

>  <Energy>  (76) 
75.8714232997704

>  <Genealogy>  (76) 
[NH-]S(=O)(=O)c1cccc(CN=c2cccc(-c3cc(=NC4CCC([NH3+])CC4)[n-]cc3Cl)[n-]2)c1 (protonated)
[NH-]S(=O)(=O)c1cccc(CN=c2cccc(-c3c/c(=N/C4CCC([NH3+])CC4)[n-]cc3Cl)[n-]2)c1 (cis-trans isomerization)
[NH-]S(=O)(=O)c1cccc(CN=c2cccc(-c3c/c(=N/C4CCC([NH3+])CC4)[n-]cc3Cl)[n-]2)c1 (3D coordinates assigned)
[NH-]S(=O)(=O)c1cccc(CN=c2cccc(-c3c/c(=N/C4CCC([NH3+])CC4)[n-]cc3Cl)[n-]2)c1 (nonaromatic ring conformer: 75.8714232997704 kcal/mol)

>  <smiles>  (76) 
NC1CCC(N=c2cc(-c3cccc(=NCc4cccc(S(N)(=O)=O)c4)[nH]3)c(Cl)c[nH]2)CC1

>  <score_type>  (76) 
oracle

>  <origin>  (76) 
adg

>  <m_score__min__energy>  (76) 
-14.109999999999999

>  <m_primary>  (76) 
energy

$$$$
76:0
     RDKit          3D

 45 48  0  0  0  0  0  0  0  0999 V2000
   64.0860   34.0620   52.0840 N   0  0  0  0  0  0  0  0  0  0  0  0
   63.6410   33.7790   50.7550 C   0  0  0  0  0  0  0  0  0  0  0  0
   64.5530   33.3400   49.7860 C   0  0  0  0  0  0  0  0  0  0  0  0
   64.1230   33.0860   48.4800 C   0  0  0  0  0  0  0  0  0  0  0  0
   62.7810   33.2700   48.1350 C   0  0  0  0  0  0  0  0  0  0  0  0
   61.8560   33.7120   49.0980 C   0  0  0  0  0  0  0  0  0  0  0  0
   60.4680   33.8940   48.7670 N   0  0  0  0  0  0  0  0  0  0  0  0
   59.8720   33.4210   47.5490 C   0  0  0  0  0  0  0  0  0  0  0  0
   59.9910   32.0670   47.2100 C   0  0  0  0  0  0  0  0  0  0  0  0
   59.4450   31.5750   46.0130 C   0  0  0  0  0  0  0  0  0  0  0  0
   59.6150   30.1530   45.6340 C   0  0  0  0  0  0  0  0  0  0  0  0
   60.7530   29.6180   45.7320 O   0  0  0  0  0  0  0  0  0  0  0  0
   58.5010   29.3560   45.1890 N   0  0  0  0  0  0  0  0  0  0  0  0
   57.5220   29.9480   44.2610 C   0  0  0  0  0  0  0  0  0  0  0  0
   56.1250   29.5220   44.6040 C   0  0  0  0  0  0  0  0  0  0  0  0
   55.1480   30.2310   44.2560 O   0  0  0  0  0  0  0  0  0  0  0  0
   55.8970   28.2710   45.2530 N   0  0  0  0  0  0  0  0  0  0  0  0
   56.9900   27.4910   45.7340 C   0  0  0  0  0  0  0  0  0  0  0  0
   56.7620   26.2100   46.2480 C   0  0  0  0  0  0  0  0  0  0  0  0
   57.8310   25.4460   46.7260 C   0  0  0  0  0  0  0  0  0  0  0  0
   59.1290   25.9610   46.6950 C   0  0  0  0  0  0  0  0  0  0  0  0
   59.3640   27.2430   46.1880 C   0  0  0  0  0  0  0  0  0  0  0  0
   58.2930   28.0230   45.7070 C   0  0  0  0  0  0  0  0  0  0  0  0
   58.7290   32.4490   45.1790 C   0  0  0  0  0  0  0  0  0  0  0  0
   58.5800   33.7920   45.5260 C   0  0  0  0  0  0  0  0  0  0  0  0
   59.1430   34.2850   46.7100 C   0  0  0  0  0  0  0  0  0  0  0  0
   58.9650   35.6230   47.0620 O   0  0  0  0  0  0  0  0  0  0  0  0
   62.2920   33.9510   50.4080 C   0  0  0  0  0  0  0  0  0  0  0  0
   63.4530   33.9170   52.9010 H   0  0  0  0  0  0  0  0  0  0  0  0
   65.0500   34.4230   52.2610 H   0  0  0  0  0  0  0  0  0  0  0  0
   65.6101   33.1948   50.0535 H   0  0  0  0  0  0  0  0  0  0  0  0
   64.8422   32.7407   47.7226 H   0  0  0  0  0  0  0  0  0  0  0  0
   62.4471   33.0684   47.1065 H   0  0  0  0  0  0  0  0  0  0  0  0
   59.8420   34.3240   49.4850 H   0  0  0  0  0  0  0  0  0  0  0  0
   60.5183   31.3810   47.8892 H   0  0  0  0  0  0  0  0  0  0  0  0
   57.5880   31.0444   44.3209 H   0  0  0  0  0  0  0  0  0  0  0  0
   57.7524   29.6013   43.2428 H   0  0  0  0  0  0  0  0  0  0  0  0
   55.7403   25.8033   46.2761 H   0  0  0  0  0  0  0  0  0  0  0  0
   57.6495   24.4379   47.1270 H   0  0  0  0  0  0  0  0  0  0  0  0
   59.9682   25.3569   47.0702 H   0  0  0  0  0  0  0  0  0  0  0  0
   60.3880   27.6440   46.1645 H   0  0  0  0  0  0  0  0  0  0  0  0
   58.2830   32.0725   44.2466 H   0  0  0  0  0  0  0  0  0  0  0  0
   58.0169   34.4679   44.8657 H   0  0  0  0  0  0  0  0  0  0  0  0
   58.8420   35.9060   48.0280 H   0  0  0  0  0  0  0  0  0  0  0  0
   61.5702   34.2765   51.1716 H   0  0  0  0  0  0  0  0  0  0  0  0
  1  2  1  0
  2  3  2  0
  3  4  1  0
  4  5  2  0
  5  6  1  0
  6  7  1  0
  7  8  1  0
  8  9  2  0
  9 10  1  0
 10 11  1  0
 11 12  2  0
 11 13  1  0
 13 14  1  0
 14 15  1  0
 15 16  2  0
 15 17  1  0
 17 18  1  0
 18 19  2  0
 19 20  1  0
 20 21  2  0
 21 22  1  0
 22 23  2  0
 10 24  2  0
 24 25  1  0
 25 26  2  0
 26 27  1  0
  6 28  2  0
 28  2  1  0
 26  8  1  0
 23 13  1  0
 23 18  1  0
  1 29  1  0
  1 30  1  0
  3 31  1  0
  4 32  1  0
  5 33  1  0
  7 34  1  0
  9 35  1  0
 14 36  1  0
 14 37  1  0
 19 38  1  0
 20 39  1  0
 21 40  1  0
 22 41  1  0
 24 42  1  0
 25 43  1  0
 27 44  1  0
 28 45  1  0
M  CHG  1  17  -1
M  END
>  <UniqueID>  (77) 
74

>  <SMILES>  (77) 
Nc1cccc(Nc2cc(C(=O)N3CC(=O)[N-]c4ccccc43)ccc2O)c1

>  <Energy>  (77) 
64.3297317479783

>  <Genealogy>  (77) 
Nc1cccc(Nc2cc(C(=O)N3CC(=O)[N-]c4ccccc43)ccc2O)c1 (protonated)
Nc1cccc(Nc2cc(C(=O)N3CC(=O)[N-]c4ccccc43)ccc2O)c1 (3D coordinates assigned)
Nc1cccc(Nc2cc(C(=O)N3CC(=O)[N-]c4ccccc43)ccc2O)c1 (nonaromatic ring conformer: 64.3297317479783 kcal/mol)

>  <smiles>  (77) 
Nc1cccc(Nc2cc(C(=O)N3CC(=O)Nc4ccccc43)ccc2O)c1

>  <score_type>  (77) 
oracle

>  <origin>  (77) 
adg

>  <m_score__min__energy>  (77) 
-10.470000000000001

>  <m_primary>  (77) 
energy

$$$$
77:0
     RDKit          3D

 44 46  0  0  0  0  0  0  0  0999 V2000
   54.2720   29.0110   52.0790 O   0  0  0  0  0  0  0  0  0  0  0  0
   54.1590   30.2410   51.8170 C   0  0  0  0  0  0  0  0  0  0  0  0
   53.0980   30.7070   50.8690 C   0  0  0  0  0  0  0  0  0  0  0  0
   52.0040   31.4170   51.6080 C   0  0  0  0  0  0  0  0  0  0  0  0
   51.7420   31.2520   52.9180 N   0  0  0  0  0  0  0  0  0  0  0  0
   50.6780   32.0580   53.1260 C   0  0  0  0  0  0  0  0  0  0  0  0
   50.1350   32.1850   54.2530 O   0  0  0  0  0  0  0  0  0  0  0  0
   50.2440   32.7190   52.0310 N   0  0  0  0  0  0  0  0  0  0  0  0
   51.0920   32.2990   51.0780 C   0  0  0  0  0  0  0  0  0  0  0  0
   51.0340   32.7180   49.7540 O   0  0  0  0  0  0  0  0  0  0  0  0
   55.0130   31.1990   52.4520 N   0  0  0  0  0  0  0  0  0  0  0  0
   56.3690   30.8980   52.8940 C   0  0  0  0  0  0  0  0  0  0  0  0
   57.3480   31.7900   52.1810 C   0  0  0  0  0  0  0  0  0  0  0  0
   57.8160   32.9550   52.8070 C   0  0  0  0  0  0  0  0  0  0  0  0
   58.6860   33.8160   52.1350 C   0  0  0  0  0  0  0  0  0  0  0  0
   59.0890   33.5270   50.8280 C   0  0  0  0  0  0  0  0  0  0  0  0
   58.6450   32.3560   50.1880 C   0  0  0  0  0  0  0  0  0  0  0  0
   59.0370   32.0410   48.7900 C   0  0  0  0  0  0  0  0  0  0  0  0
   58.7940   30.8840   48.3590 O   0  0  0  0  0  0  0  0  0  0  0  0
   59.7240   33.0450   47.9260 C   0  0  0  0  0  0  0  0  0  0  0  0
   59.0170   33.9400   47.3850 O   0  0  0  0  0  0  0  0  0  0  0  0
   61.1580   33.0600   47.6940 N   0  0  0  0  0  0  0  0  0  0  0  0
   62.0900   32.5270   48.7070 C   0  0  0  0  0  0  0  0  0  0  0  0
   63.5710   32.7150   48.3420 C   0  0  0  0  0  0  0  0  0  0  0  0
   63.7890   33.9110   47.6330 O   0  0  0  0  0  0  0  0  0  0  0  0
   63.1490   33.8090   46.3830 C   0  0  0  0  0  0  0  0  0  0  0  0
   61.6350   33.8780   46.5640 C   0  0  0  0  0  0  0  0  0  0  0  0
   57.7570   31.5020   50.8690 C   0  0  0  0  0  0  0  0  0  0  0  0
   53.5449   31.3952   50.1364 H   0  0  0  0  0  0  0  0  0  0  0  0
   52.6703   29.8319   50.3579 H   0  0  0  0  0  0  0  0  0  0  0  0
   56.4451   31.0658   53.9785 H   0  0  0  0  0  0  0  0  0  0  0  0
   56.6009   29.8476   52.6638 H   0  0  0  0  0  0  0  0  0  0  0  0
   57.4960   33.1914   53.8325 H   0  0  0  0  0  0  0  0  0  0  0  0
   59.0550   34.7236   52.6351 H   0  0  0  0  0  0  0  0  0  0  0  0
   59.7578   34.2200   50.2966 H   0  0  0  0  0  0  0  0  0  0  0  0
   61.8989   33.0419   49.6601 H   0  0  0  0  0  0  0  0  0  0  0  0
   61.9095   31.4439   48.7723 H   0  0  0  0  0  0  0  0  0  0  0  0
   64.1653   32.7368   49.2674 H   0  0  0  0  0  0  0  0  0  0  0  0
   63.8722   31.8765   47.6969 H   0  0  0  0  0  0  0  0  0  0  0  0
   63.4767   34.6371   45.7374 H   0  0  0  0  0  0  0  0  0  0  0  0
   63.4136   32.8471   45.9195 H   0  0  0  0  0  0  0  0  0  0  0  0
   61.3495   34.9252   46.7427 H   0  0  0  0  0  0  0  0  0  0  0  0
   61.1730   33.4803   45.6483 H   0  0  0  0  0  0  0  0  0  0  0  0
   57.3792   30.5987   50.3676 H   0  0  0  0  0  0  0  0  0  0  0  0
  1  2  2  0
  2  3  1  0
  3  4  1  0
  4  5  1  0
  5  6  1  0
  6  7  2  0
  6  8  1  0
  8  9  1  0
  9 10  1  0
  2 11  1  0
 11 12  1  0
 12 13  1  0
 13 14  2  0
 14 15  1  0
 15 16  2  0
 16 17  1  0
 17 18  1  0
 18 19  2  0
 18 20  1  0
 20 21  2  0
 20 22  1  0
 22 23  1  0
 23 24  1  0
 24 25  1  0
 25 26  1  0
 26 27  1  0
 17 28  2  0
  9  4  2  0
 28 13  1  0
 27 22  1  0
  3 29  1  0
  3 30  1  0
 12 31  1  0
 12 32  1  0
 14 33  1  0
 15 34  1  0
 16 35  1  0
 23 36  1  0
 23 37  1  0
 24 38  1  0
 24 39  1  0
 26 40  1  0
 26 41  1  0
 27 42  1  0
 27 43  1  0
 28 44  1  0
M  CHG  4   5  -1   8  -1  10  -1  11  -1
M  END
>  <UniqueID>  (78) 
75

>  <SMILES>  (78) 
O=C(Cc1[n-]c(=O)[n-]c1[O-])[N-]Cc1cccc(C(=O)C(=O)N2CCOCC2)c1

>  <Energy>  (78) 
82.66609413385736

>  <Genealogy>  (78) 
O=C(Cc1[n-]c(=O)[n-]c1[O-])[N-]Cc1cccc(C(=O)C(=O)N2CCOCC2)c1 (protonated)
O=C(Cc1[n-]c(=O)[n-]c1[O-])[N-]Cc1cccc(C(=O)C(=O)N2CCOCC2)c1 (3D coordinates assigned)
O=C(Cc1[n-]c(=O)[n-]c1[O-])[N-]Cc1cccc(C(=O)C(=O)N2CCOCC2)c1 (nonaromatic ring conformer: 82.66609413385736 kcal/mol)

>  <smiles>  (78) 
O=C(Cc1[nH]c(=O)[nH]c1O)NCc1cccc(C(=O)C(=O)N2CCOCC2)c1

>  <score_type>  (78) 
oracle

>  <origin>  (78) 
adg

>  <m_score__min__energy>  (78) 
-18.43

>  <m_primary>  (78) 
energy

$$$$
78:0
     RDKit          3D

 63 66  0  0  0  0  0  0  0  0999 V2000
   69.3900   25.5140   49.3950 C   0  0  0  0  0  0  0  0  0  0  0  0
   68.6340   25.6100   50.6400 N   0  0  0  0  0  0  0  0  0  0  0  0
   67.9280   26.7940   51.0530 C   0  0  0  0  0  0  0  0  0  0  0  0
   67.0900   26.8010   52.1850 C   0  0  0  0  0  0  0  0  0  0  0  0
   66.4150   27.9670   52.5590 C   0  0  0  0  0  0  0  0  0  0  0  0
   66.5660   29.1410   51.8090 C   0  0  0  0  0  0  0  0  0  0  0  0
   65.7000   30.6110   52.2480 S   0  0  0  0  0  0  0  0  0  0  0  0
   64.7960   30.3530   53.4210 O   0  0  0  0  0  0  0  0  0  0  0  0
   66.7020   31.6650   52.6290 O   0  0  0  0  0  0  0  0  0  0  0  0
   64.7570   31.1530   50.8830 N   0  0  0  0  0  0  0  0  0  0  0  0
   63.3820   31.4590   51.3070 C   0  0  0  0  0  0  0  0  0  0  0  0
   62.5110   31.6580   50.0620 C   0  0  0  0  0  0  0  0  0  0  0  0
   63.2640   32.3500   49.0040 N   0  0  0  0  0  0  0  0  0  0  0  0
   62.9810   32.0890   47.6150 C   0  0  0  0  0  0  0  0  0  0  0  0
   63.9270   32.0630   46.7810 O   0  0  0  0  0  0  0  0  0  0  0  0
   61.6040   31.8220   47.1410 C   0  0  0  0  0  0  0  0  0  0  0  0
   61.2020   30.5090   46.8620 C   0  0  0  0  0  0  0  0  0  0  0  0
   59.8970   30.2400   46.4270 C   0  0  0  0  0  0  0  0  0  0  0  0
   59.4880   28.8480   46.1460 C   0  0  0  0  0  0  0  0  0  0  0  0
   59.4720   28.4540   44.9470 O   0  0  0  0  0  0  0  0  0  0  0  0
   59.1260   27.9350   47.2010 N   0  0  0  0  0  0  0  0  0  0  0  0
   59.6850   28.0920   48.5490 C   0  0  0  0  0  0  0  0  0  0  0  0
   58.3110   26.7610   46.8780 C   0  0  0  0  0  0  0  0  0  0  0  0
   59.0030   31.3020   46.2250 C   0  0  0  0  0  0  0  0  0  0  0  0
   59.3950   32.6340   46.4820 C   0  0  0  0  0  0  0  0  0  0  0  0
   58.4820   33.8330   46.2890 C   0  0  0  0  0  0  0  0  0  0  0  0
   58.5750   34.5900   44.9700 C   0  0  0  0  0  0  0  0  0  0  0  0
   57.3740   33.6970   45.2550 C   0  0  0  0  0  0  0  0  0  0  0  0
   60.7010   32.8770   46.9360 C   0  0  0  0  0  0  0  0  0  0  0  0
   64.4310   33.1540   49.3890 C   0  0  0  0  0  0  0  0  0  0  0  0
   65.4050   32.3250   50.2540 C   0  0  0  0  0  0  0  0  0  0  0  0
   67.3970   29.1400   50.6830 C   0  0  0  0  0  0  0  0  0  0  0  0
   68.0740   27.9770   50.3090 C   0  0  0  0  0  0  0  0  0  0  0  0
   70.4574   25.3785   49.6237 H   0  0  0  0  0  0  0  0  0  0  0  0
   69.0280   24.6546   48.8116 H   0  0  0  0  0  0  0  0  0  0  0  0
   69.2543   26.4366   48.8116 H   0  0  0  0  0  0  0  0  0  0  0  0
   68.6110   24.7670   51.2580 H   0  0  0  0  0  0  0  0  0  0  0  0
   66.9657   25.8833   52.7787 H   0  0  0  0  0  0  0  0  0  0  0  0
   65.7632   27.9627   53.4451 H   0  0  0  0  0  0  0  0  0  0  0  0
   62.9859   30.6252   51.9052 H   0  0  0  0  0  0  0  0  0  0  0  0
   63.3752   32.3745   51.9167 H   0  0  0  0  0  0  0  0  0  0  0  0
   62.1846   30.6759   49.6892 H   0  0  0  0  0  0  0  0  0  0  0  0
   61.6401   32.2721   50.3349 H   0  0  0  0  0  0  0  0  0  0  0  0
   61.9168   29.6821   46.9854 H   0  0  0  0  0  0  0  0  0  0  0  0
   58.9076   27.8737   49.2960 H   0  0  0  0  0  0  0  0  0  0  0  0
   60.5260   27.3953   48.6806 H   0  0  0  0  0  0  0  0  0  0  0  0
   60.0403   29.1247   48.6806 H   0  0  0  0  0  0  0  0  0  0  0  0
   57.9767   26.2794   47.8087 H   0  0  0  0  0  0  0  0  0  0  0  0
   57.4344   27.0733   46.2914 H   0  0  0  0  0  0  0  0  0  0  0  0
   58.9100   26.0489   46.2914 H   0  0  0  0  0  0  0  0  0  0  0  0
   57.9854   31.0948   45.8624 H   0  0  0  0  0  0  0  0  0  0  0  0
   58.5315   34.1186   47.3501 H   0  0  0  0  0  0  0  0  0  0  0  0
   58.4561   35.6834   44.9536 H   0  0  0  0  0  0  0  0  0  0  0  0
   59.3194   34.6592   44.1631 H   0  0  0  0  0  0  0  0  0  0  0  0
   56.3876   34.1457   45.4438 H   0  0  0  0  0  0  0  0  0  0  0  0
   56.8918   32.8540   44.7383 H   0  0  0  0  0  0  0  0  0  0  0  0
   61.0217   33.9104   47.1342 H   0  0  0  0  0  0  0  0  0  0  0  0
   64.9523   33.4912   48.4810 H   0  0  0  0  0  0  0  0  0  0  0  0
   64.0863   34.0186   49.9753 H   0  0  0  0  0  0  0  0  0  0  0  0
   66.2280   31.9712   49.6157 H   0  0  0  0  0  0  0  0  0  0  0  0
   65.7673   32.9770   51.0625 H   0  0  0  0  0  0  0  0  0  0  0  0
   67.5175   30.0587   50.0902 H   0  0  0  0  0  0  0  0  0  0  0  0
   68.7273   27.9873   49.4241 H   0  0  0  0  0  0  0  0  0  0  0  0
  1  2  1  0
  2  3  1  0
  3  4  2  0
  4  5  1  0
  5  6  2  0
  6  7  1  0
  7  8  2  0
  7  9  2  0
  7 10  1  0
 10 11  1  0
 11 12  1  0
 12 13  1  0
 13 14  1  0
 14 15  2  0
 14 16  1  0
 16 17  2  0
 17 18  1  0
 18 19  1  0
 19 20  2  0
 19 21  1  0
 21 22  1  0
 21 23  1  0
 18 24  2  0
 24 25  1  0
 25 26  1  0
 26 27  1  0
 27 28  1  0
 25 29  2  0
 13 30  1  0
 30 31  1  0
  6 32  1  0
 32 33  2  0
 33  3  1  0
 31 10  1  0
 29 16  1  0
 28 26  1  0
  1 34  1  0
  1 35  1  0
  1 36  1  0
  2 37  1  0
  4 38  1  0
  5 39  1  0
 11 40  1  0
 11 41  1  0
 12 42  1  0
 12 43  1  0
 17 44  1  0
 22 45  1  0
 22 46  1  0
 22 47  1  0
 23 48  1  0
 23 49  1  0
 23 50  1  0
 24 51  1  0
 26 52  1  0
 27 53  1  0
 27 54  1  0
 28 55  1  0
 28 56  1  0
 29 57  1  0
 30 58  1  0
 30 59  1  0
 31 60  1  0
 31 61  1  0
 32 62  1  0
 33 63  1  0
M  END
>  <UniqueID>  (79) 
76

>  <SMILES>  (79) 
CNc1ccc(S(=O)(=O)N2CCN(C(=O)c3cc(C(=O)N(C)C)cc(C4CC4)c3)CC2)cc1

>  <Energy>  (79) 
343.0339679066198

>  <Genealogy>  (79) 
CNc1ccc(S(=O)(=O)N2CCN(C(=O)c3cc(C(=O)N(C)C)cc(C4CC4)c3)CC2)cc1 (3D coordinates assigned)
CNc1ccc(S(=O)(=O)N2CCN(C(=O)c3cc(C(=O)N(C)C)cc(C4CC4)c3)CC2)cc1 (nonaromatic ring conformer: 343.0339679066198 kcal/mol)

>  <smiles>  (79) 
CNc1ccc(S(=O)(=O)N2CCN(C(=O)c3cc(C(=O)N(C)C)cc(C4CC4)c3)CC2)cc1

>  <score_type>  (79) 
oracle

>  <origin>  (79) 
adg

>  <m_score__min__energy>  (79) 
-9.7799999999999994

>  <m_primary>  (79) 
energy

$$$$
79:0
     RDKit          3D

 44 47  0  0  0  0  0  0  0  0999 V2000
   54.2270   26.7100   45.9550 H   0  0  0  0  0  0  0  0  0  0  0  0
   55.2210   26.8990   45.9650 O   0  0  0  0  0  0  0  0  0  0  0  0
   56.1390   25.9780   46.4650 C   0  0  0  0  0  0  0  0  0  0  0  0
   55.8130   24.7150   46.7840 N   0  0  0  0  0  0  0  0  0  0  0  0
   56.9820   24.2040   47.2180 C   0  0  0  0  0  0  0  0  0  0  0  0
   57.0970   23.0160   47.6180 O   0  0  0  0  0  0  0  0  0  0  0  0
   58.0190   25.0660   47.1940 N   0  0  0  0  0  0  0  0  0  0  0  0
   57.4810   26.1970   46.7020 C   0  0  0  0  0  0  0  0  0  0  0  0
   58.1960   27.4820   46.5460 C   0  0  0  0  0  0  0  0  0  0  0  0
   59.1315   27.6132   47.1095 H   0  0  0  0  0  0  0  0  0  0  0  0
   57.7920   28.5030   45.7690 C   0  0  0  0  0  0  0  0  0  0  0  0
   58.2460   29.8030   45.9120 C   0  0  0  0  0  0  0  0  0  0  0  0
   58.9815   30.1661   46.6449 H   0  0  0  0  0  0  0  0  0  0  0  0
   57.5930   30.5560   44.9520 C   0  0  0  0  0  0  0  0  0  0  0  0
   57.8170   31.9940   44.6970 C   0  0  0  0  0  0  0  0  0  0  0  0
   57.3840   32.5060   43.6300 O   0  0  0  0  0  0  0  0  0  0  0  0
   58.5460   32.8090   45.6330 N   0  0  0  0  0  0  0  0  0  0  0  0
   59.2990   33.9720   45.1500 C   0  0  0  0  0  0  0  0  0  0  0  0
   59.5916   33.8066   44.1026 H   0  0  0  0  0  0  0  0  0  0  0  0
   58.6649   34.8677   45.2245 H   0  0  0  0  0  0  0  0  0  0  0  0
   60.5590   34.1760   46.0030 C   0  0  0  0  0  0  0  0  0  0  0  0
   61.2899   33.3970   45.7405 H   0  0  0  0  0  0  0  0  0  0  0  0
   60.9406   35.1855   45.7902 H   0  0  0  0  0  0  0  0  0  0  0  0
   60.2910   34.1010   47.4590 N   0  0  0  0  0  0  0  0  0  0  0  0
   61.4140   33.5670   48.2710 C   0  0  0  0  0  0  0  0  0  0  0  0
   60.9740   33.8983   49.2232 H   0  0  0  0  0  0  0  0  0  0  0  0
   62.7780   33.6200   47.5880 C   0  0  0  0  0  0  0  0  0  0  0  0
   62.8645   34.0158   46.5653 H   0  0  0  0  0  0  0  0  0  0  0  0
   63.7553   34.0565   47.8416 H   0  0  0  0  0  0  0  0  0  0  0  0
   62.1130   32.2780   47.8260 C   0  0  0  0  0  0  0  0  0  0  0  0
   61.7164   31.7026   46.9765 H   0  0  0  0  0  0  0  0  0  0  0  0
   62.4073   31.3419   48.3231 H   0  0  0  0  0  0  0  0  0  0  0  0
   58.9010   33.8180   47.8690 C   0  0  0  0  0  0  0  0  0  0  0  0
   58.8873   33.5687   48.9403 H   0  0  0  0  0  0  0  0  0  0  0  0
   58.2917   34.7118   47.6691 H   0  0  0  0  0  0  0  0  0  0  0  0
   58.3130   32.6450   47.0760 C   0  0  0  0  0  0  0  0  0  0  0  0
   58.7870   31.7110   47.4122 H   0  0  0  0  0  0  0  0  0  0  0  0
   57.2277   32.6143   47.2525 H   0  0  0  0  0  0  0  0  0  0  0  0
   56.7660   29.6760   44.2630 C   0  0  0  0  0  0  0  0  0  0  0  0
   55.9270   29.9800   43.2700 C   0  0  0  0  0  0  0  0  0  0  0  0
   55.8686   31.0129   42.8961 H   0  0  0  0  0  0  0  0  0  0  0  0
   55.2942   29.1976   42.8257 H   0  0  0  0  0  0  0  0  0  0  0  0
   56.8870   28.4310   44.7680 N   0  0  0  0  0  0  0  0  0  0  0  0
   56.3420   27.5990   44.4520 H   0  0  0  0  0  0  0  0  0  0  0  0
  1  2  1  0
  2  3  1  0
  3  4  1  0
  4  5  1  0
  5  6  2  0
  5  7  1  0
  7  8  1  0
  8  9  1  0
  9 10  1  0
  9 11  2  0
 11 12  1  0
 12 13  1  0
 12 14  2  0
 14 15  1  0
 15 16  2  0
 15 17  1  0
 17 18  1  0
 18 19  1  0
 18 20  1  0
 18 21  1  0
 21 22  1  0
 21 23  1  0
 21 24  1  0
 24 25  1  0
 25 26  1  0
 25 27  1  0
 27 28  1  0
 27 29  1  0
 27 30  1  0
 30 31  1  0
 30 32  1  0
 24 33  1  0
 33 34  1  0
 33 35  1  0
 33 36  1  0
 36 37  1  0
 36 38  1  0
 14 39  1  0
 39 40  2  0
 40 41  1  0
 40 42  1  0
 39 43  1  0
 43 44  1  0
  8  3  2  0
 43 11  1  0
 36 17  1  0
 30 25  1  0
M  CHG  2   4  -1   7  -1
M  END
>  <UniqueID>  (80) 
77

>  <SMILES>  (80) 
C=c1[nH]/c(=C\c2[n-]c(=O)[n-]c2O)cc1C(=O)N1CCN(C2CC2)CC1

>  <Energy>  (80) 
391.8142327585429

>  <Genealogy>  (80) 
C=c1[nH]c(=Cc2[n-]c(=O)[n-]c2O)cc1C(=O)N1CCN(C2CC2)CC1 (protonated)
C=c1[nH]/c(=C\c2[n-]c(=O)[n-]c2O)cc1C(=O)N1CCN(C2CC2)CC1 (cis-trans isomerization)
C=c1[nH]/c(=C\c2[n-]c(=O)[n-]c2O)cc1C(=O)N1CCN(C2CC2)CC1 (3D coordinates assigned)
C=c1[nH]/c(=C\c2[n-]c(=O)[n-]c2O)cc1C(=O)N1CCN(C2CC2)CC1 (nonaromatic ring conformer: 391.8142327585429 kcal/mol)

>  <smiles>  (80) 
C=c1[nH]c(=Cc2[nH]c(=O)[nH]c2O)cc1C(=O)N1CCN(C2CC2)CC1

>  <score_type>  (80) 
oracle

>  <origin>  (80) 
adg

>  <m_score__min__energy>  (80) 
-13.9

>  <m_primary>  (80) 
energy

$$$$
80:0
     RDKit          3D

 51 53  0  0  0  0  0  0  0  0999 V2000
   57.5950   30.6230   44.3660 C   0  0  0  0  0  0  0  0  0  0  0  0
   58.1730   30.4470   45.5660 C   0  0  0  0  0  0  0  0  0  0  0  0
   58.6540   29.2210   46.0570 C   0  0  0  0  0  0  0  0  0  0  0  0
   58.4550   27.9560   45.6350 C   0  0  0  0  0  0  0  0  0  0  0  0
   57.2870   27.1180   45.9550 C   0  0  0  0  0  0  0  0  0  0  0  0
   57.3500   25.8610   46.4330 N   0  0  0  0  0  0  0  0  0  0  0  0
   56.0590   25.4640   46.4370 C   0  0  0  0  0  0  0  0  0  0  0  0
   55.7020   24.3270   46.8400 O   0  0  0  0  0  0  0  0  0  0  0  0
   55.1840   26.3780   45.9680 N   0  0  0  0  0  0  0  0  0  0  0  0
   55.9790   27.4130   45.6550 C   0  0  0  0  0  0  0  0  0  0  0  0
   55.5210   28.6020   45.1010 O   0  0  0  0  0  0  0  0  0  0  0  0
   59.4190   29.5190   47.1630 C   0  0  0  0  0  0  0  0  0  0  0  0
   59.3040   30.8730   47.3720 C   0  0  0  0  0  0  0  0  0  0  0  0
   59.9310   31.5650   48.5120 C   0  0  0  0  0  0  0  0  0  0  0  0
   60.9840   32.2310   48.3170 O   0  0  0  0  0  0  0  0  0  0  0  0
   59.3810   31.4570   49.8380 N   0  0  0  0  0  0  0  0  0  0  0  0
   59.6360   32.4990   50.8350 C   0  0  0  0  0  0  0  0  0  0  0  0
   58.3530   32.7510   51.6340 C   0  0  0  0  0  0  0  0  0  0  0  0
   57.7700   31.5150   52.2250 N   0  0  0  0  0  0  0  0  0  0  0  0
   56.3040   31.5040   52.0980 C   0  0  0  0  0  0  0  0  0  0  0  0
   58.3630   30.2450   51.7410 C   0  0  0  0  0  0  0  0  0  0  0  0
   58.6300   30.2580   50.2300 C   0  0  0  0  0  0  0  0  0  0  0  0
   58.5400   31.4590   46.4130 N   0  0  0  0  0  0  0  0  0  0  0  0
   58.3370   32.9300   46.3080 C   0  0  2  0  0  0  0  0  0  0  0  0
   56.9850   33.3400   45.6940 C   0  0  0  0  0  0  0  0  0  0  0  0
   59.5570   33.6580   45.7010 C   0  0  0  0  0  0  0  0  0  0  0  0
   59.6450   35.1520   46.0070 C   0  0  0  0  0  0  0  0  0  0  0  0
   57.2473   31.6220   44.0642 H   0  0  0  0  0  0  0  0  0  0  0  0
   57.4694   29.7681   43.6853 H   0  0  0  0  0  0  0  0  0  0  0  0
   59.2324   27.5113   44.9963 H   0  0  0  0  0  0  0  0  0  0  0  0
   60.0083   28.8103   47.7633 H   0  0  0  0  0  0  0  0  0  0  0  0
   60.4354   32.1704   51.5154 H   0  0  0  0  0  0  0  0  0  0  0  0
   59.9480   33.4260   50.3317 H   0  0  0  0  0  0  0  0  0  0  0  0
   58.5827   33.4523   52.4497 H   0  0  0  0  0  0  0  0  0  0  0  0
   57.6090   33.1568   50.9327 H   0  0  0  0  0  0  0  0  0  0  0  0
   55.8492   31.5006   53.0996 H   0  0  0  0  0  0  0  0  0  0  0  0
   55.9767   32.3997   51.5497 H   0  0  0  0  0  0  0  0  0  0  0  0
   55.9902   30.6035   51.5497 H   0  0  0  0  0  0  0  0  0  0  0  0
   59.3152   30.0780   52.2658 H   0  0  0  0  0  0  0  0  0  0  0  0
   57.6412   29.4405   51.9454 H   0  0  0  0  0  0  0  0  0  0  0  0
   59.2124   29.3647   49.9601 H   0  0  0  0  0  0  0  0  0  0  0  0
   57.6640   30.2623   49.7038 H   0  0  0  0  0  0  0  0  0  0  0  0
   58.2674   33.2907   47.3449 H   0  0  0  0  0  0  0  0  0  0  0  0
   56.2676   33.5575   46.4990 H   0  0  0  0  0  0  0  0  0  0  0  0
   57.1216   34.2371   45.0723 H   0  0  0  0  0  0  0  0  0  0  0  0
   56.6003   32.5181   45.0723 H   0  0  0  0  0  0  0  0  0  0  0  0
   60.4671   33.1775   46.0893 H   0  0  0  0  0  0  0  0  0  0  0  0
   59.4470   33.5773   44.6095 H   0  0  0  0  0  0  0  0  0  0  0  0
   59.6539   35.3032   47.0965 H   0  0  0  0  0  0  0  0  0  0  0  0
   60.5688   35.5615   45.5724 H   0  0  0  0  0  0  0  0  0  0  0  0
   58.7756   35.6671   45.5724 H   0  0  0  0  0  0  0  0  0  0  0  0
  1  2  2  0
  2  3  1  0
  3  4  2  3
  4  5  1  0
  5  6  1  0
  6  7  1  0
  7  8  2  0
  7  9  1  0
  9 10  1  0
 10 11  1  0
  3 12  1  0
 12 13  2  0
 13 14  1  0
 14 15  2  0
 14 16  1  0
 16 17  1  0
 17 18  1  0
 18 19  1  0
 19 20  1  0
 19 21  1  0
 21 22  1  0
 13 23  1  0
 23 24  1  0
 24 25  1  0
 24 26  1  0
 26 27  1  0
 23  2  1  0
 10  5  2  0
 22 16  1  0
  1 28  1  0
  1 29  1  0
  4 30  1  0
 12 31  1  0
 17 32  1  0
 17 33  1  0
 18 34  1  0
 18 35  1  0
 20 36  1  0
 20 37  1  0
 20 38  1  0
 21 39  1  0
 21 40  1  0
 22 41  1  0
 22 42  1  0
 24 43  1  1
 25 44  1  0
 25 45  1  0
 25 46  1  0
 26 47  1  0
 26 48  1  0
 27 49  1  0
 27 50  1  0
 27 51  1  0
M  CHG  3   6  -1   9  -1  11  -1
M  END
>  <UniqueID>  (81) 
78

>  <SMILES>  (81) 
C=c1c(=Cc2[n-]c(=O)[n-]c2[O-])cc(C(=O)N2CCN(C)CC2)n1[C@H](C)CC

>  <Energy>  (81) 
135.99658588691062

>  <Genealogy>  (81) 
C=c1c(=Cc2[n-]c(=O)[n-]c2[O-])cc(C(=O)N2CCN(C)CC2)n1C(C)CC (protonated)
C=c1c(=Cc2[n-]c(=O)[n-]c2[O-])cc(C(=O)N2CCN(C)CC2)n1[C@H](C)CC (chirality)
C=c1c(=Cc2[n-]c(=O)[n-]c2[O-])cc(C(=O)N2CCN(C)CC2)n1[C@H](C)CC (3D coordinates assigned)
C=c1c(=Cc2[n-]c(=O)[n-]c2[O-])cc(C(=O)N2CCN(C)CC2)n1[C@H](C)CC (nonaromatic ring conformer: 135.99658588691062 kcal/mol)

>  <smiles>  (81) 
C=c1c(=Cc2[nH]c(=O)[nH]c2O)cc(C(=O)N2CCN(C)CC2)n1C(C)CC

>  <score_type>  (81) 
oracle

>  <origin>  (81) 
adg

>  <m_score__min__energy>  (81) 
-16.059999999999999

>  <m_primary>  (81) 
energy

$$$$
81:0
     RDKit          3D

 66 69  0  0  1  0  0  0  0  0999 V2000
   52.7600   23.4980   45.2460 C   0  0  0  0  0  0  0  0  0  0  0  0
   54.0610   22.9810   44.9760 O   0  0  0  0  0  0  0  0  0  0  0  0
   55.1560   23.8480   44.8680 C   0  0  0  0  0  0  0  0  0  0  0  0
   55.3320   24.9290   45.7050 C   0  0  0  0  0  0  0  0  0  0  0  0
   56.4290   25.7420   45.5470 C   0  0  0  0  0  0  0  0  0  0  0  0
   57.3930   25.5210   44.5570 C   0  0  0  0  0  0  0  0  0  0  0  0
   58.5220   26.4700   44.5280 C   0  0  0  0  0  0  0  0  0  0  0  0
   58.9150   26.9950   45.8330 C   0  0  0  0  0  0  0  0  0  0  0  0
   59.5640   26.1280   46.6740 N   0  0  0  0  0  0  0  0  0  0  0  0
   59.9170   26.4790   47.9200 C   0  0  0  0  0  0  0  0  0  0  0  0
   59.6500   27.7020   48.4050 N   0  0  0  0  0  0  0  0  0  0  0  0
   59.0210   28.5710   47.6120 C   0  0  0  0  0  0  0  0  0  0  0  0
   58.7730   29.7400   48.0940 N   0  0  0  0  0  0  0  0  0  0  0  0
   59.8200   30.6420   48.4930 C   0  0  0  0  0  0  0  0  0  0  0  0
   59.3700   32.0080   48.8970 C   0  0  0  0  0  0  0  0  0  0  0  0
   60.3430   32.9560   48.3460 N   0  0  0  0  0  0  0  0  0  0  0  0
   59.8220   34.2910   48.5100 C   0  0  0  0  0  0  0  0  0  0  0  0
   58.9680   34.7270   47.3330 C   0  0  0  0  0  0  0  0  0  0  0  0
   59.6360   34.5800   46.0760 N   0  0  0  0  0  0  0  0  0  0  0  0
   59.6370   35.7480   45.2470 C   0  0  0  0  0  0  0  0  0  0  0  0
   60.9140   33.9610   46.2530 C   0  0  0  0  0  0  0  0  0  0  0  0
   60.6700   32.6360   46.9740 C   0  0  0  0  0  0  0  0  0  0  0  0
   58.6550   28.2320   46.3420 C   0  0  0  0  0  0  0  0  0  0  0  0
   58.0120   29.2200   45.4160 C   0  0  0  0  0  0  0  0  0  0  0  0
   58.2430   30.2120   44.8890 N   0  0  0  0  0  0  0  0  0  0  0  0
   57.5020   30.9710   44.0990 C   0  0  0  0  0  0  0  0  0  0  0  0
   57.9170   32.2300   43.4900 C   0  0  0  0  0  0  0  0  0  0  0  0
   58.3170   33.3670   44.2540 N   0  0  0  0  0  0  0  0  0  0  0  0
   57.9430   32.3770   42.2360 O   0  0  0  0  0  0  0  0  0  0  0  0
   56.2360   30.4430   43.8950 C   0  0  0  0  0  0  0  0  0  0  0  0
   56.2660   28.8700   44.8990 S   0  0  0  0  0  0  0  0  0  0  0  0
   57.1990   24.4500   43.7440 C   0  0  0  0  0  0  0  0  0  0  0  0
   56.0910   23.6060   43.8850 C   0  0  0  0  0  0  0  0  0  0  0  0
   55.9070   22.5150   43.0450 O   0  0  0  0  0  0  0  0  0  0  0  0
   56.9010   21.5070   43.0160 C   0  0  0  0  0  0  0  0  0  0  0  0
   52.6079   23.5584   46.3338 H   0  0  0  0  0  0  0  0  0  0  0  0
   52.6658   24.5019   44.8063 H   0  0  0  0  0  0  0  0  0  0  0  0
   52.0025   22.8326   44.8063 H   0  0  0  0  0  0  0  0  0  0  0  0
   54.5975   25.1402   46.4962 H   0  0  0  0  0  0  0  0  0  0  0  0
   56.5539   26.5993   46.2248 H   0  0  0  0  0  0  0  0  0  0  0  0
   59.3903   25.9554   44.0906 H   0  0  0  0  0  0  0  0  0  0  0  0
   58.1853   27.3336   43.9357 H   0  0  0  0  0  0  0  0  0  0  0  0
   59.8100   25.1580   46.3780 H   0  0  0  0  0  0  0  0  0  0  0  0
   60.4364   25.7488   48.5579 H   0  0  0  0  0  0  0  0  0  0  0  0
   60.3481   30.1924   49.3468 H   0  0  0  0  0  0  0  0  0  0  0  0
   60.4538   30.7822   47.6050 H   0  0  0  0  0  0  0  0  0  0  0  0
   58.3692   32.2128   48.4891 H   0  0  0  0  0  0  0  0  0  0  0  0
   59.3107   32.0957   49.9919 H   0  0  0  0  0  0  0  0  0  0  0  0
   59.2082   34.3212   49.4223 H   0  0  0  0  0  0  0  0  0  0  0  0
   60.6775   34.9792   48.5772 H   0  0  0  0  0  0  0  0  0  0  0  0
   58.0531   34.1165   47.3179 H   0  0  0  0  0  0  0  0  0  0  0  0
   58.7445   35.7959   47.4652 H   0  0  0  0  0  0  0  0  0  0  0  0
   59.6378   36.6473   45.8805 H   0  0  0  0  0  0  0  0  0  0  0  0
   60.5351   35.7461   44.6119 H   0  0  0  0  0  0  0  0  0  0  0  0
   58.7389   35.7476   44.6119 H   0  0  0  0  0  0  0  0  0  0  0  0
   61.3845   33.7786   45.2756 H   0  0  0  0  0  0  0  0  0  0  0  0
   61.5872   34.6076   46.8350 H   0  0  0  0  0  0  0  0  0  0  0  0
   59.8350   32.0973   46.5023 H   0  0  0  0  0  0  0  0  0  0  0  0
   61.5595   31.9910   46.9223 H   0  0  0  0  0  0  0  0  0  0  0  0
   57.8920   33.5790   45.2010 H   0  0  0  0  0  0  0  0  0  0  0  0
   59.0560   34.0390   43.8960 H   0  0  0  0  0  0  0  0  0  0  0  0
   55.4141   30.8518   43.2889 H   0  0  0  0  0  0  0  0  0  0  0  0
   57.9334   24.2400   42.9524 H   0  0  0  0  0  0  0  0  0  0  0  0
   57.1733   21.2309   44.0454 H   0  0  0  0  0  0  0  0  0  0  0  0
   56.5114   20.6229   42.4901 H   0  0  0  0  0  0  0  0  0  0  0  0
   57.7905   21.8842   42.4901 H   0  0  0  0  0  0  0  0  0  0  0  0
  1  2  1  0
  2  3  1  0
  3  4  2  0
  4  5  1  0
  5  6  2  0
  6  7  1  0
  7  8  1  0
  8  9  1  0
  9 10  1  0
 10 11  2  0
 11 12  1  0
 12 13  2  0
 13 14  1  0
 14 15  1  0
 15 16  1  0
 16 17  1  0
 17 18  1  0
 18 19  1  0
 19 20  1  0
 19 21  1  0
 21 22  1  0
 12 23  1  0
 23 24  1  0
 24 25  2  0
 25 26  1  0
 26 27  1  0
 27 28  1  0
 27 29  2  0
 26 30  2  0
 30 31  1  0
  6 32  1  0
 32 33  2  0
 33 34  1  0
 34 35  1  0
 33  3  1  0
 23  8  2  0
 31 24  1  0
 22 16  1  0
  1 36  1  0
  1 37  1  0
  1 38  1  0
  4 39  1  0
  5 40  1  0
  7 41  1  0
  7 42  1  0
  9 43  1  0
 10 44  1  0
 14 45  1  0
 14 46  1  0
 15 47  1  0
 15 48  1  0
 17 49  1  0
 17 50  1  0
 18 51  1  0
 18 52  1  0
 20 53  1  0
 20 54  1  0
 20 55  1  0
 21 56  1  0
 21 57  1  0
 22 58  1  0
 22 59  1  0
 28 60  1  0
 28 61  1  0
 30 62  1  0
 32 63  1  0
 35 64  1  0
 35 65  1  0
 35 66  1  0
M  END
>  <smiles>  (82) 
COc1ccc(Cc2[nH]cnc(=NCCN3CCN(C)CC3)c2-c2nc(C(N)=O)cs2)cc1OC

>  <score_type>  (82) 
oracle

>  <origin>  (82) 
adg

>  <m_score__min__energy>  (82) 
-9.4900000000000002

>  <m_primary>  (82) 
energy

$$$$
82:0
     RDKit          3D

 68 72  0  0  0  0  0  0  0  0999 V2000
   56.0020   26.6910   47.1140 H   0  0  0  0  0  0  0  0  0  0  0  0
   55.5300   25.8410   46.7270 N   0  0  0  0  0  0  0  0  0  0  0  0
   56.1810   24.7420   46.5120 C   0  0  0  0  0  0  0  0  0  0  0  0
   55.9950   23.6800   47.3460 N   0  0  0  0  0  0  0  0  0  0  0  0
   56.6830   22.5180   47.1990 C   0  0  0  0  0  0  0  0  0  0  0  0
   56.4990   21.6796   47.8869 H   0  0  0  0  0  0  0  0  0  0  0  0
   57.6230   22.3870   46.1760 C   0  0  0  0  0  0  0  0  0  0  0  0
   58.1873   21.4503   46.0567 H   0  0  0  0  0  0  0  0  0  0  0  0
   57.8400   23.4560   45.3060 C   0  0  0  0  0  0  0  0  0  0  0  0
   58.5851   23.3649   44.5019 H   0  0  0  0  0  0  0  0  0  0  0  0
   57.1120   24.6470   45.4520 C   0  0  0  0  0  0  0  0  0  0  0  0
   57.3520   25.7630   44.5070 C   0  0  0  0  0  0  0  0  0  0  0  0
   57.6770   25.4820   43.2160 N   0  0  0  0  0  0  0  0  0  0  0  0
   57.8970   26.4720   42.3150 C   0  0  0  0  0  0  0  0  0  0  0  0
   58.1718   26.2225   41.2795 H   0  0  0  0  0  0  0  0  0  0  0  0
   57.7750   27.8020   42.7010 C   0  0  0  0  0  0  0  0  0  0  0  0
   57.9573   28.6126   41.9801 H   0  0  0  0  0  0  0  0  0  0  0  0
   57.4150   28.0930   44.0270 C   0  0  0  0  0  0  0  0  0  0  0  0
   57.2450   29.5280   44.4910 C   0  0  0  0  0  0  0  0  0  0  0  0
   56.1840   29.6542   44.7524 H   0  0  0  0  0  0  0  0  0  0  0  0
   58.0840   29.8190   45.7560 C   0  0  0  0  0  0  0  0  0  0  0  0
   57.5700   29.3896   46.6286 H   0  0  0  0  0  0  0  0  0  0  0  0
   59.0769   29.3673   45.6142 H   0  0  0  0  0  0  0  0  0  0  0  0
   58.2800   31.3290   45.9890 C   0  0  0  0  0  0  0  0  0  0  0  0
   58.2417   31.5364   47.0686 H   0  0  0  0  0  0  0  0  0  0  0  0
   59.2561   31.6278   45.5791 H   0  0  0  0  0  0  0  0  0  0  0  0
   57.2200   32.1010   45.3080 N   0  0  0  0  0  0  0  0  0  0  0  0
   57.2180   33.5140   45.7370 C   0  0  0  0  0  0  0  0  0  0  0  0
   57.1457   34.1651   44.8534 H   0  0  0  0  0  0  0  0  0  0  0  0
   56.3574   33.6947   46.3979 H   0  0  0  0  0  0  0  0  0  0  0  0
   58.4910   33.8160   46.4790 C   0  0  0  0  0  0  0  0  0  0  0  0
   59.6730   34.1190   45.7840 C   0  0  0  0  0  0  0  0  0  0  0  0
   59.6490   34.2459   44.6916 H   0  0  0  0  0  0  0  0  0  0  0  0
   60.8800   34.2600   46.4750 C   0  0  0  0  0  0  0  0  0  0  0  0
   61.8010   34.5036   45.9251 H   0  0  0  0  0  0  0  0  0  0  0  0
   60.9210   34.0920   47.8670 C   0  0  0  0  0  0  0  0  0  0  0  0
   62.2350   34.1000   48.6040 C   0  0  0  0  0  0  0  0  0  0  0  0
   62.9124   34.8261   48.1309 H   0  0  0  0  0  0  0  0  0  0  0  0
   62.0564   34.3804   49.6525 H   0  0  0  0  0  0  0  0  0  0  0  0
   62.8320   32.8020   48.5640 O   0  0  0  0  0  0  0  0  0  0  0  0
   62.1240   31.5900   48.6070 C   0  0  0  0  0  0  0  0  0  0  0  0
   61.5490   31.0080   47.4610 C   0  0  0  0  0  0  0  0  0  0  0  0
   61.6758   31.4903   46.4806 H   0  0  0  0  0  0  0  0  0  0  0  0
   60.8180   29.8210   47.5620 C   0  0  0  0  0  0  0  0  0  0  0  0
   60.3713   29.3752   46.6611 H   0  0  0  0  0  0  0  0  0  0  0  0
   60.6510   29.1950   48.8070 C   0  0  0  0  0  0  0  0  0  0  0  0
   59.8450   27.9270   48.9150 C   0  0  0  0  0  0  0  0  0  0  0  0
   60.5068   27.1039   49.2225 H   0  0  0  0  0  0  0  0  0  0  0  0
   59.0495   28.0768   49.6598 H   0  0  0  0  0  0  0  0  0  0  0  0
   59.2140   27.5850   47.6000 C   0  0  0  0  0  0  0  0  0  0  0  0
   57.9600   27.5520   47.4880 O   0  0  0  0  0  0  0  0  0  0  0  0
   60.0120   27.2970   46.4990 O   0  0  0  0  0  0  0  0  0  0  0  0
   61.2410   29.7650   49.9470 C   0  0  0  0  0  0  0  0  0  0  0  0
   61.1226   29.2785   50.9264 H   0  0  0  0  0  0  0  0  0  0  0  0
   61.9780   30.9480   49.8420 C   0  0  0  0  0  0  0  0  0  0  0  0
   62.4478   31.3785   50.7386 H   0  0  0  0  0  0  0  0  0  0  0  0
   59.7310   33.8400   48.5660 C   0  0  0  0  0  0  0  0  0  0  0  0
   59.7477   33.7571   49.6627 H   0  0  0  0  0  0  0  0  0  0  0  0
   58.5260   33.6940   47.8770 C   0  0  0  0  0  0  0  0  0  0  0  0
   57.6000   33.4825   48.4317 H   0  0  0  0  0  0  0  0  0  0  0  0
   57.3640   31.9960   43.8400 C   0  0  0  0  0  0  0  0  0  0  0  0
   56.4543   32.3935   43.3662 H   0  0  0  0  0  0  0  0  0  0  0  0
   58.2544   32.5719   43.5477 H   0  0  0  0  0  0  0  0  0  0  0  0
   57.5710   30.5360   43.3720 C   0  0  0  0  0  0  0  0  0  0  0  0
   56.9127   30.3402   42.5127 H   0  0  0  0  0  0  0  0  0  0  0  0
   58.6281   30.4110   43.0947 H   0  0  0  0  0  0  0  0  0  0  0  0
   57.2160   27.0620   44.9030 N   0  0  0  0  0  0  0  0  0  0  0  0
   56.9280   27.2720   45.8850 H   0  0  0  0  0  0  0  0  0  0  0  0
  1  2  1  0
  2  3  2  0
  3  4  1  0
  4  5  1  0
  5  6  1  0
  5  7  2  0
  7  8  1  0
  7  9  1  0
  9 10  1  0
  9 11  2  0
 11 12  1  0
 12 13  2  0
 13 14  1  0
 14 15  1  0
 14 16  2  0
 16 17  1  0
 16 18  1  0
 18 19  1  0
 19 20  1  0
 19 21  1  0
 21 22  1  0
 21 23  1  0
 21 24  1  0
 24 25  1  0
 24 26  1  0
 24 27  1  0
 27 28  1  0
 28 29  1  0
 28 30  1  0
 28 31  1  0
 31 32  2  0
 32 33  1  0
 32 34  1  0
 34 35  1  0
 34 36  2  0
 36 37  1  0
 37 38  1  0
 37 39  1  0
 37 40  1  0
 40 41  1  0
 41 42  2  0
 42 43  1  0
 42 44  1  0
 44 45  1  0
 44 46  2  0
 46 47  1  0
 47 48  1  0
 47 49  1  0
 47 50  1  0
 50 51  2  0
 50 52  1  0
 46 53  1  0
 53 54  1  0
 53 55  2  0
 55 56  1  0
 36 57  1  0
 57 58  1  0
 57 59  2  0
 59 60  1  0
 27 61  1  0
 61 62  1  0
 61 63  1  0
 61 64  1  0
 64 65  1  0
 64 66  1  0
 18 67  2  0
 67 68  1  0
 11  3  1  0
 67 12  1  0
 64 19  1  0
 59 31  1  0
 55 41  1  0
M  CHG  3   4  -1  52  -1  67   1
M  END
>  <UniqueID>  (83) 
79

>  <SMILES>  (83) 
[H]/N=c1\[n-]cccc1-c1nccc(C2CCN(Cc3ccc(COc4ccc(CC(=O)[O-])cc4)cc3)CC2)[nH+]1

>  <Energy>  (83) 
84.11282944419209

>  <Genealogy>  (83) 
N=c1[n-]cccc1-c1nccc(C2CCN(Cc3ccc(COc4ccc(CC(=O)[O-])cc4)cc3)CC2)[nH+]1 (protonated)
[H]/N=c1\[n-]cccc1-c1nccc(C2CCN(Cc3ccc(COc4ccc(CC(=O)[O-])cc4)cc3)CC2)[nH+]1 (cis-trans isomerization)
[H]/N=c1\[n-]cccc1-c1nccc(C2CCN(Cc3ccc(COc4ccc(CC(=O)[O-])cc4)cc3)CC2)[nH+]1 (3D coordinates assigned)
[H]/N=c1\[n-]cccc1-c1nccc(C2CCN(Cc3ccc(COc4ccc(CC(=O)[O-])cc4)cc3)CC2)[nH+]1 (nonaromatic ring conformer: 84.11282944419209 kcal/mol)

>  <smiles>  (83) 
N=c1[nH]cccc1-c1nccc(C2CCN(Cc3ccc(COc4ccc(CC(=O)O)cc4)cc3)CC2)n1

>  <score_type>  (83) 
oracle

>  <origin>  (83) 
adg

>  <m_score__min__energy>  (83) 
-14.93

>  <m_primary>  (83) 
energy

$$$$
83:0
     RDKit          3D

 29 30  0  0  0  0  0  0  0  0999 V2000
   55.1660   26.7120   46.0320 N   0  0  0  0  0  0  0  0  0  0  0  0
   55.8880   25.5120   46.3200 C   0  0  0  0  0  0  0  0  0  0  0  0
   55.2590   24.4270   46.4370 O   0  0  0  0  0  0  0  0  0  0  0  0
   57.3040   25.5210   46.5330 N   0  0  0  0  0  0  0  0  0  0  0  0
   58.1340   26.6860   46.5880 C   0  0  0  0  0  0  0  0  0  0  0  0
   58.0980   27.4590   47.5840 O   0  0  0  0  0  0  0  0  0  0  0  0
   59.0360   27.0030   45.4390 C   0  0  0  0  0  0  0  0  0  0  0  0
   58.0830   27.1560   43.8890 S   0  0  0  0  0  0  0  0  0  0  0  0
   57.4010   28.7630   44.2900 C   0  0  0  0  0  0  0  0  0  0  0  0
   56.1050   28.9710   44.6060 N   0  0  0  0  0  0  0  0  0  0  0  0
   55.8210   30.2500   44.8480 N   0  0  0  0  0  0  0  0  0  0  0  0
   56.8940   31.0610   44.7350 C   0  0  0  0  0  0  0  0  0  0  0  0
   56.8020   32.3510   44.8730 N   0  0  0  0  0  0  0  0  0  0  0  0
   57.7390   33.2040   45.5500 C   0  0  0  0  0  0  0  0  0  0  0  0
   58.0010   32.9790   46.9080 C   0  0  0  0  0  0  0  0  0  0  0  0
   58.9300   33.7710   47.5890 C   0  0  0  0  0  0  0  0  0  0  0  0
   59.6220   34.7780   46.9100 C   0  0  0  0  0  0  0  0  0  0  0  0
   59.3940   34.9870   45.5480 C   0  0  0  0  0  0  0  0  0  0  0  0
   58.4640   34.1970   44.8650 C   0  0  0  0  0  0  0  0  0  0  0  0
   58.2820   30.1980   44.3030 S   0  0  0  0  0  0  0  0  0  0  0  0
   54.1410   26.6690   45.8360 H   0  0  0  0  0  0  0  0  0  0  0  0
   55.6130   27.6500   46.1160 H   0  0  0  0  0  0  0  0  0  0  0  0
   59.5543   27.9524   45.6388 H   0  0  0  0  0  0  0  0  0  0  0  0
   59.7635   26.1857   45.3262 H   0  0  0  0  0  0  0  0  0  0  0  0
   57.4728   32.1748   47.4411 H   0  0  0  0  0  0  0  0  0  0  0  0
   59.1166   33.6017   48.6598 H   0  0  0  0  0  0  0  0  0  0  0  0
   60.3466   35.4063   47.4487 H   0  0  0  0  0  0  0  0  0  0  0  0
   59.9462   35.7733   45.0124 H   0  0  0  0  0  0  0  0  0  0  0  0
   58.2985   34.3522   43.7887 H   0  0  0  0  0  0  0  0  0  0  0  0
  1  2  1  0
  2  3  2  0
  2  4  1  0
  4  5  1  0
  5  6  2  0
  5  7  1  0
  7  8  1  0
  8  9  1  0
  9 10  2  0
 10 11  1  0
 11 12  1  0
 12 13  2  3
 13 14  1  0
 14 15  2  0
 15 16  1  0
 16 17  2  0
 17 18  1  0
 18 19  2  0
 12 20  1  0
 20  9  1  0
 19 14  1  0
  1 21  1  0
  1 22  1  0
  7 23  1  0
  7 24  1  0
 15 25  1  0
 16 26  1  0
 17 27  1  0
 18 28  1  0
 19 29  1  0
M  CHG  2   4  -1  11  -1
M  END
>  <UniqueID>  (84) 
80

>  <SMILES>  (84) 
NC(=O)[N-]C(=O)CSc1n[n-]c(=Nc2ccccc2)s1

>  <Energy>  (84) 
65.96847543940375

>  <Genealogy>  (84) 
NC(=O)[N-]C(=O)CSc1n[n-]c(=Nc2ccccc2)s1 (protonated)
NC(=O)[N-]C(=O)CSc1n[n-]c(=Nc2ccccc2)s1 (3D coordinates assigned)
NC(=O)[N-]C(=O)CSc1n[n-]c(=Nc2ccccc2)s1 (optimized conformer: 65.96847543940375 kcal/mol)

>  <smiles>  (84) 
NC(=O)NC(=O)CSc1n[nH]c(=Nc2ccccc2)s1

>  <score_type>  (84) 
oracle

>  <origin>  (84) 
adg

>  <m_score__min__energy>  (84) 
-11.65

>  <m_primary>  (84) 
energy

$$$$
84:0
     RDKit          3D

 78 82  0  0  0  0  0  0  0  0999 V2000
   60.6450   28.6070   44.4670 O   0  0  0  0  0  0  0  0  0  0  0  0
   59.4620   28.4180   44.8670 C   0  0  0  0  0  0  0  0  0  0  0  0
   58.3620   28.1700   43.8810 C   0  0  0  0  0  0  0  0  0  0  0  0
   57.0620   28.5200   44.4510 N   0  0  0  0  0  0  0  0  0  0  0  0
   56.4910   29.8330   44.4290 C   0  0  0  0  0  0  0  0  0  0  0  0
   55.3330   29.9800   43.9580 O   0  0  0  0  0  0  0  0  0  0  0  0
   57.2210   31.0170   44.9290 C   0  0  0  0  0  0  0  0  0  0  0  0
   57.7940   31.0040   46.2070 C   0  0  0  0  0  0  0  0  0  0  0  0
   58.4770   32.1270   46.6840 C   0  0  0  0  0  0  0  0  0  0  0  0
   58.5980   33.2810   45.9000 C   0  0  0  0  0  0  0  0  0  0  0  0
   59.2730   34.3800   46.4680 O   0  0  0  0  0  0  0  0  0  0  0  0
   60.6150   34.4680   46.9660 C   0  0  0  0  0  0  0  0  0  0  0  0
   61.6440   33.8370   46.0200 C   0  0  0  0  0  0  0  0  0  0  0  0
   63.0670   34.0430   46.5550 C   0  0  0  0  0  0  0  0  0  0  0  0
   63.2150   33.6470   47.9720 N   0  0  0  0  0  0  0  0  0  0  0  0
   63.7450   32.2930   48.2360 C   0  0  0  0  0  0  0  0  0  0  0  0
   64.4430   32.1630   49.5630 C   0  0  0  0  0  0  0  0  0  0  0  0
   65.6370   32.8550   49.8170 C   0  0  0  0  0  0  0  0  0  0  0  0
   66.2870   32.6760   51.0400 C   0  0  0  0  0  0  0  0  0  0  0  0
   65.7490   31.8070   51.9910 C   0  0  0  0  0  0  0  0  0  0  0  0
   64.5630   31.1280   51.7040 C   0  0  0  0  0  0  0  0  0  0  0  0
   63.9470   31.3150   50.5060 N   0  0  0  0  0  0  0  0  0  0  0  0
   62.1890   34.1580   48.9070 C   0  0  0  0  0  0  0  0  0  0  0  0
   60.7570   33.9460   48.4000 C   0  0  0  0  0  0  0  0  0  0  0  0
   58.0530   33.2750   44.6020 C   0  0  0  0  0  0  0  0  0  0  0  0
   57.3940   32.1450   44.1170 C   0  0  0  0  0  0  0  0  0  0  0  0
   59.1580   28.4510   46.2670 N   0  0  0  0  0  0  0  0  0  0  0  0
   60.1960   28.6130   47.2910 C   0  0  0  0  0  0  0  0  0  0  0  0
   59.6160   28.3470   48.7020 C   0  0  0  0  0  0  0  0  0  0  0  0
   59.1530   29.6490   49.3700 C   0  0  0  0  0  0  0  0  0  0  0  0
   60.2570   30.6300   49.5150 N   0  0  0  0  0  0  0  0  0  0  0  0
   60.7310   30.8230   50.9070 C   0  0  0  0  0  0  0  0  0  0  0  0
   60.0880   32.0000   51.6160 C   0  0  0  0  0  0  0  0  0  0  0  0
   60.8260   32.7580   52.5430 C   0  0  0  0  0  0  0  0  0  0  0  0
   60.2320   33.8330   53.2100 C   0  0  0  0  0  0  0  0  0  0  0  0
   58.9030   34.1710   52.9480 C   0  0  0  0  0  0  0  0  0  0  0  0
   58.1690   33.4410   52.0110 C   0  0  0  0  0  0  0  0  0  0  0  0
   58.7590   32.3650   51.3410 C   0  0  0  0  0  0  0  0  0  0  0  0
   61.3560   30.4990   48.5300 C   0  0  0  0  0  0  0  0  0  0  0  0
   60.8320   30.0180   47.1740 C   0  0  0  0  0  0  0  0  0  0  0  0
   58.5381   28.7812   42.9836 H   0  0  0  0  0  0  0  0  0  0  0  0
   58.3561   27.1008   43.6225 H   0  0  0  0  0  0  0  0  0  0  0  0
   57.7064   30.1071   46.8377 H   0  0  0  0  0  0  0  0  0  0  0  0
   58.9252   32.1037   47.6883 H   0  0  0  0  0  0  0  0  0  0  0  0
   60.8426   35.5435   47.0036 H   0  0  0  0  0  0  0  0  0  0  0  0
   61.4427   32.7590   45.9340 H   0  0  0  0  0  0  0  0  0  0  0  0
   61.5623   34.3192   45.0347 H   0  0  0  0  0  0  0  0  0  0  0  0
   63.7599   33.4411   45.9487 H   0  0  0  0  0  0  0  0  0  0  0  0
   63.2907   35.1180   46.4889 H   0  0  0  0  0  0  0  0  0  0  0  0
   62.9062   31.5817   48.2140 H   0  0  0  0  0  0  0  0  0  0  0  0
   64.4939   32.0843   47.4578 H   0  0  0  0  0  0  0  0  0  0  0  0
   66.0574   33.5326   49.0593 H   0  0  0  0  0  0  0  0  0  0  0  0
   67.2201   33.2181   51.2534 H   0  0  0  0  0  0  0  0  0  0  0  0
   66.2543   31.6586   52.9568 H   0  0  0  0  0  0  0  0  0  0  0  0
   64.1275   30.4427   52.4460 H   0  0  0  0  0  0  0  0  0  0  0  0
   62.3009   33.6367   49.8692 H   0  0  0  0  0  0  0  0  0  0  0  0
   62.3455   35.2422   49.0066 H   0  0  0  0  0  0  0  0  0  0  0  0
   60.5209   32.8718   48.4197 H   0  0  0  0  0  0  0  0  0  0  0  0
   60.0628   34.4977   49.0509 H   0  0  0  0  0  0  0  0  0  0  0  0
   58.1474   34.1674   43.9658 H   0  0  0  0  0  0  0  0  0  0  0  0
   57.0067   32.1399   43.0874 H   0  0  0  0  0  0  0  0  0  0  0  0
   58.1540   28.3730   46.5560 H   0  0  0  0  0  0  0  0  0  0  0  0
   60.9912   27.8707   47.1280 H   0  0  0  0  0  0  0  0  0  0  0  0
   58.7576   27.6648   48.6137 H   0  0  0  0  0  0  0  0  0  0  0  0
   60.4062   27.9003   49.3233 H   0  0  0  0  0  0  0  0  0  0  0  0
   58.3584   30.0985   48.7563 H   0  0  0  0  0  0  0  0  0  0  0  0
   58.7892   29.3998   50.3777 H   0  0  0  0  0  0  0  0  0  0  0  0
   60.5082   29.9101   51.4788 H   0  0  0  0  0  0  0  0  0  0  0  0
   61.8093   31.0330   50.8516 H   0  0  0  0  0  0  0  0  0  0  0  0
   61.8770   32.5032   52.7442 H   0  0  0  0  0  0  0  0  0  0  0  0
   60.8123   34.4135   53.9423 H   0  0  0  0  0  0  0  0  0  0  0  0
   58.4342   35.0122   53.4796 H   0  0  0  0  0  0  0  0  0  0  0  0
   57.1244   33.7130   51.7995 H   0  0  0  0  0  0  0  0  0  0  0  0
   58.1800   31.8012   50.5948 H   0  0  0  0  0  0  0  0  0  0  0  0
   61.8399   31.4783   48.4005 H   0  0  0  0  0  0  0  0  0  0  0  0
   62.0749   29.7571   48.9079 H   0  0  0  0  0  0  0  0  0  0  0  0
   60.0737   30.7267   46.8097 H   0  0  0  0  0  0  0  0  0  0  0  0
   61.6770   29.9623   46.4720 H   0  0  0  0  0  0  0  0  0  0  0  0
  1  2  2  0
  2  3  1  0
  3  4  1  0
  4  5  1  0
  5  6  2  0
  5  7  1  0
  7  8  2  0
  8  9  1  0
  9 10  2  0
 10 11  1  0
 11 12  1  0
 12 13  1  0
 13 14  1  0
 14 15  1  0
 15 16  1  0
 16 17  1  0
 17 18  2  0
 18 19  1  0
 19 20  2  0
 20 21  1  0
 21 22  2  0
 15 23  1  0
 23 24  1  0
 10 25  1  0
 25 26  2  0
  2 27  1  0
 27 28  1  0
 28 29  1  0
 29 30  1  0
 30 31  1  0
 31 32  1  0
 32 33  1  0
 33 34  2  0
 34 35  1  0
 35 36  2  0
 36 37  1  0
 37 38  2  0
 31 39  1  0
 39 40  1  0
 26  7  1  0
 40 28  1  0
 24 12  1  0
 38 33  1  0
 22 17  1  0
  3 41  1  0
  3 42  1  0
  8 43  1  0
  9 44  1  0
 12 45  1  0
 13 46  1  0
 13 47  1  0
 14 48  1  0
 14 49  1  0
 16 50  1  0
 16 51  1  0
 18 52  1  0
 19 53  1  0
 20 54  1  0
 21 55  1  0
 23 56  1  0
 23 57  1  0
 24 58  1  0
 24 59  1  0
 25 60  1  0
 26 61  1  0
 27 62  1  0
 28 63  1  0
 29 64  1  0
 29 65  1  0
 30 66  1  0
 30 67  1  0
 32 68  1  0
 32 69  1  0
 34 70  1  0
 35 71  1  0
 36 72  1  0
 37 73  1  0
 38 74  1  0
 39 75  1  0
 39 76  1  0
 40 77  1  0
 40 78  1  0
M  CHG  1   4  -1
M  END
>  <UniqueID>  (85) 
81

>  <SMILES>  (85) 
O=C(C[N-]C(=O)c1ccc(OC2CCN(Cc3ccccn3)CC2)cc1)NC1CCN(Cc2ccccc2)CC1

>  <Energy>  (85) 
104.47476949870703

>  <Genealogy>  (85) 
O=C(C[N-]C(=O)c1ccc(OC2CCN(Cc3ccccn3)CC2)cc1)NC1CCN(Cc2ccccc2)CC1 (protonated)
O=C(C[N-]C(=O)c1ccc(OC2CCN(Cc3ccccn3)CC2)cc1)NC1CCN(Cc2ccccc2)CC1 (3D coordinates assigned)
O=C(C[N-]C(=O)c1ccc(OC2CCN(Cc3ccccn3)CC2)cc1)NC1CCN(Cc2ccccc2)CC1 (nonaromatic ring conformer: 104.47476949870703 kcal/mol)

>  <smiles>  (85) 
O=C(CNC(=O)c1ccc(OC2CCN(Cc3ccccn3)CC2)cc1)NC1CCN(Cc2ccccc2)CC1

>  <score_type>  (85) 
oracle

>  <origin>  (85) 
adg

>  <m_score__min__energy>  (85) 
-11.08

>  <m_primary>  (85) 
energy

$$$$
85:0
     RDKit          3D

 35 36  0  0  0  0  0  0  0  0999 V2000
   54.7670   27.0780   45.1770 H   0  0  0  0  0  0  0  0  0  0  0  0
   54.8030   26.3660   45.8960 O   0  0  0  0  0  0  0  0  0  0  0  0
   55.9880   25.9470   46.4680 N   0  0  0  0  0  0  0  0  0  0  0  0
   57.1690   26.3400   46.0870 C   0  0  0  0  0  0  0  0  0  0  0  0
   57.8883   25.5786   45.7511 H   0  0  0  0  0  0  0  0  0  0  0  0
   57.5930   27.7510   46.0820 C   0  0  0  0  0  0  0  0  0  0  0  0
   58.7500   28.0860   46.7130 N   0  0  0  0  0  0  0  0  0  0  0  0
   59.2000   29.3710   46.7850 C   0  0  0  0  0  0  0  0  0  0  0  0
   60.4720   29.6660   47.4800 C   0  0  0  0  0  0  0  0  0  0  0  0
   60.9920   28.7970   48.2340 O   0  0  0  0  0  0  0  0  0  0  0  0
   61.1950   30.9640   47.2410 C   0  0  0  0  0  0  0  0  0  0  0  0
   62.2138   30.7501   46.8855 H   0  0  0  0  0  0  0  0  0  0  0  0
   60.6424   31.5438   46.4870 H   0  0  0  0  0  0  0  0  0  0  0  0
   61.2710   31.7480   48.4770 N   0  0  0  0  0  0  0  0  0  0  0  0
   60.4610   31.4780   49.0820 H   0  0  0  0  0  0  0  0  0  0  0  0
   61.0910   33.4400   48.1160 S   0  0  0  0  0  0  0  0  0  0  0  0
   62.3320   33.9290   47.4250 O   0  0  0  0  0  0  0  0  0  0  0  0
   60.9070   34.2030   49.3980 O   0  0  0  0  0  0  0  0  0  0  0  0
   59.7070   33.6950   47.0510 C   0  0  0  0  0  0  0  0  0  0  0  0
   59.8910   34.3220   45.8090 C   0  0  0  0  0  0  0  0  0  0  0  0
   60.8962   34.6478   45.5033 H   0  0  0  0  0  0  0  0  0  0  0  0
   58.8020   34.5340   44.9590 C   0  0  0  0  0  0  0  0  0  0  0  0
   58.9528   35.0194   43.9835 H   0  0  0  0  0  0  0  0  0  0  0  0
   57.5220   34.1300   45.3470 C   0  0  0  0  0  0  0  0  0  0  0  0
   56.6664   34.2931   44.6752 H   0  0  0  0  0  0  0  0  0  0  0  0
   57.3290   33.5190   46.5880 C   0  0  0  0  0  0  0  0  0  0  0  0
   56.3197   33.2075   46.8949 H   0  0  0  0  0  0  0  0  0  0  0  0
   58.4160   33.3020   47.4420 C   0  0  0  0  0  0  0  0  0  0  0  0
   58.2030   32.7200   48.6490 F   0  0  0  0  0  0  0  0  0  0  0  0
   58.4390   30.3960   46.2020 C   0  0  0  0  0  0  0  0  0  0  0  0
   58.7909   31.4375   46.2407 H   0  0  0  0  0  0  0  0  0  0  0  0
   57.2330   30.0850   45.5730 C   0  0  0  0  0  0  0  0  0  0  0  0
   56.6279   30.8835   45.1187 H   0  0  0  0  0  0  0  0  0  0  0  0
   56.7940   28.7610   45.5200 C   0  0  0  0  0  0  0  0  0  0  0  0
   55.5690   28.4650   44.9320 O   0  0  0  0  0  0  0  0  0  0  0  0
  1  2  1  0
  2  3  1  0
  3  4  2  0
  4  5  1  0
  4  6  1  0
  6  7  2  0
  7  8  1  0
  8  9  1  0
  9 10  2  0
  9 11  1  0
 11 12  1  0
 11 13  1  0
 11 14  1  0
 14 15  1  0
 14 16  1  0
 16 17  2  0
 16 18  2  0
 16 19  1  0
 19 20  2  0
 20 21  1  0
 20 22  1  0
 22 23  1  0
 22 24  2  0
 24 25  1  0
 24 26  1  0
 26 27  1  0
 26 28  2  0
 28 29  1  0
  8 30  2  0
 30 31  1  0
 30 32  1  0
 32 33  1  0
 32 34  2  0
 34 35  1  0
 34  6  1  0
 28 19  1  0
M  CHG  1  35  -1
M  END
>  <UniqueID>  (86) 
82

>  <SMILES>  (86) 
O=C(CNS(=O)(=O)c1ccccc1F)c1ccc([O-])c(/C=N\O)n1

>  <Energy>  (86) 
42.893536172834885

>  <Genealogy>  (86) 
O=C(CNS(=O)(=O)c1ccccc1F)c1ccc([O-])c(C=NO)n1 (protonated)
O=C(CNS(=O)(=O)c1ccccc1F)c1ccc([O-])c(/C=N\O)n1 (cis-trans isomerization)
O=C(CNS(=O)(=O)c1ccccc1F)c1ccc([O-])c(/C=N\O)n1 (3D coordinates assigned)
O=C(CNS(=O)(=O)c1ccccc1F)c1ccc([O-])c(/C=N\O)n1 (optimized conformer: 42.893536172834885 kcal/mol)

>  <smiles>  (86) 
O=C(CNS(=O)(=O)c1ccccc1F)c1ccc(O)c(C=NO)n1

>  <score_type>  (86) 
oracle

>  <origin>  (86) 
adg

>  <m_score__min__energy>  (86) 
-11.130000000000001

>  <m_primary>  (86) 
energy

$$$$
86:0
     RDKit          3D

 30 31  0  0  0  0  0  0  0  0999 V2000
   54.2000   28.0410   53.2940 C   0  0  0  0  0  0  0  0  0  0  0  0
   54.6000   29.1910   52.7380 C   0  0  0  0  0  0  0  0  0  0  0  0
   55.9070   29.4930   52.5940 N   0  0  0  0  0  0  0  0  0  0  0  0
   55.9730   30.7720   52.1790 C   0  0  0  0  0  0  0  0  0  0  0  0
   57.2520   31.4810   51.8640 C   0  0  0  0  0  0  0  0  0  0  0  0
   58.1210   30.6060   51.0220 C   0  0  0  0  0  0  0  0  0  0  0  0
   58.1460   29.3620   51.2290 O   0  0  0  0  0  0  0  0  0  0  0  0
   58.9340   31.1830   50.0410 O   0  0  0  0  0  0  0  0  0  0  0  0
   59.1280   32.5880   49.9390 C   0  0  0  0  0  0  0  0  0  0  0  0
   54.7070   31.2990   52.0280 C   0  0  0  0  0  0  0  0  0  0  0  0
   53.8150   30.2890   52.3530 C   0  0  0  0  0  0  0  0  0  0  0  0
   52.4790   30.4330   52.2660 C   0  0  0  0  0  0  0  0  0  0  0  0
   51.7330   30.7640   51.0410 C   0  0  0  0  0  0  0  0  0  0  0  0
   51.6940   30.0080   49.9300 N   0  0  0  0  0  0  0  0  0  0  0  0
   51.0340   30.7630   49.0290 C   0  0  0  0  0  0  0  0  0  0  0  0
   50.7950   30.3790   47.8550 O   0  0  0  0  0  0  0  0  0  0  0  0
   50.6650   31.9770   49.4930 N   0  0  0  0  0  0  0  0  0  0  0  0
   51.1270   31.9660   50.7580 C   0  0  0  0  0  0  0  0  0  0  0  0
   51.0040   33.0380   51.6340 O   0  0  0  0  0  0  0  0  0  0  0  0
   53.1265   27.8241   53.3972 H   0  0  0  0  0  0  0  0  0  0  0  0
   54.9447   27.3128   53.6477 H   0  0  0  0  0  0  0  0  0  0  0  0
   56.7210   28.8730   52.8040 H   0  0  0  0  0  0  0  0  0  0  0  0
   57.0299   32.4095   51.3176 H   0  0  0  0  0  0  0  0  0  0  0  0
   57.7758   31.7191   52.8015 H   0  0  0  0  0  0  0  0  0  0  0  0
   59.1882   33.0240   50.9471 H   0  0  0  0  0  0  0  0  0  0  0  0
   60.0626   32.7906   49.3955 H   0  0  0  0  0  0  0  0  0  0  0  0
   58.2832   33.0363   49.3955 H   0  0  0  0  0  0  0  0  0  0  0  0
   54.4546   32.3217   51.7113 H   0  0  0  0  0  0  0  0  0  0  0  0
   51.8960   30.2914   53.1880 H   0  0  0  0  0  0  0  0  0  0  0  0
   52.1140   29.0640   49.7820 H   0  0  0  0  0  0  0  0  0  0  0  0
  1  2  2  0
  2  3  1  0
  3  4  1  0
  4  5  1  0
  5  6  1  0
  6  7  2  0
  6  8  1  0
  8  9  1  0
  4 10  2  0
 10 11  1  0
 11 12  2  3
 12 13  1  0
 13 14  1  0
 14 15  1  0
 15 16  2  0
 15 17  1  0
 17 18  1  0
 18 19  1  0
 11  2  1  0
 18 13  2  0
  1 20  1  0
  1 21  1  0
  3 22  1  0
  5 23  1  0
  5 24  1  0
  9 25  1  0
  9 26  1  0
  9 27  1  0
 10 28  1  0
 12 29  1  0
 14 30  1  0
M  CHG  2  17  -1  19  -1
M  END
>  <UniqueID>  (87) 
83

>  <SMILES>  (87) 
C=c1[nH]c(CC(=O)OC)cc1=Cc1[nH]c(=O)[n-]c1[O-]

>  <Energy>  (87) 
93.42194351562348

>  <Genealogy>  (87) 
C=c1[nH]c(CC(=O)OC)cc1=Cc1[nH]c(=O)[n-]c1[O-] (protonated)
C=c1[nH]c(CC(=O)OC)cc1=Cc1[nH]c(=O)[n-]c1[O-] (3D coordinates assigned)
C=c1[nH]c(CC(=O)OC)cc1=Cc1[nH]c(=O)[n-]c1[O-] (optimized conformer: 93.42194351562348 kcal/mol)

>  <smiles>  (87) 
C=c1[nH]c(CC(=O)OC)cc1=Cc1[nH]c(=O)[nH]c1O

>  <score_type>  (87) 
oracle

>  <origin>  (87) 
adg

>  <m_score__min__energy>  (87) 
-12.75

>  <m_primary>  (87) 
energy

$$$$
87:0
     RDKit          3D

 39 41  0  0  0  0  0  0  0  0999 V2000
   54.1990   28.1540   53.4080 C   0  0  0  0  0  0  0  0  0  0  0  0
   54.5830   29.2790   52.7970 C   0  0  0  0  0  0  0  0  0  0  0  0
   55.8860   29.5950   52.6440 N   0  0  0  0  0  0  0  0  0  0  0  0
   55.9350   30.8560   52.1790 C   0  0  0  0  0  0  0  0  0  0  0  0
   57.2040   31.5720   51.8390 C   0  0  0  0  0  0  0  0  0  0  0  0
   58.1900   30.6110   51.2570 C   0  0  0  0  0  0  0  0  0  0  0  0
   57.9510   29.3740   51.2820 O   0  0  0  0  0  0  0  0  0  0  0  0
   59.3770   31.1110   50.6310 N   0  0  0  0  0  0  0  0  0  0  0  0
   59.4320   32.3670   49.8930 C   0  0  0  0  0  0  0  0  0  0  0  0
   58.9850   32.1600   48.4720 C   0  0  0  0  0  0  0  0  0  0  0  0
   58.4190   33.2150   47.7380 C   0  0  0  0  0  0  0  0  0  0  0  0
   57.9880   33.0080   46.4240 C   0  0  0  0  0  0  0  0  0  0  0  0
   58.1140   31.7470   45.8360 C   0  0  0  0  0  0  0  0  0  0  0  0
   58.6700   30.6890   46.5620 C   0  0  0  0  0  0  0  0  0  0  0  0
   59.1030   30.8930   47.8760 C   0  0  0  0  0  0  0  0  0  0  0  0
   54.6610   31.3570   52.0000 C   0  0  0  0  0  0  0  0  0  0  0  0
   53.7830   30.3470   52.3610 C   0  0  0  0  0  0  0  0  0  0  0  0
   52.4460   30.4680   52.2550 C   0  0  0  0  0  0  0  0  0  0  0  0
   51.7120   30.8280   51.0310 C   0  0  0  0  0  0  0  0  0  0  0  0
   51.6770   30.0840   49.9110 N   0  0  0  0  0  0  0  0  0  0  0  0
   51.0210   30.8730   49.0330 C   0  0  0  0  0  0  0  0  0  0  0  0
   50.7730   30.5140   47.8520 O   0  0  0  0  0  0  0  0  0  0  0  0
   50.6620   32.0830   49.5150 N   0  0  0  0  0  0  0  0  0  0  0  0
   51.1220   32.0410   50.7760 C   0  0  0  0  0  0  0  0  0  0  0  0
   51.0070   33.0940   51.6760 O   0  0  0  0  0  0  0  0  0  0  0  0
   53.1286   27.9251   53.5169 H   0  0  0  0  0  0  0  0  0  0  0  0
   54.9534   27.4571   53.8020 H   0  0  0  0  0  0  0  0  0  0  0  0
   56.7080   28.9970   52.8870 H   0  0  0  0  0  0  0  0  0  0  0  0
   56.9907   32.3643   51.1063 H   0  0  0  0  0  0  0  0  0  0  0  0
   57.6261   32.0148   52.7532 H   0  0  0  0  0  0  0  0  0  0  0  0
   58.7716   33.1013   50.3774 H   0  0  0  0  0  0  0  0  0  0  0  0
   60.4687   32.7346   49.8910 H   0  0  0  0  0  0  0  0  0  0  0  0
   58.3143   34.2084   48.1987 H   0  0  0  0  0  0  0  0  0  0  0  0
   57.5491   33.8392   45.8525 H   0  0  0  0  0  0  0  0  0  0  0  0
   57.7758   31.5863   44.8017 H   0  0  0  0  0  0  0  0  0  0  0  0
   58.7668   29.6958   46.0993 H   0  0  0  0  0  0  0  0  0  0  0  0
   59.5377   30.0582   48.4453 H   0  0  0  0  0  0  0  0  0  0  0  0
   54.3946   32.3620   51.6408 H   0  0  0  0  0  0  0  0  0  0  0  0
   51.8511   30.2817   53.1613 H   0  0  0  0  0  0  0  0  0  0  0  0
  1  2  2  0
  2  3  1  0
  3  4  1  0
  4  5  1  0
  5  6  1  0
  6  7  2  0
  6  8  1  0
  8  9  1  0
  9 10  1  0
 10 11  2  0
 11 12  1  0
 12 13  2  0
 13 14  1  0
 14 15  2  0
  4 16  2  0
 16 17  1  0
 17 18  2  3
 18 19  1  0
 19 20  1  0
 20 21  1  0
 21 22  2  0
 21 23  1  0
 23 24  1  0
 24 25  1  0
 17  2  1  0
 24 19  2  0
 15 10  1  0
  1 26  1  0
  1 27  1  0
  3 28  1  0
  5 29  1  0
  5 30  1  0
  9 31  1  0
  9 32  1  0
 11 33  1  0
 12 34  1  0
 13 35  1  0
 14 36  1  0
 15 37  1  0
 16 38  1  0
 18 39  1  0
M  CHG  4   8  -1  20  -1  23  -1  25  -1
M  END
>  <UniqueID>  (88) 
84

>  <SMILES>  (88) 
C=c1[nH]c(CC(=O)[N-]Cc2ccccc2)cc1=Cc1[n-]c(=O)[n-]c1[O-]

>  <Energy>  (88) 
103.1129915444257

>  <Genealogy>  (88) 
C=c1[nH]c(CC(=O)[N-]Cc2ccccc2)cc1=Cc1[n-]c(=O)[n-]c1[O-] (protonated)
C=c1[nH]c(CC(=O)[N-]Cc2ccccc2)cc1=Cc1[n-]c(=O)[n-]c1[O-] (3D coordinates assigned)
C=c1[nH]c(CC(=O)[N-]Cc2ccccc2)cc1=Cc1[n-]c(=O)[n-]c1[O-] (optimized conformer: 103.1129915444257 kcal/mol)

>  <smiles>  (88) 
C=c1[nH]c(CC(=O)NCc2ccccc2)cc1=Cc1[nH]c(=O)[nH]c1O

>  <score_type>  (88) 
oracle

>  <origin>  (88) 
adg

>  <m_score__min__energy>  (88) 
-18.239999999999998

>  <m_primary>  (88) 
energy

$$$$
88:0
     RDKit          3D

 45 47  0  0  0  0  0  0  0  0999 V2000
   59.6934   25.8779   47.4606 H   0  0  0  0  0  0  0  0  0  0  0  0
   60.2850   26.7460   47.7870 C   0  0  0  0  0  0  0  0  0  0  0  0
   61.1118   26.6114   48.5000 H   0  0  0  0  0  0  0  0  0  0  0  0
   59.9990   27.9650   47.3170 C   0  0  0  0  0  0  0  0  0  0  0  0
   59.0720   28.3190   46.3220 C   0  0  0  0  0  0  0  0  0  0  0  0
   58.1190   27.5810   45.7130 C   0  0  0  0  0  0  0  0  0  0  0  0
   57.7790   27.9160   44.7220 H   0  0  0  0  0  0  0  0  0  0  0  0
   57.4980   26.3680   46.2630 C   0  0  0  0  0  0  0  0  0  0  0  0
   58.3410   24.9740   46.6870 S   0  0  0  0  0  0  0  0  0  0  0  0
   56.9290   24.1160   47.0010 C   0  0  0  0  0  0  0  0  0  0  0  0
   56.8990   22.9240   47.4020 O   0  0  0  0  0  0  0  0  0  0  0  0
   55.8160   24.8400   46.7630 N   0  0  0  0  0  0  0  0  0  0  0  0
   56.1320   26.0900   46.3340 C   0  0  0  0  0  0  0  0  0  0  0  0
   55.1520   27.0070   45.9760 O   0  0  0  0  0  0  0  0  0  0  0  0
   59.2920   29.6730   46.0740 C   0  0  0  0  0  0  0  0  0  0  0  0
   58.5900   30.5250   45.0940 C   0  0  0  0  0  0  0  0  0  0  0  0
   58.3600   30.0600   43.9450 O   0  0  0  0  0  0  0  0  0  0  0  0
   58.1830   31.8720   45.4180 N   0  0  0  0  0  0  0  0  0  0  0  0
   57.7810   32.2280   46.7850 C   0  0  0  0  0  0  0  0  0  0  0  0
   56.6873   32.1452   46.8690 H   0  0  0  0  0  0  0  0  0  0  0  0
   58.2806   31.5392   47.4821 H   0  0  0  0  0  0  0  0  0  0  0  0
   58.2040   33.6700   47.1420 C   0  0  0  0  0  0  0  0  0  0  0  0
   57.4831   34.0688   47.8708 H   0  0  0  0  0  0  0  0  0  0  0  0
   59.2276   33.6059   47.5396 H   0  0  0  0  0  0  0  0  0  0  0  0
   58.2580   34.6020   45.9850 N   0  0  0  0  0  0  0  0  0  0  0  0
   59.6420   34.9050   45.5580 C   0  0  0  0  0  0  0  0  0  0  0  0
   59.8869   34.3036   44.6701 H   0  0  0  0  0  0  0  0  0  0  0  0
   59.7151   35.9768   45.3215 H   0  0  0  0  0  0  0  0  0  0  0  0
   60.6290   34.5770   46.6750 C   0  0  0  0  0  0  0  0  0  0  0  0
   60.1458   34.7376   47.6501 H   0  0  0  0  0  0  0  0  0  0  0  0
   60.9430   33.5262   46.5900 H   0  0  0  0  0  0  0  0  0  0  0  0
   61.5095   35.2308   46.5900 H   0  0  0  0  0  0  0  0  0  0  0  0
   57.4130   34.1600   44.8580 C   0  0  0  0  0  0  0  0  0  0  0  0
   56.3708   34.0808   45.2010 H   0  0  0  0  0  0  0  0  0  0  0  0
   57.5007   34.8986   44.0475 H   0  0  0  0  0  0  0  0  0  0  0  0
   57.8680   32.7960   44.3220 C   0  0  0  0  0  0  0  0  0  0  0  0
   57.0625   32.3646   43.7096 H   0  0  0  0  0  0  0  0  0  0  0  0
   58.7767   32.9443   43.7201 H   0  0  0  0  0  0  0  0  0  0  0  0
   60.2970   30.0820   46.9350 C   0  0  0  0  0  0  0  0  0  0  0  0
   60.8730   31.4600   47.0400 C   0  0  0  0  0  0  0  0  0  0  0  0
   60.9860   31.7304   48.1003 H   0  0  0  0  0  0  0  0  0  0  0  0
   61.8568   31.4846   46.5484 H   0  0  0  0  0  0  0  0  0  0  0  0
   60.1994   32.1774   46.5484 H   0  0  0  0  0  0  0  0  0  0  0  0
   60.7040   29.0520   47.6960 N   0  0  0  0  0  0  0  0  0  0  0  0
   61.4690   29.0810   48.4070 H   0  0  0  0  0  0  0  0  0  0  0  0
  1  2  1  0
  2  3  1  0
  2  4  2  0
  4  5  1  0
  5  6  2  0
  6  7  1  0
  6  8  1  0
  8  9  1  0
  9 10  1  0
 10 11  2  0
 10 12  1  0
 12 13  1  0
 13 14  1  0
  5 15  1  0
 15 16  1  0
 16 17  2  0
 16 18  1  0
 18 19  1  0
 19 20  1  0
 19 21  1  0
 19 22  1  0
 22 23  1  0
 22 24  1  0
 22 25  1  0
 25 26  1  0
 26 27  1  0
 26 28  1  0
 26 29  1  0
 29 30  1  0
 29 31  1  0
 29 32  1  0
 25 33  1  0
 33 34  1  0
 33 35  1  0
 33 36  1  0
 36 37  1  0
 36 38  1  0
 15 39  2  0
 39 40  1  0
 40 41  1  0
 40 42  1  0
 40 43  1  0
 39 44  1  0
 44 45  1  0
 44  4  1  0
 13  8  2  0
 36 18  1  0
M  CHG  2  12  -1  14  -1
M  END
>  <UniqueID>  (89) 
85

>  <SMILES>  (89) 
C=c1[nH]c(C)c(C(=O)N2CCN(CC)CC2)/c1=C/c1sc(=O)[n-]c1[O-]

>  <Energy>  (89) 
126.87593236432012

>  <Genealogy>  (89) 
C=c1[nH]c(C)c(C(=O)N2CCN(CC)CC2)c1=Cc1sc(=O)[n-]c1[O-] (protonated)
C=c1[nH]c(C)c(C(=O)N2CCN(CC)CC2)/c1=C/c1sc(=O)[n-]c1[O-] (cis-trans isomerization)
C=c1[nH]c(C)c(C(=O)N2CCN(CC)CC2)/c1=C/c1sc(=O)[n-]c1[O-] (3D coordinates assigned)
C=c1[nH]c(C)c(C(=O)N2CCN(CC)CC2)/c1=C/c1sc(=O)[n-]c1[O-] (nonaromatic ring conformer: 126.87593236432012 kcal/mol)

>  <smiles>  (89) 
C=c1[nH]c(C)c(C(=O)N2CCN(CC)CC2)c1=Cc1sc(=O)[nH]c1O

>  <score_type>  (89) 
oracle

>  <origin>  (89) 
adg

>  <m_score__min__energy>  (89) 
-13.789999999999999

>  <m_primary>  (89) 
energy

$$$$
89:0
     RDKit          3D

 46 49  0  0  0  0  0  0  0  0999 V2000
   57.0400   27.5610   45.9740 C   0  0  0  0  0  0  0  0  0  0  0  0
   56.9380   28.8780   45.2700 C   0  0  0  0  0  0  0  0  0  0  0  0
   55.7800   29.2620   44.6630 N   0  0  0  0  0  0  0  0  0  0  0  0
   55.8840   30.4670   44.0670 C   0  0  0  0  0  0  0  0  0  0  0  0
   57.4230   31.1010   44.2670 S   0  0  0  0  0  0  0  0  0  0  0  0
   57.9820   29.8040   45.1780 C   0  0  0  0  0  0  0  0  0  0  0  0
   59.3700   29.6250   45.6420 C   0  0  0  0  0  0  0  0  0  0  0  0
   60.2730   29.4560   44.7760 O   0  0  0  0  0  0  0  0  0  0  0  0
   59.7200   29.6870   47.0500 N   0  0  0  0  0  0  0  0  0  0  0  0
   59.5210   28.4680   47.8610 C   0  0  0  0  0  0  0  0  0  0  0  0
   60.1870   28.5530   49.2310 C   0  0  0  0  0  0  0  0  0  0  0  0
   59.8710   29.8640   49.8710 C   0  0  0  0  0  0  0  0  0  0  0  0
   59.8880   30.9850   49.1410 C   0  0  0  0  0  0  0  0  0  0  0  0
   60.2300   30.9560   47.6550 C   0  0  1  0  0  0  0  0  0  0  0  0
   61.7990   31.0340   47.5780 C   0  0  0  0  0  0  0  0  0  0  0  0
   62.3580   32.3630   47.8420 N   0  0  0  0  0  0  0  0  0  0  0  0
   62.2200   33.1050   48.9560 C   0  0  0  0  0  0  0  0  0  0  0  0
   63.0170   34.2190   48.8300 C   0  0  0  0  0  0  0  0  0  0  0  0
   63.6760   34.1660   47.6600 N   0  0  0  0  0  0  0  0  0  0  0  0
   63.2620   33.0140   47.0890 C   0  0  0  0  0  0  0  0  0  0  0  0
   59.4840   32.1490   47.0230 C   0  0  0  0  0  0  0  0  0  0  0  0
   58.1470   32.3920   47.4140 C   0  0  0  0  0  0  0  0  0  0  0  0
   57.3960   33.4120   46.8210 C   0  0  0  0  0  0  0  0  0  0  0  0
   57.9550   34.2040   45.8180 C   0  0  0  0  0  0  0  0  0  0  0  0
   59.2710   33.9850   45.4150 C   0  0  0  0  0  0  0  0  0  0  0  0
   60.0330   32.9710   46.0110 C   0  0  0  0  0  0  0  0  0  0  0  0
   57.0273   27.7247   47.0617 H   0  0  0  0  0  0  0  0  0  0  0  0
   56.1884   26.9259   45.6888 H   0  0  0  0  0  0  0  0  0  0  0  0
   57.9793   27.0646   45.6888 H   0  0  0  0  0  0  0  0  0  0  0  0
   55.0689   30.9667   43.5229 H   0  0  0  0  0  0  0  0  0  0  0  0
   58.4413   28.3137   48.0042 H   0  0  0  0  0  0  0  0  0  0  0  0
   59.9849   27.6307   47.3190 H   0  0  0  0  0  0  0  0  0  0  0  0
   59.8149   27.7373   49.8683 H   0  0  0  0  0  0  0  0  0  0  0  0
   61.2766   28.4635   49.1093 H   0  0  0  0  0  0  0  0  0  0  0  0
   59.6243   29.9084   50.9421 H   0  0  0  0  0  0  0  0  0  0  0  0
   59.6509   31.9456   49.6216 H   0  0  0  0  0  0  0  0  0  0  0  0
   62.2140   30.3341   48.3182 H   0  0  0  0  0  0  0  0  0  0  0  0
   62.0731   30.7807   46.5433 H   0  0  0  0  0  0  0  0  0  0  0  0
   61.5808   32.8628   49.8178 H   0  0  0  0  0  0  0  0  0  0  0  0
   63.1017   35.0272   49.5713 H   0  0  0  0  0  0  0  0  0  0  0  0
   63.6240   32.6491   46.1165 H   0  0  0  0  0  0  0  0  0  0  0  0
   57.6903   31.7689   48.1970 H   0  0  0  0  0  0  0  0  0  0  0  0
   56.3606   33.5904   47.1468 H   0  0  0  0  0  0  0  0  0  0  0  0
   57.3588   34.9991   45.3465 H   0  0  0  0  0  0  0  0  0  0  0  0
   59.7135   34.6106   44.6258 H   0  0  0  0  0  0  0  0  0  0  0  0
   61.0723   32.8121   45.6875 H   0  0  0  0  0  0  0  0  0  0  0  0
  1  2  1  0
  2  3  1  0
  3  4  2  0
  4  5  1  0
  5  6  1  0
  6  7  1  0
  7  8  2  0
  7  9  1  0
  9 10  1  0
 10 11  1  0
 11 12  1  0
 12 13  2  0
 13 14  1  0
 14 15  1  1
 15 16  1  0
 16 17  1  0
 17 18  2  0
 18 19  1  0
 19 20  2  0
 14 21  1  0
 21 22  2  0
 22 23  1  0
 23 24  2  0
 24 25  1  0
 25 26  2  0
  6  2  2  0
 14  9  1  0
 20 16  1  0
 26 21  1  0
  1 27  1  0
  1 28  1  0
  1 29  1  0
  4 30  1  0
 10 31  1  0
 10 32  1  0
 11 33  1  0
 11 34  1  0
 12 35  1  0
 13 36  1  0
 15 37  1  0
 15 38  1  0
 17 39  1  0
 18 40  1  0
 20 41  1  0
 22 42  1  0
 23 43  1  0
 24 44  1  0
 25 45  1  0
 26 46  1  0
M  END
>  <UniqueID>  (90) 
86

>  <SMILES>  (90) 
Cc1ncsc1C(=O)N1CCC=C[C@]1(Cn1ccnc1)c1ccccc1

>  <Energy>  (90) 
123.25480593690689

>  <Genealogy>  (90) 
Cc1ncsc1C(=O)N1CCC=C[C@]1(Cn1ccnc1)c1ccccc1 (chirality)
Cc1ncsc1C(=O)N1CCC=C[C@]1(Cn1ccnc1)c1ccccc1 (3D coordinates assigned)
Cc1ncsc1C(=O)N1CCC=C[C@]1(Cn1ccnc1)c1ccccc1 (nonaromatic ring conformer: 123.25480593690689 kcal/mol)

>  <smiles>  (90) 
Cc1ncsc1C(=O)N1CCC=CC1(Cn1ccnc1)c1ccccc1

>  <score_type>  (90) 
oracle

>  <origin>  (90) 
adg

>  <m_score__min__energy>  (90) 
-7.54

>  <m_primary>  (90) 
energy

$$$$
90:0
     RDKit          3D

 50 53  0  0  0  0  0  0  0  0999 V2000
   57.4750   28.4930   43.3990 N   0  0  0  0  0  0  0  0  0  0  0  0
   56.8670   29.3760   44.7550 S   0  0  0  0  0  0  0  0  0  0  0  0
   57.2090   28.6300   46.0150 O   0  0  0  0  0  0  0  0  0  0  0  0
   55.3720   29.4960   44.6530 O   0  0  0  0  0  0  0  0  0  0  0  0
   57.5800   30.9880   44.7870 C   0  0  0  0  0  0  0  0  0  0  0  0
   57.4060   31.8690   43.7110 C   0  0  0  0  0  0  0  0  0  0  0  0
   57.9740   33.1440   43.7510 C   0  0  0  0  0  0  0  0  0  0  0  0
   58.7090   33.5500   44.8670 C   0  0  0  0  0  0  0  0  0  0  0  0
   58.8800   32.6820   45.9580 C   0  0  0  0  0  0  0  0  0  0  0  0
   59.6300   33.1140   47.1610 C   0  0  0  0  0  0  0  0  0  0  0  0
   58.9990   33.6100   48.1320 O   0  0  0  0  0  0  0  0  0  0  0  0
   61.0610   32.9650   47.2540 N   0  0  0  0  0  0  0  0  0  0  0  0
   61.8710   33.8220   46.3690 C   0  0  0  0  0  0  0  0  0  0  0  0
   63.3730   33.7450   46.6770 C   0  0  0  0  0  0  0  0  0  0  0  0
   63.6140   33.7970   48.1860 C   0  0  0  0  0  0  0  0  0  0  0  0
   62.9130   32.6400   48.8400 C   0  0  0  0  0  0  0  0  0  0  0  0
   63.4680   32.0210   49.9680 C   0  0  0  0  0  0  0  0  0  0  0  0
   62.8310   30.9270   50.5510 C   0  0  0  0  0  0  0  0  0  0  0  0
   61.6570   30.4210   49.9910 C   0  0  0  0  0  0  0  0  0  0  0  0
   61.0940   31.0170   48.8530 C   0  0  0  0  0  0  0  0  0  0  0  0
   59.9430   30.3960   48.2610 N   0  0  0  0  0  0  0  0  0  0  0  0
   59.9670   29.1310   47.5750 C   0  0  0  0  0  0  0  0  0  0  0  0
   60.3820   29.0860   46.2330 C   0  0  0  0  0  0  0  0  0  0  0  0
   60.4330   27.8680   45.5490 C   0  0  0  0  0  0  0  0  0  0  0  0
   60.0650   26.6860   46.1950 C   0  0  0  0  0  0  0  0  0  0  0  0
   59.6350   26.7190   47.5230 C   0  0  0  0  0  0  0  0  0  0  0  0
   59.5770   27.9360   48.2110 C   0  0  0  0  0  0  0  0  0  0  0  0
   61.6810   32.1960   48.3190 C   0  0  0  0  0  0  0  0  0  0  0  0
   58.3210   31.3940   45.9030 C   0  0  0  0  0  0  0  0  0  0  0  0
   57.7530   29.1940   42.6780 H   0  0  0  0  0  0  0  0  0  0  0  0
   56.6760   27.9520   42.9990 H   0  0  0  0  0  0  0  0  0  0  0  0
   56.8211   31.5556   42.8337 H   0  0  0  0  0  0  0  0  0  0  0  0
   57.8422   33.8303   42.9015 H   0  0  0  0  0  0  0  0  0  0  0  0
   59.1563   34.5547   44.8917 H   0  0  0  0  0  0  0  0  0  0  0  0
   61.7091   33.5048   45.3283 H   0  0  0  0  0  0  0  0  0  0  0  0
   61.5524   34.8620   46.5332 H   0  0  0  0  0  0  0  0  0  0  0  0
   63.7763   32.8025   46.2784 H   0  0  0  0  0  0  0  0  0  0  0  0
   63.8768   34.6023   46.2067 H   0  0  0  0  0  0  0  0  0  0  0  0
   64.6935   33.7347   48.3883 H   0  0  0  0  0  0  0  0  0  0  0  0
   63.2218   34.7420   48.5899 H   0  0  0  0  0  0  0  0  0  0  0  0
   64.4087   32.3994   50.3944 H   0  0  0  0  0  0  0  0  0  0  0  0
   63.2540   30.4618   51.4536 H   0  0  0  0  0  0  0  0  0  0  0  0
   61.1688   29.5467   50.4463 H   0  0  0  0  0  0  0  0  0  0  0  0
   59.0120   30.8420   48.4380 H   0  0  0  0  0  0  0  0  0  0  0  0
   60.6684   30.0148   45.7178 H   0  0  0  0  0  0  0  0  0  0  0  0
   60.7635   27.8406   44.5002 H   0  0  0  0  0  0  0  0  0  0  0  0
   60.1139   25.7278   45.6570 H   0  0  0  0  0  0  0  0  0  0  0  0
   59.3415   25.7873   48.0288 H   0  0  0  0  0  0  0  0  0  0  0  0
   59.2254   27.9598   49.2530 H   0  0  0  0  0  0  0  0  0  0  0  0
   58.4668   30.6994   46.7434 H   0  0  0  0  0  0  0  0  0  0  0  0
  1  2  1  0
  2  3  2  0
  2  4  2  0
  2  5  1  0
  5  6  2  0
  6  7  1  0
  7  8  2  0
  8  9  1  0
  9 10  1  0
 10 11  2  0
 10 12  1  0
 12 13  1  0
 13 14  1  0
 14 15  1  0
 15 16  1  0
 16 17  2  0
 17 18  1  0
 18 19  2  0
 19 20  1  0
 20 21  1  0
 21 22  1  0
 22 23  2  0
 23 24  1  0
 24 25  2  0
 25 26  1  0
 26 27  2  0
 20 28  2  0
  9 29  2  0
 29  5  1  0
 28 12  1  0
 28 16  1  0
 27 22  1  0
  1 30  1  0
  1 31  1  0
  6 32  1  0
  7 33  1  0
  8 34  1  0
 13 35  1  0
 13 36  1  0
 14 37  1  0
 14 38  1  0
 15 39  1  0
 15 40  1  0
 17 41  1  0
 18 42  1  0
 19 43  1  0
 21 44  1  0
 23 45  1  0
 24 46  1  0
 25 47  1  0
 26 48  1  0
 27 49  1  0
 29 50  1  0
M  END
>  <UniqueID>  (91) 
87

>  <SMILES>  (91) 
NS(=O)(=O)c1cccc(C(=O)N2CCCc3cccc(Nc4ccccc4)c32)c1

>  <Energy>  (91) 
66.50998870638166

>  <Genealogy>  (91) 
NS(=O)(=O)c1cccc(C(=O)N2CCCc3cccc(Nc4ccccc4)c32)c1 (3D coordinates assigned)
NS(=O)(=O)c1cccc(C(=O)N2CCCc3cccc(Nc4ccccc4)c32)c1 (nonaromatic ring conformer: 66.50998870638166 kcal/mol)

>  <smiles>  (91) 
NS(=O)(=O)c1cccc(C(=O)N2CCCc3cccc(Nc4ccccc4)c32)c1

>  <score_type>  (91) 
oracle

>  <origin>  (91) 
adg

>  <m_score__min__energy>  (91) 
-9.8100000000000005

>  <m_primary>  (91) 
energy

$$$$
