0:0
     RDKit          3D

 48 51  0  0  0  0  0  0  0  0999 V2000
   59.5630   28.0270   46.9700 C   0  0  0  0  0  0  0  0  0  0  0  0
   58.8600   28.5620   45.9610 C   0  0  0  0  0  0  0  0  0  0  0  0
   58.1660   27.8780   44.9480 C   0  0  0  0  0  0  0  0  0  0  0  0
   57.8780   26.5700   44.8010 C   0  0  0  0  0  0  0  0  0  0  0  0
   57.3040   25.6990   45.8370 C   0  0  0  0  0  0  0  0  0  0  0  0
   57.9900   24.7580   46.5130 N   0  0  0  0  0  0  0  0  0  0  0  0
   57.0980   24.3220   47.4290 C   0  0  0  0  0  0  0  0  0  0  0  0
   57.3670   23.4130   48.2560 O   0  0  0  0  0  0  0  0  0  0  0  0
   55.8990   24.9430   47.3940 N   0  0  0  0  0  0  0  0  0  0  0  0
   56.0530   25.8220   46.3900 C   0  0  0  0  0  0  0  0  0  0  0  0
   55.0710   26.7200   45.9920 O   0  0  0  0  0  0  0  0  0  0  0  0
   57.7680   28.8390   44.0330 C   0  0  0  0  0  0  0  0  0  0  0  0
   58.1750   30.0600   44.5320 C   0  0  0  0  0  0  0  0  0  0  0  0
   57.9450   31.3790   43.8590 C   0  0  0  0  0  0  0  0  0  0  0  0
   58.8230   29.8960   45.7050 N   0  0  0  0  0  0  0  0  0  0  0  0
   59.4730   30.9430   46.4460 C   0  0  0  0  0  0  0  0  0  0  0  0
   60.8490   30.8650   46.7070 C   0  0  0  0  0  0  0  0  0  0  0  0
   61.4990   31.8840   47.4220 C   0  0  0  0  0  0  0  0  0  0  0  0
   62.9450   31.7870   47.7190 C   0  0  0  0  0  0  0  0  0  0  0  0
   63.7590   31.5530   46.7860 O   0  0  0  0  0  0  0  0  0  0  0  0
   63.4450   31.9590   49.0540 N   0  0  0  0  0  0  0  0  0  0  0  0
   64.3660   33.0570   49.3470 C   0  0  0  0  0  0  0  0  0  0  0  0
   65.3160   32.6480   50.4770 C   0  0  0  0  0  0  0  0  0  0  0  0
   64.5940   32.1460   51.5870 O   0  0  0  0  0  0  0  0  0  0  0  0
   63.9320   30.9480   51.2270 C   0  0  0  0  0  0  0  0  0  0  0  0
   62.8550   31.2200   50.1730 C   0  0  0  0  0  0  0  0  0  0  0  0
   60.7500   32.9770   47.8880 C   0  0  0  0  0  0  0  0  0  0  0  0
   59.3800   33.0590   47.6240 C   0  0  0  0  0  0  0  0  0  0  0  0
   58.7410   32.0470   46.9040 C   0  0  0  0  0  0  0  0  0  0  0  0
   57.4070   32.1290   46.6700 F   0  0  0  0  0  0  0  0  0  0  0  0
   60.0618   28.6811   47.7003 H   0  0  0  0  0  0  0  0  0  0  0  0
   59.6408   26.9341   47.0673 H   0  0  0  0  0  0  0  0  0  0  0  0
   58.0905   26.1150   43.8223 H   0  0  0  0  0  0  0  0  0  0  0  0
   57.2306   28.6628   43.0895 H   0  0  0  0  0  0  0  0  0  0  0  0
   57.8087   32.1606   44.6209 H   0  0  0  0  0  0  0  0  0  0  0  0
   58.8135   31.6266   43.2310 H   0  0  0  0  0  0  0  0  0  0  0  0
   57.0439   31.3180   43.2310 H   0  0  0  0  0  0  0  0  0  0  0  0
   61.4238   29.9983   46.3486 H   0  0  0  0  0  0  0  0  0  0  0  0
   64.9506   33.2939   48.4458 H   0  0  0  0  0  0  0  0  0  0  0  0
   63.7905   33.9414   49.6578 H   0  0  0  0  0  0  0  0  0  0  0  0
   65.9989   31.8681   50.1089 H   0  0  0  0  0  0  0  0  0  0  0  0
   65.8827   33.5344   50.7980 H   0  0  0  0  0  0  0  0  0  0  0  0
   64.6664   30.2386   50.8180 H   0  0  0  0  0  0  0  0  0  0  0  0
   63.4518   30.5266   52.1225 H   0  0  0  0  0  0  0  0  0  0  0  0
   62.4487   30.2650   49.8086 H   0  0  0  0  0  0  0  0  0  0  0  0
   62.0452   31.8152   50.6202 H   0  0  0  0  0  0  0  0  0  0  0  0
   61.2445   33.7730   48.4640 H   0  0  0  0  0  0  0  0  0  0  0  0
   58.8031   33.9234   47.9845 H   0  0  0  0  0  0  0  0  0  0  0  0
  1  2  2  0
  2  3  1  0
  3  4  2  3
  4  5  1  0
  5  6  1  0
  6  7  1  0
  7  8  2  0
  7  9  1  0
  9 10  1  0
 10 11  1  0
  3 12  1  0
 12 13  2  0
 13 14  1  0
 13 15  1  0
 15 16  1  0
 16 17  2  0
 17 18  1  0
 18 19  1  0
 19 20  2  0
 19 21  1  0
 21 22  1  0
 22 23  1  0
 23 24  1  0
 24 25  1  0
 25 26  1  0
 18 27  2  0
 27 28  1  0
 28 29  2  0
 29 30  1  0
 15  2  1  0
 29 16  1  0
 10  5  2  0
 26 21  1  0
  1 31  1  0
  1 32  1  0
  4 33  1  0
 12 34  1  0
 14 35  1  0
 14 36  1  0
 14 37  1  0
 17 38  1  0
 22 39  1  0
 22 40  1  0
 23 41  1  0
 23 42  1  0
 25 43  1  0
 25 44  1  0
 26 45  1  0
 26 46  1  0
 27 47  1  0
 28 48  1  0
M  CHG  3   6  -1   9  -1  11  -1
M  END
>  <UniqueID>  (1) 
1

>  <SMILES>  (1) 
C=c1c(=Cc2[n-]c(=O)[n-]c2[O-])cc(C)n1-c1cc(C(=O)N2CCOCC2)ccc1F

>  <Energy>  (1) 
133.46472191813942

>  <Genealogy>  (1) 
C=c1c(=Cc2[n-]c(=O)[n-]c2[O-])cc(C)n1-c1cc(C(=O)N2CCOCC2)ccc1F (protonated)
C=c1c(=Cc2[n-]c(=O)[n-]c2[O-])cc(C)n1-c1cc(C(=O)N2CCOCC2)ccc1F (3D coordinates assigned)
C=c1c(=Cc2[n-]c(=O)[n-]c2[O-])cc(C)n1-c1cc(C(=O)N2CCOCC2)ccc1F (nonaromatic ring conformer: 133.46472191813942 kcal/mol)

>  <smiles>  (1) 
C=c1c(=Cc2[nH]c(=O)[nH]c2O)cc(C)n1-c1cc(C(=O)N2CCOCC2)ccc1F

>  <score_type>  (1) 
oracle

>  <origin>  (1) 
adg

>  <m_score__min__energy>  (1) 
-16.609999999999999

>  <m_primary>  (1) 
energy

$$$$
1:0
     RDKit          3D

 55 58  0  0  0  0  0  0  0  0999 V2000
   59.6460   35.7150   45.2080 C   0  0  0  0  0  0  0  0  0  0  0  0
   59.3410   34.5550   46.0600 N   0  0  0  0  0  0  0  0  0  0  0  0
   59.7300   34.6030   47.3710 C   0  0  0  0  0  0  0  0  0  0  0  0
   59.5120   33.5250   48.2340 C   0  0  0  0  0  0  0  0  0  0  0  0
   60.0300   33.5910   49.6140 C   0  0  0  0  0  0  0  0  0  0  0  0
   59.2170   33.6180   50.5750 O   0  0  0  0  0  0  0  0  0  0  0  0
   61.4370   33.6660   49.8850 N   0  0  0  0  0  0  0  0  0  0  0  0
   62.4160   32.6240   49.5740 C   0  0  0  0  0  0  0  0  0  0  0  0
   61.7500   31.4240   48.9500 C   0  0  0  0  0  0  0  0  0  0  0  0
   61.0970   30.4780   49.7510 C   0  0  0  0  0  0  0  0  0  0  0  0
   60.4190   29.4040   49.1680 C   0  0  0  0  0  0  0  0  0  0  0  0
   60.3920   29.2330   47.7620 C   0  0  0  0  0  0  0  0  0  0  0  0
   59.6800   28.1120   47.1540 N   0  0  0  0  0  0  0  0  0  0  0  0
   58.2350   27.9390   47.4190 C   0  0  0  0  0  0  0  0  0  0  0  0
   57.6240   26.6910   46.7590 C   0  0  0  0  0  0  0  0  0  0  0  0
   58.2200   26.4110   45.5130 O   0  0  0  0  0  0  0  0  0  0  0  0
   59.5630   26.0550   45.7330 C   0  0  0  0  0  0  0  0  0  0  0  0
   60.3710   27.2850   46.1430 C   0  0  0  0  0  0  0  0  0  0  0  0
   61.0830   30.1810   46.9710 C   0  0  0  0  0  0  0  0  0  0  0  0
   61.7480   31.2620   47.5590 C   0  0  0  0  0  0  0  0  0  0  0  0
   58.8480   32.3890   47.7600 C   0  0  0  0  0  0  0  0  0  0  0  0
   58.6220   31.4240   48.5420 O   0  0  0  0  0  0  0  0  0  0  0  0
   58.4370   32.3330   46.4170 C   0  0  0  0  0  0  0  0  0  0  0  0
   57.7770   31.1970   45.9110 C   0  0  0  0  0  0  0  0  0  0  0  0
   57.3720   31.1420   44.5740 C   0  0  0  0  0  0  0  0  0  0  0  0
   56.5160   29.7210   43.9780 S   0  0  0  0  0  0  0  0  0  0  0  0
   57.5980   28.3720   43.9340 N   0  0  0  0  0  0  0  0  0  0  0  0
   55.3560   29.3930   44.8780 O   0  0  0  0  0  0  0  0  0  0  0  0
   55.9930   29.9930   42.5960 O   0  0  0  0  0  0  0  0  0  0  0  0
   57.6250   32.2240   43.7280 C   0  0  0  0  0  0  0  0  0  0  0  0
   58.2850   33.3580   44.2120 C   0  0  0  0  0  0  0  0  0  0  0  0
   58.6980   33.4390   45.5620 C   0  0  0  0  0  0  0  0  0  0  0  0
   59.8747   36.5849   45.8412 H   0  0  0  0  0  0  0  0  0  0  0  0
   60.5143   35.4853   44.5729 H   0  0  0  0  0  0  0  0  0  0  0  0
   58.7770   35.9421   44.5729 H   0  0  0  0  0  0  0  0  0  0  0  0
   60.2243   35.5082   47.7536 H   0  0  0  0  0  0  0  0  0  0  0  0
   63.1600   33.0279   48.8717 H   0  0  0  0  0  0  0  0  0  0  0  0
   62.9001   32.3082   50.5099 H   0  0  0  0  0  0  0  0  0  0  0  0
   61.1181   30.5813   50.8459 H   0  0  0  0  0  0  0  0  0  0  0  0
   59.8979   28.6797   49.8113 H   0  0  0  0  0  0  0  0  0  0  0  0
   58.0894   27.8617   48.5066 H   0  0  0  0  0  0  0  0  0  0  0  0
   57.7246   28.8114   46.9848 H   0  0  0  0  0  0  0  0  0  0  0  0
   57.7708   25.8282   47.4254 H   0  0  0  0  0  0  0  0  0  0  0  0
   56.5543   26.8837   46.5899 H   0  0  0  0  0  0  0  0  0  0  0  0
   59.6136   25.3027   46.5340 H   0  0  0  0  0  0  0  0  0  0  0  0
   59.9829   25.6412   44.8043 H   0  0  0  0  0  0  0  0  0  0  0  0
   61.3328   26.9511   46.5595 H   0  0  0  0  0  0  0  0  0  0  0  0
   60.5091   27.9054   45.2452 H   0  0  0  0  0  0  0  0  0  0  0  0
   61.0975   30.0662   45.8771 H   0  0  0  0  0  0  0  0  0  0  0  0
   62.2734   31.9904   46.9239 H   0  0  0  0  0  0  0  0  0  0  0  0
   57.5777   30.3430   46.5751 H   0  0  0  0  0  0  0  0  0  0  0  0
   57.0150   27.5120   44.0440 H   0  0  0  0  0  0  0  0  0  0  0  0
   58.2020   28.4380   44.7830 H   0  0  0  0  0  0  0  0  0  0  0  0
   57.3038   32.1841   42.6767 H   0  0  0  0  0  0  0  0  0  0  0  0
   58.4858   34.1994   43.5325 H   0  0  0  0  0  0  0  0  0  0  0  0
  1  2  1  0
  2  3  1  0
  3  4  2  0
  4  5  1  0
  5  6  2  0
  5  7  1  0
  7  8  1  0
  8  9  1  0
  9 10  2  0
 10 11  1  0
 11 12  2  0
 12 13  1  0
 13 14  1  0
 14 15  1  0
 15 16  1  0
 16 17  1  0
 17 18  1  0
 12 19  1  0
 19 20  2  0
  4 21  1  0
 21 22  2  0
 21 23  1  0
 23 24  2  0
 24 25  1  0
 25 26  1  0
 26 27  1  0
 26 28  2  0
 26 29  2  0
 25 30  2  0
 30 31  1  0
 31 32  2  0
 32  2  1  0
 20  9  1  0
 32 23  1  0
 18 13  1  0
  1 33  1  0
  1 34  1  0
  1 35  1  0
  3 36  1  0
  8 37  1  0
  8 38  1  0
 10 39  1  0
 11 40  1  0
 14 41  1  0
 14 42  1  0
 15 43  1  0
 15 44  1  0
 17 45  1  0
 17 46  1  0
 18 47  1  0
 18 48  1  0
 19 49  1  0
 20 50  1  0
 24 51  1  0
 27 52  1  0
 27 53  1  0
 30 54  1  0
 31 55  1  0
M  CHG  1   7  -1
M  END
>  <UniqueID>  (2) 
2

>  <SMILES>  (2) 
Cn1cc(C(=O)[N-]Cc2ccc(N3CCOCC3)cc2)c(=O)c2cc(S(N)(=O)=O)ccc21

>  <Energy>  (2) 
75.08424879696295

>  <Genealogy>  (2) 
Cn1cc(C(=O)[N-]Cc2ccc(N3CCOCC3)cc2)c(=O)c2cc(S(N)(=O)=O)ccc21 (protonated)
Cn1cc(C(=O)[N-]Cc2ccc(N3CCOCC3)cc2)c(=O)c2cc(S(N)(=O)=O)ccc21 (3D coordinates assigned)
Cn1cc(C(=O)[N-]Cc2ccc(N3CCOCC3)cc2)c(=O)c2cc(S(N)(=O)=O)ccc21 (nonaromatic ring conformer: 75.08424879696295 kcal/mol)

>  <smiles>  (2) 
Cn1cc(C(=O)NCc2ccc(N3CCOCC3)cc2)c(=O)c2cc(S(N)(=O)=O)ccc21

>  <score_type>  (2) 
oracle

>  <origin>  (2) 
adg

>  <m_score__min__energy>  (2) 
-10.98

>  <m_primary>  (2) 
energy

$$$$
2:0
     RDKit          3D

 54 57  0  0  0  0  0  0  0  0999 V2000
   59.3510   28.9150   44.1900 C   0  0  0  0  0  0  0  0  0  0  0  0
   59.3410   28.8980   45.5270 C   0  0  0  0  0  0  0  0  0  0  0  0
   60.2520   29.5600   46.2670 N   0  0  0  0  0  0  0  0  0  0  0  0
   59.9470   29.3390   47.5590 C   0  0  0  0  0  0  0  0  0  0  0  0
   60.7230   29.8780   48.6880 C   0  0  0  0  0  0  0  0  0  0  0  0
   60.7650   29.2370   49.7730 O   0  0  0  0  0  0  0  0  0  0  0  0
   61.4160   31.1310   48.5790 N   0  0  0  0  0  0  0  0  0  0  0  0
   62.6530   31.3300   49.3480 C   0  0  0  0  0  0  0  0  0  0  0  0
   63.2190   32.7410   49.1510 C   0  0  0  0  0  0  0  0  0  0  0  0
   63.1490   33.1260   47.6710 C   0  0  0  0  0  0  0  0  0  0  0  0
   61.6960   33.1380   47.1350 C   0  0  2  0  0  0  0  0  0  0  0  0
   61.2150   34.5170   47.0750 N   0  0  0  0  0  0  0  0  0  0  0  0
   60.0660   34.9320   46.3260 C   0  0  0  0  0  0  0  0  0  0  0  0
   59.9000   36.1550   46.0570 O   0  0  0  0  0  0  0  0  0  0  0  0
   59.0730   33.9320   45.8730 C   0  0  0  0  0  0  0  0  0  0  0  0
   58.9490   33.6050   44.5120 C   0  0  0  0  0  0  0  0  0  0  0  0
   58.0110   32.6570   44.1000 C   0  0  0  0  0  0  0  0  0  0  0  0
   57.1980   32.0350   45.0500 C   0  0  0  0  0  0  0  0  0  0  0  0
   56.2620   31.0840   44.6360 O   0  0  0  0  0  0  0  0  0  0  0  0
   56.4480   30.2710   43.4840 C   0  0  0  0  0  0  0  0  0  0  0  0
   57.3280   32.3610   46.3660 N   0  0  0  0  0  0  0  0  0  0  0  0
   58.2330   33.2820   46.7940 C   0  0  0  0  0  0  0  0  0  0  0  0
   60.7260   32.2820   47.9840 C   0  0  0  0  0  0  0  0  0  0  0  0
   58.8430   28.5150   47.6610 C   0  0  0  0  0  0  0  0  0  0  0  0
   58.4410   28.2250   46.3600 C   0  0  0  0  0  0  0  0  0  0  0  0
   57.3880   27.4730   45.9780 C   0  0  0  0  0  0  0  0  0  0  0  0
   57.0290   26.1610   46.5610 C   0  0  0  0  0  0  0  0  0  0  0  0
   57.8910   25.3150   47.1550 N   0  0  0  0  0  0  0  0  0  0  0  0
   57.1290   24.2430   47.4580 C   0  0  0  0  0  0  0  0  0  0  0  0
   57.5900   23.2280   48.0410 O   0  0  0  0  0  0  0  0  0  0  0  0
   55.8370   24.3450   47.0870 N   0  0  0  0  0  0  0  0  0  0  0  0
   55.7860   25.5610   46.5150 C   0  0  0  0  0  0  0  0  0  0  0  0
   54.6180   26.0990   45.9780 O   0  0  0  0  0  0  0  0  0  0  0  0
   58.5867   28.3591   43.6272 H   0  0  0  0  0  0  0  0  0  0  0  0
   60.1236   29.4848   43.6530 H   0  0  0  0  0  0  0  0  0  0  0  0
   61.0440   30.1410   45.9080 H   0  0  0  0  0  0  0  0  0  0  0  0
   62.4379   31.1775   50.4159 H   0  0  0  0  0  0  0  0  0  0  0  0
   63.4005   30.6064   48.9907 H   0  0  0  0  0  0  0  0  0  0  0  0
   62.6296   33.4568   49.7428 H   0  0  0  0  0  0  0  0  0  0  0  0
   64.2678   32.7611   49.4822 H   0  0  0  0  0  0  0  0  0  0  0  0
   63.5805   34.1301   47.5459 H   0  0  0  0  0  0  0  0  0  0  0  0
   63.7120   32.3728   47.1003 H   0  0  0  0  0  0  0  0  0  0  0  0
   61.7169   32.6883   46.1313 H   0  0  0  0  0  0  0  0  0  0  0  0
   59.5932   34.0977   43.7689 H   0  0  0  0  0  0  0  0  0  0  0  0
   57.9128   32.4016   43.0346 H   0  0  0  0  0  0  0  0  0  0  0  0
   56.6833   29.2425   43.7952 H   0  0  0  0  0  0  0  0  0  0  0  0
   55.5268   30.2705   42.8829 H   0  0  0  0  0  0  0  0  0  0  0  0
   57.2778   30.6711   42.8829 H   0  0  0  0  0  0  0  0  0  0  0  0
   58.3079   33.5192   47.8655 H   0  0  0  0  0  0  0  0  0  0  0  0
   60.3080   32.9049   48.7885 H   0  0  0  0  0  0  0  0  0  0  0  0
   59.9262   31.9078   47.3280 H   0  0  0  0  0  0  0  0  0  0  0  0
   58.3731   28.1576   48.5892 H   0  0  0  0  0  0  0  0  0  0  0  0
   56.7485   27.8643   45.1731 H   0  0  0  0  0  0  0  0  0  0  0  0
   53.7100   25.9230   46.3900 H   0  0  0  0  0  0  0  0  0  0  0  0
  1  2  2  0
  2  3  1  0
  3  4  1  0
  4  5  1  0
  5  6  2  0
  5  7  1  0
  7  8  1  0
  8  9  1  0
  9 10  1  0
 10 11  1  0
 11 12  1  0
 12 13  1  0
 13 14  2  0
 13 15  1  0
 15 16  2  0
 16 17  1  0
 17 18  2  0
 18 19  1  0
 19 20  1  0
 18 21  1  0
 21 22  2  0
 11 23  1  0
  4 24  2  0
 24 25  1  0
 25 26  2  3
 26 27  1  0
 27 28  1  0
 28 29  1  0
 29 30  2  0
 29 31  1  0
 31 32  1  0
 32 33  1  0
 25  2  1  0
 32 27  2  0
 23  7  1  0
 22 15  1  0
  1 34  1  0
  1 35  1  0
  3 36  1  0
  8 37  1  0
  8 38  1  0
  9 39  1  0
  9 40  1  0
 10 41  1  0
 10 42  1  0
 11 43  1  6
 16 44  1  0
 17 45  1  0
 20 46  1  0
 20 47  1  0
 20 48  1  0
 22 49  1  0
 23 50  1  0
 23 51  1  0
 24 52  1  0
 26 53  1  0
 33 54  1  0
M  CHG  3  12  -1  28  -1  31  -1
M  END
>  <UniqueID>  (3) 
3

>  <SMILES>  (3) 
C=c1[nH]c(C(=O)N2CCC[C@H]([N-]C(=O)c3ccc(OC)nc3)C2)cc1=Cc1[n-]c(=O)[n-]c1O

>  <Energy>  (3) 
120.1856463453907

>  <Genealogy>  (3) 
C=c1[nH]c(C(=O)N2CCCC([N-]C(=O)c3ccc(OC)nc3)C2)cc1=Cc1[n-]c(=O)[n-]c1O (protonated)
C=c1[nH]c(C(=O)N2CCC[C@H]([N-]C(=O)c3ccc(OC)nc3)C2)cc1=Cc1[n-]c(=O)[n-]c1O (chirality)
C=c1[nH]c(C(=O)N2CCC[C@H]([N-]C(=O)c3ccc(OC)nc3)C2)cc1=Cc1[n-]c(=O)[n-]c1O (3D coordinates assigned)
C=c1[nH]c(C(=O)N2CCC[C@H]([N-]C(=O)c3ccc(OC)nc3)C2)cc1=Cc1[n-]c(=O)[n-]c1O (nonaromatic ring conformer: 120.1856463453907 kcal/mol)

>  <smiles>  (3) 
C=c1[nH]c(C(=O)N2CCCC(NC(=O)c3ccc(OC)nc3)C2)cc1=Cc1[nH]c(=O)[nH]c1O

>  <score_type>  (3) 
oracle

>  <origin>  (3) 
adg

>  <m_score__min__energy>  (3) 
-15.140000000000001

>  <m_primary>  (3) 
energy

$$$$
3:0
     RDKit          3D

 61 64  0  0  0  0  0  0  0  0999 V2000
   60.6319   35.4404   48.0767 H   0  0  0  0  0  0  0  0  0  0  0  0
   59.8800   34.9010   47.4820 C   0  0  0  0  0  0  0  0  0  0  0  0
   58.9670   34.1060   48.1010 N   0  0  0  0  0  0  0  0  0  0  0  0
   58.0270   33.4160   47.4020 C   0  0  0  0  0  0  0  0  0  0  0  0
   57.3051   32.7789   47.9340 H   0  0  0  0  0  0  0  0  0  0  0  0
   57.9760   33.5150   46.0030 C   0  0  0  0  0  0  0  0  0  0  0  0
   56.9240   32.7760   45.2210 C   0  0  0  0  0  0  0  0  0  0  0  0
   56.3073   33.5023   44.6713 H   0  0  0  0  0  0  0  0  0  0  0  0
   56.3041   32.1994   45.9234 H   0  0  0  0  0  0  0  0  0  0  0  0
   57.5630   31.8090   44.2270 C   0  0  0  0  0  0  0  0  0  0  0  0
   58.5611   31.5193   44.5875 H   0  0  0  0  0  0  0  0  0  0  0  0
   57.6547   32.2992   43.2465 H   0  0  0  0  0  0  0  0  0  0  0  0
   56.7280   30.6190   44.0990 N   0  0  0  0  0  0  0  0  0  0  0  0
   56.5940   29.6240   45.1190 C   0  0  0  0  0  0  0  0  0  0  0  0
   55.5090   28.9910   45.2040 O   0  0  0  0  0  0  0  0  0  0  0  0
   57.7140   29.2850   46.0290 C   0  0  0  0  0  0  0  0  0  0  0  0
   58.0630   27.9440   46.2650 C   0  0  0  0  0  0  0  0  0  0  0  0
   57.4871   27.1367   45.7890 H   0  0  0  0  0  0  0  0  0  0  0  0
   59.1080   27.6400   47.0780 N   0  0  0  0  0  0  0  0  0  0  0  0
   59.8600   28.6030   47.6820 C   0  0  0  0  0  0  0  0  0  0  0  0
   60.8580   28.2970   48.4600 N   0  0  0  0  0  0  0  0  0  0  0  0
   60.7870   27.8120   49.8140 C   0  0  0  0  0  0  0  0  0  0  0  0
   61.1810   26.6460   50.0980 O   0  0  0  0  0  0  0  0  0  0  0  0
   60.2500   28.6860   50.8830 C   0  0  0  0  0  0  0  0  0  0  0  0
   60.9680   28.8850   52.0760 C   0  0  0  0  0  0  0  0  0  0  0  0
   61.9401   28.3897   52.2167 H   0  0  0  0  0  0  0  0  0  0  0  0
   60.4570   29.7060   53.0830 C   0  0  0  0  0  0  0  0  0  0  0  0
   61.0279   29.8546   54.0114 H   0  0  0  0  0  0  0  0  0  0  0  0
   59.2260   30.3380   52.9160 C   0  0  0  0  0  0  0  0  0  0  0  0
   58.8273   30.9806   53.7148 H   0  0  0  0  0  0  0  0  0  0  0  0
   58.4940   30.1580   51.7340 C   0  0  0  0  0  0  0  0  0  0  0  0
   57.1770   30.8570   51.5310 C   0  0  0  0  0  0  0  0  0  0  0  0
   57.0644   31.1166   50.4680 H   0  0  0  0  0  0  0  0  0  0  0  0
   57.1579   31.7685   52.1465 H   0  0  0  0  0  0  0  0  0  0  0  0
   56.0740   29.9900   51.9340 N   0  0  0  0  0  0  0  0  0  0  0  0
   55.4600   29.9530   53.2320 C   0  0  0  0  0  0  0  0  0  0  0  0
   56.1840   30.1600   54.2420 O   0  0  0  0  0  0  0  0  0  0  0  0
   54.0030   29.6030   53.4210 C   0  0  0  0  0  0  0  0  0  0  0  0
   53.8742   28.5201   53.2768 H   0  0  0  0  0  0  0  0  0  0  0  0
   53.7060   29.9015   54.4372 H   0  0  0  0  0  0  0  0  0  0  0  0
   53.1260   30.3350   52.4390 C   0  0  0  0  0  0  0  0  0  0  0  0
   53.0180   29.8890   51.1090 C   0  0  0  0  0  0  0  0  0  0  0  0
   53.5973   29.0158   50.7745 H   0  0  0  0  0  0  0  0  0  0  0  0
   52.1760   30.5530   50.2110 C   0  0  0  0  0  0  0  0  0  0  0  0
   52.0981   30.2038   49.1708 H   0  0  0  0  0  0  0  0  0  0  0  0
   51.4330   31.6600   50.6330 C   0  0  0  0  0  0  0  0  0  0  0  0
   50.5970   32.3160   49.7370 O   0  0  0  0  0  0  0  0  0  0  0  0
   51.5290   32.1030   51.9580 C   0  0  0  0  0  0  0  0  0  0  0  0
   50.9443   32.9736   52.2900 H   0  0  0  0  0  0  0  0  0  0  0  0
   52.3670   31.4400   52.8590 C   0  0  0  0  0  0  0  0  0  0  0  0
   52.4325   31.7850   53.9015 H   0  0  0  0  0  0  0  0  0  0  0  0
   59.0090   29.3300   50.7240 C   0  0  0  0  0  0  0  0  0  0  0  0
   58.4354   29.1829   49.7970 H   0  0  0  0  0  0  0  0  0  0  0  0
   59.5570   29.9500   47.4570 C   0  0  0  0  0  0  0  0  0  0  0  0
   60.1587   30.7384   47.9328 H   0  0  0  0  0  0  0  0  0  0  0  0
   58.4890   30.2890   46.6270 C   0  0  0  0  0  0  0  0  0  0  0  0
   58.2537   31.3473   46.4408 H   0  0  0  0  0  0  0  0  0  0  0  0
   58.9030   34.3430   45.3530 C   0  0  0  0  0  0  0  0  0  0  0  0
   58.8733   34.4490   44.2585 H   0  0  0  0  0  0  0  0  0  0  0  0
   59.8640   35.0330   46.0960 C   0  0  0  0  0  0  0  0  0  0  0  0
   60.6011   35.6745   45.5908 H   0  0  0  0  0  0  0  0  0  0  0  0
  1  2  1  0
  2  3  2  0
  3  4  1  0
  4  5  1  0
  4  6  2  0
  6  7  1  0
  7  8  1  0
  7  9  1  0
  7 10  1  0
 10 11  1  0
 10 12  1  0
 10 13  1  0
 13 14  1  0
 14 15  2  0
 14 16  1  0
 16 17  2  0
 17 18  1  0
 17 19  1  0
 19 20  1  0
 20 21  2  0
 21 22  1  0
 22 23  2  0
 22 24  1  0
 24 25  2  0
 25 26  1  0
 25 27  1  0
 27 28  1  0
 27 29  2  0
 29 30  1  0
 29 31  1  0
 31 32  1  0
 32 33  1  0
 32 34  1  0
 32 35  1  0
 35 36  1  0
 36 37  2  0
 36 38  1  0
 38 39  1  0
 38 40  1  0
 38 41  1  0
 41 42  2  0
 42 43  1  0
 42 44  1  0
 44 45  1  0
 44 46  2  0
 46 47  1  0
 46 48  1  0
 48 49  1  0
 48 50  2  0
 50 51  1  0
 31 52  2  0
 52 53  1  0
 20 54  1  0
 54 55  1  0
 54 56  2  0
 56 57  1  0
  6 58  1  0
 58 59  1  0
 58 60  2  0
 60 61  1  0
 60  2  1  0
 56 16  1  0
 52 24  1  0
 50 41  1  0
M  CHG  4  13  -1  19  -1  35  -1  47  -1
M  END
>  <UniqueID>  (4) 
4

>  <SMILES>  (4) 
O=C(Cc1ccc([O-])cc1)[N-]Cc1cccc(C(=O)/N=c2/ccc(C(=O)[N-]CCc3cccnc3)c[n-]2)c1

>  <Energy>  (4) 
71.9511765799678

>  <Genealogy>  (4) 
O=C(Cc1ccc([O-])cc1)[N-]Cc1cccc(C(=O)N=c2ccc(C(=O)[N-]CCc3cccnc3)c[n-]2)c1 (protonated)
O=C(Cc1ccc([O-])cc1)[N-]Cc1cccc(C(=O)/N=c2/ccc(C(=O)[N-]CCc3cccnc3)c[n-]2)c1 (cis-trans isomerization)
O=C(Cc1ccc([O-])cc1)[N-]Cc1cccc(C(=O)/N=c2/ccc(C(=O)[N-]CCc3cccnc3)c[n-]2)c1 (3D coordinates assigned)
O=C(Cc1ccc([O-])cc1)[N-]Cc1cccc(C(=O)/N=c2/ccc(C(=O)[N-]CCc3cccnc3)c[n-]2)c1 (optimized conformer: 71.9511765799678 kcal/mol)

>  <smiles>  (4) 
O=C(Cc1ccc(O)cc1)NCc1cccc(C(=O)N=c2ccc(C(=O)NCCc3cccnc3)c[nH]2)c1

>  <score_type>  (4) 
oracle

>  <origin>  (4) 
adg

>  <m_score__min__energy>  (4) 
-16.920000000000002

>  <m_primary>  (4) 
energy

$$$$
4:0
     RDKit          3D

 45 47  0  0  0  0  0  0  0  0999 V2000
   60.1190   29.1440   48.0700 C   0  0  0  0  0  0  0  0  0  0  0  0
   59.4910   28.3070   46.9770 C   0  0  0  0  0  0  0  0  0  0  0  0
   58.9090   28.8860   45.8120 C   0  0  0  0  0  0  0  0  0  0  0  0
   58.9350   30.3690   45.4780 C   0  0  2  0  0  0  0  0  0  0  0  0
   58.3430   31.2200   46.6170 C   0  0  0  0  0  0  0  0  0  0  0  0
   58.7630   32.6640   46.5070 C   0  0  0  0  0  0  0  0  0  0  0  0
   59.5210   33.2630   47.5280 C   0  0  0  0  0  0  0  0  0  0  0  0
   59.9580   34.5840   47.3970 C   0  0  0  0  0  0  0  0  0  0  0  0
   59.6470   35.3150   46.2470 C   0  0  0  0  0  0  0  0  0  0  0  0
   58.9000   34.7250   45.2240 C   0  0  0  0  0  0  0  0  0  0  0  0
   58.4620   33.4020   45.3500 C   0  0  0  0  0  0  0  0  0  0  0  0
   58.2440   30.6610   44.2230 N   0  0  0  0  0  0  0  0  0  0  0  0
   56.8230   30.6460   44.0260 C   0  0  0  0  0  0  0  0  0  0  0  0
   56.1140   31.4610   44.6720 O   0  0  0  0  0  0  0  0  0  0  0  0
   56.1570   29.7330   43.0320 C   0  0  0  0  0  0  0  0  0  0  0  0
   57.0120   28.5860   42.7300 N   0  0  0  0  0  0  0  0  0  0  0  0
   58.3400   28.0720   44.8810 N   0  0  0  0  0  0  0  0  0  0  0  0
   58.2740   26.7260   45.0140 C   0  0  0  0  0  0  0  0  0  0  0  0
   57.6760   25.9580   44.0090 C   0  0  0  0  0  0  0  0  0  0  0  0
   57.5990   24.5690   44.1400 C   0  0  0  0  0  0  0  0  0  0  0  0
   57.0200   23.8270   43.1650 F   0  0  0  0  0  0  0  0  0  0  0  0
   58.1180   23.9440   45.2770 C   0  0  0  0  0  0  0  0  0  0  0  0
   58.7180   24.7040   46.2860 C   0  0  0  0  0  0  0  0  0  0  0  0
   58.8040   26.1050   46.1610 C   0  0  0  0  0  0  0  0  0  0  0  0
   59.4040   26.9060   47.1490 C   0  0  0  0  0  0  0  0  0  0  0  0
   59.8660   26.3690   48.1940 O   0  0  0  0  0  0  0  0  0  0  0  0
   59.8216   28.7476   49.0520 H   0  0  0  0  0  0  0  0  0  0  0  0
   61.2144   29.1074   47.9763 H   0  0  0  0  0  0  0  0  0  0  0  0
   59.7776   30.1855   47.9763 H   0  0  0  0  0  0  0  0  0  0  0  0
   59.9942   30.6394   45.3557 H   0  0  0  0  0  0  0  0  0  0  0  0
   57.2454   31.1630   46.5718 H   0  0  0  0  0  0  0  0  0  0  0  0
   58.7179   30.8245   47.5725 H   0  0  0  0  0  0  0  0  0  0  0  0
   59.7711   32.6901   48.4331 H   0  0  0  0  0  0  0  0  0  0  0  0
   60.5478   35.0493   48.2005 H   0  0  0  0  0  0  0  0  0  0  0  0
   59.9904   36.3552   46.1472 H   0  0  0  0  0  0  0  0  0  0  0  0
   58.6561   35.3009   44.3191 H   0  0  0  0  0  0  0  0  0  0  0  0
   57.8798   32.9381   44.5402 H   0  0  0  0  0  0  0  0  0  0  0  0
   55.2061   29.3738   43.4524 H   0  0  0  0  0  0  0  0  0  0  0  0
   55.9761   30.2935   42.1030 H   0  0  0  0  0  0  0  0  0  0  0  0
   58.0160   28.8370   42.8690 H   0  0  0  0  0  0  0  0  0  0  0  0
   56.7670   27.7980   43.3720 H   0  0  0  0  0  0  0  0  0  0  0  0
   56.8600   28.2780   41.7410 H   0  0  0  0  0  0  0  0  0  0  0  0
   57.2657   26.4486   43.1140 H   0  0  0  0  0  0  0  0  0  0  0  0
   58.0544   22.8506   45.3787 H   0  0  0  0  0  0  0  0  0  0  0  0
   59.1238   24.2070   47.1795 H   0  0  0  0  0  0  0  0  0  0  0  0
  1  2  1  0
  2  3  2  0
  3  4  1  0
  4  5  1  0
  5  6  1  0
  6  7  2  0
  7  8  1  0
  8  9  2  0
  9 10  1  0
 10 11  2  0
  4 12  1  0
 12 13  1  0
 13 14  2  0
 13 15  1  0
 15 16  1  0
  3 17  1  0
 17 18  1  0
 18 19  2  0
 19 20  1  0
 20 21  1  0
 20 22  2  0
 22 23  1  0
 23 24  2  0
 24 25  1  0
 25 26  2  0
 25  2  1  0
 11  6  1  0
 24 18  1  0
  1 27  1  0
  1 28  1  0
  1 29  1  0
  4 30  1  6
  5 31  1  0
  5 32  1  0
  7 33  1  0
  8 34  1  0
  9 35  1  0
 10 36  1  0
 11 37  1  0
 15 38  1  0
 15 39  1  0
 16 40  1  0
 16 41  1  0
 16 42  1  0
 19 43  1  0
 22 44  1  0
 23 45  1  0
M  CHG  3  12  -1  16   1  17  -1
M  END
>  <UniqueID>  (5) 
5

>  <SMILES>  (5) 
Cc1c([C@H](Cc2ccccc2)[N-]C(=O)C[NH3+])[n-]c2cc(F)ccc2c1=O

>  <Energy>  (5) 
49.30183572965379

>  <Genealogy>  (5) 
Cc1c(C(Cc2ccccc2)[N-]C(=O)C[NH3+])[n-]c2cc(F)ccc2c1=O (protonated)
Cc1c([C@H](Cc2ccccc2)[N-]C(=O)C[NH3+])[n-]c2cc(F)ccc2c1=O (chirality)
Cc1c([C@H](Cc2ccccc2)[N-]C(=O)C[NH3+])[n-]c2cc(F)ccc2c1=O (3D coordinates assigned)
Cc1c([C@H](Cc2ccccc2)[N-]C(=O)C[NH3+])[n-]c2cc(F)ccc2c1=O (optimized conformer: 49.30183572965379 kcal/mol)

>  <smiles>  (5) 
Cc1c(C(Cc2ccccc2)NC(=O)CN)[nH]c2cc(F)ccc2c1=O

>  <score_type>  (5) 
oracle

>  <origin>  (5) 
adg

>  <m_score__min__energy>  (5) 
-9.1500000000000004

>  <m_primary>  (5) 
energy

$$$$
5:0
     RDKit          3D

 60 63  0  0  0  0  0  0  0  0999 V2000
   57.0710   31.1850   42.7970 C   0  0  0  0  0  0  0  0  0  0  0  0
   56.5680   29.7480   42.9330 C   0  0  0  0  0  0  0  0  0  0  0  0
   56.3720   29.3630   44.3780 C   0  0  0  0  0  0  0  0  0  0  0  0
   55.2110   29.4020   44.8710 O   0  0  0  0  0  0  0  0  0  0  0  0
   57.5210   28.9960   45.2440 C   0  0  0  0  0  0  0  0  0  0  0  0
   58.6940   29.7690   45.2200 C   0  0  0  0  0  0  0  0  0  0  0  0
   59.7760   29.4490   46.0410 C   0  0  0  0  0  0  0  0  0  0  0  0
   59.7020   28.3530   46.9180 C   0  0  0  0  0  0  0  0  0  0  0  0
   60.7510   27.9960   47.7810 O   0  0  0  0  0  0  0  0  0  0  0  0
   61.1410   28.7050   48.9580 C   0  0  2  0  0  0  0  0  0  0  0  0
   60.3460   28.1720   50.1780 C   0  0  0  0  0  0  0  0  0  0  0  0
   59.5300   29.3400   50.6370 C   0  0  0  0  0  0  0  0  0  0  0  0
   58.6260   29.3670   51.6990 C   0  0  0  0  0  0  0  0  0  0  0  0
   57.9500   30.5740   51.9950 C   0  0  0  0  0  0  0  0  0  0  0  0
   57.0300   30.6690   53.0500 O   0  0  0  0  0  0  0  0  0  0  0  0
   57.3820   30.9130   54.4070 C   0  0  0  0  0  0  0  0  0  0  0  0
   58.1980   31.7280   51.2150 C   0  0  0  0  0  0  0  0  0  0  0  0
   57.5120   32.9100   51.5380 O   0  0  0  0  0  0  0  0  0  0  0  0
   57.9970   33.9060   52.4300 C   0  0  0  0  0  0  0  0  0  0  0  0
   59.1200   31.6680   50.1440 C   0  0  0  0  0  0  0  0  0  0  0  0
   59.7660   30.4600   49.8880 C   0  0  0  0  0  0  0  0  0  0  0  0
   60.7330   30.1450   48.8670 C   0  0  0  0  0  0  0  0  0  0  0  0
   61.1740   30.9680   48.0220 O   0  0  0  0  0  0  0  0  0  0  0  0
   58.5390   27.5770   46.9400 C   0  0  0  0  0  0  0  0  0  0  0  0
   57.4500   27.8760   46.0990 C   0  0  0  0  0  0  0  0  0  0  0  0
   56.2820   27.0960   46.1170 O   0  0  0  0  0  0  0  0  0  0  0  0
   56.1980   25.7540   45.7270 C   0  0  0  0  0  0  0  0  0  0  0  0
   55.2460   25.0280   46.1280 O   0  0  0  0  0  0  0  0  0  0  0  0
   57.2660   25.1890   44.9560 N   0  0  0  0  0  0  0  0  0  0  0  0
   57.2160   23.8990   44.3200 C   0  0  0  0  0  0  0  0  0  0  0  0
   58.1140   22.8990   44.7280 C   0  0  0  0  0  0  0  0  0  0  0  0
   58.1010   21.6430   44.1120 C   0  0  0  0  0  0  0  0  0  0  0  0
   57.2020   21.3810   43.0750 C   0  0  0  0  0  0  0  0  0  0  0  0
   56.3200   22.3760   42.6450 C   0  0  0  0  0  0  0  0  0  0  0  0
   56.3290   23.6330   43.2590 C   0  0  0  0  0  0  0  0  0  0  0  0
   57.2221   31.6168   43.7974 H   0  0  0  0  0  0  0  0  0  0  0  0
   58.0241   31.1894   42.2479 H   0  0  0  0  0  0  0  0  0  0  0  0
   56.3287   31.7829   42.2479 H   0  0  0  0  0  0  0  0  0  0  0  0
   55.6074   29.6545   42.4052 H   0  0  0  0  0  0  0  0  0  0  0  0
   57.3225   29.0766   42.4973 H   0  0  0  0  0  0  0  0  0  0  0  0
   58.7602   30.6362   44.5465 H   0  0  0  0  0  0  0  0  0  0  0  0
   60.6915   30.0575   46.0017 H   0  0  0  0  0  0  0  0  0  0  0  0
   62.2294   28.5813   49.0588 H   0  0  0  0  0  0  0  0  0  0  0  0
   59.6952   27.3360   49.8821 H   0  0  0  0  0  0  0  0  0  0  0  0
   61.0056   27.7873   50.9698 H   0  0  0  0  0  0  0  0  0  0  0  0
   58.4414   28.4628   52.2977 H   0  0  0  0  0  0  0  0  0  0  0  0
   56.6599   30.4124   55.0688 H   0  0  0  0  0  0  0  0  0  0  0  0
   58.3908   30.5194   54.6006 H   0  0  0  0  0  0  0  0  0  0  0  0
   57.3674   31.9957   54.6006 H   0  0  0  0  0  0  0  0  0  0  0  0
   57.8373   33.5780   53.4677 H   0  0  0  0  0  0  0  0  0  0  0  0
   59.0719   34.0619   52.2561 H   0  0  0  0  0  0  0  0  0  0  0  0
   57.4569   34.8484   52.2561 H   0  0  0  0  0  0  0  0  0  0  0  0
   59.3227   32.5555   49.5266 H   0  0  0  0  0  0  0  0  0  0  0  0
   58.4738   26.7191   47.6254 H   0  0  0  0  0  0  0  0  0  0  0  0
   58.1600   25.7280   44.9110 H   0  0  0  0  0  0  0  0  0  0  0  0
   58.8313   23.1045   45.5362 H   0  0  0  0  0  0  0  0  0  0  0  0
   58.7993   20.8608   44.4444 H   0  0  0  0  0  0  0  0  0  0  0  0
   57.1885   20.3906   42.5966 H   0  0  0  0  0  0  0  0  0  0  0  0
   55.6182   22.1707   41.8232 H   0  0  0  0  0  0  0  0  0  0  0  0
   55.6402   24.4171   42.9115 H   0  0  0  0  0  0  0  0  0  0  0  0
  1  2  1  0
  2  3  1  0
  3  4  2  0
  3  5  1  0
  5  6  2  0
  6  7  1  0
  7  8  2  0
  8  9  1  0
  9 10  1  0
 10 11  1  0
 11 12  1  0
 12 13  2  0
 13 14  1  0
 14 15  1  0
 15 16  1  0
 14 17  2  0
 17 18  1  0
 18 19  1  0
 17 20  1  0
 20 21  2  0
 21 22  1  0
 22 23  2  0
  8 24  1  0
 24 25  2  0
 25 26  1  0
 26 27  1  0
 27 28  2  0
 27 29  1  0
 29 30  1  0
 30 31  2  0
 31 32  1  0
 32 33  2  0
 33 34  1  0
 34 35  2  0
 25  5  1  0
 35 30  1  0
 22 10  1  0
 21 12  1  0
  1 36  1  0
  1 37  1  0
  1 38  1  0
  2 39  1  0
  2 40  1  0
  6 41  1  0
  7 42  1  0
 10 43  1  1
 11 44  1  0
 11 45  1  0
 13 46  1  0
 16 47  1  0
 16 48  1  0
 16 49  1  0
 19 50  1  0
 19 51  1  0
 19 52  1  0
 20 53  1  0
 24 54  1  0
 29 55  1  0
 31 56  1  0
 32 57  1  0
 33 58  1  0
 34 59  1  0
 35 60  1  0
M  END
>  <UniqueID>  (6) 
6

>  <SMILES>  (6) 
CCC(=O)c1ccc(O[C@@H]2Cc3cc(OC)c(OC)cc3C2=O)cc1OC(=O)Nc1ccccc1

>  <Energy>  (6) 
86.02464686971472

>  <Genealogy>  (6) 
CCC(=O)c1ccc(O[C@@H]2Cc3cc(OC)c(OC)cc3C2=O)cc1OC(=O)Nc1ccccc1 (chirality)
CCC(=O)c1ccc(O[C@@H]2Cc3cc(OC)c(OC)cc3C2=O)cc1OC(=O)Nc1ccccc1 (3D coordinates assigned)
CCC(=O)c1ccc(O[C@@H]2Cc3cc(OC)c(OC)cc3C2=O)cc1OC(=O)Nc1ccccc1 (nonaromatic ring conformer: 86.02464686971472 kcal/mol)

>  <smiles>  (6) 
CCC(=O)c1ccc(OC2Cc3cc(OC)c(OC)cc3C2=O)cc1OC(=O)Nc1ccccc1

>  <score_type>  (6) 
oracle

>  <origin>  (6) 
adg

>  <m_score__min__energy>  (6) 
-8.5600000000000005

>  <m_primary>  (6) 
energy

$$$$
6:0
     RDKit          3D

 70 75  0  0  0  0  0  0  0  0999 V2000
   54.8180   29.3710   43.7880 N   0  0  0  0  0  0  0  0  0  0  0  0
   55.9290   29.7480   44.3240 C   0  0  0  0  0  0  0  0  0  0  0  0
   56.1880   31.0760   44.4890 N   0  0  0  0  0  0  0  0  0  0  0  0
   57.3560   31.5030   45.0380 C   0  0  0  0  0  0  0  0  0  0  0  0
   58.3130   30.5620   45.4540 C   0  0  0  0  0  0  0  0  0  0  0  0
   58.0270   29.2020   45.2730 C   0  0  0  0  0  0  0  0  0  0  0  0
   56.8510   28.8240   44.7110 N   0  0  0  0  0  0  0  0  0  0  0  0
   59.5650   31.0220   46.0860 C   0  0  0  0  0  0  0  0  0  0  0  0
   60.4770   30.2000   46.3780 O   0  0  0  0  0  0  0  0  0  0  0  0
   59.7480   32.4320   46.3330 N   0  0  0  0  0  0  0  0  0  0  0  0
   60.4910   32.9110   47.4870 C   0  0  0  0  0  0  0  0  0  0  0  0
   61.8240   33.3560   47.3590 C   0  0  0  0  0  0  0  0  0  0  0  0
   62.4570   34.0060   48.4180 C   0  0  0  0  0  0  0  0  0  0  0  0
   61.7860   34.1890   49.6300 C   0  0  0  0  0  0  0  0  0  0  0  0
   60.4950   33.6840   49.8030 C   0  0  0  0  0  0  0  0  0  0  0  0
   59.8280   33.8320   51.0600 N   0  0  0  0  0  0  0  0  0  0  0  0
   58.6830   33.0620   51.4380 C   0  0  0  0  0  0  0  0  0  0  0  0
   58.0140   33.4090   52.4440 O   0  0  0  0  0  0  0  0  0  0  0  0
   58.2630   31.9290   50.6710 N   0  0  0  0  0  0  0  0  0  0  0  0
   59.0570   30.7600   50.4880 C   0  0  0  0  0  0  0  0  0  0  0  0
   58.9170   29.9630   49.3370 C   0  0  0  0  0  0  0  0  0  0  0  0
   59.6840   28.8090   49.1880 C   0  0  0  0  0  0  0  0  0  0  0  0
   60.5720   28.4250   50.1950 C   0  0  0  0  0  0  0  0  0  0  0  0
   60.6990   29.1980   51.3620 C   0  0  0  0  0  0  0  0  0  0  0  0
   61.5900   28.7580   52.4560 C   0  0  0  0  0  0  0  0  0  0  0  0
   62.1150   29.6220   53.2080 O   0  0  0  0  0  0  0  0  0  0  0  0
   61.8530   27.3620   52.6940 N   0  0  0  0  0  0  0  0  0  0  0  0
   62.1680   26.4460   51.5830 C   0  0  0  0  0  0  0  0  0  0  0  0
   61.2780   25.1910   51.6380 C   0  0  0  0  0  0  0  0  0  0  0  0
   60.9540   24.8160   53.0250 N   0  0  0  0  0  0  0  0  0  0  0  0
   59.6380   24.3070   53.3520 C   0  0  0  0  0  0  0  0  0  0  0  0
   59.0880   24.6550   54.4370 O   0  0  0  0  0  0  0  0  0  0  0  0
   58.9450   23.3100   52.4610 C   0  0  0  0  0  0  0  0  0  0  0  0
   59.8850   22.2220   52.0410 C   0  0  0  0  0  0  0  0  0  0  0  0
   61.0310   21.8380   52.7070 C   0  0  0  0  0  0  0  0  0  0  0  0
   61.6620   20.8960   51.9780 N   0  0  0  0  0  0  0  0  0  0  0  0
   60.8730   20.7570   50.8890 C   0  0  0  0  0  0  0  0  0  0  0  0
   61.1420   19.9560   49.9490 O   0  0  0  0  0  0  0  0  0  0  0  0
   59.7830   21.5510   50.8790 N   0  0  0  0  0  0  0  0  0  0  0  0
   61.8190   25.3310   54.0950 C   0  0  0  0  0  0  0  0  0  0  0  0
   61.7880   26.8590   54.0690 C   0  0  0  0  0  0  0  0  0  0  0  0
   59.9760   30.3920   51.4720 C   0  0  0  0  0  0  0  0  0  0  0  0
   59.8570   33.0360   48.7410 C   0  0  0  0  0  0  0  0  0  0  0  0
   59.0480   33.3560   45.4270 C   0  0  0  0  0  0  0  0  0  0  0  0
   57.5620   32.9780   45.2830 C   0  0  0  0  0  0  0  0  0  0  0  0
   54.7620   29.0820   42.7860 H   0  0  0  0  0  0  0  0  0  0  0  0
   58.7562   28.4405   45.5867 H   0  0  0  0  0  0  0  0  0  0  0  0
   62.3675   33.1890   46.4174 H   0  0  0  0  0  0  0  0  0  0  0  0
   63.4863   34.3753   48.2991 H   0  0  0  0  0  0  0  0  0  0  0  0
   62.2762   34.7328   50.4510 H   0  0  0  0  0  0  0  0  0  0  0  0
   58.2009   30.2513   48.5534 H   0  0  0  0  0  0  0  0  0  0  0  0
   59.5898   28.2003   48.2766 H   0  0  0  0  0  0  0  0  0  0  0  0
   61.1751   27.5130   50.0743 H   0  0  0  0  0  0  0  0  0  0  0  0
   61.9992   26.9659   50.6284 H   0  0  0  0  0  0  0  0  0  0  0  0
   63.2197   26.1357   51.6702 H   0  0  0  0  0  0  0  0  0  0  0  0
   60.3428   25.3926   51.0950 H   0  0  0  0  0  0  0  0  0  0  0  0
   61.8288   24.3583   51.1763 H   0  0  0  0  0  0  0  0  0  0  0  0
   58.1006   22.8648   53.0077 H   0  0  0  0  0  0  0  0  0  0  0  0
   58.5886   23.8323   51.5609 H   0  0  0  0  0  0  0  0  0  0  0  0
   61.3733   22.2353   53.6739 H   0  0  0  0  0  0  0  0  0  0  0  0
   61.4548   24.9714   55.0687 H   0  0  0  0  0  0  0  0  0  0  0  0
   62.8494   24.9779   53.9417 H   0  0  0  0  0  0  0  0  0  0  0  0
   60.8552   27.2079   54.5360 H   0  0  0  0  0  0  0  0  0  0  0  0
   62.6605   27.2368   54.6221 H   0  0  0  0  0  0  0  0  0  0  0  0
   60.1337   31.0462   52.3421 H   0  0  0  0  0  0  0  0  0  0  0  0
   58.8493   32.6190   48.8849 H   0  0  0  0  0  0  0  0  0  0  0  0
   59.1209   34.3770   45.8298 H   0  0  0  0  0  0  0  0  0  0  0  0
   59.5200   33.2949   44.4353 H   0  0  0  0  0  0  0  0  0  0  0  0
   57.0368   33.2575   46.2082 H   0  0  0  0  0  0  0  0  0  0  0  0
   57.1655   33.5178   44.4104 H   0  0  0  0  0  0  0  0  0  0  0  0
  1  2  2  3
  2  3  1  0
  3  4  2  0
  4  5  1  0
  5  6  2  0
  6  7  1  0
  5  8  1  0
  8  9  2  0
  8 10  1  0
 10 11  1  0
 11 12  2  0
 12 13  1  0
 13 14  2  0
 14 15  1  0
 15 16  1  0
 16 17  1  0
 17 18  2  0
 17 19  1  0
 19 20  1  0
 20 21  2  0
 21 22  1  0
 22 23  2  0
 23 24  1  0
 24 25  1  0
 25 26  2  0
 25 27  1  0
 27 28  1  0
 28 29  1  0
 29 30  1  0
 30 31  1  0
 31 32  2  0
 31 33  1  0
 33 34  1  0
 34 35  2  0
 35 36  1  0
 36 37  1  0
 37 38  2  0
 37 39  1  0
 30 40  1  0
 40 41  1  0
 24 42  2  0
 15 43  2  0
 10 44  1  0
 44 45  1  0
  7  2  1  0
 43 11  1  0
 45  4  1  0
 42 20  1  0
 41 27  1  0
 39 34  1  0
  1 46  1  0
  6 47  1  0
 12 48  1  0
 13 49  1  0
 14 50  1  0
 21 51  1  0
 22 52  1  0
 23 53  1  0
 28 54  1  0
 28 55  1  0
 29 56  1  0
 29 57  1  0
 33 58  1  0
 33 59  1  0
 35 60  1  0
 40 61  1  0
 40 62  1  0
 41 63  1  0
 41 64  1  0
 42 65  1  0
 43 66  1  0
 44 67  1  0
 44 68  1  0
 45 69  1  0
 45 70  1  0
M  CHG  5   7  -1  16  -1  19  -1  36  -1  39  -1
M  END
>  <UniqueID>  (7) 
7

>  <SMILES>  (7) 
N=c1nc2c(c[n-]1)C(=O)N(c1cccc([N-]C(=O)[N-]c3cccc(C(=O)N4CCN(C(=O)Cc5c[n-]c(=O)[n-]5)CC4)c3)c1)CC2

>  <Energy>  (7) 
128.31427561063705

>  <Genealogy>  (7) 
N=c1nc2c(c[n-]1)C(=O)N(c1cccc([N-]C(=O)[N-]c3cccc(C(=O)N4CCN(C(=O)Cc5c[n-]c(=O)[n-]5)CC4)c3)c1)CC2 (protonated)
N=c1nc2c(c[n-]1)C(=O)N(c1cccc([N-]C(=O)[N-]c3cccc(C(=O)N4CCN(C(=O)Cc5c[n-]c(=O)[n-]5)CC4)c3)c1)CC2 (3D coordinates assigned)
N=c1nc2c(c[n-]1)C(=O)N(c1cccc([N-]C(=O)[N-]c3cccc(C(=O)N4CCN(C(=O)Cc5c[n-]c(=O)[n-]5)CC4)c3)c1)CC2 (nonaromatic ring conformer: 128.31427561063705 kcal/mol)

>  <smiles>  (7) 
N=c1nc2c(c[nH]1)C(=O)N(c1cccc(NC(=O)Nc3cccc(C(=O)N4CCN(C(=O)Cc5c[nH]c(=O)[nH]5)CC4)c3)c1)CC2

>  <score_type>  (7) 
oracle

>  <origin>  (7) 
adg

>  <m_score__min__energy>  (7) 
-18.579999999999998

>  <m_primary>  (7) 
energy

$$$$
7:0
     RDKit          3D

 37 39  0  0  0  0  0  0  0  0999 V2000
   56.6790   33.8850   45.4040 O   0  0  0  0  0  0  0  0  0  0  0  0
   57.4480   32.8900   45.4760 C   0  0  0  0  0  0  0  0  0  0  0  0
   58.8510   33.0930   45.8800 C   0  0  0  0  0  0  0  0  0  0  0  0
   59.2370   33.6420   47.0420 C   0  0  0  0  0  0  0  0  0  0  0  0
   60.6080   33.5820   47.5930 C   0  0  0  0  0  0  0  0  0  0  0  0
   60.8590   33.8080   48.9590 C   0  0  0  0  0  0  0  0  0  0  0  0
   62.1650   33.7570   49.4530 C   0  0  0  0  0  0  0  0  0  0  0  0
   63.2370   33.5090   48.5920 C   0  0  0  0  0  0  0  0  0  0  0  0
   64.5300   33.4620   49.1120 O   0  0  0  0  0  0  0  0  0  0  0  0
   62.9970   33.3200   47.2200 C   0  0  0  0  0  0  0  0  0  0  0  0
   64.0520   33.0870   46.3460 O   0  0  0  0  0  0  0  0  0  0  0  0
   61.6880   33.3660   46.7250 C   0  0  0  0  0  0  0  0  0  0  0  0
   56.9890   31.5940   45.0720 N   0  0  0  0  0  0  0  0  0  0  0  0
   57.6120   30.3470   45.4030 C   0  0  0  0  0  0  0  0  0  0  0  0
   58.3070   30.2400   46.6150 C   0  0  0  0  0  0  0  0  0  0  0  0
   58.8660   29.0190   47.0040 C   0  0  0  0  0  0  0  0  0  0  0  0
   58.7150   27.8900   46.1950 C   0  0  0  0  0  0  0  0  0  0  0  0
   58.0020   27.9800   44.9940 C   0  0  0  0  0  0  0  0  0  0  0  0
   57.7550   26.5200   43.9860 S   0  0  0  0  0  0  0  0  0  0  0  0
   57.2340   25.5390   45.3910 C   0  0  0  0  0  0  0  0  0  0  0  0
   58.0900   24.2400   46.0330 S   0  0  0  0  0  0  0  0  0  0  0  0
   56.9350   23.9770   47.2290 C   0  0  0  0  0  0  0  0  0  0  0  0
   57.0110   23.0720   48.0990 O   0  0  0  0  0  0  0  0  0  0  0  0
   55.9060   24.8480   47.1630 N   0  0  0  0  0  0  0  0  0  0  0  0
   56.0740   25.7220   46.1360 C   0  0  0  0  0  0  0  0  0  0  0  0
   55.1490   26.7200   45.8640 O   0  0  0  0  0  0  0  0  0  0  0  0
   57.4570   29.2060   44.5960 C   0  0  0  0  0  0  0  0  0  0  0  0
   59.6365   32.7720   45.1800 H   0  0  0  0  0  0  0  0  0  0  0  0
   58.4761   34.1771   47.6291 H   0  0  0  0  0  0  0  0  0  0  0  0
   60.0236   34.0257   49.6407 H   0  0  0  0  0  0  0  0  0  0  0  0
   62.3502   33.9130   50.5260 H   0  0  0  0  0  0  0  0  0  0  0  0
   65.3090   33.0940   48.5810 H   0  0  0  0  0  0  0  0  0  0  0  0
   61.5057   33.2319   45.6485 H   0  0  0  0  0  0  0  0  0  0  0  0
   58.4134   31.1217   47.2641 H   0  0  0  0  0  0  0  0  0  0  0  0
   59.4255   28.9471   47.9484 H   0  0  0  0  0  0  0  0  0  0  0  0
   59.1565   26.9304   46.5020 H   0  0  0  0  0  0  0  0  0  0  0  0
   56.9048   29.2774   43.6474 H   0  0  0  0  0  0  0  0  0  0  0  0
  1  2  2  0
  2  3  1  0
  3  4  2  3
  4  5  1  0
  5  6  2  0
  6  7  1  0
  7  8  2  0
  8  9  1  0
  8 10  1  0
 10 11  1  0
 10 12  2  0
  2 13  1  0
 13 14  1  0
 14 15  2  0
 15 16  1  0
 16 17  2  0
 17 18  1  0
 18 19  1  0
 19 20  1  0
 20 21  1  0
 21 22  1  0
 22 23  2  0
 22 24  1  0
 24 25  1  0
 25 26  1  0
 18 27  2  0
 12  5  1  0
 27 14  1  0
 25 20  2  0
  3 28  1  0
  4 29  1  0
  6 30  1  0
  7 31  1  0
  9 32  1  0
 12 33  1  0
 15 34  1  0
 16 35  1  0
 17 36  1  0
 27 37  1  0
M  CHG  4  11  -1  13  -1  24  -1  26  -1
M  END
>  <UniqueID>  (8) 
8

>  <SMILES>  (8) 
O=C(C=Cc1ccc(O)c([O-])c1)[N-]c1cccc(Sc2sc(=O)[n-]c2[O-])c1

>  <Energy>  (8) 
75.56090577160612

>  <Genealogy>  (8) 
O=C(C=Cc1ccc(O)c([O-])c1)[N-]c1cccc(Sc2sc(=O)[n-]c2[O-])c1 (protonated)
O=C(C=Cc1ccc(O)c([O-])c1)[N-]c1cccc(Sc2sc(=O)[n-]c2[O-])c1 (3D coordinates assigned)
O=C(C=Cc1ccc(O)c([O-])c1)[N-]c1cccc(Sc2sc(=O)[n-]c2[O-])c1 (optimized conformer: 75.56090577160612 kcal/mol)

>  <smiles>  (8) 
O=C(C=Cc1ccc(O)c(O)c1)Nc1cccc(Sc2sc(=O)[nH]c2O)c1

>  <score_type>  (8) 
oracle

>  <origin>  (8) 
adg

>  <m_score__min__energy>  (8) 
-17.789999999999999

>  <m_primary>  (8) 
energy

$$$$
8:0
     RDKit          3D

 57 60  0  0  0  0  0  0  0  0999 V2000
   55.2640   23.7090   48.6540 H   0  0  0  0  0  0  0  0  0  0  0  0
   55.5060   24.0630   47.7380 O   0  0  0  0  0  0  0  0  0  0  0  0
   54.7670   23.6960   46.6180 C   0  0  0  0  0  0  0  0  0  0  0  0
   53.4770   23.3250   46.6580 N   0  0  0  0  0  0  0  0  0  0  0  0
   53.2090   23.0450   45.3650 C   0  0  0  0  0  0  0  0  0  0  0  0
   52.0810   22.6500   44.9750 O   0  0  0  0  0  0  0  0  0  0  0  0
   54.2520   23.2140   44.5210 N   0  0  0  0  0  0  0  0  0  0  0  0
   55.2350   23.6560   45.3280 C   0  0  0  0  0  0  0  0  0  0  0  0
   56.6300   23.8700   44.9090 C   0  0  0  0  0  0  0  0  0  0  0  0
   57.0278   23.2065   44.1270 H   0  0  0  0  0  0  0  0  0  0  0  0
   57.4600   24.8080   45.4010 C   0  0  0  0  0  0  0  0  0  0  0  0
   58.8170   24.5880   45.5850 C   0  0  0  0  0  0  0  0  0  0  0  0
   59.3559   23.6435   45.4190 H   0  0  0  0  0  0  0  0  0  0  0  0
   59.3620   25.7800   46.0160 C   0  0  0  0  0  0  0  0  0  0  0  0
   60.8080   25.9880   46.3490 C   0  0  0  0  0  0  0  0  0  0  0  0
   60.9337   26.0061   47.4416 H   0  0  0  0  0  0  0  0  0  0  0  0
   61.4038   25.1663   45.9249 H   0  0  0  0  0  0  0  0  0  0  0  0
   61.1480   26.9443   45.9249 H   0  0  0  0  0  0  0  0  0  0  0  0
   58.3960   26.7130   46.1530 N   0  0  0  0  0  0  0  0  0  0  0  0
   58.5860   28.0490   46.6490 C   0  0  0  0  0  0  0  0  0  0  0  0
   59.1250   28.2390   47.9280 C   0  0  0  0  0  0  0  0  0  0  0  0
   59.4027   27.3685   48.5405 H   0  0  0  0  0  0  0  0  0  0  0  0
   59.3110   29.5290   48.4280 C   0  0  0  0  0  0  0  0  0  0  0  0
   59.7346   29.6719   49.4331 H   0  0  0  0  0  0  0  0  0  0  0  0
   58.9600   30.6410   47.6540 C   0  0  0  0  0  0  0  0  0  0  0  0
   59.1450   32.2650   48.3120 S   0  0  0  0  0  0  0  0  0  0  0  0
   58.8120   32.2590   49.7800 O   0  0  0  0  0  0  0  0  0  0  0  0
   58.1880   33.1870   47.6100 O   0  0  0  0  0  0  0  0  0  0  0  0
   60.7810   32.8210   48.0670 N   0  0  0  0  0  0  0  0  0  0  0  0
   60.8670   33.5940   46.8120 C   0  0  0  0  0  0  0  0  0  0  0  0
   60.3481   33.0399   46.0159 H   0  0  0  0  0  0  0  0  0  0  0  0
   60.3977   34.5745   46.9808 H   0  0  0  0  0  0  0  0  0  0  0  0
   62.3300   33.8290   46.3850 C   0  0  0  0  0  0  0  0  0  0  0  0
   62.5763   33.1552   45.5511 H   0  0  0  0  0  0  0  0  0  0  0  0
   62.4452   34.8774   46.0725 H   0  0  0  0  0  0  0  0  0  0  0  0
   63.2410   33.5650   47.5040 N   0  0  0  0  0  0  0  0  0  0  0  0
   64.2180   33.7520   47.1790 H   0  0  0  0  0  0  0  0  0  0  0  0
   63.1580   32.1570   47.9200 C   0  0  0  0  0  0  0  0  0  0  0  0
   63.6836   31.5364   47.1793 H   0  0  0  0  0  0  0  0  0  0  0  0
   63.6211   32.0687   48.9139 H   0  0  0  0  0  0  0  0  0  0  0  0
   61.6990   31.6720   48.0300 C   0  0  0  0  0  0  0  0  0  0  0  0
   61.4589   31.0434   47.1598 H   0  0  0  0  0  0  0  0  0  0  0  0
   61.5836   31.0915   48.9572 H   0  0  0  0  0  0  0  0  0  0  0  0
   58.4230   30.4540   46.3740 C   0  0  0  0  0  0  0  0  0  0  0  0
   58.1284   31.3266   45.7725 H   0  0  0  0  0  0  0  0  0  0  0  0
   58.2580   29.1600   45.8530 C   0  0  0  0  0  0  0  0  0  0  0  0
   57.7030   28.9510   44.5460 N   0  0  0  0  0  0  0  0  0  0  0  0
   56.4470   29.4480   44.0640 C   0  0  0  0  0  0  0  0  0  0  0  0
   55.4600   29.4670   44.8450 O   0  0  0  0  0  0  0  0  0  0  0  0
   56.2650   29.9090   42.6500 C   0  0  0  0  0  0  0  0  0  0  0  0
   55.8611   30.9321   42.6470 H   0  0  0  0  0  0  0  0  0  0  0  0
   57.2356   29.8965   42.1324 H   0  0  0  0  0  0  0  0  0  0  0  0
   55.5648   29.2368   42.1324 H   0  0  0  0  0  0  0  0  0  0  0  0
   57.2200   26.1310   45.8100 C   0  0  0  0  0  0  0  0  0  0  0  0
   56.0290   26.7180   46.0060 C   0  0  0  0  0  0  0  0  0  0  0  0
   55.9800   27.7684   46.3288 H   0  0  0  0  0  0  0  0  0  0  0  0
   55.1019   26.1487   45.8438 H   0  0  0  0  0  0  0  0  0  0  0  0
  1  2  1  0
  2  3  1  0
  3  4  1  0
  4  5  1  0
  5  6  2  0
  5  7  1  0
  7  8  1  0
  8  9  1  0
  9 10  1  0
  9 11  2  0
 11 12  1  0
 12 13  1  0
 12 14  2  0
 14 15  1  0
 15 16  1  0
 15 17  1  0
 15 18  1  0
 14 19  1  0
 19 20  1  0
 20 21  2  0
 21 22  1  0
 21 23  1  0
 23 24  1  0
 23 25  2  0
 25 26  1  0
 26 27  2  0
 26 28  2  0
 26 29  1  0
 29 30  1  0
 30 31  1  0
 30 32  1  0
 30 33  1  0
 33 34  1  0
 33 35  1  0
 33 36  1  0
 36 37  1  0
 36 38  1  0
 38 39  1  0
 38 40  1  0
 38 41  1  0
 41 42  1  0
 41 43  1  0
 25 44  1  0
 44 45  1  0
 44 46  2  0
 46 47  1  0
 47 48  1  0
 48 49  2  0
 48 50  1  0
 50 51  1  0
 50 52  1  0
 50 53  1  0
 19 54  1  0
 54 55  2  0
 55 56  1  0
 55 57  1  0
  8  3  2  0
 54 11  1  0
 46 20  1  0
 41 29  1  0
M  CHG  3   4  -1   7  -1  47  -1
M  END
>  <UniqueID>  (9) 
9

>  <SMILES>  (9) 
C=c1/c(=C\c2[n-]c(=O)[n-]c2O)cc(C)n1-c1ccc(S(=O)(=O)N2CCNCC2)cc1[N-]C(C)=O

>  <Energy>  (9) 
140.96975911686323

>  <Genealogy>  (9) 
C=c1c(=Cc2[n-]c(=O)[n-]c2O)cc(C)n1-c1ccc(S(=O)(=O)N2CCNCC2)cc1[N-]C(C)=O (protonated)
C=c1/c(=C\c2[n-]c(=O)[n-]c2O)cc(C)n1-c1ccc(S(=O)(=O)N2CCNCC2)cc1[N-]C(C)=O (cis-trans isomerization)
C=c1/c(=C\c2[n-]c(=O)[n-]c2O)cc(C)n1-c1ccc(S(=O)(=O)N2CCNCC2)cc1[N-]C(C)=O (3D coordinates assigned)
C=c1/c(=C\c2[n-]c(=O)[n-]c2O)cc(C)n1-c1ccc(S(=O)(=O)N2CCNCC2)cc1[N-]C(C)=O (nonaromatic ring conformer: 140.96975911686323 kcal/mol)

>  <smiles>  (9) 
C=c1c(=Cc2[nH]c(=O)[nH]c2O)cc(C)n1-c1ccc(S(=O)(=O)N2CCNCC2)cc1NC(C)=O

>  <score_type>  (9) 
oracle

>  <origin>  (9) 
adg

>  <m_score__min__energy>  (9) 
-16.010000000000002

>  <m_primary>  (9) 
energy

$$$$
9:0
     RDKit          3D

 44 47  0  0  0  0  0  0  0  0999 V2000
   59.2530   29.3130   46.8920 C   0  0  0  0  0  0  0  0  0  0  0  0
   58.4830   29.0860   45.8160 C   0  0  0  0  0  0  0  0  0  0  0  0
   58.1980   27.8470   45.2180 C   0  0  0  0  0  0  0  0  0  0  0  0
   58.4430   26.5870   45.6310 C   0  0  0  0  0  0  0  0  0  0  0  0
   57.4870   25.7090   46.3200 C   0  0  0  0  0  0  0  0  0  0  0  0
   57.8370   24.5500   46.9060 N   0  0  0  0  0  0  0  0  0  0  0  0
   56.6560   24.0380   47.3140 C   0  0  0  0  0  0  0  0  0  0  0  0
   56.5700   22.9440   47.9310 O   0  0  0  0  0  0  0  0  0  0  0  0
   55.5750   24.7840   47.0020 N   0  0  0  0  0  0  0  0  0  0  0  0
   56.1130   25.8330   46.3580 C   0  0  0  0  0  0  0  0  0  0  0  0
   55.3540   26.8580   45.8010 O   0  0  0  0  0  0  0  0  0  0  0  0
   57.5540   28.1310   44.0250 C   0  0  0  0  0  0  0  0  0  0  0  0
   57.4090   29.5010   43.9640 C   0  0  0  0  0  0  0  0  0  0  0  0
   56.7590   30.2400   42.8340 C   0  0  0  0  0  0  0  0  0  0  0  0
   57.9690   30.0810   45.0490 N   0  0  0  0  0  0  0  0  0  0  0  0
   58.0390   31.4950   45.2990 C   0  0  0  0  0  0  0  0  0  0  0  0
   59.2530   32.0810   45.6900 C   0  0  0  0  0  0  0  0  0  0  0  0
   59.3330   33.4620   45.9430 C   0  0  0  0  0  0  0  0  0  0  0  0
   60.6140   34.0810   46.3490 C   0  0  0  0  0  0  0  0  0  0  0  0
   60.7770   35.3220   46.1960 O   0  0  0  0  0  0  0  0  0  0  0  0
   61.6830   33.2940   46.8980 N   0  0  0  0  0  0  0  0  0  0  0  0
   61.5910   32.2520   47.8660 C   0  0  0  0  0  0  0  0  0  0  0  0
   60.5110   31.7240   48.2420 O   0  0  0  0  0  0  0  0  0  0  0  0
   62.9070   31.9400   48.4180 C   0  0  0  0  0  0  0  0  0  0  0  0
   63.7880   32.7660   47.8640 C   0  0  0  0  0  0  0  0  0  0  0  0
   63.0640   33.6320   46.9360 C   0  0  0  0  0  0  0  0  0  0  0  0
   63.5840   34.5560   46.2550 O   0  0  0  0  0  0  0  0  0  0  0  0
   58.1860   34.2550   45.7690 C   0  0  0  0  0  0  0  0  0  0  0  0
   56.9780   33.6750   45.3770 C   0  0  0  0  0  0  0  0  0  0  0  0
   56.9010   32.3000   45.1440 C   0  0  0  0  0  0  0  0  0  0  0  0
   55.7230   31.7510   44.7510 F   0  0  0  0  0  0  0  0  0  0  0  0
   59.3946   30.3398   47.2602 H   0  0  0  0  0  0  0  0  0  0  0  0
   59.7423   28.4722   47.4054 H   0  0  0  0  0  0  0  0  0  0  0  0
   59.4463   26.1808   45.4350 H   0  0  0  0  0  0  0  0  0  0  0  0
   54.7520   27.4410   46.3680 H   0  0  0  0  0  0  0  0  0  0  0  0
   57.2217   27.4028   43.2704 H   0  0  0  0  0  0  0  0  0  0  0  0
   56.0834   31.0080   43.2386 H   0  0  0  0  0  0  0  0  0  0  0  0
   57.5326   30.7204   42.2169 H   0  0  0  0  0  0  0  0  0  0  0  0
   56.1838   29.5340   42.2169 H   0  0  0  0  0  0  0  0  0  0  0  0
   60.1502   31.4541   45.7996 H   0  0  0  0  0  0  0  0  0  0  0  0
   63.1292   31.1596   49.1607 H   0  0  0  0  0  0  0  0  0  0  0  0
   64.8687   32.7931   48.0674 H   0  0  0  0  0  0  0  0  0  0  0  0
   58.2402   35.3398   45.9428 H   0  0  0  0  0  0  0  0  0  0  0  0
   56.0838   34.3031   45.2512 H   0  0  0  0  0  0  0  0  0  0  0  0
  1  2  2  0
  2  3  1  0
  3  4  2  3
  4  5  1  0
  5  6  1  0
  6  7  1  0
  7  8  2  0
  7  9  1  0
  9 10  1  0
 10 11  1  0
  3 12  1  0
 12 13  2  0
 13 14  1  0
 13 15  1  0
 15 16  1  0
 16 17  2  0
 17 18  1  0
 18 19  1  0
 19 20  2  0
 19 21  1  0
 21 22  1  0
 22 23  2  0
 22 24  1  0
 24 25  2  0
 25 26  1  0
 26 27  2  0
 18 28  2  0
 28 29  1  0
 29 30  2  0
 30 31  1  0
 15  2  1  0
 30 16  1  0
 10  5  2  0
 26 21  1  0
  1 32  1  0
  1 33  1  0
  4 34  1  0
 11 35  1  0
 12 36  1  0
 14 37  1  0
 14 38  1  0
 14 39  1  0
 17 40  1  0
 24 41  1  0
 25 42  1  0
 28 43  1  0
 29 44  1  0
M  CHG  2   6  -1   9  -1
M  END
>  <UniqueID>  (10) 
10

>  <SMILES>  (10) 
C=c1c(=Cc2[n-]c(=O)[n-]c2O)cc(C)n1-c1cc(C(=O)N2C(=O)C=CC2=O)ccc1F

>  <Energy>  (10) 
154.396095207045

>  <Genealogy>  (10) 
C=c1c(=Cc2[n-]c(=O)[n-]c2O)cc(C)n1-c1cc(C(=O)N2C(=O)C=CC2=O)ccc1F (protonated)
C=c1c(=Cc2[n-]c(=O)[n-]c2O)cc(C)n1-c1cc(C(=O)N2C(=O)C=CC2=O)ccc1F (3D coordinates assigned)
C=c1c(=Cc2[n-]c(=O)[n-]c2O)cc(C)n1-c1cc(C(=O)N2C(=O)C=CC2=O)ccc1F (nonaromatic ring conformer: 154.396095207045 kcal/mol)

>  <smiles>  (10) 
C=c1c(=Cc2[nH]c(=O)[nH]c2O)cc(C)n1-c1cc(C(=O)N2C(=O)C=CC2=O)ccc1F

>  <score_type>  (10) 
oracle

>  <origin>  (10) 
adg

>  <m_score__min__energy>  (10) 
-13.789999999999999

>  <m_primary>  (10) 
energy

$$$$
10:0
     RDKit          3D

 53 56  0  0  0  0  0  0  0  0999 V2000
   58.2330   31.6990   47.6860 H   0  0  0  0  0  0  0  0  0  0  0  0
   58.1510   32.0720   48.6020 O   0  0  0  0  0  0  0  0  0  0  0  0
   58.9320   31.2680   49.4530 C   0  0  2  0  0  0  0  0  0  0  0  0
   58.2938   30.4955   49.9069 H   0  0  0  0  0  0  0  0  0  0  0  0
   59.5180   32.1300   50.5840 C   0  0  0  0  0  0  0  0  0  0  0  0
   59.2290   31.7048   51.5565 H   0  0  0  0  0  0  0  0  0  0  0  0
   60.6148   32.1459   50.5022 H   0  0  0  0  0  0  0  0  0  0  0  0
   59.1293   33.1558   50.5022 H   0  0  0  0  0  0  0  0  0  0  0  0
   60.0360   30.5190   48.6570 C   0  0  2  0  0  0  0  0  0  0  0  0
   60.2830   31.1806   47.8136 H   0  0  0  0  0  0  0  0  0  0  0  0
   59.5660   29.1980   48.2200 N   0  0  0  0  0  0  0  0  0  0  0  0
   58.5940   28.9020   47.1980 C   0  0  0  0  0  0  0  0  0  0  0  0
   58.0790   29.9150   46.4530 N   0  0  0  0  0  0  0  0  0  0  0  0
   57.1530   29.6890   45.4780 C   0  0  0  0  0  0  0  0  0  0  0  0
   56.6530   30.6710   44.7860 N   0  0  0  0  0  0  0  0  0  0  0  0
   57.3200   31.9020   44.4570 C   0  0  0  0  0  0  0  0  0  0  0  0
   58.1440   31.9890   43.4040 C   0  0  0  0  0  0  0  0  0  0  0  0
   58.3565   31.0968   42.7967 H   0  0  0  0  0  0  0  0  0  0  0  0
   58.6080   32.9526   43.1468 H   0  0  0  0  0  0  0  0  0  0  0  0
   57.0240   33.1150   45.2920 C   0  0  0  0  0  0  0  0  0  0  0  0
   56.4451   33.8369   44.6972 H   0  0  0  0  0  0  0  0  0  0  0  0
   56.4419   32.8174   46.1766 H   0  0  0  0  0  0  0  0  0  0  0  0
   58.3080   33.7460   45.7300 C   0  0  0  0  0  0  0  0  0  0  0  0
   59.2050   33.1120   46.5140 N   0  0  0  0  0  0  0  0  0  0  0  0
   60.2270   33.9860   46.6060 C   0  0  0  0  0  0  0  0  0  0  0  0
   61.4630   33.7250   47.3850 C   0  0  0  0  0  0  0  0  0  0  0  0
   62.5880   33.1200   46.7940 C   0  0  0  0  0  0  0  0  0  0  0  0
   62.5580   32.8319   45.7328 H   0  0  0  0  0  0  0  0  0  0  0  0
   63.7440   32.8820   47.5450 C   0  0  0  0  0  0  0  0  0  0  0  0
   64.6199   32.4182   47.0679 H   0  0  0  0  0  0  0  0  0  0  0  0
   63.7930   33.2310   48.9020 C   0  0  0  0  0  0  0  0  0  0  0  0
   65.0500   33.0110   49.6940 C   0  0  0  0  0  0  0  0  0  0  0  0
   64.8182   33.0516   50.7685 H   0  0  0  0  0  0  0  0  0  0  0  0
   65.4714   32.0255   49.4468 H   0  0  0  0  0  0  0  0  0  0  0  0
   65.7811   33.7948   49.4468 H   0  0  0  0  0  0  0  0  0  0  0  0
   62.6810   33.8500   49.4940 C   0  0  0  0  0  0  0  0  0  0  0  0
   62.7196   34.1501   50.5516 H   0  0  0  0  0  0  0  0  0  0  0  0
   61.5230   34.0870   48.7440 C   0  0  0  0  0  0  0  0  0  0  0  0
   60.6521   34.5604   49.2209 H   0  0  0  0  0  0  0  0  0  0  0  0
   59.9230   35.1150   45.8690 C   0  0  0  0  0  0  0  0  0  0  0  0
   60.5700   35.9978   45.7593 H   0  0  0  0  0  0  0  0  0  0  0  0
   58.7120   34.9630   45.3080 N   0  0  0  0  0  0  0  0  0  0  0  0
   56.7130   28.4230   45.2520 N   0  0  0  0  0  0  0  0  0  0  0  0
   57.1920   27.3770   45.9730 C   0  0  0  0  0  0  0  0  0  0  0  0
   56.8277   26.3586   45.7725 H   0  0  0  0  0  0  0  0  0  0  0  0
   58.1470   27.5930   46.9690 C   0  0  0  0  0  0  0  0  0  0  0  0
   58.5402   26.7537   47.5614 H   0  0  0  0  0  0  0  0  0  0  0  0
   60.4070   28.2340   48.8250 C   0  0  0  0  0  0  0  0  0  0  0  0
   60.2870   26.9910   48.6590 O   0  0  0  0  0  0  0  0  0  0  0  0
   61.4010   28.7990   49.5860 O   0  0  0  0  0  0  0  0  0  0  0  0
   61.2900   30.2160   49.5390 C   0  0  0  0  0  0  0  0  0  0  0  0
   61.1526   30.6227   50.5518 H   0  0  0  0  0  0  0  0  0  0  0  0
   62.1973   30.6784   49.1230 H   0  0  0  0  0  0  0  0  0  0  0  0
  1  2  1  0
  2  3  1  0
  3  4  1  1
  3  5  1  0
  5  6  1  0
  5  7  1  0
  5  8  1  0
  3  9  1  0
  9 10  1  6
  9 11  1  0
 11 12  1  0
 12 13  2  0
 13 14  1  0
 14 15  2  0
 15 16  1  0
 16 17  2  0
 17 18  1  0
 17 19  1  0
 16 20  1  0
 20 21  1  0
 20 22  1  0
 20 23  1  0
 23 24  2  0
 24 25  1  0
 25 26  1  0
 26 27  2  0
 27 28  1  0
 27 29  1  0
 29 30  1  0
 29 31  2  0
 31 32  1  0
 32 33  1  0
 32 34  1  0
 32 35  1  0
 31 36  1  0
 36 37  1  0
 36 38  2  0
 38 39  1  0
 25 40  2  0
 40 41  1  0
 40 42  1  0
 14 43  1  0
 43 44  1  0
 44 45  1  0
 44 46  2  0
 46 47  1  0
 11 48  1  0
 48 49  2  0
 48 50  1  0
 50 51  1  0
 51 52  1  0
 51 53  1  0
 51  9  1  0
 46 12  1  0
 42 23  1  0
 38 26  1  0
M  CHG  2  42  -1  43  -1
M  END
>  <UniqueID>  (11) 
11

>  <SMILES>  (11) 
C=C(Cc1nc(-c2ccc(C)cc2)c[n-]1)/N=c1\nc(N2C(=O)OC[C@@H]2[C@@H](C)O)cc[n-]1

>  <Energy>  (11) 
105.19953302133607

>  <Genealogy>  (11) 
C=C(Cc1nc(-c2ccc(C)cc2)c[n-]1)N=c1nc(N2C(=O)OCC2C(C)O)cc[n-]1 (protonated)
C=C(Cc1nc(-c2ccc(C)cc2)c[n-]1)N=c1nc(N2C(=O)OC[C@@H]2[C@@H](C)O)cc[n-]1 (chirality)
C=C(Cc1nc(-c2ccc(C)cc2)c[n-]1)/N=c1\nc(N2C(=O)OC[C@@H]2[C@@H](C)O)cc[n-]1 (cis-trans isomerization)
C=C(Cc1nc(-c2ccc(C)cc2)c[n-]1)/N=c1\nc(N2C(=O)OC[C@@H]2[C@@H](C)O)cc[n-]1 (3D coordinates assigned)
C=C(Cc1nc(-c2ccc(C)cc2)c[n-]1)/N=c1\nc(N2C(=O)OC[C@@H]2[C@@H](C)O)cc[n-]1 (nonaromatic ring conformer: 105.19953302133607 kcal/mol)

>  <smiles>  (11) 
C=C(Cc1nc(-c2ccc(C)cc2)c[nH]1)N=c1nc(N2C(=O)OCC2C(C)O)cc[nH]1

>  <score_type>  (11) 
oracle

>  <origin>  (11) 
adg

>  <m_score__min__energy>  (11) 
-11.66

>  <m_primary>  (11) 
energy

$$$$
11:0
     RDKit          3D

 36 38  0  0  0  0  0  0  0  0999 V2000
   53.8660   28.3370   52.9320 C   0  0  0  0  0  0  0  0  0  0  0  0
   54.7070   29.3350   52.6430 C   0  0  0  0  0  0  0  0  0  0  0  0
   56.0440   29.0940   52.5550 N   0  0  0  0  0  0  0  0  0  0  0  0
   56.7460   30.2040   52.2480 C   0  0  0  0  0  0  0  0  0  0  0  0
   58.5200   30.2130   52.0010 S   0  0  0  0  0  0  0  0  0  0  0  0
   58.6730   32.0350   52.0250 C   0  0  0  0  0  0  0  0  0  0  0  0
   59.0020   32.5700   50.6570 C   0  0  0  0  0  0  0  0  0  0  0  0
   59.8130   33.7080   50.5150 C   0  0  0  0  0  0  0  0  0  0  0  0
   60.0640   34.2410   49.2470 C   0  0  0  0  0  0  0  0  0  0  0  0
   59.5160   33.6390   48.1080 C   0  0  0  0  0  0  0  0  0  0  0  0
   59.8060   34.3360   46.5170 S   0  0  0  0  0  0  0  0  0  0  0  0
   61.3960   33.9200   45.9880 N   0  0  0  0  0  0  0  0  0  0  0  0
   58.7950   33.8050   45.5390 O   0  0  0  0  0  0  0  0  0  0  0  0
   59.6750   35.8320   46.5820 O   0  0  0  0  0  0  0  0  0  0  0  0
   58.7070   32.5030   48.2460 C   0  0  0  0  0  0  0  0  0  0  0  0
   58.4520   31.9710   49.5130 C   0  0  0  0  0  0  0  0  0  0  0  0
   55.7510   31.5390   52.0720 S   0  0  0  0  0  0  0  0  0  0  0  0
   54.3350   30.6760   52.4090 C   0  0  0  0  0  0  0  0  0  0  0  0
   53.0880   31.1830   52.3830 C   0  0  0  0  0  0  0  0  0  0  0  0
   52.2750   31.3080   51.1610 C   0  0  0  0  0  0  0  0  0  0  0  0
   52.2470   30.3700   50.1970 N   0  0  0  0  0  0  0  0  0  0  0  0
   51.3320   30.8440   49.3240 C   0  0  0  0  0  0  0  0  0  0  0  0
   51.0310   30.2390   48.2630 O   0  0  0  0  0  0  0  0  0  0  0  0
   50.7580   32.0120   49.6830 N   0  0  0  0  0  0  0  0  0  0  0  0
   51.3550   32.2880   50.8540 C   0  0  0  0  0  0  0  0  0  0  0  0
   51.0260   33.3830   51.6420 O   0  0  0  0  0  0  0  0  0  0  0  0
   52.7856   28.5313   53.0032 H   0  0  0  0  0  0  0  0  0  0  0  0
   54.2543   27.3214   53.0986 H   0  0  0  0  0  0  0  0  0  0  0  0
   57.7208   32.4709   52.3617 H   0  0  0  0  0  0  0  0  0  0  0  0
   59.4878   32.3078   52.7118 H   0  0  0  0  0  0  0  0  0  0  0  0
   60.2525   34.1819   51.4051 H   0  0  0  0  0  0  0  0  0  0  0  0
   60.6943   35.1366   49.1440 H   0  0  0  0  0  0  0  0  0  0  0  0
   61.9850   34.7770   46.0850 H   0  0  0  0  0  0  0  0  0  0  0  0
   58.2713   32.0286   47.3543 H   0  0  0  0  0  0  0  0  0  0  0  0
   57.8171   31.0784   49.6141 H   0  0  0  0  0  0  0  0  0  0  0  0
   52.6495   31.5247   53.3322 H   0  0  0  0  0  0  0  0  0  0  0  0
  1  2  2  0
  2  3  1  0
  3  4  2  0
  4  5  1  0
  5  6  1  0
  6  7  1  0
  7  8  2  0
  8  9  1  0
  9 10  2  0
 10 11  1  0
 11 12  1  0
 11 13  2  0
 11 14  2  0
 10 15  1  0
 15 16  2  0
  4 17  1  0
 17 18  1  0
 18 19  2  3
 19 20  1  0
 20 21  1  0
 21 22  1  0
 22 23  2  0
 22 24  1  0
 24 25  1  0
 25 26  1  0
 18  2  1  0
 25 20  2  0
 16  7  1  0
  1 27  1  0
  1 28  1  0
  6 29  1  0
  6 30  1  0
  8 31  1  0
  9 32  1  0
 12 33  1  0
 15 34  1  0
 16 35  1  0
 19 36  1  0
M  CHG  4  12  -1  21  -1  24  -1  26  -1
M  END
>  <UniqueID>  (12) 
12

>  <SMILES>  (12) 
C=c1nc(SCc2ccc(S([NH-])(=O)=O)cc2)sc1=Cc1[n-]c(=O)[n-]c1[O-]

>  <Energy>  (12) 
100.37003851766353

>  <Genealogy>  (12) 
C=c1nc(SCc2ccc(S([NH-])(=O)=O)cc2)sc1=Cc1[n-]c(=O)[n-]c1[O-] (protonated)
C=c1nc(SCc2ccc(S([NH-])(=O)=O)cc2)sc1=Cc1[n-]c(=O)[n-]c1[O-] (3D coordinates assigned)
C=c1nc(SCc2ccc(S([NH-])(=O)=O)cc2)sc1=Cc1[n-]c(=O)[n-]c1[O-] (optimized conformer: 100.37003851766353 kcal/mol)

>  <smiles>  (12) 
C=c1nc(SCc2ccc(S(N)(=O)=O)cc2)sc1=Cc1[nH]c(=O)[nH]c1O

>  <score_type>  (12) 
oracle

>  <origin>  (12) 
adg

>  <m_score__min__energy>  (12) 
-18.489999999999998

>  <m_primary>  (12) 
energy

$$$$
12:0
     RDKit          3D

 39 41  0  0  1  0  0  0  0  0999 V2000
   55.9730   29.6100   44.8520 O   0  0  0  0  0  0  0  0  0  0  0  0
   57.1710   29.2860   44.6820 C   0  0  0  0  0  0  0  0  0  0  0  0
   57.3950   27.8790   44.1980 C   0  0  0  0  0  0  0  0  0  0  0  0
   58.1630   26.8080   45.3880 S   0  0  0  0  0  0  0  0  0  0  0  0
   58.5700   27.8510   46.7950 C   0  0  0  0  0  0  0  0  0  0  0  0
   58.1510   28.5320   47.6210 N   0  0  0  0  0  0  0  0  0  0  0  0
   58.7500   29.2170   48.5640 N   0  0  0  0  0  0  0  0  0  0  0  0
   60.0560   29.1020   48.5620 C   0  0  0  0  0  0  0  0  0  0  0  0
   61.0530   29.6270   49.3350 N   0  0  0  0  0  0  0  0  0  0  0  0
   60.9950   31.0470   49.5330 C   0  0  0  0  0  0  0  0  0  0  0  0
   60.3950   31.5740   50.5030 O   0  0  0  0  0  0  0  0  0  0  0  0
   61.6560   31.9190   48.5730 C   0  0  0  0  0  0  0  0  0  0  0  0
   61.0650   33.0840   48.0890 C   0  0  0  0  0  0  0  0  0  0  0  0
   61.7680   33.8300   47.1930 C   0  0  0  0  0  0  0  0  0  0  0  0
   63.0270   33.4920   46.7440 C   0  0  0  0  0  0  0  0  0  0  0  0
   63.6880   34.1630   45.9210 O   0  0  0  0  0  0  0  0  0  0  0  0
   63.5940   32.3550   47.2210 N   0  0  0  0  0  0  0  0  0  0  0  0
   62.9080   31.6230   48.0990 C   0  0  0  0  0  0  0  0  0  0  0  0
   60.4680   27.9690   47.1580 S   0  0  0  0  0  0  0  0  0  0  0  0
   58.2060   30.1910   44.9360 N   0  0  0  0  0  0  0  0  0  0  0  0
   58.0910   31.5180   45.3900 C   0  0  0  0  0  0  0  0  0  0  0  0
   58.1650   31.9450   46.6870 C   0  0  0  0  0  0  0  0  0  0  0  0
   58.0540   33.2760   47.0720 C   0  0  0  0  0  0  0  0  0  0  0  0
   57.8590   34.2530   46.1260 C   0  0  0  0  0  0  0  0  0  0  0  0
   57.7810   33.8580   44.8110 C   0  0  0  0  0  0  0  0  0  0  0  0
   57.8910   32.5420   44.4430 C   0  0  0  0  0  0  0  0  0  0  0  0
   57.7640   32.1130   42.5800 Br  0  0  0  0  0  0  0  0  0  0  0  0
   56.4195   27.4489   43.9270 H   0  0  0  0  0  0  0  0  0  0  0  0
   58.0856   27.9466   43.3445 H   0  0  0  0  0  0  0  0  0  0  0  0
   58.2390   29.8210   49.2810 H   0  0  0  0  0  0  0  0  0  0  0  0
   60.0621   33.3914   48.4203 H   0  0  0  0  0  0  0  0  0  0  0  0
   61.3072   34.7511   46.8069 H   0  0  0  0  0  0  0  0  0  0  0  0
   64.5510   32.0640   46.9020 H   0  0  0  0  0  0  0  0  0  0  0  0
   63.3858   30.7059   48.4741 H   0  0  0  0  0  0  0  0  0  0  0  0
   59.1940   29.8280   44.7640 H   0  0  0  0  0  0  0  0  0  0  0  0
   58.3216   31.1906   47.4720 H   0  0  0  0  0  0  0  0  0  0  0  0
   58.1224   33.5475   48.1358 H   0  0  0  0  0  0  0  0  0  0  0  0
   57.7686   35.3119   46.4098 H   0  0  0  0  0  0  0  0  0  0  0  0
   57.6260   34.6195   44.0325 H   0  0  0  0  0  0  0  0  0  0  0  0
  1  2  2  0
  2  3  1  0
  3  4  1  0
  4  5  1  0
  5  6  2  0
  6  7  1  0
  7  8  1  0
  8  9  2  0
  9 10  1  0
 10 11  2  0
 10 12  1  0
 12 13  1  0
 13 14  2  0
 14 15  1  0
 15 16  2  0
 15 17  1  0
 17 18  1  0
  8 19  1  0
  2 20  1  0
 20 21  1  0
 21 22  2  0
 22 23  1  0
 23 24  2  0
 24 25  1  0
 25 26  2  0
 26 27  1  0
 19  5  1  0
 26 21  1  0
 18 12  2  0
  3 28  1  0
  3 29  1  0
  7 30  1  0
 13 31  1  0
 14 32  1  0
 17 33  1  0
 18 34  1  0
 20 35  1  0
 22 36  1  0
 23 37  1  0
 24 38  1  0
 25 39  1  0
M  END
>  <smiles>  (13) 
O=C(CSc1n[nH]c(=NC(=O)c2ccc(=O)[nH]c2)s1)Nc1ccccc1Br

>  <score_type>  (13) 
oracle

>  <origin>  (13) 
adg

>  <m_score__min__energy>  (13) 
-10.51

>  <m_primary>  (13) 
energy

$$$$
13:0
     RDKit          3D

 52 55  0  0  0  0  0  0  0  0999 V2000
   58.4829   28.4627   49.1527 H   0  0  0  0  0  0  0  0  0  0  0  0
   59.5000   28.5070   48.7360 C   0  0  0  0  0  0  0  0  0  0  0  0
   60.5750   28.9970   49.6200 C   0  0  0  0  0  0  0  0  0  0  0  0
   61.4890   28.2000   49.9670 O   0  0  0  0  0  0  0  0  0  0  0  0
   60.6180   30.3380   50.0220 O   0  0  0  0  0  0  0  0  0  0  0  0
   59.5330   30.9980   50.6680 C   0  0  0  0  0  0  0  0  0  0  0  0
   59.9298   31.7034   51.4129 H   0  0  0  0  0  0  0  0  0  0  0  0
   58.8996   30.2450   51.1598 H   0  0  0  0  0  0  0  0  0  0  0  0
   58.7050   31.7510   49.6650 C   0  0  0  0  0  0  0  0  0  0  0  0
   57.8020   32.5290   50.0730 O   0  0  0  0  0  0  0  0  0  0  0  0
   58.8800   31.5750   48.2520 N   0  0  0  0  0  0  0  0  0  0  0  0
   58.6800   32.5740   47.2410 C   0  0  0  0  0  0  0  0  0  0  0  0
   57.7440   32.3750   46.2110 C   0  0  0  0  0  0  0  0  0  0  0  0
   57.1303   31.4622   46.1993 H   0  0  0  0  0  0  0  0  0  0  0  0
   57.5880   33.3290   45.2020 C   0  0  0  0  0  0  0  0  0  0  0  0
   56.8463   33.1700   44.4054 H   0  0  0  0  0  0  0  0  0  0  0  0
   58.3720   34.4830   45.2040 C   0  0  0  0  0  0  0  0  0  0  0  0
   58.2413   35.2371   44.4140 H   0  0  0  0  0  0  0  0  0  0  0  0
   59.3220   34.6820   46.2070 C   0  0  0  0  0  0  0  0  0  0  0  0
   59.9369   35.5941   46.2042 H   0  0  0  0  0  0  0  0  0  0  0  0
   59.4980   33.7240   47.2210 C   0  0  0  0  0  0  0  0  0  0  0  0
   60.4960   33.9640   48.2860 C   0  0  0  0  0  0  0  0  0  0  0  0
   60.1460   34.5960   49.3200 O   0  0  0  0  0  0  0  0  0  0  0  0
   61.8490   33.4870   48.1680 N   0  0  0  0  0  0  0  0  0  0  0  0
   62.8950   33.8620   49.1040 C   0  0  0  0  0  0  0  0  0  0  0  0
   63.0669   34.9480   49.0729 H   0  0  0  0  0  0  0  0  0  0  0  0
   62.6245   33.6089   50.1397 H   0  0  0  0  0  0  0  0  0  0  0  0
   64.1390   33.1140   48.6480 C   0  0  0  0  0  0  0  0  0  0  0  0
   64.8055   33.7849   48.0861 H   0  0  0  0  0  0  0  0  0  0  0  0
   64.7154   32.7267   49.5011 H   0  0  0  0  0  0  0  0  0  0  0  0
   63.6370   31.9870   47.7490 C   0  0  0  0  0  0  0  0  0  0  0  0
   64.3189   31.8426   46.8981 H   0  0  0  0  0  0  0  0  0  0  0  0
   63.5864   31.0296   48.2883 H   0  0  0  0  0  0  0  0  0  0  0  0
   62.2640   32.4300   47.2600 C   0  0  0  0  0  0  0  0  0  0  0  0
   62.3276   32.8112   46.2301 H   0  0  0  0  0  0  0  0  0  0  0  0
   61.5465   31.5963   47.2501 H   0  0  0  0  0  0  0  0  0  0  0  0
   59.6640   28.1110   47.4640 C   0  0  0  0  0  0  0  0  0  0  0  0
   60.4017   27.3181   47.2712 H   0  0  0  0  0  0  0  0  0  0  0  0
   58.9320   28.6560   46.3030 C   0  0  0  0  0  0  0  0  0  0  0  0
   59.5980   29.4230   45.3100 C   0  0  0  0  0  0  0  0  0  0  0  0
   60.6821   29.5927   45.3870 H   0  0  0  0  0  0  0  0  0  0  0  0
   58.8810   29.9670   44.2290 C   0  0  0  0  0  0  0  0  0  0  0  0
   59.3892   30.5474   43.4449 H   0  0  0  0  0  0  0  0  0  0  0  0
   57.5080   29.7470   44.1840 C   0  0  0  0  0  0  0  0  0  0  0  0
   56.8620   29.0370   45.1430 C   0  0  0  0  0  0  0  0  0  0  0  0
   57.5330   28.4810   46.2280 C   0  0  0  0  0  0  0  0  0  0  0  0
   56.9897   27.9219   47.0040 H   0  0  0  0  0  0  0  0  0  0  0  0
   55.5140   28.9860   44.8470 O   0  0  0  0  0  0  0  0  0  0  0  0
   55.3000   29.7070   43.6260 C   0  0  0  0  0  0  0  0  0  0  0  0
   54.8811   29.0442   42.8545 H   0  0  0  0  0  0  0  0  0  0  0  0
   54.5853   30.5331   43.7551 H   0  0  0  0  0  0  0  0  0  0  0  0
   56.5990   30.1760   43.2360 O   0  0  0  0  0  0  0  0  0  0  0  0
  1  2  1  0
  2  3  1  0
  3  4  2  0
  3  5  1  0
  5  6  1  0
  6  7  1  0
  6  8  1  0
  6  9  1  0
  9 10  2  0
  9 11  1  0
 11 12  1  0
 12 13  2  0
 13 14  1  0
 13 15  1  0
 15 16  1  0
 15 17  2  0
 17 18  1  0
 17 19  1  0
 19 20  1  0
 19 21  2  0
 21 22  1  0
 22 23  2  0
 22 24  1  0
 24 25  1  0
 25 26  1  0
 25 27  1  0
 25 28  1  0
 28 29  1  0
 28 30  1  0
 28 31  1  0
 31 32  1  0
 31 33  1  0
 31 34  1  0
 34 35  1  0
 34 36  1  0
  2 37  2  0
 37 38  1  0
 37 39  1  0
 39 40  2  0
 40 41  1  0
 40 42  1  0
 42 43  1  0
 42 44  2  0
 44 45  1  0
 45 46  2  0
 46 47  1  0
 45 48  1  0
 48 49  1  0
 49 50  1  0
 49 51  1  0
 49 52  1  0
 21 12  1  0
 34 24  1  0
 46 39  1  0
 52 44  1  0
M  CHG  1  11  -1
M  END
>  <UniqueID>  (14) 
13

>  <SMILES>  (14) 
O=C(COC(=O)/C=C\c1ccc2c(c1)OCO2)[N-]c1ccccc1C(=O)N1CCCC1

>  <Energy>  (14) 
96.4512951819576

>  <Genealogy>  (14) 
O=C(COC(=O)C=Cc1ccc2c(c1)OCO2)[N-]c1ccccc1C(=O)N1CCCC1 (protonated)
O=C(COC(=O)/C=C\c1ccc2c(c1)OCO2)[N-]c1ccccc1C(=O)N1CCCC1 (cis-trans isomerization)
O=C(COC(=O)/C=C\c1ccc2c(c1)OCO2)[N-]c1ccccc1C(=O)N1CCCC1 (3D coordinates assigned)
O=C(COC(=O)/C=C\c1ccc2c(c1)OCO2)[N-]c1ccccc1C(=O)N1CCCC1 (nonaromatic ring conformer: 96.4512951819576 kcal/mol)

>  <smiles>  (14) 
O=C(COC(=O)C=Cc1ccc2c(c1)OCO2)Nc1ccccc1C(=O)N1CCCC1

>  <score_type>  (14) 
oracle

>  <origin>  (14) 
adg

>  <m_score__min__energy>  (14) 
-11.859999999999999

>  <m_primary>  (14) 
energy

$$$$
14:0
     RDKit          3D

 38 40  0  0  0  0  0  0  0  0999 V2000
   55.7150   23.9600   47.7330 O   0  0  0  0  0  0  0  0  0  0  0  0
   56.7960   24.0370   47.0900 C   0  0  0  0  0  0  0  0  0  0  0  0
   57.7400   23.0270   47.2350 O   0  0  0  0  0  0  0  0  0  0  0  0
   57.0580   25.1860   46.1960 C   0  0  0  0  0  0  0  0  0  0  0  0
   56.8360   26.4990   46.6430 C   0  0  0  0  0  0  0  0  0  0  0  0
   57.0740   27.5850   45.7980 C   0  0  0  0  0  0  0  0  0  0  0  0
   57.5200   27.3810   44.4820 C   0  0  0  0  0  0  0  0  0  0  0  0
   57.7190   28.4810   43.5800 N   0  0  0  0  0  0  0  0  0  0  0  0
   56.8760   29.9880   43.7560 S   0  0  0  0  0  0  0  0  0  0  0  0
   56.7140   30.6360   42.4100 O   0  0  0  0  0  0  0  0  0  0  0  0
   55.5180   29.7400   44.3480 O   0  0  0  0  0  0  0  0  0  0  0  0
   57.7820   31.0330   44.8330 C   0  0  0  0  0  0  0  0  0  0  0  0
   58.7960   30.6270   45.6930 C   0  0  0  0  0  0  0  0  0  0  0  0
   59.2000   31.5770   46.5740 N   0  0  0  0  0  0  0  0  0  0  0  0
   58.5070   32.7290   46.4140 C   0  0  0  0  0  0  0  0  0  0  0  0
   58.6760   33.7870   47.1480 N   0  0  0  0  0  0  0  0  0  0  0  0
   59.8080   34.6660   47.0690 C   0  0  0  0  0  0  0  0  0  0  0  0
   59.6180   35.8670   46.7420 O   0  0  0  0  0  0  0  0  0  0  0  0
   61.1770   34.2130   47.4240 C   0  0  0  0  0  0  0  0  0  0  0  0
   62.0730   33.7810   46.4260 C   0  0  0  0  0  0  0  0  0  0  0  0
   63.3590   33.3550   46.7680 C   0  0  0  0  0  0  0  0  0  0  0  0
   63.7600   33.3410   48.1060 C   0  0  0  0  0  0  0  0  0  0  0  0
   62.8740   33.7510   49.1060 C   0  0  0  0  0  0  0  0  0  0  0  0
   63.3780   33.7270   50.7870 Cl  0  0  0  0  0  0  0  0  0  0  0  0
   61.5850   34.1810   48.7680 C   0  0  0  0  0  0  0  0  0  0  0  0
   57.3740   32.6280   45.1780 S   0  0  0  0  0  0  0  0  0  0  0  0
   57.7690   26.0730   44.0430 C   0  0  0  0  0  0  0  0  0  0  0  0
   57.5360   24.9840   44.8880 C   0  0  0  0  0  0  0  0  0  0  0  0
   56.4720   26.6731   47.6663 H   0  0  0  0  0  0  0  0  0  0  0  0
   56.9108   28.6086   46.1662 H   0  0  0  0  0  0  0  0  0  0  0  0
   58.2050   28.3100   42.6720 H   0  0  0  0  0  0  0  0  0  0  0  0
   59.2348   29.6188   45.6620 H   0  0  0  0  0  0  0  0  0  0  0  0
   61.7583   33.7791   45.3720 H   0  0  0  0  0  0  0  0  0  0  0  0
   64.0569   33.0301   45.9822 H   0  0  0  0  0  0  0  0  0  0  0  0
   64.7736   33.0071   48.3727 H   0  0  0  0  0  0  0  0  0  0  0  0
   60.8882   34.4954   49.5589 H   0  0  0  0  0  0  0  0  0  0  0  0
   58.1507   25.9023   43.0256 H   0  0  0  0  0  0  0  0  0  0  0  0
   57.7276   23.9624   44.5280 H   0  0  0  0  0  0  0  0  0  0  0  0
  1  2  2  0
  2  3  1  0
  2  4  1  0
  4  5  2  0
  5  6  1  0
  6  7  2  0
  7  8  1  0
  8  9  1  0
  9 10  2  0
  9 11  2  0
  9 12  1  0
 12 13  2  0
 13 14  1  0
 14 15  1  0
 15 16  2  3
 16 17  1  0
 17 18  2  0
 17 19  1  0
 19 20  2  0
 20 21  1  0
 21 22  2  0
 22 23  1  0
 23 24  1  0
 23 25  2  0
 15 26  1  0
  7 27  1  0
 27 28  2  0
 28  4  1  0
 26 12  1  0
 25 19  1  0
  5 29  1  0
  6 30  1  0
  8 31  1  0
 13 32  1  0
 20 33  1  0
 21 34  1  0
 22 35  1  0
 25 36  1  0
 27 37  1  0
 28 38  1  0
M  CHG  2   3  -1  14  -1
M  END
>  <UniqueID>  (15) 
14

>  <SMILES>  (15) 
O=C([O-])c1ccc(NS(=O)(=O)c2c[n-]c(=NC(=O)c3cccc(Cl)c3)s2)cc1

>  <Energy>  (15) 
81.45413447108893

>  <Genealogy>  (15) 
O=C([O-])c1ccc(NS(=O)(=O)c2c[n-]c(=NC(=O)c3cccc(Cl)c3)s2)cc1 (protonated)
O=C([O-])c1ccc(NS(=O)(=O)c2c[n-]c(=NC(=O)c3cccc(Cl)c3)s2)cc1 (3D coordinates assigned)
O=C([O-])c1ccc(NS(=O)(=O)c2c[n-]c(=NC(=O)c3cccc(Cl)c3)s2)cc1 (optimized conformer: 81.45413447108893 kcal/mol)

>  <smiles>  (15) 
O=C(O)c1ccc(NS(=O)(=O)c2c[nH]c(=NC(=O)c3cccc(Cl)c3)s2)cc1

>  <score_type>  (15) 
oracle

>  <origin>  (15) 
adg

>  <m_score__min__energy>  (15) 
-12.83

>  <m_primary>  (15) 
energy

$$$$
15:0
     RDKit          3D

 66 70  0  0  1  0  0  0  0  0999 V2000
   56.0840   30.0290   44.9210 O   0  0  0  0  0  0  0  0  0  0  0  0
   56.8910   29.9120   43.9710 C   0  0  0  0  0  0  0  0  0  0  0  0
   56.8660   30.9270   42.8900 C   0  0  0  0  0  0  0  0  0  0  0  0
   58.1650   32.1550   43.0110 S   0  0  0  0  0  0  0  0  0  0  0  0
   57.9450   32.9530   44.7350 C   0  0  0  0  0  0  0  0  0  0  0  0
   57.2140   33.1150   45.5400 N   0  0  0  0  0  0  0  0  0  0  0  0
   57.3490   33.7480   46.6860 N   0  0  0  0  0  0  0  0  0  0  0  0
   58.5180   34.2540   46.8990 C   0  0  0  0  0  0  0  0  0  0  0  0
   59.0510   34.9450   47.8950 N   0  0  0  0  0  0  0  0  0  0  0  0
   60.0850   34.3350   48.6280 C   0  0  0  0  0  0  0  0  0  0  0  0
   61.3190   34.2100   47.9850 C   0  0  0  0  0  0  0  0  0  0  0  0
   62.3730   33.6290   48.6300 C   0  0  0  0  0  0  0  0  0  0  0  0
   62.2440   33.1570   49.9170 C   0  0  0  0  0  0  0  0  0  0  0  0
   61.0250   33.2830   50.5440 C   0  0  0  0  0  0  0  0  0  0  0  0
   59.9500   33.8640   49.9160 C   0  0  0  0  0  0  0  0  0  0  0  0
   59.4910   33.8190   45.4020 S   0  0  0  0  0  0  0  0  0  0  0  0
   57.8400   28.8610   43.8500 N   0  0  0  0  0  0  0  0  0  0  0  0
   57.9860   27.8170   44.8020 C   0  0  0  0  0  0  0  0  0  0  0  0
   57.4030   26.5990   44.5010 C   0  0  0  0  0  0  0  0  0  0  0  0
   57.4960   25.5030   45.3480 C   0  0  0  0  0  0  0  0  0  0  0  0
   56.7060   24.0260   44.8510 S   0  0  0  0  0  0  0  0  0  0  0  0
   55.4010   23.8910   45.6210 O   0  0  0  0  0  0  0  0  0  0  0  0
   56.4030   24.0510   43.3690 O   0  0  0  0  0  0  0  0  0  0  0  0
   57.6460   22.6610   45.2610 N   0  0  0  0  0  0  0  0  0  0  0  0
   58.3870   22.1950   44.1100 C   0  0  0  0  0  0  0  0  0  0  0  0
   57.5900   21.1850   43.3040 C   0  0  0  0  0  0  0  0  0  0  0  0
   56.2710   21.1870   43.7280 O   0  0  0  0  0  0  0  0  0  0  0  0
   56.2240   20.6840   45.0420 C   0  0  0  0  0  0  0  0  0  0  0  0
   56.9530   21.6400   45.9820 C   0  0  0  0  0  0  0  0  0  0  0  0
   58.1900   25.6420   46.5260 C   0  0  0  0  0  0  0  0  0  0  0  0
   58.7890   26.8580   46.8590 C   0  0  0  0  0  0  0  0  0  0  0  0
   58.6810   27.9460   45.9830 C   0  0  0  0  0  0  0  0  0  0  0  0
   59.3030   29.1440   46.3490 N   0  0  0  0  0  0  0  0  0  0  0  0
   60.6870   29.4740   46.2320 C   0  0  0  0  0  0  0  0  0  0  0  0
   60.7530   31.0040   46.4010 C   0  0  0  0  0  0  0  0  0  0  0  0
   60.4410   31.2510   47.7380 O   0  0  0  0  0  0  0  0  0  0  0  0
   59.2160   30.7300   48.1070 C   0  0  0  0  0  0  0  0  0  0  0  0
   58.4270   30.1880   46.9210 C   0  0  0  0  0  0  0  0  0  0  0  0
   56.9700   30.4077   41.9259 H   0  0  0  0  0  0  0  0  0  0  0  0
   55.9109   31.4649   42.9814 H   0  0  0  0  0  0  0  0  0  0  0  0
   56.5300   33.8160   47.3670 H   0  0  0  0  0  0  0  0  0  0  0  0
   61.4418   34.5805   46.9566 H   0  0  0  0  0  0  0  0  0  0  0  0
   63.3398   33.5366   48.1136 H   0  0  0  0  0  0  0  0  0  0  0  0
   63.0959   32.6897   50.4326 H   0  0  0  0  0  0  0  0  0  0  0  0
   60.9089   32.9097   51.5722 H   0  0  0  0  0  0  0  0  0  0  0  0
   58.9862   33.9528   50.4388 H   0  0  0  0  0  0  0  0  0  0  0  0
   58.4920   28.8190   43.0240 H   0  0  0  0  0  0  0  0  0  0  0  0
   56.8465   26.4954   43.5578 H   0  0  0  0  0  0  0  0  0  0  0  0
   58.6268   23.0551   43.4676 H   0  0  0  0  0  0  0  0  0  0  0  0
   59.3042   21.7037   44.4670 H   0  0  0  0  0  0  0  0  0  0  0  0
   57.6320   21.4527   42.2379 H   0  0  0  0  0  0  0  0  0  0  0  0
   58.0184   20.1824   43.4497 H   0  0  0  0  0  0  0  0  0  0  0  0
   55.1753   20.5868   45.3596 H   0  0  0  0  0  0  0  0  0  0  0  0
   56.7109   19.6981   45.0736 H   0  0  0  0  0  0  0  0  0  0  0  0
   56.2185   22.1117   46.6514 H   0  0  0  0  0  0  0  0  0  0  0  0
   57.6925   21.0615   46.5551 H   0  0  0  0  0  0  0  0  0  0  0  0
   58.2742   24.7870   47.2129 H   0  0  0  0  0  0  0  0  0  0  0  0
   59.3427   26.9614   47.8038 H   0  0  0  0  0  0  0  0  0  0  0  0
   61.2708   28.9735   47.0186 H   0  0  0  0  0  0  0  0  0  0  0  0
   61.1074   29.1482   45.2692 H   0  0  0  0  0  0  0  0  0  0  0  0
   61.7632   31.3721   46.1688 H   0  0  0  0  0  0  0  0  0  0  0  0
   60.0576   31.5175   45.7208 H   0  0  0  0  0  0  0  0  0  0  0  0
   59.3827   29.9114   48.8226 H   0  0  0  0  0  0  0  0  0  0  0  0
   58.6281   31.5459   48.5527 H   0  0  0  0  0  0  0  0  0  0  0  0
   57.4712   29.7564   47.2528 H   0  0  0  0  0  0  0  0  0  0  0  0
   58.1727   30.9708   46.1912 H   0  0  0  0  0  0  0  0  0  0  0  0
  1  2  2  0
  2  3  1  0
  3  4  1  0
  4  5  1  0
  5  6  2  0
  6  7  1  0
  7  8  1  0
  8  9  2  0
  9 10  1  0
 10 11  2  0
 11 12  1  0
 12 13  2  0
 13 14  1  0
 14 15  2  0
  8 16  1  0
  2 17  1  0
 17 18  1  0
 18 19  2  0
 19 20  1  0
 20 21  1  0
 21 22  2  0
 21 23  2  0
 21 24  1  0
 24 25  1  0
 25 26  1  0
 26 27  1  0
 27 28  1  0
 28 29  1  0
 20 30  2  0
 30 31  1  0
 31 32  2  0
 32 33  1  0
 33 34  1  0
 34 35  1  0
 35 36  1  0
 36 37  1  0
 37 38  1  0
 16  5  1  0
 32 18  1  0
 38 33  1  0
 15 10  1  0
 29 24  1  0
  3 39  1  0
  3 40  1  0
  7 41  1  0
 11 42  1  0
 12 43  1  0
 13 44  1  0
 14 45  1  0
 15 46  1  0
 17 47  1  0
 19 48  1  0
 25 49  1  0
 25 50  1  0
 26 51  1  0
 26 52  1  0
 28 53  1  0
 28 54  1  0
 29 55  1  0
 29 56  1  0
 30 57  1  0
 31 58  1  0
 34 59  1  0
 34 60  1  0
 35 61  1  0
 35 62  1  0
 37 63  1  0
 37 64  1  0
 38 65  1  0
 38 66  1  0
M  END
>  <smiles>  (16) 
O=C(CSc1n[nH]c(=Nc2ccccc2)s1)Nc1cc(S(=O)(=O)N2CCOCC2)ccc1N1CCOCC1

>  <score_type>  (16) 
oracle

>  <origin>  (16) 
adg

>  <m_score__min__energy>  (16) 
-11.039999999999999

>  <m_primary>  (16) 
energy

$$$$
16:0
     RDKit          3D

 46 48  0  0  0  0  0  0  0  0999 V2000
   59.2990   26.2170   46.3030 O   0  0  0  0  0  0  0  0  0  0  0  0
   59.2860   27.4710   46.4380 C   0  0  0  0  0  0  0  0  0  0  0  0
   60.3680   28.1280   47.2570 C   0  0  0  0  0  0  0  0  0  0  0  0
   59.8270   29.2610   48.1440 C   0  0  0  0  0  0  0  0  0  0  0  0
   60.7970   30.4110   48.2670 C   0  0  0  0  0  0  0  0  0  0  0  0
   61.5190   30.8580   47.1470 C   0  0  0  0  0  0  0  0  0  0  0  0
   62.4490   31.8940   47.2760 C   0  0  0  0  0  0  0  0  0  0  0  0
   62.6530   32.5030   48.5170 C   0  0  0  0  0  0  0  0  0  0  0  0
   63.5580   33.5050   48.6400 F   0  0  0  0  0  0  0  0  0  0  0  0
   61.9230   32.0800   49.6300 C   0  0  0  0  0  0  0  0  0  0  0  0
   60.9990   31.0360   49.5090 C   0  0  0  0  0  0  0  0  0  0  0  0
   58.1950   28.2530   45.8090 C   0  0  0  0  0  0  0  0  0  0  0  0
   56.8710   27.7750   45.8060 C   0  0  0  0  0  0  0  0  0  0  0  0
   56.5140   26.5640   46.4010 O   0  0  0  0  0  0  0  0  0  0  0  0
   55.8930   28.5230   45.2430 N   0  0  0  0  0  0  0  0  0  0  0  0
   56.1460   29.7280   44.6760 C   0  0  0  0  0  0  0  0  0  0  0  0
   55.1850   30.3870   44.1940 O   0  0  0  0  0  0  0  0  0  0  0  0
   57.4260   30.2180   44.6340 N   0  0  0  0  0  0  0  0  0  0  0  0
   57.6930   31.5420   44.0370 C   0  0  0  0  0  0  0  0  0  0  0  0
   57.0450   32.6430   44.8790 C   0  0  0  0  0  0  0  0  0  0  0  0
   58.0630   33.3030   45.7700 C   0  0  0  0  0  0  0  0  0  0  0  0
   58.1620   32.9400   47.1230 C   0  0  0  0  0  0  0  0  0  0  0  0
   59.0870   33.5760   47.9560 C   0  0  0  0  0  0  0  0  0  0  0  0
   59.9130   34.5830   47.4470 C   0  0  0  0  0  0  0  0  0  0  0  0
   59.8100   34.9580   46.1040 C   0  0  0  0  0  0  0  0  0  0  0  0
   58.8860   34.3250   45.2680 C   0  0  0  0  0  0  0  0  0  0  0  0
   58.4490   29.4960   45.1970 C   0  0  0  0  0  0  0  0  0  0  0  0
   59.6310   29.9380   45.1540 O   0  0  0  0  0  0  0  0  0  0  0  0
   60.8343   27.3677   47.9008 H   0  0  0  0  0  0  0  0  0  0  0  0
   61.0959   28.5676   46.5592 H   0  0  0  0  0  0  0  0  0  0  0  0
   58.8898   29.6351   47.7062 H   0  0  0  0  0  0  0  0  0  0  0  0
   59.6663   28.8496   49.1514 H   0  0  0  0  0  0  0  0  0  0  0  0
   61.3517   30.3910   46.1652 H   0  0  0  0  0  0  0  0  0  0  0  0
   63.0212   32.2303   46.3988 H   0  0  0  0  0  0  0  0  0  0  0  0
   62.0747   32.5685   50.6038 H   0  0  0  0  0  0  0  0  0  0  0  0
   60.4290   30.7036   50.3891 H   0  0  0  0  0  0  0  0  0  0  0  0
   57.1830   25.8430   46.6370 H   0  0  0  0  0  0  0  0  0  0  0  0
   58.7794   31.7090   43.9949 H   0  0  0  0  0  0  0  0  0  0  0  0
   57.2686   31.5699   43.0225 H   0  0  0  0  0  0  0  0  0  0  0  0
   56.6075   33.3985   44.2098 H   0  0  0  0  0  0  0  0  0  0  0  0
   56.2643   32.1919   45.5091 H   0  0  0  0  0  0  0  0  0  0  0  0
   57.5096   32.1527   47.5286 H   0  0  0  0  0  0  0  0  0  0  0  0
   59.1653   33.2839   49.0136 H   0  0  0  0  0  0  0  0  0  0  0  0
   60.6433   35.0798   48.1027 H   0  0  0  0  0  0  0  0  0  0  0  0
   60.4574   35.7526   45.7047 H   0  0  0  0  0  0  0  0  0  0  0  0
   58.8029   34.6279   44.2138 H   0  0  0  0  0  0  0  0  0  0  0  0
  1  2  2  0
  2  3  1  0
  3  4  1  0
  4  5  1  0
  5  6  2  0
  6  7  1  0
  7  8  2  0
  8  9  1  0
  8 10  1  0
 10 11  2  0
  2 12  1  0
 12 13  2  0
 13 14  1  0
 13 15  1  0
 15 16  1  0
 16 17  2  0
 16 18  1  0
 18 19  1  0
 19 20  1  0
 20 21  1  0
 21 22  2  0
 22 23  1  0
 23 24  2  0
 24 25  1  0
 25 26  2  0
 18 27  1  0
 27 28  2  0
 11  5  1  0
 27 12  1  0
 26 21  1  0
  3 29  1  0
  3 30  1  0
  4 31  1  0
  4 32  1  0
  6 33  1  0
  7 34  1  0
 10 35  1  0
 11 36  1  0
 14 37  1  0
 19 38  1  0
 19 39  1  0
 20 40  1  0
 20 41  1  0
 22 42  1  0
 23 43  1  0
 24 44  1  0
 25 45  1  0
 26 46  1  0
M  CHG  1  15  -1
M  END
>  <UniqueID>  (17) 
15

>  <SMILES>  (17) 
O=C(CCc1ccc(F)cc1)c1c(O)[n-]c(=O)n(CCc2ccccc2)c1=O

>  <Energy>  (17) 
51.249418706585054

>  <Genealogy>  (17) 
O=C(CCc1ccc(F)cc1)c1c(O)[n-]c(=O)n(CCc2ccccc2)c1=O (protonated)
O=C(CCc1ccc(F)cc1)c1c(O)[n-]c(=O)n(CCc2ccccc2)c1=O (3D coordinates assigned)
O=C(CCc1ccc(F)cc1)c1c(O)[n-]c(=O)n(CCc2ccccc2)c1=O (optimized conformer: 51.249418706585054 kcal/mol)

>  <smiles>  (17) 
O=C(CCc1ccc(F)cc1)c1c(O)[nH]c(=O)n(CCc2ccccc2)c1=O

>  <score_type>  (17) 
oracle

>  <origin>  (17) 
adg

>  <m_score__min__energy>  (17) 
-10.51

>  <m_primary>  (17) 
energy

$$$$
17:0
     RDKit          3D

 55 58  0  0  0  0  0  0  0  0999 V2000
   54.2710   29.9660   55.6920 O   0  0  0  0  0  0  0  0  0  0  0  0
   54.5670   29.6660   54.5060 C   0  0  0  0  0  0  0  0  0  0  0  0
   53.6240   28.9250   53.7180 N   0  0  0  0  0  0  0  0  0  0  0  0
   52.1820   29.1620   53.6820 C   0  0  0  0  0  0  0  0  0  0  0  0
   51.8200   30.0820   52.5430 C   0  0  0  0  0  0  0  0  0  0  0  0
   51.3490   31.3800   52.7950 C   0  0  0  0  0  0  0  0  0  0  0  0
   51.0760   32.2520   51.7340 C   0  0  0  0  0  0  0  0  0  0  0  0
   50.6340   33.5420   52.0080 O   0  0  0  0  0  0  0  0  0  0  0  0
   51.2540   31.8230   50.4090 C   0  0  0  0  0  0  0  0  0  0  0  0
   50.9870   32.6750   49.3360 O   0  0  0  0  0  0  0  0  0  0  0  0
   51.7040   30.5210   50.1550 C   0  0  0  0  0  0  0  0  0  0  0  0
   51.8770   30.0840   48.8470 O   0  0  0  0  0  0  0  0  0  0  0  0
   51.9860   29.6550   51.2170 C   0  0  0  0  0  0  0  0  0  0  0  0
   55.8910   30.0410   53.9810 C   0  0  0  0  0  0  0  0  0  0  0  0
   56.3540   29.5260   52.7650 C   0  0  0  0  0  0  0  0  0  0  0  0
   57.6370   29.8400   52.3170 C   0  0  0  0  0  0  0  0  0  0  0  0
   58.4610   30.6710   53.0940 C   0  0  0  0  0  0  0  0  0  0  0  0
   59.8090   30.9870   52.6840 N   0  0  0  0  0  0  0  0  0  0  0  0
   60.3320   30.4350   51.4240 C   0  0  0  0  0  0  0  0  0  0  0  0
   61.2860   31.4300   50.7500 C   0  0  0  0  0  0  0  0  0  0  0  0
   62.2320   32.0220   51.7100 N   0  0  0  0  0  0  0  0  0  0  0  0
   63.0760   33.1120   51.2980 C   0  0  0  0  0  0  0  0  0  0  0  0
   63.2270   34.1070   52.0540 O   0  0  0  0  0  0  0  0  0  0  0  0
   63.7040   33.1230   50.0110 N   0  0  0  0  0  0  0  0  0  0  0  0
   63.0520   33.4000   48.7630 C   0  0  0  0  0  0  0  0  0  0  0  0
   63.7530   33.3850   47.5430 C   0  0  0  0  0  0  0  0  0  0  0  0
   63.0890   33.6770   46.3470 C   0  0  0  0  0  0  0  0  0  0  0  0
   61.7290   33.9980   46.3630 C   0  0  0  0  0  0  0  0  0  0  0  0
   61.0330   34.0370   47.5730 C   0  0  0  0  0  0  0  0  0  0  0  0
   61.6940   33.7450   48.7700 C   0  0  0  0  0  0  0  0  0  0  0  0
   62.1630   31.6380   53.1250 C   0  0  0  0  0  0  0  0  0  0  0  0
   60.7110   31.7050   53.6020 C   0  0  0  0  0  0  0  0  0  0  0  0
   57.9740   31.1760   54.2640 N   0  0  0  0  0  0  0  0  0  0  0  0
   56.7230   30.8960   54.7130 C   0  0  0  0  0  0  0  0  0  0  0  0
   51.6617   28.2019   53.5497 H   0  0  0  0  0  0  0  0  0  0  0  0
   51.8780   29.6344   54.6278 H   0  0  0  0  0  0  0  0  0  0  0  0
   51.1935   31.7140   53.8315 H   0  0  0  0  0  0  0  0  0  0  0  0
   51.2970   32.4680   48.3940 H   0  0  0  0  0  0  0  0  0  0  0  0
   52.3397   28.6340   51.0112 H   0  0  0  0  0  0  0  0  0  0  0  0
   55.7057   28.8731   52.1621 H   0  0  0  0  0  0  0  0  0  0  0  0
   58.0018   29.4389   51.3599 H   0  0  0  0  0  0  0  0  0  0  0  0
   60.8745   29.5020   51.6363 H   0  0  0  0  0  0  0  0  0  0  0  0
   59.4879   30.2402   50.7462 H   0  0  0  0  0  0  0  0  0  0  0  0
   61.8547   30.9038   49.9692 H   0  0  0  0  0  0  0  0  0  0  0  0
   60.6821   32.2435   50.3216 H   0  0  0  0  0  0  0  0  0  0  0  0
   64.8260   33.1430   47.5298 H   0  0  0  0  0  0  0  0  0  0  0  0
   63.6374   33.6539   45.3937 H   0  0  0  0  0  0  0  0  0  0  0  0
   61.2060   34.2203   45.4211 H   0  0  0  0  0  0  0  0  0  0  0  0
   59.9644   34.2975   47.5844 H   0  0  0  0  0  0  0  0  0  0  0  0
   61.1450   33.7863   49.7223 H   0  0  0  0  0  0  0  0  0  0  0  0
   62.5414   30.6122   53.2453 H   0  0  0  0  0  0  0  0  0  0  0  0
   62.7771   32.3280   53.7223 H   0  0  0  0  0  0  0  0  0  0  0  0
   60.6412   31.2497   54.6009 H   0  0  0  0  0  0  0  0  0  0  0  0
   60.4051   32.7612   53.6317 H   0  0  0  0  0  0  0  0  0  0  0  0
   56.3636   31.3414   55.6524 H   0  0  0  0  0  0  0  0  0  0  0  0
  1  2  2  0
  2  3  1  0
  3  4  1  0
  4  5  1  0
  5  6  2  0
  6  7  1  0
  7  8  1  0
  7  9  2  0
  9 10  1  0
  9 11  1  0
 11 12  1  0
 11 13  2  0
  2 14  1  0
 14 15  2  0
 15 16  1  0
 16 17  2  0
 17 18  1  0
 18 19  1  0
 19 20  1  0
 20 21  1  0
 21 22  1  0
 22 23  2  0
 22 24  1  0
 24 25  1  0
 25 26  2  0
 26 27  1  0
 27 28  2  0
 28 29  1  0
 29 30  2  0
 21 31  1  0
 31 32  1  0
 17 33  1  0
 33 34  2  0
 13  5  1  0
 34 14  1  0
 32 18  1  0
 30 25  1  0
  4 35  1  0
  4 36  1  0
  6 37  1  0
 10 38  1  0
 13 39  1  0
 15 40  1  0
 16 41  1  0
 19 42  1  0
 19 43  1  0
 20 44  1  0
 20 45  1  0
 26 46  1  0
 27 47  1  0
 28 48  1  0
 29 49  1  0
 30 50  1  0
 31 51  1  0
 31 52  1  0
 32 53  1  0
 32 54  1  0
 34 55  1  0
M  CHG  4   3  -1   8  -1  12  -1  24  -1
M  END
>  <UniqueID>  (18) 
16

>  <SMILES>  (18) 
O=C([N-]Cc1cc([O-])c(O)c([O-])c1)c1ccc(N2CCN(C(=O)[N-]c3ccccc3)CC2)nc1

>  <Energy>  (18) 
70.15907599833527

>  <Genealogy>  (18) 
O=C([N-]Cc1cc([O-])c(O)c([O-])c1)c1ccc(N2CCN(C(=O)[N-]c3ccccc3)CC2)nc1 (protonated)
O=C([N-]Cc1cc([O-])c(O)c([O-])c1)c1ccc(N2CCN(C(=O)[N-]c3ccccc3)CC2)nc1 (3D coordinates assigned)
O=C([N-]Cc1cc([O-])c(O)c([O-])c1)c1ccc(N2CCN(C(=O)[N-]c3ccccc3)CC2)nc1 (nonaromatic ring conformer: 70.15907599833527 kcal/mol)

>  <smiles>  (18) 
O=C(NCc1cc(O)c(O)c(O)c1)c1ccc(N2CCN(C(=O)Nc3ccccc3)CC2)nc1

>  <score_type>  (18) 
oracle

>  <origin>  (18) 
adg

>  <m_score__min__energy>  (18) 
-17.620000000000001

>  <m_primary>  (18) 
energy

$$$$
18:0
     RDKit          3D

 49 51  0  0  0  0  0  0  0  0999 V2000
   60.5741   28.2935   46.1914 H   0  0  0  0  0  0  0  0  0  0  0  0
   59.7600   27.5650   46.3200 C   0  0  0  0  0  0  0  0  0  0  0  0
   59.9722   26.5721   46.7432 H   0  0  0  0  0  0  0  0  0  0  0  0
   58.5060   27.8880   45.9600 C   0  0  0  0  0  0  0  0  0  0  0  0
   57.5610   26.9290   46.1530 N   0  0  0  0  0  0  0  0  0  0  0  0
   56.2690   27.1080   45.7990 C   0  0  0  0  0  0  0  0  0  0  0  0
   55.4320   26.1870   45.9900 O   0  0  0  0  0  0  0  0  0  0  0  0
   55.8760   28.2740   45.2450 N   0  0  0  0  0  0  0  0  0  0  0  0
   56.7510   29.2880   45.0270 C   0  0  0  0  0  0  0  0  0  0  0  0
   56.2920   30.3680   44.5710 O   0  0  0  0  0  0  0  0  0  0  0  0
   58.1300   29.1360   45.3600 C   0  0  0  0  0  0  0  0  0  0  0  0
   59.0340   30.1400   45.1620 C   0  0  0  0  0  0  0  0  0  0  0  0
   59.4584   30.2389   44.1520 H   0  0  0  0  0  0  0  0  0  0  0  0
   59.4940   31.1060   46.1820 C   0  0  0  0  0  0  0  0  0  0  0  0
   58.6180   32.0950   46.6420 C   0  0  0  0  0  0  0  0  0  0  0  0
   57.6082   32.1748   46.2131 H   0  0  0  0  0  0  0  0  0  0  0  0
   59.0200   32.9810   47.6430 C   0  0  0  0  0  0  0  0  0  0  0  0
   58.3298   33.7648   47.9884 H   0  0  0  0  0  0  0  0  0  0  0  0
   60.3020   32.8780   48.2130 C   0  0  0  0  0  0  0  0  0  0  0  0
   60.7460   33.7510   49.2220 O   0  0  0  0  0  0  0  0  0  0  0  0
   60.7120   33.4820   50.6240 C   0  0  0  0  0  0  0  0  0  0  0  0
   61.5955   32.8871   50.8987 H   0  0  0  0  0  0  0  0  0  0  0  0
   60.7110   34.4387   51.1669 H   0  0  0  0  0  0  0  0  0  0  0  0
   59.4680   32.7170   50.9910 C   0  0  0  0  0  0  0  0  0  0  0  0
   58.4370   33.3350   51.7130 C   0  0  0  0  0  0  0  0  0  0  0  0
   58.5345   34.3894   52.0107 H   0  0  0  0  0  0  0  0  0  0  0  0
   57.2860   32.6200   52.0570 C   0  0  0  0  0  0  0  0  0  0  0  0
   56.4824   33.1170   52.6202 H   0  0  0  0  0  0  0  0  0  0  0  0
   57.1480   31.2690   51.6880 C   0  0  0  0  0  0  0  0  0  0  0  0
   55.9350   30.4940   52.0480 C   0  0  0  0  0  0  0  0  0  0  0  0
   56.0440   29.2830   52.3790 O   0  0  0  0  0  0  0  0  0  0  0  0
   54.6320   31.0850   52.0140 N   0  0  0  0  0  0  0  0  0  0  0  0
   53.8040   30.5330   52.3280 H   0  0  0  0  0  0  0  0  0  0  0  0
   54.4660   32.0280   51.6010 H   0  0  0  0  0  0  0  0  0  0  0  0
   58.1960   30.6470   50.9880 C   0  0  0  0  0  0  0  0  0  0  0  0
   58.1104   29.5866   50.7082 H   0  0  0  0  0  0  0  0  0  0  0  0
   59.3460   31.3630   50.6440 C   0  0  0  0  0  0  0  0  0  0  0  0
   60.1595   30.8625   50.0985 H   0  0  0  0  0  0  0  0  0  0  0  0
   61.1800   31.8740   47.7720 C   0  0  0  0  0  0  0  0  0  0  0  0
   62.4520   31.7980   48.3670 O   0  0  0  0  0  0  0  0  0  0  0  0
   63.6130   32.5140   47.9490 C   0  0  0  0  0  0  0  0  0  0  0  0
   64.0033   33.0948   48.7977 H   0  0  0  0  0  0  0  0  0  0  0  0
   64.3657   31.7916   47.6003 H   0  0  0  0  0  0  0  0  0  0  0  0
   63.2810   33.4650   46.8030 C   0  0  0  0  0  0  0  0  0  0  0  0
   62.9445   34.4290   47.2123 H   0  0  0  0  0  0  0  0  0  0  0  0
   64.1775   33.6219   46.1853 H   0  0  0  0  0  0  0  0  0  0  0  0
   62.4816   33.0298   46.1853 H   0  0  0  0  0  0  0  0  0  0  0  0
   60.7620   30.9790   46.7690 C   0  0  0  0  0  0  0  0  0  0  0  0
   61.4355   30.1729   46.4426 H   0  0  0  0  0  0  0  0  0  0  0  0
  1  2  1  0
  2  3  1  0
  2  4  2  0
  4  5  1  0
  5  6  1  0
  6  7  2  0
  6  8  1  0
  8  9  1  0
  9 10  2  0
  9 11  1  0
 11 12  2  0
 12 13  1  0
 12 14  1  0
 14 15  2  0
 15 16  1  0
 15 17  1  0
 17 18  1  0
 17 19  2  0
 19 20  1  0
 20 21  1  0
 21 22  1  0
 21 23  1  0
 21 24  1  0
 24 25  2  0
 25 26  1  0
 25 27  1  0
 27 28  1  0
 27 29  2  0
 29 30  1  0
 30 31  2  0
 30 32  1  0
 32 33  1  0
 32 34  1  0
 29 35  1  0
 35 36  1  0
 35 37  2  0
 37 38  1  0
 19 39  1  0
 39 40  1  0
 40 41  1  0
 41 42  1  0
 41 43  1  0
 41 44  1  0
 44 45  1  0
 44 46  1  0
 44 47  1  0
 39 48  2  0
 48 49  1  0
 11  4  1  0
 48 14  1  0
 37 24  1  0
M  CHG  2   5  -1   8  -1
M  END
>  <UniqueID>  (19) 
17

>  <SMILES>  (19) 
C=c1[n-]c(=O)[n-]c(=O)/c1=C\c1ccc(OCc2ccc(C(N)=O)cc2)c(OCC)c1

>  <Energy>  (19) 
71.53247298677562

>  <Genealogy>  (19) 
C=c1[n-]c(=O)[n-]c(=O)c1=Cc1ccc(OCc2ccc(C(N)=O)cc2)c(OCC)c1 (protonated)
C=c1[n-]c(=O)[n-]c(=O)/c1=C\c1ccc(OCc2ccc(C(N)=O)cc2)c(OCC)c1 (cis-trans isomerization)
C=c1[n-]c(=O)[n-]c(=O)/c1=C\c1ccc(OCc2ccc(C(N)=O)cc2)c(OCC)c1 (3D coordinates assigned)
C=c1[n-]c(=O)[n-]c(=O)/c1=C\c1ccc(OCc2ccc(C(N)=O)cc2)c(OCC)c1 (optimized conformer: 71.53247298677562 kcal/mol)

>  <smiles>  (19) 
C=c1[nH]c(=O)[nH]c(=O)c1=Cc1ccc(OCc2ccc(C(N)=O)cc2)c(OCC)c1

>  <score_type>  (19) 
oracle

>  <origin>  (19) 
adg

>  <m_score__min__energy>  (19) 
-12.35

>  <m_primary>  (19) 
energy

$$$$
19:0
     RDKit          3D

 64 67  0  0  0  0  0  0  0  0999 V2000
   57.9840   32.3090   41.2130 C   0  0  0  0  0  0  0  0  0  0  0  0
   57.5630   32.0450   42.6230 C   0  0  0  0  0  0  0  0  0  0  0  0
   56.8610   30.8800   42.9480 C   0  0  0  0  0  0  0  0  0  0  0  0
   56.4880   30.6770   44.2770 C   0  0  0  0  0  0  0  0  0  0  0  0
   55.8530   29.6410   44.6050 O   0  0  0  0  0  0  0  0  0  0  0  0
   56.8120   31.5990   45.2200 N   0  0  0  0  0  0  0  0  0  0  0  0
   57.5100   32.7230   44.8970 C   0  0  0  0  0  0  0  0  0  0  0  0
   57.8440   33.7640   45.9420 C   0  0  0  0  0  0  0  0  0  0  0  0
   59.1720   34.4970   45.6650 C   0  0  0  0  0  0  0  0  0  0  0  0
   60.4200   33.7240   46.1500 C   0  0  0  0  0  0  0  0  0  0  0  0
   60.3090   33.2310   47.5490 N   0  0  0  0  0  0  0  0  0  0  0  0
   60.4740   34.3220   48.5660 C   0  0  0  0  0  0  0  0  0  0  0  0
   61.9890   34.5590   48.8750 C   0  0  0  0  0  0  0  0  0  0  0  0
   62.4130   34.1080   50.2800 C   0  0  0  0  0  0  0  0  0  0  0  0
   61.7700   32.8210   50.5950 N   0  0  0  0  0  0  0  0  0  0  0  0
   62.4180   32.0930   51.7120 C   0  0  0  0  0  0  0  0  0  0  0  0
   61.9920   30.6390   51.8300 C   0  0  0  0  0  0  0  0  0  0  0  0
   62.9240   29.6100   51.6250 C   0  0  0  0  0  0  0  0  0  0  0  0
   62.5270   28.2730   51.7010 C   0  0  0  0  0  0  0  0  0  0  0  0
   61.1990   27.9420   51.9940 C   0  0  0  0  0  0  0  0  0  0  0  0
   60.7520   26.2380   52.0260 Cl  0  0  0  0  0  0  0  0  0  0  0  0
   60.2530   28.9630   52.2210 C   0  0  0  0  0  0  0  0  0  0  0  0
   58.8870   28.6330   52.5270 N   0  0  0  0  0  0  0  0  0  0  0  0
   57.5650   29.7240   52.2530 S   0  0  0  0  0  0  0  0  0  0  0  0
   57.5830   31.0250   53.4680 C   0  0  0  0  0  0  0  0  0  0  0  0
   57.6580   30.3040   50.8690 O   0  0  0  0  0  0  0  0  0  0  0  0
   56.2720   28.9640   52.3670 O   0  0  0  0  0  0  0  0  0  0  0  0
   60.6690   30.3080   52.1560 C   0  0  0  0  0  0  0  0  0  0  0  0
   60.3000   32.9320   50.7350 C   0  0  0  0  0  0  0  0  0  0  0  0
   59.7070   34.0830   49.8970 C   0  0  0  0  0  0  0  0  0  0  0  0
   59.0970   32.3870   47.6700 C   0  0  0  0  0  0  0  0  0  0  0  0
   57.8130   33.1690   47.3580 C   0  0  0  0  0  0  0  0  0  0  0  0
   57.8680   32.9400   43.6020 N   0  0  0  0  0  0  0  0  0  0  0  0
   58.9159   32.8934   41.2119 H   0  0  0  0  0  0  0  0  0  0  0  0
   58.1501   31.3530   40.6948 H   0  0  0  0  0  0  0  0  0  0  0  0
   57.1958   32.8748   40.6948 H   0  0  0  0  0  0  0  0  0  0  0  0
   56.6087   30.1406   42.1736 H   0  0  0  0  0  0  0  0  0  0  0  0
   57.0550   34.5277   45.8770 H   0  0  0  0  0  0  0  0  0  0  0  0
   59.2615   34.6559   44.5802 H   0  0  0  0  0  0  0  0  0  0  0  0
   59.1409   35.4427   46.2259 H   0  0  0  0  0  0  0  0  0  0  0  0
   60.5724   32.8591   45.4876 H   0  0  0  0  0  0  0  0  0  0  0  0
   61.2657   34.4268   46.1219 H   0  0  0  0  0  0  0  0  0  0  0  0
   60.0267   35.2152   48.1055 H   0  0  0  0  0  0  0  0  0  0  0  0
   62.5847   34.0014   48.1373 H   0  0  0  0  0  0  0  0  0  0  0  0
   62.1608   35.6442   48.8215 H   0  0  0  0  0  0  0  0  0  0  0  0
   63.5061   33.9901   50.3134 H   0  0  0  0  0  0  0  0  0  0  0  0
   62.1041   34.8635   51.0174 H   0  0  0  0  0  0  0  0  0  0  0  0
   63.5069   32.1234   51.5595 H   0  0  0  0  0  0  0  0  0  0  0  0
   62.1071   32.5928   52.6413 H   0  0  0  0  0  0  0  0  0  0  0  0
   63.9726   29.8577   51.4033 H   0  0  0  0  0  0  0  0  0  0  0  0
   63.2635   27.4742   51.5293 H   0  0  0  0  0  0  0  0  0  0  0  0
   58.6370   27.6560   52.8010 H   0  0  0  0  0  0  0  0  0  0  0  0
   57.5769   30.5852   54.4762 H   0  0  0  0  0  0  0  0  0  0  0  0
   58.4897   31.6344   53.3393 H   0  0  0  0  0  0  0  0  0  0  0  0
   56.6935   31.6593   53.3393 H   0  0  0  0  0  0  0  0  0  0  0  0
   59.9452   31.1098   52.3640 H   0  0  0  0  0  0  0  0  0  0  0  0
   59.8430   31.9866   50.4074 H   0  0  0  0  0  0  0  0  0  0  0  0
   60.0823   33.1445   51.7921 H   0  0  0  0  0  0  0  0  0  0  0  0
   58.6604   33.8412   49.6601 H   0  0  0  0  0  0  0  0  0  0  0  0
   59.7903   35.0026   50.4949 H   0  0  0  0  0  0  0  0  0  0  0  0
   59.1794   31.5456   46.9662 H   0  0  0  0  0  0  0  0  0  0  0  0
   59.0335   32.0339   48.7098 H   0  0  0  0  0  0  0  0  0  0  0  0
   56.9520   32.4895   47.4410 H   0  0  0  0  0  0  0  0  0  0  0  0
   57.7306   33.9968   48.0776 H   0  0  0  0  0  0  0  0  0  0  0  0
  1  2  1  0
  2  3  2  0
  3  4  1  0
  4  5  2  0
  4  6  1  0
  6  7  1  0
  7  8  1  0
  8  9  1  0
  9 10  1  0
 10 11  1  0
 11 12  1  0
 12 13  1  0
 13 14  1  0
 14 15  1  0
 15 16  1  0
 16 17  1  0
 17 18  2  0
 18 19  1  0
 19 20  2  0
 20 21  1  0
 20 22  1  0
 22 23  1  0
 23 24  1  0
 24 25  1  0
 24 26  2  0
 24 27  2  0
 22 28  2  0
 15 29  1  0
 29 30  1  0
 11 31  1  0
 31 32  1  0
  7 33  2  0
 33  2  1  0
 32  8  1  0
 30 12  1  0
 28 17  1  0
  1 34  1  0
  1 35  1  0
  1 36  1  0
  3 37  1  0
  8 38  1  0
  9 39  1  0
  9 40  1  0
 10 41  1  0
 10 42  1  0
 12 43  1  0
 13 44  1  0
 13 45  1  0
 14 46  1  0
 14 47  1  0
 16 48  1  0
 16 49  1  0
 18 50  1  0
 19 51  1  0
 23 52  1  0
 25 53  1  0
 25 54  1  0
 25 55  1  0
 28 56  1  0
 29 57  1  0
 29 58  1  0
 30 59  1  0
 30 60  1  0
 31 61  1  0
 31 62  1  0
 32 63  1  0
 32 64  1  0
M  CHG  1   6  -1
M  END
>  <UniqueID>  (20) 
18

>  <SMILES>  (20) 
Cc1cc(=O)[n-]c(C2CCN(C3CCN(Cc4ccc(Cl)c(NS(C)(=O)=O)c4)CC3)CC2)n1

>  <Energy>  (20) 
87.4963017397525

>  <Genealogy>  (20) 
Cc1cc(=O)[n-]c(C2CCN(C3CCN(Cc4ccc(Cl)c(NS(C)(=O)=O)c4)CC3)CC2)n1 (protonated)
Cc1cc(=O)[n-]c(C2CCN(C3CCN(Cc4ccc(Cl)c(NS(C)(=O)=O)c4)CC3)CC2)n1 (3D coordinates assigned)
Cc1cc(=O)[n-]c(C2CCN(C3CCN(Cc4ccc(Cl)c(NS(C)(=O)=O)c4)CC3)CC2)n1 (nonaromatic ring conformer: 87.4963017397525 kcal/mol)

>  <smiles>  (20) 
Cc1cc(=O)[nH]c(C2CCN(C3CCN(Cc4ccc(Cl)c(NS(C)(=O)=O)c4)CC3)CC2)n1

>  <score_type>  (20) 
oracle

>  <origin>  (20) 
adg

>  <m_score__min__energy>  (20) 
-11.08

>  <m_primary>  (20) 
energy

$$$$
20:0
     RDKit          3D

 50 52  0  0  0  0  0  0  0  0999 V2000
   59.8640   29.5580   44.8480 C   0  0  0  0  0  0  0  0  0  0  0  0
   58.3930   29.2330   44.9890 C   0  0  0  0  0  0  0  0  0  0  0  0
   57.9640   28.0910   45.7140 C   0  0  0  0  0  0  0  0  0  0  0  0
   58.9160   27.1150   46.3610 C   0  0  0  0  0  0  0  0  0  0  0  0
   59.4640   27.6570   47.6570 C   0  0  0  0  0  0  0  0  0  0  0  0
   60.2620   26.8540   48.4870 C   0  0  0  0  0  0  0  0  0  0  0  0
   60.7730   27.3640   49.6820 C   0  0  0  0  0  0  0  0  0  0  0  0
   60.4980   28.6810   50.0590 C   0  0  0  0  0  0  0  0  0  0  0  0
   59.7030   29.5010   49.2420 C   0  0  0  0  0  0  0  0  0  0  0  0
   59.4420   30.8670   49.6090 N   0  0  0  0  0  0  0  0  0  0  0  0
   60.7130   31.8660   48.9830 S   0  0  0  0  0  0  0  0  0  0  0  0
   61.3570   31.1750   47.4750 C   0  0  0  0  0  0  0  0  0  0  0  0
   60.1800   33.5590   48.7690 C   0  0  0  0  0  0  0  0  0  0  0  0
   59.3840   33.7210   47.5030 C   0  0  0  0  0  0  0  0  0  0  0  0
   59.8600   34.5350   46.4610 C   0  0  0  0  0  0  0  0  0  0  0  0
   59.1050   34.7030   45.2960 C   0  0  0  0  0  0  0  0  0  0  0  0
   57.8710   34.0620   45.1620 C   0  0  0  0  0  0  0  0  0  0  0  0
   57.3910   33.2500   46.1940 C   0  0  0  0  0  0  0  0  0  0  0  0
   58.1430   33.0780   47.3600 C   0  0  0  0  0  0  0  0  0  0  0  0
   59.1990   28.9850   48.0350 C   0  0  0  0  0  0  0  0  0  0  0  0
   56.6340   27.8300   45.8110 N   0  0  0  0  0  0  0  0  0  0  0  0
   55.7150   28.6040   45.2400 N   0  0  0  0  0  0  0  0  0  0  0  0
   56.0560   29.6910   44.5060 C   0  0  0  0  0  0  0  0  0  0  0  0
   55.1450   30.3880   43.9870 O   0  0  0  0  0  0  0  0  0  0  0  0
   57.4130   30.0210   44.3340 C   0  0  0  0  0  0  0  0  0  0  0  0
   57.7990   31.2150   43.4890 C   0  0  0  0  0  0  0  0  0  0  0  0
   60.3148   29.6576   45.8464 H   0  0  0  0  0  0  0  0  0  0  0  0
   60.3671   28.7493   44.2975 H   0  0  0  0  0  0  0  0  0  0  0  0
   59.9795   30.5033   44.2975 H   0  0  0  0  0  0  0  0  0  0  0  0
   58.3817   26.1751   46.5637 H   0  0  0  0  0  0  0  0  0  0  0  0
   59.7578   26.9454   45.6735 H   0  0  0  0  0  0  0  0  0  0  0  0
   60.4859   25.8175   48.1944 H   0  0  0  0  0  0  0  0  0  0  0  0
   61.3941   26.7269   50.3288 H   0  0  0  0  0  0  0  0  0  0  0  0
   60.9062   29.0774   51.0004 H   0  0  0  0  0  0  0  0  0  0  0  0
   58.5320   31.1770   49.2000 H   0  0  0  0  0  0  0  0  0  0  0  0
   59.3900   30.9750   50.6470 H   0  0  0  0  0  0  0  0  0  0  0  0
   62.0889   30.3896   47.7148 H   0  0  0  0  0  0  0  0  0  0  0  0
   60.5330   30.7417   46.8890 H   0  0  0  0  0  0  0  0  0  0  0  0
   61.8471   31.9664   46.8890 H   0  0  0  0  0  0  0  0  0  0  0  0
   59.5547   33.8497   49.6260 H   0  0  0  0  0  0  0  0  0  0  0  0
   61.0715   34.2002   48.7052 H   0  0  0  0  0  0  0  0  0  0  0  0
   60.8308   35.0422   46.5623 H   0  0  0  0  0  0  0  0  0  0  0  0
   59.4834   35.3410   44.4837 H   0  0  0  0  0  0  0  0  0  0  0  0
   57.2776   34.1960   44.2455 H   0  0  0  0  0  0  0  0  0  0  0  0
   56.4194   32.7453   46.0883 H   0  0  0  0  0  0  0  0  0  0  0  0
   57.7617   32.4369   48.1684 H   0  0  0  0  0  0  0  0  0  0  0  0
   58.5914   29.6267   47.3800 H   0  0  0  0  0  0  0  0  0  0  0  0
   58.0707   32.0556   44.1444 H   0  0  0  0  0  0  0  0  0  0  0  0
   58.6581   30.9525   42.8541 H   0  0  0  0  0  0  0  0  0  0  0  0
   56.9489   31.5051   42.8541 H   0  0  0  0  0  0  0  0  0  0  0  0
  1  2  1  0
  2  3  1  0
  3  4  1  0
  4  5  1  0
  5  6  2  0
  6  7  1  0
  7  8  2  0
  8  9  1  0
  9 10  1  0
 10 11  1  0
 11 12  1  6
 11 13  1  0
 13 14  1  0
 14 15  2  0
 15 16  1  0
 16 17  2  0
 17 18  1  0
 18 19  2  0
  9 20  2  0
  3 21  2  0
 21 22  1  0
 22 23  1  0
 23 24  2  0
 23 25  1  0
 25 26  1  0
 25  2  2  0
 20  5  1  0
 19 14  1  0
  1 27  1  0
  1 28  1  0
  1 29  1  0
  4 30  1  0
  4 31  1  0
  6 32  1  0
  7 33  1  0
  8 34  1  0
 10 35  1  0
 10 36  1  0
 12 37  1  0
 12 38  1  0
 12 39  1  0
 13 40  1  0
 13 41  1  0
 15 42  1  0
 16 43  1  0
 17 44  1  0
 18 45  1  0
 19 46  1  0
 20 47  1  0
 26 48  1  0
 26 49  1  0
 26 50  1  0
M  CHG  3  10   1  11   1  22  -1
M  END
>  <UniqueID>  (21) 
19

>  <SMILES>  (21) 
Cc1c(Cc2cccc([NH2+][S@@+](C)Cc3ccccc3)c2)n[n-]c(=O)c1C

>  <Energy>  (21) 
46.59698838771911

>  <Genealogy>  (21) 
Cc1c(Cc2cccc([NH2+][S+](C)Cc3ccccc3)c2)n[n-]c(=O)c1C (protonated)
Cc1c(Cc2cccc([NH2+][S@@+](C)Cc3ccccc3)c2)n[n-]c(=O)c1C (chirality)
Cc1c(Cc2cccc([NH2+][S@@+](C)Cc3ccccc3)c2)n[n-]c(=O)c1C (3D coordinates assigned)
Cc1c(Cc2cccc([NH2+][S@@+](C)Cc3ccccc3)c2)n[n-]c(=O)c1C (optimized conformer: 46.59698838771911 kcal/mol)

>  <smiles>  (21) 
Cc1c(Cc2cccc(N[S+](C)Cc3ccccc3)c2)n[nH]c(=O)c1C

>  <score_type>  (21) 
oracle

>  <origin>  (21) 
adg

>  <m_score__min__energy>  (21) 
-9.3100000000000005

>  <m_primary>  (21) 
energy

$$$$
21:0
     RDKit          3D

 56 60  0  0  0  0  0  0  0  0999 V2000
   58.3018   31.7067   42.4515 H   0  0  0  0  0  0  0  0  0  0  0  0
   57.2520   31.4330   42.6330 C   0  0  0  0  0  0  0  0  0  0  0  0
   56.4701   32.2064   42.6100 H   0  0  0  0  0  0  0  0  0  0  0  0
   56.9270   30.1630   42.8810 C   0  0  0  0  0  0  0  0  0  0  0  0
   57.7190   29.3999   42.9010 H   0  0  0  0  0  0  0  0  0  0  0  0
   55.5080   29.7520   43.1330 C   0  0  0  0  0  0  0  0  0  0  0  0
   54.8406   30.6038   42.9356 H   0  0  0  0  0  0  0  0  0  0  0  0
   55.2485   28.9157   42.4673 H   0  0  0  0  0  0  0  0  0  0  0  0
   55.3550   29.3280   44.5220 N   0  0  0  0  0  0  0  0  0  0  0  0
   56.3300   28.8790   45.2550 C   0  0  0  0  0  0  0  0  0  0  0  0
   57.3120   29.7130   45.6860 N   0  0  0  0  0  0  0  0  0  0  0  0
   57.3880   27.0840   46.3610 C   0  0  0  0  0  0  0  0  0  0  0  0
   57.4260   25.8150   46.6540 N   0  0  0  0  0  0  0  0  0  0  0  0
   59.3230   31.5030   46.8310 C   0  0  1  0  0  0  0  0  0  0  0  0
   58.4650   32.1260   47.9700 C   0  0  0  0  0  0  0  0  0  0  0  0
   58.8262   31.7584   48.9418 H   0  0  0  0  0  0  0  0  0  0  0  0
   57.4129   31.8365   47.8314 H   0  0  0  0  0  0  0  0  0  0  0  0
   58.5790   33.6660   47.9300 C   0  0  2  0  0  0  0  0  0  0  0  0
   57.9628   34.1006   48.7309 H   0  0  0  0  0  0  0  0  0  0  0  0
   58.0830   34.1840   46.5610 C   0  0  0  0  0  0  0  0  0  0  0  0
   58.1569   35.2812   46.5368 H   0  0  0  0  0  0  0  0  0  0  0  0
   57.0359   33.8804   46.4148 H   0  0  0  0  0  0  0  0  0  0  0  0
   58.9510   33.5860   45.4310 C   0  0  1  0  0  0  0  0  0  0  0  0
   58.5984   33.9613   44.4590 H   0  0  0  0  0  0  0  0  0  0  0  0
   60.4240   34.0020   45.6410 C   0  0  0  0  0  0  0  0  0  0  0  0
   60.5016   35.0991   45.6210 H   0  0  0  0  0  0  0  0  0  0  0  0
   61.0433   33.5758   44.8380 H   0  0  0  0  0  0  0  0  0  0  0  0
   60.9180   33.4760   47.0060 C   0  0  1  0  0  0  0  0  0  0  0  0
   61.9682   33.7683   47.1530 H   0  0  0  0  0  0  0  0  0  0  0  0
   60.0530   34.0780   48.1340 C   0  0  0  0  0  0  0  0  0  0  0  0
   60.1333   35.1748   48.1116 H   0  0  0  0  0  0  0  0  0  0  0  0
   60.4066   33.7035   49.1060 H   0  0  0  0  0  0  0  0  0  0  0  0
   60.8000   31.9360   47.0360 C   0  0  0  0  0  0  0  0  0  0  0  0
   61.1553   31.5640   48.0083 H   0  0  0  0  0  0  0  0  0  0  0  0
   61.4115   31.5151   46.2243 H   0  0  0  0  0  0  0  0  0  0  0  0
   58.8410   32.0460   45.4560 C   0  0  0  0  0  0  0  0  0  0  0  0
   57.7932   31.7526   45.2950 H   0  0  0  0  0  0  0  0  0  0  0  0
   59.4718   31.6250   44.6592 H   0  0  0  0  0  0  0  0  0  0  0  0
   58.3690   27.9310   46.7760 N   0  0  0  0  0  0  0  0  0  0  0  0
   58.3330   29.2450   46.4460 C   0  0  0  0  0  0  0  0  0  0  0  0
   59.2780   30.0330   46.8710 N   0  0  0  0  0  0  0  0  0  0  0  0
   57.4880   24.7180   45.7260 C   0  0  0  0  0  0  0  0  0  0  0  0
   56.5350   24.5510   44.7050 C   0  0  0  0  0  0  0  0  0  0  0  0
   55.6991   25.2601   44.6131 H   0  0  0  0  0  0  0  0  0  0  0  0
   56.6480   23.4860   43.8070 C   0  0  0  0  0  0  0  0  0  0  0  0
   55.8910   23.3499   43.0206 H   0  0  0  0  0  0  0  0  0  0  0  0
   57.7180   22.5940   43.9040 C   0  0  0  0  0  0  0  0  0  0  0  0
   57.7953   21.7509   43.2017 H   0  0  0  0  0  0  0  0  0  0  0  0
   58.6930   22.7710   44.8940 C   0  0  0  0  0  0  0  0  0  0  0  0
   59.8000   21.8710   44.9850 N   0  0  0  0  0  0  0  0  0  0  0  0
   59.6540   20.8640   45.2250 H   0  0  0  0  0  0  0  0  0  0  0  0
   60.7740   22.2030   44.8040 H   0  0  0  0  0  0  0  0  0  0  0  0
   58.5770   23.8410   45.7960 C   0  0  0  0  0  0  0  0  0  0  0  0
   59.3491   23.9915   46.5649 H   0  0  0  0  0  0  0  0  0  0  0  0
   56.3720   27.5610   45.5920 N   0  0  0  0  0  0  0  0  0  0  0  0
   55.6220   26.9140   45.2560 H   0  0  0  0  0  0  0  0  0  0  0  0
  1  2  1  0
  2  3  1  0
  2  4  2  0
  4  5  1  0
  4  6  1  0
  6  7  1  0
  6  8  1  0
  6  9  1  0
  9 10  2  3
 10 11  1  0
 11 12  1  0
 12 13  2  0
 14 13  1  6
 14 15  1  0
 15 16  1  0
 15 17  1  0
 15 18  1  0
 18 19  1  1
 18 20  1  0
 20 21  1  0
 20 22  1  0
 20 23  1  0
 23 24  1  6
 23 25  1  0
 25 26  1  0
 25 27  1  0
 25 28  1  0
 28 29  1  1
 28 30  1  0
 30 31  1  0
 30 32  1  0
 28 33  1  0
 33 34  1  0
 33 35  1  0
 23 36  1  0
 36 37  1  0
 36 38  1  0
 12 39  1  0
 39 40  1  0
 40 41  2  0
 41 42  1  0
 42 43  2  0
 43 44  1  0
 43 45  1  0
 45 46  1  0
 45 47  2  0
 47 48  1  0
 47 49  1  0
 49 50  1  0
 50 51  1  0
 50 52  1  0
 49 53  2  0
 53 54  1  0
 40 55  1  0
 55 56  1  0
 55 10  1  0
 33 14  1  0
 53 42  1  0
 36 14  1  0
 30 18  1  0
M  CHG  2  11  -1  39  -1
M  END
>  <UniqueID>  (22) 
20

>  <SMILES>  (22) 
C=CCN=c1[n-]/c(=N\C23CC4CC(CC(C4)C2)C3)[n-]/c(=N\c2cccc(N)c2)[nH]1

>  <Energy>  (22) 
60.36026459903235

>  <Genealogy>  (22) 
C=CCN=c1[n-]c(=NC23CC4CC(CC(C4)C2)C3)[n-]c(=Nc2cccc(N)c2)[nH]1 (protonated)
C=CCN=c1[n-]/c(=N\C23CC4CC(CC(C4)C2)C3)[n-]/c(=N\c2cccc(N)c2)[nH]1 (cis-trans isomerization)
C=CCN=c1[n-]/c(=N\C23CC4CC(CC(C4)C2)C3)[n-]/c(=N\c2cccc(N)c2)[nH]1 (3D coordinates assigned)
C=CCN=c1[n-]/c(=N\C23CC4CC(CC(C4)C2)C3)[n-]/c(=N\c2cccc(N)c2)[nH]1 (nonaromatic ring conformer: 60.36026459903235 kcal/mol)

>  <smiles>  (22) 
C=CCN=c1[nH]c(=Nc2cccc(N)c2)[nH]c(=NC23CC4CC(CC(C4)C2)C3)[nH]1

>  <score_type>  (22) 
oracle

>  <origin>  (22) 
adg

>  <m_score__min__energy>  (22) 
-13

>  <m_primary>  (22) 
energy

$$$$
22:0
     RDKit          3D

 49 52  0  0  0  0  0  0  0  0999 V2000
   55.9506   22.4768   48.1269 H   0  0  0  0  0  0  0  0  0  0  0  0
   56.6470   23.2710   48.4340 C   0  0  0  0  0  0  0  0  0  0  0  0
   57.0236   23.3031   49.4670 H   0  0  0  0  0  0  0  0  0  0  0  0
   57.0360   24.1980   47.5510 C   0  0  0  0  0  0  0  0  0  0  0  0
   56.6720   24.2940   46.2060 C   0  0  0  0  0  0  0  0  0  0  0  0
   55.8370   23.4770   45.5330 C   0  0  0  0  0  0  0  0  0  0  0  0
   56.2525   22.5365   45.1421 H   0  0  0  0  0  0  0  0  0  0  0  0
   54.4060   23.7480   45.2800 C   0  0  0  0  0  0  0  0  0  0  0  0
   53.4840   22.8300   44.9360 N   0  0  0  0  0  0  0  0  0  0  0  0
   52.3310   23.5340   44.9170 C   0  0  0  0  0  0  0  0  0  0  0  0
   51.2240   23.0130   44.6250 O   0  0  0  0  0  0  0  0  0  0  0  0
   52.4590   24.8380   45.2410 N   0  0  0  0  0  0  0  0  0  0  0  0
   53.7760   24.9530   45.4740 C   0  0  0  0  0  0  0  0  0  0  0  0
   54.3880   26.1390   45.8610 O   0  0  0  0  0  0  0  0  0  0  0  0
   57.3310   25.4160   45.7140 C   0  0  0  0  0  0  0  0  0  0  0  0
   57.2845   25.8066   44.6867 H   0  0  0  0  0  0  0  0  0  0  0  0
   58.0580   25.9470   46.7690 C   0  0  0  0  0  0  0  0  0  0  0  0
   58.9590   27.1250   46.7480 C   0  0  0  0  0  0  0  0  0  0  0  0
   59.3560   27.5710   47.8590 O   0  0  0  0  0  0  0  0  0  0  0  0
   59.3490   27.8200   45.5330 N   0  0  0  0  0  0  0  0  0  0  0  0
   59.8330   27.1010   44.9410 H   0  0  0  0  0  0  0  0  0  0  0  0
   58.1760   28.2600   44.7270 C   0  0  0  0  0  0  0  0  0  0  0  0
   58.0104   27.5300   43.9210 H   0  0  0  0  0  0  0  0  0  0  0  0
   57.3134   28.3225   45.4068 H   0  0  0  0  0  0  0  0  0  0  0  0
   58.3680   29.6430   44.1010 C   0  0  0  0  0  0  0  0  0  0  0  0
   59.1612   29.5949   43.3404 H   0  0  0  0  0  0  0  0  0  0  0  0
   57.4286   29.9668   43.6291 H   0  0  0  0  0  0  0  0  0  0  0  0
   58.7470   30.5980   45.1420 N   0  0  0  0  0  0  0  0  0  0  0  0
   57.9310   31.7590   45.4050 C   0  0  0  0  0  0  0  0  0  0  0  0
   56.6940   31.7190   45.1680 O   0  0  0  0  0  0  0  0  0  0  0  0
   58.5090   32.9970   45.9700 C   0  0  0  0  0  0  0  0  0  0  0  0
   58.6710   33.1430   47.3580 C   0  0  0  0  0  0  0  0  0  0  0  0
   58.3578   32.3340   48.0343 H   0  0  0  0  0  0  0  0  0  0  0  0
   59.2290   34.3130   47.8830 C   0  0  0  0  0  0  0  0  0  0  0  0
   59.3457   34.4259   48.9710 H   0  0  0  0  0  0  0  0  0  0  0  0
   59.6390   35.3400   47.0260 C   0  0  0  0  0  0  0  0  0  0  0  0
   60.0716   36.2625   47.4406 H   0  0  0  0  0  0  0  0  0  0  0  0
   59.4990   35.1940   45.6440 C   0  0  0  0  0  0  0  0  0  0  0  0
   59.8262   35.9996   44.9703 H   0  0  0  0  0  0  0  0  0  0  0  0
   58.9430   34.0240   45.1160 C   0  0  0  0  0  0  0  0  0  0  0  0
   58.8452   33.9078   44.0265 H   0  0  0  0  0  0  0  0  0  0  0  0
   59.8560   30.2610   46.0440 C   0  0  0  0  0  0  0  0  0  0  0  0
   60.6686   30.9872   45.8948 H   0  0  0  0  0  0  0  0  0  0  0  0
   59.4773   30.2949   47.0762 H   0  0  0  0  0  0  0  0  0  0  0  0
   60.4000   28.8460   45.7830 C   0  0  0  0  0  0  0  0  0  0  0  0
   61.0575   28.8870   44.9021 H   0  0  0  0  0  0  0  0  0  0  0  0
   60.9282   28.5386   46.6976 H   0  0  0  0  0  0  0  0  0  0  0  0
   57.8860   25.1920   47.8720 N   0  0  0  0  0  0  0  0  0  0  0  0
   58.3220   25.3580   48.8070 H   0  0  0  0  0  0  0  0  0  0  0  0
  1  2  1  0
  2  3  1  0
  2  4  2  0
  4  5  1  0
  5  6  2  0
  6  7  1  0
  6  8  1  0
  8  9  1  0
  9 10  1  0
 10 11  2  0
 10 12  1  0
 12 13  1  0
 13 14  1  0
  5 15  1  0
 15 16  1  0
 15 17  2  0
 17 18  1  0
 18 19  2  0
 18 20  1  0
 20 21  1  0
 20 22  1  0
 22 23  1  0
 22 24  1  0
 22 25  1  0
 25 26  1  0
 25 27  1  0
 25 28  1  0
 28 29  1  0
 29 30  2  0
 29 31  1  0
 31 32  2  0
 32 33  1  0
 32 34  1  0
 34 35  1  0
 34 36  2  0
 36 37  1  0
 36 38  1  0
 38 39  1  0
 38 40  2  0
 40 41  1  0
 28 42  1  0
 42 43  1  0
 42 44  1  0
 42 45  1  0
 45 46  1  0
 45 47  1  0
 17 48  1  0
 48 49  1  0
 48  4  1  0
 13  8  2  0
 45 20  1  0
 40 31  1  0
M  CHG  4   9  -1  12  -1  14  -1  20   1
M  END
>  <UniqueID>  (23) 
21

>  <SMILES>  (23) 
C=c1[nH]c(C(=O)[NH+]2CCN(C(=O)c3ccccc3)CC2)c/c1=C\c1[n-]c(=O)[n-]c1[O-]

>  <Energy>  (23) 
131.32904889723716

>  <Genealogy>  (23) 
C=c1[nH]c(C(=O)[NH+]2CCN(C(=O)c3ccccc3)CC2)cc1=Cc1[n-]c(=O)[n-]c1[O-] (protonated)
C=c1[nH]c(C(=O)[NH+]2CCN(C(=O)c3ccccc3)CC2)c/c1=C\c1[n-]c(=O)[n-]c1[O-] (cis-trans isomerization)
C=c1[nH]c(C(=O)[NH+]2CCN(C(=O)c3ccccc3)CC2)c/c1=C\c1[n-]c(=O)[n-]c1[O-] (3D coordinates assigned)
C=c1[nH]c(C(=O)[NH+]2CCN(C(=O)c3ccccc3)CC2)c/c1=C\c1[n-]c(=O)[n-]c1[O-] (nonaromatic ring conformer: 131.32904889723716 kcal/mol)

>  <smiles>  (23) 
C=c1[nH]c(C(=O)N2CCN(C(=O)c3ccccc3)CC2)cc1=Cc1[nH]c(=O)[nH]c1O

>  <score_type>  (23) 
oracle

>  <origin>  (23) 
adg

>  <m_score__min__energy>  (23) 
-16.940000000000001

>  <m_primary>  (23) 
energy

$$$$
23:0
     RDKit          3D

 46 48  0  0  0  0  0  0  0  0999 V2000
   53.8220   29.3740   54.6840 C   0  0  0  0  0  0  0  0  0  0  0  0
   54.4000   29.9210   53.6000 C   0  0  0  0  0  0  0  0  0  0  0  0
   53.7310   30.4300   52.4800 C   0  0  0  0  0  0  0  0  0  0  0  0
   52.3940   30.4680   52.2780 C   0  0  0  0  0  0  0  0  0  0  0  0
   51.7250   30.8330   51.0100 C   0  0  0  0  0  0  0  0  0  0  0  0
   51.6570   30.0660   49.9060 N   0  0  0  0  0  0  0  0  0  0  0  0
   51.0080   30.8500   49.0180 C   0  0  0  0  0  0  0  0  0  0  0  0
   50.7480   30.4730   47.8470 O   0  0  0  0  0  0  0  0  0  0  0  0
   50.6650   32.0710   49.4830 N   0  0  0  0  0  0  0  0  0  0  0  0
   51.1290   32.0440   50.7420 C   0  0  0  0  0  0  0  0  0  0  0  0
   51.0220   33.1110   51.6250 O   0  0  0  0  0  0  0  0  0  0  0  0
   54.7200   30.8580   51.6060 C   0  0  0  0  0  0  0  0  0  0  0  0
   55.9360   30.6000   52.2090 C   0  0  0  0  0  0  0  0  0  0  0  0
   57.2360   30.8640   51.5510 C   0  0  0  0  0  0  0  0  0  0  0  0
   57.7170   32.0270   51.5300 O   0  0  0  0  0  0  0  0  0  0  0  0
   57.9570   29.7630   50.9740 N   0  0  0  0  0  0  0  0  0  0  0  0
   59.1140   29.7920   50.3800 C   0  0  0  0  0  0  0  0  0  0  0  0
   60.2520   29.4330   51.0120 N   0  0  0  0  0  0  0  0  0  0  0  0
   61.3360   29.5320   50.1960 C   0  0  0  0  0  0  0  0  0  0  0  0
   61.0680   29.9710   48.9050 C   0  0  0  0  0  0  0  0  0  0  0  0
   59.4130   30.2450   48.7820 S   0  0  0  0  0  0  0  0  0  0  0  0
   55.7450   30.0470   53.4380 N   0  0  0  0  0  0  0  0  0  0  0  0
   56.7830   29.6590   54.4070 C   0  0  0  0  0  0  0  0  0  0  0  0
   57.4860   28.4040   53.9500 C   0  0  0  0  0  0  0  0  0  0  0  0
   56.8790   27.3420   53.9960 O   0  0  0  0  0  0  0  0  0  0  0  0
   58.8550   28.4490   53.4700 N   0  0  1  0  0  0  0  0  0  0  0  0
   59.6080   29.5410   54.1070 C   0  0  0  0  0  0  0  0  0  0  0  0
   59.5260   27.1310   53.5870 C   0  0  0  0  0  0  0  0  0  0  0  0
   60.5540   26.8280   52.4870 C   0  0  0  0  0  0  0  0  0  0  0  0
   54.4449   29.0036   55.5115 H   0  0  0  0  0  0  0  0  0  0  0  0
   52.7263   29.2969   54.7432 H   0  0  0  0  0  0  0  0  0  0  0  0
   51.7490   30.2050   53.1294 H   0  0  0  0  0  0  0  0  0  0  0  0
   54.5650   31.3167   50.6183 H   0  0  0  0  0  0  0  0  0  0  0  0
   62.3525   29.2823   50.5341 H   0  0  0  0  0  0  0  0  0  0  0  0
   61.8083   30.1142   48.1041 H   0  0  0  0  0  0  0  0  0  0  0  0
   57.5170   30.4732   54.4975 H   0  0  0  0  0  0  0  0  0  0  0  0
   56.3087   29.4680   55.3810 H   0  0  0  0  0  0  0  0  0  0  0  0
   58.8400   28.6700   52.4470 H   0  0  0  0  0  0  0  0  0  0  0  0
   59.5408   29.4435   55.2006 H   0  0  0  0  0  0  0  0  0  0  0  0
   60.6625   29.4881   53.7983 H   0  0  0  0  0  0  0  0  0  0  0  0
   59.1837   30.5078   53.7983 H   0  0  0  0  0  0  0  0  0  0  0  0
   60.0435   27.0961   54.5571 H   0  0  0  0  0  0  0  0  0  0  0  0
   58.7354   26.3727   53.4872 H   0  0  0  0  0  0  0  0  0  0  0  0
   61.5119   26.5456   52.9481 H   0  0  0  0  0  0  0  0  0  0  0  0
   60.1893   25.9992   51.8625 H   0  0  0  0  0  0  0  0  0  0  0  0
   60.6971   27.7222   51.8625 H   0  0  0  0  0  0  0  0  0  0  0  0
  1  2  2  0
  2  3  1  0
  3  4  2  3
  4  5  1  0
  5  6  1  0
  6  7  1  0
  7  8  2  0
  7  9  1  0
  9 10  1  0
 10 11  1  0
  3 12  1  0
 12 13  2  0
 13 14  1  0
 14 15  2  0
 14 16  1  0
 16 17  2  3
 17 18  1  0
 18 19  1  0
 19 20  2  0
 20 21  1  0
 13 22  1  0
 22 23  1  0
 23 24  1  0
 24 25  2  0
 24 26  1  0
 26 27  1  0
 26 28  1  0
 28 29  1  0
 22  2  1  0
 10  5  2  0
 21 17  1  0
  1 30  1  0
  1 31  1  0
  4 32  1  0
 12 33  1  0
 19 34  1  0
 20 35  1  0
 23 36  1  0
 23 37  1  0
 26 38  1  6
 27 39  1  0
 27 40  1  0
 27 41  1  0
 28 42  1  0
 28 43  1  0
 29 44  1  0
 29 45  1  0
 29 46  1  0
M  CHG  5   6  -1   9  -1  11  -1  18  -1  26   1
M  END
>  <UniqueID>  (24) 
22

>  <SMILES>  (24) 
C=c1c(=Cc2[n-]c(=O)[n-]c2[O-])cc(C(=O)N=c2[n-]ccs2)n1CC(=O)[N@@H+](C)CC

>  <Energy>  (24) 
147.58769360858437

>  <Genealogy>  (24) 
C=c1c(=Cc2[n-]c(=O)[n-]c2[O-])cc(C(=O)N=c2[n-]ccs2)n1CC(=O)[NH+](C)CC (protonated)
C=c1c(=Cc2[n-]c(=O)[n-]c2[O-])cc(C(=O)N=c2[n-]ccs2)n1CC(=O)[N@@H+](C)CC (chirality)
C=c1c(=Cc2[n-]c(=O)[n-]c2[O-])cc(C(=O)N=c2[n-]ccs2)n1CC(=O)[N@@H+](C)CC (3D coordinates assigned)
C=c1c(=Cc2[n-]c(=O)[n-]c2[O-])cc(C(=O)N=c2[n-]ccs2)n1CC(=O)[N@@H+](C)CC (optimized conformer: 147.58769360858437 kcal/mol)

>  <smiles>  (24) 
C=c1c(=Cc2[nH]c(=O)[nH]c2O)cc(C(=O)N=c2[nH]ccs2)n1CC(=O)N(C)CC

>  <score_type>  (24) 
oracle

>  <origin>  (24) 
adg

>  <m_score__min__energy>  (24) 
-15.09

>  <m_primary>  (24) 
energy

$$$$
24:0
     RDKit          3D

 66 70  0  0  0  0  0  0  0  0999 V2000
   60.3000   34.1210   49.7660 O   0  0  0  0  0  0  0  0  0  0  0  0
   60.7160   34.0350   48.5780 C   0  0  0  0  0  0  0  0  0  0  0  0
   62.1260   33.9130   48.3380 N   0  0  0  0  0  0  0  0  0  0  0  0
   62.7720   32.8110   47.6250 C   0  0  0  0  0  0  0  0  0  0  0  0
   61.9660   31.5430   47.7000 C   0  0  0  0  0  0  0  0  0  0  0  0
   61.9510   30.7860   48.8770 C   0  0  0  0  0  0  0  0  0  0  0  0
   61.1690   29.6360   48.9650 C   0  0  0  0  0  0  0  0  0  0  0  0
   60.3810   29.2250   47.8820 C   0  0  0  0  0  0  0  0  0  0  0  0
   59.6260   28.0050   47.9840 N   0  0  0  0  0  0  0  0  0  0  0  0
   58.1600   28.0550   47.8780 C   0  0  0  0  0  0  0  0  0  0  0  0
   57.6010   26.7650   47.2510 C   0  0  0  0  0  0  0  0  0  0  0  0
   58.5430   26.2720   46.1320 C   0  0  0  0  0  0  0  0  0  0  0  0
   57.9370   25.1050   45.3750 C   0  0  0  0  0  0  0  0  0  0  0  0
   58.6560   23.9030   45.2390 C   0  0  0  0  0  0  0  0  0  0  0  0
   58.1090   22.8250   44.5350 C   0  0  0  0  0  0  0  0  0  0  0  0
   56.8370   22.9330   43.9640 C   0  0  0  0  0  0  0  0  0  0  0  0
   56.2930   21.8600   43.2680 O   0  0  0  0  0  0  0  0  0  0  0  0
   56.1130   24.1200   44.0970 C   0  0  0  0  0  0  0  0  0  0  0  0
   56.6570   25.2020   44.7940 C   0  0  0  0  0  0  0  0  0  0  0  0
   59.9560   25.9250   46.6790 C   0  0  0  0  0  0  0  0  0  0  0  0
   60.3110   26.7070   47.9580 C   0  0  0  0  0  0  0  0  0  0  0  0
   60.3850   29.9840   46.6910 C   0  0  0  0  0  0  0  0  0  0  0  0
   59.4870   29.6770   45.6110 N   0  0  0  0  0  0  0  0  0  0  0  0
   58.1620   30.3080   45.5850 C   0  0  0  0  0  0  0  0  0  0  0  0
   57.3190   29.7380   44.4470 C   0  0  0  0  0  0  0  0  0  0  0  0
   57.5020   28.3400   44.3900 O   0  0  0  0  0  0  0  0  0  0  0  0
   58.7710   28.0510   43.8340 C   0  0  0  0  0  0  0  0  0  0  0  0
   59.9430   28.7840   44.5350 C   0  0  0  0  0  0  0  0  0  0  0  0
   61.1970   31.1240   46.6030 C   0  0  0  0  0  0  0  0  0  0  0  0
   59.7410   34.0450   47.4770 C   0  0  0  0  0  0  0  0  0  0  0  0
   58.5040   33.4050   47.6270 C   0  0  0  0  0  0  0  0  0  0  0  0
   57.5960   33.3790   46.5630 C   0  0  0  0  0  0  0  0  0  0  0  0
   57.9160   33.9990   45.3510 C   0  0  0  0  0  0  0  0  0  0  0  0
   57.0400   33.9600   44.3140 F   0  0  0  0  0  0  0  0  0  0  0  0
   59.1380   34.6640   45.2070 C   0  0  0  0  0  0  0  0  0  0  0  0
   60.0470   34.6920   46.2700 C   0  0  0  0  0  0  0  0  0  0  0  0
   62.8925   33.0934   46.5687 H   0  0  0  0  0  0  0  0  0  0  0  0
   63.7463   32.6233   48.0999 H   0  0  0  0  0  0  0  0  0  0  0  0
   62.5599   31.1005   49.7374 H   0  0  0  0  0  0  0  0  0  0  0  0
   61.1704   29.0456   49.8931 H   0  0  0  0  0  0  0  0  0  0  0  0
   57.7319   28.1795   48.8836 H   0  0  0  0  0  0  0  0  0  0  0  0
   57.8870   28.9022   47.2316 H   0  0  0  0  0  0  0  0  0  0  0  0
   57.5186   25.9890   48.0262 H   0  0  0  0  0  0  0  0  0  0  0  0
   56.6087   26.9714   46.8235 H   0  0  0  0  0  0  0  0  0  0  0  0
   58.6670   27.1012   45.4199 H   0  0  0  0  0  0  0  0  0  0  0  0
   59.6553   23.8104   45.6895 H   0  0  0  0  0  0  0  0  0  0  0  0
   58.6803   21.8909   44.4304 H   0  0  0  0  0  0  0  0  0  0  0  0
   55.1108   24.2034   43.6514 H   0  0  0  0  0  0  0  0  0  0  0  0
   56.0825   26.1352   44.8897 H   0  0  0  0  0  0  0  0  0  0  0  0
   59.9909   24.8489   46.9042 H   0  0  0  0  0  0  0  0  0  0  0  0
   60.6875   26.2048   45.9066 H   0  0  0  0  0  0  0  0  0  0  0  0
   60.0042   26.1199   48.8362 H   0  0  0  0  0  0  0  0  0  0  0  0
   61.3969   26.8817   47.9737 H   0  0  0  0  0  0  0  0  0  0  0  0
   57.6528   30.1197   46.5417 H   0  0  0  0  0  0  0  0  0  0  0  0
   58.2867   31.3895   45.4274 H   0  0  0  0  0  0  0  0  0  0  0  0
   56.2574   29.9632   44.6269 H   0  0  0  0  0  0  0  0  0  0  0  0
   57.6297   30.1908   43.4939 H   0  0  0  0  0  0  0  0  0  0  0  0
   58.9444   26.9674   43.9104 H   0  0  0  0  0  0  0  0  0  0  0  0
   58.7514   28.4019   42.7917 H   0  0  0  0  0  0  0  0  0  0  0  0
   60.6223   28.0328   44.9643 H   0  0  0  0  0  0  0  0  0  0  0  0
   60.4492   29.4029   43.7796 H   0  0  0  0  0  0  0  0  0  0  0  0
   61.2317   31.6961   45.6641 H   0  0  0  0  0  0  0  0  0  0  0  0
   58.2465   32.9228   48.5816 H   0  0  0  0  0  0  0  0  0  0  0  0
   56.6281   32.8697   46.6800 H   0  0  0  0  0  0  0  0  0  0  0  0
   59.3841   35.1645   44.2589 H   0  0  0  0  0  0  0  0  0  0  0  0
   61.0042   35.2226   46.1594 H   0  0  0  0  0  0  0  0  0  0  0  0
  1  2  2  0
  2  3  1  0
  3  4  1  0
  4  5  1  0
  5  6  2  0
  6  7  1  0
  7  8  2  0
  8  9  1  0
  9 10  1  0
 10 11  1  0
 11 12  1  0
 12 13  1  0
 13 14  2  0
 14 15  1  0
 15 16  2  0
 16 17  1  0
 16 18  1  0
 18 19  2  0
 12 20  1  0
 20 21  1  0
  8 22  1  0
 22 23  1  0
 23 24  1  0
 24 25  1  0
 25 26  1  0
 26 27  1  0
 27 28  1  0
 22 29  2  0
  2 30  1  0
 30 31  2  0
 31 32  1  0
 32 33  2  0
 33 34  1  0
 33 35  1  0
 35 36  2  0
 29  5  1  0
 36 30  1  0
 21  9  1  0
 28 23  1  0
 19 13  1  0
  4 37  1  0
  4 38  1  0
  6 39  1  0
  7 40  1  0
 10 41  1  0
 10 42  1  0
 11 43  1  0
 11 44  1  0
 12 45  1  0
 14 46  1  0
 15 47  1  0
 18 48  1  0
 19 49  1  0
 20 50  1  0
 20 51  1  0
 21 52  1  0
 21 53  1  0
 24 54  1  0
 24 55  1  0
 25 56  1  0
 25 57  1  0
 27 58  1  0
 27 59  1  0
 28 60  1  0
 28 61  1  0
 29 62  1  0
 31 63  1  0
 32 64  1  0
 35 65  1  0
 36 66  1  0
M  CHG  2   3  -1  17  -1
M  END
>  <UniqueID>  (25) 
23

>  <SMILES>  (25) 
O=C([N-]Cc1ccc(N2CCC(c3ccc([O-])cc3)CC2)c(N2CCOCC2)c1)c1ccc(F)cc1

>  <Energy>  (25) 
91.84317617411939

>  <Genealogy>  (25) 
O=C([N-]Cc1ccc(N2CCC(c3ccc([O-])cc3)CC2)c(N2CCOCC2)c1)c1ccc(F)cc1 (protonated)
O=C([N-]Cc1ccc(N2CCC(c3ccc([O-])cc3)CC2)c(N2CCOCC2)c1)c1ccc(F)cc1 (3D coordinates assigned)
O=C([N-]Cc1ccc(N2CCC(c3ccc([O-])cc3)CC2)c(N2CCOCC2)c1)c1ccc(F)cc1 (nonaromatic ring conformer: 91.84317617411939 kcal/mol)

>  <smiles>  (25) 
O=C(NCc1ccc(N2CCC(c3ccc(O)cc3)CC2)c(N2CCOCC2)c1)c1ccc(F)cc1

>  <score_type>  (25) 
oracle

>  <origin>  (25) 
adg

>  <m_score__min__energy>  (25) 
-11.75

>  <m_primary>  (25) 
energy

$$$$
25:0
     RDKit          3D

 41 43  0  0  0  0  0  0  0  0999 V2000
   58.9660   25.7780   47.4940 H   0  0  0  0  0  0  0  0  0  0  0  0
   58.0470   25.8420   47.0730 O   0  0  0  0  0  0  0  0  0  0  0  0
   57.6020   26.9970   46.4280 C   0  0  0  0  0  0  0  0  0  0  0  0
   58.4430   28.1200   46.2870 C   0  0  0  0  0  0  0  0  0  0  0  0
   59.8260   28.1490   46.8070 C   0  0  0  0  0  0  0  0  0  0  0  0
   60.4080   27.0870   47.1600 O   0  0  0  0  0  0  0  0  0  0  0  0
   60.4890   29.3790   46.9020 O   0  0  0  0  0  0  0  0  0  0  0  0
   60.2940   30.2940   47.9780 C   0  0  0  0  0  0  0  0  0  0  0  0
   59.2519   30.6461   47.9699 H   0  0  0  0  0  0  0  0  0  0  0  0
   60.5127   29.7811   48.9262 H   0  0  0  0  0  0  0  0  0  0  0  0
   61.2160   31.4730   47.8380 C   0  0  0  0  0  0  0  0  0  0  0  0
   62.5000   31.3180   47.2880 C   0  0  0  0  0  0  0  0  0  0  0  0
   62.8323   30.3283   46.9414 H   0  0  0  0  0  0  0  0  0  0  0  0
   63.3570   32.4190   47.1800 C   0  0  0  0  0  0  0  0  0  0  0  0
   64.3600   32.2935   46.7462 H   0  0  0  0  0  0  0  0  0  0  0  0
   62.9410   33.6770   47.6220 C   0  0  0  0  0  0  0  0  0  0  0  0
   63.6161   34.5412   47.5357 H   0  0  0  0  0  0  0  0  0  0  0  0
   61.6670   33.8380   48.1740 C   0  0  0  0  0  0  0  0  0  0  0  0
   61.3403   34.8289   48.5222 H   0  0  0  0  0  0  0  0  0  0  0  0
   60.8070   32.7400   48.2840 C   0  0  0  0  0  0  0  0  0  0  0  0
   59.8062   32.8698   48.7217 H   0  0  0  0  0  0  0  0  0  0  0  0
   57.9710   29.2270   45.6540 N   0  0  0  0  0  0  0  0  0  0  0  0
   56.7110   29.2820   45.1520 C   0  0  0  0  0  0  0  0  0  0  0  0
   56.3080   30.3660   44.5580 N   0  0  0  0  0  0  0  0  0  0  0  0
   57.1620   31.2530   43.7680 C   0  0  0  0  0  0  0  0  0  0  0  0
   57.9911   30.6703   43.3401 H   0  0  0  0  0  0  0  0  0  0  0  0
   56.5599   31.7032   42.9650 H   0  0  0  0  0  0  0  0  0  0  0  0
   57.7230   32.3530   44.6300 C   0  0  0  0  0  0  0  0  0  0  0  0
   57.4200   32.3940   46.0010 C   0  0  0  0  0  0  0  0  0  0  0  0
   56.7865   31.6125   46.4460 H   0  0  0  0  0  0  0  0  0  0  0  0
   57.9210   33.4250   46.8020 C   0  0  0  0  0  0  0  0  0  0  0  0
   57.6840   33.4504   47.8759 H   0  0  0  0  0  0  0  0  0  0  0  0
   58.7220   34.4230   46.2410 C   0  0  0  0  0  0  0  0  0  0  0  0
   59.2060   35.4230   47.0190 F   0  0  0  0  0  0  0  0  0  0  0  0
   59.0240   34.3910   44.8760 C   0  0  0  0  0  0  0  0  0  0  0  0
   59.6541   35.1770   44.4342 H   0  0  0  0  0  0  0  0  0  0  0  0
   58.5260   33.3610   44.0720 C   0  0  0  0  0  0  0  0  0  0  0  0
   58.7641   33.3402   42.9983 H   0  0  0  0  0  0  0  0  0  0  0  0
   55.8900   28.2050   45.2780 N   0  0  0  0  0  0  0  0  0  0  0  0
   56.3040   27.0730   45.9010 C   0  0  0  0  0  0  0  0  0  0  0  0
   55.5140   26.0980   46.0000 O   0  0  0  0  0  0  0  0  0  0  0  0
  1  2  1  0
  2  3  1  0
  3  4  2  0
  4  5  1  0
  5  6  2  0
  5  7  1  0
  7  8  1  0
  8  9  1  0
  8 10  1  0
  8 11  1  0
 11 12  2  0
 12 13  1  0
 12 14  1  0
 14 15  1  0
 14 16  2  0
 16 17  1  0
 16 18  1  0
 18 19  1  0
 18 20  2  0
 20 21  1  0
  4 22  1  0
 22 23  1  0
 23 24  2  0
 24 25  1  0
 25 26  1  0
 25 27  1  0
 25 28  1  0
 28 29  2  0
 29 30  1  0
 29 31  1  0
 31 32  1  0
 31 33  2  0
 33 34  1  0
 33 35  1  0
 35 36  1  0
 35 37  2  0
 37 38  1  0
 23 39  1  0
 39 40  1  0
 40 41  2  0
 40  3  1  0
 20 11  1  0
 37 28  1  0
M  CHG  2  22  -1  39  -1
M  END
>  <UniqueID>  (26) 
24

>  <SMILES>  (26) 
O=C(OCc1ccccc1)c1[n-]/c(=N/Cc2ccc(F)cc2)[n-]c(=O)c1O

>  <Energy>  (26) 
43.43518639905574

>  <Genealogy>  (26) 
O=C(OCc1ccccc1)c1[n-]c(=NCc2ccc(F)cc2)[n-]c(=O)c1O (protonated)
O=C(OCc1ccccc1)c1[n-]/c(=N/Cc2ccc(F)cc2)[n-]c(=O)c1O (cis-trans isomerization)
O=C(OCc1ccccc1)c1[n-]/c(=N/Cc2ccc(F)cc2)[n-]c(=O)c1O (3D coordinates assigned)
O=C(OCc1ccccc1)c1[n-]/c(=N/Cc2ccc(F)cc2)[n-]c(=O)c1O (optimized conformer: 43.43518639905574 kcal/mol)

>  <smiles>  (26) 
O=C(OCc1ccccc1)c1[nH]c(=NCc2ccc(F)cc2)[nH]c(=O)c1O

>  <score_type>  (26) 
oracle

>  <origin>  (26) 
adg

>  <m_score__min__energy>  (26) 
-11.56

>  <m_primary>  (26) 
energy

$$$$
26:0
     RDKit          3D

 30 32  0  0  0  0  0  0  0  0999 V2000
   54.7830   26.3380   45.9980 O   0  0  0  0  0  0  0  0  0  0  0  0
   55.9270   25.9120   46.3080 C   0  0  0  0  0  0  0  0  0  0  0  0
   56.0920   24.5090   46.5570 N   0  0  0  0  0  0  0  0  0  0  0  0
   56.8310   23.5840   45.7450 C   0  0  0  0  0  0  0  0  0  0  0  0
   58.2270   23.6870   45.7030 C   0  0  0  0  0  0  0  0  0  0  0  0
   58.9780   22.8060   44.9180 C   0  0  0  0  0  0  0  0  0  0  0  0
   58.3360   21.8250   44.1580 C   0  0  0  0  0  0  0  0  0  0  0  0
   56.9370   21.7290   44.1720 C   0  0  0  0  0  0  0  0  0  0  0  0
   56.2850   20.7650   43.4070 O   0  0  0  0  0  0  0  0  0  0  0  0
   56.1870   22.6110   44.9580 C   0  0  0  0  0  0  0  0  0  0  0  0
   57.0610   26.8640   46.3690 C   0  0  0  0  0  0  0  0  0  0  0  0
   58.2440   26.5000   47.0340 C   0  0  0  0  0  0  0  0  0  0  0  0
   59.3010   27.3520   47.0720 N   0  0  0  0  0  0  0  0  0  0  0  0
   59.2210   28.5680   46.4790 C   0  0  0  0  0  0  0  0  0  0  0  0
   58.0860   28.9710   45.8750 N   0  0  0  0  0  0  0  0  0  0  0  0
   56.9980   28.1520   45.7980 C   0  0  0  0  0  0  0  0  0  0  0  0
   55.9410   28.5580   45.2420 O   0  0  0  0  0  0  0  0  0  0  0  0
   58.1470   30.3180   45.3310 C   0  0  0  0  0  0  0  0  0  0  0  0
   59.3720   31.0060   45.9470 C   0  0  0  0  0  0  0  0  0  0  0  0
   60.5630   29.7270   46.4860 S   0  0  0  0  0  0  0  0  0  0  0  0
   58.7358   24.4652   46.2907 H   0  0  0  0  0  0  0  0  0  0  0  0
   60.0750   22.8855   44.8990 H   0  0  0  0  0  0  0  0  0  0  0  0
   58.9285   21.1272   43.5480 H   0  0  0  0  0  0  0  0  0  0  0  0
   56.6620   19.8300   43.2980 H   0  0  0  0  0  0  0  0  0  0  0  0
   55.0891   22.5435   44.9608 H   0  0  0  0  0  0  0  0  0  0  0  0
   58.3145   25.5191   47.5268 H   0  0  0  0  0  0  0  0  0  0  0  0
   58.2493   30.2773   44.2365 H   0  0  0  0  0  0  0  0  0  0  0  0
   57.2284   30.8748   45.5681 H   0  0  0  0  0  0  0  0  0  0  0  0
   59.8447   31.6581   45.1978 H   0  0  0  0  0  0  0  0  0  0  0  0
   59.0627   31.6139   46.8100 H   0  0  0  0  0  0  0  0  0  0  0  0
  1  2  2  0
  2  3  1  0
  3  4  1  0
  4  5  2  0
  5  6  1  0
  6  7  2  0
  7  8  1  0
  8  9  1  0
  8 10  2  0
  2 11  1  0
 11 12  2  0
 12 13  1  0
 13 14  2  0
 14 15  1  0
 15 16  1  0
 16 17  2  0
 15 18  1  0
 18 19  1  0
 19 20  1  0
 10  4  1  0
 16 11  1  0
 20 14  1  0
  5 21  1  0
  6 22  1  0
  7 23  1  0
  9 24  1  0
 10 25  1  0
 12 26  1  0
 18 27  1  0
 18 28  1  0
 19 29  1  0
 19 30  1  0
M  CHG  1   3  -1
M  END
>  <UniqueID>  (27) 
25

>  <SMILES>  (27) 
O=C([N-]c1cccc(O)c1)c1cnc2n(c1=O)CCS2

>  <Energy>  (27) 
48.90915998375129

>  <Genealogy>  (27) 
O=C([N-]c1cccc(O)c1)c1cnc2n(c1=O)CCS2 (protonated)
O=C([N-]c1cccc(O)c1)c1cnc2n(c1=O)CCS2 (3D coordinates assigned)
O=C([N-]c1cccc(O)c1)c1cnc2n(c1=O)CCS2 (nonaromatic ring conformer: 48.90915998375129 kcal/mol)

>  <smiles>  (27) 
O=C(Nc1cccc(O)c1)c1cnc2n(c1=O)CCS2

>  <score_type>  (27) 
oracle

>  <origin>  (27) 
adg

>  <m_score__min__energy>  (27) 
-8.8100000000000005

>  <m_primary>  (27) 
energy

$$$$
27:0
     RDKit          3D

 59 62  0  0  0  0  0  0  0  0999 V2000
   59.6728   34.3353   43.8735 H   0  0  0  0  0  0  0  0  0  0  0  0
   58.9660   33.7510   44.4810 C   0  0  0  0  0  0  0  0  0  0  0  0
   58.0190   32.9420   43.9300 N   0  0  0  0  0  0  0  0  0  0  0  0
   57.2650   32.3320   44.8710 C   0  0  0  0  0  0  0  0  0  0  0  0
   56.3020   31.5130   44.5570 N   0  0  0  0  0  0  0  0  0  0  0  0
   56.4150   30.1150   44.2490 C   0  0  0  0  0  0  0  0  0  0  0  0
   56.2410   29.7400   43.0610 O   0  0  0  0  0  0  0  0  0  0  0  0
   56.6070   29.1490   45.2860 N   0  0  0  0  0  0  0  0  0  0  0  0
   57.8510   28.5840   45.7160 C   0  0  0  0  0  0  0  0  0  0  0  0
   58.9590   29.4060   46.0000 C   0  0  0  0  0  0  0  0  0  0  0  0
   58.9091   30.4841   45.7872 H   0  0  0  0  0  0  0  0  0  0  0  0
   60.1200   28.8600   46.5500 C   0  0  0  0  0  0  0  0  0  0  0  0
   60.9884   29.5048   46.7504 H   0  0  0  0  0  0  0  0  0  0  0  0
   60.1810   27.4980   46.8460 C   0  0  0  0  0  0  0  0  0  0  0  0
   61.0937   27.0723   47.2885 H   0  0  0  0  0  0  0  0  0  0  0  0
   59.0840   26.6740   46.5810 C   0  0  0  0  0  0  0  0  0  0  0  0
   59.1339   25.6025   46.8246 H   0  0  0  0  0  0  0  0  0  0  0  0
   57.9210   27.2040   46.0070 C   0  0  0  0  0  0  0  0  0  0  0  0
   56.8420   26.3460   45.7590 O   0  0  0  0  0  0  0  0  0  0  0  0
   56.4460   25.3170   46.6680 C   0  0  0  0  0  0  0  0  0  0  0  0
   57.1377   25.3048   47.5232 H   0  0  0  0  0  0  0  0  0  0  0  0
   55.4206   25.5220   47.0095 H   0  0  0  0  0  0  0  0  0  0  0  0
   56.4720   23.9430   45.9780 C   0  0  0  0  0  0  0  0  0  0  0  0
   56.9404   23.2279   46.6703 H   0  0  0  0  0  0  0  0  0  0  0  0
   55.4240   23.7144   45.7344 H   0  0  0  0  0  0  0  0  0  0  0  0
   57.2070   23.8740   44.6870 N   0  0  0  0  0  0  0  0  0  0  0  0
   57.8120   24.7310   44.7070 H   0  0  0  0  0  0  0  0  0  0  0  0
   56.3410   24.0360   43.4860 C   0  0  0  0  0  0  0  0  0  0  0  0
   55.3508   24.3853   43.8140 H   0  0  0  0  0  0  0  0  0  0  0  0
   56.8365   24.7595   42.8220 H   0  0  0  0  0  0  0  0  0  0  0  0
   56.1600   22.7370   42.6890 C   0  0  0  0  0  0  0  0  0  0  0  0
   55.1794   22.7512   42.1908 H   0  0  0  0  0  0  0  0  0  0  0  0
   56.9632   22.6627   41.9411 H   0  0  0  0  0  0  0  0  0  0  0  0
   56.2290   21.6230   43.5440 O   0  0  0  0  0  0  0  0  0  0  0  0
   57.5580   21.4530   43.9840 C   0  0  0  0  0  0  0  0  0  0  0  0
   57.5767   20.6561   44.7420 H   0  0  0  0  0  0  0  0  0  0  0  0
   58.1652   21.1976   43.1031 H   0  0  0  0  0  0  0  0  0  0  0  0
   58.1610   22.7370   44.6040 C   0  0  0  0  0  0  0  0  0  0  0  0
   58.5066   22.5006   45.6212 H   0  0  0  0  0  0  0  0  0  0  0  0
   58.9795   23.0560   43.9419 H   0  0  0  0  0  0  0  0  0  0  0  0
   57.7600   32.7560   46.4320 S   0  0  0  0  0  0  0  0  0  0  0  0
   58.9700   33.7810   45.8740 C   0  0  0  0  0  0  0  0  0  0  0  0
   59.9040   34.5690   46.7400 C   0  0  0  0  0  0  0  0  0  0  0  0
   59.3662   34.8989   47.6411 H   0  0  0  0  0  0  0  0  0  0  0  0
   60.2652   35.4352   46.1662 H   0  0  0  0  0  0  0  0  0  0  0  0
   61.0970   33.7360   47.1540 C   0  0  0  0  0  0  0  0  0  0  0  0
   62.2820   33.8340   46.4010 C   0  0  0  0  0  0  0  0  0  0  0  0
   62.3201   34.5065   45.5314 H   0  0  0  0  0  0  0  0  0  0  0  0
   63.4090   33.0870   46.7460 C   0  0  0  0  0  0  0  0  0  0  0  0
   64.3274   33.1700   46.1463 H   0  0  0  0  0  0  0  0  0  0  0  0
   63.3730   32.2360   47.8490 C   0  0  0  0  0  0  0  0  0  0  0  0
   64.2604   31.6426   48.1145 H   0  0  0  0  0  0  0  0  0  0  0  0
   62.2120   32.1360   48.6170 C   0  0  0  0  0  0  0  0  0  0  0  0
   62.1920   31.4641   49.4877 H   0  0  0  0  0  0  0  0  0  0  0  0
   61.0670   32.8850   48.2900 C   0  0  0  0  0  0  0  0  0  0  0  0
   59.8310   32.7380   49.1380 C   0  0  0  0  0  0  0  0  0  0  0  0
   60.1099   32.7712   50.2015 H   0  0  0  0  0  0  0  0  0  0  0  0
   59.1341   33.5596   48.9159 H   0  0  0  0  0  0  0  0  0  0  0  0
   59.3462   31.7759   48.9159 H   0  0  0  0  0  0  0  0  0  0  0  0
  1  2  1  0
  2  3  1  0
  3  4  1  0
  4  5  2  0
  5  6  1  0
  6  7  2  0
  6  8  1  0
  8  9  1  0
  9 10  2  0
 10 11  1  0
 10 12  1  0
 12 13  1  0
 12 14  2  0
 14 15  1  0
 14 16  1  0
 16 17  1  0
 16 18  2  0
 18 19  1  0
 19 20  1  0
 20 21  1  0
 20 22  1  0
 20 23  1  0
 23 24  1  0
 23 25  1  0
 23 26  1  0
 26 27  1  0
 26 28  1  0
 28 29  1  0
 28 30  1  0
 28 31  1  0
 31 32  1  0
 31 33  1  0
 31 34  1  0
 34 35  1  0
 35 36  1  0
 35 37  1  0
 35 38  1  0
 38 39  1  0
 38 40  1  0
  4 41  1  0
 41 42  1  0
 42 43  1  0
 43 44  1  0
 43 45  1  0
 43 46  1  0
 46 47  2  0
 47 48  1  0
 47 49  1  0
 49 50  1  0
 49 51  2  0
 51 52  1  0
 51 53  1  0
 53 54  1  0
 53 55  2  0
 55 56  1  0
 56 57  1  0
 56 58  1  0
 56 59  1  0
 42  2  2  0
 55 46  1  0
 18  9  1  0
 38 26  1  0
M  CHG  3   3  -1   8  -1  26   1
M  END
>  <UniqueID>  (28) 
26

>  <SMILES>  (28) 
Cc1ccccc1Cc1c[n-]/c(=N/C(=O)[N-]c2ccccc2OCC[NH+]2CCOCC2)s1

>  <Energy>  (28) 
119.18828364083231

>  <Genealogy>  (28) 
Cc1ccccc1Cc1c[n-]c(=NC(=O)[N-]c2ccccc2OCC[NH+]2CCOCC2)s1 (protonated)
Cc1ccccc1Cc1c[n-]/c(=N/C(=O)[N-]c2ccccc2OCC[NH+]2CCOCC2)s1 (cis-trans isomerization)
Cc1ccccc1Cc1c[n-]/c(=N/C(=O)[N-]c2ccccc2OCC[NH+]2CCOCC2)s1 (3D coordinates assigned)
Cc1ccccc1Cc1c[n-]/c(=N/C(=O)[N-]c2ccccc2OCC[NH+]2CCOCC2)s1 (nonaromatic ring conformer: 119.18828364083231 kcal/mol)

>  <smiles>  (28) 
Cc1ccccc1Cc1c[nH]c(=NC(=O)Nc2ccccc2OCCN2CCOCC2)s1

>  <score_type>  (28) 
oracle

>  <origin>  (28) 
adg

>  <m_score__min__energy>  (28) 
-10.529999999999999

>  <m_primary>  (28) 
energy

$$$$
28:0
     RDKit          3D

 52 54  0  0  0  0  0  0  0  0999 V2000
   58.7040   32.1860   49.3660 C   0  0  0  0  0  0  0  0  0  0  0  0
   59.1270   33.3220   48.6190 O   0  0  0  0  0  0  0  0  0  0  0  0
   58.7220   33.6100   47.3050 C   0  0  0  0  0  0  0  0  0  0  0  0
   57.3840   33.4540   46.8890 C   0  0  0  0  0  0  0  0  0  0  0  0
   57.0170   33.7390   45.5710 C   0  0  0  0  0  0  0  0  0  0  0  0
   57.9740   34.1780   44.6560 C   0  0  0  0  0  0  0  0  0  0  0  0
   59.3020   34.3360   45.0540 C   0  0  0  0  0  0  0  0  0  0  0  0
   59.6850   34.0630   46.3780 C   0  0  0  0  0  0  0  0  0  0  0  0
   61.1280   34.2150   46.7930 C   0  0  0  0  0  0  0  0  0  0  0  0
   61.4920   33.1890   47.7690 N   0  0  0  0  0  0  0  0  0  0  0  0
   62.8260   32.6680   47.8480 C   0  0  0  0  0  0  0  0  0  0  0  0
   63.6700   32.9560   46.9560 O   0  0  0  0  0  0  0  0  0  0  0  0
   63.2300   31.8210   48.9800 C   0  0  0  0  0  0  0  0  0  0  0  0
   64.4470   31.7400   49.3000 O   0  0  0  0  0  0  0  0  0  0  0  0
   62.2380   31.1060   49.7250 N   0  0  0  0  0  0  0  0  0  0  0  0
   61.4860   29.9870   49.2340 C   0  0  0  0  0  0  0  0  0  0  0  0
   61.1340   28.9650   50.1190 C   0  0  0  0  0  0  0  0  0  0  0  0
   60.3820   27.8790   49.6720 C   0  0  0  0  0  0  0  0  0  0  0  0
   59.9670   27.8010   48.3380 C   0  0  0  0  0  0  0  0  0  0  0  0
   58.9900   26.4140   47.8660 Cl  0  0  0  0  0  0  0  0  0  0  0  0
   60.3060   28.8290   47.4280 C   0  0  0  0  0  0  0  0  0  0  0  0
   59.7590   28.7450   45.7320 S   0  0  0  0  0  0  0  0  0  0  0  0
   60.8170   29.3630   44.8630 O   0  0  0  0  0  0  0  0  0  0  0  0
   59.6200   27.2950   45.3600 O   0  0  0  0  0  0  0  0  0  0  0  0
   58.2500   29.5550   45.3730 N   0  0  0  0  0  0  0  0  0  0  0  0
   58.4470   30.7620   44.5420 C   0  0  0  0  0  0  0  0  0  0  0  0
   57.2120   31.0680   43.6890 C   0  0  0  0  0  0  0  0  0  0  0  0
   56.0470   30.7580   44.4220 O   0  0  0  0  0  0  0  0  0  0  0  0
   55.9070   29.3530   44.5450 C   0  0  0  0  0  0  0  0  0  0  0  0
   57.2270   28.6180   44.8740 C   0  0  0  0  0  0  0  0  0  0  0  0
   61.0440   29.9290   47.9030 C   0  0  0  0  0  0  0  0  0  0  0  0
   58.7849   32.4034   50.4413 H   0  0  0  0  0  0  0  0  0  0  0  0
   57.6585   31.9519   49.1169 H   0  0  0  0  0  0  0  0  0  0  0  0
   59.3418   31.3251   49.1169 H   0  0  0  0  0  0  0  0  0  0  0  0
   56.6252   33.1062   47.6054 H   0  0  0  0  0  0  0  0  0  0  0  0
   55.9707   33.6168   45.2543 H   0  0  0  0  0  0  0  0  0  0  0  0
   57.6813   34.4000   43.6191 H   0  0  0  0  0  0  0  0  0  0  0  0
   60.0538   34.6764   44.3267 H   0  0  0  0  0  0  0  0  0  0  0  0
   61.7718   34.1158   45.9066 H   0  0  0  0  0  0  0  0  0  0  0  0
   61.2633   35.2056   47.2516 H   0  0  0  0  0  0  0  0  0  0  0  0
   60.7790   32.8610   48.4620 H   0  0  0  0  0  0  0  0  0  0  0  0
   61.4508   29.0170   51.1711 H   0  0  0  0  0  0  0  0  0  0  0  0
   60.1127   27.0765   50.3744 H   0  0  0  0  0  0  0  0  0  0  0  0
   58.6472   31.6199   45.2007 H   0  0  0  0  0  0  0  0  0  0  0  0
   59.2951   30.5791   43.8658 H   0  0  0  0  0  0  0  0  0  0  0  0
   57.2050   32.1354   43.4231 H   0  0  0  0  0  0  0  0  0  0  0  0
   57.2404   30.4623   42.7712 H   0  0  0  0  0  0  0  0  0  0  0  0
   55.1856   29.1460   45.3492 H   0  0  0  0  0  0  0  0  0  0  0  0
   55.5686   28.9792   43.5674 H   0  0  0  0  0  0  0  0  0  0  0  0
   57.0315   27.8571   45.6440 H   0  0  0  0  0  0  0  0  0  0  0  0
   57.6037   28.1501   43.9525 H   0  0  0  0  0  0  0  0  0  0  0  0
   61.2786   30.7580   47.2192 H   0  0  0  0  0  0  0  0  0  0  0  0
  1  2  1  0
  2  3  1  0
  3  4  2  0
  4  5  1  0
  5  6  2  0
  6  7  1  0
  7  8  2  0
  8  9  1  0
  9 10  1  0
 10 11  1  0
 11 12  2  0
 11 13  1  0
 13 14  2  0
 13 15  1  0
 15 16  1  0
 16 17  2  0
 17 18  1  0
 18 19  2  0
 19 20  1  0
 19 21  1  0
 21 22  1  0
 22 23  2  0
 22 24  2  0
 22 25  1  0
 25 26  1  0
 26 27  1  0
 27 28  1  0
 28 29  1  0
 29 30  1  0
 21 31  2  0
  8  3  1  0
 31 16  1  0
 30 25  1  0
  1 32  1  0
  1 33  1  0
  1 34  1  0
  4 35  1  0
  5 36  1  0
  6 37  1  0
  7 38  1  0
  9 39  1  0
  9 40  1  0
 10 41  1  0
 17 42  1  0
 18 43  1  0
 26 44  1  0
 26 45  1  0
 27 46  1  0
 27 47  1  0
 29 48  1  0
 29 49  1  0
 30 50  1  0
 30 51  1  0
 31 52  1  0
M  CHG  1  15  -1
M  END
>  <UniqueID>  (29) 
27

>  <SMILES>  (29) 
COc1ccccc1CNC(=O)C(=O)[N-]c1ccc(Cl)c(S(=O)(=O)N2CCOCC2)c1

>  <Energy>  (29) 
67.0546539642595

>  <Genealogy>  (29) 
COc1ccccc1CNC(=O)C(=O)[N-]c1ccc(Cl)c(S(=O)(=O)N2CCOCC2)c1 (protonated)
COc1ccccc1CNC(=O)C(=O)[N-]c1ccc(Cl)c(S(=O)(=O)N2CCOCC2)c1 (3D coordinates assigned)
COc1ccccc1CNC(=O)C(=O)[N-]c1ccc(Cl)c(S(=O)(=O)N2CCOCC2)c1 (nonaromatic ring conformer: 67.0546539642595 kcal/mol)

>  <smiles>  (29) 
COc1ccccc1CNC(=O)C(=O)Nc1ccc(Cl)c(S(=O)(=O)N2CCOCC2)c1

>  <score_type>  (29) 
oracle

>  <origin>  (29) 
adg

>  <m_score__min__energy>  (29) 
-10.880000000000001

>  <m_primary>  (29) 
energy

$$$$
29:0
     RDKit          3D

 32 33  0  0  0  0  0  0  0  0999 V2000
   58.4930   30.9470   46.9640 C   0  0  0  0  0  0  0  0  0  0  0  0
   58.1800   31.3480   45.5460 C   0  0  0  0  0  0  0  0  0  0  0  0
   58.6400   32.5910   45.0840 C   0  0  0  0  0  0  0  0  0  0  0  0
   58.4010   32.9960   43.7730 C   0  0  0  0  0  0  0  0  0  0  0  0
   57.6870   32.1730   42.9060 C   0  0  0  0  0  0  0  0  0  0  0  0
   57.1840   30.9370   43.3430 C   0  0  0  0  0  0  0  0  0  0  0  0
   56.3910   30.0970   42.3720 C   0  0  0  0  0  0  0  0  0  0  0  0
   57.4340   30.5080   44.6740 C   0  0  0  0  0  0  0  0  0  0  0  0
   56.9190   29.2020   45.1480 C   0  0  0  0  0  0  0  0  0  0  0  0
   55.7120   28.8990   44.9510 O   0  0  0  0  0  0  0  0  0  0  0  0
   57.7980   28.2980   45.8290 N   0  0  0  0  0  0  0  0  0  0  0  0
   57.6700   26.8720   45.8900 C   0  0  0  0  0  0  0  0  0  0  0  0
   58.9270   25.7440   45.8540 S   0  0  0  0  0  0  0  0  0  0  0  0
   57.8680   24.4400   45.9460 C   0  0  0  0  0  0  0  0  0  0  0  0
   58.2320   23.2340   45.9430 O   0  0  0  0  0  0  0  0  0  0  0  0
   56.5730   24.8350   46.0170 N   0  0  0  0  0  0  0  0  0  0  0  0
   55.4320   23.9200   46.0430 C   0  0  0  0  0  0  0  0  0  0  0  0
   56.4580   26.1930   45.9690 C   0  0  0  0  0  0  0  0  0  0  0  0
   55.2210   26.8360   45.9950 O   0  0  0  0  0  0  0  0  0  0  0  0
   57.9685   31.6189   47.6593 H   0  0  0  0  0  0  0  0  0  0  0  0
   58.1615   29.9120   47.1340 H   0  0  0  0  0  0  0  0  0  0  0  0
   59.5775   31.0173   47.1340 H   0  0  0  0  0  0  0  0  0  0  0  0
   59.1955   33.2527   45.7649 H   0  0  0  0  0  0  0  0  0  0  0  0
   58.7771   33.9682   43.4217 H   0  0  0  0  0  0  0  0  0  0  0  0
   57.5152   32.4944   41.8681 H   0  0  0  0  0  0  0  0  0  0  0  0
   55.7402   29.4077   42.9300 H   0  0  0  0  0  0  0  0  0  0  0  0
   55.7743   30.7521   41.7391 H   0  0  0  0  0  0  0  0  0  0  0  0
   57.0805   29.5190   41.7391 H   0  0  0  0  0  0  0  0  0  0  0  0
   55.1604   23.7022   47.0864 H   0  0  0  0  0  0  0  0  0  0  0  0
   54.5769   24.3856   45.5311 H   0  0  0  0  0  0  0  0  0  0  0  0
   55.7007   22.9842   45.5311 H   0  0  0  0  0  0  0  0  0  0  0  0
   55.1500   27.8470   45.9880 H   0  0  0  0  0  0  0  0  0  0  0  0
  1  2  1  0
  2  3  2  0
  3  4  1  0
  4  5  2  0
  5  6  1  0
  6  7  1  0
  6  8  2  0
  8  9  1  0
  9 10  2  0
  9 11  1  0
 11 12  1  0
 12 13  1  0
 13 14  1  0
 14 15  2  0
 14 16  1  0
 16 17  1  0
 16 18  1  0
 18 19  1  0
  8  2  1  0
 18 12  2  0
  1 20  1  0
  1 21  1  0
  1 22  1  0
  3 23  1  0
  4 24  1  0
  5 25  1  0
  7 26  1  0
  7 27  1  0
  7 28  1  0
 17 29  1  0
 17 30  1  0
 17 31  1  0
 19 32  1  0
M  CHG  1  11  -1
M  END
>  <UniqueID>  (30) 
28

>  <SMILES>  (30) 
Cc1cccc(C)c1C(=O)[N-]c1sc(=O)n(C)c1O

>  <Energy>  (30) 
71.80606028617625

>  <Genealogy>  (30) 
Cc1cccc(C)c1C(=O)[N-]c1sc(=O)n(C)c1O (protonated)
Cc1cccc(C)c1C(=O)[N-]c1sc(=O)n(C)c1O (3D coordinates assigned)
Cc1cccc(C)c1C(=O)[N-]c1sc(=O)n(C)c1O (optimized conformer: 71.80606028617625 kcal/mol)

>  <smiles>  (30) 
Cc1cccc(C)c1C(=O)Nc1sc(=O)n(C)c1O

>  <score_type>  (30) 
oracle

>  <origin>  (30) 
adg

>  <m_score__min__energy>  (30) 
-9.5299999999999994

>  <m_primary>  (30) 
energy

$$$$
30:0
     RDKit          3D

 75 79  0  0  0  0  0  0  0  0999 V2000
   57.3020   20.3510   47.6560 O   0  0  0  0  0  0  0  0  0  0  0  0
   57.0110   21.5490   47.3970 C   0  0  0  0  0  0  0  0  0  0  0  0
   56.8750   21.9840   45.9610 C   0  0  0  0  0  0  0  0  0  0  0  0
   56.1250   23.2870   45.8150 C   0  0  0  0  0  0  0  0  0  0  0  0
   54.7650   23.2700   45.4660 C   0  0  0  0  0  0  0  0  0  0  0  0
   54.0480   24.4640   45.3610 C   0  0  0  0  0  0  0  0  0  0  0  0
   54.6760   25.6850   45.6090 C   0  0  0  0  0  0  0  0  0  0  0  0
   56.0260   25.7180   45.9980 C   0  0  0  0  0  0  0  0  0  0  0  0
   56.7090   26.9630   46.2070 N   0  0  0  0  0  0  0  0  0  0  0  0
   56.6410   28.1130   45.3520 C   0  0  0  0  0  0  0  0  0  0  0  0
   55.5190   28.6530   45.1520 O   0  0  0  0  0  0  0  0  0  0  0  0
   57.8660   28.6270   44.6230 C   0  0  0  0  0  0  0  0  0  0  0  0
   58.9540   29.1440   45.6010 C   0  0  0  0  0  0  0  0  0  0  0  0
   59.0720   30.6740   45.6130 C   0  0  0  0  0  0  0  0  0  0  0  0
   57.7330   31.2730   45.5410 N   0  0  0  0  0  0  0  0  0  0  0  0
   57.8210   32.9820   45.8880 S   0  0  0  0  0  0  0  0  0  0  0  0
   57.7570   33.7700   44.6060 O   0  0  0  0  0  0  0  0  0  0  0  0
   56.6610   33.3810   46.7580 O   0  0  0  0  0  0  0  0  0  0  0  0
   59.3190   33.3500   46.7430 C   0  0  0  0  0  0  0  0  0  0  0  0
   60.4870   33.6600   46.0320 C   0  0  0  0  0  0  0  0  0  0  0  0
   61.6780   33.9100   46.7160 C   0  0  0  0  0  0  0  0  0  0  0  0
   61.7130   33.8500   48.1120 C   0  0  0  0  0  0  0  0  0  0  0  0
   60.5490   33.5450   48.8390 C   0  0  0  0  0  0  0  0  0  0  0  0
   60.5650   33.4510   50.3450 C   0  0  0  0  0  0  0  0  0  0  0  0
   61.6180   34.2000   50.8370 F   0  0  0  0  0  0  0  0  0  0  0  0
   60.7290   32.1300   50.7260 F   0  0  0  0  0  0  0  0  0  0  0  0
   59.3850   33.9210   50.8980 F   0  0  0  0  0  0  0  0  0  0  0  0
   59.3570   33.2860   48.1420 C   0  0  0  0  0  0  0  0  0  0  0  0
   57.1090   31.0590   44.2150 C   0  0  0  0  0  0  0  0  0  0  0  0
   57.4770   29.6950   43.5820 C   0  0  0  0  0  0  0  0  0  0  0  0
   56.7450   24.5190   46.0980 C   0  0  0  0  0  0  0  0  0  0  0  0
   56.8310   22.4680   48.4820 N   0  0  0  0  0  0  0  0  0  0  0  0
   56.9540   22.1620   49.8780 C   0  0  0  0  0  0  0  0  0  0  0  0
   55.9100   21.4830   50.5200 C   0  0  0  0  0  0  0  0  0  0  0  0
   56.0020   21.1690   51.8780 C   0  0  0  0  0  0  0  0  0  0  0  0
   57.1250   21.5580   52.6130 C   0  0  0  0  0  0  0  0  0  0  0  0
   58.1510   22.2870   52.0020 C   0  0  0  0  0  0  0  0  0  0  0  0
   59.2940   22.6690   52.7820 N   0  0  0  0  0  0  0  0  0  0  0  0
   60.6380   22.8130   52.3000 C   0  0  0  0  0  0  0  0  0  0  0  0
   61.2850   21.7740   51.9980 O   0  0  0  0  0  0  0  0  0  0  0  0
   61.2990   24.1360   52.1970 C   0  0  0  0  0  0  0  0  0  0  0  0
   60.5380   25.2880   51.9260 C   0  0  0  0  0  0  0  0  0  0  0  0
   61.1560   26.5390   51.8370 C   0  0  0  0  0  0  0  0  0  0  0  0
   62.5380   26.6510   52.0060 C   0  0  0  0  0  0  0  0  0  0  0  0
   63.3060   25.5110   52.2560 C   0  0  0  0  0  0  0  0  0  0  0  0
   62.6920   24.2580   52.3500 C   0  0  0  0  0  0  0  0  0  0  0  0
   58.0660   22.5810   50.6290 C   0  0  0  0  0  0  0  0  0  0  0  0
   57.8812   22.1074   45.5339 H   0  0  0  0  0  0  0  0  0  0  0  0
   56.3007   21.2091   45.4321 H   0  0  0  0  0  0  0  0  0  0  0  0
   54.2615   22.3110   45.2742 H   0  0  0  0  0  0  0  0  0  0  0  0
   52.9843   24.4417   45.0818 H   0  0  0  0  0  0  0  0  0  0  0  0
   54.1132   26.6238   45.4998 H   0  0  0  0  0  0  0  0  0  0  0  0
   58.3107   27.7775   44.0838 H   0  0  0  0  0  0  0  0  0  0  0  0
   58.7026   28.8039   46.6165 H   0  0  0  0  0  0  0  0  0  0  0  0
   59.9198   28.7424   45.2606 H   0  0  0  0  0  0  0  0  0  0  0  0
   59.5672   30.9955   46.5411 H   0  0  0  0  0  0  0  0  0  0  0  0
   59.6651   31.0010   44.7462 H   0  0  0  0  0  0  0  0  0  0  0  0
   60.4648   33.7063   44.9332 H   0  0  0  0  0  0  0  0  0  0  0  0
   62.5917   34.1550   46.1546 H   0  0  0  0  0  0  0  0  0  0  0  0
   62.6561   34.0424   48.6445 H   0  0  0  0  0  0  0  0  0  0  0  0
   58.4443   33.0304   48.7003 H   0  0  0  0  0  0  0  0  0  0  0  0
   56.0162   31.1075   44.3307 H   0  0  0  0  0  0  0  0  0  0  0  0
   57.4881   31.8441   43.5443 H   0  0  0  0  0  0  0  0  0  0  0  0
   56.6100   29.3286   43.0127 H   0  0  0  0  0  0  0  0  0  0  0  0
   58.3544   29.8593   42.9392 H   0  0  0  0  0  0  0  0  0  0  0  0
   57.8025   24.5407   46.4001 H   0  0  0  0  0  0  0  0  0  0  0  0
   55.0131   21.1957   49.9516 H   0  0  0  0  0  0  0  0  0  0  0  0
   55.1890   20.6146   52.3697 H   0  0  0  0  0  0  0  0  0  0  0  0
   57.2027   21.2898   53.6770 H   0  0  0  0  0  0  0  0  0  0  0  0
   59.4505   25.2039   51.7833 H   0  0  0  0  0  0  0  0  0  0  0  0
   60.5530   27.4363   51.6336 H   0  0  0  0  0  0  0  0  0  0  0  0
   63.0217   27.6369   51.9422 H   0  0  0  0  0  0  0  0  0  0  0  0
   64.3955   25.5991   52.3791 H   0  0  0  0  0  0  0  0  0  0  0  0
   63.3015   23.3632   52.5446 H   0  0  0  0  0  0  0  0  0  0  0  0
   58.8753   23.1427   50.1396 H   0  0  0  0  0  0  0  0  0  0  0  0
  1  2  2  0
  2  3  1  0
  3  4  1  0
  4  5  2  0
  5  6  1  0
  6  7  2  0
  7  8  1  0
  8  9  1  0
  9 10  1  0
 10 11  2  0
 10 12  1  0
 12 13  1  0
 13 14  1  0
 14 15  1  0
 15 16  1  0
 16 17  2  0
 16 18  2  0
 16 19  1  0
 19 20  2  0
 20 21  1  0
 21 22  2  0
 22 23  1  0
 23 24  1  0
 24 25  1  0
 24 26  1  0
 24 27  1  0
 23 28  2  0
 15 29  1  0
 29 30  1  0
  8 31  2  0
  2 32  1  0
 32 33  1  0
 33 34  2  0
 34 35  1  0
 35 36  2  0
 36 37  1  0
 37 38  1  0
 38 39  1  0
 39 40  2  0
 39 41  1  0
 41 42  2  0
 42 43  1  0
 43 44  2  0
 44 45  1  0
 45 46  2  0
 37 47  2  0
 31  4  1  0
 47 33  1  0
 30 12  1  0
 46 41  1  0
 28 19  1  0
  3 48  1  0
  3 49  1  0
  5 50  1  0
  6 51  1  0
  7 52  1  0
 12 53  1  0
 13 54  1  0
 13 55  1  0
 14 56  1  0
 14 57  1  0
 20 58  1  0
 21 59  1  0
 22 60  1  0
 28 61  1  0
 29 62  1  0
 29 63  1  0
 30 64  1  0
 30 65  1  0
 31 66  1  0
 34 67  1  0
 35 68  1  0
 36 69  1  0
 42 70  1  0
 43 71  1  0
 44 72  1  0
 45 73  1  0
 46 74  1  0
 47 75  1  0
M  CHG  3   9  -1  32  -1  38  -1
M  END
>  <UniqueID>  (31) 
29

>  <SMILES>  (31) 
O=C(Cc1cccc([N-]C(=O)C2CCN(S(=O)(=O)c3cccc(C(F)(F)F)c3)CC2)c1)[N-]c1cccc([N-]C(=O)c2ccccc2)c1

>  <Energy>  (31) 
103.60057514120862

>  <Genealogy>  (31) 
O=C(Cc1cccc([N-]C(=O)C2CCN(S(=O)(=O)c3cccc(C(F)(F)F)c3)CC2)c1)[N-]c1cccc([N-]C(=O)c2ccccc2)c1 (protonated)
O=C(Cc1cccc([N-]C(=O)C2CCN(S(=O)(=O)c3cccc(C(F)(F)F)c3)CC2)c1)[N-]c1cccc([N-]C(=O)c2ccccc2)c1 (3D coordinates assigned)
O=C(Cc1cccc([N-]C(=O)C2CCN(S(=O)(=O)c3cccc(C(F)(F)F)c3)CC2)c1)[N-]c1cccc([N-]C(=O)c2ccccc2)c1 (nonaromatic ring conformer: 103.60057514120862 kcal/mol)

>  <smiles>  (31) 
O=C(Cc1cccc(NC(=O)C2CCN(S(=O)(=O)c3cccc(C(F)(F)F)c3)CC2)c1)Nc1cccc(NC(=O)c2ccccc2)c1

>  <score_type>  (31) 
oracle

>  <origin>  (31) 
adg

>  <m_score__min__energy>  (31) 
-14.65

>  <m_primary>  (31) 
energy

$$$$
31:0
     RDKit          3D

 37 40  0  0  0  0  0  0  0  0999 V2000
   57.0130   30.3330   42.9210 C   0  0  0  0  0  0  0  0  0  0  0  0
   57.6720   30.4660   44.2160 N   0  0  0  0  0  0  0  0  0  0  0  0
   58.2510   29.4710   44.9260 C   0  0  0  0  0  0  0  0  0  0  0  0
   58.7440   29.9640   46.1320 C   0  0  0  0  0  0  0  0  0  0  0  0
   59.4530   29.1920   47.1710 C   0  0  0  0  0  0  0  0  0  0  0  0
   59.3440   27.8820   47.4090 C   0  0  0  0  0  0  0  0  0  0  0  0
   58.3930   26.9340   46.7850 C   0  0  0  0  0  0  0  0  0  0  0  0
   57.0350   27.2700   46.6770 C   0  0  0  0  0  0  0  0  0  0  0  0
   56.1310   26.3780   46.0890 C   0  0  0  0  0  0  0  0  0  0  0  0
   54.7860   26.7140   45.9950 O   0  0  0  0  0  0  0  0  0  0  0  0
   56.5800   25.1490   45.5970 C   0  0  0  0  0  0  0  0  0  0  0  0
   57.9360   24.8090   45.6880 C   0  0  0  0  0  0  0  0  0  0  0  0
   58.3960   23.5900   45.1970 O   0  0  0  0  0  0  0  0  0  0  0  0
   58.8390   25.7010   46.2760 C   0  0  0  0  0  0  0  0  0  0  0  0
   60.3270   27.5480   48.4430 C   0  0  0  0  0  0  0  0  0  0  0  0
   60.4900   26.4040   48.9430 O   0  0  0  0  0  0  0  0  0  0  0  0
   61.0760   28.6860   48.8530 N   0  0  0  0  0  0  0  0  0  0  0  0
   60.5170   29.7060   48.0360 C   0  0  0  0  0  0  0  0  0  0  0  0
   60.9410   30.8910   48.0350 O   0  0  0  0  0  0  0  0  0  0  0  0
   58.4350   31.3130   46.1410 C   0  0  0  0  0  0  0  0  0  0  0  0
   58.6320   32.2980   47.1120 C   0  0  0  0  0  0  0  0  0  0  0  0
   58.1640   33.5950   46.8380 C   0  0  0  0  0  0  0  0  0  0  0  0
   57.5060   33.8780   45.6220 C   0  0  0  0  0  0  0  0  0  0  0  0
   57.3030   32.8620   44.6690 C   0  0  0  0  0  0  0  0  0  0  0  0
   57.7820   31.5830   44.9630 C   0  0  0  0  0  0  0  0  0  0  0  0
   55.9451   30.1175   43.0734 H   0  0  0  0  0  0  0  0  0  0  0  0
   57.1208   31.2710   42.3567 H   0  0  0  0  0  0  0  0  0  0  0  0
   57.4762   29.5102   42.3567 H   0  0  0  0  0  0  0  0  0  0  0  0
   58.3223   28.4234   44.5983 H   0  0  0  0  0  0  0  0  0  0  0  0
   56.6792   28.2393   47.0563 H   0  0  0  0  0  0  0  0  0  0  0  0
   55.8676   24.4479   45.1377 H   0  0  0  0  0  0  0  0  0  0  0  0
   58.1240   23.2510   44.2810 H   0  0  0  0  0  0  0  0  0  0  0  0
   59.9047   25.4364   46.3407 H   0  0  0  0  0  0  0  0  0  0  0  0
   59.1374   32.0660   48.0611 H   0  0  0  0  0  0  0  0  0  0  0  0
   58.3119   34.3958   47.5775 H   0  0  0  0  0  0  0  0  0  0  0  0
   57.1497   34.8984   45.4177 H   0  0  0  0  0  0  0  0  0  0  0  0
   56.7832   33.0688   43.7219 H   0  0  0  0  0  0  0  0  0  0  0  0
  1  2  1  0
  2  3  1  0
  3  4  2  0
  4  5  1  0
  5  6  2  0
  6  7  1  0
  7  8  2  0
  8  9  1  0
  9 10  1  0
  9 11  2  0
 11 12  1  0
 12 13  1  0
 12 14  2  0
  6 15  1  0
 15 16  2  0
 15 17  1  0
 17 18  1  0
 18 19  2  0
  4 20  1  0
 20 21  2  0
 21 22  1  0
 22 23  2  0
 23 24  1  0
 24 25  2  0
 25  2  1  0
 18  5  1  0
 25 20  1  0
 14  7  1  0
  1 26  1  0
  1 27  1  0
  1 28  1  0
  3 29  1  0
  8 30  1  0
 11 31  1  0
 13 32  1  0
 14 33  1  0
 21 34  1  0
 22 35  1  0
 23 36  1  0
 24 37  1  0
M  CHG  2  10  -1  17  -1
M  END
>  <UniqueID>  (32) 
30

>  <SMILES>  (32) 
Cn1cc(C2=C(c3cc([O-])cc(O)c3)C(=O)[N-]C2=O)c2ccccc21

>  <Energy>  (32) 
107.58000008828024

>  <Genealogy>  (32) 
Cn1cc(C2=C(c3cc([O-])cc(O)c3)C(=O)[N-]C2=O)c2ccccc21 (protonated)
Cn1cc(C2=C(c3cc([O-])cc(O)c3)C(=O)[N-]C2=O)c2ccccc21 (3D coordinates assigned)
Cn1cc(C2=C(c3cc([O-])cc(O)c3)C(=O)[N-]C2=O)c2ccccc21 (nonaromatic ring conformer: 107.58000008828024 kcal/mol)

>  <smiles>  (32) 
Cn1cc(C2=C(c3cc(O)cc(O)c3)C(=O)NC2=O)c2ccccc21

>  <score_type>  (32) 
oracle

>  <origin>  (32) 
adg

>  <m_score__min__energy>  (32) 
-12.67

>  <m_primary>  (32) 
energy

$$$$
32:0
     RDKit          3D

 45 48  0  0  0  0  0  0  0  0999 V2000
   59.7220   29.1980   45.1590 C   0  0  0  0  0  0  0  0  0  0  0  0
   59.6180   29.0700   46.4910 C   0  0  0  0  0  0  0  0  0  0  0  0
   59.2570   27.9160   47.1990 C   0  0  0  0  0  0  0  0  0  0  0  0
   58.9380   26.7140   46.6730 C   0  0  0  0  0  0  0  0  0  0  0  0
   57.5770   26.1370   46.6060 C   0  0  0  0  0  0  0  0  0  0  0  0
   57.1970   24.9450   47.0980 N   0  0  0  0  0  0  0  0  0  0  0  0
   55.8950   24.8580   46.7510 C   0  0  0  0  0  0  0  0  0  0  0  0
   55.1790   23.8660   47.0470 O   0  0  0  0  0  0  0  0  0  0  0  0
   55.4230   25.9160   46.0600 N   0  0  0  0  0  0  0  0  0  0  0  0
   56.5000   26.7140   45.9720 C   0  0  0  0  0  0  0  0  0  0  0  0
   56.5030   27.9460   45.3270 O   0  0  0  0  0  0  0  0  0  0  0  0
   59.2620   28.2740   48.5450 C   0  0  0  0  0  0  0  0  0  0  0  0
   59.6330   29.6030   48.6020 C   0  0  0  0  0  0  0  0  0  0  0  0
   59.6860   30.4260   49.8520 C   0  0  0  0  0  0  0  0  0  0  0  0
   59.8510   30.0840   47.3600 N   0  0  0  0  0  0  0  0  0  0  0  0
   60.1500   31.4530   47.0340 C   0  0  0  0  0  0  0  0  0  0  0  0
   61.3290   32.0840   47.5050 C   0  0  0  0  0  0  0  0  0  0  0  0
   62.3230   31.3980   48.3640 C   0  0  0  0  0  0  0  0  0  0  0  0
   63.5540   31.6500   48.2930 O   0  0  0  0  0  0  0  0  0  0  0  0
   61.5780   33.4200   47.1510 C   0  0  0  0  0  0  0  0  0  0  0  0
   60.6810   34.1300   46.3500 C   0  0  0  0  0  0  0  0  0  0  0  0
   59.5140   33.5140   45.8880 C   0  0  0  0  0  0  0  0  0  0  0  0
   58.5970   34.2050   45.0840 C   0  0  0  0  0  0  0  0  0  0  0  0
   57.4420   33.5630   44.6370 C   0  0  0  0  0  0  0  0  0  0  0  0
   57.2090   32.2320   44.9950 C   0  0  0  0  0  0  0  0  0  0  0  0
   56.0530   31.5890   44.5490 O   0  0  0  0  0  0  0  0  0  0  0  0
   56.0890   30.4190   43.7400 C   0  0  0  0  0  0  0  0  0  0  0  0
   58.1120   31.5750   45.7750 N   0  0  0  0  0  0  0  0  0  0  0  0
   59.2480   32.1720   46.2300 C   0  0  0  0  0  0  0  0  0  0  0  0
   60.0160   30.1630   44.7205 H   0  0  0  0  0  0  0  0  0  0  0  0
   59.5132   28.3379   44.5058 H   0  0  0  0  0  0  0  0  0  0  0  0
   59.7603   26.1121   46.2588 H   0  0  0  0  0  0  0  0  0  0  0  0
   56.5490   27.9980   44.3160 H   0  0  0  0  0  0  0  0  0  0  0  0
   59.0176   27.6237   49.3979 H   0  0  0  0  0  0  0  0  0  0  0  0
   59.6433   29.7636   50.7292 H   0  0  0  0  0  0  0  0  0  0  0  0
   60.6231   31.0017   49.8725 H   0  0  0  0  0  0  0  0  0  0  0  0
   58.8305   31.1172   49.8725 H   0  0  0  0  0  0  0  0  0  0  0  0
   61.9740   30.6452   49.0861 H   0  0  0  0  0  0  0  0  0  0  0  0
   62.4928   33.9144   47.5098 H   0  0  0  0  0  0  0  0  0  0  0  0
   60.8930   35.1756   46.0821 H   0  0  0  0  0  0  0  0  0  0  0  0
   58.7879   35.2520   44.8059 H   0  0  0  0  0  0  0  0  0  0  0  0
   56.7188   34.1010   44.0065 H   0  0  0  0  0  0  0  0  0  0  0  0
   56.1164   29.5281   44.3847 H   0  0  0  0  0  0  0  0  0  0  0  0
   55.1915   30.3846   43.1050 H   0  0  0  0  0  0  0  0  0  0  0  0
   56.9869   30.4398   43.1050 H   0  0  0  0  0  0  0  0  0  0  0  0
  1  2  2  0
  2  3  1  0
  3  4  2  3
  4  5  1  0
  5  6  1  0
  6  7  1  0
  7  8  2  0
  7  9  1  0
  9 10  1  0
 10 11  1  0
  3 12  1  0
 12 13  2  0
 13 14  1  0
 13 15  1  0
 15 16  1  0
 16 17  2  0
 17 18  1  0
 18 19  2  0
 17 20  1  0
 20 21  2  0
 21 22  1  0
 22 23  2  0
 23 24  1  0
 24 25  2  0
 25 26  1  0
 26 27  1  0
 25 28  1  0
 28 29  2  0
 15  2  1  0
 29 16  1  0
 10  5  2  0
 29 22  1  0
  1 30  1  0
  1 31  1  0
  4 32  1  0
 11 33  1  0
 12 34  1  0
 14 35  1  0
 14 36  1  0
 14 37  1  0
 18 38  1  0
 20 39  1  0
 21 40  1  0
 23 41  1  0
 24 42  1  0
 27 43  1  0
 27 44  1  0
 27 45  1  0
M  CHG  2   6  -1   9  -1
M  END
>  <UniqueID>  (33) 
31

>  <SMILES>  (33) 
C=c1c(=Cc2[n-]c(=O)[n-]c2O)cc(C)n1-c1c(C=O)ccc2ccc(OC)nc12

>  <Energy>  (33) 
118.7270826200891

>  <Genealogy>  (33) 
C=c1c(=Cc2[n-]c(=O)[n-]c2O)cc(C)n1-c1c(C=O)ccc2ccc(OC)nc12 (protonated)
C=c1c(=Cc2[n-]c(=O)[n-]c2O)cc(C)n1-c1c(C=O)ccc2ccc(OC)nc12 (3D coordinates assigned)
C=c1c(=Cc2[n-]c(=O)[n-]c2O)cc(C)n1-c1c(C=O)ccc2ccc(OC)nc12 (optimized conformer: 118.7270826200891 kcal/mol)

>  <smiles>  (33) 
C=c1c(=Cc2[nH]c(=O)[nH]c2O)cc(C)n1-c1c(C=O)ccc2ccc(OC)nc12

>  <score_type>  (33) 
oracle

>  <origin>  (33) 
adg

>  <m_score__min__energy>  (33) 
-13.1

>  <m_primary>  (33) 
energy

$$$$
33:0
     RDKit          3D

 46 49  0  0  0  0  0  0  0  0999 V2000
   62.3540   30.7230   48.7900 H   0  0  0  0  0  0  0  0  0  0  0  0
   61.5460   30.1230   48.9110 O   0  0  0  0  0  0  0  0  0  0  0  0
   60.6430   29.9000   47.8740 C   0  0  0  0  0  0  0  0  0  0  0  0
   60.7630   30.5890   46.6620 C   0  0  0  0  0  0  0  0  0  0  0  0
   61.5757   31.3173   46.5236 H   0  0  0  0  0  0  0  0  0  0  0  0
   59.8540   30.3550   45.6270 C   0  0  0  0  0  0  0  0  0  0  0  0
   59.9574   30.8986   44.6763 H   0  0  0  0  0  0  0  0  0  0  0  0
   58.8060   29.4280   45.7920 C   0  0  0  0  0  0  0  0  0  0  0  0
   57.8690   29.1110   44.6470 C   0  0  0  0  0  0  0  0  0  0  0  0
   57.7537   28.0193   44.5766 H   0  0  0  0  0  0  0  0  0  0  0  0
   58.3071   29.5298   43.7290 H   0  0  0  0  0  0  0  0  0  0  0  0
   56.5070   29.7310   44.8310 C   0  0  0  0  0  0  0  0  0  0  0  0
   55.5040   28.9730   44.8910 O   0  0  0  0  0  0  0  0  0  0  0  0
   56.2940   31.1530   44.8330 N   0  0  0  0  0  0  0  0  0  0  0  0
   57.2010   32.0850   44.8780 C   0  0  0  0  0  0  0  0  0  0  0  0
   57.5530   32.7600   45.9940 N   0  0  0  0  0  0  0  0  0  0  0  0
   58.4990   33.7020   45.7300 C   0  0  0  0  0  0  0  0  0  0  0  0
   59.0870   34.5560   46.8110 C   0  0  0  0  0  0  0  0  0  0  0  0
   59.2878   35.5611   46.4116 H   0  0  0  0  0  0  0  0  0  0  0  0
   58.3741   34.6200   47.6463 H   0  0  0  0  0  0  0  0  0  0  0  0
   60.3750   33.9510   47.3080 C   0  0  0  0  0  0  0  0  0  0  0  0
   61.3270   33.6520   46.3840 N   0  0  0  0  0  0  0  0  0  0  0  0
   62.4890   33.0990   46.7200 N   0  0  0  0  0  0  0  0  0  0  0  0
   62.7910   32.8040   48.0070 C   0  0  0  0  0  0  0  0  0  0  0  0
   63.9030   32.2730   48.2730 O   0  0  0  0  0  0  0  0  0  0  0  0
   61.8670   33.0890   49.0250 C   0  0  0  0  0  0  0  0  0  0  0  0
   60.6120   33.6420   48.6700 C   0  0  0  0  0  0  0  0  0  0  0  0
   59.5940   34.0010   49.7380 C   0  0  0  0  0  0  0  0  0  0  0  0
   59.6427   35.0852   49.9170 H   0  0  0  0  0  0  0  0  0  0  0  0
   58.6070   33.6872   49.3673 H   0  0  0  0  0  0  0  0  0  0  0  0
   59.8320   33.2780   51.0650 C   0  0  0  0  0  0  0  0  0  0  0  0
   59.1956   33.7264   51.8421 H   0  0  0  0  0  0  0  0  0  0  0  0
   59.5830   32.2135   50.9430 H   0  0  0  0  0  0  0  0  0  0  0  0
   61.2930   33.4020   51.4780 C   0  0  0  0  0  0  0  0  0  0  0  0
   61.5665   34.4660   51.5330 H   0  0  0  0  0  0  0  0  0  0  0  0
   61.4305   32.9289   52.4615 H   0  0  0  0  0  0  0  0  0  0  0  0
   62.1900   32.7010   50.4550 C   0  0  0  0  0  0  0  0  0  0  0  0
   63.2364   32.9685   50.6637 H   0  0  0  0  0  0  0  0  0  0  0  0
   62.0179   31.6188   50.5509 H   0  0  0  0  0  0  0  0  0  0  0  0
   58.9060   33.7730   44.3990 C   0  0  0  0  0  0  0  0  0  0  0  0
   59.6652   34.4561   43.9905 H   0  0  0  0  0  0  0  0  0  0  0  0
   58.0310   32.6290   43.5260 S   0  0  0  0  0  0  0  0  0  0  0  0
   58.7010   28.7310   47.0110 C   0  0  0  0  0  0  0  0  0  0  0  0
   57.7290   27.8030   47.2000 F   0  0  0  0  0  0  0  0  0  0  0  0
   59.6110   28.9740   48.0450 C   0  0  0  0  0  0  0  0  0  0  0  0
   59.5136   28.4331   48.9979 H   0  0  0  0  0  0  0  0  0  0  0  0
  1  2  1  0
  2  3  1  0
  3  4  2  0
  4  5  1  0
  4  6  1  0
  6  7  1  0
  6  8  2  0
  8  9  1  0
  9 10  1  0
  9 11  1  0
  9 12  1  0
 12 13  2  0
 12 14  1  0
 14 15  2  0
 15 16  1  0
 16 17  1  0
 17 18  1  0
 18 19  1  0
 18 20  1  0
 18 21  1  0
 21 22  2  0
 22 23  1  0
 23 24  1  0
 24 25  2  0
 24 26  1  0
 26 27  2  0
 27 28  1  0
 28 29  1  0
 28 30  1  0
 28 31  1  0
 31 32  1  0
 31 33  1  0
 31 34  1  0
 34 35  1  0
 34 36  1  0
 34 37  1  0
 37 38  1  0
 37 39  1  0
 17 40  2  0
 40 41  1  0
 40 42  1  0
  8 43  1  0
 43 44  1  0
 43 45  2  0
 45 46  1  0
 45  3  1  0
 42 15  1  0
 27 21  1  0
 37 26  1  0
M  CHG  2  16  -1  23  -1
M  END
>  <UniqueID>  (34) 
32

>  <SMILES>  (34) 
O=C(Cc1ccc(O)cc1F)/N=c1\[n-]c(Cc2n[n-]c(=O)c3c2CCCC3)cs1

>  <Energy>  (34) 
82.061324539921

>  <Genealogy>  (34) 
O=C(Cc1ccc(O)cc1F)N=c1[n-]c(Cc2n[n-]c(=O)c3c2CCCC3)cs1 (protonated)
O=C(Cc1ccc(O)cc1F)/N=c1\[n-]c(Cc2n[n-]c(=O)c3c2CCCC3)cs1 (cis-trans isomerization)
O=C(Cc1ccc(O)cc1F)/N=c1\[n-]c(Cc2n[n-]c(=O)c3c2CCCC3)cs1 (3D coordinates assigned)
O=C(Cc1ccc(O)cc1F)/N=c1\[n-]c(Cc2n[n-]c(=O)c3c2CCCC3)cs1 (nonaromatic ring conformer: 82.061324539921 kcal/mol)

>  <smiles>  (34) 
O=C(Cc1ccc(O)cc1F)N=c1[nH]c(Cc2n[nH]c(=O)c3c2CCCC3)cs1

>  <score_type>  (34) 
oracle

>  <origin>  (34) 
adg

>  <m_score__min__energy>  (34) 
-13.6

>  <m_primary>  (34) 
energy

$$$$
34:0
     RDKit          3D

 36 37  0  0  0  0  0  0  0  0999 V2000
   57.7562   29.0482   43.1305 H   0  0  0  0  0  0  0  0  0  0  0  0
   57.4440   29.1170   44.1830 C   0  0  0  0  0  0  0  0  0  0  0  0
   56.2680   29.9450   44.5240 C   0  0  0  0  0  0  0  0  0  0  0  0
   55.2130   29.3680   44.8930 O   0  0  0  0  0  0  0  0  0  0  0  0
   56.2950   31.3780   44.4860 N   0  0  0  0  0  0  0  0  0  0  0  0
   57.3790   32.2180   44.9100 C   0  0  0  0  0  0  0  0  0  0  0  0
   58.0840   33.0280   44.0010 C   0  0  0  0  0  0  0  0  0  0  0  0
   57.8137   33.0197   42.9347 H   0  0  0  0  0  0  0  0  0  0  0  0
   59.1280   33.8440   44.4500 C   0  0  0  0  0  0  0  0  0  0  0  0
   59.6854   34.4661   43.7343 H   0  0  0  0  0  0  0  0  0  0  0  0
   59.4640   33.8700   45.8070 C   0  0  0  0  0  0  0  0  0  0  0  0
   60.4770   34.6660   46.2300 F   0  0  0  0  0  0  0  0  0  0  0  0
   58.7510   33.0840   46.7190 C   0  0  0  0  0  0  0  0  0  0  0  0
   59.1570   33.1190   48.4270 Cl  0  0  0  0  0  0  0  0  0  0  0  0
   57.7070   32.2670   46.2710 C   0  0  0  0  0  0  0  0  0  0  0  0
   57.1404   31.6595   46.9920 H   0  0  0  0  0  0  0  0  0  0  0  0
   58.1440   28.4470   45.1090 C   0  0  0  0  0  0  0  0  0  0  0  0
   58.0210   27.3553   45.1636 H   0  0  0  0  0  0  0  0  0  0  0  0
   59.0750   29.0950   46.0640 C   0  0  0  0  0  0  0  0  0  0  0  0
   58.8380   29.1230   47.4510 C   0  0  0  0  0  0  0  0  0  0  0  0
   57.9254   28.6636   47.8585 H   0  0  0  0  0  0  0  0  0  0  0  0
   59.7550   29.7310   48.3150 C   0  0  0  0  0  0  0  0  0  0  0  0
   59.5502   29.7612   49.3953 H   0  0  0  0  0  0  0  0  0  0  0  0
   60.9350   30.3030   47.8130 C   0  0  0  0  0  0  0  0  0  0  0  0
   61.8810   30.9560   48.6780 N   0  0  0  0  0  0  0  0  0  0  0  0
   61.8590   30.7180   49.6950 H   0  0  0  0  0  0  0  0  0  0  0  0
   62.7780   31.9920   48.2520 C   0  0  0  0  0  0  0  0  0  0  0  0
   62.6430   32.5390   47.1240 O   0  0  0  0  0  0  0  0  0  0  0  0
   63.8840   32.4380   49.1550 C   0  0  0  0  0  0  0  0  0  0  0  0
   64.2325   31.5851   49.7560 H   0  0  0  0  0  0  0  0  0  0  0  0
   64.7163   32.8260   48.5494 H   0  0  0  0  0  0  0  0  0  0  0  0
   63.2390   33.8330   50.3300 Br  0  0  0  0  0  0  0  0  0  0  0  0
   61.1680   30.2820   46.4310 C   0  0  0  0  0  0  0  0  0  0  0  0
   62.0776   30.7478   46.0240 H   0  0  0  0  0  0  0  0  0  0  0  0
   60.2540   29.6740   45.5660 C   0  0  0  0  0  0  0  0  0  0  0  0
   60.4597   29.6486   44.4857 H   0  0  0  0  0  0  0  0  0  0  0  0
  1  2  1  0
  2  3  1  0
  3  4  2  0
  3  5  1  0
  5  6  1  0
  6  7  2  0
  7  8  1  0
  7  9  1  0
  9 10  1  0
  9 11  2  0
 11 12  1  0
 11 13  1  0
 13 14  1  0
 13 15  2  0
 15 16  1  0
  2 17  2  0
 17 18  1  0
 17 19  1  0
 19 20  2  0
 20 21  1  0
 20 22  1  0
 22 23  1  0
 22 24  2  0
 24 25  1  0
 25 26  1  0
 25 27  1  0
 27 28  2  0
 27 29  1  0
 29 30  1  0
 29 31  1  0
 29 32  1  0
 24 33  1  0
 33 34  1  0
 33 35  2  0
 35 36  1  0
 15  6  1  0
 35 19  1  0
M  CHG  1   5  -1
M  END
>  <UniqueID>  (35) 
33

>  <SMILES>  (35) 
O=C(/C=C/c1ccc(NC(=O)CBr)cc1)[N-]c1ccc(F)c(Cl)c1

>  <Energy>  (35) 
45.65485807630554

>  <Genealogy>  (35) 
O=C(C=Cc1ccc(NC(=O)CBr)cc1)[N-]c1ccc(F)c(Cl)c1 (protonated)
O=C(/C=C/c1ccc(NC(=O)CBr)cc1)[N-]c1ccc(F)c(Cl)c1 (cis-trans isomerization)
O=C(/C=C/c1ccc(NC(=O)CBr)cc1)[N-]c1ccc(F)c(Cl)c1 (3D coordinates assigned)
O=C(/C=C/c1ccc(NC(=O)CBr)cc1)[N-]c1ccc(F)c(Cl)c1 (optimized conformer: 45.65485807630554 kcal/mol)

>  <smiles>  (35) 
O=C(C=Cc1ccc(NC(=O)CBr)cc1)Nc1ccc(F)c(Cl)c1

>  <score_type>  (35) 
oracle

>  <origin>  (35) 
adg

>  <m_score__min__energy>  (35) 
-9.4399999999999995

>  <m_primary>  (35) 
energy

$$$$
35:0
     RDKit          3D

 70 73  0  0  0  0  0  0  0  0999 V2000
   58.8860   31.3510   47.8260 H   0  0  0  0  0  0  0  0  0  0  0  0
   58.6230   32.1660   48.3300 O   0  0  0  0  0  0  0  0  0  0  0  0
   59.4900   33.2170   47.9610 C   0  0  0  0  0  0  0  0  0  0  0  0
   60.3940   32.6740   46.8150 C   0  0  0  0  0  0  0  0  0  0  0  0
   60.5679   33.4866   46.0943 H   0  0  0  0  0  0  0  0  0  0  0  0
   59.8660   31.8211   46.3636 H   0  0  0  0  0  0  0  0  0  0  0  0
   61.7340   32.1640   47.2930 C   0  0  0  0  0  0  0  0  0  0  0  0
   62.7910   32.6260   46.7880 O   0  0  0  0  0  0  0  0  0  0  0  0
   61.8220   31.1710   48.3280 N   0  0  0  0  0  0  0  0  0  0  0  0
   60.9910   29.9580   48.2990 C   0  0  0  0  0  0  0  0  0  0  0  0
   61.6337   29.0770   48.1548 H   0  0  0  0  0  0  0  0  0  0  0  0
   60.2711   30.0272   47.4702 H   0  0  0  0  0  0  0  0  0  0  0  0
   60.2320   29.8250   49.6240 C   0  0  0  0  0  0  0  0  0  0  0  0
   59.9182   28.7785   49.7522 H   0  0  0  0  0  0  0  0  0  0  0  0
   59.3602   30.4950   49.5901 H   0  0  0  0  0  0  0  0  0  0  0  0
   61.0730   30.2180   50.7740 N   0  0  0  0  0  0  0  0  0  0  0  0
   60.4640   30.7060   51.9910 C   0  0  0  0  0  0  0  0  0  0  0  0
   61.1470   31.3850   52.8100 O   0  0  0  0  0  0  0  0  0  0  0  0
   59.0400   30.4660   52.3030 C   0  0  0  0  0  0  0  0  0  0  0  0
   58.5550   29.1630   52.5000 C   0  0  0  0  0  0  0  0  0  0  0  0
   59.2431   28.3071   52.4368 H   0  0  0  0  0  0  0  0  0  0  0  0
   57.2020   28.9490   52.7760 C   0  0  0  0  0  0  0  0  0  0  0  0
   56.8257   27.9242   52.9106 H   0  0  0  0  0  0  0  0  0  0  0  0
   56.3220   30.0360   52.8820 C   0  0  0  0  0  0  0  0  0  0  0  0
   54.9280   29.8140   53.1650 N   0  0  0  0  0  0  0  0  0  0  0  0
   54.4350   28.9210   54.0530 C   0  0  0  0  0  0  0  0  0  0  0  0
   55.2630   28.0350   54.9330 C   0  0  0  0  0  0  0  0  0  0  0  0
   55.0497   28.2632   55.9877 H   0  0  0  0  0  0  0  0  0  0  0  0
   55.0174   26.9824   54.7287 H   0  0  0  0  0  0  0  0  0  0  0  0
   56.3298   28.2089   54.7287 H   0  0  0  0  0  0  0  0  0  0  0  0
   53.0550   28.9520   54.0490 C   0  0  0  0  0  0  0  0  0  0  0  0
   52.3830   28.3156   54.6435 H   0  0  0  0  0  0  0  0  0  0  0  0
   52.6790   29.9390   53.1520 C   0  0  0  0  0  0  0  0  0  0  0  0
   51.3930   30.2900   52.9520 C   0  0  0  0  0  0  0  0  0  0  0  0
   50.6833   29.4854   52.7092 H   0  0  0  0  0  0  0  0  0  0  0  0
   50.8590   31.6570   53.0310 C   0  0  0  0  0  0  0  0  0  0  0  0
   50.6130   32.2940   54.1880 N   0  0  0  0  0  0  0  0  0  0  0  0
   50.2700   33.5390   53.7900 C   0  0  0  0  0  0  0  0  0  0  0  0
   49.9470   34.4440   54.6030 O   0  0  0  0  0  0  0  0  0  0  0  0
   50.3110   33.7420   52.4550 N   0  0  0  0  0  0  0  0  0  0  0  0
   50.7000   32.5450   51.9890 C   0  0  0  0  0  0  0  0  0  0  0  0
   50.9360   32.2780   50.6450 O   0  0  0  0  0  0  0  0  0  0  0  0
   53.8650   30.4290   52.5830 C   0  0  0  0  0  0  0  0  0  0  0  0
   53.9770   31.2510   51.5270 C   0  0  0  0  0  0  0  0  0  0  0  0
   54.9717   31.5638   51.1766 H   0  0  0  0  0  0  0  0  0  0  0  0
   53.0741   31.6115   51.0124 H   0  0  0  0  0  0  0  0  0  0  0  0
   56.8110   31.3400   52.7160 C   0  0  0  0  0  0  0  0  0  0  0  0
   56.1284   32.1974   52.8104 H   0  0  0  0  0  0  0  0  0  0  0  0
   58.1630   31.5540   52.4310 C   0  0  0  0  0  0  0  0  0  0  0  0
   58.5408   32.5796   52.3066 H   0  0  0  0  0  0  0  0  0  0  0  0
   62.5230   30.3590   50.5590 C   0  0  0  0  0  0  0  0  0  0  0  0
   62.9495   29.3834   50.2828 H   0  0  0  0  0  0  0  0  0  0  0  0
   62.9981   30.7177   51.4840 H   0  0  0  0  0  0  0  0  0  0  0  0
   62.7760   31.3660   49.4300 C   0  0  0  0  0  0  0  0  0  0  0  0
   63.7989   31.2300   49.0489 H   0  0  0  0  0  0  0  0  0  0  0  0
   62.6466   32.3823   49.8306 H   0  0  0  0  0  0  0  0  0  0  0  0
   58.6030   34.4160   47.4820 C   0  0  0  0  0  0  0  0  0  0  0  0
   57.5916   34.2676   47.8884 H   0  0  0  0  0  0  0  0  0  0  0  0
   59.1118   35.3204   47.8468 H   0  0  0  0  0  0  0  0  0  0  0  0
   58.4740   34.6040   45.9680 C   0  0  0  0  0  0  0  0  0  0  0  0
   57.8629   35.4946   45.7599 H   0  0  0  0  0  0  0  0  0  0  0  0
   59.4738   34.7344   45.5282 H   0  0  0  0  0  0  0  0  0  0  0  0
   57.9927   33.7181   45.5282 H   0  0  0  0  0  0  0  0  0  0  0  0
   60.3340   33.5940   49.2300 C   0  0  0  0  0  0  0  0  0  0  0  0
   59.6507   34.0519   49.9603 H   0  0  0  0  0  0  0  0  0  0  0  0
   60.7958   32.6516   49.5595 H   0  0  0  0  0  0  0  0  0  0  0  0
   61.5060   34.5640   49.0180 C   0  0  0  0  0  0  0  0  0  0  0  0
   61.8960   34.8868   49.9946 H   0  0  0  0  0  0  0  0  0  0  0  0
   62.3033   34.0580   48.4538 H   0  0  0  0  0  0  0  0  0  0  0  0
   61.1580   35.4418   48.4538 H   0  0  0  0  0  0  0  0  0  0  0  0
  1  2  1  0
  2  3  1  0
  3  4  1  0
  4  5  1  0
  4  6  1  0
  4  7  1  0
  7  8  2  0
  7  9  1  0
  9 10  1  0
 10 11  1  0
 10 12  1  0
 10 13  1  0
 13 14  1  0
 13 15  1  0
 13 16  1  0
 16 17  1  0
 17 18  2  0
 17 19  1  0
 19 20  2  0
 20 21  1  0
 20 22  1  0
 22 23  1  0
 22 24  2  0
 24 25  1  0
 25 26  1  0
 26 27  1  0
 27 28  1  0
 27 29  1  0
 27 30  1  0
 26 31  2  0
 31 32  1  0
 31 33  1  0
 33 34  2  0
 34 35  1  0
 34 36  1  0
 36 37  1  0
 37 38  1  0
 38 39  2  0
 38 40  1  0
 40 41  1  0
 41 42  1  0
 33 43  1  0
 43 44  2  0
 44 45  1  0
 44 46  1  0
 24 47  1  0
 47 48  1  0
 47 49  2  0
 49 50  1  0
 16 51  1  0
 51 52  1  0
 51 53  1  0
 51 54  1  0
 54 55  1  0
 54 56  1  0
  3 57  1  0
 57 58  1  0
 57 59  1  0
 57 60  1  0
 60 61  1  0
 60 62  1  0
 60 63  1  0
  3 64  1  0
 64 65  1  0
 64 66  1  0
 64 67  1  0
 67 68  1  0
 67 69  1  0
 67 70  1  0
 54  9  1  0
 49 19  1  0
 43 25  1  0
 41 36  2  0
M  CHG  3  37  -1  40  -1  42  -1
M  END
>  <UniqueID>  (36) 
34

>  <SMILES>  (36) 
C=c1/c(=C\c2[n-]c(=O)[n-]c2[O-])cc(C)n1-c1ccc(C(=O)N2CCN(C(=O)CC(O)(CC)CC)CC2)cc1

>  <Energy>  (36) 
157.68067751510515

>  <Genealogy>  (36) 
C=c1c(=Cc2[n-]c(=O)[n-]c2[O-])cc(C)n1-c1ccc(C(=O)N2CCN(C(=O)CC(O)(CC)CC)CC2)cc1 (protonated)
C=c1/c(=C\c2[n-]c(=O)[n-]c2[O-])cc(C)n1-c1ccc(C(=O)N2CCN(C(=O)CC(O)(CC)CC)CC2)cc1 (cis-trans isomerization)
C=c1/c(=C\c2[n-]c(=O)[n-]c2[O-])cc(C)n1-c1ccc(C(=O)N2CCN(C(=O)CC(O)(CC)CC)CC2)cc1 (3D coordinates assigned)
C=c1/c(=C\c2[n-]c(=O)[n-]c2[O-])cc(C)n1-c1ccc(C(=O)N2CCN(C(=O)CC(O)(CC)CC)CC2)cc1 (nonaromatic ring conformer: 157.68067751510515 kcal/mol)

>  <smiles>  (36) 
C=c1c(=Cc2[nH]c(=O)[nH]c2O)cc(C)n1-c1ccc(C(=O)N2CCN(C(=O)CC(O)(CC)CC)CC2)cc1

>  <score_type>  (36) 
oracle

>  <origin>  (36) 
adg

>  <m_score__min__energy>  (36) 
-17.41

>  <m_primary>  (36) 
energy

$$$$
36:0
     RDKit          3D

 41 43  0  0  0  0  0  0  0  0999 V2000
   57.7570   24.7950   46.9850 C   0  0  0  0  0  0  0  0  0  0  0  0
   58.3740   26.1110   46.6910 C   0  0  0  0  0  0  0  0  0  0  0  0
   57.7700   27.2870   47.0730 C   0  0  0  0  0  0  0  0  0  0  0  0
   58.3660   28.4970   46.7870 C   0  0  0  0  0  0  0  0  0  0  0  0
   59.5500   28.6230   46.1330 C   0  0  0  0  0  0  0  0  0  0  0  0
   60.2730   29.8470   45.7630 C   0  0  0  0  0  0  0  0  0  0  0  0
   59.8610   31.0690   46.4290 C   0  0  0  0  0  0  0  0  0  0  0  0
   60.4160   31.3010   47.6740 N   0  0  0  0  0  0  0  0  0  0  0  0
   60.2340   32.3740   48.3760 N   0  0  0  0  0  0  0  0  0  0  0  0
   59.4700   33.3870   47.9500 C   0  0  0  0  0  0  0  0  0  0  0  0
   59.2850   34.4430   48.6260 O   0  0  0  0  0  0  0  0  0  0  0  0
   58.8730   33.2310   46.7090 C   0  0  0  0  0  0  0  0  0  0  0  0
   58.0540   34.2600   46.2960 C   0  0  0  0  0  0  0  0  0  0  0  0
   57.4060   34.1280   45.0910 C   0  0  0  0  0  0  0  0  0  0  0  0
   57.6090   32.9820   44.3650 C   0  0  0  0  0  0  0  0  0  0  0  0
   58.4390   31.9440   44.7870 C   0  0  0  0  0  0  0  0  0  0  0  0
   58.5210   30.8380   43.9150 N   0  0  0  0  0  0  0  0  0  0  0  0
   57.0240   29.9320   43.7010 S   0  0  0  0  0  0  0  0  0  0  0  0
   57.4110   28.1980   43.5430 C   0  0  0  0  0  0  0  0  0  0  0  0
   56.2590   30.0640   44.9880 O   0  0  0  0  0  0  0  0  0  0  0  0
   56.2580   30.4170   42.5330 O   0  0  0  0  0  0  0  0  0  0  0  0
   59.0720   32.0790   45.9650 C   0  0  0  0  0  0  0  0  0  0  0  0
   60.1610   27.4140   45.7460 C   0  0  0  0  0  0  0  0  0  0  0  0
   59.5780   26.1970   46.0240 C   0  0  0  0  0  0  0  0  0  0  0  0
   57.6917   24.6558   48.0742 H   0  0  0  0  0  0  0  0  0  0  0  0
   56.7476   24.7578   46.5494 H   0  0  0  0  0  0  0  0  0  0  0  0
   58.3740   23.9952   46.5494 H   0  0  0  0  0  0  0  0  0  0  0  0
   56.8092   27.2616   47.6079 H   0  0  0  0  0  0  0  0  0  0  0  0
   57.8520   29.4152   47.1076 H   0  0  0  0  0  0  0  0  0  0  0  0
   61.3379   29.6868   45.9874 H   0  0  0  0  0  0  0  0  0  0  0  0
   60.0494   30.0064   44.6978 H   0  0  0  0  0  0  0  0  0  0  0  0
   60.6910   32.4770   49.3130 H   0  0  0  0  0  0  0  0  0  0  0  0
   57.9228   35.1611   46.9132 H   0  0  0  0  0  0  0  0  0  0  0  0
   56.7414   34.9213   44.7183 H   0  0  0  0  0  0  0  0  0  0  0  0
   57.0905   32.8764   43.4006 H   0  0  0  0  0  0  0  0  0  0  0  0
   59.3140   30.5200   43.3630 H   0  0  0  0  0  0  0  0  0  0  0  0
   57.5106   27.7519   44.5435 H   0  0  0  0  0  0  0  0  0  0  0  0
   56.6040   27.6907   42.9940 H   0  0  0  0  0  0  0  0  0  0  0  0
   58.3571   28.0820   42.9940 H   0  0  0  0  0  0  0  0  0  0  0  0
   61.1220   27.4422   45.2116 H   0  0  0  0  0  0  0  0  0  0  0  0
   60.0842   25.2733   45.7068 H   0  0  0  0  0  0  0  0  0  0  0  0
  1  2  1  0
  2  3  2  0
  3  4  1  0
  4  5  2  0
  5  6  1  0
  6  7  1  0
  7  8  2  0
  8  9  1  0
  9 10  1  0
 10 11  2  0
 10 12  1  0
 12 13  2  0
 13 14  1  0
 14 15  2  0
 15 16  1  0
 16 17  1  0
 17 18  1  0
 18 19  1  0
 18 20  2  0
 18 21  2  0
 16 22  2  0
  5 23  1  0
 23 24  2  0
 24  2  1  0
 22  7  1  0
 22 12  1  0
  1 25  1  0
  1 26  1  0
  1 27  1  0
  3 28  1  0
  4 29  1  0
  6 30  1  0
  6 31  1  0
  9 32  1  0
 13 33  1  0
 14 34  1  0
 15 35  1  0
 17 36  1  0
 19 37  1  0
 19 38  1  0
 19 39  1  0
 23 40  1  0
 24 41  1  0
M  END
>  <smiles>  (37) 
Cc1ccc(Cc2n[nH]c(=O)c3cccc(NS(C)(=O)=O)c23)cc1

>  <score_type>  (37) 
oracle

>  <origin>  (37) 
adg

>  <m_score__min__energy>  (37) 
-7.9400000000000004

>  <m_primary>  (37) 
energy

$$$$
37:0
     RDKit          3D

 61 65  0  0  0  0  0  0  0  0999 V2000
   59.0730   29.4940   44.9630 O   0  0  0  0  0  0  0  0  0  0  0  0
   57.8710   29.5120   45.3340 C   0  0  0  0  0  0  0  0  0  0  0  0
   57.1670   30.7620   45.3380 N   0  0  0  0  0  0  0  0  0  0  0  0
   57.7650   32.0650   45.4120 C   0  0  0  0  0  0  0  0  0  0  0  0
   57.0260   33.2290   45.1400 C   0  0  0  0  0  0  0  0  0  0  0  0
   57.6320   34.4840   45.2420 C   0  0  0  0  0  0  0  0  0  0  0  0
   58.9690   34.5880   45.6290 C   0  0  0  0  0  0  0  0  0  0  0  0
   59.7120   33.4340   45.9220 C   0  0  0  0  0  0  0  0  0  0  0  0
   61.1400   33.5400   46.3910 C   0  0  0  0  0  0  0  0  0  0  0  0
   61.2610   33.1530   47.8140 N   0  0  0  0  0  0  0  0  0  0  0  0
   60.2770   33.8780   48.6600 C   0  0  0  0  0  0  0  0  0  0  0  0
   58.9910   33.0690   48.8860 C   0  0  0  0  0  0  0  0  0  0  0  0
   59.2820   31.7170   49.5890 C   0  0  0  0  0  0  0  0  0  0  0  0
   58.9780   31.7770   51.0710 C   0  0  0  0  0  0  0  0  0  0  0  0
   59.6640   32.5400   51.8080 O   0  0  0  0  0  0  0  0  0  0  0  0
   57.9380   30.9670   51.6590 N   0  0  0  0  0  0  0  0  0  0  0  0
   58.2390   29.5710   51.9990 C   0  0  0  0  0  0  0  0  0  0  0  0
   57.4920   29.1670   53.2640 C   0  0  0  0  0  0  0  0  0  0  0  0
   56.0220   29.4240   53.1050 C   0  0  0  0  0  0  0  0  0  0  0  0
   55.0910   28.6250   53.7890 C   0  0  0  0  0  0  0  0  0  0  0  0
   53.7240   28.8840   53.6780 C   0  0  0  0  0  0  0  0  0  0  0  0
   53.2750   29.9500   52.8940 C   0  0  0  0  0  0  0  0  0  0  0  0
   54.1930   30.7600   52.2220 C   0  0  0  0  0  0  0  0  0  0  0  0
   55.5720   30.5080   52.3220 C   0  0  0  0  0  0  0  0  0  0  0  0
   56.5410   31.4410   51.6280 C   0  0  0  0  0  0  0  0  0  0  0  0
   60.7360   31.2490   49.3650 C   0  0  0  0  0  0  0  0  0  0  0  0
   61.2270   31.6740   47.9760 C   0  0  0  0  0  0  0  0  0  0  0  0
   59.0980   32.1750   45.8250 C   0  0  0  0  0  0  0  0  0  0  0  0
   57.2120   28.2410   45.6960 C   0  0  0  0  0  0  0  0  0  0  0  0
   57.8230   27.1530   46.2990 C   0  0  0  0  0  0  0  0  0  0  0  0
   56.8380   26.2110   46.4840 C   0  0  0  0  0  0  0  0  0  0  0  0
   55.6840   26.7810   45.9940 C   0  0  0  0  0  0  0  0  0  0  0  0
   54.4390   26.1650   45.9920 O   0  0  0  0  0  0  0  0  0  0  0  0
   55.8940   28.0210   45.5170 N   0  0  0  0  0  0  0  0  0  0  0  0
   55.9687   33.1520   44.8463 H   0  0  0  0  0  0  0  0  0  0  0  0
   57.0539   35.3923   45.0167 H   0  0  0  0  0  0  0  0  0  0  0  0
   59.4421   35.5782   45.7046 H   0  0  0  0  0  0  0  0  0  0  0  0
   61.7689   32.8737   45.7823 H   0  0  0  0  0  0  0  0  0  0  0  0
   61.4677   34.5845   46.2828 H   0  0  0  0  0  0  0  0  0  0  0  0
   60.7380   34.0888   49.6363 H   0  0  0  0  0  0  0  0  0  0  0  0
   60.0023   34.8051   48.1355 H   0  0  0  0  0  0  0  0  0  0  0  0
   58.3051   33.6571   49.5135 H   0  0  0  0  0  0  0  0  0  0  0  0
   58.5417   32.8565   47.9047 H   0  0  0  0  0  0  0  0  0  0  0  0
   58.6100   30.9788   49.1269 H   0  0  0  0  0  0  0  0  0  0  0  0
   57.9281   28.9193   51.1692 H   0  0  0  0  0  0  0  0  0  0  0  0
   59.3205   29.4677   52.1712 H   0  0  0  0  0  0  0  0  0  0  0  0
   57.6546   28.0960   53.4551 H   0  0  0  0  0  0  0  0  0  0  0  0
   57.8701   29.7620   54.1084 H   0  0  0  0  0  0  0  0  0  0  0  0
   55.4410   27.7911   54.4152 H   0  0  0  0  0  0  0  0  0  0  0  0
   52.9995   28.2484   54.2082 H   0  0  0  0  0  0  0  0  0  0  0  0
   52.1972   30.1514   52.8060 H   0  0  0  0  0  0  0  0  0  0  0  0
   53.8343   31.6009   51.6103 H   0  0  0  0  0  0  0  0  0  0  0  0
   56.2319   31.5456   50.5775 H   0  0  0  0  0  0  0  0  0  0  0  0
   56.5119   32.3986   52.1685 H   0  0  0  0  0  0  0  0  0  0  0  0
   61.3837   31.6992   50.1317 H   0  0  0  0  0  0  0  0  0  0  0  0
   60.7723   30.1519   49.4357 H   0  0  0  0  0  0  0  0  0  0  0  0
   62.2422   31.2786   47.8240 H   0  0  0  0  0  0  0  0  0  0  0  0
   60.5221   31.2715   47.2336 H   0  0  0  0  0  0  0  0  0  0  0  0
   59.6686   31.2685   46.0754 H   0  0  0  0  0  0  0  0  0  0  0  0
   58.8839   27.0611   46.5746 H   0  0  0  0  0  0  0  0  0  0  0  0
   56.9488   25.2116   46.9300 H   0  0  0  0  0  0  0  0  0  0  0  0
  1  2  2  0
  2  3  1  0
  3  4  1  0
  4  5  2  0
  5  6  1  0
  6  7  2  0
  7  8  1  0
  8  9  1  0
  9 10  1  0
 10 11  1  0
 11 12  1  0
 12 13  1  0
 13 14  1  0
 14 15  2  0
 14 16  1  0
 16 17  1  0
 17 18  1  0
 18 19  1  0
 19 20  2  0
 20 21  1  0
 21 22  2  0
 22 23  1  0
 23 24  2  0
 24 25  1  0
 13 26  1  0
 26 27  1  0
  8 28  2  0
  2 29  1  0
 29 30  2  0
 30 31  1  0
 31 32  2  0
 32 33  1  0
 32 34  1  0
 28  4  1  0
 34 29  1  0
 27 10  1  0
 25 16  1  0
 24 19  1  0
  5 35  1  0
  6 36  1  0
  7 37  1  0
  9 38  1  0
  9 39  1  0
 11 40  1  0
 11 41  1  0
 12 42  1  0
 12 43  1  0
 13 44  1  0
 17 45  1  0
 17 46  1  0
 18 47  1  0
 18 48  1  0
 20 49  1  0
 21 50  1  0
 22 51  1  0
 23 52  1  0
 25 53  1  0
 25 54  1  0
 26 55  1  0
 26 56  1  0
 27 57  1  0
 27 58  1  0
 28 59  1  0
 30 60  1  0
 31 61  1  0
M  CHG  3   3  -1  33  -1  34  -1
M  END
>  <UniqueID>  (38) 
35

>  <SMILES>  (38) 
O=C([N-]c1cccc(CN2CCC(C(=O)N3CCc4ccccc4C3)CC2)c1)c1ccc([O-])[n-]1

>  <Energy>  (38) 
108.15806980775011

>  <Genealogy>  (38) 
O=C([N-]c1cccc(CN2CCC(C(=O)N3CCc4ccccc4C3)CC2)c1)c1ccc([O-])[n-]1 (protonated)
O=C([N-]c1cccc(CN2CCC(C(=O)N3CCc4ccccc4C3)CC2)c1)c1ccc([O-])[n-]1 (3D coordinates assigned)
O=C([N-]c1cccc(CN2CCC(C(=O)N3CCc4ccccc4C3)CC2)c1)c1ccc([O-])[n-]1 (nonaromatic ring conformer: 108.15806980775011 kcal/mol)

>  <smiles>  (38) 
O=C(Nc1cccc(CN2CCC(C(=O)N3CCc4ccccc4C3)CC2)c1)c1ccc(O)[nH]1

>  <score_type>  (38) 
oracle

>  <origin>  (38) 
adg

>  <m_score__min__energy>  (38) 
-17.420000000000002

>  <m_primary>  (38) 
energy

$$$$
38:0
     RDKit          3D

 49 51  0  0  0  0  0  0  0  0999 V2000
   58.0270   26.8080   42.6190 C   0  0  0  0  0  0  0  0  0  0  0  0
   58.2620   27.4490   43.9800 C   0  0  0  0  0  0  0  0  0  0  0  0
   57.9270   28.8340   43.9290 O   0  0  0  0  0  0  0  0  0  0  0  0
   56.7050   29.3260   44.3950 C   0  0  0  0  0  0  0  0  0  0  0  0
   56.0120   28.6600   45.2130 O   0  0  0  0  0  0  0  0  0  0  0  0
   56.1880   30.6340   43.8740 C   0  0  0  0  0  0  0  0  0  0  0  0
   57.0660   31.7740   44.3080 C   0  0  0  0  0  0  0  0  0  0  0  0
   57.9960   32.3720   43.4600 C   0  0  0  0  0  0  0  0  0  0  0  0
   58.7960   33.5710   44.3290 S   0  0  0  0  0  0  0  0  0  0  0  0
   57.9340   33.2640   45.7500 C   0  0  0  0  0  0  0  0  0  0  0  0
   58.0320   33.9110   46.8750 N   0  0  0  0  0  0  0  0  0  0  0  0
   59.1800   34.0170   47.7310 C   0  0  0  0  0  0  0  0  0  0  0  0
   59.2960   34.9670   48.5460 O   0  0  0  0  0  0  0  0  0  0  0  0
   60.1920   33.0070   47.6940 N   0  0  0  0  0  0  0  0  0  0  0  0
   59.9340   31.5990   47.6240 C   0  0  0  0  0  0  0  0  0  0  0  0
   59.6620   30.8460   48.7780 C   0  0  0  0  0  0  0  0  0  0  0  0
   59.4270   29.4720   48.6830 C   0  0  0  0  0  0  0  0  0  0  0  0
   59.4720   28.8330   47.4350 C   0  0  0  0  0  0  0  0  0  0  0  0
   59.2390   27.0920   47.3040 S   0  0  0  0  0  0  0  0  0  0  0  0
   59.6180   26.4580   48.6140 O   0  0  0  0  0  0  0  0  0  0  0  0
   60.1150   26.5090   46.2260 O   0  0  0  0  0  0  0  0  0  0  0  0
   57.5710   26.7380   46.9750 N   0  0  0  0  0  0  0  0  0  0  0  0
   57.0700   25.5960   46.2600 C   0  0  0  0  0  0  0  0  0  0  0  0
   57.9070   24.5200   45.8990 C   0  0  0  0  0  0  0  0  0  0  0  0
   57.3910   23.4240   45.2000 C   0  0  0  0  0  0  0  0  0  0  0  0
   56.0360   23.3830   44.8600 C   0  0  0  0  0  0  0  0  0  0  0  0
   55.1910   24.4380   45.2240 C   0  0  0  0  0  0  0  0  0  0  0  0
   55.7000   25.5420   45.9250 C   0  0  0  0  0  0  0  0  0  0  0  0
   54.8230   26.5690   46.2820 O   0  0  0  0  0  0  0  0  0  0  0  0
   59.7130   29.5900   46.2800 C   0  0  0  0  0  0  0  0  0  0  0  0
   59.9250   30.9680   46.3740 C   0  0  0  0  0  0  0  0  0  0  0  0
   57.0470   32.2630   45.5820 N   0  0  0  0  0  0  0  0  0  0  0  0
   57.6513   25.7833   42.7563 H   0  0  0  0  0  0  0  0  0  0  0  0
   57.2867   27.3980   42.0588 H   0  0  0  0  0  0  0  0  0  0  0  0
   58.9732   26.7797   42.0588 H   0  0  0  0  0  0  0  0  0  0  0  0
   57.6335   26.9493   44.7318 H   0  0  0  0  0  0  0  0  0  0  0  0
   59.3226   27.3429   44.2517 H   0  0  0  0  0  0  0  0  0  0  0  0
   56.1627   30.5982   42.7749 H   0  0  0  0  0  0  0  0  0  0  0  0
   55.1782   30.7969   44.2787 H   0  0  0  0  0  0  0  0  0  0  0  0
   58.1757   32.1070   42.4076 H   0  0  0  0  0  0  0  0  0  0  0  0
   59.6339   31.3400   49.7605 H   0  0  0  0  0  0  0  0  0  0  0  0
   59.2060   28.8895   49.5896 H   0  0  0  0  0  0  0  0  0  0  0  0
   58.9731   24.5429   46.1690 H   0  0  0  0  0  0  0  0  0  0  0  0
   58.0531   22.5924   44.9172 H   0  0  0  0  0  0  0  0  0  0  0  0
   55.6336   22.5218   44.3064 H   0  0  0  0  0  0  0  0  0  0  0  0
   54.1239   24.4015   44.9595 H   0  0  0  0  0  0  0  0  0  0  0  0
   55.1340   27.4150   46.7410 H   0  0  0  0  0  0  0  0  0  0  0  0
   59.7353   29.0977   45.2966 H   0  0  0  0  0  0  0  0  0  0  0  0
   60.0857   31.5603   45.4611 H   0  0  0  0  0  0  0  0  0  0  0  0
  1  2  1  0
  2  3  1  0
  3  4  1  0
  4  5  2  0
  4  6  1  0
  6  7  1  0
  7  8  2  0
  8  9  1  0
  9 10  1  0
 10 11  2  3
 11 12  1  0
 12 13  2  0
 12 14  1  0
 14 15  1  0
 15 16  2  0
 16 17  1  0
 17 18  2  0
 18 19  1  0
 19 20  2  0
 19 21  2  0
 19 22  1  0
 22 23  1  0
 23 24  2  0
 24 25  1  0
 25 26  2  0
 26 27  1  0
 27 28  2  0
 28 29  1  0
 18 30  1  0
 30 31  2  0
 10 32  1  0
 32  7  1  0
 31 15  1  0
 28 23  1  0
  1 33  1  0
  1 34  1  0
  1 35  1  0
  2 36  1  0
  2 37  1  0
  6 38  1  0
  6 39  1  0
  8 40  1  0
 16 41  1  0
 17 42  1  0
 24 43  1  0
 25 44  1  0
 26 45  1  0
 27 46  1  0
 29 47  1  0
 30 48  1  0
 31 49  1  0
M  CHG  3  14  -1  22  -1  32  -1
M  END
>  <UniqueID>  (39) 
36

>  <SMILES>  (39) 
CCOC(=O)Cc1csc(=NC(=O)[N-]c2ccc(S(=O)(=O)[N-]c3ccccc3O)cc2)[n-]1

>  <Energy>  (39) 
84.40475324284121

>  <Genealogy>  (39) 
CCOC(=O)Cc1csc(=NC(=O)[N-]c2ccc(S(=O)(=O)[N-]c3ccccc3O)cc2)[n-]1 (protonated)
CCOC(=O)Cc1csc(=NC(=O)[N-]c2ccc(S(=O)(=O)[N-]c3ccccc3O)cc2)[n-]1 (3D coordinates assigned)
CCOC(=O)Cc1csc(=NC(=O)[N-]c2ccc(S(=O)(=O)[N-]c3ccccc3O)cc2)[n-]1 (optimized conformer: 84.40475324284121 kcal/mol)

>  <smiles>  (39) 
CCOC(=O)Cc1csc(=NC(=O)Nc2ccc(S(=O)(=O)Nc3ccccc3O)cc2)[nH]1

>  <score_type>  (39) 
oracle

>  <origin>  (39) 
adg

>  <m_score__min__energy>  (39) 
-12.43

>  <m_primary>  (39) 
energy

$$$$
39:0
     RDKit          3D

 88 91  0  0  0  0  0  0  0  0999 V2000
   68.3580   35.2610   51.2520 C   0  0  0  0  0  0  0  0  0  0  0  0
   68.3470   33.9290   50.5040 C   0  0  0  0  0  0  0  0  0  0  0  0
   67.1190   33.0730   50.8600 C   0  0  0  0  0  0  0  0  0  0  0  0
   65.8540   33.9040   51.1310 C   0  0  0  0  0  0  0  0  0  0  0  0
   64.6590   33.3610   50.4550 N   0  0  0  0  0  0  0  0  0  0  0  0
   64.7210   31.9950   49.8950 C   0  0  0  0  0  0  0  0  0  0  0  0
   64.2390   30.9340   50.9000 C   0  0  0  0  0  0  0  0  0  0  0  0
   62.8350   30.4350   50.5550 C   0  0  0  0  0  0  0  0  0  0  0  0
   62.0740   30.0050   51.8030 C   0  0  0  0  0  0  0  0  0  0  0  0
   63.4220   34.1230   50.5090 C   0  0  0  0  0  0  0  0  0  0  0  0
   63.4510   35.3220   50.9020 O   0  0  0  0  0  0  0  0  0  0  0  0
   62.1040   33.5540   50.1350 C   0  0  0  0  0  0  0  0  0  0  0  0
   61.1800   33.1270   51.0160 N   0  0  0  0  0  0  0  0  0  0  0  0
   60.1440   32.6590   50.3400 N   0  0  0  0  0  0  0  0  0  0  0  0
   58.9980   32.0850   50.9880 C   0  0  0  0  0  0  0  0  0  0  0  0
   58.1190   32.9120   51.7010 C   0  0  0  0  0  0  0  0  0  0  0  0
   56.9690   32.3760   52.2910 C   0  0  0  0  0  0  0  0  0  0  0  0
   56.6880   31.0090   52.1760 C   0  0  0  0  0  0  0  0  0  0  0  0
   55.2090   30.3520   52.8760 S   0  0  0  0  0  0  0  0  0  0  0  0
   53.8410   31.2190   52.2790 N   0  0  0  0  0  0  0  0  0  0  0  0
   55.2600   30.4720   54.3740 O   0  0  0  0  0  0  0  0  0  0  0  0
   55.0820   28.8970   52.5170 O   0  0  0  0  0  0  0  0  0  0  0  0
   57.5850   30.1750   51.4960 C   0  0  0  0  0  0  0  0  0  0  0  0
   58.7400   30.7070   50.9130 C   0  0  0  0  0  0  0  0  0  0  0  0
   60.3700   32.7950   49.0110 C   0  0  0  0  0  0  0  0  0  0  0  0
   59.4280   32.4120   47.9310 C   0  0  0  0  0  0  0  0  0  0  0  0
   58.5940   33.3720   47.3370 C   0  0  0  0  0  0  0  0  0  0  0  0
   57.7480   33.0230   46.2820 C   0  0  0  0  0  0  0  0  0  0  0  0
   57.7660   31.7240   45.7680 C   0  0  0  0  0  0  0  0  0  0  0  0
   56.9680   31.4100   44.6220 N   0  0  0  0  0  0  0  0  0  0  0  0
   56.5790   29.7810   44.1800 S   0  0  0  0  0  0  0  0  0  0  0  0
   55.6250   29.1740   45.1720 O   0  0  0  0  0  0  0  0  0  0  0  0
   55.9340   29.7770   42.8210 O   0  0  0  0  0  0  0  0  0  0  0  0
   58.0840   28.8190   44.1370 C   0  0  0  0  0  0  0  0  0  0  0  0
   57.8110   27.3890   43.6530 C   0  0  0  0  0  0  0  0  0  0  0  0
   58.3490   26.4080   44.6230 N   0  0  0  0  0  0  0  0  0  0  0  0
   58.4120   26.9320   46.0060 C   0  0  0  0  0  0  0  0  0  0  0  0
   57.0310   26.9710   46.7030 C   0  0  0  0  0  0  0  0  0  0  0  0
   56.3050   25.6890   46.6130 N   0  0  0  0  0  0  0  0  0  0  0  0
   56.8120   24.6890   47.5670 C   0  0  0  0  0  0  0  0  0  0  0  0
   56.2550   25.1820   45.2270 C   0  0  0  0  0  0  0  0  0  0  0  0
   57.6510   25.1090   44.5830 C   0  0  0  0  0  0  0  0  0  0  0  0
   58.5800   30.7530   46.3680 C   0  0  0  0  0  0  0  0  0  0  0  0
   59.3870   31.0880   47.4590 C   0  0  0  0  0  0  0  0  0  0  0  0
   61.6200   33.3730   48.8470 C   0  0  0  0  0  0  0  0  0  0  0  0
   62.4060   33.8280   47.3400 Cl  0  0  0  0  0  0  0  0  0  0  0  0
   68.3564   35.0729   52.3358 H   0  0  0  0  0  0  0  0  0  0  0  0
   69.2609   35.8272   50.9794 H   0  0  0  0  0  0  0  0  0  0  0  0
   67.4646   35.8420   50.9794 H   0  0  0  0  0  0  0  0  0  0  0  0
   68.3373   34.1300   49.4226 H   0  0  0  0  0  0  0  0  0  0  0  0
   69.2464   33.3686   50.7988 H   0  0  0  0  0  0  0  0  0  0  0  0
   66.9149   32.3903   50.0220 H   0  0  0  0  0  0  0  0  0  0  0  0
   67.3576   32.5323   51.7877 H   0  0  0  0  0  0  0  0  0  0  0  0
   65.6685   33.9190   52.2151 H   0  0  0  0  0  0  0  0  0  0  0  0
   66.0294   34.9147   50.7339 H   0  0  0  0  0  0  0  0  0  0  0  0
   64.0843   31.9499   48.9991 H   0  0  0  0  0  0  0  0  0  0  0  0
   65.7710   31.7770   49.6503 H   0  0  0  0  0  0  0  0  0  0  0  0
   64.9355   30.0827   50.8832 H   0  0  0  0  0  0  0  0  0  0  0  0
   64.2073   31.3930   51.8992 H   0  0  0  0  0  0  0  0  0  0  0  0
   62.2797   31.2445   50.0587 H   0  0  0  0  0  0  0  0  0  0  0  0
   62.9315   29.5630   49.8915 H   0  0  0  0  0  0  0  0  0  0  0  0
   62.6304   30.3194   52.6983 H   0  0  0  0  0  0  0  0  0  0  0  0
   61.0792   30.4745   51.8059 H   0  0  0  0  0  0  0  0  0  0  0  0
   61.9629   28.9106   51.8059 H   0  0  0  0  0  0  0  0  0  0  0  0
   58.3341   33.9865   51.7971 H   0  0  0  0  0  0  0  0  0  0  0  0
   56.2828   33.0313   52.8475 H   0  0  0  0  0  0  0  0  0  0  0  0
   54.1970   31.8980   51.5680 H   0  0  0  0  0  0  0  0  0  0  0  0
   57.3802   29.0969   51.4201 H   0  0  0  0  0  0  0  0  0  0  0  0
   59.4480   30.0438   50.3944 H   0  0  0  0  0  0  0  0  0  0  0  0
   58.6068   34.4083   47.7056 H   0  0  0  0  0  0  0  0  0  0  0  0
   57.0658   33.7727   45.8547 H   0  0  0  0  0  0  0  0  0  0  0  0
   58.7984   29.2998   43.4526 H   0  0  0  0  0  0  0  0  0  0  0  0
   58.4973   28.7706   45.1553 H   0  0  0  0  0  0  0  0  0  0  0  0
   56.7258   27.2411   43.5510 H   0  0  0  0  0  0  0  0  0  0  0  0
   58.3040   27.2393   42.6811 H   0  0  0  0  0  0  0  0  0  0  0  0
   59.0831   26.2887   46.5940 H   0  0  0  0  0  0  0  0  0  0  0  0
   58.7801   27.9670   45.9485 H   0  0  0  0  0  0  0  0  0  0  0  0
   57.1807   27.2156   47.7650 H   0  0  0  0  0  0  0  0  0  0  0  0
   56.4236   27.7307   46.1893 H   0  0  0  0  0  0  0  0  0  0  0  0
   56.6344   25.0394   48.5945 H   0  0  0  0  0  0  0  0  0  0  0  0
   56.2892   23.7341   47.4097 H   0  0  0  0  0  0  0  0  0  0  0  0
   57.8913   24.5463   47.4097 H   0  0  0  0  0  0  0  0  0  0  0  0
   55.8153   24.1737   45.2344 H   0  0  0  0  0  0  0  0  0  0  0  0
   55.6461   25.8804   44.6341 H   0  0  0  0  0  0  0  0  0  0  0  0
   58.2535   24.3657   45.1256 H   0  0  0  0  0  0  0  0  0  0  0  0
   57.5230   24.8255   43.5279 H   0  0  0  0  0  0  0  0  0  0  0  0
   58.5836   29.7241   45.9789 H   0  0  0  0  0  0  0  0  0  0  0  0
   59.9927   30.3125   47.9506 H   0  0  0  0  0  0  0  0  0  0  0  0
  1  2  1  0
  2  3  1  0
  3  4  1  0
  4  5  1  0
  5  6  1  0
  6  7  1  0
  7  8  1  0
  8  9  1  0
  5 10  1  0
 10 11  2  0
 10 12  1  0
 12 13  2  0
 13 14  1  0
 14 15  1  0
 15 16  2  0
 16 17  1  0
 17 18  2  0
 18 19  1  0
 19 20  1  0
 19 21  2  0
 19 22  2  0
 18 23  1  0
 23 24  2  0
 14 25  1  0
 25 26  1  0
 26 27  2  0
 27 28  1  0
 28 29  2  0
 29 30  1  0
 30 31  1  0
 31 32  2  0
 31 33  2  0
 31 34  1  0
 34 35  1  0
 35 36  1  0
 36 37  1  0
 37 38  1  0
 38 39  1  0
 39 40  1  0
 39 41  1  0
 41 42  1  0
 29 43  1  0
 43 44  2  0
 25 45  2  0
 45 46  1  0
 45 12  1  0
 24 15  1  0
 44 26  1  0
 42 36  1  0
  1 47  1  0
  1 48  1  0
  1 49  1  0
  2 50  1  0
  2 51  1  0
  3 52  1  0
  3 53  1  0
  4 54  1  0
  4 55  1  0
  6 56  1  0
  6 57  1  0
  7 58  1  0
  7 59  1  0
  8 60  1  0
  8 61  1  0
  9 62  1  0
  9 63  1  0
  9 64  1  0
 16 65  1  0
 17 66  1  0
 20 67  1  0
 23 68  1  0
 24 69  1  0
 27 70  1  0
 28 71  1  0
 34 72  1  0
 34 73  1  0
 35 74  1  0
 35 75  1  0
 37 76  1  0
 37 77  1  0
 38 78  1  0
 38 79  1  0
 40 80  1  0
 40 81  1  0
 40 82  1  0
 41 83  1  0
 41 84  1  0
 42 85  1  0
 42 86  1  0
 43 87  1  0
 44 88  1  0
M  CHG  2  20  -1  30  -1
M  END
>  <UniqueID>  (40) 
37

>  <SMILES>  (40) 
CCCCN(CCCC)C(=O)c1nn(-c2ccc(S([NH-])(=O)=O)cc2)c(-c2ccc([N-]S(=O)(=O)CCN3CCN(C)CC3)cc2)c1Cl

>  <Energy>  (40) 
130.7544690748327

>  <Genealogy>  (40) 
CCCCN(CCCC)C(=O)c1nn(-c2ccc(S([NH-])(=O)=O)cc2)c(-c2ccc([N-]S(=O)(=O)CCN3CCN(C)CC3)cc2)c1Cl (protonated)
CCCCN(CCCC)C(=O)c1nn(-c2ccc(S([NH-])(=O)=O)cc2)c(-c2ccc([N-]S(=O)(=O)CCN3CCN(C)CC3)cc2)c1Cl (3D coordinates assigned)
CCCCN(CCCC)C(=O)c1nn(-c2ccc(S([NH-])(=O)=O)cc2)c(-c2ccc([N-]S(=O)(=O)CCN3CCN(C)CC3)cc2)c1Cl (nonaromatic ring conformer: 130.7544690748327 kcal/mol)

>  <smiles>  (40) 
CCCCN(CCCC)C(=O)c1nn(-c2ccc(S(N)(=O)=O)cc2)c(-c2ccc(NS(=O)(=O)CCN3CCN(C)CC3)cc2)c1Cl

>  <score_type>  (40) 
oracle

>  <origin>  (40) 
adg

>  <m_score__min__energy>  (40) 
-12.68

>  <m_primary>  (40) 
energy

$$$$
40:0
     RDKit          3D

 52 54  0  0  0  0  0  0  0  0999 V2000
   50.4590   33.6530   51.9950 H   0  0  0  0  0  0  0  0  0  0  0  0
   50.1800   32.6450   52.0030 N   0  0  0  0  0  0  0  0  0  0  0  0
   51.4860   31.7560   51.3030 S   0  0  0  0  0  0  0  0  0  0  0  0
   52.5420   32.7100   50.8190 O   0  0  0  0  0  0  0  0  0  0  0  0
   50.9780   30.9650   50.1310 O   0  0  0  0  0  0  0  0  0  0  0  0
   52.1700   30.6690   52.5070 C   0  0  0  0  0  0  0  0  0  0  0  0
   51.3670   30.1560   53.5330 C   0  0  0  0  0  0  0  0  0  0  0  0
   50.3010   30.4232   53.5807 H   0  0  0  0  0  0  0  0  0  0  0  0
   51.9150   29.3070   54.4950 C   0  0  0  0  0  0  0  0  0  0  0  0
   51.2792   28.9047   55.2975 H   0  0  0  0  0  0  0  0  0  0  0  0
   53.2700   28.9660   54.4420 C   0  0  0  0  0  0  0  0  0  0  0  0
   53.6941   28.2935   55.2022 H   0  0  0  0  0  0  0  0  0  0  0  0
   54.0950   29.4770   53.4230 C   0  0  0  0  0  0  0  0  0  0  0  0
   55.5340   29.1250   53.3680 C   0  0  0  0  0  0  0  0  0  0  0  0
   56.0910   28.6190   54.3790 O   0  0  0  0  0  0  0  0  0  0  0  0
   56.3040   29.4440   52.1960 N   0  0  0  0  0  0  0  0  0  0  0  0
   57.0000   30.5160   51.9360 C   0  0  0  0  0  0  0  0  0  0  0  0
   56.8310   31.6000   52.7420 N   0  0  0  0  0  0  0  0  0  0  0  0
   57.5020   32.7650   52.5490 C   0  0  0  0  0  0  0  0  0  0  0  0
   57.3370   33.6129   53.2300 H   0  0  0  0  0  0  0  0  0  0  0  0
   58.3990   32.8880   51.4900 C   0  0  0  0  0  0  0  0  0  0  0  0
   58.9534   33.8260   51.3389 H   0  0  0  0  0  0  0  0  0  0  0  0
   58.5890   31.8070   50.6190 C   0  0  0  0  0  0  0  0  0  0  0  0
   59.5270   31.9250   49.4470 C   0  0  0  0  0  0  0  0  0  0  0  0
   58.9533   31.8175   48.5146 H   0  0  0  0  0  0  0  0  0  0  0  0
   60.2869   31.1335   49.5247 H   0  0  0  0  0  0  0  0  0  0  0  0
   60.3720   33.5470   49.4460 S   0  0  0  0  0  0  0  0  0  0  0  0
   59.2220   34.4030   48.3110 C   0  0  0  0  0  0  0  0  0  0  0  0
   59.7015   35.3195   47.9366 H   0  0  0  0  0  0  0  0  0  0  0  0
   58.3021   34.6475   48.8623 H   0  0  0  0  0  0  0  0  0  0  0  0
   58.8630   33.5240   47.1450 C   0  0  0  0  0  0  0  0  0  0  0  0
   57.6340   33.6930   46.4900 C   0  0  0  0  0  0  0  0  0  0  0  0
   56.9367   34.4738   46.8278 H   0  0  0  0  0  0  0  0  0  0  0  0
   57.2910   32.8740   45.4100 C   0  0  0  0  0  0  0  0  0  0  0  0
   56.3284   33.0204   44.8982 H   0  0  0  0  0  0  0  0  0  0  0  0
   58.1650   31.8670   44.9740 C   0  0  0  0  0  0  0  0  0  0  0  0
   57.7980   31.0550   43.8460 N   0  0  0  0  0  0  0  0  0  0  0  0
   58.4300   31.0560   43.0130 H   0  0  0  0  0  0  0  0  0  0  0  0
   56.5650   30.3260   43.7450 C   0  0  0  0  0  0  0  0  0  0  0  0
   55.6150   30.5550   44.5420 O   0  0  0  0  0  0  0  0  0  0  0  0
   56.3630   29.3580   42.6260 C   0  0  0  0  0  0  0  0  0  0  0  0
   56.1547   28.3596   43.0380 H   0  0  0  0  0  0  0  0  0  0  0  0
   55.5136   29.6842   42.0079 H   0  0  0  0  0  0  0  0  0  0  0  0
   57.2720   29.3172   42.0079 H   0  0  0  0  0  0  0  0  0  0  0  0
   59.4090   31.7180   45.6140 C   0  0  0  0  0  0  0  0  0  0  0  0
   60.1162   30.9523   45.2625 H   0  0  0  0  0  0  0  0  0  0  0  0
   59.7520   32.5370   46.6940 C   0  0  0  0  0  0  0  0  0  0  0  0
   60.7238   32.4068   47.1926 H   0  0  0  0  0  0  0  0  0  0  0  0
   57.8850   30.6140   50.8410 C   0  0  0  0  0  0  0  0  0  0  0  0
   58.0223   29.7580   50.1640 H   0  0  0  0  0  0  0  0  0  0  0  0
   53.5310   30.3350   52.4590 C   0  0  0  0  0  0  0  0  0  0  0  0
   54.1648   30.7474   51.6601 H   0  0  0  0  0  0  0  0  0  0  0  0
  1  2  1  0
  2  3  1  0
  3  4  2  0
  3  5  2  0
  3  6  1  0
  6  7  2  0
  7  8  1  0
  7  9  1  0
  9 10  1  0
  9 11  2  0
 11 12  1  0
 11 13  1  0
 13 14  1  0
 14 15  2  0
 14 16  1  0
 16 17  2  0
 17 18  1  0
 18 19  1  0
 19 20  1  0
 19 21  2  0
 21 22  1  0
 21 23  1  0
 23 24  1  0
 24 25  1  0
 24 26  1  0
 24 27  1  0
 27 28  1  0
 28 29  1  0
 28 30  1  0
 28 31  1  0
 31 32  2  0
 32 33  1  0
 32 34  1  0
 34 35  1  0
 34 36  2  0
 36 37  1  0
 37 38  1  0
 37 39  1  0
 39 40  2  0
 39 41  1  0
 41 42  1  0
 41 43  1  0
 41 44  1  0
 36 45  1  0
 45 46  1  0
 45 47  2  0
 47 48  1  0
 23 49  2  0
 49 50  1  0
 13 51  2  0
 51 52  1  0
 51  6  1  0
 49 17  1  0
 47 31  1  0
M  CHG  2   2  -1  18  -1
M  END
>  <UniqueID>  (41) 
38

>  <SMILES>  (41) 
CC(=O)Nc1ccc(CSCc2cc[n-]/c(=N/C(=O)c3cccc(S([NH-])(=O)=O)c3)c2)cc1

>  <Energy>  (41) 
60.676714742032964

>  <Genealogy>  (41) 
CC(=O)Nc1ccc(CSCc2cc[n-]c(=NC(=O)c3cccc(S([NH-])(=O)=O)c3)c2)cc1 (protonated)
CC(=O)Nc1ccc(CSCc2cc[n-]/c(=N/C(=O)c3cccc(S([NH-])(=O)=O)c3)c2)cc1 (cis-trans isomerization)
CC(=O)Nc1ccc(CSCc2cc[n-]/c(=N/C(=O)c3cccc(S([NH-])(=O)=O)c3)c2)cc1 (3D coordinates assigned)
CC(=O)Nc1ccc(CSCc2cc[n-]/c(=N/C(=O)c3cccc(S([NH-])(=O)=O)c3)c2)cc1 (optimized conformer: 60.676714742032964 kcal/mol)

>  <smiles>  (41) 
CC(=O)Nc1ccc(CSCc2cc[nH]c(=NC(=O)c3cccc(S(N)(=O)=O)c3)c2)cc1

>  <score_type>  (41) 
oracle

>  <origin>  (41) 
adg

>  <m_score__min__energy>  (41) 
-13.44

>  <m_primary>  (41) 
energy

$$$$
41:0
     RDKit          3D

 48 51  0  0  0  0  0  0  0  0999 V2000
   54.2650   29.5220   54.6450 C   0  0  0  0  0  0  0  0  0  0  0  0
   54.6980   29.9630   53.4550 C   0  0  0  0  0  0  0  0  0  0  0  0
   56.0360   30.1700   53.1280 C   0  0  0  0  0  0  0  0  0  0  0  0
   57.2140   29.8450   54.0090 C   0  0  0  0  0  0  0  0  0  0  0  0
   56.0470   30.8510   51.9100 C   0  0  0  0  0  0  0  0  0  0  0  0
   57.2470   31.3840   51.1420 C   0  0  0  0  0  0  0  0  0  0  0  0
   58.2290   30.2620   50.7070 C   0  0  0  0  0  0  0  0  0  0  0  0
   59.7010   30.4970   51.1080 C   0  0  0  0  0  0  0  0  0  0  0  0
   60.1280   31.8970   50.9300 N   0  0  0  0  0  0  0  0  0  0  0  0
   61.5210   32.1770   50.6440 C   0  0  0  0  0  0  0  0  0  0  0  0
   62.2810   31.2530   50.2470 O   0  0  0  0  0  0  0  0  0  0  0  0
   62.0910   33.5650   50.7880 C   0  0  0  0  0  0  0  0  0  0  0  0
   63.4850   33.7350   50.2010 C   0  0  0  0  0  0  0  0  0  0  0  0
   62.2890   34.3310   49.4830 C   0  0  0  0  0  0  0  0  0  0  0  0
   59.1730   33.0040   51.1360 C   0  0  0  0  0  0  0  0  0  0  0  0
   57.9250   32.5410   51.8880 C   0  0  0  0  0  0  0  0  0  0  0  0
   54.7810   31.0080   51.4710 N   0  0  0  0  0  0  0  0  0  0  0  0
   53.9490   30.4470   52.3750 C   0  0  0  0  0  0  0  0  0  0  0  0
   52.6200   30.4090   52.1720 C   0  0  0  0  0  0  0  0  0  0  0  0
   51.9260   30.8370   50.9480 C   0  0  0  0  0  0  0  0  0  0  0  0
   51.7860   30.0630   49.8550 N   0  0  0  0  0  0  0  0  0  0  0  0
   51.0210   30.8190   49.0350 C   0  0  0  0  0  0  0  0  0  0  0  0
   50.6830   30.4380   47.8810 O   0  0  0  0  0  0  0  0  0  0  0  0
   50.6430   32.0120   49.5460 N   0  0  0  0  0  0  0  0  0  0  0  0
   51.2130   32.0020   50.7660 C   0  0  0  0  0  0  0  0  0  0  0  0
   51.0720   33.0240   51.7020 O   0  0  0  0  0  0  0  0  0  0  0  0
   53.1880   29.3851   54.8221 H   0  0  0  0  0  0  0  0  0  0  0  0
   54.9868   29.2972   55.4441 H   0  0  0  0  0  0  0  0  0  0  0  0
   56.9161   29.9272   55.0647 H   0  0  0  0  0  0  0  0  0  0  0  0
   57.5542   28.8194   53.8028 H   0  0  0  0  0  0  0  0  0  0  0  0
   58.0319   30.5510   53.8028 H   0  0  0  0  0  0  0  0  0  0  0  0
   56.8689   31.8067   50.1994 H   0  0  0  0  0  0  0  0  0  0  0  0
   57.8959   29.3193   51.1657 H   0  0  0  0  0  0  0  0  0  0  0  0
   58.2077   30.2417   49.6074 H   0  0  0  0  0  0  0  0  0  0  0  0
   59.8241   30.2244   52.1666 H   0  0  0  0  0  0  0  0  0  0  0  0
   60.3256   29.8753   50.4497 H   0  0  0  0  0  0  0  0  0  0  0  0
   61.6095   33.7866   51.7519 H   0  0  0  0  0  0  0  0  0  0  0  0
   64.2128   34.3945   50.6964 H   0  0  0  0  0  0  0  0  0  0  0  0
   64.2971   33.0490   49.9185 H   0  0  0  0  0  0  0  0  0  0  0  0
   62.1495   35.4219   49.4590 H   0  0  0  0  0  0  0  0  0  0  0  0
   61.8753   34.2557   48.4666 H   0  0  0  0  0  0  0  0  0  0  0  0
   59.6662   33.7968   51.7176 H   0  0  0  0  0  0  0  0  0  0  0  0
   58.8606   33.3758   50.1490 H   0  0  0  0  0  0  0  0  0  0  0  0
   58.2131   32.2034   52.8945 H   0  0  0  0  0  0  0  0  0  0  0  0
   57.2191   33.3817   51.9579 H   0  0  0  0  0  0  0  0  0  0  0  0
   54.4980   31.4590   50.5680 H   0  0  0  0  0  0  0  0  0  0  0  0
   51.9977   30.0241   52.9933 H   0  0  0  0  0  0  0  0  0  0  0  0
   51.4850   32.9410   52.6240 H   0  0  0  0  0  0  0  0  0  0  0  0
  1  2  2  0
  2  3  1  0
  3  4  1  0
  3  5  2  0
  5  6  1  0
  6  7  1  0
  7  8  1  0
  8  9  1  0
  9 10  1  0
 10 11  2  0
 10 12  1  0
 12 13  1  0
 13 14  1  0
  9 15  1  0
 15 16  1  0
  5 17  1  0
 17 18  1  0
 18 19  2  3
 19 20  1  0
 20 21  1  0
 21 22  1  0
 22 23  2  0
 22 24  1  0
 24 25  1  0
 25 26  1  0
 18  2  1  0
 25 20  2  0
 16  6  1  0
 14 12  1  0
  1 27  1  0
  1 28  1  0
  4 29  1  0
  4 30  1  0
  4 31  1  0
  6 32  1  0
  7 33  1  0
  7 34  1  0
  8 35  1  0
  8 36  1  0
 12 37  1  0
 13 38  1  0
 13 39  1  0
 14 40  1  0
 14 41  1  0
 15 42  1  0
 15 43  1  0
 16 44  1  0
 16 45  1  0
 17 46  1  0
 19 47  1  0
 26 48  1  0
M  CHG  2  21  -1  24  -1
M  END
>  <UniqueID>  (42) 
39

>  <SMILES>  (42) 
C=c1c(C)c(C2CCN(C(=O)C3CC3)CC2)[nH]c1=Cc1[n-]c(=O)[n-]c1O

>  <Energy>  (42) 
386.4353626840481

>  <Genealogy>  (42) 
C=c1c(C)c(C2CCN(C(=O)C3CC3)CC2)[nH]c1=Cc1[n-]c(=O)[n-]c1O (protonated)
C=c1c(C)c(C2CCN(C(=O)C3CC3)CC2)[nH]c1=Cc1[n-]c(=O)[n-]c1O (3D coordinates assigned)
C=c1c(C)c(C2CCN(C(=O)C3CC3)CC2)[nH]c1=Cc1[n-]c(=O)[n-]c1O (nonaromatic ring conformer: 386.4353626840481 kcal/mol)

>  <smiles>  (42) 
C=c1c(C)c(C2CCN(C(=O)C3CC3)CC2)[nH]c1=Cc1[nH]c(=O)[nH]c1O

>  <score_type>  (42) 
oracle

>  <origin>  (42) 
adg

>  <m_score__min__energy>  (42) 
-13.630000000000001

>  <m_primary>  (42) 
energy

$$$$
42:0
     RDKit          3D

 70 74  0  0  0  0  0  0  0  0999 V2000
   62.6330   34.3870   49.3290 C   0  0  0  0  0  0  0  0  0  0  0  0
   63.7420   33.5170   48.7350 C   0  0  0  0  0  0  0  0  0  0  0  0
   63.3580   32.8360   47.4780 N   0  0  0  0  0  0  0  0  0  0  0  0
   62.5670   31.5920   47.6460 C   0  0  0  0  0  0  0  0  0  0  0  0
   61.1130   31.7250   47.1690 C   0  0  0  0  0  0  0  0  0  0  0  0
   60.6830   33.1240   47.2820 N   0  0  0  0  0  0  0  0  0  0  0  0
   59.2150   33.3020   47.2200 C   0  0  0  0  0  0  0  0  0  0  0  0
   58.5810   32.7640   45.9540 C   0  0  0  0  0  0  0  0  0  0  0  0
   58.6580   33.4880   44.7520 C   0  0  0  0  0  0  0  0  0  0  0  0
   58.1020   32.9690   43.5780 C   0  0  0  0  0  0  0  0  0  0  0  0
   57.4620   31.7270   43.5920 C   0  0  0  0  0  0  0  0  0  0  0  0
   57.3710   30.9920   44.7870 C   0  0  0  0  0  0  0  0  0  0  0  0
   56.6770   29.6850   44.8290 C   0  0  0  0  0  0  0  0  0  0  0  0
   55.4200   29.6700   44.8620 O   0  0  0  0  0  0  0  0  0  0  0  0
   57.3760   28.4320   44.7670 N   0  0  0  0  0  0  0  0  0  0  0  0
   58.1820   27.8320   45.7920 C   0  0  0  0  0  0  0  0  0  0  0  0
   58.4010   26.4460   45.8500 C   0  0  0  0  0  0  0  0  0  0  0  0
   59.1610   25.8950   46.8880 C   0  0  0  0  0  0  0  0  0  0  0  0
   59.7200   26.7230   47.8620 C   0  0  0  0  0  0  0  0  0  0  0  0
   59.5430   28.1130   47.7890 C   0  0  0  0  0  0  0  0  0  0  0  0
   60.1460   28.9850   48.7480 N   0  0  0  0  0  0  0  0  0  0  0  0
   59.4240   29.7100   49.7490 C   0  0  0  0  0  0  0  0  0  0  0  0
   58.2290   29.4070   50.0200 O   0  0  0  0  0  0  0  0  0  0  0  0
   60.0640   30.8440   50.4370 C   0  0  0  0  0  0  0  0  0  0  0  0
   59.4370   31.9860   50.9290 C   0  0  0  0  0  0  0  0  0  0  0  0
   57.9910   32.3420   50.7790 C   0  0  0  0  0  0  0  0  0  0  0  0
   60.3390   32.7870   51.5460 N   0  0  0  0  0  0  0  0  0  0  0  0
   61.4950   32.1010   51.4250 C   0  0  0  0  0  0  0  0  0  0  0  0
   62.7230   32.4890   51.9560 C   0  0  0  0  0  0  0  0  0  0  0  0
   63.8250   31.6250   51.7760 C   0  0  0  0  0  0  0  0  0  0  0  0
   65.1520   31.9850   52.3690 C   0  0  0  0  0  0  0  0  0  0  0  0
   63.6560   30.4050   51.0860 C   0  0  0  0  0  0  0  0  0  0  0  0
   62.3950   30.0650   50.5750 C   0  0  0  0  0  0  0  0  0  0  0  0
   61.3660   30.9360   50.7590 N   0  0  0  0  0  0  0  0  0  0  0  0
   58.8030   28.6600   46.7340 C   0  0  0  0  0  0  0  0  0  0  0  0
   57.9150   31.5270   45.9680 C   0  0  0  0  0  0  0  0  0  0  0  0
   61.4090   33.9680   46.3190 C   0  0  0  0  0  0  0  0  0  0  0  0
   62.9350   33.7350   46.3810 C   0  0  0  0  0  0  0  0  0  0  0  0
   62.6840   34.3470   50.4271 H   0  0  0  0  0  0  0  0  0  0  0  0
   62.7631   35.4265   48.9935 H   0  0  0  0  0  0  0  0  0  0  0  0
   61.6544   34.0132   48.9935 H   0  0  0  0  0  0  0  0  0  0  0  0
   64.6130   34.1570   48.5307 H   0  0  0  0  0  0  0  0  0  0  0  0
   63.9614   32.7302   49.4717 H   0  0  0  0  0  0  0  0  0  0  0  0
   63.0513   30.7902   47.0693 H   0  0  0  0  0  0  0  0  0  0  0  0
   62.5366   31.3692   48.7228 H   0  0  0  0  0  0  0  0  0  0  0  0
   61.0413   31.4038   46.1194 H   0  0  0  0  0  0  0  0  0  0  0  0
   60.4648   31.0923   47.7931 H   0  0  0  0  0  0  0  0  0  0  0  0
   58.7671   32.7813   48.0792 H   0  0  0  0  0  0  0  0  0  0  0  0
   59.0254   34.3854   47.2347 H   0  0  0  0  0  0  0  0  0  0  0  0
   59.1580   34.4677   44.7342 H   0  0  0  0  0  0  0  0  0  0  0  0
   58.1689   33.5406   42.6406 H   0  0  0  0  0  0  0  0  0  0  0  0
   57.0281   31.3232   42.6654 H   0  0  0  0  0  0  0  0  0  0  0  0
   57.9735   25.7909   45.0766 H   0  0  0  0  0  0  0  0  0  0  0  0
   59.3179   24.8073   46.9360 H   0  0  0  0  0  0  0  0  0  0  0  0
   60.3001   26.2856   48.6880 H   0  0  0  0  0  0  0  0  0  0  0  0
   57.5358   32.4541   51.7741 H   0  0  0  0  0  0  0  0  0  0  0  0
   57.9019   33.2889   50.2263 H   0  0  0  0  0  0  0  0  0  0  0  0
   57.4725   31.5447   50.2263 H   0  0  0  0  0  0  0  0  0  0  0  0
   62.8308   33.4395   52.4990 H   0  0  0  0  0  0  0  0  0  0  0  0
   65.0806   31.9656   53.4665 H   0  0  0  0  0  0  0  0  0  0  0  0
   65.9103   31.2601   52.0381 H   0  0  0  0  0  0  0  0  0  0  0  0
   65.4400   32.9937   52.0381 H   0  0  0  0  0  0  0  0  0  0  0  0
   64.5093   29.7243   50.9498 H   0  0  0  0  0  0  0  0  0  0  0  0
   62.2415   29.1171   50.0384 H   0  0  0  0  0  0  0  0  0  0  0  0
   58.7086   29.7523   46.6445 H   0  0  0  0  0  0  0  0  0  0  0  0
   57.8182   30.9714   46.9124 H   0  0  0  0  0  0  0  0  0  0  0  0
   61.0549   33.7341   45.3041 H   0  0  0  0  0  0  0  0  0  0  0  0
   61.2151   35.0200   46.5753 H   0  0  0  0  0  0  0  0  0  0  0  0
   63.2574   33.2931   45.4267 H   0  0  0  0  0  0  0  0  0  0  0  0
   63.4010   34.7132   46.5708 H   0  0  0  0  0  0  0  0  0  0  0  0
  1  2  1  0
  2  3  1  0
  3  4  1  0
  4  5  1  0
  5  6  1  0
  6  7  1  0
  7  8  1  0
  8  9  2  0
  9 10  1  0
 10 11  2  0
 11 12  1  0
 12 13  1  0
 13 14  2  0
 13 15  1  0
 15 16  1  0
 16 17  2  0
 17 18  1  0
 18 19  2  0
 19 20  1  0
 20 21  1  0
 21 22  1  0
 22 23  2  0
 22 24  1  0
 24 25  2  0
 25 26  1  0
 25 27  1  0
 27 28  2  0
 28 29  1  0
 29 30  2  0
 30 31  1  0
 30 32  1  0
 32 33  2  0
 33 34  1  0
 20 35  2  0
 12 36  2  0
  6 37  1  0
 37 38  1  0
 38  3  1  0
 36  8  1  0
 35 16  1  0
 34 24  1  0
 34 28  1  0
  1 39  1  0
  1 40  1  0
  1 41  1  0
  2 42  1  0
  2 43  1  0
  4 44  1  0
  4 45  1  0
  5 46  1  0
  5 47  1  0
  7 48  1  0
  7 49  1  0
  9 50  1  0
 10 51  1  0
 11 52  1  0
 17 53  1  0
 18 54  1  0
 19 55  1  0
 26 56  1  0
 26 57  1  0
 26 58  1  0
 29 59  1  0
 31 60  1  0
 31 61  1  0
 31 62  1  0
 32 63  1  0
 33 64  1  0
 35 65  1  0
 36 66  1  0
 37 67  1  0
 37 68  1  0
 38 69  1  0
 38 70  1  0
M  CHG  2  15  -1  21  -1
M  END
>  <UniqueID>  (43) 
40

>  <SMILES>  (43) 
CCN1CCN(Cc2cccc(C(=O)[N-]c3cccc([N-]C(=O)c4c(C)nc5cc(C)ccn45)c3)c2)CC1

>  <Energy>  (43) 
139.12350594009686

>  <Genealogy>  (43) 
CCN1CCN(Cc2cccc(C(=O)[N-]c3cccc([N-]C(=O)c4c(C)nc5cc(C)ccn45)c3)c2)CC1 (protonated)
CCN1CCN(Cc2cccc(C(=O)[N-]c3cccc([N-]C(=O)c4c(C)nc5cc(C)ccn45)c3)c2)CC1 (3D coordinates assigned)
CCN1CCN(Cc2cccc(C(=O)[N-]c3cccc([N-]C(=O)c4c(C)nc5cc(C)ccn45)c3)c2)CC1 (nonaromatic ring conformer: 139.12350594009686 kcal/mol)

>  <smiles>  (43) 
CCN1CCN(Cc2cccc(C(=O)Nc3cccc(NC(=O)c4c(C)nc5cc(C)ccn45)c3)c2)CC1

>  <score_type>  (43) 
oracle

>  <origin>  (43) 
adg

>  <m_score__min__energy>  (43) 
-12.449999999999999

>  <m_primary>  (43) 
energy

$$$$
43:0
     RDKit          3D

 61 64  0  0  0  0  0  0  0  0999 V2000
   58.8840   24.9940   45.7160 O   0  0  0  0  0  0  0  0  0  0  0  0
   57.7140   25.3800   45.4430 C   0  0  0  0  0  0  0  0  0  0  0  0
   57.4240   26.7860   45.3500 N   0  0  0  0  0  0  0  0  0  0  0  0
   58.2340   27.8160   45.9430 C   0  0  0  0  0  0  0  0  0  0  0  0
   59.1030   28.6060   45.1710 C   0  0  0  0  0  0  0  0  0  0  0  0
   59.8950   29.5860   45.7760 C   0  0  0  0  0  0  0  0  0  0  0  0
   59.8400   29.7880   47.1650 C   0  0  0  0  0  0  0  0  0  0  0  0
   60.6920   30.8090   47.8120 C   0  0  0  0  0  0  0  0  0  0  0  0
   61.5720   30.4450   48.6390 O   0  0  0  0  0  0  0  0  0  0  0  0
   60.5360   32.2080   47.5160 N   0  0  0  0  0  0  0  0  0  0  0  0
   61.7170   33.0770   47.5050 C   0  0  0  0  0  0  0  0  0  0  0  0
   61.5690   34.2110   46.4670 C   0  0  0  0  0  0  0  0  0  0  0  0
   60.1660   34.6470   46.2280 N   0  0  0  0  0  0  0  0  0  0  0  0
   59.6260   34.1840   44.9250 C   0  0  0  0  0  0  0  0  0  0  0  0
   58.1110   33.9640   45.0140 C   0  0  0  0  0  0  0  0  0  0  0  0
   57.6660   32.7520   44.2390 C   0  0  0  0  0  0  0  0  0  0  0  0
   57.8080   32.7150   42.8420 C   0  0  0  0  0  0  0  0  0  0  0  0
   57.3640   31.6030   42.1180 C   0  0  0  0  0  0  0  0  0  0  0  0
   56.7700   30.5280   42.7820 C   0  0  0  0  0  0  0  0  0  0  0  0
   56.6180   30.5600   44.1700 C   0  0  0  0  0  0  0  0  0  0  0  0
   57.0630   31.6680   44.8990 C   0  0  0  0  0  0  0  0  0  0  0  0
   59.2690   34.3270   47.3570 C   0  0  0  0  0  0  0  0  0  0  0  0
   59.2000   32.8130   47.5980 C   0  0  0  0  0  0  0  0  0  0  0  0
   59.0010   28.9720   47.9410 C   0  0  0  0  0  0  0  0  0  0  0  0
   58.2060   27.9960   47.3340 C   0  0  0  0  0  0  0  0  0  0  0  0
   56.6630   24.3540   45.0750 C   0  0  2  0  0  0  0  0  0  0  0  0
   56.4170   24.2910   43.6330 N   0  0  0  0  0  0  0  0  0  0  0  0
   55.0880   23.6920   43.4920 C   0  0  0  0  0  0  0  0  0  0  0  0
   54.3480   23.8430   44.8210 C   0  0  0  0  0  0  0  0  0  0  0  0
   55.3050   24.5960   45.7300 C   0  0  2  0  0  0  0  0  0  0  0  0
   54.9900   25.9660   45.7250 O   0  0  0  0  0  0  0  0  0  0  0  0
   56.6150   27.0790   44.7580 H   0  0  0  0  0  0  0  0  0  0  0  0
   59.1602   28.4520   44.0833 H   0  0  0  0  0  0  0  0  0  0  0  0
   60.5658   30.2032   45.1603 H   0  0  0  0  0  0  0  0  0  0  0  0
   61.8455   33.5198   48.5037 H   0  0  0  0  0  0  0  0  0  0  0  0
   62.5928   32.4695   47.2333 H   0  0  0  0  0  0  0  0  0  0  0  0
   62.1433   35.0794   46.8220 H   0  0  0  0  0  0  0  0  0  0  0  0
   61.9408   33.8123   45.5116 H   0  0  0  0  0  0  0  0  0  0  0  0
   59.8363   34.9427   44.1568 H   0  0  0  0  0  0  0  0  0  0  0  0
   60.1071   33.2306   44.6613 H   0  0  0  0  0  0  0  0  0  0  0  0
   57.8338   33.8307   46.0701 H   0  0  0  0  0  0  0  0  0  0  0  0
   57.6156   34.8442   44.5783 H   0  0  0  0  0  0  0  0  0  0  0  0
   58.2698   33.5632   42.3154 H   0  0  0  0  0  0  0  0  0  0  0  0
   57.4830   31.5757   41.0248 H   0  0  0  0  0  0  0  0  0  0  0  0
   56.4213   29.6547   42.2112 H   0  0  0  0  0  0  0  0  0  0  0  0
   56.1477   29.7128   44.6907 H   0  0  0  0  0  0  0  0  0  0  0  0
   56.9405   31.6906   45.9919 H   0  0  0  0  0  0  0  0  0  0  0  0
   59.6466   34.8183   48.2659 H   0  0  0  0  0  0  0  0  0  0  0  0
   58.2589   34.6876   47.1128 H   0  0  0  0  0  0  0  0  0  0  0  0
   58.7807   32.6261   48.5976 H   0  0  0  0  0  0  0  0  0  0  0  0
   58.5619   32.3625   46.8235 H   0  0  0  0  0  0  0  0  0  0  0  0
   58.9694   29.1018   49.0329 H   0  0  0  0  0  0  0  0  0  0  0  0
   57.5524   27.3632   47.9525 H   0  0  0  0  0  0  0  0  0  0  0  0
   57.0941   23.4126   45.4464 H   0  0  0  0  0  0  0  0  0  0  0  0
   56.3580   25.2690   43.2600 H   0  0  0  0  0  0  0  0  0  0  0  0
   54.5307   24.2072   42.6957 H   0  0  0  0  0  0  0  0  0  0  0  0
   55.1788   22.6279   43.2284 H   0  0  0  0  0  0  0  0  0  0  0  0
   53.4187   24.4148   44.6817 H   0  0  0  0  0  0  0  0  0  0  0  0
   54.0620   22.8687   45.2439 H   0  0  0  0  0  0  0  0  0  0  0  0
   55.2689   24.2695   46.7798 H   0  0  0  0  0  0  0  0  0  0  0  0
   55.3560   26.3360   44.8790 H   0  0  0  0  0  0  0  0  0  0  0  0
  1  2  2  0
  2  3  1  0
  3  4  1  0
  4  5  2  0
  5  6  1  0
  6  7  2  0
  7  8  1  0
  8  9  2  0
  8 10  1  0
 10 11  1  0
 11 12  1  0
 12 13  1  0
 13 14  1  0
 14 15  1  0
 15 16  1  0
 16 17  2  0
 17 18  1  0
 18 19  2  0
 19 20  1  0
 20 21  2  0
 13 22  1  0
 22 23  1  0
  7 24  1  0
 24 25  2  0
  2 26  1  0
 26 27  1  0
 27 28  1  0
 28 29  1  0
 29 30  1  0
 30 31  1  0
 25  4  1  0
 30 26  1  0
 23 10  1  0
 21 16  1  0
  3 32  1  0
  5 33  1  0
  6 34  1  0
 11 35  1  0
 11 36  1  0
 12 37  1  0
 12 38  1  0
 14 39  1  0
 14 40  1  0
 15 41  1  0
 15 42  1  0
 17 43  1  0
 18 44  1  0
 19 45  1  0
 20 46  1  0
 21 47  1  0
 22 48  1  0
 22 49  1  0
 23 50  1  0
 23 51  1  0
 24 52  1  0
 25 53  1  0
 26 54  1  1
 27 55  1  0
 28 56  1  0
 28 57  1  0
 29 58  1  0
 29 59  1  0
 30 60  1  1
 31 61  1  0
M  END
>  <UniqueID>  (44) 
41

>  <SMILES>  (44) 
O=C(Nc1ccc(C(=O)N2CCN(CCc3ccccc3)CC2)cc1)[C@@H]1NCC[C@@H]1O

>  <Energy>  (44) 
80.56429442448439

>  <Genealogy>  (44) 
O=C(Nc1ccc(C(=O)N2CCN(CCc3ccccc3)CC2)cc1)[C@@H]1NCC[C@@H]1O (chirality)
O=C(Nc1ccc(C(=O)N2CCN(CCc3ccccc3)CC2)cc1)[C@@H]1NCC[C@@H]1O (3D coordinates assigned)
O=C(Nc1ccc(C(=O)N2CCN(CCc3ccccc3)CC2)cc1)[C@@H]1NCC[C@@H]1O (nonaromatic ring conformer: 80.56429442448439 kcal/mol)

>  <smiles>  (44) 
O=C(Nc1ccc(C(=O)N2CCN(CCc3ccccc3)CC2)cc1)C1NCCC1O

>  <score_type>  (44) 
oracle

>  <origin>  (44) 
adg

>  <m_score__min__energy>  (44) 
-10.449999999999999

>  <m_primary>  (44) 
energy

$$$$
44:0
     RDKit          3D

 39 41  0  0  0  0  0  0  0  0999 V2000
   63.6020   33.5150   49.0560 H   0  0  0  0  0  0  0  0  0  0  0  0
   62.8170   34.2030   49.0130 N   0  0  0  0  0  0  0  0  0  0  0  0
   61.6390   33.8860   48.5780 C   0  0  0  0  0  0  0  0  0  0  0  0
   61.3810   33.9480   47.2440 N   0  0  0  0  0  0  0  0  0  0  0  0
   60.1610   33.6360   46.7340 C   0  0  0  0  0  0  0  0  0  0  0  0
   59.9859   33.7009   45.6500 H   0  0  0  0  0  0  0  0  0  0  0  0
   59.1290   33.2330   47.5840 C   0  0  0  0  0  0  0  0  0  0  0  0
   58.1376   32.9907   47.1735 H   0  0  0  0  0  0  0  0  0  0  0  0
   59.3620   33.1390   48.9590 C   0  0  0  0  0  0  0  0  0  0  0  0
   58.3070   32.7470   49.7970 O   0  0  0  0  0  0  0  0  0  0  0  0
   58.3050   31.6160   50.6280 C   0  0  0  0  0  0  0  0  0  0  0  0
   59.2500   30.5860   50.4820 C   0  0  0  0  0  0  0  0  0  0  0  0
   60.0307   30.6635   49.7110 H   0  0  0  0  0  0  0  0  0  0  0  0
   59.2010   29.4640   51.3130 C   0  0  0  0  0  0  0  0  0  0  0  0
   59.9466   28.6635   51.1982 H   0  0  0  0  0  0  0  0  0  0  0  0
   58.2080   29.3560   52.2890 C   0  0  0  0  0  0  0  0  0  0  0  0
   58.1734   28.4695   52.9393 H   0  0  0  0  0  0  0  0  0  0  0  0
   57.2520   30.3760   52.4440 C   0  0  0  0  0  0  0  0  0  0  0  0
   56.2030   30.2490   53.4240 N   0  0  0  0  0  0  0  0  0  0  0  0
   55.8290   31.1960   53.6660 H   0  0  0  0  0  0  0  0  0  0  0  0
   56.5870   29.8190   54.2990 H   0  0  0  0  0  0  0  0  0  0  0  0
   55.1190   29.4090   52.8950 C   0  0  0  0  0  0  0  0  0  0  0  0
   55.4709   28.8906   51.9909 H   0  0  0  0  0  0  0  0  0  0  0  0
   54.8289   28.6767   53.6628 H   0  0  0  0  0  0  0  0  0  0  0  0
   53.9200   30.2530   52.5480 C   0  0  0  0  0  0  0  0  0  0  0  0
   52.9400   30.5240   53.5180 C   0  0  0  0  0  0  0  0  0  0  0  0
   53.0337   30.0953   54.5267 H   0  0  0  0  0  0  0  0  0  0  0  0
   51.8460   31.3370   53.2050 C   0  0  0  0  0  0  0  0  0  0  0  0
   51.0771   31.5395   53.9651 H   0  0  0  0  0  0  0  0  0  0  0  0
   51.7280   31.8930   51.9270 C   0  0  0  0  0  0  0  0  0  0  0  0
   50.6410   32.7000   51.6180 O   0  0  0  0  0  0  0  0  0  0  0  0
   52.7080   31.6380   50.9620 C   0  0  0  0  0  0  0  0  0  0  0  0
   52.6167   32.0775   49.9577 H   0  0  0  0  0  0  0  0  0  0  0  0
   53.8030   30.8260   51.2710 C   0  0  0  0  0  0  0  0  0  0  0  0
   54.5756   30.6351   50.5116 H   0  0  0  0  0  0  0  0  0  0  0  0
   57.3000   31.4950   51.5950 C   0  0  0  0  0  0  0  0  0  0  0  0
   56.5398   32.2842   51.6914 H   0  0  0  0  0  0  0  0  0  0  0  0
   60.6270   33.4850   49.4640 C   0  0  0  0  0  0  0  0  0  0  0  0
   60.8226   33.4419   50.5456 H   0  0  0  0  0  0  0  0  0  0  0  0
  1  2  1  0
  2  3  2  0
  3  4  1  0
  4  5  1  0
  5  6  1  0
  5  7  2  0
  7  8  1  0
  7  9  1  0
  9 10  1  0
 10 11  1  0
 11 12  2  0
 12 13  1  0
 12 14  1  0
 14 15  1  0
 14 16  2  0
 16 17  1  0
 16 18  1  0
 18 19  1  0
 19 20  1  0
 19 21  1  0
 19 22  1  0
 22 23  1  0
 22 24  1  0
 22 25  1  0
 25 26  2  0
 26 27  1  0
 26 28  1  0
 28 29  1  0
 28 30  2  0
 30 31  1  0
 30 32  1  0
 32 33  1  0
 32 34  2  0
 34 35  1  0
 18 36  2  0
 36 37  1  0
  9 38  2  0
 38 39  1  0
 38  3  1  0
 36 11  1  0
 34 25  1  0
M  CHG  3   4  -1  19   1  31  -1
M  END
>  <UniqueID>  (45) 
42

>  <SMILES>  (45) 
[H]/N=c1\cc(Oc2cccc([NH2+]Cc3ccc([O-])cc3)c2)cc[n-]1

>  <Energy>  (45) 
49.284852649489544

>  <Genealogy>  (45) 
N=c1cc(Oc2cccc([NH2+]Cc3ccc([O-])cc3)c2)cc[n-]1 (protonated)
[H]/N=c1\cc(Oc2cccc([NH2+]Cc3ccc([O-])cc3)c2)cc[n-]1 (cis-trans isomerization)
[H]/N=c1\cc(Oc2cccc([NH2+]Cc3ccc([O-])cc3)c2)cc[n-]1 (3D coordinates assigned)
[H]/N=c1\cc(Oc2cccc([NH2+]Cc3ccc([O-])cc3)c2)cc[n-]1 (optimized conformer: 49.284852649489544 kcal/mol)

>  <smiles>  (45) 
N=c1cc(Oc2cccc(NCc3ccc(O)cc3)c2)cc[nH]1

>  <score_type>  (45) 
oracle

>  <origin>  (45) 
adg

>  <m_score__min__energy>  (45) 
-10.300000000000001

>  <m_primary>  (45) 
energy

$$$$
45:0
     RDKit          3D

 58 62  0  0  0  0  0  0  0  0999 V2000
   56.4046   29.4136   52.4514 H   0  0  0  0  0  0  0  0  0  0  0  0
   57.1210   30.0920   51.9650 C   0  0  0  0  0  0  0  0  0  0  0  0
   58.2480   29.5920   51.3900 N   0  0  0  0  0  0  0  0  0  0  0  0
   59.1580   30.3960   50.7720 C   0  0  0  0  0  0  0  0  0  0  0  0
   60.4070   29.7960   50.1940 C   0  0  0  0  0  0  0  0  0  0  0  0
   61.2143   29.8594   50.9385 H   0  0  0  0  0  0  0  0  0  0  0  0
   60.6758   30.3545   49.2852 H   0  0  0  0  0  0  0  0  0  0  0  0
   60.1880   28.3310   49.8180 C   0  0  0  0  0  0  0  0  0  0  0  0
   59.1829   28.0181   50.1373 H   0  0  0  0  0  0  0  0  0  0  0  0
   60.9454   27.7099   50.3186 H   0  0  0  0  0  0  0  0  0  0  0  0
   60.3070   28.1730   48.4060 O   0  0  0  0  0  0  0  0  0  0  0  0
   59.2220   28.0450   47.5220 C   0  0  0  0  0  0  0  0  0  0  0  0
   58.8380   26.8060   46.9820 C   0  0  0  0  0  0  0  0  0  0  0  0
   59.4046   25.8985   47.2380 H   0  0  0  0  0  0  0  0  0  0  0  0
   57.7370   26.7200   46.1190 C   0  0  0  0  0  0  0  0  0  0  0  0
   57.3430   25.4190   45.5270 C   0  0  0  0  0  0  0  0  0  0  0  0
   56.8880   24.3950   46.3780 C   0  0  0  0  0  0  0  0  0  0  0  0
   56.8224   24.5753   47.4611 H   0  0  0  0  0  0  0  0  0  0  0  0
   56.5190   23.1520   45.8600 C   0  0  0  0  0  0  0  0  0  0  0  0
   56.1687   22.3576   46.5354 H   0  0  0  0  0  0  0  0  0  0  0  0
   56.5940   22.9160   44.4860 C   0  0  0  0  0  0  0  0  0  0  0  0
   56.3057   21.9351   44.0803 H   0  0  0  0  0  0  0  0  0  0  0  0
   57.0350   23.9250   43.6260 C   0  0  0  0  0  0  0  0  0  0  0  0
   57.0898   23.7357   42.5438 H   0  0  0  0  0  0  0  0  0  0  0  0
   57.4080   25.1770   44.1340 C   0  0  0  0  0  0  0  0  0  0  0  0
   57.7970   26.2100   43.2030 C   0  0  0  0  0  0  0  0  0  0  0  0
   58.1070   27.0370   42.4560 N   0  0  0  0  0  0  0  0  0  0  0  0
   57.0410   27.8930   45.8010 C   0  0  0  0  0  0  0  0  0  0  0  0
   56.1769   27.8510   45.1217 H   0  0  0  0  0  0  0  0  0  0  0  0
   57.4300   29.0820   46.3290 N   0  0  0  0  0  0  0  0  0  0  0  0
   58.4980   29.1930   47.1660 C   0  0  0  0  0  0  0  0  0  0  0  0
   58.8440   30.3440   47.6710 N   0  0  0  0  0  0  0  0  0  0  0  0
   59.7000   31.3420   47.0880 C   0  0  0  0  0  0  0  0  0  0  0  0
   60.7000   30.9600   46.4270 O   0  0  0  0  0  0  0  0  0  0  0  0
   59.4610   32.8240   47.2570 C   0  0  2  0  0  0  0  0  0  0  0  0
   60.4436   33.0144   47.7132 H   0  0  0  0  0  0  0  0  0  0  0  0
   58.0120   33.2050   47.5410 C   0  0  0  0  0  0  0  0  0  0  0  0
   57.2421   32.4223   47.6091 H   0  0  0  0  0  0  0  0  0  0  0  0
   57.5014   33.7783   48.3288 H   0  0  0  0  0  0  0  0  0  0  0  0
   58.6280   33.5490   46.1920 C   0  0  2  0  0  0  0  0  0  0  0  0
   58.7901   34.4567   45.5922 H   0  0  0  0  0  0  0  0  0  0  0  0
   58.0900   32.7480   45.0420 C   0  0  0  0  0  0  0  0  0  0  0  0
   57.3030   31.6640   45.2140 N   0  0  0  0  0  0  0  0  0  0  0  0
   57.0960   31.2210   43.9620 C   0  0  0  0  0  0  0  0  0  0  0  0
   56.2710   30.0500   43.6240 C   0  0  0  0  0  0  0  0  0  0  0  0
   55.1380   29.9060   44.1560 O   0  0  0  0  0  0  0  0  0  0  0  0
   56.7460   29.0680   42.6990 N   0  0  0  0  0  0  0  0  0  0  0  0
   57.6750   29.1710   42.2330 H   0  0  0  0  0  0  0  0  0  0  0  0
   56.1600   28.2350   42.4720 H   0  0  0  0  0  0  0  0  0  0  0  0
   57.7690   32.0260   43.0700 C   0  0  0  0  0  0  0  0  0  0  0  0
   57.7793   31.9002   41.9773 H   0  0  0  0  0  0  0  0  0  0  0  0
   58.4110   32.9900   43.7510 N   0  0  0  0  0  0  0  0  0  0  0  0
   58.9460   31.7840   50.7390 C   0  0  0  0  0  0  0  0  0  0  0  0
   59.6804   32.4465   50.2577 H   0  0  0  0  0  0  0  0  0  0  0  0
   57.7940   32.3150   51.3230 C   0  0  0  0  0  0  0  0  0  0  0  0
   57.6133   33.3998   51.2981 H   0  0  0  0  0  0  0  0  0  0  0  0
   56.8730   31.4670   51.9380 C   0  0  0  0  0  0  0  0  0  0  0  0
   55.9610   31.8763   52.3970 H   0  0  0  0  0  0  0  0  0  0  0  0
  1  2  1  0
  2  3  2  0
  3  4  1  0
  4  5  1  0
  5  6  1  0
  5  7  1  0
  5  8  1  0
  8  9  1  0
  8 10  1  0
  8 11  1  0
 11 12  1  0
 12 13  2  0
 13 14  1  0
 13 15  1  0
 15 16  1  0
 16 17  2  0
 17 18  1  0
 17 19  1  0
 19 20  1  0
 19 21  2  0
 21 22  1  0
 21 23  1  0
 23 24  1  0
 23 25  2  0
 25 26  1  0
 26 27  3  0
 15 28  2  0
 28 29  1  0
 28 30  1  0
 30 31  1  0
 31 32  2  0
 32 33  1  0
 33 34  2  0
 33 35  1  0
 35 36  1  1
 35 37  1  0
 37 38  1  0
 37 39  1  0
 37 40  1  0
 40 41  1  6
 40 42  1  0
 42 43  2  0
 43 44  1  0
 44 45  1  0
 45 46  2  0
 45 47  1  0
 47 48  1  0
 47 49  1  0
 44 50  2  0
 50 51  1  0
 50 52  1  0
  4 53  2  0
 53 54  1  0
 53 55  1  0
 55 56  1  0
 55 57  2  0
 57 58  1  0
 57  2  1  0
 31 12  1  0
 40 35  1  0
 52 42  1  0
 25 16  1  0
M  CHG  2  30  -1  52  -1
M  END
>  <UniqueID>  (46) 
43

>  <SMILES>  (46) 
N#Cc1ccccc1-c1c[n-]/c(=N\C(=O)[C@@H]2C[C@@H]2c2nc(C(N)=O)c[n-]2)c(OCCc2ccccn2)c1

>  <Energy>  (46) 
364.6097680148933

>  <Genealogy>  (46) 
N#Cc1ccccc1-c1c[n-]c(=NC(=O)C2CC2c2nc(C(N)=O)c[n-]2)c(OCCc2ccccn2)c1 (protonated)
N#Cc1ccccc1-c1c[n-]c(=NC(=O)[C@@H]2C[C@@H]2c2nc(C(N)=O)c[n-]2)c(OCCc2ccccn2)c1 (chirality)
N#Cc1ccccc1-c1c[n-]/c(=N\C(=O)[C@@H]2C[C@@H]2c2nc(C(N)=O)c[n-]2)c(OCCc2ccccn2)c1 (cis-trans isomerization)
N#Cc1ccccc1-c1c[n-]/c(=N\C(=O)[C@@H]2C[C@@H]2c2nc(C(N)=O)c[n-]2)c(OCCc2ccccn2)c1 (3D coordinates assigned)
N#Cc1ccccc1-c1c[n-]/c(=N\C(=O)[C@@H]2C[C@@H]2c2nc(C(N)=O)c[n-]2)c(OCCc2ccccn2)c1 (nonaromatic ring conformer: 364.6097680148933 kcal/mol)

>  <smiles>  (46) 
N#Cc1ccccc1-c1c[nH]c(=NC(=O)C2CC2c2nc(C(N)=O)c[nH]2)c(OCCc2ccccn2)c1

>  <score_type>  (46) 
oracle

>  <origin>  (46) 
adg

>  <m_score__min__energy>  (46) 
-11.800000000000001

>  <m_primary>  (46) 
energy

$$$$
46:0
     RDKit          3D

 51 53  0  0  0  0  0  0  0  0999 V2000
   55.0210   30.7520   52.0180 C   0  0  0  0  0  0  0  0  0  0  0  0
   56.5100   30.7190   52.1030 C   0  0  0  0  0  0  0  0  0  0  0  0
   57.1370   29.7320   51.6350 O   0  0  0  0  0  0  0  0  0  0  0  0
   57.1970   31.7580   52.8120 N   0  0  0  0  0  0  0  0  0  0  0  0
   58.5630   32.1610   52.6350 C   0  0  0  0  0  0  0  0  0  0  0  0
   59.5760   31.2610   52.9820 C   0  0  0  0  0  0  0  0  0  0  0  0
   60.9210   31.6200   52.8520 C   0  0  0  0  0  0  0  0  0  0  0  0
   61.2710   32.9020   52.3940 C   0  0  0  0  0  0  0  0  0  0  0  0
   62.6050   33.3040   52.2380 O   0  0  0  0  0  0  0  0  0  0  0  0
   63.3150   33.3060   51.0300 C   0  0  0  0  0  0  0  0  0  0  0  0
   64.5590   33.5090   51.0130 O   0  0  0  0  0  0  0  0  0  0  0  0
   62.5920   33.1210   49.7620 C   0  0  0  0  0  0  0  0  0  0  0  0
   62.8930   32.1490   49.0170 O   0  0  0  0  0  0  0  0  0  0  0  0
   61.5800   34.0580   49.3600 N   0  0  0  0  0  0  0  0  0  0  0  0
   60.6540   33.8280   48.2840 C   0  0  0  0  0  0  0  0  0  0  0  0
   61.1030   33.9220   46.9580 C   0  0  0  0  0  0  0  0  0  0  0  0
   60.2180   33.7220   45.8950 C   0  0  0  0  0  0  0  0  0  0  0  0
   58.8690   33.4350   46.1420 C   0  0  0  0  0  0  0  0  0  0  0  0
   57.7570   33.1740   44.7970 S   0  0  0  0  0  0  0  0  0  0  0  0
   56.7000   34.2440   44.8120 O   0  0  0  0  0  0  0  0  0  0  0  0
   58.5130   33.2850   43.5030 O   0  0  0  0  0  0  0  0  0  0  0  0
   56.9930   31.6060   44.8830 N   0  0  0  0  0  0  0  0  0  0  0  0
   57.8310   30.6640   45.6450 C   0  0  0  0  0  0  0  0  0  0  0  0
   57.3020   29.2210   45.5010 C   0  0  0  0  0  0  0  0  0  0  0  0
   55.9980   29.2110   44.9540 O   0  0  0  0  0  0  0  0  0  0  0  0
   56.0250   29.7170   43.6300 C   0  0  0  0  0  0  0  0  0  0  0  0
   56.7390   31.0820   43.5340 C   0  0  0  0  0  0  0  0  0  0  0  0
   58.4110   33.3670   47.4630 C   0  0  0  0  0  0  0  0  0  0  0  0
   59.2940   33.5680   48.5280 C   0  0  0  0  0  0  0  0  0  0  0  0
   60.2580   33.8030   52.0480 C   0  0  0  0  0  0  0  0  0  0  0  0
   58.9130   33.4460   52.1820 C   0  0  0  0  0  0  0  0  0  0  0  0
   54.5959   30.7614   53.0325 H   0  0  0  0  0  0  0  0  0  0  0  0
   54.7045   31.6574   51.4794 H   0  0  0  0  0  0  0  0  0  0  0  0
   54.6647   29.8615   51.4794 H   0  0  0  0  0  0  0  0  0  0  0  0
   59.3122   30.2624   53.3603 H   0  0  0  0  0  0  0  0  0  0  0  0
   61.7085   30.8963   53.1092 H   0  0  0  0  0  0  0  0  0  0  0  0
   61.5700   34.9980   49.8170 H   0  0  0  0  0  0  0  0  0  0  0  0
   62.1585   34.1546   46.7538 H   0  0  0  0  0  0  0  0  0  0  0  0
   60.5823   33.7902   44.8593 H   0  0  0  0  0  0  0  0  0  0  0  0
   58.8623   30.7098   45.2650 H   0  0  0  0  0  0  0  0  0  0  0  0
   57.8021   30.9461   46.7078 H   0  0  0  0  0  0  0  0  0  0  0  0
   57.9742   28.6560   44.8385 H   0  0  0  0  0  0  0  0  0  0  0  0
   57.2667   28.7597   46.4990 H   0  0  0  0  0  0  0  0  0  0  0  0
   56.5528   28.9967   42.9877 H   0  0  0  0  0  0  0  0  0  0  0  0
   54.9838   29.8606   43.3055 H   0  0  0  0  0  0  0  0  0  0  0  0
   57.6951   30.9577   43.0044 H   0  0  0  0  0  0  0  0  0  0  0  0
   56.1001   31.7885   42.9839 H   0  0  0  0  0  0  0  0  0  0  0  0
   57.3507   33.1543   47.6641 H   0  0  0  0  0  0  0  0  0  0  0  0
   58.9228   33.5225   49.5625 H   0  0  0  0  0  0  0  0  0  0  0  0
   60.5221   34.8007   51.6673 H   0  0  0  0  0  0  0  0  0  0  0  0
   58.1256   34.1724   51.9323 H   0  0  0  0  0  0  0  0  0  0  0  0
  1  2  1  0
  2  3  2  0
  2  4  1  0
  4  5  1  0
  5  6  2  0
  6  7  1  0
  7  8  2  0
  8  9  1  0
  9 10  1  0
 10 11  2  0
 10 12  1  0
 12 13  2  0
 12 14  1  0
 14 15  1  0
 15 16  2  0
 16 17  1  0
 17 18  2  0
 18 19  1  0
 19 20  2  0
 19 21  2  0
 19 22  1  0
 22 23  1  0
 23 24  1  0
 24 25  1  0
 25 26  1  0
 26 27  1  0
 18 28  1  0
 28 29  2  0
  8 30  1  0
 30 31  2  0
 31  5  1  0
 29 15  1  0
 27 22  1  0
  1 32  1  0
  1 33  1  0
  1 34  1  0
  6 35  1  0
  7 36  1  0
 14 37  1  0
 16 38  1  0
 17 39  1  0
 23 40  1  0
 23 41  1  0
 24 42  1  0
 24 43  1  0
 26 44  1  0
 26 45  1  0
 27 46  1  0
 27 47  1  0
 28 48  1  0
 29 49  1  0
 30 50  1  0
 31 51  1  0
M  CHG  1   4  -1
M  END
>  <UniqueID>  (47) 
44

>  <SMILES>  (47) 
CC(=O)[N-]c1ccc(OC(=O)C(=O)Nc2ccc(S(=O)(=O)N3CCOCC3)cc2)cc1

>  <Energy>  (47) 
67.87804006234371

>  <Genealogy>  (47) 
CC(=O)[N-]c1ccc(OC(=O)C(=O)Nc2ccc(S(=O)(=O)N3CCOCC3)cc2)cc1 (protonated)
CC(=O)[N-]c1ccc(OC(=O)C(=O)Nc2ccc(S(=O)(=O)N3CCOCC3)cc2)cc1 (3D coordinates assigned)
CC(=O)[N-]c1ccc(OC(=O)C(=O)Nc2ccc(S(=O)(=O)N3CCOCC3)cc2)cc1 (nonaromatic ring conformer: 67.87804006234371 kcal/mol)

>  <smiles>  (47) 
CC(=O)Nc1ccc(OC(=O)C(=O)Nc2ccc(S(=O)(=O)N3CCOCC3)cc2)cc1

>  <score_type>  (47) 
oracle

>  <origin>  (47) 
adg

>  <m_score__min__energy>  (47) 
-10.630000000000001

>  <m_primary>  (47) 
energy

$$$$
47:0
     RDKit          3D

 47 49  0  0  0  0  0  0  0  0999 V2000
   56.0199   30.5238   44.4197 H   0  0  0  0  0  0  0  0  0  0  0  0
   56.2690   29.4540   44.4790 C   0  0  0  0  0  0  0  0  0  0  0  0
   55.4893   28.6974   44.3071 H   0  0  0  0  0  0  0  0  0  0  0  0
   57.5240   29.0720   44.7610 C   0  0  0  0  0  0  0  0  0  0  0  0
   58.0050   27.7570   44.8730 C   0  0  0  0  0  0  0  0  0  0  0  0
   57.4490   26.5800   44.5300 C   0  0  0  0  0  0  0  0  0  0  0  0
   57.3942   26.3437   43.4571 H   0  0  0  0  0  0  0  0  0  0  0  0
   56.9080   25.5820   45.4670 C   0  0  0  0  0  0  0  0  0  0  0  0
   57.5850   24.5130   45.9240 N   0  0  0  0  0  0  0  0  0  0  0  0
   56.7510   23.9850   46.8460 C   0  0  0  0  0  0  0  0  0  0  0  0
   57.0290   22.9450   47.4960 O   0  0  0  0  0  0  0  0  0  0  0  0
   55.5980   24.6680   47.0240 N   0  0  0  0  0  0  0  0  0  0  0  0
   55.7230   25.6830   46.1530 C   0  0  0  0  0  0  0  0  0  0  0  0
   54.7730   26.6850   45.9950 O   0  0  0  0  0  0  0  0  0  0  0  0
   59.2710   27.8540   45.4300 C   0  0  0  0  0  0  0  0  0  0  0  0
   59.9291   27.0187   45.7112 H   0  0  0  0  0  0  0  0  0  0  0  0
   59.5470   29.1990   45.5640 C   0  0  0  0  0  0  0  0  0  0  0  0
   60.8210   29.7550   46.1250 C   0  0  0  0  0  0  0  0  0  0  0  0
   60.7769   29.7358   47.2239 H   0  0  0  0  0  0  0  0  0  0  0  0
   61.6698   29.1455   45.7814 H   0  0  0  0  0  0  0  0  0  0  0  0
   60.9513   30.7918   45.7814 H   0  0  0  0  0  0  0  0  0  0  0  0
   58.4910   29.9380   45.1600 N   0  0  0  0  0  0  0  0  0  0  0  0
   58.4020   31.3720   45.2100 C   0  0  0  0  0  0  0  0  0  0  0  0
   58.1960   32.1050   44.0320 C   0  0  0  0  0  0  0  0  0  0  0  0
   58.0850   31.4670   42.8390 F   0  0  0  0  0  0  0  0  0  0  0  0
   58.1050   33.4980   44.0800 C   0  0  0  0  0  0  0  0  0  0  0  0
   57.9321   34.0689   43.1558 H   0  0  0  0  0  0  0  0  0  0  0  0
   58.2330   34.1670   45.2980 C   0  0  0  0  0  0  0  0  0  0  0  0
   58.1544   35.2637   45.3298 H   0  0  0  0  0  0  0  0  0  0  0  0
   58.4610   33.4510   46.4810 C   0  0  0  0  0  0  0  0  0  0  0  0
   58.5950   34.1640   47.7180 N   0  0  0  0  0  0  0  0  0  0  0  0
   58.4130   35.1930   47.7270 H   0  0  0  0  0  0  0  0  0  0  0  0
   59.4060   33.4910   49.0970 S   0  0  0  0  0  0  0  0  0  0  0  0
   58.5570   32.4220   49.7280 O   0  0  0  0  0  0  0  0  0  0  0  0
   59.6580   34.5770   50.1030 O   0  0  0  0  0  0  0  0  0  0  0  0
   60.9670   32.7690   48.5990 C   0  0  0  0  0  0  0  0  0  0  0  0
   61.4630   32.3577   49.4905 H   0  0  0  0  0  0  0  0  0  0  0  0
   60.7460   31.9895   47.8550 H   0  0  0  0  0  0  0  0  0  0  0  0
   61.9130   33.7810   47.9360 C   0  0  0  0  0  0  0  0  0  0  0  0
   61.3215   34.4336   47.2770 H   0  0  0  0  0  0  0  0  0  0  0  0
   62.4052   34.3463   48.7411 H   0  0  0  0  0  0  0  0  0  0  0  0
   63.0120   33.1190   47.1060 C   0  0  0  0  0  0  0  0  0  0  0  0
   63.7583   32.6695   47.7776 H   0  0  0  0  0  0  0  0  0  0  0  0
   62.5710   32.3361   46.4715 H   0  0  0  0  0  0  0  0  0  0  0  0
   63.4979   33.8748   46.4715 H   0  0  0  0  0  0  0  0  0  0  0  0
   58.5210   32.0450   46.4370 C   0  0  0  0  0  0  0  0  0  0  0  0
   58.6350   31.3260   47.5830 F   0  0  0  0  0  0  0  0  0  0  0  0
  1  2  1  0
  2  3  1  0
  2  4  2  0
  4  5  1  0
  5  6  2  0
  6  7  1  0
  6  8  1  0
  8  9  1  0
  9 10  1  0
 10 11  2  0
 10 12  1  0
 12 13  1  0
 13 14  1  0
  5 15  1  0
 15 16  1  0
 15 17  2  0
 17 18  1  0
 18 19  1  0
 18 20  1  0
 18 21  1  0
 17 22  1  0
 22 23  1  0
 23 24  2  0
 24 25  1  0
 24 26  1  0
 26 27  1  0
 26 28  2  0
 28 29  1  0
 28 30  1  0
 30 31  1  0
 31 32  1  0
 31 33  1  0
 33 34  2  0
 33 35  2  0
 33 36  1  0
 36 37  1  0
 36 38  1  0
 36 39  1  0
 39 40  1  0
 39 41  1  0
 39 42  1  0
 42 43  1  0
 42 44  1  0
 42 45  1  0
 30 46  2  0
 46 47  1  0
 22  4  1  0
 46 23  1  0
 13  8  2  0
M  CHG  3   9  -1  12  -1  14  -1
M  END
>  <UniqueID>  (48) 
45

>  <SMILES>  (48) 
C=c1/c(=C\c2[n-]c(=O)[n-]c2[O-])cc(C)n1-c1c(F)ccc(NS(=O)(=O)CCC)c1F

>  <Energy>  (48) 
121.08019634950088

>  <Genealogy>  (48) 
C=c1c(=Cc2[n-]c(=O)[n-]c2[O-])cc(C)n1-c1c(F)ccc(NS(=O)(=O)CCC)c1F (protonated)
C=c1/c(=C\c2[n-]c(=O)[n-]c2[O-])cc(C)n1-c1c(F)ccc(NS(=O)(=O)CCC)c1F (cis-trans isomerization)
C=c1/c(=C\c2[n-]c(=O)[n-]c2[O-])cc(C)n1-c1c(F)ccc(NS(=O)(=O)CCC)c1F (3D coordinates assigned)
C=c1/c(=C\c2[n-]c(=O)[n-]c2[O-])cc(C)n1-c1c(F)ccc(NS(=O)(=O)CCC)c1F (optimized conformer: 121.08019634950088 kcal/mol)

>  <smiles>  (48) 
C=c1c(=Cc2[nH]c(=O)[nH]c2O)cc(C)n1-c1c(F)ccc(NS(=O)(=O)CCC)c1F

>  <score_type>  (48) 
oracle

>  <origin>  (48) 
adg

>  <m_score__min__energy>  (48) 
-15.789999999999999

>  <m_primary>  (48) 
energy

$$$$
48:0
     RDKit          3D

 50 53  0  0  0  0  0  0  0  0999 V2000
   57.1171   32.1159   45.0616 H   0  0  0  0  0  0  0  0  0  0  0  0
   57.3410   31.0540   44.8820 C   0  0  0  0  0  0  0  0  0  0  0  0
   56.6587   30.4436   44.2723 H   0  0  0  0  0  0  0  0  0  0  0  0
   58.4470   30.5030   45.4070 C   0  0  0  0  0  0  0  0  0  0  0  0
   58.8890   29.1730   45.2830 C   0  0  0  0  0  0  0  0  0  0  0  0
   58.3170   28.0960   44.7110 C   0  0  0  0  0  0  0  0  0  0  0  0
   58.4550   27.9714   43.6268 H   0  0  0  0  0  0  0  0  0  0  0  0
   57.5220   27.0690   45.4100 C   0  0  0  0  0  0  0  0  0  0  0  0
   56.1480   27.2560   45.6140 C   0  0  0  0  0  0  0  0  0  0  0  0
   55.5240   28.4280   45.2000 O   0  0  0  0  0  0  0  0  0  0  0  0
   55.4150   26.2890   46.2240 N   0  0  0  0  0  0  0  0  0  0  0  0
   55.9880   25.1260   46.6280 C   0  0  0  0  0  0  0  0  0  0  0  0
   55.2890   24.2470   47.1960 O   0  0  0  0  0  0  0  0  0  0  0  0
   57.3100   24.9080   46.4150 N   0  0  0  0  0  0  0  0  0  0  0  0
   58.0860   25.8440   45.8080 C   0  0  0  0  0  0  0  0  0  0  0  0
   59.3070   25.6020   45.6080 O   0  0  0  0  0  0  0  0  0  0  0  0
   60.1370   29.1230   45.8850 C   0  0  0  0  0  0  0  0  0  0  0  0
   60.7949   28.2442   45.9550 H   0  0  0  0  0  0  0  0  0  0  0  0
   60.3970   30.3830   46.3790 C   0  0  0  0  0  0  0  0  0  0  0  0
   61.6730   30.7920   47.0490 C   0  0  0  0  0  0  0  0  0  0  0  0
   61.5436   30.7505   48.1406 H   0  0  0  0  0  0  0  0  0  0  0  0
   62.4803   30.1076   46.7492 H   0  0  0  0  0  0  0  0  0  0  0  0
   61.9320   31.8182   46.7492 H   0  0  0  0  0  0  0  0  0  0  0  0
   59.3810   31.2210   46.0850 N   0  0  0  0  0  0  0  0  0  0  0  0
   59.3710   32.6360   46.3520 C   0  0  0  0  0  0  0  0  0  0  0  0
   59.3110   33.5270   45.2700 C   0  0  0  0  0  0  0  0  0  0  0  0
   59.2341   33.1356   44.2449 H   0  0  0  0  0  0  0  0  0  0  0  0
   59.3480   34.9050   45.4830 C   0  0  0  0  0  0  0  0  0  0  0  0
   59.2952   35.5949   44.6279 H   0  0  0  0  0  0  0  0  0  0  0  0
   59.4520   35.4090   46.7800 C   0  0  0  0  0  0  0  0  0  0  0  0
   59.4891   36.4959   46.9452 H   0  0  0  0  0  0  0  0  0  0  0  0
   59.5090   34.5370   47.8680 C   0  0  0  0  0  0  0  0  0  0  0  0
   59.5962   34.9426   48.8868 H   0  0  0  0  0  0  0  0  0  0  0  0
   59.4560   33.1430   47.6750 C   0  0  0  0  0  0  0  0  0  0  0  0
   59.5030   32.2480   48.8550 C   0  0  0  0  0  0  0  0  0  0  0  0
   60.6150   31.9320   49.3610 O   0  0  0  0  0  0  0  0  0  0  0  0
   58.2900   31.7820   49.4560 N   0  0  0  0  0  0  0  0  0  0  0  0
   58.1060   31.4360   50.8350 C   0  0  0  0  0  0  0  0  0  0  0  0
   57.9200   30.1050   51.2470 C   0  0  0  0  0  0  0  0  0  0  0  0
   57.9635   29.2913   50.5081 H   0  0  0  0  0  0  0  0  0  0  0  0
   57.6800   29.8120   52.5920 C   0  0  0  0  0  0  0  0  0  0  0  0
   57.5463   28.7666   52.9070 H   0  0  0  0  0  0  0  0  0  0  0  0
   57.6080   30.8420   53.5460 C   0  0  0  0  0  0  0  0  0  0  0  0
   57.3450   30.5370   54.9690 C   0  0  0  0  0  0  0  0  0  0  0  0
   56.8300   31.4030   55.7250 O   0  0  0  0  0  0  0  0  0  0  0  0
   57.6640   29.2900   55.4940 O   0  0  0  0  0  0  0  0  0  0  0  0
   57.7750   32.1720   53.1240 C   0  0  0  0  0  0  0  0  0  0  0  0
   57.7165   32.9895   53.8577 H   0  0  0  0  0  0  0  0  0  0  0  0
   58.0150   32.4630   51.7780 C   0  0  0  0  0  0  0  0  0  0  0  0
   58.1332   33.5090   51.4586 H   0  0  0  0  0  0  0  0  0  0  0  0
  1  2  1  0
  2  3  1  0
  2  4  2  0
  4  5  1  0
  5  6  2  0
  6  7  1  0
  6  8  1  0
  8  9  2  0
  9 10  1  0
  9 11  1  0
 11 12  1  0
 12 13  2  0
 12 14  1  0
 14 15  1  0
 15 16  2  0
  5 17  1  0
 17 18  1  0
 17 19  2  0
 19 20  1  0
 20 21  1  0
 20 22  1  0
 20 23  1  0
 19 24  1  0
 24 25  1  0
 25 26  2  0
 26 27  1  0
 26 28  1  0
 28 29  1  0
 28 30  2  0
 30 31  1  0
 30 32  1  0
 32 33  1  0
 32 34  2  0
 34 35  1  0
 35 36  2  0
 35 37  1  0
 37 38  1  0
 38 39  2  0
 39 40  1  0
 39 41  1  0
 41 42  1  0
 41 43  2  0
 43 44  1  0
 44 45  2  0
 44 46  1  0
 43 47  1  0
 47 48  1  0
 47 49  2  0
 49 50  1  0
 24  4  1  0
 34 25  1  0
 49 38  1  0
 15  8  1  0
M  CHG  5  10  -1  11  -1  14  -1  37  -1  46  -1
M  END
>  <UniqueID>  (49) 
46

>  <SMILES>  (49) 
C=c1/c(=C\c2c([O-])[n-]c(=O)[n-]c2=O)cc(C)n1-c1ccccc1C(=O)[N-]c1ccc(C(=O)[O-])cc1

>  <Energy>  (49) 
107.91363684080092

>  <Genealogy>  (49) 
C=c1c(=Cc2c([O-])[n-]c(=O)[n-]c2=O)cc(C)n1-c1ccccc1C(=O)[N-]c1ccc(C(=O)[O-])cc1 (protonated)
C=c1/c(=C\c2c([O-])[n-]c(=O)[n-]c2=O)cc(C)n1-c1ccccc1C(=O)[N-]c1ccc(C(=O)[O-])cc1 (cis-trans isomerization)
C=c1/c(=C\c2c([O-])[n-]c(=O)[n-]c2=O)cc(C)n1-c1ccccc1C(=O)[N-]c1ccc(C(=O)[O-])cc1 (3D coordinates assigned)
C=c1/c(=C\c2c([O-])[n-]c(=O)[n-]c2=O)cc(C)n1-c1ccccc1C(=O)[N-]c1ccc(C(=O)[O-])cc1 (optimized conformer: 107.91363684080092 kcal/mol)

>  <smiles>  (49) 
C=c1c(=Cc2c(O)[nH]c(=O)[nH]c2=O)cc(C)n1-c1ccccc1C(=O)Nc1ccc(C(=O)O)cc1

>  <score_type>  (49) 
oracle

>  <origin>  (49) 
adg

>  <m_score__min__energy>  (49) 
-18.059999999999999

>  <m_primary>  (49) 
energy

$$$$
49:0
     RDKit          3D

 43 44  0  0  0  0  0  0  0  0999 V2000
   59.6337   35.9091   45.6845 H   0  0  0  0  0  0  0  0  0  0  0  0
   59.2450   34.9020   45.8960 C   0  0  0  0  0  0  0  0  0  0  0  0
   59.3100   34.3870   47.1930 C   0  0  0  0  0  0  0  0  0  0  0  0
   59.7516   34.9880   48.0016 H   0  0  0  0  0  0  0  0  0  0  0  0
   58.8140   33.1080   47.4640 C   0  0  0  0  0  0  0  0  0  0  0  0
   58.8970   32.4080   49.2400 Br  0  0  0  0  0  0  0  0  0  0  0  0
   58.2500   32.3430   46.4380 C   0  0  0  0  0  0  0  0  0  0  0  0
   57.8567   31.3390   46.6556 H   0  0  0  0  0  0  0  0  0  0  0  0
   58.1840   32.8530   45.1290 C   0  0  0  0  0  0  0  0  0  0  0  0
   57.5200   32.0640   44.0340 C   0  0  0  0  0  0  0  0  0  0  0  0
   58.2437   31.3541   43.6070 H   0  0  0  0  0  0  0  0  0  0  0  0
   57.1692   32.7557   43.2539 H   0  0  0  0  0  0  0  0  0  0  0  0
   56.3780   31.3270   44.5680 N   0  0  0  0  0  0  0  0  0  0  0  0
   56.2760   29.8990   44.5440 C   0  0  0  0  0  0  0  0  0  0  0  0
   55.1440   29.3420   44.5430 O   0  0  0  0  0  0  0  0  0  0  0  0
   57.5190   29.0630   44.5690 C   0  0  0  0  0  0  0  0  0  0  0  0
   58.3711   29.6775   44.2427 H   0  0  0  0  0  0  0  0  0  0  0  0
   57.3761   28.2070   43.8932 H   0  0  0  0  0  0  0  0  0  0  0  0
   57.7950   28.5360   45.9540 C   0  0  0  0  0  0  0  0  0  0  0  0
   58.7600   29.0280   46.5970 O   0  0  0  0  0  0  0  0  0  0  0  0
   57.0610   27.4530   46.5520 N   0  0  0  0  0  0  0  0  0  0  0  0
   56.6130   26.3610   46.0020 C   0  0  0  0  0  0  0  0  0  0  0  0
   55.3160   26.0020   46.0890 N   0  0  0  0  0  0  0  0  0  0  0  0
   55.0520   24.8520   45.4060 C   0  0  0  0  0  0  0  0  0  0  0  0
   53.6680   24.2830   45.3610 C   0  0  0  0  0  0  0  0  0  0  0  0
   53.3002   24.1318   46.3866 H   0  0  0  0  0  0  0  0  0  0  0  0
   53.0019   24.9802   44.8317 H   0  0  0  0  0  0  0  0  0  0  0  0
   53.6850   23.3189   44.8317 H   0  0  0  0  0  0  0  0  0  0  0  0
   56.1570   24.2850   44.7580 C   0  0  0  0  0  0  0  0  0  0  0  0
   56.1650   23.0840   43.8930 C   0  0  0  0  0  0  0  0  0  0  0  0
   55.3050   22.9920   42.9750 O   0  0  0  0  0  0  0  0  0  0  0  0
   57.1310   22.0220   44.0640 N   0  0  0  0  0  0  0  0  0  0  0  0
   57.3840   21.1040   42.9500 C   0  0  0  0  0  0  0  0  0  0  0  0
   57.6568   20.1143   43.3451 H   0  0  0  0  0  0  0  0  0  0  0  0
   56.4767   21.0157   42.3344 H   0  0  0  0  0  0  0  0  0  0  0  0
   58.2084   21.4929   42.3344 H   0  0  0  0  0  0  0  0  0  0  0  0
   57.7620   21.7730   45.3640 C   0  0  0  0  0  0  0  0  0  0  0  0
   57.0645   22.0482   46.1688 H   0  0  0  0  0  0  0  0  0  0  0  0
   58.0177   20.7065   45.4492 H   0  0  0  0  0  0  0  0  0  0  0  0
   58.6771   22.3774   45.4492 H   0  0  0  0  0  0  0  0  0  0  0  0
   57.4800   25.2820   45.0470 S   0  0  0  0  0  0  0  0  0  0  0  0
   58.6860   34.1380   44.8660 C   0  0  0  0  0  0  0  0  0  0  0  0
   58.6394   34.5456   43.8454 H   0  0  0  0  0  0  0  0  0  0  0  0
  1  2  1  0
  2  3  2  0
  3  4  1  0
  3  5  1  0
  5  6  1  0
  5  7  2  0
  7  8  1  0
  7  9  1  0
  9 10  1  0
 10 11  1  0
 10 12  1  0
 10 13  1  0
 13 14  1  0
 14 15  2  0
 14 16  1  0
 16 17  1  0
 16 18  1  0
 16 19  1  0
 19 20  2  0
 19 21  1  0
 21 22  2  0
 22 23  1  0
 23 24  1  0
 24 25  1  0
 25 26  1  0
 25 27  1  0
 25 28  1  0
 24 29  2  0
 29 30  1  0
 30 31  2  0
 30 32  1  0
 32 33  1  0
 33 34  1  0
 33 35  1  0
 33 36  1  0
 32 37  1  0
 37 38  1  0
 37 39  1  0
 37 40  1  0
 29 41  1  0
  9 42  2  0
 42 43  1  0
 42  2  1  0
 41 22  1  0
M  CHG  2  13  -1  23  -1
M  END
>  <UniqueID>  (50) 
47

>  <SMILES>  (50) 
Cc1[n-]/c(=N/C(=O)CC(=O)[N-]Cc2cccc(Br)c2)sc1C(=O)N(C)C

>  <Energy>  (50) 
72.24064896781746

>  <Genealogy>  (50) 
Cc1[n-]c(=NC(=O)CC(=O)[N-]Cc2cccc(Br)c2)sc1C(=O)N(C)C (protonated)
Cc1[n-]/c(=N/C(=O)CC(=O)[N-]Cc2cccc(Br)c2)sc1C(=O)N(C)C (cis-trans isomerization)
Cc1[n-]/c(=N/C(=O)CC(=O)[N-]Cc2cccc(Br)c2)sc1C(=O)N(C)C (3D coordinates assigned)
Cc1[n-]/c(=N/C(=O)CC(=O)[N-]Cc2cccc(Br)c2)sc1C(=O)N(C)C (optimized conformer: 72.24064896781746 kcal/mol)

>  <smiles>  (50) 
Cc1[nH]c(=NC(=O)CC(=O)NCc2cccc(Br)c2)sc1C(=O)N(C)C

>  <score_type>  (50) 
oracle

>  <origin>  (50) 
adg

>  <m_score__min__energy>  (50) 
-12.6

>  <m_primary>  (50) 
energy

$$$$
50:0
     RDKit          3D

 42 44  0  0  0  0  0  0  0  0999 V2000
   56.8620   24.3870   46.7490 C   0  0  0  0  0  0  0  0  0  0  0  0
   57.4880   25.6390   46.2010 C   0  0  0  0  0  0  0  0  0  0  0  0
   58.8820   25.7160   46.0530 C   0  0  0  0  0  0  0  0  0  0  0  0
   59.4760   26.8830   45.5770 C   0  0  0  0  0  0  0  0  0  0  0  0
   58.6890   27.9830   45.2400 C   0  0  0  0  0  0  0  0  0  0  0  0
   57.2930   27.9360   45.3900 C   0  0  0  0  0  0  0  0  0  0  0  0
   56.4960   29.1240   45.0050 C   0  0  0  0  0  0  0  0  0  0  0  0
   55.2450   29.0250   44.8980 O   0  0  0  0  0  0  0  0  0  0  0  0
   57.1230   30.3650   44.6500 N   0  0  0  0  0  0  0  0  0  0  0  0
   57.8860   31.1920   45.5400 C   0  0  0  0  0  0  0  0  0  0  0  0
   57.3840   32.4170   46.0120 C   0  0  0  0  0  0  0  0  0  0  0  0
   58.1260   33.1780   46.9190 C   0  0  0  0  0  0  0  0  0  0  0  0
   59.3780   32.7270   47.3570 C   0  0  0  0  0  0  0  0  0  0  0  0
   60.2750   33.6150   48.5830 S   0  0  0  0  0  0  0  0  0  0  0  0
   61.6960   33.7770   48.1230 O   0  0  0  0  0  0  0  0  0  0  0  0
   59.6810   34.9780   48.8060 O   0  0  0  0  0  0  0  0  0  0  0  0
   60.2550   32.7280   50.0770 N   0  0  0  0  0  0  0  0  0  0  0  0
   59.3690   31.8440   50.4430 C   0  0  0  0  0  0  0  0  0  0  0  0
   58.2630   32.2760   51.1870 C   0  0  0  0  0  0  0  0  0  0  0  0
   57.3060   31.3510   51.6090 C   0  0  0  0  0  0  0  0  0  0  0  0
   57.4440   30.0340   51.2980 N   0  0  0  0  0  0  0  0  0  0  0  0
   58.5020   29.5830   50.5750 C   0  0  0  0  0  0  0  0  0  0  0  0
   59.4810   30.4750   50.1300 C   0  0  0  0  0  0  0  0  0  0  0  0
   59.9000   31.5290   46.8500 C   0  0  0  0  0  0  0  0  0  0  0  0
   59.1610   30.7720   45.9360 C   0  0  0  0  0  0  0  0  0  0  0  0
   56.6890   26.7590   45.8930 C   0  0  0  0  0  0  0  0  0  0  0  0
   55.3110   26.6830   46.1250 O   0  0  0  0  0  0  0  0  0  0  0  0
   56.8784   24.4198   47.8484 H   0  0  0  0  0  0  0  0  0  0  0  0
   55.8214   24.3142   46.3998 H   0  0  0  0  0  0  0  0  0  0  0  0
   57.4281   23.5109   46.3998 H   0  0  0  0  0  0  0  0  0  0  0  0
   59.5085   24.8504   46.3142 H   0  0  0  0  0  0  0  0  0  0  0  0
   60.5692   26.9364   45.4668 H   0  0  0  0  0  0  0  0  0  0  0  0
   59.1653   28.8960   44.8532 H   0  0  0  0  0  0  0  0  0  0  0  0
   56.4040   32.7777   45.6663 H   0  0  0  0  0  0  0  0  0  0  0  0
   57.7262   34.1333   47.2899 H   0  0  0  0  0  0  0  0  0  0  0  0
   58.1490   33.3409   51.4379 H   0  0  0  0  0  0  0  0  0  0  0  0
   56.4380   31.6882   52.1946 H   0  0  0  0  0  0  0  0  0  0  0  0
   58.5882   28.5120   50.3391 H   0  0  0  0  0  0  0  0  0  0  0  0
   60.3340   30.1105   49.5388 H   0  0  0  0  0  0  0  0  0  0  0  0
   60.8935   31.1836   47.1720 H   0  0  0  0  0  0  0  0  0  0  0  0
   59.5833   29.8425   45.5264 H   0  0  0  0  0  0  0  0  0  0  0  0
   54.7430   27.4840   46.3650 H   0  0  0  0  0  0  0  0  0  0  0  0
  1  2  1  0
  2  3  2  0
  3  4  1  0
  4  5  2  0
  5  6  1  0
  6  7  1  0
  7  8  2  0
  7  9  1  0
  9 10  1  0
 10 11  2  0
 11 12  1  0
 12 13  2  0
 13 14  1  0
 14 15  2  0
 14 16  2  0
 14 17  1  0
 17 18  2  3
 18 19  1  0
 19 20  2  0
 20 21  1  0
 21 22  1  0
 22 23  2  0
 13 24  1  0
 24 25  2  0
  6 26  2  0
 26 27  1  0
 26  2  1  0
 25 10  1  0
 23 18  1  0
  1 28  1  0
  1 29  1  0
  1 30  1  0
  3 31  1  0
  4 32  1  0
  5 33  1  0
 11 34  1  0
 12 35  1  0
 19 36  1  0
 20 37  1  0
 22 38  1  0
 23 39  1  0
 24 40  1  0
 25 41  1  0
 27 42  1  0
M  CHG  2   9  -1  21  -1
M  END
>  <UniqueID>  (51) 
48

>  <SMILES>  (51) 
Cc1cccc(C(=O)[N-]c2ccc(S(=O)(=O)N=c3cc[n-]cc3)cc2)c1O

>  <Energy>  (51) 
59.89213213060346

>  <Genealogy>  (51) 
Cc1cccc(C(=O)[N-]c2ccc(S(=O)(=O)N=c3cc[n-]cc3)cc2)c1O (protonated)
Cc1cccc(C(=O)[N-]c2ccc(S(=O)(=O)N=c3cc[n-]cc3)cc2)c1O (3D coordinates assigned)
Cc1cccc(C(=O)[N-]c2ccc(S(=O)(=O)N=c3cc[n-]cc3)cc2)c1O (optimized conformer: 59.89213213060346 kcal/mol)

>  <smiles>  (51) 
Cc1cccc(C(=O)Nc2ccc(S(=O)(=O)N=c3cc[nH]cc3)cc2)c1O

>  <score_type>  (51) 
oracle

>  <origin>  (51) 
adg

>  <m_score__min__energy>  (51) 
-12.220000000000001

>  <m_primary>  (51) 
energy

$$$$
51:0
     RDKit          3D

 62 66  0  0  0  0  0  0  0  0999 V2000
   54.1190   30.4860   53.2400 O   0  0  0  0  0  0  0  0  0  0  0  0
   54.2270   30.6490   51.9960 C   0  0  0  0  0  0  0  0  0  0  0  0
   52.9850   30.6320   51.1430 C   0  0  0  0  0  0  0  0  0  0  0  0
   51.8670   31.3690   51.8150 C   0  0  0  0  0  0  0  0  0  0  0  0
   51.5730   31.2600   53.1210 N   0  0  0  0  0  0  0  0  0  0  0  0
   50.5550   32.1330   53.2860 C   0  0  0  0  0  0  0  0  0  0  0  0
   49.9960   32.3190   54.3980 O   0  0  0  0  0  0  0  0  0  0  0  0
   50.1890   32.7970   52.1680 N   0  0  0  0  0  0  0  0  0  0  0  0
   51.0330   32.3040   51.2470 C   0  0  0  0  0  0  0  0  0  0  0  0
   51.0440   32.7060   49.9170 O   0  0  0  0  0  0  0  0  0  0  0  0
   55.5130   30.9860   51.4610 N   0  0  0  0  0  0  0  0  0  0  0  0
   56.7640   30.4250   51.8740 C   0  0  0  0  0  0  0  0  0  0  0  0
   56.7560   29.3360   52.7550 C   0  0  0  0  0  0  0  0  0  0  0  0
   57.9580   28.7250   53.1840 C   0  0  0  0  0  0  0  0  0  0  0  0
   57.9460   27.6120   54.1310 N   0  0  0  0  0  0  0  0  0  0  0  0
   56.6530   27.1130   54.6480 C   0  0  0  0  0  0  0  0  0  0  0  0
   56.7830   25.9490   55.6460 C   0  0  0  0  0  0  0  0  0  0  0  0
   57.8780   25.1190   55.3430 O   0  0  0  0  0  0  0  0  0  0  0  0
   59.0610   25.8580   55.5300 C   0  0  0  0  0  0  0  0  0  0  0  0
   59.2080   26.9040   54.4280 C   0  0  0  0  0  0  0  0  0  0  0  0
   59.1710   29.2430   52.6770 C   0  0  0  0  0  0  0  0  0  0  0  0
   59.1780   30.3000   51.7660 C   0  0  0  0  0  0  0  0  0  0  0  0
   57.9780   30.8870   51.3400 C   0  0  0  0  0  0  0  0  0  0  0  0
   57.9780   31.9370   50.4090 O   0  0  0  0  0  0  0  0  0  0  0  0
   58.7610   31.9610   49.2460 C   0  0  0  0  0  0  0  0  0  0  0  0
   58.8910   33.1580   48.5340 C   0  0  0  0  0  0  0  0  0  0  0  0
   59.6550   33.2030   47.3660 C   0  0  0  0  0  0  0  0  0  0  0  0
   60.2950   32.0510   46.9020 C   0  0  0  0  0  0  0  0  0  0  0  0
   60.1810   30.8440   47.6030 C   0  0  0  0  0  0  0  0  0  0  0  0
   60.8260   29.6770   47.0680 N   0  0  0  0  0  0  0  0  0  0  0  0
   60.3990   28.8880   45.9480 C   0  0  0  0  0  0  0  0  0  0  0  0
   61.1630   28.7220   44.9580 O   0  0  0  0  0  0  0  0  0  0  0  0
   59.0380   28.3030   45.9340 C   0  0  0  0  0  0  0  0  0  0  0  0
   58.6900   27.2820   46.8380 C   0  0  0  0  0  0  0  0  0  0  0  0
   57.4020   26.7380   46.8300 C   0  0  0  0  0  0  0  0  0  0  0  0
   56.4460   27.2020   45.9180 C   0  0  0  0  0  0  0  0  0  0  0  0
   55.1590   26.6690   45.9050 O   0  0  0  0  0  0  0  0  0  0  0  0
   56.7840   28.2120   45.0140 C   0  0  0  0  0  0  0  0  0  0  0  0
   58.0700   28.7630   45.0220 C   0  0  0  0  0  0  0  0  0  0  0  0
   59.3890   30.7970   48.7640 C   0  0  0  0  0  0  0  0  0  0  0  0
   53.2041   31.1117   50.1777 H   0  0  0  0  0  0  0  0  0  0  0  0
   52.6766   29.5872   50.9906 H   0  0  0  0  0  0  0  0  0  0  0  0
   55.7944   28.9474   53.1213 H   0  0  0  0  0  0  0  0  0  0  0  0
   56.1384   27.9444   55.1520 H   0  0  0  0  0  0  0  0  0  0  0  0
   56.0925   26.7285   53.7831 H   0  0  0  0  0  0  0  0  0  0  0  0
   56.9176   26.3606   56.6571 H   0  0  0  0  0  0  0  0  0  0  0  0
   55.8675   25.3424   55.5840 H   0  0  0  0  0  0  0  0  0  0  0  0
   59.0241   26.3621   56.5070 H   0  0  0  0  0  0  0  0  0  0  0  0
   59.9216   25.1739   55.4930 H   0  0  0  0  0  0  0  0  0  0  0  0
   59.9584   27.6434   54.7446 H   0  0  0  0  0  0  0  0  0  0  0  0
   59.5120   26.3760   53.5121 H   0  0  0  0  0  0  0  0  0  0  0  0
   60.1254   28.8059   53.0058 H   0  0  0  0  0  0  0  0  0  0  0  0
   60.1357   30.6769   51.3777 H   0  0  0  0  0  0  0  0  0  0  0  0
   58.3893   34.0677   48.8957 H   0  0  0  0  0  0  0  0  0  0  0  0
   59.7531   34.1472   46.8102 H   0  0  0  0  0  0  0  0  0  0  0  0
   60.8927   32.0924   45.9795 H   0  0  0  0  0  0  0  0  0  0  0  0
   59.4361   26.9096   47.5554 H   0  0  0  0  0  0  0  0  0  0  0  0
   57.1387   25.9426   47.5427 H   0  0  0  0  0  0  0  0  0  0  0  0
   54.3910   27.1360   46.3720 H   0  0  0  0  0  0  0  0  0  0  0  0
   56.0365   28.5753   44.2934 H   0  0  0  0  0  0  0  0  0  0  0  0
   58.3263   29.5616   44.3102 H   0  0  0  0  0  0  0  0  0  0  0  0
   59.2594   29.8446   49.2989 H   0  0  0  0  0  0  0  0  0  0  0  0
  1  2  2  0
  2  3  1  0
  3  4  1  0
  4  5  1  0
  5  6  1  0
  6  7  2  0
  6  8  1  0
  8  9  1  0
  9 10  1  0
  2 11  1  0
 11 12  1  0
 12 13  2  0
 13 14  1  0
 14 15  1  0
 15 16  1  0
 16 17  1  0
 17 18  1  0
 18 19  1  0
 19 20  1  0
 14 21  2  0
 21 22  1  0
 22 23  2  0
 23 24  1  0
 24 25  1  0
 25 26  2  0
 26 27  1  0
 27 28  2  0
 28 29  1  0
 29 30  1  0
 30 31  1  0
 31 32  2  0
 31 33  1  0
 33 34  2  0
 34 35  1  0
 35 36  2  0
 36 37  1  0
 36 38  1  0
 38 39  2  0
 29 40  2  0
  9  4  2  0
 23 12  1  0
 40 25  1  0
 20 15  1  0
 39 33  1  0
  3 41  1  0
  3 42  1  0
 13 43  1  0
 16 44  1  0
 16 45  1  0
 17 46  1  0
 17 47  1  0
 19 48  1  0
 19 49  1  0
 20 50  1  0
 20 51  1  0
 21 52  1  0
 22 53  1  0
 26 54  1  0
 27 55  1  0
 28 56  1  0
 34 57  1  0
 35 58  1  0
 37 59  1  0
 38 60  1  0
 39 61  1  0
 40 62  1  0
M  CHG  5   5  -1   8  -1  10  -1  11  -1  30  -1
M  END
>  <UniqueID>  (52) 
49

>  <SMILES>  (52) 
O=C(Cc1[n-]c(=O)[n-]c1[O-])[N-]c1cc(N2CCOCC2)ccc1Oc1cccc([N-]C(=O)c2ccc(O)cc2)c1

>  <Energy>  (52) 
120.55171456945935

>  <Genealogy>  (52) 
O=C(Cc1[n-]c(=O)[n-]c1[O-])[N-]c1cc(N2CCOCC2)ccc1Oc1cccc([N-]C(=O)c2ccc(O)cc2)c1 (protonated)
O=C(Cc1[n-]c(=O)[n-]c1[O-])[N-]c1cc(N2CCOCC2)ccc1Oc1cccc([N-]C(=O)c2ccc(O)cc2)c1 (3D coordinates assigned)
O=C(Cc1[n-]c(=O)[n-]c1[O-])[N-]c1cc(N2CCOCC2)ccc1Oc1cccc([N-]C(=O)c2ccc(O)cc2)c1 (nonaromatic ring conformer: 120.55171456945935 kcal/mol)

>  <smiles>  (52) 
O=C(Cc1[nH]c(=O)[nH]c1O)Nc1cc(N2CCOCC2)ccc1Oc1cccc(NC(=O)c2ccc(O)cc2)c1

>  <score_type>  (52) 
oracle

>  <origin>  (52) 
adg

>  <m_score__min__energy>  (52) 
-20.559999999999999

>  <m_primary>  (52) 
energy

$$$$
52:0
     RDKit          3D

 35 37  0  0  0  0  0  0  0  0999 V2000
   58.4840   31.4590   44.8780 C   0  0  0  0  0  0  0  0  0  0  0  0
   57.9390   30.2390   44.7690 C   0  0  0  0  0  0  0  0  0  0  0  0
   56.5960   29.9900   44.6190 C   0  0  0  0  0  0  0  0  0  0  0  0
   55.6850   30.8590   44.5430 O   0  0  0  0  0  0  0  0  0  0  0  0
   56.3640   28.6730   44.5760 N   0  0  0  0  0  0  0  0  0  0  0  0
   57.5910   28.1130   44.6860 C   0  0  0  0  0  0  0  0  0  0  0  0
   57.7120   26.7710   44.7050 C   0  0  0  0  0  0  0  0  0  0  0  0
   57.2580   25.8600   45.7610 C   0  0  0  0  0  0  0  0  0  0  0  0
   57.9600   24.8040   46.2070 N   0  0  0  0  0  0  0  0  0  0  0  0
   57.0870   24.1720   47.0220 C   0  0  0  0  0  0  0  0  0  0  0  0
   57.3870   23.1280   47.6570 O   0  0  0  0  0  0  0  0  0  0  0  0
   55.8640   24.7420   47.0930 N   0  0  0  0  0  0  0  0  0  0  0  0
   55.9850   25.7990   46.2730 C   0  0  0  0  0  0  0  0  0  0  0  0
   54.9570   26.6930   46.0000 O   0  0  0  0  0  0  0  0  0  0  0  0
   58.5910   29.0460   44.8150 N   0  0  0  0  0  0  0  0  0  0  0  0
   60.0160   28.8380   45.1380 C   0  0  0  0  0  0  0  0  0  0  0  0
   60.2180   28.4430   46.5810 C   0  0  0  0  0  0  0  0  0  0  0  0
   60.2850   27.0930   46.9640 C   0  0  0  0  0  0  0  0  0  0  0  0
   60.4560   26.7460   48.3070 C   0  0  0  0  0  0  0  0  0  0  0  0
   60.5420   27.7410   49.2970 C   0  0  0  0  0  0  0  0  0  0  0  0
   60.7310   27.3780   50.7190 C   0  0  0  0  0  0  0  0  0  0  0  0
   61.3830   26.3470   51.0350 O   0  0  0  0  0  0  0  0  0  0  0  0
   60.1930   28.1720   51.7260 O   0  0  0  0  0  0  0  0  0  0  0  0
   60.4350   29.0890   48.9160 C   0  0  0  0  0  0  0  0  0  0  0  0
   60.2620   29.4350   47.5740 C   0  0  0  0  0  0  0  0  0  0  0  0
   59.5724   31.5667   44.9955 H   0  0  0  0  0  0  0  0  0  0  0  0
   57.8428   32.3523   44.8499 H   0  0  0  0  0  0  0  0  0  0  0  0
   58.2037   26.3096   43.8359 H   0  0  0  0  0  0  0  0  0  0  0  0
   55.1380   27.5460   45.4840 H   0  0  0  0  0  0  0  0  0  0  0  0
   60.4135   28.0407   44.4928 H   0  0  0  0  0  0  0  0  0  0  0  0
   60.5444   29.7879   44.9690 H   0  0  0  0  0  0  0  0  0  0  0  0
   60.2023   26.3040   46.2020 H   0  0  0  0  0  0  0  0  0  0  0  0
   60.5239   25.6857   48.5920 H   0  0  0  0  0  0  0  0  0  0  0  0
   60.4879   29.8781   49.6806 H   0  0  0  0  0  0  0  0  0  0  0  0
   60.1594   30.4934   47.2925 H   0  0  0  0  0  0  0  0  0  0  0  0
  1  2  2  0
  2  3  1  0
  3  4  2  0
  3  5  1  0
  5  6  1  0
  6  7  2  3
  7  8  1  0
  8  9  1  0
  9 10  1  0
 10 11  2  0
 10 12  1  0
 12 13  1  0
 13 14  1  0
  6 15  1  0
 15 16  1  0
 16 17  1  0
 17 18  2  0
 18 19  1  0
 19 20  2  0
 20 21  1  0
 21 22  2  0
 21 23  1  0
 20 24  1  0
 24 25  2  0
 15  2  1  0
 25 17  1  0
 13  8  2  0
  1 26  1  0
  1 27  1  0
  7 28  1  0
 14 29  1  0
 16 30  1  0
 16 31  1  0
 18 32  1  0
 19 33  1  0
 24 34  1  0
 25 35  1  0
M  CHG  4   5  -1   9  -1  12  -1  23  -1
M  END
>  <UniqueID>  (53) 
50

>  <SMILES>  (53) 
C=c1c(=O)[n-]c(=Cc2[n-]c(=O)[n-]c2O)n1Cc1ccc(C(=O)[O-])cc1

>  <Energy>  (53) 
112.1939226162188

>  <Genealogy>  (53) 
C=c1c(=O)[n-]c(=Cc2[n-]c(=O)[n-]c2O)n1Cc1ccc(C(=O)[O-])cc1 (protonated)
C=c1c(=O)[n-]c(=Cc2[n-]c(=O)[n-]c2O)n1Cc1ccc(C(=O)[O-])cc1 (3D coordinates assigned)
C=c1c(=O)[n-]c(=Cc2[n-]c(=O)[n-]c2O)n1Cc1ccc(C(=O)[O-])cc1 (optimized conformer: 112.1939226162188 kcal/mol)

>  <smiles>  (53) 
C=c1c(=O)[nH]c(=Cc2[nH]c(=O)[nH]c2O)n1Cc1ccc(C(=O)O)cc1

>  <score_type>  (53) 
oracle

>  <origin>  (53) 
adg

>  <m_score__min__energy>  (53) 
-14.24

>  <m_primary>  (53) 
energy

$$$$
53:0
     RDKit          3D

 64 66  0  0  0  0  0  0  0  0999 V2000
   57.3352   34.3273   43.7094 H   0  0  0  0  0  0  0  0  0  0  0  0
   58.1210   34.5380   45.6430 C   0  0  0  0  0  0  0  0  0  0  0  0
   57.7520   33.8030   44.5820 C   0  0  0  0  0  0  0  0  0  0  0  0
   57.6120   31.9640   42.1630 C   0  0  0  0  0  0  0  0  0  0  0  0
   57.8020   32.2910   41.0680 N   0  0  0  0  0  0  0  0  0  0  0  0
   56.5970   30.3200   43.7360 C   0  0  0  0  0  0  0  0  0  0  0  0
   55.9770   29.7810   42.7790 O   0  0  0  0  0  0  0  0  0  0  0  0
   56.4870   29.7950   45.0280 O   0  0  0  0  0  0  0  0  0  0  0  0
   57.4650   28.9370   45.6150 C   0  0  0  0  0  0  0  0  0  0  0  0
   56.9666   28.0413   46.0140 H   0  0  0  0  0  0  0  0  0  0  0  0
   57.9744   29.4824   46.4231 H   0  0  0  0  0  0  0  0  0  0  0  0
   58.5010   28.5140   44.5810 C   0  0  0  0  0  0  0  0  0  0  0  0
   59.4019   28.1462   45.0939 H   0  0  0  0  0  0  0  0  0  0  0  0
   58.0850   27.7137   43.9513 H   0  0  0  0  0  0  0  0  0  0  0  0
   58.7640   29.3767   43.9513 H   0  0  0  0  0  0  0  0  0  0  0  0
   57.3740   31.5580   43.5270 C   0  0  0  0  0  0  0  0  0  0  0  0
   57.4906   35.3995   45.9086 H   0  0  0  0  0  0  0  0  0  0  0  0
   57.8730   32.3240   44.5160 C   0  0  0  0  0  0  0  0  0  0  0  0
   58.4083   31.8183   45.3331 H   0  0  0  0  0  0  0  0  0  0  0  0
   59.3080   34.2780   46.4800 C   0  0  0  0  0  0  0  0  0  0  0  0
   59.3250   34.7230   47.8090 C   0  0  0  0  0  0  0  0  0  0  0  0
   58.4470   35.2391   48.2248 H   0  0  0  0  0  0  0  0  0  0  0  0
   60.4530   34.5140   48.6090 C   0  0  0  0  0  0  0  0  0  0  0  0
   60.4490   34.8469   49.6574 H   0  0  0  0  0  0  0  0  0  0  0  0
   61.5900   33.8820   48.0820 C   0  0  0  0  0  0  0  0  0  0  0  0
   62.7420   33.6440   48.9110 N   0  0  0  0  0  0  0  0  0  0  0  0
   63.7990   32.7390   48.4470 C   0  0  0  0  0  0  0  0  0  0  0  0
   63.3865   31.7241   48.3482 H   0  0  0  0  0  0  0  0  0  0  0  0
   64.1691   33.0995   47.4759 H   0  0  0  0  0  0  0  0  0  0  0  0
   64.9720   32.7110   49.4400 C   0  0  0  0  0  0  0  0  0  0  0  0
   65.6768   31.9265   49.1272 H   0  0  0  0  0  0  0  0  0  0  0  0
   65.4349   33.7088   49.4290 H   0  0  0  0  0  0  0  0  0  0  0  0
   64.5450   32.4340   50.8430 N   0  0  0  0  0  0  0  0  0  0  0  0
   65.2760   32.8520   51.4670 H   0  0  0  0  0  0  0  0  0  0  0  0
   64.5010   30.9790   51.1260 C   0  0  0  0  0  0  0  0  0  0  0  0
   65.0104   30.4435   50.3113 H   0  0  0  0  0  0  0  0  0  0  0  0
   65.0007   30.8060   52.0906 H   0  0  0  0  0  0  0  0  0  0  0  0
   63.0910   30.4670   51.2360 C   0  0  0  0  0  0  0  0  0  0  0  0
   62.6570   30.0680   52.3510 O   0  0  0  0  0  0  0  0  0  0  0  0
   62.2490   30.4640   50.0760 N   0  0  0  0  0  0  0  0  0  0  0  0
   60.9290   31.0230   49.9750 C   0  0  0  0  0  0  0  0  0  0  0  0
   60.3200   31.6510   51.0790 C   0  0  0  0  0  0  0  0  0  0  0  0
   60.8682   31.7387   52.0286 H   0  0  0  0  0  0  0  0  0  0  0  0
   59.0250   32.1630   50.9760 C   0  0  0  0  0  0  0  0  0  0  0  0
   58.5616   32.6619   51.8399 H   0  0  0  0  0  0  0  0  0  0  0  0
   58.3180   32.0430   49.7800 C   0  0  0  0  0  0  0  0  0  0  0  0
   57.3016   32.4557   49.6993 H   0  0  0  0  0  0  0  0  0  0  0  0
   58.8980   31.4000   48.6850 C   0  0  0  0  0  0  0  0  0  0  0  0
   58.3309   31.3009   47.7477 H   0  0  0  0  0  0  0  0  0  0  0  0
   60.2030   30.8770   48.7700 C   0  0  0  0  0  0  0  0  0  0  0  0
   60.8280   30.1690   47.5860 C   0  0  0  0  0  0  0  0  0  0  0  0
   60.8530   28.8060   47.8220 F   0  0  0  0  0  0  0  0  0  0  0  0
   60.1210   30.3960   46.4170 F   0  0  0  0  0  0  0  0  0  0  0  0
   62.1230   30.6210   47.4070 F   0  0  0  0  0  0  0  0  0  0  0  0
   63.2460   33.0710   51.2220 C   0  0  0  0  0  0  0  0  0  0  0  0
   62.4635   32.2979   51.2204 H   0  0  0  0  0  0  0  0  0  0  0  0
   63.3795   33.5205   52.2171 H   0  0  0  0  0  0  0  0  0  0  0  0
   62.8250   34.1920   50.2680 C   0  0  0  0  0  0  0  0  0  0  0  0
   61.8432   34.5860   50.5694 H   0  0  0  0  0  0  0  0  0  0  0  0
   63.5612   35.0087   50.2993 H   0  0  0  0  0  0  0  0  0  0  0  0
   61.5820   33.4640   46.7420 C   0  0  0  0  0  0  0  0  0  0  0  0
   62.4693   32.9709   46.3183 H   0  0  0  0  0  0  0  0  0  0  0  0
   60.4550   33.6700   45.9430 C   0  0  0  0  0  0  0  0  0  0  0  0
   60.4656   33.3549   44.8891 H   0  0  0  0  0  0  0  0  0  0  0  0
  1  2  1  0
  2  3  2  0
  3  4  1  0
  4  5  3  0
  3  6  1  0
  6  7  2  0
  6  8  1  0
  8  9  1  0
  9 10  1  0
  9 11  1  0
  9 12  1  0
 12 13  1  0
 12 14  1  0
 12 15  1  0
  2 16  1  0
 16 17  1  0
 16 18  2  0
 18 19  1  0
 18 20  1  0
 20 21  2  0
 21 22  1  0
 21 23  1  0
 23 24  1  0
 23 25  2  0
 25 26  1  0
 26 27  1  0
 27 28  1  0
 27 29  1  0
 27 30  1  0
 30 31  1  0
 30 32  1  0
 30 33  1  0
 33 34  1  0
 33 35  1  0
 35 36  1  0
 35 37  1  0
 35 38  1  0
 38 39  2  0
 38 40  1  0
 40 41  1  0
 41 42  2  0
 42 43  1  0
 42 44  1  0
 44 45  1  0
 44 46  2  0
 46 47  1  0
 46 48  1  0
 48 49  1  0
 48 50  2  0
 50 51  1  0
 51 52  1  0
 51 53  1  0
 51 54  1  0
 33 55  1  0
 55 56  1  0
 55 57  1  0
 55 58  1  0
 58 59  1  0
 58 60  1  0
 25 61  1  0
 61 62  1  0
 61 63  2  0
 63 64  1  0
 63 20  1  0
 58 26  1  0
 50 41  1  0
M  CHG  2  33   1  40  -1
M  END
>  <UniqueID>  (54) 
51

>  <SMILES>  (54) 
CCOC(=O)/C(C#N)=C\C=C/c1ccc(N2CC[NH+](CC(=O)[N-]c3ccccc3C(F)(F)F)CC2)cc1

>  <Energy>  (54) 
89.39471418861474

>  <Genealogy>  (54) 
CCOC(=O)C(C#N)=CC=Cc1ccc(N2CC[NH+](CC(=O)[N-]c3ccccc3C(F)(F)F)CC2)cc1 (protonated)
CCOC(=O)/C(C#N)=C\C=C/c1ccc(N2CC[NH+](CC(=O)[N-]c3ccccc3C(F)(F)F)CC2)cc1 (cis-trans isomerization)
CCOC(=O)/C(C#N)=C\C=C/c1ccc(N2CC[NH+](CC(=O)[N-]c3ccccc3C(F)(F)F)CC2)cc1 (3D coordinates assigned)
CCOC(=O)/C(C#N)=C\C=C/c1ccc(N2CC[NH+](CC(=O)[N-]c3ccccc3C(F)(F)F)CC2)cc1 (nonaromatic ring conformer: 89.39471418861474 kcal/mol)

>  <smiles>  (54) 
CCOC(=O)C(C#N)=CC=Cc1ccc(N2CCN(CC(=O)Nc3ccccc3C(F)(F)F)CC2)cc1

>  <score_type>  (54) 
oracle

>  <origin>  (54) 
adg

>  <m_score__min__energy>  (54) 
-8.0700000000000003

>  <m_primary>  (54) 
energy

$$$$
54:0
     RDKit          3D

 65 69  0  0  0  0  0  0  0  0999 V2000
   56.2720   32.9200   45.2490 O   0  0  0  0  0  0  0  0  0  0  0  0
   57.4110   33.1490   45.7370 C   0  0  0  0  0  0  0  0  0  0  0  0
   57.9170   34.4890   45.6960 N   0  0  0  0  0  0  0  0  0  0  0  0
   59.5900   34.9170   45.5110 S   0  0  0  0  0  0  0  0  0  0  0  0
   59.7060   36.4080   45.3500 O   0  0  0  0  0  0  0  0  0  0  0  0
   60.1690   34.2260   44.3080 O   0  0  0  0  0  0  0  0  0  0  0  0
   60.4900   34.4060   46.9360 C   0  0  0  0  0  0  0  0  0  0  0  0
   59.9350   34.5830   48.2120 C   0  0  0  0  0  0  0  0  0  0  0  0
   60.6430   34.1950   49.3520 C   0  0  0  0  0  0  0  0  0  0  0  0
   61.9180   33.6250   49.2290 C   0  0  0  0  0  0  0  0  0  0  0  0
   62.6380   33.2280   50.3670 C   0  0  0  0  0  0  0  0  0  0  0  0
   63.9080   32.6610   50.2310 C   0  0  0  0  0  0  0  0  0  0  0  0
   64.4690   32.4870   48.9610 C   0  0  0  0  0  0  0  0  0  0  0  0
   63.7630   32.8800   47.8210 C   0  0  0  0  0  0  0  0  0  0  0  0
   62.4870   33.4500   47.9440 C   0  0  0  0  0  0  0  0  0  0  0  0
   61.7680   33.8460   46.8050 C   0  0  0  0  0  0  0  0  0  0  0  0
   58.1740   32.0320   46.3270 C   0  0  0  0  0  0  0  0  0  0  0  0
   58.3580   31.9430   47.7150 C   0  0  0  0  0  0  0  0  0  0  0  0
   59.0850   30.8850   48.2660 C   0  0  0  0  0  0  0  0  0  0  0  0
   59.6700   29.9130   47.4360 C   0  0  0  0  0  0  0  0  0  0  0  0
   60.4380   28.7500   48.0320 C   0  0  0  0  0  0  0  0  0  0  0  0
   59.8960   27.4220   47.6640 N   0  0  0  0  0  0  0  0  0  0  0  0
   58.4320   27.3130   47.8000 C   0  0  0  0  0  0  0  0  0  0  0  0
   57.9970   25.8850   47.4630 C   0  0  0  0  0  0  0  0  0  0  0  0
   58.3670   25.4820   46.0800 N   0  0  0  0  0  0  0  0  0  0  0  0
   58.8030   24.0700   46.0130 C   0  0  0  0  0  0  0  0  0  0  0  0
   58.0240   23.3100   44.9640 C   0  0  0  0  0  0  0  0  0  0  0  0
   57.3210   24.0240   43.9770 C   0  0  0  0  0  0  0  0  0  0  0  0
   56.5980   23.3500   42.9900 C   0  0  0  0  0  0  0  0  0  0  0  0
   56.5680   21.9560   42.9740 C   0  0  0  0  0  0  0  0  0  0  0  0
   57.2630   21.2310   43.9440 C   0  0  0  0  0  0  0  0  0  0  0  0
   57.9950   21.8930   44.9400 C   0  0  0  0  0  0  0  0  0  0  0  0
   58.6770   21.1190   45.8820 O   0  0  0  0  0  0  0  0  0  0  0  0
   59.3470   26.3860   45.4320 C   0  0  0  0  0  0  0  0  0  0  0  0
   60.4430   26.8560   46.4060 C   0  0  0  0  0  0  0  0  0  0  0  0
   59.4920   30.0100   46.0460 C   0  0  0  0  0  0  0  0  0  0  0  0
   58.7610   31.0670   45.4950 C   0  0  0  0  0  0  0  0  0  0  0  0
   58.9355   35.0304   48.3157 H   0  0  0  0  0  0  0  0  0  0  0  0
   60.1992   34.3370   50.3484 H   0  0  0  0  0  0  0  0  0  0  0  0
   62.2016   33.3635   51.3676 H   0  0  0  0  0  0  0  0  0  0  0  0
   64.4684   32.3505   51.1252 H   0  0  0  0  0  0  0  0  0  0  0  0
   65.4688   32.0395   48.8597 H   0  0  0  0  0  0  0  0  0  0  0  0
   64.2087   32.7421   46.8248 H   0  0  0  0  0  0  0  0  0  0  0  0
   62.2095   33.7162   45.8059 H   0  0  0  0  0  0  0  0  0  0  0  0
   57.9270   32.7113   48.3737 H   0  0  0  0  0  0  0  0  0  0  0  0
   59.2005   30.8120   49.3575 H   0  0  0  0  0  0  0  0  0  0  0  0
   61.4797   28.8077   47.6834 H   0  0  0  0  0  0  0  0  0  0  0  0
   60.3533   28.8379   49.1252 H   0  0  0  0  0  0  0  0  0  0  0  0
   58.1403   27.5516   48.8334 H   0  0  0  0  0  0  0  0  0  0  0  0
   57.9447   28.0186   47.1111 H   0  0  0  0  0  0  0  0  0  0  0  0
   58.4783   25.1944   48.1711 H   0  0  0  0  0  0  0  0  0  0  0  0
   56.9002   25.8462   47.5375 H   0  0  0  0  0  0  0  0  0  0  0  0
   59.8732   24.0359   45.7609 H   0  0  0  0  0  0  0  0  0  0  0  0
   58.6216   23.6011   46.9914 H   0  0  0  0  0  0  0  0  0  0  0  0
   57.3407   25.1238   43.9824 H   0  0  0  0  0  0  0  0  0  0  0  0
   56.0514   23.9198   42.2241 H   0  0  0  0  0  0  0  0  0  0  0  0
   55.9966   21.4273   42.1969 H   0  0  0  0  0  0  0  0  0  0  0  0
   57.2361   20.1315   43.9267 H   0  0  0  0  0  0  0  0  0  0  0  0
   59.2700   20.3390   45.6320 H   0  0  0  0  0  0  0  0  0  0  0  0
   59.8222   25.8515   44.5963 H   0  0  0  0  0  0  0  0  0  0  0  0
   58.8033   27.2763   45.0829 H   0  0  0  0  0  0  0  0  0  0  0  0
   61.0814   25.9961   46.6569 H   0  0  0  0  0  0  0  0  0  0  0  0
   61.0090   27.6547   45.9043 H   0  0  0  0  0  0  0  0  0  0  0  0
   59.9314   29.2480   45.3854 H   0  0  0  0  0  0  0  0  0  0  0  0
   58.6456   31.1422   44.4037 H   0  0  0  0  0  0  0  0  0  0  0  0
  1  2  2  0
  2  3  1  0
  3  4  1  0
  4  5  2  0
  4  6  2  0
  4  7  1  0
  7  8  2  0
  8  9  1  0
  9 10  2  0
 10 11  1  0
 11 12  2  0
 12 13  1  0
 13 14  2  0
 14 15  1  0
 15 16  2  0
  2 17  1  0
 17 18  2  0
 18 19  1  0
 19 20  2  0
 20 21  1  0
 21 22  1  0
 22 23  1  0
 23 24  1  0
 24 25  1  0
 25 26  1  0
 26 27  1  0
 27 28  2  0
 28 29  1  0
 29 30  2  0
 30 31  1  0
 31 32  2  0
 32 33  1  0
 25 34  1  0
 34 35  1  0
 20 36  1  0
 36 37  2  0
 16  7  1  0
 37 17  1  0
 15 10  1  0
 35 22  1  0
 32 27  1  0
  8 38  1  0
  9 39  1  0
 11 40  1  0
 12 41  1  0
 13 42  1  0
 14 43  1  0
 16 44  1  0
 18 45  1  0
 19 46  1  0
 21 47  1  0
 21 48  1  0
 23 49  1  0
 23 50  1  0
 24 51  1  0
 24 52  1  0
 26 53  1  0
 26 54  1  0
 28 55  1  0
 29 56  1  0
 30 57  1  0
 31 58  1  0
 33 59  1  0
 34 60  1  0
 34 61  1  0
 35 62  1  0
 35 63  1  0
 36 64  1  0
 37 65  1  0
M  CHG  1   3  -1
M  END
>  <UniqueID>  (55) 
52

>  <SMILES>  (55) 
O=C([N-]S(=O)(=O)c1ccc2ccccc2c1)c1ccc(CN2CCN(Cc3ccccc3O)CC2)cc1

>  <Energy>  (55) 
99.6557575489641

>  <Genealogy>  (55) 
O=C([N-]S(=O)(=O)c1ccc2ccccc2c1)c1ccc(CN2CCN(Cc3ccccc3O)CC2)cc1 (protonated)
O=C([N-]S(=O)(=O)c1ccc2ccccc2c1)c1ccc(CN2CCN(Cc3ccccc3O)CC2)cc1 (3D coordinates assigned)
O=C([N-]S(=O)(=O)c1ccc2ccccc2c1)c1ccc(CN2CCN(Cc3ccccc3O)CC2)cc1 (nonaromatic ring conformer: 99.6557575489641 kcal/mol)

>  <smiles>  (55) 
O=C(NS(=O)(=O)c1ccc2ccccc2c1)c1ccc(CN2CCN(Cc3ccccc3O)CC2)cc1

>  <score_type>  (55) 
oracle

>  <origin>  (55) 
adg

>  <m_score__min__energy>  (55) 
-11.99

>  <m_primary>  (55) 
energy

$$$$
55:0
     RDKit          3D

 40 42  0  0  0  0  0  0  0  0999 V2000
   59.1620   30.6200   48.1240 C   0  0  0  0  0  0  0  0  0  0  0  0
   58.7490   31.0930   46.9360 C   0  0  0  0  0  0  0  0  0  0  0  0
   58.3880   30.3300   45.8130 C   0  0  0  0  0  0  0  0  0  0  0  0
   58.5300   29.0170   45.5530 C   0  0  0  0  0  0  0  0  0  0  0  0
   57.6080   27.9560   45.9860 C   0  0  0  0  0  0  0  0  0  0  0  0
   58.0610   26.5420   46.7910 S   0  0  0  0  0  0  0  0  0  0  0  0
   56.5220   25.8820   46.6750 C   0  0  0  0  0  0  0  0  0  0  0  0
   56.1940   24.7600   47.1410 O   0  0  0  0  0  0  0  0  0  0  0  0
   55.6610   26.6830   46.0140 N   0  0  0  0  0  0  0  0  0  0  0  0
   56.2680   27.8320   45.6130 C   0  0  0  0  0  0  0  0  0  0  0  0
   55.5760   28.7990   44.8870 O   0  0  0  0  0  0  0  0  0  0  0  0
   57.8330   31.2140   44.9060 C   0  0  0  0  0  0  0  0  0  0  0  0
   57.9370   32.4730   45.4580 C   0  0  0  0  0  0  0  0  0  0  0  0
   57.4540   33.7280   44.7950 C   0  0  0  0  0  0  0  0  0  0  0  0
   58.4900   32.4080   46.6920 N   0  0  0  0  0  0  0  0  0  0  0  0
   58.7740   33.5660   47.5570 C   0  0  0  0  0  0  0  0  0  0  0  0
   59.9310   34.4090   47.0020 C   0  0  0  0  0  0  0  0  0  0  0  0
   61.2570   34.0100   47.5950 C   0  0  0  0  0  0  0  0  0  0  0  0
   62.2670   33.4760   46.7790 C   0  0  0  0  0  0  0  0  0  0  0  0
   63.4810   33.0640   47.3370 C   0  0  0  0  0  0  0  0  0  0  0  0
   63.6910   33.1730   48.7150 C   0  0  0  0  0  0  0  0  0  0  0  0
   64.8930   32.7530   49.2700 O   0  0  0  0  0  0  0  0  0  0  0  0
   62.6890   33.7010   49.5350 C   0  0  0  0  0  0  0  0  0  0  0  0
   61.4750   34.1190   48.9790 C   0  0  0  0  0  0  0  0  0  0  0  0
   59.4190   31.3178   48.9346 H   0  0  0  0  0  0  0  0  0  0  0  0
   59.2431   29.5350   48.2859 H   0  0  0  0  0  0  0  0  0  0  0  0
   59.4097   28.7118   44.9674 H   0  0  0  0  0  0  0  0  0  0  0  0
   55.6090   28.8290   43.8760 H   0  0  0  0  0  0  0  0  0  0  0  0
   57.3926   30.9610   43.9303 H   0  0  0  0  0  0  0  0  0  0  0  0
   57.1712   34.4629   45.5630 H   0  0  0  0  0  0  0  0  0  0  0  0
   58.2564   34.1435   44.1678 H   0  0  0  0  0  0  0  0  0  0  0  0
   56.5800   33.4983   44.1678 H   0  0  0  0  0  0  0  0  0  0  0  0
   57.8730   34.1936   47.6222 H   0  0  0  0  0  0  0  0  0  0  0  0
   59.0627   33.1934   48.5509 H   0  0  0  0  0  0  0  0  0  0  0  0
   59.9757   34.2757   45.9110 H   0  0  0  0  0  0  0  0  0  0  0  0
   59.7430   35.4597   47.2679 H   0  0  0  0  0  0  0  0  0  0  0  0
   62.1024   33.3813   45.6955 H   0  0  0  0  0  0  0  0  0  0  0  0
   64.2715   32.6538   46.6914 H   0  0  0  0  0  0  0  0  0  0  0  0
   62.8554   33.7879   50.6189 H   0  0  0  0  0  0  0  0  0  0  0  0
   60.6890   34.5341   49.6270 H   0  0  0  0  0  0  0  0  0  0  0  0
  1  2  2  0
  2  3  1  0
  3  4  2  3
  4  5  1  0
  5  6  1  0
  6  7  1  0
  7  8  2  0
  7  9  1  0
  9 10  1  0
 10 11  1  0
  3 12  1  0
 12 13  2  0
 13 14  1  0
 13 15  1  0
 15 16  1  0
 16 17  1  0
 17 18  1  0
 18 19  2  0
 19 20  1  0
 20 21  2  0
 21 22  1  0
 21 23  1  0
 23 24  2  0
 15  2  1  0
 24 18  1  0
 10  5  2  0
  1 25  1  0
  1 26  1  0
  4 27  1  0
 11 28  1  0
 12 29  1  0
 14 30  1  0
 14 31  1  0
 14 32  1  0
 16 33  1  0
 16 34  1  0
 17 35  1  0
 17 36  1  0
 19 37  1  0
 20 38  1  0
 23 39  1  0
 24 40  1  0
M  CHG  2   9  -1  22  -1
M  END
>  <UniqueID>  (56) 
53

>  <SMILES>  (56) 
C=c1c(=Cc2sc(=O)[n-]c2O)cc(C)n1CCc1ccc([O-])cc1

>  <Energy>  (56) 
107.79696937758607

>  <Genealogy>  (56) 
C=c1c(=Cc2sc(=O)[n-]c2O)cc(C)n1CCc1ccc([O-])cc1 (protonated)
C=c1c(=Cc2sc(=O)[n-]c2O)cc(C)n1CCc1ccc([O-])cc1 (3D coordinates assigned)
C=c1c(=Cc2sc(=O)[n-]c2O)cc(C)n1CCc1ccc([O-])cc1 (optimized conformer: 107.79696937758607 kcal/mol)

>  <smiles>  (56) 
C=c1c(=Cc2sc(=O)[nH]c2O)cc(C)n1CCc1ccc(O)cc1

>  <score_type>  (56) 
oracle

>  <origin>  (56) 
adg

>  <m_score__min__energy>  (56) 
-11.789999999999999

>  <m_primary>  (56) 
energy

$$$$
56:0
     RDKit          3D

 64 67  0  0  1  0  0  0  0  0999 V2000
   56.0640   30.0740   43.3900 C   0  0  0  0  0  0  0  0  0  0  0  0
   55.6830   29.5590   44.6510 O   0  0  0  0  0  0  0  0  0  0  0  0
   56.6210   28.7880   45.3330 C   0  0  0  0  0  0  0  0  0  0  0  0
   57.7380   29.3560   45.9090 C   0  0  0  0  0  0  0  0  0  0  0  0
   58.6850   28.5970   46.5950 C   0  0  0  0  0  0  0  0  0  0  0  0
   59.7030   29.2180   47.1020 N   0  0  0  0  0  0  0  0  0  0  0  0
   60.3830   28.8230   48.2510 C   0  0  0  0  0  0  0  0  0  0  0  0
   60.8050   27.6110   48.3600 O   0  0  0  0  0  0  0  0  0  0  0  0
   60.6330   29.7170   49.3250 C   0  0  0  0  0  0  0  0  0  0  0  0
   59.9500   29.5620   50.5130 C   0  0  0  0  0  0  0  0  0  0  0  0
   60.1260   30.3780   51.6080 C   0  0  0  0  0  0  0  0  0  0  0  0
   61.0350   31.4130   51.5230 C   0  0  0  0  0  0  0  0  0  0  0  0
   61.7520   31.6090   50.3340 C   0  0  0  0  0  0  0  0  0  0  0  0
   62.6600   32.6910   50.3380 N   0  0  0  0  0  0  0  0  0  0  0  0
   62.7550   33.8720   49.0850 S   0  0  0  0  0  0  0  0  0  0  0  0
   63.9390   33.6060   48.1960 O   0  0  0  0  0  0  0  0  0  0  0  0
   62.9750   35.2270   49.6970 O   0  0  0  0  0  0  0  0  0  0  0  0
   61.2610   33.8370   48.1640 C   0  0  0  0  0  0  0  0  0  0  0  0
   61.4150   33.7880   46.7730 C   0  0  0  0  0  0  0  0  0  0  0  0
   60.2750   33.7580   45.9870 C   0  0  0  0  0  0  0  0  0  0  0  0
   59.0100   33.7760   46.5480 C   0  0  0  0  0  0  0  0  0  0  0  0
   57.9520   33.7430   45.7260 F   0  0  0  0  0  0  0  0  0  0  0  0
   58.9210   33.8230   47.9180 C   0  0  0  0  0  0  0  0  0  0  0  0
   60.0180   33.8550   48.7580 C   0  0  0  0  0  0  0  0  0  0  0  0
   61.5510   30.7720   49.2550 C   0  0  0  0  0  0  0  0  0  0  0  0
   58.4840   27.2870   46.6820 N   0  0  0  0  0  0  0  0  0  0  0  0
   57.4010   26.7060   46.1280 C   0  0  0  0  0  0  0  0  0  0  0  0
   57.1620   25.2250   46.2150 C   0  0  2  0  0  0  0  0  0  0  0  0
   57.0060   24.7980   47.6570 C   0  0  0  0  0  0  0  0  0  0  0  0
   58.2330   24.4240   45.5510 C   0  0  0  0  0  0  0  0  0  0  0  0
   57.7440   23.4560   44.5110 C   0  0  0  0  0  0  0  0  0  0  0  0
   56.5010   22.7370   44.9160 C   0  0  1  0  0  0  0  0  0  0  0  0
   56.8610   21.4860   45.5940 C   0  0  0  0  0  0  0  0  0  0  0  0
   56.6070   20.2600   44.9480 N   0  0  0  0  0  0  0  0  0  0  0  0
   57.3940   21.4330   46.7410 O   0  0  0  0  0  0  0  0  0  0  0  0
   55.6700   23.4950   45.7490 O   0  0  0  0  0  0  0  0  0  0  0  0
   55.8500   24.8650   45.5330 C   0  0  0  0  0  0  0  0  0  0  0  0
   56.4940   27.4490   45.4690 N   0  0  0  0  0  0  0  0  0  0  0  0
   56.7127   30.9508   43.5328 H   0  0  0  0  0  0  0  0  0  0  0  0
   56.6098   29.3017   42.8282 H   0  0  0  0  0  0  0  0  0  0  0  0
   55.1658   30.3700   42.8282 H   0  0  0  0  0  0  0  0  0  0  0  0
   57.8864   30.4427   45.8244 H   0  0  0  0  0  0  0  0  0  0  0  0
   59.2234   28.7398   50.5902 H   0  0  0  0  0  0  0  0  0  0  0  0
   59.5536   30.2084   52.5319 H   0  0  0  0  0  0  0  0  0  0  0  0
   61.1960   32.0801   52.3827 H   0  0  0  0  0  0  0  0  0  0  0  0
   63.3110   32.7820   51.1480 H   0  0  0  0  0  0  0  0  0  0  0  0
   62.4156   33.7737   46.3163 H   0  0  0  0  0  0  0  0  0  0  0  0
   60.3774   33.7190   44.8925 H   0  0  0  0  0  0  0  0  0  0  0  0
   57.9193   33.8359   48.3724 H   0  0  0  0  0  0  0  0  0  0  0  0
   59.9039   33.8931   49.8514 H   0  0  0  0  0  0  0  0  0  0  0  0
   62.1196   30.9360   48.3277 H   0  0  0  0  0  0  0  0  0  0  0  0
   59.1880   26.7190   47.1920 H   0  0  0  0  0  0  0  0  0  0  0  0
   57.3076   25.6235   48.3185 H   0  0  0  0  0  0  0  0  0  0  0  0
   55.9549   24.5381   47.8508 H   0  0  0  0  0  0  0  0  0  0  0  0
   57.6421   23.9217   47.8508 H   0  0  0  0  0  0  0  0  0  0  0  0
   58.9318   25.1221   45.0668 H   0  0  0  0  0  0  0  0  0  0  0  0
   58.7012   23.8186   46.3411 H   0  0  0  0  0  0  0  0  0  0  0  0
   57.5400   24.0121   43.5841 H   0  0  0  0  0  0  0  0  0  0  0  0
   58.5299   22.6987   44.3739 H   0  0  0  0  0  0  0  0  0  0  0  0
   55.9331   22.5365   43.9955 H   0  0  0  0  0  0  0  0  0  0  0  0
   57.4130   19.8170   44.4240 H   0  0  0  0  0  0  0  0  0  0  0  0
   55.6590   19.8040   44.9830 H   0  0  0  0  0  0  0  0  0  0  0  0
   55.9076   25.0783   44.4554 H   0  0  0  0  0  0  0  0  0  0  0  0
   55.0109   25.4514   45.9356 H   0  0  0  0  0  0  0  0  0  0  0  0
  1  2  1  0
  2  3  1  0
  3  4  2  0
  4  5  1  0
  5  6  2  0
  6  7  1  0
  7  8  2  0
  7  9  1  0
  9 10  2  0
 10 11  1  0
 11 12  2  0
 12 13  1  0
 13 14  1  0
 14 15  1  0
 15 16  2  0
 15 17  2  0
 15 18  1  0
 18 19  2  0
 19 20  1  0
 20 21  2  0
 21 22  1  0
 21 23  1  0
 23 24  2  0
 13 25  2  0
  5 26  1  0
 26 27  1  0
 27 28  1  0
 28 29  1  1
 28 30  1  0
 30 31  1  0
 31 32  1  0
 32 33  1  0
 33 34  1  0
 33 35  2  0
 32 36  1  0
 36 37  1  0
 27 38  2  0
 38  3  1  0
 25  9  1  0
 37 28  1  0
 24 18  1  0
  1 39  1  0
  1 40  1  0
  1 41  1  0
  4 42  1  0
 10 43  1  0
 11 44  1  0
 12 45  1  0
 14 46  1  0
 19 47  1  0
 20 48  1  0
 23 49  1  0
 24 50  1  0
 25 51  1  0
 26 52  1  0
 29 53  1  0
 29 54  1  0
 29 55  1  0
 30 56  1  0
 30 57  1  0
 31 58  1  0
 31 59  1  0
 32 60  1  6
 34 61  1  0
 34 62  1  0
 37 63  1  0
 37 64  1  0
M  END
>  <smiles>  (57) 
COc1cc(=NC(=O)c2cccc(NS(=O)(=O)c3ccc(F)cc3)c2)[nH]c(C2(C)CCC(C(N)=O)OC2)n1

>  <score_type>  (57) 
oracle

>  <origin>  (57) 
adg

>  <m_score__min__energy>  (57) 
-10.960000000000001

>  <m_primary>  (57) 
energy

$$$$
57:0
     RDKit          3D

 50 53  0  0  0  0  0  0  0  0999 V2000
   53.7355   29.9751   55.5241 H   0  0  0  0  0  0  0  0  0  0  0  0
   53.2240   30.0340   54.5520 C   0  0  0  0  0  0  0  0  0  0  0  0
   52.1518   29.7991   54.4795 H   0  0  0  0  0  0  0  0  0  0  0  0
   53.9090   30.3930   53.4530 C   0  0  0  0  0  0  0  0  0  0  0  0
   53.3790   30.5060   52.1610 C   0  0  0  0  0  0  0  0  0  0  0  0
   52.1180   30.2400   51.7670 C   0  0  0  0  0  0  0  0  0  0  0  0
   51.5009   29.5956   52.4105 H   0  0  0  0  0  0  0  0  0  0  0  0
   51.5150   30.7600   50.5260 C   0  0  0  0  0  0  0  0  0  0  0  0
   51.0180   32.0040   50.4110 N   0  0  0  0  0  0  0  0  0  0  0  0
   50.6570   32.0800   49.1130 C   0  0  0  0  0  0  0  0  0  0  0  0
   50.1290   33.1080   48.6150 O   0  0  0  0  0  0  0  0  0  0  0  0
   50.9160   30.9720   48.3860 N   0  0  0  0  0  0  0  0  0  0  0  0
   51.4700   30.1490   49.2920 C   0  0  0  0  0  0  0  0  0  0  0  0
   51.9660   28.8890   48.9810 O   0  0  0  0  0  0  0  0  0  0  0  0
   54.4300   30.8830   51.3410 C   0  0  0  0  0  0  0  0  0  0  0  0
   54.3864   31.0537   50.2552 H   0  0  0  0  0  0  0  0  0  0  0  0
   55.5420   31.0030   52.1490 C   0  0  0  0  0  0  0  0  0  0  0  0
   56.9160   31.3220   51.6410 C   0  0  0  0  0  0  0  0  0  0  0  0
   57.5943   31.4795   52.4925 H   0  0  0  0  0  0  0  0  0  0  0  0
   57.2840   30.4854   51.0289 H   0  0  0  0  0  0  0  0  0  0  0  0
   56.8778   32.2352   51.0289 H   0  0  0  0  0  0  0  0  0  0  0  0
   55.2340   30.7060   53.4340 N   0  0  0  0  0  0  0  0  0  0  0  0
   56.1940   30.6680   54.5500 C   0  0  0  0  0  0  0  0  0  0  0  0
   56.4315   31.6971   54.8574 H   0  0  0  0  0  0  0  0  0  0  0  0
   55.7425   30.1148   55.3867 H   0  0  0  0  0  0  0  0  0  0  0  0
   57.4630   29.9700   54.1360 C   0  0  0  0  0  0  0  0  0  0  0  0
   57.4420   28.6180   53.7560 C   0  0  0  0  0  0  0  0  0  0  0  0
   56.4900   28.0670   53.7490 H   0  0  0  0  0  0  0  0  0  0  0  0
   58.6220   27.9690   53.3870 C   0  0  0  0  0  0  0  0  0  0  0  0
   58.5912   26.9128   53.0813 H   0  0  0  0  0  0  0  0  0  0  0  0
   59.8460   28.6530   53.4030 C   0  0  0  0  0  0  0  0  0  0  0  0
   61.0430   27.9670   52.9990 N   0  0  0  0  0  0  0  0  0  0  0  0
   60.9470   27.1600   52.3410 H   0  0  0  0  0  0  0  0  0  0  0  0
   62.3450   28.2310   53.5500 C   0  0  0  0  0  0  0  0  0  0  0  0
   62.4500   28.8650   54.6350 O   0  0  0  0  0  0  0  0  0  0  0  0
   63.5620   27.7450   52.8550 C   0  0  0  0  0  0  0  0  0  0  0  0
   64.5690   28.6700   52.5190 C   0  0  0  0  0  0  0  0  0  0  0  0
   64.4332   29.7344   52.7609 H   0  0  0  0  0  0  0  0  0  0  0  0
   65.7380   28.2500   51.8820 C   0  0  0  0  0  0  0  0  0  0  0  0
   66.5168   28.9832   51.6252 H   0  0  0  0  0  0  0  0  0  0  0  0
   65.9210   26.9010   51.5700 C   0  0  0  0  0  0  0  0  0  0  0  0
   67.3900   26.3770   50.7680 Cl  0  0  0  0  0  0  0  0  0  0  0  0
   64.9290   25.9710   51.8920 C   0  0  0  0  0  0  0  0  0  0  0  0
   65.0740   24.9098   51.6414 H   0  0  0  0  0  0  0  0  0  0  0  0
   63.7520   26.3790   52.5310 C   0  0  0  0  0  0  0  0  0  0  0  0
   62.5270   25.1540   52.8460 Cl  0  0  0  0  0  0  0  0  0  0  0  0
   59.8640   30.0130   53.7570 C   0  0  0  0  0  0  0  0  0  0  0  0
   60.8130   30.5691   53.7436 H   0  0  0  0  0  0  0  0  0  0  0  0
   58.6830   30.6630   54.1260 C   0  0  0  0  0  0  0  0  0  0  0  0
   58.7101   31.7252   54.4105 H   0  0  0  0  0  0  0  0  0  0  0  0
  1  2  1  0
  2  3  1  0
  2  4  2  0
  4  5  1  0
  5  6  2  0
  6  7  1  0
  6  8  1  0
  8  9  1  0
  9 10  1  0
 10 11  2  0
 10 12  1  0
 12 13  1  0
 13 14  1  0
  5 15  1  0
 15 16  1  0
 15 17  2  0
 17 18  1  0
 18 19  1  0
 18 20  1  0
 18 21  1  0
 17 22  1  0
 22 23  1  0
 23 24  1  0
 23 25  1  0
 23 26  1  0
 26 27  2  0
 27 28  1  0
 27 29  1  0
 29 30  1  0
 29 31  2  0
 31 32  1  0
 32 33  1  0
 32 34  1  0
 34 35  2  0
 34 36  1  0
 36 37  2  0
 37 38  1  0
 37 39  1  0
 39 40  1  0
 39 41  2  0
 41 42  1  0
 41 43  1  0
 43 44  1  0
 43 45  2  0
 45 46  1  0
 31 47  1  0
 47 48  1  0
 47 49  2  0
 49 50  1  0
 22  4  1  0
 49 26  1  0
 13  8  2  0
 45 36  1  0
M  CHG  3   9  -1  12  -1  14  -1
M  END
>  <UniqueID>  (58) 
54

>  <SMILES>  (58) 
C=c1/c(=C/c2[n-]c(=O)[n-]c2[O-])cc(C)n1Cc1ccc(NC(=O)c2ccc(Cl)cc2Cl)cc1

>  <Energy>  (58) 
127.3026156337348

>  <Genealogy>  (58) 
C=c1c(=Cc2[n-]c(=O)[n-]c2[O-])cc(C)n1Cc1ccc(NC(=O)c2ccc(Cl)cc2Cl)cc1 (protonated)
C=c1/c(=C/c2[n-]c(=O)[n-]c2[O-])cc(C)n1Cc1ccc(NC(=O)c2ccc(Cl)cc2Cl)cc1 (cis-trans isomerization)
C=c1/c(=C/c2[n-]c(=O)[n-]c2[O-])cc(C)n1Cc1ccc(NC(=O)c2ccc(Cl)cc2Cl)cc1 (3D coordinates assigned)
C=c1/c(=C/c2[n-]c(=O)[n-]c2[O-])cc(C)n1Cc1ccc(NC(=O)c2ccc(Cl)cc2Cl)cc1 (optimized conformer: 127.3026156337348 kcal/mol)

>  <smiles>  (58) 
C=c1c(=Cc2[nH]c(=O)[nH]c2O)cc(C)n1Cc1ccc(NC(=O)c2ccc(Cl)cc2Cl)cc1

>  <score_type>  (58) 
oracle

>  <origin>  (58) 
adg

>  <m_score__min__energy>  (58) 
-16.649999999999999

>  <m_primary>  (58) 
energy

$$$$
58:0
     RDKit          3D

 49 52  0  0  0  0  0  0  0  0999 V2000
   62.4040   30.5820   49.7940 O   0  0  0  0  0  0  0  0  0  0  0  0
   61.2420   30.4740   49.3240 C   0  0  0  0  0  0  0  0  0  0  0  0
   60.0900   31.0680   50.0750 C   0  0  0  0  0  0  0  0  0  0  0  0
   59.5900   32.2430   49.3650 N   0  0  0  0  0  0  0  0  0  0  0  0
   60.2860   33.6850   50.0400 S   0  0  0  0  0  0  0  0  0  0  0  0
   59.8050   33.8870   51.4510 O   0  0  0  0  0  0  0  0  0  0  0  0
   59.8590   34.8670   49.2160 O   0  0  0  0  0  0  0  0  0  0  0  0
   62.0440   33.5600   50.0170 C   0  0  0  0  0  0  0  0  0  0  0  0
   62.7680   33.5960   51.2180 C   0  0  0  0  0  0  0  0  0  0  0  0
   64.1650   33.5350   51.2000 C   0  0  0  0  0  0  0  0  0  0  0  0
   64.8460   33.4480   49.9850 C   0  0  0  0  0  0  0  0  0  0  0  0
   64.1310   33.4140   48.7840 C   0  0  0  0  0  0  0  0  0  0  0  0
   62.7340   33.4650   48.7980 C   0  0  0  0  0  0  0  0  0  0  0  0
   61.0620   29.8200   48.0610 N   0  0  0  0  0  0  0  0  0  0  0  0
   59.7760   29.5700   47.4150 C   0  0  2  0  0  0  0  0  0  0  0  0
   59.6090   28.1670   47.2590 O   0  0  0  0  0  0  0  0  0  0  0  0
   58.4160   27.6470   46.7700 C   0  0  0  0  0  0  0  0  0  0  0  0
   57.9290   26.4350   47.2730 C   0  0  0  0  0  0  0  0  0  0  0  0
   56.6660   25.9740   46.8880 C   0  0  0  0  0  0  0  0  0  0  0  0
   55.8920   26.7220   45.9930 C   0  0  0  0  0  0  0  0  0  0  0  0
   54.6320   26.2720   45.6180 O   0  0  0  0  0  0  0  0  0  0  0  0
   56.4000   27.9130   45.4600 C   0  0  0  0  0  0  0  0  0  0  0  0
   57.6760   28.3640   45.8240 C   0  0  0  0  0  0  0  0  0  0  0  0
   58.4090   29.7290   44.8990 S   0  0  0  0  0  0  0  0  0  0  0  0
   59.7350   30.2910   46.0570 C   0  0  1  0  0  0  0  0  0  0  0  0
   59.6140   31.7860   46.2740 C   0  0  0  0  0  0  0  0  0  0  0  0
   60.7660   32.5890   46.3750 C   0  0  0  0  0  0  0  0  0  0  0  0
   60.6570   33.9730   46.5340 C   0  0  0  0  0  0  0  0  0  0  0  0
   59.3930   34.5770   46.5700 C   0  0  0  0  0  0  0  0  0  0  0  0
   59.2710   35.9580   46.7220 O   0  0  0  0  0  0  0  0  0  0  0  0
   58.2420   33.7890   46.4490 C   0  0  0  0  0  0  0  0  0  0  0  0
   58.3490   32.4010   46.3030 C   0  0  0  0  0  0  0  0  0  0  0  0
   59.2856   30.3225   50.1593 H   0  0  0  0  0  0  0  0  0  0  0  0
   60.4258   31.3659   51.0793 H   0  0  0  0  0  0  0  0  0  0  0  0
   62.2350   33.6725   52.1772 H   0  0  0  0  0  0  0  0  0  0  0  0
   64.7279   33.5556   52.1449 H   0  0  0  0  0  0  0  0  0  0  0  0
   65.9451   33.4062   49.9722 H   0  0  0  0  0  0  0  0  0  0  0  0
   64.6685   33.3470   47.8266 H   0  0  0  0  0  0  0  0  0  0  0  0
   62.1741   33.4306   47.8518 H   0  0  0  0  0  0  0  0  0  0  0  0
   58.9518   29.9585   48.0312 H   0  0  0  0  0  0  0  0  0  0  0  0
   58.5401   25.8447   47.9716 H   0  0  0  0  0  0  0  0  0  0  0  0
   56.2811   25.0244   47.2882 H   0  0  0  0  0  0  0  0  0  0  0  0
   55.7944   28.4977   44.7519 H   0  0  0  0  0  0  0  0  0  0  0  0
   60.6833   30.0282   45.5655 H   0  0  0  0  0  0  0  0  0  0  0  0
   61.7611   32.1226   46.3283 H   0  0  0  0  0  0  0  0  0  0  0  0
   61.5635   34.5885   46.6309 H   0  0  0  0  0  0  0  0  0  0  0  0
   59.1810   36.3840   47.6390 H   0  0  0  0  0  0  0  0  0  0  0  0
   57.2494   34.2627   46.4688 H   0  0  0  0  0  0  0  0  0  0  0  0
   57.4400   31.7884   46.2105 H   0  0  0  0  0  0  0  0  0  0  0  0
  1  2  2  0
  2  3  1  0
  3  4  1  0
  4  5  1  0
  5  6  2  0
  5  7  2  0
  5  8  1  0
  8  9  2  0
  9 10  1  0
 10 11  2  0
 11 12  1  0
 12 13  2  0
  2 14  1  0
 14 15  1  0
 15 16  1  0
 16 17  1  0
 17 18  2  0
 18 19  1  0
 19 20  2  0
 20 21  1  0
 20 22  1  0
 22 23  2  0
 23 24  1  0
 24 25  1  0
 25 26  1  0
 26 27  2  0
 27 28  1  0
 28 29  2  0
 29 30  1  0
 29 31  1  0
 31 32  2  0
 13  8  1  0
 25 15  1  0
 32 26  1  0
 23 17  1  0
  3 33  1  0
  3 34  1  0
  9 35  1  0
 10 36  1  0
 11 37  1  0
 12 38  1  0
 13 39  1  0
 15 40  1  1
 18 41  1  0
 19 42  1  0
 22 43  1  0
 25 44  1  6
 27 45  1  0
 28 46  1  0
 30 47  1  0
 31 48  1  0
 32 49  1  0
M  CHG  3   4  -1  14  -1  21  -1
M  END
>  <UniqueID>  (59) 
55

>  <SMILES>  (59) 
O=C(C[N-]S(=O)(=O)c1ccccc1)[N-][C@@H]1Oc2ccc([O-])cc2S[C@H]1c1ccc(O)cc1

>  <Energy>  (59) 
57.28930416377906

>  <Genealogy>  (59) 
O=C(C[N-]S(=O)(=O)c1ccccc1)[N-]C1Oc2ccc([O-])cc2SC1c1ccc(O)cc1 (protonated)
O=C(C[N-]S(=O)(=O)c1ccccc1)[N-][C@@H]1Oc2ccc([O-])cc2S[C@H]1c1ccc(O)cc1 (chirality)
O=C(C[N-]S(=O)(=O)c1ccccc1)[N-][C@@H]1Oc2ccc([O-])cc2S[C@H]1c1ccc(O)cc1 (3D coordinates assigned)
O=C(C[N-]S(=O)(=O)c1ccccc1)[N-][C@@H]1Oc2ccc([O-])cc2S[C@H]1c1ccc(O)cc1 (nonaromatic ring conformer: 57.28930416377906 kcal/mol)

>  <smiles>  (59) 
O=C(CNS(=O)(=O)c1ccccc1)NC1Oc2ccc(O)cc2SC1c1ccc(O)cc1

>  <score_type>  (59) 
oracle

>  <origin>  (59) 
adg

>  <m_score__min__energy>  (59) 
-13.470000000000001

>  <m_primary>  (59) 
energy

$$$$
59:0
     RDKit          3D

 51 54  0  0  0  0  0  0  0  0999 V2000
   58.7810   35.2490   45.2030 O   0  0  0  0  0  0  0  0  0  0  0  0
   59.3150   34.1320   45.4410 C   0  0  0  0  0  0  0  0  0  0  0  0
   60.6350   34.0710   46.0030 N   0  0  0  0  0  0  0  0  0  0  0  0
   61.0560   33.2550   47.1060 C   0  0  0  0  0  0  0  0  0  0  0  0
   62.4070   32.8990   47.1980 C   0  0  0  0  0  0  0  0  0  0  0  0
   62.8520   32.0790   48.2380 C   0  0  0  0  0  0  0  0  0  0  0  0
   61.9480   31.6030   49.1890 C   0  0  0  0  0  0  0  0  0  0  0  0
   60.5940   31.9430   49.1140 C   0  0  0  0  0  0  0  0  0  0  0  0
   59.6920   31.4020   50.0910 N   0  0  0  0  0  0  0  0  0  0  0  0
   58.8700   30.2360   49.9400 C   0  0  0  0  0  0  0  0  0  0  0  0
   57.7540   30.1680   50.5240 O   0  0  0  0  0  0  0  0  0  0  0  0
   59.3540   29.0860   49.1410 C   0  0  0  0  0  0  0  0  0  0  0  0
   60.7060   28.7070   49.1730 C   0  0  0  0  0  0  0  0  0  0  0  0
   61.1420   27.6560   48.4340 N   0  0  0  0  0  0  0  0  0  0  0  0
   60.3040   26.9370   47.6410 C   0  0  0  0  0  0  0  0  0  0  0  0
   58.9410   27.2650   47.5670 C   0  0  0  0  0  0  0  0  0  0  0  0
   58.0160   26.4860   46.7040 C   0  0  0  0  0  0  0  0  0  0  0  0
   58.5030   25.4470   45.8870 C   0  0  0  0  0  0  0  0  0  0  0  0
   57.6320   24.7170   45.0730 C   0  0  0  0  0  0  0  0  0  0  0  0
   56.2670   25.0160   45.0620 C   0  0  0  0  0  0  0  0  0  0  0  0
   55.7710   26.0440   45.8680 C   0  0  0  0  0  0  0  0  0  0  0  0
   54.4120   26.3380   45.8570 O   0  0  0  0  0  0  0  0  0  0  0  0
   56.6380   26.7760   46.6850 C   0  0  0  0  0  0  0  0  0  0  0  0
   58.4750   28.3500   48.3280 C   0  0  0  0  0  0  0  0  0  0  0  0
   60.1430   32.7500   48.0520 C   0  0  0  0  0  0  0  0  0  0  0  0
   58.6000   32.8820   45.0900 C   0  0  0  0  0  0  0  0  0  0  0  0
   58.4510   31.8550   46.0400 C   0  0  0  0  0  0  0  0  0  0  0  0
   57.7810   30.6740   45.7090 C   0  0  0  0  0  0  0  0  0  0  0  0
   57.2590   30.4920   44.4200 C   0  0  0  0  0  0  0  0  0  0  0  0
   56.5070   29.2360   44.0760 C   0  0  0  0  0  0  0  0  0  0  0  0
   55.3470   29.1410   44.8570 O   0  0  0  0  0  0  0  0  0  0  0  0
   57.3900   31.5190   43.4750 C   0  0  0  0  0  0  0  0  0  0  0  0
   58.0590   32.7020   43.8040 C   0  0  0  0  0  0  0  0  0  0  0  0
   63.1220   33.2669   46.4474 H   0  0  0  0  0  0  0  0  0  0  0  0
   63.9159   31.8082   48.3074 H   0  0  0  0  0  0  0  0  0  0  0  0
   62.3037   30.9553   50.0038 H   0  0  0  0  0  0  0  0  0  0  0  0
   61.4157   29.2656   49.8010 H   0  0  0  0  0  0  0  0  0  0  0  0
   60.6961   26.0934   47.0540 H   0  0  0  0  0  0  0  0  0  0  0  0
   59.5768   25.2083   45.8895 H   0  0  0  0  0  0  0  0  0  0  0  0
   58.0217   23.9060   44.4402 H   0  0  0  0  0  0  0  0  0  0  0  0
   55.5832   24.4423   44.4191 H   0  0  0  0  0  0  0  0  0  0  0  0
   56.2410   27.5839   47.3172 H   0  0  0  0  0  0  0  0  0  0  0  0
   57.4111   28.6264   48.2871 H   0  0  0  0  0  0  0  0  0  0  0  0
   59.0727   32.9871   47.9608 H   0  0  0  0  0  0  0  0  0  0  0  0
   58.8650   31.9826   47.0511 H   0  0  0  0  0  0  0  0  0  0  0  0
   57.6624   29.8826   46.4638 H   0  0  0  0  0  0  0  0  0  0  0  0
   56.2287   29.2582   43.0120 H   0  0  0  0  0  0  0  0  0  0  0  0
   57.1487   28.3654   44.2764 H   0  0  0  0  0  0  0  0  0  0  0  0
   55.1350   28.1740   44.9330 H   0  0  0  0  0  0  0  0  0  0  0  0
   56.9640   31.3936   42.4686 H   0  0  0  0  0  0  0  0  0  0  0  0
   58.1630   33.4977   43.0517 H   0  0  0  0  0  0  0  0  0  0  0  0
  1  2  2  0
  2  3  1  0
  3  4  1  0
  4  5  2  0
  5  6  1  0
  6  7  2  0
  7  8  1  0
  8  9  1  0
  9 10  1  0
 10 11  2  0
 10 12  1  0
 12 13  2  0
 13 14  1  0
 14 15  2  0
 15 16  1  0
 16 17  1  0
 17 18  2  0
 18 19  1  0
 19 20  2  0
 20 21  1  0
 21 22  1  0
 21 23  2  0
 16 24  2  0
  8 25  2  0
  2 26  1  0
 26 27  2  0
 27 28  1  0
 28 29  2  0
 29 30  1  0
 30 31  1  0
 29 32  1  0
 32 33  2  0
 25  4  1  0
 33 26  1  0
 24 12  1  0
 23 17  1  0
  5 34  1  0
  6 35  1  0
  7 36  1  0
 13 37  1  0
 15 38  1  0
 18 39  1  0
 19 40  1  0
 20 41  1  0
 23 42  1  0
 24 43  1  0
 25 44  1  0
 27 45  1  0
 28 46  1  0
 30 47  1  0
 30 48  1  0
 31 49  1  0
 32 50  1  0
 33 51  1  0
M  CHG  3   3  -1   9  -1  22  -1
M  END
>  <UniqueID>  (60) 
56

>  <SMILES>  (60) 
O=C([N-]c1cccc([N-]C(=O)c2cncc(-c3cccc([O-])c3)c2)c1)c1ccc(CO)cc1

>  <Energy>  (60) 
70.11235481746805

>  <Genealogy>  (60) 
O=C([N-]c1cccc([N-]C(=O)c2cncc(-c3cccc([O-])c3)c2)c1)c1ccc(CO)cc1 (protonated)
O=C([N-]c1cccc([N-]C(=O)c2cncc(-c3cccc([O-])c3)c2)c1)c1ccc(CO)cc1 (3D coordinates assigned)
O=C([N-]c1cccc([N-]C(=O)c2cncc(-c3cccc([O-])c3)c2)c1)c1ccc(CO)cc1 (optimized conformer: 70.11235481746805 kcal/mol)

>  <smiles>  (60) 
O=C(Nc1cccc(NC(=O)c2cncc(-c3cccc(O)c3)c2)c1)c1ccc(CO)cc1

>  <score_type>  (60) 
oracle

>  <origin>  (60) 
adg

>  <m_score__min__energy>  (60) 
-16.170000000000002

>  <m_primary>  (60) 
energy

$$$$
60:0
     RDKit          3D

 41 43  0  0  0  0  0  0  0  0999 V2000
   53.7820   20.8980   47.2420 H   0  0  0  0  0  0  0  0  0  0  0  0
   54.7280   21.2540   47.3170 O   0  0  0  0  0  0  0  0  0  0  0  0
   55.2340   22.2110   46.4380 C   0  0  0  0  0  0  0  0  0  0  0  0
   54.4190   22.6920   45.4080 C   0  0  0  0  0  0  0  0  0  0  0  0
   53.1200   22.2170   45.2660 O   0  0  0  0  0  0  0  0  0  0  0  0
   54.9040   23.6540   44.5200 C   0  0  0  0  0  0  0  0  0  0  0  0
   54.2577   24.0312   43.7137 H   0  0  0  0  0  0  0  0  0  0  0  0
   56.2070   24.1390   44.6520 C   0  0  0  0  0  0  0  0  0  0  0  0
   56.5779   24.9037   43.9536 H   0  0  0  0  0  0  0  0  0  0  0  0
   57.0500   23.6570   45.6720 C   0  0  0  0  0  0  0  0  0  0  0  0
   58.4330   24.1700   45.8430 C   0  0  0  0  0  0  0  0  0  0  0  0
   59.2131   23.4694   46.1756 H   0  0  0  0  0  0  0  0  0  0  0  0
   58.7780   25.4450   45.6120 C   0  0  0  0  0  0  0  0  0  0  0  0
   59.4955   25.6635   44.8073 H   0  0  0  0  0  0  0  0  0  0  0  0
   58.2270   26.5680   46.4020 C   0  0  0  0  0  0  0  0  0  0  0  0
   58.3260   26.5640   47.6600 O   0  0  0  0  0  0  0  0  0  0  0  0
   57.5840   27.7230   45.7280 C   0  0  0  0  0  0  0  0  0  0  0  0
   56.1950   27.7600   45.5580 C   0  0  0  0  0  0  0  0  0  0  0  0
   55.3900   26.7230   46.0190 O   0  0  0  0  0  0  0  0  0  0  0  0
   55.6160   28.8240   44.9530 N   0  0  0  0  0  0  0  0  0  0  0  0
   56.3470   29.8700   44.4970 C   0  0  0  0  0  0  0  0  0  0  0  0
   55.7470   30.8360   43.9520 O   0  0  0  0  0  0  0  0  0  0  0  0
   57.7130   29.8710   44.6270 N   0  0  0  0  0  0  0  0  0  0  0  0
   58.5080   31.0250   44.1600 C   0  0  0  0  0  0  0  0  0  0  0  0
   59.5534   30.7125   44.0205 H   0  0  0  0  0  0  0  0  0  0  0  0
   58.0910   31.3841   43.2075 H   0  0  0  0  0  0  0  0  0  0  0  0
   58.4540   32.1420   45.1700 C   0  0  0  0  0  0  0  0  0  0  0  0
   58.4140   31.8520   46.5450 C   0  0  0  0  0  0  0  0  0  0  0  0
   58.3944   30.8057   46.8839 H   0  0  0  0  0  0  0  0  0  0  0  0
   58.3990   32.8880   47.4830 C   0  0  0  0  0  0  0  0  0  0  0  0
   58.3627   32.6549   48.5574 H   0  0  0  0  0  0  0  0  0  0  0  0
   58.4300   34.2200   47.0590 C   0  0  0  0  0  0  0  0  0  0  0  0
   58.4190   35.0336   47.7992 H   0  0  0  0  0  0  0  0  0  0  0  0
   58.4750   34.5170   45.6940 C   0  0  0  0  0  0  0  0  0  0  0  0
   58.4994   35.5648   45.3602 H   0  0  0  0  0  0  0  0  0  0  0  0
   58.4890   33.4830   44.7520 C   0  0  0  0  0  0  0  0  0  0  0  0
   58.5276   33.7209   43.6787 H   0  0  0  0  0  0  0  0  0  0  0  0
   58.3380   28.8040   45.2290 C   0  0  0  0  0  0  0  0  0  0  0  0
   59.5970   28.7780   45.3180 O   0  0  0  0  0  0  0  0  0  0  0  0
   56.5490   22.6950   46.5740 C   0  0  0  0  0  0  0  0  0  0  0  0
   57.3550   22.2110   47.6000 O   0  0  0  0  0  0  0  0  0  0  0  0
  1  2  1  0
  2  3  1  0
  3  4  2  0
  4  5  1  0
  4  6  1  0
  6  7  1  0
  6  8  2  0
  8  9  1  0
  8 10  1  0
 10 11  1  0
 11 12  1  0
 11 13  2  0
 13 14  1  0
 13 15  1  0
 15 16  2  0
 15 17  1  0
 17 18  2  0
 18 19  1  0
 18 20  1  0
 20 21  1  0
 21 22  2  0
 21 23  1  0
 23 24  1  0
 24 25  1  0
 24 26  1  0
 24 27  1  0
 27 28  2  0
 28 29  1  0
 28 30  1  0
 30 31  1  0
 30 32  2  0
 32 33  1  0
 32 34  1  0
 34 35  1  0
 34 36  2  0
 36 37  1  0
 23 38  1  0
 38 39  2  0
 10 40  2  0
 40 41  1  0
 40  3  1  0
 38 17  1  0
 36 27  1  0
M  CHG  4   5  -1  19  -1  20  -1  41  -1
M  END
>  <UniqueID>  (61) 
57

>  <SMILES>  (61) 
O=C(/C=C/c1ccc([O-])c(O)c1[O-])c1c([O-])[n-]c(=O)n(Cc2ccccc2)c1=O

>  <Energy>  (61) 
57.42454865491439

>  <Genealogy>  (61) 
O=C(C=Cc1ccc([O-])c(O)c1[O-])c1c([O-])[n-]c(=O)n(Cc2ccccc2)c1=O (protonated)
O=C(/C=C/c1ccc([O-])c(O)c1[O-])c1c([O-])[n-]c(=O)n(Cc2ccccc2)c1=O (cis-trans isomerization)
O=C(/C=C/c1ccc([O-])c(O)c1[O-])c1c([O-])[n-]c(=O)n(Cc2ccccc2)c1=O (3D coordinates assigned)
O=C(/C=C/c1ccc([O-])c(O)c1[O-])c1c([O-])[n-]c(=O)n(Cc2ccccc2)c1=O (optimized conformer: 57.42454865491439 kcal/mol)

>  <smiles>  (61) 
O=C(C=Cc1ccc(O)c(O)c1O)c1c(O)[nH]c(=O)n(Cc2ccccc2)c1=O

>  <score_type>  (61) 
oracle

>  <origin>  (61) 
adg

>  <m_score__min__energy>  (61) 
-18.239999999999998

>  <m_primary>  (61) 
energy

$$$$
61:0
     RDKit          3D

 53 55  0  0  0  0  0  0  0  0999 V2000
   60.8480   33.8050   50.2880 C   0  0  0  0  0  0  0  0  0  0  0  0
   61.6670   33.6740   49.0320 C   0  0  0  0  0  0  0  0  0  0  0  0
   62.9910   33.2130   49.1370 C   0  0  0  0  0  0  0  0  0  0  0  0
   63.7930   33.0860   48.0020 C   0  0  0  0  0  0  0  0  0  0  0  0
   63.2890   33.4280   46.7500 C   0  0  0  0  0  0  0  0  0  0  0  0
   61.9830   33.9030   46.6270 C   0  0  0  0  0  0  0  0  0  0  0  0
   61.1590   34.0450   47.7590 C   0  0  0  0  0  0  0  0  0  0  0  0
   59.7590   34.5970   47.5710 C   0  0  0  0  0  0  0  0  0  0  0  0
   58.9960   33.8190   46.5750 N   0  0  0  0  0  0  0  0  0  0  0  0
   58.3910   34.4800   45.5410 C   0  0  0  0  0  0  0  0  0  0  0  0
   57.6620   33.7850   44.5800 C   0  0  0  0  0  0  0  0  0  0  0  0
   57.5380   32.4040   44.6780 C   0  0  0  0  0  0  0  0  0  0  0  0
   58.1350   31.7130   45.7420 C   0  0  0  0  0  0  0  0  0  0  0  0
   57.9800   30.2370   45.8440 C   0  0  0  0  0  0  0  0  0  0  0  0
   56.8910   29.6950   45.5120 O   0  0  0  0  0  0  0  0  0  0  0  0
   59.0500   29.4270   46.3620 N   0  0  0  0  0  0  0  0  0  0  0  0
   59.1360   28.0010   46.1890 C   0  0  0  0  0  0  0  0  0  0  0  0
   60.2720   27.2790   46.5980 C   0  0  0  0  0  0  0  0  0  0  0  0
   60.3210   25.8930   46.4340 C   0  0  0  0  0  0  0  0  0  0  0  0
   59.2360   25.2120   45.8770 C   0  0  0  0  0  0  0  0  0  0  0  0
   58.0790   25.9100   45.5000 C   0  0  0  0  0  0  0  0  0  0  0  0
   56.9550   25.2070   44.9430 N   0  0  0  0  0  0  0  0  0  0  0  0
   57.0420   24.6290   43.6030 C   0  0  0  0  0  0  0  0  0  0  0  0
   55.4890   25.0090   45.8590 S   0  0  0  0  0  0  0  0  0  0  0  0
   54.4100   23.8750   45.0160 C   0  0  0  0  0  0  0  0  0  0  0  0
   54.7770   26.3260   45.9970 O   0  0  0  0  0  0  0  0  0  0  0  0
   55.8170   24.4800   47.2280 O   0  0  0  0  0  0  0  0  0  0  0  0
   58.0380   27.3050   45.6580 C   0  0  0  0  0  0  0  0  0  0  0  0
   58.8590   32.4560   46.7030 C   0  0  0  0  0  0  0  0  0  0  0  0
   59.3890   31.8600   47.6820 O   0  0  0  0  0  0  0  0  0  0  0  0
   61.5030   33.7002   51.1655 H   0  0  0  0  0  0  0  0  0  0  0  0
   60.3631   34.7921   50.3082 H   0  0  0  0  0  0  0  0  0  0  0  0
   60.0793   33.0184   50.3082 H   0  0  0  0  0  0  0  0  0  0  0  0
   63.3990   32.9497   50.1240 H   0  0  0  0  0  0  0  0  0  0  0  0
   64.8243   32.7153   48.0966 H   0  0  0  0  0  0  0  0  0  0  0  0
   63.9217   33.3235   45.8562 H   0  0  0  0  0  0  0  0  0  0  0  0
   61.5928   34.1696   45.6337 H   0  0  0  0  0  0  0  0  0  0  0  0
   59.2289   34.5608   48.5342 H   0  0  0  0  0  0  0  0  0  0  0  0
   59.8437   35.6316   47.2072 H   0  0  0  0  0  0  0  0  0  0  0  0
   58.4817   35.5738   45.4682 H   0  0  0  0  0  0  0  0  0  0  0  0
   57.1869   34.3255   43.7480 H   0  0  0  0  0  0  0  0  0  0  0  0
   56.9686   31.8504   43.9169 H   0  0  0  0  0  0  0  0  0  0  0  0
   59.7420   29.8820   46.9990 H   0  0  0  0  0  0  0  0  0  0  0  0
   61.1247   27.8080   47.0486 H   0  0  0  0  0  0  0  0  0  0  0  0
   61.2171   25.3357   46.7445 H   0  0  0  0  0  0  0  0  0  0  0  0
   59.2891   24.1227   45.7332 H   0  0  0  0  0  0  0  0  0  0  0  0
   57.2053   23.5440   43.6816 H   0  0  0  0  0  0  0  0  0  0  0  0
   56.1049   24.8204   43.0596 H   0  0  0  0  0  0  0  0  0  0  0  0
   57.8812   25.0877   43.0596 H   0  0  0  0  0  0  0  0  0  0  0  0
   53.8485   23.2849   45.7552 H   0  0  0  0  0  0  0  0  0  0  0  0
   53.7063   24.4384   44.3856 H   0  0  0  0  0  0  0  0  0  0  0  0
   55.0076   23.2001   44.3856 H   0  0  0  0  0  0  0  0  0  0  0  0
   57.1349   27.8590   45.3622 H   0  0  0  0  0  0  0  0  0  0  0  0
  1  2  1  0
  2  3  2  0
  3  4  1  0
  4  5  2  0
  5  6  1  0
  6  7  2  0
  7  8  1  0
  8  9  1  0
  9 10  1  0
 10 11  2  0
 11 12  1  0
 12 13  2  0
 13 14  1  0
 14 15  2  0
 14 16  1  0
 16 17  1  0
 17 18  2  0
 18 19  1  0
 19 20  2  0
 20 21  1  0
 21 22  1  0
 22 23  1  0
 22 24  1  0
 24 25  1  0
 24 26  2  0
 24 27  2  0
 21 28  2  0
 13 29  1  0
 29 30  2  0
  7  2  1  0
 29  9  1  0
 28 17  1  0
  1 31  1  0
  1 32  1  0
  1 33  1  0
  3 34  1  0
  4 35  1  0
  5 36  1  0
  6 37  1  0
  8 38  1  0
  8 39  1  0
 10 40  1  0
 11 41  1  0
 12 42  1  0
 16 43  1  0
 18 44  1  0
 19 45  1  0
 20 46  1  0
 23 47  1  0
 23 48  1  0
 23 49  1  0
 25 50  1  0
 25 51  1  0
 25 52  1  0
 28 53  1  0
M  END
>  <UniqueID>  (62) 
58

>  <SMILES>  (62) 
Cc1ccccc1Cn1cccc(C(=O)Nc2cccc(N(C)S(C)(=O)=O)c2)c1=O

>  <Energy>  (62) 
66.67702439418908

>  <Genealogy>  (62) 
Cc1ccccc1Cn1cccc(C(=O)Nc2cccc(N(C)S(C)(=O)=O)c2)c1=O (3D coordinates assigned)
Cc1ccccc1Cn1cccc(C(=O)Nc2cccc(N(C)S(C)(=O)=O)c2)c1=O (optimized conformer: 66.67702439418908 kcal/mol)

>  <smiles>  (62) 
Cc1ccccc1Cn1cccc(C(=O)Nc2cccc(N(C)S(C)(=O)=O)c2)c1=O

>  <score_type>  (62) 
oracle

>  <origin>  (62) 
adg

>  <m_score__min__energy>  (62) 
-10.06

>  <m_primary>  (62) 
energy

$$$$
62:0
     RDKit          3D

 59 63  0  0  0  0  0  0  0  0999 V2000
   58.3890   29.1830   53.2980 O   0  0  0  0  0  0  0  0  0  0  0  0
   57.9380   30.1220   52.5860 C   0  0  0  0  0  0  0  0  0  0  0  0
   58.7470   31.3700   52.4150 C   0  0  0  0  0  0  0  0  0  0  0  0
   59.1110   31.5720   50.9650 C   0  0  0  0  0  0  0  0  0  0  0  0
   59.5090   30.4760   50.1810 C   0  0  0  0  0  0  0  0  0  0  0  0
   59.8550   30.6510   48.8290 C   0  0  0  0  0  0  0  0  0  0  0  0
   60.2540   29.4730   47.9770 C   0  0  0  0  0  0  0  0  0  0  0  0
   59.0490   28.8490   47.3170 C   0  0  0  0  0  0  0  0  0  0  0  0
   58.5550   27.7000   47.8540 N   0  0  0  0  0  0  0  0  0  0  0  0
   57.5430   27.0340   47.2980 N   0  0  0  0  0  0  0  0  0  0  0  0
   56.9560   27.4590   46.1530 C   0  0  0  0  0  0  0  0  0  0  0  0
   56.0170   26.7840   45.6520 O   0  0  0  0  0  0  0  0  0  0  0  0
   57.4060   28.6400   45.5440 C   0  0  0  0  0  0  0  0  0  0  0  0
   58.4580   29.3620   46.1360 C   0  0  0  0  0  0  0  0  0  0  0  0
   58.9980   30.5790   45.4090 C   0  0  0  0  0  0  0  0  0  0  0  0
   57.9070   31.4170   44.6970 C   0  0  0  0  0  0  0  0  0  0  0  0
   56.6050   30.6600   44.3610 C   0  0  0  0  0  0  0  0  0  0  0  0
   56.8100   29.1490   44.2560 C   0  0  0  0  0  0  0  0  0  0  0  0
   59.8320   31.9430   48.2760 C   0  0  0  0  0  0  0  0  0  0  0  0
   59.4530   33.0370   49.0560 C   0  0  0  0  0  0  0  0  0  0  0  0
   59.0940   32.8580   50.3950 C   0  0  0  0  0  0  0  0  0  0  0  0
   58.7370   33.9390   51.1350 F   0  0  0  0  0  0  0  0  0  0  0  0
   56.6830   29.9960   51.9040 N   0  0  0  0  0  0  0  0  0  0  0  0
   55.4720   29.4260   52.4250 C   0  0  0  0  0  0  0  0  0  0  0  0
   55.4720   28.5410   53.5200 C   0  0  0  0  0  0  0  0  0  0  0  0
   54.2670   28.0340   54.0140 C   0  0  0  0  0  0  0  0  0  0  0  0
   53.0550   28.4140   53.4350 C   0  0  0  0  0  0  0  0  0  0  0  0
   53.0370   29.3130   52.3570 C   0  0  0  0  0  0  0  0  0  0  0  0
   51.7270   29.7780   51.7810 C   0  0  0  0  0  0  0  0  0  0  0  0
   51.3380   31.1110   52.3510 C   0  0  0  0  0  0  0  0  0  0  0  0
   51.0510   31.4310   53.9830 S   0  0  0  0  0  0  0  0  0  0  0  0
   50.5840   33.0140   53.6800 C   0  0  0  0  0  0  0  0  0  0  0  0
   50.2210   33.8260   54.5680 O   0  0  0  0  0  0  0  0  0  0  0  0
   50.6220   33.3250   52.3680 N   0  0  0  0  0  0  0  0  0  0  0  0
   51.0340   32.2620   51.6260 C   0  0  0  0  0  0  0  0  0  0  0  0
   51.1330   32.3300   50.2400 O   0  0  0  0  0  0  0  0  0  0  0  0
   54.2500   29.8260   51.8660 C   0  0  0  0  0  0  0  0  0  0  0  0
   58.1597   32.2322   52.7638 H   0  0  0  0  0  0  0  0  0  0  0  0
   59.6718   31.2766   53.0032 H   0  0  0  0  0  0  0  0  0  0  0  0
   59.5504   29.4721   50.6286 H   0  0  0  0  0  0  0  0  0  0  0  0
   60.9543   29.8123   47.1996 H   0  0  0  0  0  0  0  0  0  0  0  0
   60.7293   28.7194   48.6221 H   0  0  0  0  0  0  0  0  0  0  0  0
   59.5071   31.2229   46.1413 H   0  0  0  0  0  0  0  0  0  0  0  0
   59.6789   30.2097   44.6280 H   0  0  0  0  0  0  0  0  0  0  0  0
   57.6486   32.2632   45.3506 H   0  0  0  0  0  0  0  0  0  0  0  0
   58.3392   31.7198   43.7318 H   0  0  0  0  0  0  0  0  0  0  0  0
   55.8674   30.8607   45.1520 H   0  0  0  0  0  0  0  0  0  0  0  0
   56.2577   31.0166   43.3801 H   0  0  0  0  0  0  0  0  0  0  0  0
   55.8419   28.6576   44.0789 H   0  0  0  0  0  0  0  0  0  0  0  0
   57.4890   28.9249   43.4201 H   0  0  0  0  0  0  0  0  0  0  0  0
   60.1140   32.0929   47.2234 H   0  0  0  0  0  0  0  0  0  0  0  0
   59.4368   34.0445   48.6148 H   0  0  0  0  0  0  0  0  0  0  0  0
   56.4233   28.2477   53.9881 H   0  0  0  0  0  0  0  0  0  0  0  0
   54.2736   27.3332   54.8619 H   0  0  0  0  0  0  0  0  0  0  0  0
   52.1103   28.0074   53.8250 H   0  0  0  0  0  0  0  0  0  0  0  0
   51.8245   29.8672   50.6890 H   0  0  0  0  0  0  0  0  0  0  0  0
   50.9486   29.0441   52.0370 H   0  0  0  0  0  0  0  0  0  0  0  0
   51.9880   32.0620   49.7660 H   0  0  0  0  0  0  0  0  0  0  0  0
   54.2405   30.5477   51.0359 H   0  0  0  0  0  0  0  0  0  0  0  0
  1  2  2  0
  2  3  1  0
  3  4  1  0
  4  5  2  0
  5  6  1  0
  6  7  1  0
  7  8  1  0
  8  9  2  0
  9 10  1  0
 10 11  1  0
 11 12  2  0
 11 13  1  0
 13 14  2  0
 14 15  1  0
 15 16  1  0
 16 17  1  0
 17 18  1  0
  6 19  2  0
 19 20  1  0
 20 21  2  0
 21 22  1  0
  2 23  1  0
 23 24  1  0
 24 25  2  0
 25 26  1  0
 26 27  2  0
 27 28  1  0
 28 29  1  0
 29 30  1  0
 30 31  1  0
 31 32  1  0
 32 33  2  0
 32 34  1  0
 34 35  1  0
 35 36  1  0
 28 37  2  0
 21  4  1  0
 37 24  1  0
 14  8  1  0
 35 30  2  0
 18 13  1  0
  3 38  1  0
  3 39  1  0
  5 40  1  0
  7 41  1  0
  7 42  1  0
 15 43  1  0
 15 44  1  0
 16 45  1  0
 16 46  1  0
 17 47  1  0
 17 48  1  0
 18 49  1  0
 18 50  1  0
 19 51  1  0
 20 52  1  0
 25 53  1  0
 26 54  1  0
 27 55  1  0
 29 56  1  0
 29 57  1  0
 36 58  1  0
 37 59  1  0
M  CHG  3  10  -1  23  -1  34  -1
M  END
>  <UniqueID>  (63) 
59

>  <SMILES>  (63) 
O=C(Cc1cc(Cc2n[n-]c(=O)c3c2CCCC3)ccc1F)[N-]c1cccc(Cc2sc(=O)[n-]c2O)c1

>  <Energy>  (63) 
103.46517882052012

>  <Genealogy>  (63) 
O=C(Cc1cc(Cc2n[n-]c(=O)c3c2CCCC3)ccc1F)[N-]c1cccc(Cc2sc(=O)[n-]c2O)c1 (protonated)
O=C(Cc1cc(Cc2n[n-]c(=O)c3c2CCCC3)ccc1F)[N-]c1cccc(Cc2sc(=O)[n-]c2O)c1 (3D coordinates assigned)
O=C(Cc1cc(Cc2n[n-]c(=O)c3c2CCCC3)ccc1F)[N-]c1cccc(Cc2sc(=O)[n-]c2O)c1 (nonaromatic ring conformer: 103.46517882052012 kcal/mol)

>  <smiles>  (63) 
O=C(Cc1cc(Cc2n[nH]c(=O)c3c2CCCC3)ccc1F)Nc1cccc(Cc2sc(=O)[nH]c2O)c1

>  <score_type>  (63) 
oracle

>  <origin>  (63) 
adg

>  <m_score__min__energy>  (63) 
-17.170000000000002

>  <m_primary>  (63) 
energy

$$$$
63:0
     RDKit          3D

 58 61  0  0  0  0  0  0  0  0999 V2000
   56.6810   20.9690   48.2450 C   0  0  0  0  0  0  0  0  0  0  0  0
   57.3340   21.9250   47.4180 O   0  0  0  0  0  0  0  0  0  0  0  0
   57.2190   21.9820   46.0190 C   0  0  0  0  0  0  0  0  0  0  0  0
   58.2400   21.5030   45.1720 C   0  0  0  0  0  0  0  0  0  0  0  0
   58.1040   21.5830   43.7840 C   0  0  0  0  0  0  0  0  0  0  0  0
   56.9560   22.1450   43.2240 C   0  0  0  0  0  0  0  0  0  0  0  0
   55.9360   22.6230   44.0490 C   0  0  0  0  0  0  0  0  0  0  0  0
   56.0510   22.5340   45.4480 C   0  0  0  0  0  0  0  0  0  0  0  0
   54.9360   23.0640   46.3190 C   0  0  0  0  0  0  0  0  0  0  0  0
   54.6310   24.4590   46.0120 N   0  0  0  0  0  0  0  0  0  0  0  0
   55.5710   25.5400   45.9240 C   0  0  0  0  0  0  0  0  0  0  0  0
   55.1580   26.7160   46.0960 O   0  0  0  0  0  0  0  0  0  0  0  0
   57.0310   25.3140   45.6410 C   0  0  0  0  0  0  0  0  0  0  0  0
   57.8430   26.1350   46.4760 O   0  0  0  0  0  0  0  0  0  0  0  0
   58.8960   26.9210   45.9910 C   0  0  0  0  0  0  0  0  0  0  0  0
   60.0600   26.4410   45.9110 O   0  0  0  0  0  0  0  0  0  0  0  0
   58.6340   28.3120   45.5670 C   0  0  0  0  0  0  0  0  0  0  0  0
   59.6300   29.2990   45.6870 C   0  0  0  0  0  0  0  0  0  0  0  0
   59.3870   30.6040   45.2490 C   0  0  0  0  0  0  0  0  0  0  0  0
   58.1550   30.9390   44.6750 C   0  0  0  0  0  0  0  0  0  0  0  0
   57.9460   32.2730   44.2020 N   0  0  0  0  0  0  0  0  0  0  0  0
   58.0770   33.6830   45.2060 S   0  0  0  0  0  0  0  0  0  0  0  0
   58.9270   34.7050   44.5030 O   0  0  0  0  0  0  0  0  0  0  0  0
   56.7070   34.2660   45.4180 O   0  0  0  0  0  0  0  0  0  0  0  0
   58.8020   33.3100   46.7700 C   0  0  0  0  0  0  0  0  0  0  0  0
   60.1860   33.4520   46.9540 C   0  0  0  0  0  0  0  0  0  0  0  0
   60.7560   33.2380   48.2130 C   0  0  0  0  0  0  0  0  0  0  0  0
   59.9490   32.8780   49.2970 C   0  0  0  0  0  0  0  0  0  0  0  0
   58.5650   32.6830   49.1100 C   0  0  0  0  0  0  0  0  0  0  0  0
   57.9960   32.9170   47.8490 C   0  0  0  0  0  0  0  0  0  0  0  0
   57.7490   32.1800   50.1810 N   0  0  0  0  0  0  0  0  0  0  0  0
   58.3180   31.4640   51.2870 C   0  0  0  0  0  0  0  0  0  0  0  0
   57.5670   31.0100   52.1910 O   0  0  0  0  0  0  0  0  0  0  0  0
   59.7960   31.2070   51.3450 C   0  0  0  0  0  0  0  0  0  0  0  0
   60.6790   32.7460   50.9390 S   0  0  0  0  0  0  0  0  0  0  0  0
   57.1420   29.9730   44.6010 C   0  0  0  0  0  0  0  0  0  0  0  0
   57.3830   28.6650   45.0280 C   0  0  0  0  0  0  0  0  0  0  0  0
   56.8527   21.2204   49.3020 H   0  0  0  0  0  0  0  0  0  0  0  0
   55.6011   20.9803   48.0362 H   0  0  0  0  0  0  0  0  0  0  0  0
   57.0844   19.9672   48.0362 H   0  0  0  0  0  0  0  0  0  0  0  0
   59.1496   21.0634   45.6073 H   0  0  0  0  0  0  0  0  0  0  0  0
   58.9033   21.2023   43.1312 H   0  0  0  0  0  0  0  0  0  0  0  0
   56.8545   22.2115   42.1307 H   0  0  0  0  0  0  0  0  0  0  0  0
   55.0368   23.0720   43.6020 H   0  0  0  0  0  0  0  0  0  0  0  0
   54.0340   22.4565   46.1533 H   0  0  0  0  0  0  0  0  0  0  0  0
   55.2615   23.0057   47.3681 H   0  0  0  0  0  0  0  0  0  0  0  0
   57.2749   24.2577   45.8275 H   0  0  0  0  0  0  0  0  0  0  0  0
   57.2302   25.5742   44.5910 H   0  0  0  0  0  0  0  0  0  0  0  0
   60.6046   29.0422   46.1277 H   0  0  0  0  0  0  0  0  0  0  0  0
   60.1677   31.3715   45.3559 H   0  0  0  0  0  0  0  0  0  0  0  0
   60.8254   33.7329   46.1041 H   0  0  0  0  0  0  0  0  0  0  0  0
   61.8412   33.3531   48.3510 H   0  0  0  0  0  0  0  0  0  0  0  0
   56.9126   32.7917   47.7057 H   0  0  0  0  0  0  0  0  0  0  0  0
   56.7090   32.2490   50.1090 H   0  0  0  0  0  0  0  0  0  0  0  0
   60.0740   30.8779   52.3571 H   0  0  0  0  0  0  0  0  0  0  0  0
   60.0660   30.4213   50.6240 H   0  0  0  0  0  0  0  0  0  0  0  0
   56.1528   30.2462   44.2049 H   0  0  0  0  0  0  0  0  0  0  0  0
   56.5906   27.9069   44.9424 H   0  0  0  0  0  0  0  0  0  0  0  0
  1  2  1  0
  2  3  1  0
  3  4  2  0
  4  5  1  0
  5  6  2  0
  6  7  1  0
  7  8  2  0
  8  9  1  0
  9 10  1  0
 10 11  1  0
 11 12  2  0
 11 13  1  0
 13 14  1  0
 14 15  1  0
 15 16  2  0
 15 17  1  0
 17 18  2  0
 18 19  1  0
 19 20  2  0
 20 21  1  0
 21 22  1  0
 22 23  2  0
 22 24  2  0
 22 25  1  0
 25 26  2  0
 26 27  1  0
 27 28  2  0
 28 29  1  0
 29 30  2  0
 29 31  1  0
 31 32  1  0
 32 33  2  0
 32 34  1  0
 34 35  1  0
 20 36  1  0
 36 37  2  0
  8  3  1  0
 37 17  1  0
 30 25  1  0
 35 28  1  0
  1 38  1  0
  1 39  1  0
  1 40  1  0
  4 41  1  0
  5 42  1  0
  6 43  1  0
  7 44  1  0
  9 45  1  0
  9 46  1  0
 13 47  1  0
 13 48  1  0
 18 49  1  0
 19 50  1  0
 26 51  1  0
 27 52  1  0
 30 53  1  0
 31 54  1  0
 34 55  1  0
 34 56  1  0
 36 57  1  0
 37 58  1  0
M  CHG  2  10  -1  21  -1
M  END
>  <UniqueID>  (64) 
60

>  <SMILES>  (64) 
COc1ccccc1C[N-]C(=O)COC(=O)c1ccc([N-]S(=O)(=O)c2ccc3c(c2)NC(=O)CS3)cc1

>  <Energy>  (64) 
69.01280469732194

>  <Genealogy>  (64) 
COc1ccccc1C[N-]C(=O)COC(=O)c1ccc([N-]S(=O)(=O)c2ccc3c(c2)NC(=O)CS3)cc1 (protonated)
COc1ccccc1C[N-]C(=O)COC(=O)c1ccc([N-]S(=O)(=O)c2ccc3c(c2)NC(=O)CS3)cc1 (3D coordinates assigned)
COc1ccccc1C[N-]C(=O)COC(=O)c1ccc([N-]S(=O)(=O)c2ccc3c(c2)NC(=O)CS3)cc1 (nonaromatic ring conformer: 69.01280469732194 kcal/mol)

>  <smiles>  (64) 
COc1ccccc1CNC(=O)COC(=O)c1ccc(NS(=O)(=O)c2ccc3c(c2)NC(=O)CS3)cc1

>  <score_type>  (64) 
oracle

>  <origin>  (64) 
adg

>  <m_score__min__energy>  (64) 
-12.5

>  <m_primary>  (64) 
energy

$$$$
64:0
     RDKit          3D

 61 64  0  0  0  0  0  0  0  0999 V2000
   55.5090   29.5520   44.0200 C   0  0  0  0  0  0  0  0  0  0  0  0
   56.5130   30.6500   43.9190 C   0  0  0  0  0  0  0  0  0  0  0  0
   57.0070   31.1830   42.7450 C   0  0  0  0  0  0  0  0  0  0  0  0
   57.8740   32.1850   43.1270 C   0  0  0  0  0  0  0  0  0  0  0  0
   57.8460   32.1990   44.5080 C   0  0  0  0  0  0  0  0  0  0  0  0
   58.6030   33.1460   45.3960 C   0  0  0  0  0  0  0  0  0  0  0  0
   58.9540   32.5160   46.6900 N   0  0  2  0  0  0  0  0  0  0  0  0
   58.2060   33.1420   47.8130 C   0  0  0  0  0  0  0  0  0  0  0  0
   58.8740   32.9030   49.1790 C   0  0  0  0  0  0  0  0  0  0  0  0
   59.7720   31.6680   49.1310 C   0  0  0  0  0  0  0  0  0  0  0  0
   60.8360   31.8070   48.1070 N   0  0  0  0  0  0  0  0  0  0  0  0
   61.3860   30.4940   47.7100 C   0  0  0  0  0  0  0  0  0  0  0  0
   60.2960   29.4690   47.5140 C   0  0  0  0  0  0  0  0  0  0  0  0
   60.2510   28.4700   48.2800 O   0  0  0  0  0  0  0  0  0  0  0  0
   59.2610   29.6360   46.5370 N   0  0  0  0  0  0  0  0  0  0  0  0
   58.7240   28.6140   45.6870 C   0  0  0  0  0  0  0  0  0  0  0  0
   59.1580   28.4640   44.3600 C   0  0  0  0  0  0  0  0  0  0  0  0
   58.6420   27.4390   43.5630 C   0  0  0  0  0  0  0  0  0  0  0  0
   57.7050   26.5460   44.0900 C   0  0  0  0  0  0  0  0  0  0  0  0
   57.2820   26.6720   45.4200 C   0  0  0  0  0  0  0  0  0  0  0  0
   56.1320   25.5290   46.1060 S   0  0  0  0  0  0  0  0  0  0  0  0
   54.7300   26.0410   45.9150 O   0  0  0  0  0  0  0  0  0  0  0  0
   56.3950   25.3940   47.5800 O   0  0  0  0  0  0  0  0  0  0  0  0
   56.3280   23.9770   45.3320 N   0  0  0  0  0  0  0  0  0  0  0  0
   57.7340   23.5770   45.2960 C   0  0  0  0  0  0  0  0  0  0  0  0
   57.8830   22.6440   44.1060 C   0  0  0  0  0  0  0  0  0  0  0  0
   56.7060   22.9630   43.1970 C   0  0  0  0  0  0  0  0  0  0  0  0
   55.8990   24.0200   43.9350 C   0  0  0  0  0  0  0  0  0  0  0  0
   57.8090   27.6970   46.2190 C   0  0  0  0  0  0  0  0  0  0  0  0
   60.4140   32.6050   46.9220 C   0  0  0  0  0  0  0  0  0  0  0  0
   57.0240   31.2770   44.9530 O   0  0  0  0  0  0  0  0  0  0  0  0
   55.3095   29.3339   45.0795 H   0  0  0  0  0  0  0  0  0  0  0  0
   54.5756   29.8622   43.5275 H   0  0  0  0  0  0  0  0  0  0  0  0
   55.9013   28.6500   43.5275 H   0  0  0  0  0  0  0  0  0  0  0  0
   56.7604   30.8730   41.7188 H   0  0  0  0  0  0  0  0  0  0  0  0
   58.4655   32.8380   42.4683 H   0  0  0  0  0  0  0  0  0  0  0  0
   59.5279   33.4522   44.8854 H   0  0  0  0  0  0  0  0  0  0  0  0
   57.9606   34.0155   45.5992 H   0  0  0  0  0  0  0  0  0  0  0  0
   58.6950   31.5000   46.6310 H   0  0  0  0  0  0  0  0  0  0  0  0
   58.1468   34.2259   47.6352 H   0  0  0  0  0  0  0  0  0  0  0  0
   57.2084   32.6796   47.8459 H   0  0  0  0  0  0  0  0  0  0  0  0
   59.4814   33.7813   49.4428 H   0  0  0  0  0  0  0  0  0  0  0  0
   58.0898   32.7415   49.9333 H   0  0  0  0  0  0  0  0  0  0  0  0
   60.2407   31.5287   50.1164 H   0  0  0  0  0  0  0  0  0  0  0  0
   59.1502   30.8002   48.8660 H   0  0  0  0  0  0  0  0  0  0  0  0
   61.9402   30.6100   46.7669 H   0  0  0  0  0  0  0  0  0  0  0  0
   62.0477   30.1416   48.5150 H   0  0  0  0  0  0  0  0  0  0  0  0
   59.9067   29.1558   43.9466 H   0  0  0  0  0  0  0  0  0  0  0  0
   58.9737   27.3348   42.5194 H   0  0  0  0  0  0  0  0  0  0  0  0
   57.2984   25.7419   43.4590 H   0  0  0  0  0  0  0  0  0  0  0  0
   58.3779   24.4600   45.1704 H   0  0  0  0  0  0  0  0  0  0  0  0
   58.0322   23.0814   46.2317 H   0  0  0  0  0  0  0  0  0  0  0  0
   58.8338   22.8318   43.5857 H   0  0  0  0  0  0  0  0  0  0  0  0
   57.8910   21.5873   44.4115 H   0  0  0  0  0  0  0  0  0  0  0  0
   57.0603   23.3540   42.2318 H   0  0  0  0  0  0  0  0  0  0  0  0
   56.1044   22.0684   42.9784 H   0  0  0  0  0  0  0  0  0  0  0  0
   56.0967   25.0144   43.5082 H   0  0  0  0  0  0  0  0  0  0  0  0
   54.8197   23.8269   43.8465 H   0  0  0  0  0  0  0  0  0  0  0  0
   57.5013   27.7813   47.2717 H   0  0  0  0  0  0  0  0  0  0  0  0
   60.6846   33.6583   47.0875 H   0  0  0  0  0  0  0  0  0  0  0  0
   60.9260   32.1993   46.0369 H   0  0  0  0  0  0  0  0  0  0  0  0
  1  2  1  0
  2  3  2  0
  3  4  1  0
  4  5  2  0
  5  6  1  0
  6  7  1  0
  7  8  1  0
  8  9  1  0
  9 10  1  0
 10 11  1  0
 11 12  1  0
 12 13  1  0
 13 14  2  0
 13 15  1  0
 15 16  1  0
 16 17  2  0
 17 18  1  0
 18 19  2  0
 19 20  1  0
 20 21  1  0
 21 22  2  0
 21 23  2  0
 21 24  1  0
 24 25  1  0
 25 26  1  0
 26 27  1  0
 27 28  1  0
 20 29  2  0
 11 30  1  0
  5 31  1  0
 31  2  1  0
 30  7  1  0
 29 16  1  0
 28 24  1  0
  1 32  1  0
  1 33  1  0
  1 34  1  0
  3 35  1  0
  4 36  1  0
  6 37  1  0
  6 38  1  0
  7 39  1  6
  8 40  1  0
  8 41  1  0
  9 42  1  0
  9 43  1  0
 10 44  1  0
 10 45  1  0
 12 46  1  0
 12 47  1  0
 17 48  1  0
 18 49  1  0
 19 50  1  0
 25 51  1  0
 25 52  1  0
 26 53  1  0
 26 54  1  0
 27 55  1  0
 27 56  1  0
 28 57  1  0
 28 58  1  0
 29 59  1  0
 30 60  1  0
 30 61  1  0
M  CHG  2   7   1  15  -1
M  END
>  <UniqueID>  (65) 
61

>  <SMILES>  (65) 
Cc1ccc(C[N@@H+]2CCCN(CC(=O)[N-]c3cccc(S(=O)(=O)N4CCCC4)c3)C2)o1

>  <Energy>  (65) 
103.43617715197412

>  <Genealogy>  (65) 
Cc1ccc(C[NH+]2CCCN(CC(=O)[N-]c3cccc(S(=O)(=O)N4CCCC4)c3)C2)o1 (protonated)
Cc1ccc(C[N@@H+]2CCCN(CC(=O)[N-]c3cccc(S(=O)(=O)N4CCCC4)c3)C2)o1 (chirality)
Cc1ccc(C[N@@H+]2CCCN(CC(=O)[N-]c3cccc(S(=O)(=O)N4CCCC4)c3)C2)o1 (3D coordinates assigned)
Cc1ccc(C[N@@H+]2CCCN(CC(=O)[N-]c3cccc(S(=O)(=O)N4CCCC4)c3)C2)o1 (nonaromatic ring conformer: 103.43617715197412 kcal/mol)

>  <smiles>  (65) 
Cc1ccc(CN2CCCN(CC(=O)Nc3cccc(S(=O)(=O)N4CCCC4)c3)C2)o1

>  <score_type>  (65) 
oracle

>  <origin>  (65) 
adg

>  <m_score__min__energy>  (65) 
-9.1999999999999993

>  <m_primary>  (65) 
energy

$$$$
65:0
     RDKit          3D

 45 47  0  0  0  0  0  0  0  0999 V2000
   59.0100   34.8950   51.0310 H   0  0  0  0  0  0  0  0  0  0  0  0
   59.2550   33.9080   50.7960 N   0  0  0  0  0  0  0  0  0  0  0  0
   60.4820   33.5930   50.1380 C   0  0  0  0  0  0  0  0  0  0  0  0
   61.5290   34.2030   50.4840 O   0  0  0  0  0  0  0  0  0  0  0  0
   60.5180   32.5560   49.0700 C   0  0  0  0  0  0  0  0  0  0  0  0
   60.4160   31.1970   49.4310 C   0  0  0  0  0  0  0  0  0  0  0  0
   60.3042   30.9244   50.4908 H   0  0  0  0  0  0  0  0  0  0  0  0
   60.4550   30.1910   48.4610 C   0  0  0  0  0  0  0  0  0  0  0  0
   60.3320   28.5070   48.9370 Cl  0  0  0  0  0  0  0  0  0  0  0  0
   60.5850   30.5260   47.1150 C   0  0  0  0  0  0  0  0  0  0  0  0
   60.6103   29.7342   46.3519 H   0  0  0  0  0  0  0  0  0  0  0  0
   60.6830   31.8630   46.7340 C   0  0  0  0  0  0  0  0  0  0  0  0
   60.7715   32.1195   45.6680 H   0  0  0  0  0  0  0  0  0  0  0  0
   60.6700   32.8880   47.6970 C   0  0  0  0  0  0  0  0  0  0  0  0
   60.7490   34.2630   47.2870 N   0  0  0  0  0  0  0  0  0  0  0  0
   59.7340   35.0030   46.5920 C   0  0  0  0  0  0  0  0  0  0  0  0
   60.0650   36.0460   45.9700 O   0  0  0  0  0  0  0  0  0  0  0  0
   58.3220   34.5720   46.5500 C   0  0  0  0  0  0  0  0  0  0  0  0
   57.5390   35.3357   46.4331 H   0  0  0  0  0  0  0  0  0  0  0  0
   57.9580   33.2850   46.6490 C   0  0  0  0  0  0  0  0  0  0  0  0
   57.8085   32.8658   47.6549 H   0  0  0  0  0  0  0  0  0  0  0  0
   57.7450   32.3930   45.4830 C   0  0  0  0  0  0  0  0  0  0  0  0
   57.8640   32.9370   44.1950 C   0  0  0  0  0  0  0  0  0  0  0  0
   58.1011   34.0043   44.0736 H   0  0  0  0  0  0  0  0  0  0  0  0
   57.6840   32.1350   43.0660 C   0  0  0  0  0  0  0  0  0  0  0  0
   57.7976   32.5681   42.0613 H   0  0  0  0  0  0  0  0  0  0  0  0
   57.3600   30.7840   43.2100 C   0  0  0  0  0  0  0  0  0  0  0  0
   57.2356   30.1528   42.3177 H   0  0  0  0  0  0  0  0  0  0  0  0
   57.1930   30.2300   44.4830 C   0  0  0  0  0  0  0  0  0  0  0  0
   56.8720   28.8370   44.5950 N   0  0  0  0  0  0  0  0  0  0  0  0
   57.7370   27.8010   45.0800 C   0  0  0  0  0  0  0  0  0  0  0  0
   58.6300   28.1000   45.9170 O   0  0  0  0  0  0  0  0  0  0  0  0
   57.6360   26.3840   44.5840 C   0  0  0  0  0  0  0  0  0  0  0  0
   56.9937   26.3586   43.6913 H   0  0  0  0  0  0  0  0  0  0  0  0
   58.6452   26.0221   44.3377 H   0  0  0  0  0  0  0  0  0  0  0  0
   57.0490   25.4960   45.6380 C   0  0  0  0  0  0  0  0  0  0  0  0
   57.6840   24.4380   46.1720 N   0  0  0  0  0  0  0  0  0  0  0  0
   56.8120   23.9890   47.1010 C   0  0  0  0  0  0  0  0  0  0  0  0
   57.0480   22.9860   47.8240 O   0  0  0  0  0  0  0  0  0  0  0  0
   55.6690   24.7020   47.1980 N   0  0  0  0  0  0  0  0  0  0  0  0
   55.8380   25.6570   46.2680 C   0  0  0  0  0  0  0  0  0  0  0  0
   54.9100   26.6580   46.0030 O   0  0  0  0  0  0  0  0  0  0  0  0
   55.1720   27.4760   45.4670 H   0  0  0  0  0  0  0  0  0  0  0  0
   57.4050   31.0310   45.6210 C   0  0  0  0  0  0  0  0  0  0  0  0
   57.3048   30.5919   46.6246 H   0  0  0  0  0  0  0  0  0  0  0  0
  1  2  1  0
  2  3  1  0
  3  4  2  0
  3  5  1  0
  5  6  2  0
  6  7  1  0
  6  8  1  0
  8  9  1  0
  8 10  2  0
 10 11  1  0
 10 12  1  0
 12 13  1  0
 12 14  2  0
 14 15  1  0
 15 16  1  0
 16 17  2  0
 16 18  1  0
 18 19  1  0
 18 20  2  0
 20 21  1  0
 20 22  1  0
 22 23  2  0
 23 24  1  0
 23 25  1  0
 25 26  1  0
 25 27  2  0
 27 28  1  0
 27 29  1  0
 29 30  1  0
 30 31  1  0
 31 32  2  0
 31 33  1  0
 33 34  1  0
 33 35  1  0
 33 36  1  0
 36 37  1  0
 37 38  1  0
 38 39  2  0
 38 40  1  0
 40 41  1  0
 41 42  1  0
 42 43  1  0
 29 44  2  0
 44 45  1  0
 14  5  1  0
 44 22  1  0
 41 36  2  0
M  CHG  5   2  -1  15  -1  30  -1  37  -1  40  -1
M  END
>  <UniqueID>  (66) 
62

>  <SMILES>  (66) 
[NH-]C(=O)c1cc(Cl)ccc1[N-]C(=O)/C=C/c1cccc([N-]C(=O)Cc2[n-]c(=O)[n-]c2O)c1

>  <Energy>  (66) 
89.90088352491401

>  <Genealogy>  (66) 
[NH-]C(=O)c1cc(Cl)ccc1[N-]C(=O)C=Cc1cccc([N-]C(=O)Cc2[n-]c(=O)[n-]c2O)c1 (protonated)
[NH-]C(=O)c1cc(Cl)ccc1[N-]C(=O)/C=C/c1cccc([N-]C(=O)Cc2[n-]c(=O)[n-]c2O)c1 (cis-trans isomerization)
[NH-]C(=O)c1cc(Cl)ccc1[N-]C(=O)/C=C/c1cccc([N-]C(=O)Cc2[n-]c(=O)[n-]c2O)c1 (3D coordinates assigned)
[NH-]C(=O)c1cc(Cl)ccc1[N-]C(=O)/C=C/c1cccc([N-]C(=O)Cc2[n-]c(=O)[n-]c2O)c1 (optimized conformer: 89.90088352491401 kcal/mol)

>  <smiles>  (66) 
NC(=O)c1cc(Cl)ccc1NC(=O)C=Cc1cccc(NC(=O)Cc2[nH]c(=O)[nH]c2O)c1

>  <score_type>  (66) 
oracle

>  <origin>  (66) 
adg

>  <m_score__min__energy>  (66) 
-19.440000000000001

>  <m_primary>  (66) 
energy

$$$$
66:0
     RDKit          3D

 34 36  0  0  0  0  0  0  0  0999 V2000
   57.8280   32.0290   43.2960 C   0  0  0  0  0  0  0  0  0  0  0  0
   58.3750   31.1630   44.1550 C   0  0  0  0  0  0  0  0  0  0  0  0
   58.4380   29.8340   43.9150 N   0  0  0  0  0  0  0  0  0  0  0  0
   59.0960   29.2990   44.9640 C   0  0  0  0  0  0  0  0  0  0  0  0
   59.3710   27.9870   45.0670 C   0  0  0  0  0  0  0  0  0  0  0  0
   58.3820   26.9450   45.4030 C   0  0  0  0  0  0  0  0  0  0  0  0
   58.7770   25.6130   45.6170 C   0  0  0  0  0  0  0  0  0  0  0  0
   57.8320   24.6490   45.9830 C   0  0  0  0  0  0  0  0  0  0  0  0
   56.4940   25.0110   46.1610 C   0  0  0  0  0  0  0  0  0  0  0  0
   56.1000   26.3420   45.9810 C   0  0  0  0  0  0  0  0  0  0  0  0
   54.7720   26.7030   46.1710 O   0  0  0  0  0  0  0  0  0  0  0  0
   57.0420   27.3080   45.6140 C   0  0  0  0  0  0  0  0  0  0  0  0
   59.4350   30.3350   45.8230 C   0  0  0  0  0  0  0  0  0  0  0  0
   60.0920   30.2380   46.8950 O   0  0  0  0  0  0  0  0  0  0  0  0
   58.9730   31.5010   45.3270 N   0  0  0  0  0  0  0  0  0  0  0  0
   59.1080   32.8010   45.9280 C   0  0  0  0  0  0  0  0  0  0  0  0
   58.8290   32.9810   47.2940 C   0  0  0  0  0  0  0  0  0  0  0  0
   58.9420   34.2470   47.8750 C   0  0  0  0  0  0  0  0  0  0  0  0
   59.3260   35.3430   47.0970 C   0  0  0  0  0  0  0  0  0  0  0  0
   59.5940   35.1750   45.7360 C   0  0  0  0  0  0  0  0  0  0  0  0
   59.4820   33.9100   45.1510 C   0  0  0  0  0  0  0  0  0  0  0  0
   57.8014   33.1016   43.5384 H   0  0  0  0  0  0  0  0  0  0  0  0
   57.4045   31.6690   42.3468 H   0  0  0  0  0  0  0  0  0  0  0  0
   58.0650   29.3260   43.0810 H   0  0  0  0  0  0  0  0  0  0  0  0
   60.4082   27.6674   44.8878 H   0  0  0  0  0  0  0  0  0  0  0  0
   59.8325   25.3280   45.4962 H   0  0  0  0  0  0  0  0  0  0  0  0
   58.1425   23.6042   46.1310 H   0  0  0  0  0  0  0  0  0  0  0  0
   55.7509   24.2504   46.4424 H   0  0  0  0  0  0  0  0  0  0  0  0
   56.7322   28.3562   45.4901 H   0  0  0  0  0  0  0  0  0  0  0  0
   58.5205   32.1220   47.9080 H   0  0  0  0  0  0  0  0  0  0  0  0
   58.7285   34.3811   48.9457 H   0  0  0  0  0  0  0  0  0  0  0  0
   59.4172   36.3383   47.5565 H   0  0  0  0  0  0  0  0  0  0  0  0
   59.8934   36.0388   45.1242 H   0  0  0  0  0  0  0  0  0  0  0  0
   59.6876   33.7826   44.0779 H   0  0  0  0  0  0  0  0  0  0  0  0
  1  2  2  0
  2  3  1  0
  3  4  1  0
  4  5  2  3
  5  6  1  0
  6  7  2  0
  7  8  1  0
  8  9  2  0
  9 10  1  0
 10 11  1  0
 10 12  2  0
  4 13  1  0
 13 14  2  0
 13 15  1  0
 15 16  1  0
 16 17  2  0
 17 18  1  0
 18 19  2  0
 19 20  1  0
 20 21  2  0
 15  2  1  0
 21 16  1  0
 12  6  1  0
  1 22  1  0
  1 23  1  0
  3 24  1  0
  5 25  1  0
  7 26  1  0
  8 27  1  0
  9 28  1  0
 12 29  1  0
 17 30  1  0
 18 31  1  0
 19 32  1  0
 20 33  1  0
 21 34  1  0
M  CHG  1  11  -1
M  END
>  <UniqueID>  (67) 
63

>  <SMILES>  (67) 
C=c1[nH]c(=Cc2cccc([O-])c2)c(=O)n1-c1ccccc1

>  <Energy>  (67) 
85.36253435921455

>  <Genealogy>  (67) 
C=c1[nH]c(=Cc2cccc([O-])c2)c(=O)n1-c1ccccc1 (protonated)
C=c1[nH]c(=Cc2cccc([O-])c2)c(=O)n1-c1ccccc1 (3D coordinates assigned)
C=c1[nH]c(=Cc2cccc([O-])c2)c(=O)n1-c1ccccc1 (optimized conformer: 85.36253435921455 kcal/mol)

>  <smiles>  (67) 
C=c1[nH]c(=Cc2cccc(O)c2)c(=O)n1-c1ccccc1

>  <score_type>  (67) 
oracle

>  <origin>  (67) 
adg

>  <m_score__min__energy>  (67) 
-11.449999999999999

>  <m_primary>  (67) 
energy

$$$$
67:0
     RDKit          3D

 49 52  0  0  0  0  0  0  0  0999 V2000
   58.3100   32.3350   48.3190 C   0  0  0  0  0  0  0  0  0  0  0  0
   58.6090   31.0940   48.7300 C   0  0  0  0  0  0  0  0  0  0  0  0
   58.9710   29.9990   47.9300 C   0  0  0  0  0  0  0  0  0  0  0  0
   58.8900   29.8150   46.5980 C   0  0  0  0  0  0  0  0  0  0  0  0
   57.6790   29.4140   45.8630 C   0  0  0  0  0  0  0  0  0  0  0  0
   56.9220   30.2420   45.1190 N   0  0  0  0  0  0  0  0  0  0  0  0
   55.8700   29.4710   44.7670 C   0  0  0  0  0  0  0  0  0  0  0  0
   54.9340   29.8930   44.0410 O   0  0  0  0  0  0  0  0  0  0  0  0
   55.8970   28.2150   45.2640 N   0  0  0  0  0  0  0  0  0  0  0  0
   57.0410   28.2020   45.9670 C   0  0  0  0  0  0  0  0  0  0  0  0
   57.4890   27.1060   46.6910 O   0  0  0  0  0  0  0  0  0  0  0  0
   59.4530   29.0290   48.7940 C   0  0  0  0  0  0  0  0  0  0  0  0
   59.2990   29.5220   50.0740 C   0  0  0  0  0  0  0  0  0  0  0  0
   59.6830   28.7940   51.3250 C   0  0  0  0  0  0  0  0  0  0  0  0
   58.7830   30.7690   50.0370 N   0  0  0  0  0  0  0  0  0  0  0  0
   58.5140   31.5970   51.1810 C   0  0  0  0  0  0  0  0  0  0  0  0
   59.4220   32.6030   51.5390 C   0  0  0  0  0  0  0  0  0  0  0  0
   59.1850   33.4000   52.6600 C   0  0  0  0  0  0  0  0  0  0  0  0
   58.0450   33.1890   53.4380 C   0  0  0  0  0  0  0  0  0  0  0  0
   57.1370   32.1840   53.0940 C   0  0  0  0  0  0  0  0  0  0  0  0
   57.3520   31.3950   51.9490 C   0  0  0  0  0  0  0  0  0  0  0  0
   56.4560   30.3270   51.5950 N   0  0  0  0  0  0  0  0  0  0  0  0
   55.2600   29.9420   52.2890 C   0  0  0  0  0  0  0  0  0  0  0  0
   55.2890   28.9100   53.0090 O   0  0  0  0  0  0  0  0  0  0  0  0
   53.9880   30.6820   52.1530 C   0  0  0  0  0  0  0  0  0  0  0  0
   53.5540   31.1800   50.9150 C   0  0  0  0  0  0  0  0  0  0  0  0
   52.3380   31.8610   50.8360 C   0  0  0  0  0  0  0  0  0  0  0  0
   51.5580   32.0280   51.9820 C   0  0  0  0  0  0  0  0  0  0  0  0
   50.3460   32.7050   51.9090 O   0  0  0  0  0  0  0  0  0  0  0  0
   52.0070   31.5050   53.1980 C   0  0  0  0  0  0  0  0  0  0  0  0
   51.2260   31.6620   54.3490 O   0  0  0  0  0  0  0  0  0  0  0  0
   50.6500   32.9080   54.7220 C   0  0  0  0  0  0  0  0  0  0  0  0
   53.1990   30.8470   53.2510 N   0  0  0  0  0  0  0  0  0  0  0  0
   58.0402   33.1077   49.0539 H   0  0  0  0  0  0  0  0  0  0  0  0
   58.3346   32.5802   47.2470 H   0  0  0  0  0  0  0  0  0  0  0  0
   59.8054   29.9780   46.0102 H   0  0  0  0  0  0  0  0  0  0  0  0
   59.8769   28.0534   48.5137 H   0  0  0  0  0  0  0  0  0  0  0  0
   59.3728   29.3821   52.2013 H   0  0  0  0  0  0  0  0  0  0  0  0
   59.1847   27.8136   51.3463 H   0  0  0  0  0  0  0  0  0  0  0  0
   60.7735   28.6516   51.3463 H   0  0  0  0  0  0  0  0  0  0  0  0
   60.3259   32.7652   50.9334 H   0  0  0  0  0  0  0  0  0  0  0  0
   59.8963   34.1943   52.9305 H   0  0  0  0  0  0  0  0  0  0  0  0
   57.8612   33.8151   54.3235 H   0  0  0  0  0  0  0  0  0  0  0  0
   56.2504   32.0090   53.7211 H   0  0  0  0  0  0  0  0  0  0  0  0
   54.1674   31.0349   50.0135 H   0  0  0  0  0  0  0  0  0  0  0  0
   51.9948   32.2655   49.8723 H   0  0  0  0  0  0  0  0  0  0  0  0
   50.6156   32.9823   55.8189 H   0  0  0  0  0  0  0  0  0  0  0  0
   51.2597   33.7295   54.3177 H   0  0  0  0  0  0  0  0  0  0  0  0
   49.6292   32.9757   54.3177 H   0  0  0  0  0  0  0  0  0  0  0  0
  1  2  2  0
  2  3  1  0
  3  4  2  3
  4  5  1  0
  5  6  1  0
  6  7  1  0
  7  8  2  0
  7  9  1  0
  9 10  1  0
 10 11  1  0
  3 12  1  0
 12 13  2  0
 13 14  1  0
 13 15  1  0
 15 16  1  0
 16 17  2  0
 17 18  1  0
 18 19  2  0
 19 20  1  0
 20 21  2  0
 21 22  1  0
 22 23  1  0
 23 24  2  0
 23 25  1  0
 25 26  2  0
 26 27  1  0
 27 28  2  0
 28 29  1  0
 28 30  1  0
 30 31  1  0
 31 32  1  0
 30 33  2  0
 15  2  1  0
 21 16  1  0
 33 25  1  0
 10  5  2  0
  1 34  1  0
  1 35  1  0
  4 36  1  0
 12 37  1  0
 14 38  1  0
 14 39  1  0
 14 40  1  0
 17 41  1  0
 18 42  1  0
 19 43  1  0
 20 44  1  0
 26 45  1  0
 27 46  1  0
 32 47  1  0
 32 48  1  0
 32 49  1  0
M  CHG  5   6  -1   9  -1  11  -1  22  -1  29  -1
M  END
>  <UniqueID>  (68) 
64

>  <SMILES>  (68) 
C=c1c(=Cc2[n-]c(=O)[n-]c2[O-])cc(C)n1-c1ccccc1[N-]C(=O)c1ccc([O-])c(OC)n1

>  <Energy>  (68) 
132.53627524402552

>  <Genealogy>  (68) 
C=c1c(=Cc2[n-]c(=O)[n-]c2[O-])cc(C)n1-c1ccccc1[N-]C(=O)c1ccc([O-])c(OC)n1 (protonated)
C=c1c(=Cc2[n-]c(=O)[n-]c2[O-])cc(C)n1-c1ccccc1[N-]C(=O)c1ccc([O-])c(OC)n1 (3D coordinates assigned)
C=c1c(=Cc2[n-]c(=O)[n-]c2[O-])cc(C)n1-c1ccccc1[N-]C(=O)c1ccc([O-])c(OC)n1 (optimized conformer: 132.53627524402552 kcal/mol)

>  <smiles>  (68) 
C=c1c(=Cc2[nH]c(=O)[nH]c2O)cc(C)n1-c1ccccc1NC(=O)c1ccc(O)c(OC)n1

>  <score_type>  (68) 
oracle

>  <origin>  (68) 
adg

>  <m_score__min__energy>  (68) 
-18.300000000000001

>  <m_primary>  (68) 
energy

$$$$
68:0
     RDKit          3D

 55 58  0  0  0  0  0  0  0  0999 V2000
   61.7120   33.4520   50.7060 C   0  0  0  0  0  0  0  0  0  0  0  0
   60.2920   32.9330   50.5020 C   0  0  0  0  0  0  0  0  0  0  0  0
   59.8580   33.1230   49.0730 C   0  0  0  0  0  0  0  0  0  0  0  0
   60.7250   33.7150   48.1410 C   0  0  0  0  0  0  0  0  0  0  0  0
   60.3080   33.9220   46.8220 C   0  0  0  0  0  0  0  0  0  0  0  0
   59.0190   33.5430   46.4240 C   0  0  0  0  0  0  0  0  0  0  0  0
   58.4850   33.8510   44.7760 S   0  0  0  0  0  0  0  0  0  0  0  0
   59.6430   34.2710   43.9140 O   0  0  0  0  0  0  0  0  0  0  0  0
   57.4640   34.9560   44.7730 O   0  0  0  0  0  0  0  0  0  0  0  0
   57.7810   32.3830   44.1330 C   0  0  0  0  0  0  0  0  0  0  0  0
   57.4530   31.2520   44.8660 C   0  0  0  0  0  0  0  0  0  0  0  0
   57.0030   30.1910   44.0630 C   0  0  0  0  0  0  0  0  0  0  0  0
   56.6520   28.8650   44.6100 C   0  0  0  0  0  0  0  0  0  0  0  0
   55.5290   28.6940   45.1560 O   0  0  0  0  0  0  0  0  0  0  0  0
   57.5760   27.7710   44.5330 N   0  0  0  0  0  0  0  0  0  0  0  0
   57.5570   26.6920   45.4770 C   0  0  0  0  0  0  0  0  0  0  0  0
   56.7490   25.5750   45.2150 C   0  0  0  0  0  0  0  0  0  0  0  0
   56.6710   24.5260   46.1350 C   0  0  0  0  0  0  0  0  0  0  0  0
   57.4100   24.5780   47.3180 C   0  0  0  0  0  0  0  0  0  0  0  0
   58.2410   25.6690   47.5780 C   0  0  0  0  0  0  0  0  0  0  0  0
   58.3350   26.7290   46.6600 C   0  0  0  0  0  0  0  0  0  0  0  0
   59.2760   27.7880   46.9080 N   0  0  0  0  0  0  0  0  0  0  0  0
   59.1610   28.5780   48.1400 C   0  0  0  0  0  0  0  0  0  0  0  0
   60.0810   29.7910   48.0780 C   0  0  0  0  0  0  0  0  0  0  0  0
   59.9500   30.3990   46.8120 O   0  0  0  0  0  0  0  0  0  0  0  0
   60.6040   29.6210   45.8250 C   0  0  0  0  0  0  0  0  0  0  0  0
   60.3070   28.1010   45.9070 C   0  0  0  0  0  0  0  0  0  0  0  0
   56.9890   30.4970   42.7010 C   0  0  0  0  0  0  0  0  0  0  0  0
   57.5370   32.0740   42.5010 S   0  0  0  0  0  0  0  0  0  0  0  0
   58.1440   32.9700   47.3570 C   0  0  0  0  0  0  0  0  0  0  0  0
   58.5600   32.7630   48.6750 C   0  0  0  0  0  0  0  0  0  0  0  0
   61.9230   33.5291   51.7828 H   0  0  0  0  0  0  0  0  0  0  0  0
   62.4267   32.7570   50.2411 H   0  0  0  0  0  0  0  0  0  0  0  0
   61.8101   34.4441   50.2411 H   0  0  0  0  0  0  0  0  0  0  0  0
   60.2596   31.8619   50.7502 H   0  0  0  0  0  0  0  0  0  0  0  0
   59.6112   33.4964   51.1570 H   0  0  0  0  0  0  0  0  0  0  0  0
   61.7367   34.0174   48.4493 H   0  0  0  0  0  0  0  0  0  0  0  0
   60.9933   34.3833   46.0957 H   0  0  0  0  0  0  0  0  0  0  0  0
   57.5365   31.1922   45.9612 H   0  0  0  0  0  0  0  0  0  0  0  0
   58.1650   27.6710   43.6770 H   0  0  0  0  0  0  0  0  0  0  0  0
   56.1731   25.5248   44.2791 H   0  0  0  0  0  0  0  0  0  0  0  0
   56.0269   23.6589   45.9268 H   0  0  0  0  0  0  0  0  0  0  0  0
   57.3374   23.7574   48.0470 H   0  0  0  0  0  0  0  0  0  0  0  0
   58.8268   25.6993   48.5086 H   0  0  0  0  0  0  0  0  0  0  0  0
   58.1212   28.9168   48.2581 H   0  0  0  0  0  0  0  0  0  0  0  0
   59.4525   27.9511   48.9956 H   0  0  0  0  0  0  0  0  0  0  0  0
   59.7998   30.5083   48.8631 H   0  0  0  0  0  0  0  0  0  0  0  0
   61.1235   29.4768   48.2347 H   0  0  0  0  0  0  0  0  0  0  0  0
   60.2848   29.9811   44.8358 H   0  0  0  0  0  0  0  0  0  0  0  0
   61.6841   29.7396   45.9964 H   0  0  0  0  0  0  0  0  0  0  0  0
   59.9609   27.7544   44.9221 H   0  0  0  0  0  0  0  0  0  0  0  0
   61.2346   27.5922   46.2082 H   0  0  0  0  0  0  0  0  0  0  0  0
   56.6725   29.8199   41.8939 H   0  0  0  0  0  0  0  0  0  0  0  0
   57.1273   32.6825   47.0510 H   0  0  0  0  0  0  0  0  0  0  0  0
   57.8679   32.3162   49.4039 H   0  0  0  0  0  0  0  0  0  0  0  0
  1  2  1  0
  2  3  1  0
  3  4  2  0
  4  5  1  0
  5  6  2  0
  6  7  1  0
  7  8  2  0
  7  9  2  0
  7 10  1  0
 10 11  2  0
 11 12  1  0
 12 13  1  0
 13 14  2  0
 13 15  1  0
 15 16  1  0
 16 17  2  0
 17 18  1  0
 18 19  2  0
 19 20  1  0
 20 21  2  0
 21 22  1  0
 22 23  1  0
 23 24  1  0
 24 25  1  0
 25 26  1  0
 26 27  1  0
 12 28  2  0
 28 29  1  0
  6 30  1  0
 30 31  2  0
 31  3  1  0
 29 10  1  0
 21 16  1  0
 27 22  1  0
  1 32  1  0
  1 33  1  0
  1 34  1  0
  2 35  1  0
  2 36  1  0
  4 37  1  0
  5 38  1  0
 11 39  1  0
 15 40  1  0
 17 41  1  0
 18 42  1  0
 19 43  1  0
 20 44  1  0
 23 45  1  0
 23 46  1  0
 24 47  1  0
 24 48  1  0
 26 49  1  0
 26 50  1  0
 27 51  1  0
 27 52  1  0
 28 53  1  0
 30 54  1  0
 31 55  1  0
M  END
>  <UniqueID>  (69) 
65

>  <SMILES>  (69) 
CCc1ccc(S(=O)(=O)c2cc(C(=O)Nc3ccccc3N3CCOCC3)cs2)cc1

>  <Energy>  (69) 
98.48729144144635

>  <Genealogy>  (69) 
CCc1ccc(S(=O)(=O)c2cc(C(=O)Nc3ccccc3N3CCOCC3)cs2)cc1 (3D coordinates assigned)
CCc1ccc(S(=O)(=O)c2cc(C(=O)Nc3ccccc3N3CCOCC3)cs2)cc1 (nonaromatic ring conformer: 98.48729144144635 kcal/mol)

>  <smiles>  (69) 
CCc1ccc(S(=O)(=O)c2cc(C(=O)Nc3ccccc3N3CCOCC3)cs2)cc1

>  <score_type>  (69) 
oracle

>  <origin>  (69) 
adg

>  <m_score__min__energy>  (69) 
-9.4600000000000009

>  <m_primary>  (69) 
energy

$$$$
69:0
     RDKit          3D

 65 68  0  0  0  0  0  0  0  0999 V2000
   68.1250   25.6030   53.0320 C   0  0  0  0  0  0  0  0  0  0  0  0
   68.7920   25.9350   51.7050 C   0  0  0  0  0  0  0  0  0  0  0  0
   67.7570   26.1420   50.6640 N   0  0  0  0  0  0  0  0  0  0  0  0
   68.0560   27.2780   49.7660 C   0  0  0  0  0  0  0  0  0  0  0  0
   67.8620   28.6490   50.4520 C   0  0  0  0  0  0  0  0  0  0  0  0
   67.2470   28.5040   51.7830 N   0  0  0  0  0  0  0  0  0  0  0  0
   67.0360   29.7970   52.4730 C   0  0  0  0  0  0  0  0  0  0  0  0
   66.6110   30.9230   51.5540 C   0  0  0  0  0  0  0  0  0  0  0  0
   67.4840   31.9900   51.2910 C   0  0  0  0  0  0  0  0  0  0  0  0
   67.1010   33.0160   50.4270 C   0  0  0  0  0  0  0  0  0  0  0  0
   65.8390   32.9970   49.8290 C   0  0  0  0  0  0  0  0  0  0  0  0
   64.9370   31.9530   50.1020 C   0  0  0  0  0  0  0  0  0  0  0  0
   63.5930   31.9440   49.4780 C   0  0  0  0  0  0  0  0  0  0  0  0
   62.5700   31.8060   50.2040 O   0  0  0  0  0  0  0  0  0  0  0  0
   63.4480   32.0290   48.0510 N   0  0  0  0  0  0  0  0  0  0  0  0
   62.2370   32.4380   47.3950 C   0  0  0  0  0  0  0  0  0  0  0  0
   62.0490   33.7900   47.0760 C   0  0  0  0  0  0  0  0  0  0  0  0
   60.8700   34.2130   46.4560 C   0  0  0  0  0  0  0  0  0  0  0  0
   59.8620   33.2910   46.1630 C   0  0  0  0  0  0  0  0  0  0  0  0
   60.0280   31.9360   46.4860 C   0  0  0  0  0  0  0  0  0  0  0  0
   58.9500   30.9620   46.2070 C   0  0  0  0  0  0  0  0  0  0  0  0
   58.1430   31.1580   45.0740 C   0  0  0  0  0  0  0  0  0  0  0  0
   57.1290   30.2460   44.7450 C   0  0  0  0  0  0  0  0  0  0  0  0
   56.2850   30.4560   43.5200 C   0  0  0  0  0  0  0  0  0  0  0  0
   56.9230   29.1220   45.5620 C   0  0  0  0  0  0  0  0  0  0  0  0
   55.9330   28.1950   45.2500 O   0  0  0  0  0  0  0  0  0  0  0  0
   57.7090   28.9270   46.7010 C   0  0  0  0  0  0  0  0  0  0  0  0
   58.7100   29.8470   47.0480 C   0  0  0  0  0  0  0  0  0  0  0  0
   59.5170   29.6040   48.2990 C   0  0  0  0  0  0  0  0  0  0  0  0
   61.2120   31.5160   47.1140 C   0  0  0  0  0  0  0  0  0  0  0  0
   65.3360   30.9150   50.9640 C   0  0  0  0  0  0  0  0  0  0  0  0
   66.0390   27.6630   51.7260 C   0  0  0  0  0  0  0  0  0  0  0  0
   66.3900   26.2420   51.2270 C   0  0  0  0  0  0  0  0  0  0  0  0
   68.7739   25.9260   53.8594 H   0  0  0  0  0  0  0  0  0  0  0  0
   67.1593   26.1256   53.0979 H   0  0  0  0  0  0  0  0  0  0  0  0
   67.9597   24.5175   53.0979 H   0  0  0  0  0  0  0  0  0  0  0  0
   69.3887   26.8525   51.8150 H   0  0  0  0  0  0  0  0  0  0  0  0
   69.4465   25.1024   51.4077 H   0  0  0  0  0  0  0  0  0  0  0  0
   69.1009   27.1966   49.4319 H   0  0  0  0  0  0  0  0  0  0  0  0
   67.3531   27.2272   48.9214 H   0  0  0  0  0  0  0  0  0  0  0  0
   68.8424   29.1356   50.5622 H   0  0  0  0  0  0  0  0  0  0  0  0
   67.1917   29.2566   49.8262 H   0  0  0  0  0  0  0  0  0  0  0  0
   66.2549   29.6590   53.2352 H   0  0  0  0  0  0  0  0  0  0  0  0
   68.0041   30.0882   52.9067 H   0  0  0  0  0  0  0  0  0  0  0  0
   68.4747   32.0173   51.7683 H   0  0  0  0  0  0  0  0  0  0  0  0
   67.7952   33.8428   50.2160 H   0  0  0  0  0  0  0  0  0  0  0  0
   65.5486   33.8038   49.1400 H   0  0  0  0  0  0  0  0  0  0  0  0
   64.2260   31.6660   47.4570 H   0  0  0  0  0  0  0  0  0  0  0  0
   62.8341   34.5224   47.3151 H   0  0  0  0  0  0  0  0  0  0  0  0
   60.7354   35.2739   46.1982 H   0  0  0  0  0  0  0  0  0  0  0  0
   58.9347   33.6289   45.6772 H   0  0  0  0  0  0  0  0  0  0  0  0
   58.3084   32.0387   44.4360 H   0  0  0  0  0  0  0  0  0  0  0  0
   55.2584   30.7114   43.8214 H   0  0  0  0  0  0  0  0  0  0  0  0
   56.7062   31.2767   42.9208 H   0  0  0  0  0  0  0  0  0  0  0  0
   56.2725   29.5336   42.9208 H   0  0  0  0  0  0  0  0  0  0  0  0
   57.5410   28.0422   47.3326 H   0  0  0  0  0  0  0  0  0  0  0  0
   58.8896   29.7929   49.1825 H   0  0  0  0  0  0  0  0  0  0  0  0
   59.8660   28.5609   48.3134 H   0  0  0  0  0  0  0  0  0  0  0  0
   60.3839   30.2809   48.3134 H   0  0  0  0  0  0  0  0  0  0  0  0
   61.3389   30.4583   47.3882 H   0  0  0  0  0  0  0  0  0  0  0  0
   64.6424   30.0886   51.1782 H   0  0  0  0  0  0  0  0  0  0  0  0
   65.5979   27.5947   52.7314 H   0  0  0  0  0  0  0  0  0  0  0  0
   65.3220   28.1180   51.0268 H   0  0  0  0  0  0  0  0  0  0  0  0
   66.3086   25.5442   52.0735 H   0  0  0  0  0  0  0  0  0  0  0  0
   65.6850   25.9958   50.4193 H   0  0  0  0  0  0  0  0  0  0  0  0
  1  2  1  0
  2  3  1  0
  3  4  1  0
  4  5  1  0
  5  6  1  0
  6  7  1  0
  7  8  1  0
  8  9  2  0
  9 10  1  0
 10 11  2  0
 11 12  1  0
 12 13  1  0
 13 14  2  0
 13 15  1  0
 15 16  1  0
 16 17  2  0
 17 18  1  0
 18 19  2  0
 19 20  1  0
 20 21  1  0
 21 22  2  0
 22 23  1  0
 23 24  1  0
 23 25  2  0
 25 26  1  0
 25 27  1  0
 27 28  2  0
 28 29  1  0
 20 30  2  0
 12 31  2  0
  6 32  1  0
 32 33  1  0
 33  3  1  0
 31  8  1  0
 30 16  1  0
 28 21  1  0
  1 34  1  0
  1 35  1  0
  1 36  1  0
  2 37  1  0
  2 38  1  0
  4 39  1  0
  4 40  1  0
  5 41  1  0
  5 42  1  0
  7 43  1  0
  7 44  1  0
  9 45  1  0
 10 46  1  0
 11 47  1  0
 15 48  1  0
 17 49  1  0
 18 50  1  0
 19 51  1  0
 22 52  1  0
 24 53  1  0
 24 54  1  0
 24 55  1  0
 27 56  1  0
 29 57  1  0
 29 58  1  0
 29 59  1  0
 30 60  1  0
 31 61  1  0
 32 62  1  0
 32 63  1  0
 33 64  1  0
 33 65  1  0
M  CHG  1  26  -1
M  END
>  <UniqueID>  (70) 
66

>  <SMILES>  (70) 
CCN1CCN(Cc2cccc(C(=O)Nc3cccc(-c4cc(C)c([O-])cc4C)c3)c2)CC1

>  <Energy>  (70) 
92.6204212602382

>  <Genealogy>  (70) 
CCN1CCN(Cc2cccc(C(=O)Nc3cccc(-c4cc(C)c([O-])cc4C)c3)c2)CC1 (protonated)
CCN1CCN(Cc2cccc(C(=O)Nc3cccc(-c4cc(C)c([O-])cc4C)c3)c2)CC1 (3D coordinates assigned)
CCN1CCN(Cc2cccc(C(=O)Nc3cccc(-c4cc(C)c([O-])cc4C)c3)c2)CC1 (nonaromatic ring conformer: 92.6204212602382 kcal/mol)

>  <smiles>  (70) 
CCN1CCN(Cc2cccc(C(=O)Nc3cccc(-c4cc(C)c(O)cc4C)c3)c2)CC1

>  <score_type>  (70) 
oracle

>  <origin>  (70) 
adg

>  <m_score__min__energy>  (70) 
-11.93

>  <m_primary>  (70) 
energy

$$$$
70:0
     RDKit          3D

 52 55  0  0  0  0  0  0  0  0999 V2000
   55.5440   27.6250   52.9676 H   0  0  0  0  0  0  0  0  0  0  0  0
   54.8230   28.4270   52.7510 C   0  0  0  0  0  0  0  0  0  0  0  0
   53.7734   28.1793   52.5344 H   0  0  0  0  0  0  0  0  0  0  0  0
   55.2240   29.7080   52.7510 C   0  0  0  0  0  0  0  0  0  0  0  0
   54.4400   30.8450   52.4970 C   0  0  0  0  0  0  0  0  0  0  0  0
   53.1040   30.9950   52.4030 C   0  0  0  0  0  0  0  0  0  0  0  0
   52.5399   31.0766   53.3438 H   0  0  0  0  0  0  0  0  0  0  0  0
   52.3350   31.0590   51.1500 C   0  0  0  0  0  0  0  0  0  0  0  0
   52.3410   30.1090   50.1970 N   0  0  0  0  0  0  0  0  0  0  0  0
   51.3960   30.5330   49.3290 C   0  0  0  0  0  0  0  0  0  0  0  0
   51.1130   29.9050   48.2760 O   0  0  0  0  0  0  0  0  0  0  0  0
   50.7700   31.6750   49.6860 N   0  0  0  0  0  0  0  0  0  0  0  0
   51.3680   31.9860   50.8470 C   0  0  0  0  0  0  0  0  0  0  0  0
   51.0300   33.0910   51.6190 O   0  0  0  0  0  0  0  0  0  0  0  0
   55.3250   31.9030   52.3570 C   0  0  0  0  0  0  0  0  0  0  0  0
   55.0700   32.9414   52.0987 H   0  0  0  0  0  0  0  0  0  0  0  0
   56.5870   31.4030   52.6040 C   0  0  0  0  0  0  0  0  0  0  0  0
   57.8480   32.2130   52.5590 C   0  0  0  0  0  0  0  0  0  0  0  0
   58.1825   32.4279   53.5846 H   0  0  0  0  0  0  0  0  0  0  0  0
   58.6287   31.6470   52.0297 H   0  0  0  0  0  0  0  0  0  0  0  0
   57.6579   33.1583   52.0297 H   0  0  0  0  0  0  0  0  0  0  0  0
   56.5280   30.0740   52.8340 N   0  0  0  0  0  0  0  0  0  0  0  0
   57.6560   29.2110   53.0640 C   0  0  0  0  0  0  0  0  0  0  0  0
   57.6660   28.3930   54.2030 C   0  0  0  0  0  0  0  0  0  0  0  0
   56.7998   28.3900   54.8810 H   0  0  0  0  0  0  0  0  0  0  0  0
   58.7670   27.5830   54.4820 C   0  0  0  0  0  0  0  0  0  0  0  0
   58.7675   26.9456   55.3785 H   0  0  0  0  0  0  0  0  0  0  0  0
   59.8680   27.5810   53.6240 C   0  0  0  0  0  0  0  0  0  0  0  0
   60.7372   26.9449   53.8476 H   0  0  0  0  0  0  0  0  0  0  0  0
   59.8680   28.3860   52.4810 C   0  0  0  0  0  0  0  0  0  0  0  0
   60.7373   28.3776   51.8070 H   0  0  0  0  0  0  0  0  0  0  0  0
   58.7650   29.2060   52.1870 C   0  0  0  0  0  0  0  0  0  0  0  0
   58.7630   30.0170   50.9500 C   0  0  0  0  0  0  0  0  0  0  0  0
   57.8430   29.8470   50.1040 O   0  0  0  0  0  0  0  0  0  0  0  0
   59.8060   30.9760   50.7000 N   0  0  0  0  0  0  0  0  0  0  0  0
   60.6680   30.9430   51.2890 H   0  0  0  0  0  0  0  0  0  0  0  0
   59.7500   31.9680   49.6610 C   0  0  0  0  0  0  0  0  0  0  0  0
   60.4880   33.1600   49.7450 C   0  0  0  0  0  0  0  0  0  0  0  0
   61.1091   33.3580   50.6310 H   0  0  0  0  0  0  0  0  0  0  0  0
   60.4370   34.0940   48.7100 C   0  0  0  0  0  0  0  0  0  0  0  0
   61.0078   35.0310   48.7889 H   0  0  0  0  0  0  0  0  0  0  0  0
   59.6640   33.8440   47.5740 C   0  0  0  0  0  0  0  0  0  0  0  0
   59.6255   34.5890   46.7656 H   0  0  0  0  0  0  0  0  0  0  0  0
   58.9340   32.6470   47.4550 C   0  0  0  0  0  0  0  0  0  0  0  0
   58.1220   32.3900   46.2340 C   0  0  0  0  0  0  0  0  0  0  0  0
   57.6620   31.2340   46.0200 O   0  0  0  0  0  0  0  0  0  0  0  0
   57.8270   33.4690   45.2370 C   0  0  0  0  0  0  0  0  0  0  0  0
   57.5728   34.3986   45.7672 H   0  0  0  0  0  0  0  0  0  0  0  0
   58.7122   33.6371   44.6059 H   0  0  0  0  0  0  0  0  0  0  0  0
   56.9795   33.1634   44.6059 H   0  0  0  0  0  0  0  0  0  0  0  0
   58.9930   31.7110   48.5070 C   0  0  0  0  0  0  0  0  0  0  0  0
   58.4377   30.7652   48.4226 H   0  0  0  0  0  0  0  0  0  0  0  0
  1  2  1  0
  2  3  1  0
  2  4  2  0
  4  5  1  0
  5  6  2  0
  6  7  1  0
  6  8  1  0
  8  9  1  0
  9 10  1  0
 10 11  2  0
 10 12  1  0
 12 13  1  0
 13 14  1  0
  5 15  1  0
 15 16  1  0
 15 17  2  0
 17 18  1  0
 18 19  1  0
 18 20  1  0
 18 21  1  0
 17 22  1  0
 22 23  1  0
 23 24  2  0
 24 25  1  0
 24 26  1  0
 26 27  1  0
 26 28  2  0
 28 29  1  0
 28 30  1  0
 30 31  1  0
 30 32  2  0
 32 33  1  0
 33 34  2  0
 33 35  1  0
 35 36  1  0
 35 37  1  0
 37 38  2  0
 38 39  1  0
 38 40  1  0
 40 41  1  0
 40 42  2  0
 42 43  1  0
 42 44  1  0
 44 45  1  0
 45 46  2  0
 45 47  1  0
 47 48  1  0
 47 49  1  0
 47 50  1  0
 44 51  2  0
 51 52  1  0
 22  4  1  0
 32 23  1  0
 51 37  1  0
 13  8  2  0
M  CHG  3   9  -1  12  -1  14  -1
M  END
>  <UniqueID>  (71) 
67

>  <SMILES>  (71) 
C=c1/c(=C\c2[n-]c(=O)[n-]c2[O-])cc(C)n1-c1ccccc1C(=O)Nc1cccc(C(C)=O)c1

>  <Energy>  (71) 
138.4163779610064

>  <Genealogy>  (71) 
C=c1c(=Cc2[n-]c(=O)[n-]c2[O-])cc(C)n1-c1ccccc1C(=O)Nc1cccc(C(C)=O)c1 (protonated)
C=c1/c(=C\c2[n-]c(=O)[n-]c2[O-])cc(C)n1-c1ccccc1C(=O)Nc1cccc(C(C)=O)c1 (cis-trans isomerization)
C=c1/c(=C\c2[n-]c(=O)[n-]c2[O-])cc(C)n1-c1ccccc1C(=O)Nc1cccc(C(C)=O)c1 (3D coordinates assigned)
C=c1/c(=C\c2[n-]c(=O)[n-]c2[O-])cc(C)n1-c1ccccc1C(=O)Nc1cccc(C(C)=O)c1 (optimized conformer: 138.4163779610064 kcal/mol)

>  <smiles>  (71) 
C=c1c(=Cc2[nH]c(=O)[nH]c2O)cc(C)n1-c1ccccc1C(=O)Nc1cccc(C(C)=O)c1

>  <score_type>  (71) 
oracle

>  <origin>  (71) 
adg

>  <m_score__min__energy>  (71) 
-17.68

>  <m_primary>  (71) 
energy

$$$$
71:0
     RDKit          3D

 39 41  0  0  0  0  0  0  0  0999 V2000
   54.5660   30.3660   44.6670 H   0  0  0  0  0  0  0  0  0  0  0  0
   55.1420   29.5110   44.5010 N   0  0  0  0  0  0  0  0  0  0  0  0
   56.3800   29.4310   44.8730 C   0  0  0  0  0  0  0  0  0  0  0  0
   57.0970   30.5720   45.0380 N   0  0  0  0  0  0  0  0  0  0  0  0
   58.3930   30.5330   45.4300 C   0  0  0  0  0  0  0  0  0  0  0  0
   59.0360   31.6060   45.5770 O   0  0  0  0  0  0  0  0  0  0  0  0
   59.0090   29.3070   45.6690 C   0  0  0  0  0  0  0  0  0  0  0  0
   60.0605   29.2650   45.9894 H   0  0  0  0  0  0  0  0  0  0  0  0
   58.2720   28.1270   45.4960 C   0  0  0  0  0  0  0  0  0  0  0  0
   58.9280   26.8620   45.7530 N   0  0  0  0  0  0  0  0  0  0  0  0
   59.9700   26.8870   45.8450 H   0  0  0  0  0  0  0  0  0  0  0  0
   58.3290   25.5220   45.8490 C   0  0  1  0  0  0  0  0  0  0  0  0
   59.1375   24.8168   46.0921 H   0  0  0  0  0  0  0  0  0  0  0  0
   57.3270   25.4210   47.0170 C   0  0  0  0  0  0  0  0  0  0  0  0
   57.8587   25.6120   47.9608 H   0  0  0  0  0  0  0  0  0  0  0  0
   56.5339   26.1657   46.8548 H   0  0  0  0  0  0  0  0  0  0  0  0
   56.6740   24.0310   47.0850 C   0  0  0  0  0  0  0  0  0  0  0  0
   57.4348   23.3013   47.3991 H   0  0  0  0  0  0  0  0  0  0  0  0
   55.8430   24.0926   47.8031 H   0  0  0  0  0  0  0  0  0  0  0  0
   56.0820   23.5740   45.7300 C   0  0  1  0  0  0  0  0  0  0  0  0
   55.7585   22.5311   45.8633 H   0  0  0  0  0  0  0  0  0  0  0  0
   54.8320   24.3280   45.3220 C   0  0  0  0  0  0  0  0  0  0  0  0
   54.7140   25.5350   45.6680 O   0  0  0  0  0  0  0  0  0  0  0  0
   53.8300   23.6970   44.5060 N   0  0  0  0  0  0  0  0  0  0  0  0
   52.5890   23.4640   44.8150 C   0  0  0  0  0  0  0  0  0  0  0  0
   52.2090   22.3230   45.4260 N   0  0  0  0  0  0  0  0  0  0  0  0
   50.8730   22.3030   45.6760 C   0  0  0  0  0  0  0  0  0  0  0  0
   50.3779   21.4521   46.1668 H   0  0  0  0  0  0  0  0  0  0  0  0
   50.1770   23.4350   45.2670 C   0  0  0  0  0  0  0  0  0  0  0  0
   49.0964   23.6059   45.3813 H   0  0  0  0  0  0  0  0  0  0  0  0
   51.2770   24.4970   44.5670 S   0  0  0  0  0  0  0  0  0  0  0  0
   57.1620   23.6350   44.6310 C   0  0  0  0  0  0  0  0  0  0  0  0
   57.9654   22.9267   44.8818 H   0  0  0  0  0  0  0  0  0  0  0  0
   56.6893   23.3740   43.6726 H   0  0  0  0  0  0  0  0  0  0  0  0
   57.7620   25.0390   44.4990 C   0  0  0  0  0  0  0  0  0  0  0  0
   58.5720   25.0164   43.7551 H   0  0  0  0  0  0  0  0  0  0  0  0
   56.9693   25.7324   44.1815 H   0  0  0  0  0  0  0  0  0  0  0  0
   56.9640   28.2170   45.1030 N   0  0  0  0  0  0  0  0  0  0  0  0
   56.3810   27.3690   44.9720 H   0  0  0  0  0  0  0  0  0  0  0  0
  1  2  1  0
  2  3  2  3
  3  4  1  0
  4  5  1  0
  5  6  2  0
  5  7  1  0
  7  8  1  0
  7  9  2  0
  9 10  1  0
 10 11  1  0
 10 12  1  0
 12 13  1  1
 12 14  1  0
 14 15  1  0
 14 16  1  0
 14 17  1  0
 17 18  1  0
 17 19  1  0
 17 20  1  0
 20 21  1  1
 20 22  1  0
 22 23  2  0
 22 24  1  0
 24 25  2  0
 25 26  1  0
 26 27  1  0
 27 28  1  0
 27 29  2  0
 29 30  1  0
 29 31  1  0
 20 32  1  0
 32 33  1  0
 32 34  1  0
 32 35  1  0
 35 36  1  0
 35 37  1  0
  9 38  1  0
 38 39  1  0
 38  3  1  0
 35 12  1  0
 31 25  1  0
M  CHG  2   4  -1  26  -1
M  END
>  <UniqueID>  (72) 
68

>  <SMILES>  (72) 
N=c1[n-]c(=O)cc(NC2CCC(C(=O)/N=c3/[n-]ccs3)CC2)[nH]1

>  <Energy>  (72) 
73.71247236496022

>  <Genealogy>  (72) 
N=c1[n-]c(=O)cc(NC2CCC(C(=O)N=c3[n-]ccs3)CC2)[nH]1 (protonated)
N=c1[n-]c(=O)cc(NC2CCC(C(=O)/N=c3/[n-]ccs3)CC2)[nH]1 (cis-trans isomerization)
N=c1[n-]c(=O)cc(NC2CCC(C(=O)/N=c3/[n-]ccs3)CC2)[nH]1 (3D coordinates assigned)
N=c1[n-]c(=O)cc(NC2CCC(C(=O)/N=c3/[n-]ccs3)CC2)[nH]1 (nonaromatic ring conformer: 73.71247236496022 kcal/mol)

>  <smiles>  (72) 
N=c1[nH]c(NC2CCC(C(=O)N=c3[nH]ccs3)CC2)cc(=O)[nH]1

>  <score_type>  (72) 
oracle

>  <origin>  (72) 
adg

>  <m_score__min__energy>  (72) 
-11.300000000000001

>  <m_primary>  (72) 
energy

$$$$
72:0
     RDKit          3D

 33 35  0  0  0  0  0  0  0  0999 V2000
   58.0338   31.1746   47.2523 H   0  0  0  0  0  0  0  0  0  0  0  0
   58.1490   30.0940   47.0820 C   0  0  0  0  0  0  0  0  0  0  0  0
   58.5688   29.4543   47.8723 H   0  0  0  0  0  0  0  0  0  0  0  0
   57.7780   29.5570   45.9120 C   0  0  0  0  0  0  0  0  0  0  0  0
   57.8580   28.2110   45.5390 C   0  0  0  0  0  0  0  0  0  0  0  0
   58.2880   27.1810   46.2940 C   0  0  0  0  0  0  0  0  0  0  0  0
   59.3235   27.2089   46.6641 H   0  0  0  0  0  0  0  0  0  0  0  0
   57.4560   26.0200   46.6540 C   0  0  0  0  0  0  0  0  0  0  0  0
   57.9670   24.8530   47.0870 N   0  0  0  0  0  0  0  0  0  0  0  0
   56.8810   24.0610   47.2130 C   0  0  0  0  0  0  0  0  0  0  0  0
   56.9530   22.8720   47.6160 O   0  0  0  0  0  0  0  0  0  0  0  0
   55.7130   24.6420   46.8640 N   0  0  0  0  0  0  0  0  0  0  0  0
   56.0940   25.8760   46.5000 C   0  0  0  0  0  0  0  0  0  0  0  0
   55.2210   26.8320   45.9930 O   0  0  0  0  0  0  0  0  0  0  0  0
   57.3390   28.1320   44.2510 C   0  0  0  0  0  0  0  0  0  0  0  0
   57.2412   27.2243   43.6375 H   0  0  0  0  0  0  0  0  0  0  0  0
   56.9700   29.4140   43.8910 C   0  0  0  0  0  0  0  0  0  0  0  0
   56.2720   29.7680   42.6120 C   0  0  0  0  0  0  0  0  0  0  0  0
   55.3124   30.2547   42.8406 H   0  0  0  0  0  0  0  0  0  0  0  0
   56.9020   30.4555   42.0286 H   0  0  0  0  0  0  0  0  0  0  0  0
   56.0895   28.8535   42.0286 H   0  0  0  0  0  0  0  0  0  0  0  0
   57.2690   30.2760   44.8880 N   0  0  0  0  0  0  0  0  0  0  0  0
   56.9750   31.6510   44.9320 N   0  0  0  0  0  0  0  0  0  0  0  0
   57.8610   32.6600   44.4340 C   0  0  0  0  0  0  0  0  0  0  0  0
   58.1390   32.7100   43.2070 O   0  0  0  0  0  0  0  0  0  0  0  0
   58.4810   33.6130   45.3620 C   0  0  0  0  0  0  0  0  0  0  0  0
   58.3040   33.6010   47.0350 S   0  0  0  0  0  0  0  0  0  0  0  0
   59.2790   34.9380   47.3330 C   0  0  0  0  0  0  0  0  0  0  0  0
   59.5004   35.3658   48.3219 H   0  0  0  0  0  0  0  0  0  0  0  0
   59.7570   35.4100   46.1180 C   0  0  0  0  0  0  0  0  0  0  0  0
   60.4217   36.2821   46.0306 H   0  0  0  0  0  0  0  0  0  0  0  0
   59.3130   34.6710   45.0140 C   0  0  0  0  0  0  0  0  0  0  0  0
   59.5942   34.9042   43.9765 H   0  0  0  0  0  0  0  0  0  0  0  0
  1  2  1  0
  2  3  1  0
  2  4  2  0
  4  5  1  0
  5  6  2  0
  6  7  1  0
  6  8  1  0
  8  9  1  0
  9 10  1  0
 10 11  2  0
 10 12  1  0
 12 13  1  0
 13 14  1  0
  5 15  1  0
 15 16  1  0
 15 17  2  0
 17 18  1  0
 18 19  1  0
 18 20  1  0
 18 21  1  0
 17 22  1  0
 22 23  1  0
 23 24  1  0
 24 25  2  0
 24 26  1  0
 26 27  1  0
 27 28  1  0
 28 29  1  0
 28 30  2  0
 30 31  1  0
 30 32  1  0
 32 33  1  0
 22  4  1  0
 32 26  2  0
 13  8  2  0
M  CHG  4   9  -1  12  -1  14  -1  23  -1
M  END
>  <UniqueID>  (73) 
69

>  <SMILES>  (73) 
C=c1/c(=C/c2[n-]c(=O)[n-]c2[O-])cc(C)n1[N-]C(=O)c1cccs1

>  <Energy>  (73) 
130.31582935067874

>  <Genealogy>  (73) 
C=c1c(=Cc2[n-]c(=O)[n-]c2[O-])cc(C)n1[N-]C(=O)c1cccs1 (protonated)
C=c1/c(=C/c2[n-]c(=O)[n-]c2[O-])cc(C)n1[N-]C(=O)c1cccs1 (cis-trans isomerization)
C=c1/c(=C/c2[n-]c(=O)[n-]c2[O-])cc(C)n1[N-]C(=O)c1cccs1 (3D coordinates assigned)
C=c1/c(=C/c2[n-]c(=O)[n-]c2[O-])cc(C)n1[N-]C(=O)c1cccs1 (optimized conformer: 130.31582935067874 kcal/mol)

>  <smiles>  (73) 
C=c1c(=Cc2[nH]c(=O)[nH]c2O)cc(C)n1NC(=O)c1cccs1

>  <score_type>  (73) 
oracle

>  <origin>  (73) 
adg

>  <m_score__min__energy>  (73) 
-16.399999999999999

>  <m_primary>  (73) 
energy

$$$$
73:0
     RDKit          3D

 53 56  0  0  0  0  0  0  0  0999 V2000
   58.9260   29.3910   48.7410 C   0  0  0  0  0  0  0  0  0  0  0  0
   58.8410   30.0400   47.5700 C   0  0  0  0  0  0  0  0  0  0  0  0
   58.5220   29.4920   46.3160 C   0  0  0  0  0  0  0  0  0  0  0  0
   58.4640   28.2140   45.8900 C   0  0  0  0  0  0  0  0  0  0  0  0
   57.3550   27.2690   46.1260 C   0  0  0  0  0  0  0  0  0  0  0  0
   57.5040   26.0010   46.5580 N   0  0  0  0  0  0  0  0  0  0  0  0
   56.2610   25.4850   46.4430 C   0  0  0  0  0  0  0  0  0  0  0  0
   55.9840   24.3040   46.7780 O   0  0  0  0  0  0  0  0  0  0  0  0
   55.3410   26.3310   45.9340 N   0  0  0  0  0  0  0  0  0  0  0  0
   56.0540   27.4490   45.7270 C   0  0  0  0  0  0  0  0  0  0  0  0
   55.5290   28.6100   45.1730 O   0  0  0  0  0  0  0  0  0  0  0  0
   58.3250   30.5680   45.4650 C   0  0  0  0  0  0  0  0  0  0  0  0
   58.6020   31.7090   46.1890 C   0  0  0  0  0  0  0  0  0  0  0  0
   58.6640   33.0920   45.6110 C   0  0  0  0  0  0  0  0  0  0  0  0
   58.9240   31.3900   47.4590 N   0  0  0  0  0  0  0  0  0  0  0  0
   59.3400   32.3180   48.4740 C   0  0  0  0  0  0  0  0  0  0  0  0
   58.6510   32.3760   49.6930 C   0  0  0  0  0  0  0  0  0  0  0  0
   59.0430   33.2930   50.6730 C   0  0  0  0  0  0  0  0  0  0  0  0
   60.1250   34.1510   50.4400 C   0  0  0  0  0  0  0  0  0  0  0  0
   60.8120   34.0980   49.2230 C   0  0  0  0  0  0  0  0  0  0  0  0
   60.4170   33.1880   48.2280 C   0  0  0  0  0  0  0  0  0  0  0  0
   61.1180   33.0710   46.9820 N   0  0  0  0  0  0  0  0  0  0  0  0
   62.5290   32.9540   46.7760 C   0  0  0  0  0  0  0  0  0  0  0  0
   63.1510   33.7770   46.0500 O   0  0  0  0  0  0  0  0  0  0  0  0
   63.2540   31.7830   47.3640 C   0  0  0  0  0  0  0  0  0  0  0  0
   63.4710   32.0070   48.8380 C   0  0  0  0  0  0  0  0  0  0  0  0
   64.3030   33.0490   49.2820 C   0  0  0  0  0  0  0  0  0  0  0  0
   64.4350   33.3130   50.6490 C   0  0  0  0  0  0  0  0  0  0  0  0
   63.7340   32.5510   51.5940 C   0  0  0  0  0  0  0  0  0  0  0  0
   63.8810   32.8680   52.9540 O   0  0  0  0  0  0  0  0  0  0  0  0
   62.8230   33.3490   53.7820 C   0  0  0  0  0  0  0  0  0  0  0  0
   62.9050   31.5040   51.1490 C   0  0  0  0  0  0  0  0  0  0  0  0
   62.7690   31.2410   49.7810 C   0  0  0  0  0  0  0  0  0  0  0  0
   59.1865   29.9413   49.6571 H   0  0  0  0  0  0  0  0  0  0  0  0
   58.7351   28.3086   48.7850 H   0  0  0  0  0  0  0  0  0  0  0  0
   59.3230   27.8410   45.3130 H   0  0  0  0  0  0  0  0  0  0  0  0
   58.0081   30.5211   44.4127 H   0  0  0  0  0  0  0  0  0  0  0  0
   58.6970   33.8292   46.4268 H   0  0  0  0  0  0  0  0  0  0  0  0
   59.5675   33.1902   44.9912 H   0  0  0  0  0  0  0  0  0  0  0  0
   57.7730   33.2707   44.9912 H   0  0  0  0  0  0  0  0  0  0  0  0
   57.8027   31.7008   49.8786 H   0  0  0  0  0  0  0  0  0  0  0  0
   58.5005   33.3406   51.6287 H   0  0  0  0  0  0  0  0  0  0  0  0
   60.4349   34.8674   51.2151 H   0  0  0  0  0  0  0  0  0  0  0  0
   61.6639   34.7706   49.0443 H   0  0  0  0  0  0  0  0  0  0  0  0
   62.6560   30.8715   47.2170 H   0  0  0  0  0  0  0  0  0  0  0  0
   64.2282   31.6705   46.8657 H   0  0  0  0  0  0  0  0  0  0  0  0
   64.8529   33.6598   48.5509 H   0  0  0  0  0  0  0  0  0  0  0  0
   65.0949   34.1261   50.9858 H   0  0  0  0  0  0  0  0  0  0  0  0
   63.0990   33.2235   54.8394 H   0  0  0  0  0  0  0  0  0  0  0  0
   62.6490   34.4147   53.5724 H   0  0  0  0  0  0  0  0  0  0  0  0
   61.9055   32.7795   53.5724 H   0  0  0  0  0  0  0  0  0  0  0  0
   62.3608   30.8888   51.8807 H   0  0  0  0  0  0  0  0  0  0  0  0
   62.1080   30.4292   49.4432 H   0  0  0  0  0  0  0  0  0  0  0  0
  1  2  2  0
  2  3  1  0
  3  4  2  3
  4  5  1  0
  5  6  1  0
  6  7  1  0
  7  8  2  0
  7  9  1  0
  9 10  1  0
 10 11  1  0
  3 12  1  0
 12 13  2  0
 13 14  1  0
 13 15  1  0
 15 16  1  0
 16 17  2  0
 17 18  1  0
 18 19  2  0
 19 20  1  0
 20 21  2  0
 21 22  1  0
 22 23  1  0
 23 24  2  0
 23 25  1  0
 25 26  1  0
 26 27  2  0
 27 28  1  0
 28 29  2  0
 29 30  1  0
 30 31  1  0
 29 32  1  0
 32 33  2  0
 15  2  1  0
 21 16  1  0
 33 26  1  0
 10  5  2  0
  1 34  1  0
  1 35  1  0
  4 36  1  0
 12 37  1  0
 14 38  1  0
 14 39  1  0
 14 40  1  0
 17 41  1  0
 18 42  1  0
 19 43  1  0
 20 44  1  0
 25 45  1  0
 25 46  1  0
 27 47  1  0
 28 48  1  0
 31 49  1  0
 31 50  1  0
 31 51  1  0
 32 52  1  0
 33 53  1  0
M  CHG  4   6  -1   9  -1  11  -1  22  -1
M  END
>  <UniqueID>  (74) 
70

>  <SMILES>  (74) 
C=c1c(=Cc2[n-]c(=O)[n-]c2[O-])cc(C)n1-c1ccccc1[N-]C(=O)Cc1ccc(OC)cc1

>  <Energy>  (74) 
129.09665902735

>  <Genealogy>  (74) 
C=c1c(=Cc2[n-]c(=O)[n-]c2[O-])cc(C)n1-c1ccccc1[N-]C(=O)Cc1ccc(OC)cc1 (protonated)
C=c1c(=Cc2[n-]c(=O)[n-]c2[O-])cc(C)n1-c1ccccc1[N-]C(=O)Cc1ccc(OC)cc1 (3D coordinates assigned)
C=c1c(=Cc2[n-]c(=O)[n-]c2[O-])cc(C)n1-c1ccccc1[N-]C(=O)Cc1ccc(OC)cc1 (optimized conformer: 129.09665902735 kcal/mol)

>  <smiles>  (74) 
C=c1c(=Cc2[nH]c(=O)[nH]c2O)cc(C)n1-c1ccccc1NC(=O)Cc1ccc(OC)cc1

>  <score_type>  (74) 
oracle

>  <origin>  (74) 
adg

>  <m_score__min__energy>  (74) 
-17.870000000000001

>  <m_primary>  (74) 
energy

$$$$
74:0
     RDKit          3D

 61 65  0  0  0  0  0  0  0  0999 V2000
   59.6731   28.6369   44.3486 H   0  0  0  0  0  0  0  0  0  0  0  0
   60.3780   28.2800   45.1140 C   0  0  0  0  0  0  0  0  0  0  0  0
   61.4576   28.2657   44.9035 H   0  0  0  0  0  0  0  0  0  0  0  0
   59.9230   27.8640   46.2990 C   0  0  0  0  0  0  0  0  0  0  0  0
   60.7590   27.4210   47.2580 N   0  0  0  0  0  0  0  0  0  0  0  0
   59.9540   27.2290   48.3200 C   0  0  0  0  0  0  0  0  0  0  0  0
   60.3800   26.8170   49.4300 O   0  0  0  0  0  0  0  0  0  0  0  0
   58.6580   27.5200   48.1010 N   0  0  0  0  0  0  0  0  0  0  0  0
   58.6200   27.9040   46.8100 C   0  0  0  0  0  0  0  0  0  0  0  0
   57.4580   28.2380   46.2190 C   0  0  0  0  0  0  0  0  0  0  0  0
   56.7060   27.4433   46.1052 H   0  0  0  0  0  0  0  0  0  0  0  0
   57.1060   29.5730   45.7120 C   0  0  0  0  0  0  0  0  0  0  0  0
   56.0780   29.8780   44.8310 C   0  0  0  0  0  0  0  0  0  0  0  0
   55.1350   28.9670   44.3710 O   0  0  0  0  0  0  0  0  0  0  0  0
   56.0910   31.1800   44.4560 N   0  0  0  0  0  0  0  0  0  0  0  0
   57.1620   31.6920   45.0930 C   0  0  0  0  0  0  0  0  0  0  0  0
   57.6280   33.0030   45.0110 C   0  0  0  0  0  0  0  0  0  0  0  0
   57.1002   33.7541   44.4050 H   0  0  0  0  0  0  0  0  0  0  0  0
   58.7920   33.3380   45.7250 C   0  0  0  0  0  0  0  0  0  0  0  0
   59.1791   34.3669   45.6848 H   0  0  0  0  0  0  0  0  0  0  0  0
   59.4700   32.3630   46.4950 C   0  0  0  0  0  0  0  0  0  0  0  0
   60.9420   32.7850   47.3620 S   0  0  0  0  0  0  0  0  0  0  0  0
   61.1590   34.2690   47.2630 O   0  0  0  0  0  0  0  0  0  0  0  0
   62.1180   32.0900   46.7310 O   0  0  0  0  0  0  0  0  0  0  0  0
   60.7820   32.3170   49.0390 N   0  0  1  0  0  0  0  0  0  0  0  0
   61.3080   33.0080   49.6240 H   0  0  0  0  0  0  0  0  0  0  0  0
   59.3780   32.3360   49.4570 C   0  0  0  0  0  0  0  0  0  0  0  0
   59.0930   33.3462   49.7861 H   0  0  0  0  0  0  0  0  0  0  0  0
   58.7119   32.0575   48.6271 H   0  0  0  0  0  0  0  0  0  0  0  0
   59.2590   31.3580   50.6070 C   0  0  0  0  0  0  0  0  0  0  0  0
   59.4341   31.8652   51.5672 H   0  0  0  0  0  0  0  0  0  0  0  0
   58.2566   30.9094   50.6696 H   0  0  0  0  0  0  0  0  0  0  0  0
   60.3360   30.3220   50.3450 C   0  0  0  0  0  0  0  0  0  0  0  0
   60.8972   30.1109   51.2672 H   0  0  0  0  0  0  0  0  0  0  0  0
   59.9069   29.3690   50.0021 H   0  0  0  0  0  0  0  0  0  0  0  0
   61.2620   30.9410   49.2840 C   0  0  2  0  0  0  0  0  0  0  0  0
   61.2289   30.3506   48.3565 H   0  0  0  0  0  0  0  0  0  0  0  0
   62.7440   30.9280   49.7390 C   0  0  0  0  0  0  0  0  0  0  0  0
   62.8639   30.1830   50.5394 H   0  0  0  0  0  0  0  0  0  0  0  0
   63.3663   30.6768   48.8674 H   0  0  0  0  0  0  0  0  0  0  0  0
   63.1770   32.2510   50.2470 N   0  0  0  0  0  0  0  0  0  0  0  0
   63.9130   33.0160   49.2090 C   0  0  0  0  0  0  0  0  0  0  0  0
   63.6268   32.6351   48.2175 H   0  0  0  0  0  0  0  0  0  0  0  0
   63.6490   34.0782   49.3190 H   0  0  0  0  0  0  0  0  0  0  0  0
   65.4330   32.8870   49.3690 C   0  0  0  0  0  0  0  0  0  0  0  0
   65.7098   31.8235   49.3205 H   0  0  0  0  0  0  0  0  0  0  0  0
   65.9174   33.4515   48.5587 H   0  0  0  0  0  0  0  0  0  0  0  0
   65.8850   33.4450   50.6640 N   0  0  0  0  0  0  0  0  0  0  0  0
   67.1810   32.8660   51.0510 C   0  0  0  0  0  0  0  0  0  0  0  0
   67.2549   32.8330   52.1480 H   0  0  0  0  0  0  0  0  0  0  0  0
   67.2622   31.8460   50.6472 H   0  0  0  0  0  0  0  0  0  0  0  0
   67.9949   33.4861   50.6472 H   0  0  0  0  0  0  0  0  0  0  0  0
   64.8840   33.3090   51.7500 C   0  0  0  0  0  0  0  0  0  0  0  0
   65.4135   33.1584   52.7023 H   0  0  0  0  0  0  0  0  0  0  0  0
   64.2794   34.2278   51.7674 H   0  0  0  0  0  0  0  0  0  0  0  0
   63.9320   32.1240   51.5210 C   0  0  0  0  0  0  0  0  0  0  0  0
   64.5216   31.1958   51.4928 H   0  0  0  0  0  0  0  0  0  0  0  0
   63.2044   32.1100   52.3458 H   0  0  0  0  0  0  0  0  0  0  0  0
   58.9840   31.0420   46.5460 C   0  0  0  0  0  0  0  0  0  0  0  0
   59.5117   30.2657   47.1195 H   0  0  0  0  0  0  0  0  0  0  0  0
   57.8130   30.7480   45.8470 C   0  0  0  0  0  0  0  0  0  0  0  0
  1  2  1  0
  2  3  1  0
  2  4  2  0
  4  5  1  0
  5  6  1  0
  6  7  2  0
  6  8  1  0
  8  9  1  0
  9 10  2  0
 10 11  1  0
 10 12  1  0
 12 13  2  0
 13 14  1  0
 13 15  1  0
 15 16  1  0
 16 17  2  0
 17 18  1  0
 17 19  1  0
 19 20  1  0
 19 21  2  0
 21 22  1  0
 22 23  2  0
 22 24  2  0
 22 25  1  0
 25 26  1  1
 25 27  1  0
 27 28  1  0
 27 29  1  0
 27 30  1  0
 30 31  1  0
 30 32  1  0
 30 33  1  0
 33 34  1  0
 33 35  1  0
 33 36  1  0
 36 37  1  6
 36 38  1  0
 38 39  1  0
 38 40  1  0
 38 41  1  0
 41 42  1  0
 42 43  1  0
 42 44  1  0
 42 45  1  0
 45 46  1  0
 45 47  1  0
 45 48  1  0
 48 49  1  0
 49 50  1  0
 49 51  1  0
 49 52  1  0
 48 53  1  0
 53 54  1  0
 53 55  1  0
 53 56  1  0
 56 57  1  0
 56 58  1  0
 21 59  1  0
 59 60  1  0
 59 61  2  0
  9  4  1  0
 61 12  1  0
 61 16  1  0
 36 25  1  0
 56 41  1  0
M  CHG  5   5  -1   8  -1  14  -1  15  -1  25   1
M  END
>  <UniqueID>  (75) 
71

>  <SMILES>  (75) 
C=c1[n-]c(=O)[n-]/c1=C/c1c([O-])[n-]c2ccc(S(=O)(=O)[N@H+]3CCC[C@@H]3CN3CCN(C)CC3)cc12

>  <Energy>  (75) 
151.4160778734148

>  <Genealogy>  (75) 
C=c1[n-]c(=O)[n-]c1=Cc1c([O-])[n-]c2ccc(S(=O)(=O)[NH+]3CCCC3CN3CCN(C)CC3)cc12 (protonated)
C=c1[n-]c(=O)[n-]c1=Cc1c([O-])[n-]c2ccc(S(=O)(=O)[N@H+]3CCC[C@@H]3CN3CCN(C)CC3)cc12 (chirality)
C=c1[n-]c(=O)[n-]/c1=C/c1c([O-])[n-]c2ccc(S(=O)(=O)[N@H+]3CCC[C@@H]3CN3CCN(C)CC3)cc12 (cis-trans isomerization)
C=c1[n-]c(=O)[n-]/c1=C/c1c([O-])[n-]c2ccc(S(=O)(=O)[N@H+]3CCC[C@@H]3CN3CCN(C)CC3)cc12 (3D coordinates assigned)
C=c1[n-]c(=O)[n-]/c1=C/c1c([O-])[n-]c2ccc(S(=O)(=O)[N@H+]3CCC[C@@H]3CN3CCN(C)CC3)cc12 (nonaromatic ring conformer: 151.4160778734148 kcal/mol)

>  <smiles>  (75) 
C=c1[nH]c(=O)[nH]c1=Cc1c(O)[nH]c2ccc(S(=O)(=O)N3CCCC3CN3CCN(C)CC3)cc12

>  <score_type>  (75) 
oracle

>  <origin>  (75) 
adg

>  <m_score__min__energy>  (75) 
-14.81

>  <m_primary>  (75) 
energy

$$$$
75:0
     RDKit          3D

 47 48  0  0  0  0  0  0  0  0999 V2000
   62.2760   31.2300   47.3770 C   0  0  0  0  0  0  0  0  0  0  0  0
   61.2780   32.1070   47.1720 C   0  0  0  0  0  0  0  0  0  0  0  0
   59.8980   31.8500   47.2650 C   0  0  0  0  0  0  0  0  0  0  0  0
   59.2450   30.7670   47.7480 C   0  0  0  0  0  0  0  0  0  0  0  0
   58.7790   29.6210   46.9440 C   0  0  0  0  0  0  0  0  0  0  0  0
   57.5190   29.6550   46.3280 C   0  0  0  0  0  0  0  0  0  0  0  0
   57.0890   28.5770   45.5480 C   0  0  0  0  0  0  0  0  0  0  0  0
   55.8310   28.5940   44.9470 O   0  0  0  0  0  0  0  0  0  0  0  0
   57.9410   27.4770   45.3790 C   0  0  0  0  0  0  0  0  0  0  0  0
   57.4220   26.0530   44.4180 S   0  0  0  0  0  0  0  0  0  0  0  0
   57.0140   25.0260   45.8730 C   0  0  0  0  0  0  0  0  0  0  0  0
   55.5550   25.1070   46.1900 C   0  0  0  0  0  0  0  0  0  0  0  0
   54.8380   26.3140   45.9450 N   0  0  0  0  0  0  0  0  0  0  0  0
   54.9530   24.1010   46.6510 O   0  0  0  0  0  0  0  0  0  0  0  0
   59.1760   27.4820   45.9470 N   0  0  0  0  0  0  0  0  0  0  0  0
   59.6160   28.5170   46.7100 C   0  0  0  0  0  0  0  0  0  0  0  0
   60.7720   28.4700   47.2110 O   0  0  0  0  0  0  0  0  0  0  0  0
   59.2630   32.9970   46.7870 C   0  0  0  0  0  0  0  0  0  0  0  0
   57.7760   33.2410   46.6930 C   0  0  0  0  0  0  0  0  0  0  0  0
   57.3290   33.3120   45.2370 C   0  0  0  0  0  0  0  0  0  0  0  0
   60.2590   33.9300   46.5310 C   0  0  0  0  0  0  0  0  0  0  0  0
   60.0330   35.3390   46.0530 C   0  0  0  0  0  0  0  0  0  0  0  0
   61.4790   33.3780   46.7290 N   0  0  0  0  0  0  0  0  0  0  0  0
   62.7710   34.0490   46.5090 C   0  0  0  0  0  0  0  0  0  0  0  0
   63.5240   34.1970   47.8280 C   0  0  0  0  0  0  0  0  0  0  0  0
   64.4230   33.1340   47.9750 O   0  0  0  0  0  0  0  0  0  0  0  0
   63.3223   31.5534   47.2736 H   0  0  0  0  0  0  0  0  0  0  0  0
   62.0463   30.1890   47.6482 H   0  0  0  0  0  0  0  0  0  0  0  0
   59.0453   30.7391   48.8294 H   0  0  0  0  0  0  0  0  0  0  0  0
   56.8678   30.5318   46.4589 H   0  0  0  0  0  0  0  0  0  0  0  0
   55.1440   27.8740   45.1350 H   0  0  0  0  0  0  0  0  0  0  0  0
   57.2791   23.9796   45.6612 H   0  0  0  0  0  0  0  0  0  0  0  0
   57.5831   25.3987   46.7374 H   0  0  0  0  0  0  0  0  0  0  0  0
   54.7700   26.7130   44.9820 H   0  0  0  0  0  0  0  0  0  0  0  0
   57.2435   32.4191   47.1939 H   0  0  0  0  0  0  0  0  0  0  0  0
   57.5451   34.2002   47.1795 H   0  0  0  0  0  0  0  0  0  0  0  0
   56.2434   33.4844   45.1947 H   0  0  0  0  0  0  0  0  0  0  0  0
   57.8514   34.1384   44.7329 H   0  0  0  0  0  0  0  0  0  0  0  0
   57.5697   32.3644   44.7329 H   0  0  0  0  0  0  0  0  0  0  0  0
   59.9258   36.0075   46.9199 H   0  0  0  0  0  0  0  0  0  0  0  0
   60.8908   35.6619   45.4448 H   0  0  0  0  0  0  0  0  0  0  0  0
   59.1172   35.3774   45.4448 H   0  0  0  0  0  0  0  0  0  0  0  0
   63.3759   33.4512   45.8113 H   0  0  0  0  0  0  0  0  0  0  0  0
   62.5872   35.0487   46.0885 H   0  0  0  0  0  0  0  0  0  0  0  0
   64.0772   35.1477   47.8295 H   0  0  0  0  0  0  0  0  0  0  0  0
   62.8069   34.1882   48.6621 H   0  0  0  0  0  0  0  0  0  0  0  0
   64.5500   32.7540   47.0670 H   0  0  0  0  0  0  0  0  0  0  0  0
  1  2  2  0
  2  3  1  0
  3  4  2  3
  4  5  1  0
  5  6  2  0
  6  7  1  0
  7  8  1  0
  7  9  2  0
  9 10  1  0
 10 11  1  0
 11 12  1  0
 12 13  1  0
 12 14  2  0
  9 15  1  0
 15 16  1  0
 16 17  2  0
  3 18  1  0
 18 19  1  0
 19 20  1  0
 18 21  2  0
 21 22  1  0
 21 23  1  0
 23 24  1  0
 24 25  1  0
 25 26  1  0
 23  2  1  0
 16  5  1  0
  1 27  1  0
  1 28  1  0
  4 29  1  0
  6 30  1  0
  8 31  1  0
 11 32  1  0
 11 33  1  0
 13 34  1  0
 19 35  1  0
 19 36  1  0
 20 37  1  0
 20 38  1  0
 20 39  1  0
 22 40  1  0
 22 41  1  0
 22 42  1  0
 24 43  1  0
 24 44  1  0
 25 45  1  0
 25 46  1  0
 26 47  1  0
M  CHG  2  13  -1  15  -1
M  END
>  <UniqueID>  (76) 
72

>  <SMILES>  (76) 
C=c1c(=Cc2cc(O)c(SCC([NH-])=O)[n-]c2=O)c(CC)c(C)n1CCO

>  <Energy>  (76) 
77.85144017194277

>  <Genealogy>  (76) 
C=c1c(=Cc2cc(O)c(SCC([NH-])=O)[n-]c2=O)c(CC)c(C)n1CCO (protonated)
C=c1c(=Cc2cc(O)c(SCC([NH-])=O)[n-]c2=O)c(CC)c(C)n1CCO (3D coordinates assigned)
C=c1c(=Cc2cc(O)c(SCC([NH-])=O)[n-]c2=O)c(CC)c(C)n1CCO (optimized conformer: 77.85144017194277 kcal/mol)

>  <smiles>  (76) 
C=c1c(=Cc2cc(O)c(SCC(N)=O)[nH]c2=O)c(CC)c(C)n1CCO

>  <score_type>  (76) 
oracle

>  <origin>  (76) 
adg

>  <m_score__min__energy>  (76) 
-12.52

>  <m_primary>  (76) 
energy

$$$$
76:0
     RDKit          3D

 56 59  0  0  0  0  0  0  0  0999 V2000
   60.7281   29.1475   46.5768 H   0  0  0  0  0  0  0  0  0  0  0  0
   60.0340   28.4180   46.1340 C   0  0  0  0  0  0  0  0  0  0  0  0
   60.2451   27.3412   46.2106 H   0  0  0  0  0  0  0  0  0  0  0  0
   58.9290   28.8420   45.5000 C   0  0  0  0  0  0  0  0  0  0  0  0
   57.9630   28.0330   44.8930 C   0  0  0  0  0  0  0  0  0  0  0  0
   57.9330   26.6860   44.8510 C   0  0  0  0  0  0  0  0  0  0  0  0
   58.3629   26.1870   43.9700 H   0  0  0  0  0  0  0  0  0  0  0  0
   57.3590   25.8410   45.9140 C   0  0  0  0  0  0  0  0  0  0  0  0
   58.0220   24.8190   46.4820 N   0  0  0  0  0  0  0  0  0  0  0  0
   57.1120   24.2810   47.3220 C   0  0  0  0  0  0  0  0  0  0  0  0
   57.3690   23.2920   48.0560 O   0  0  0  0  0  0  0  0  0  0  0  0
   55.9020   24.8800   47.3050 N   0  0  0  0  0  0  0  0  0  0  0  0
   56.0700   25.8570   46.4000 C   0  0  0  0  0  0  0  0  0  0  0  0
   55.0520   26.7130   45.9950 O   0  0  0  0  0  0  0  0  0  0  0  0
   56.9950   28.8910   44.3910 C   0  0  0  0  0  0  0  0  0  0  0  0
   56.0800   28.6051   43.8515 H   0  0  0  0  0  0  0  0  0  0  0  0
   57.4030   30.1730   44.7000 C   0  0  0  0  0  0  0  0  0  0  0  0
   56.6370   31.4140   44.3510 C   0  0  0  0  0  0  0  0  0  0  0  0
   56.3229   31.9228   45.2743 H   0  0  0  0  0  0  0  0  0  0  0  0
   57.2774   32.0865   43.7614 H   0  0  0  0  0  0  0  0  0  0  0  0
   55.7488   31.1430   43.7614 H   0  0  0  0  0  0  0  0  0  0  0  0
   58.5870   30.1500   45.3570 N   0  0  0  0  0  0  0  0  0  0  0  0
   59.3000   31.3240   45.8790 C   0  0  0  0  0  0  0  0  0  0  0  0
   60.3447   31.2965   45.5357 H   0  0  0  0  0  0  0  0  0  0  0  0
   58.8066   32.2356   45.5108 H   0  0  0  0  0  0  0  0  0  0  0  0
   59.2710   31.3250   47.4090 C   0  0  0  0  0  0  0  0  0  0  0  0
   58.4174   31.9269   47.7541 H   0  0  0  0  0  0  0  0  0  0  0  0
   59.1729   30.2880   47.7627 H   0  0  0  0  0  0  0  0  0  0  0  0
   60.5430   31.9080   47.9620 C   0  0  0  0  0  0  0  0  0  0  0  0
   60.5150   32.6910   49.1260 C   0  0  0  0  0  0  0  0  0  0  0  0
   59.5556   32.9006   49.6216 H   0  0  0  0  0  0  0  0  0  0  0  0
   61.7000   33.2060   49.6590 C   0  0  0  0  0  0  0  0  0  0  0  0
   61.6676   33.8245   50.5681 H   0  0  0  0  0  0  0  0  0  0  0  0
   62.9320   32.9380   49.0400 C   0  0  0  0  0  0  0  0  0  0  0  0
   64.2110   33.5040   49.6160 C   0  0  0  0  0  0  0  0  0  0  0  0
   64.5691   34.3108   48.9596 H   0  0  0  0  0  0  0  0  0  0  0  0
   63.9905   33.8795   50.6261 H   0  0  0  0  0  0  0  0  0  0  0  0
   65.2740   32.4750   49.7330 N   0  0  0  0  0  0  0  0  0  0  0  0
   65.4750   32.1020   48.7730 H   0  0  0  0  0  0  0  0  0  0  0  0
   66.5280   33.1010   50.2170 C   0  0  0  0  0  0  0  0  0  0  0  0
   67.0410   33.5803   49.3702 H   0  0  0  0  0  0  0  0  0  0  0  0
   66.2741   33.8462   50.9853 H   0  0  0  0  0  0  0  0  0  0  0  0
   67.4620   32.0510   50.8420 C   0  0  0  0  0  0  0  0  0  0  0  0
   67.7072   31.3044   50.0723 H   0  0  0  0  0  0  0  0  0  0  0  0
   68.3485   32.5906   51.2066 H   0  0  0  0  0  0  0  0  0  0  0  0
   66.9040   31.3730   51.9610 O   0  0  0  0  0  0  0  0  0  0  0  0
   65.4840   31.3850   51.9870 C   0  0  0  0  0  0  0  0  0  0  0  0
   65.1374   30.5136   52.5619 H   0  0  0  0  0  0  0  0  0  0  0  0
   65.1733   32.3341   52.4482 H   0  0  0  0  0  0  0  0  0  0  0  0
   64.8520   31.3290   50.5850 C   0  0  0  0  0  0  0  0  0  0  0  0
   65.1572   30.3923   50.0957 H   0  0  0  0  0  0  0  0  0  0  0  0
   63.7597   31.3802   50.7041 H   0  0  0  0  0  0  0  0  0  0  0  0
   62.9600   32.1380   47.8860 C   0  0  0  0  0  0  0  0  0  0  0  0
   63.9204   31.9149   47.3983 H   0  0  0  0  0  0  0  0  0  0  0  0
   61.7750   31.6240   47.3540 C   0  0  0  0  0  0  0  0  0  0  0  0
   61.8081   30.9932   46.4535 H   0  0  0  0  0  0  0  0  0  0  0  0
  1  2  1  0
  2  3  1  0
  2  4  2  0
  4  5  1  0
  5  6  2  0
  6  7  1  0
  6  8  1  0
  8  9  1  0
  9 10  1  0
 10 11  2  0
 10 12  1  0
 12 13  1  0
 13 14  1  0
  5 15  1  0
 15 16  1  0
 15 17  2  0
 17 18  1  0
 18 19  1  0
 18 20  1  0
 18 21  1  0
 17 22  1  0
 22 23  1  0
 23 24  1  0
 23 25  1  0
 23 26  1  0
 26 27  1  0
 26 28  1  0
 26 29  1  0
 29 30  2  0
 30 31  1  0
 30 32  1  0
 32 33  1  0
 32 34  2  0
 34 35  1  0
 35 36  1  0
 35 37  1  0
 35 38  1  0
 38 39  1  0
 38 40  1  0
 40 41  1  0
 40 42  1  0
 40 43  1  0
 43 44  1  0
 43 45  1  0
 43 46  1  0
 46 47  1  0
 47 48  1  0
 47 49  1  0
 47 50  1  0
 50 51  1  0
 50 52  1  0
 34 53  1  0
 53 54  1  0
 53 55  2  0
 55 56  1  0
 22  4  1  0
 55 29  1  0
 13  8  2  0
 50 38  1  0
M  CHG  4   9  -1  12  -1  14  -1  38   1
M  END
>  <UniqueID>  (77) 
73

>  <SMILES>  (77) 
C=c1/c(=C/c2[n-]c(=O)[n-]c2[O-])cc(C)n1CCc1ccc(C[NH+]2CCOCC2)cc1

>  <Energy>  (77) 
135.23394936194893

>  <Genealogy>  (77) 
C=c1c(=Cc2[n-]c(=O)[n-]c2[O-])cc(C)n1CCc1ccc(C[NH+]2CCOCC2)cc1 (protonated)
C=c1/c(=C/c2[n-]c(=O)[n-]c2[O-])cc(C)n1CCc1ccc(C[NH+]2CCOCC2)cc1 (cis-trans isomerization)
C=c1/c(=C/c2[n-]c(=O)[n-]c2[O-])cc(C)n1CCc1ccc(C[NH+]2CCOCC2)cc1 (3D coordinates assigned)
C=c1/c(=C/c2[n-]c(=O)[n-]c2[O-])cc(C)n1CCc1ccc(C[NH+]2CCOCC2)cc1 (nonaromatic ring conformer: 135.23394936194893 kcal/mol)

>  <smiles>  (77) 
C=c1c(=Cc2[nH]c(=O)[nH]c2O)cc(C)n1CCc1ccc(CN2CCOCC2)cc1

>  <score_type>  (77) 
oracle

>  <origin>  (77) 
adg

>  <m_score__min__energy>  (77) 
-15.699999999999999

>  <m_primary>  (77) 
energy

$$$$
77:0
     RDKit          3D

 47 49  0  0  0  0  0  0  0  0999 V2000
   54.0170   26.3300   46.3910 H   0  0  0  0  0  0  0  0  0  0  0  0
   54.8940   26.5670   45.9450 O   0  0  0  0  0  0  0  0  0  0  0  0
   56.0700   25.8990   46.2790 C   0  0  0  0  0  0  0  0  0  0  0  0
   56.0250   24.8450   47.1370 N   0  0  0  0  0  0  0  0  0  0  0  0
   57.1480   24.1590   47.4650 C   0  0  0  0  0  0  0  0  0  0  0  0
   57.0810   23.1890   48.2630 O   0  0  0  0  0  0  0  0  0  0  0  0
   58.3440   24.5150   46.9270 N   0  0  0  0  0  0  0  0  0  0  0  0
   58.4440   25.5610   46.0680 C   0  0  0  0  0  0  0  0  0  0  0  0
   59.5680   25.8590   45.5830 O   0  0  0  0  0  0  0  0  0  0  0  0
   57.3010   26.3040   45.7340 C   0  0  0  0  0  0  0  0  0  0  0  0
   57.3800   27.4140   44.7640 C   0  0  0  0  0  0  0  0  0  0  0  0
   57.3847   27.1503   43.6961 H   0  0  0  0  0  0  0  0  0  0  0  0
   57.4470   28.7250   45.0770 C   0  0  0  0  0  0  0  0  0  0  0  0
   56.8440   29.7450   44.3490 C   0  0  0  0  0  0  0  0  0  0  0  0
   56.0320   29.6010   43.1000 C   0  0  0  0  0  0  0  0  0  0  0  0
   54.9809   29.4146   43.3654 H   0  0  0  0  0  0  0  0  0  0  0  0
   56.1023   30.5256   42.5083 H   0  0  0  0  0  0  0  0  0  0  0  0
   56.4160   28.7569   42.5083 H   0  0  0  0  0  0  0  0  0  0  0  0
   57.0520   30.9280   44.9550 N   0  0  0  0  0  0  0  0  0  0  0  0
   57.7800   30.7130   46.0390 N   0  0  0  0  0  0  0  0  0  0  0  0
   58.2440   31.8100   46.8920 C   0  0  0  0  0  0  0  0  0  0  0  0
   57.3783   32.4001   47.2270 H   0  0  0  0  0  0  0  0  0  0  0  0
   58.7722   31.3890   47.7602 H   0  0  0  0  0  0  0  0  0  0  0  0
   59.2030   32.7160   46.1180 C   0  0  0  0  0  0  0  0  0  0  0  0
   60.2222   32.5806   46.5090 H   0  0  0  0  0  0  0  0  0  0  0  0
   59.1633   32.4446   45.0528 H   0  0  0  0  0  0  0  0  0  0  0  0
   58.8060   34.1600   46.2640 C   0  0  0  0  0  0  0  0  0  0  0  0
   57.9430   34.6360   45.4820 O   0  0  0  0  0  0  0  0  0  0  0  0
   59.3490   35.0000   47.2890 N   0  0  0  0  0  0  0  0  0  0  0  0
   59.7820   34.5350   48.6020 C   0  0  0  0  0  0  0  0  0  0  0  0
   59.6884   35.3535   49.3309 H   0  0  0  0  0  0  0  0  0  0  0  0
   59.1531   33.6902   48.9193 H   0  0  0  0  0  0  0  0  0  0  0  0
   61.2140   34.0940   48.5250 C   0  0  0  0  0  0  0  0  0  0  0  0
   61.9570   33.8830   49.6990 C   0  0  0  0  0  0  0  0  0  0  0  0
   61.4810   34.0194   50.6813 H   0  0  0  0  0  0  0  0  0  0  0  0
   63.3000   33.5000   49.6220 C   0  0  0  0  0  0  0  0  0  0  0  0
   64.0110   33.2900   50.7580 F   0  0  0  0  0  0  0  0  0  0  0  0
   63.9130   33.3370   48.3760 C   0  0  0  0  0  0  0  0  0  0  0  0
   64.9684   33.0326   48.3177 H   0  0  0  0  0  0  0  0  0  0  0  0
   63.1840   33.5610   47.2040 C   0  0  0  0  0  0  0  0  0  0  0  0
   63.7810   33.4110   45.9960 F   0  0  0  0  0  0  0  0  0  0  0  0
   61.8400   33.9410   47.2770 C   0  0  0  0  0  0  0  0  0  0  0  0
   61.2708   34.1208   46.3531 H   0  0  0  0  0  0  0  0  0  0  0  0
   58.0740   29.3920   46.1400 C   0  0  0  0  0  0  0  0  0  0  0  0
   58.9140   28.8790   47.0530 C   0  0  0  0  0  0  0  0  0  0  0  0
   59.3344   29.5249   47.8379 H   0  0  0  0  0  0  0  0  0  0  0  0
   59.1819   27.8128   47.0162 H   0  0  0  0  0  0  0  0  0  0  0  0
  1  2  1  0
  2  3  1  0
  3  4  1  0
  4  5  1  0
  5  6  2  0
  5  7  1  0
  7  8  1  0
  8  9  2  0
  8 10  1  0
 10 11  1  0
 11 12  1  0
 11 13  2  0
 13 14  1  0
 14 15  1  0
 15 16  1  0
 15 17  1  0
 15 18  1  0
 14 19  2  0
 19 20  1  0
 20 21  1  0
 21 22  1  0
 21 23  1  0
 21 24  1  0
 24 25  1  0
 24 26  1  0
 24 27  1  0
 27 28  2  0
 27 29  1  0
 29 30  1  0
 30 31  1  0
 30 32  1  0
 30 33  1  0
 33 34  2  0
 34 35  1  0
 34 36  1  0
 36 37  1  0
 36 38  2  0
 38 39  1  0
 38 40  1  0
 40 41  1  0
 40 42  2  0
 42 43  1  0
 20 44  1  0
 44 45  2  0
 45 46  1  0
 45 47  1  0
 10  3  2  0
 44 13  1  0
 42 33  1  0
M  CHG  3   4  -1   7  -1  29  -1
M  END
>  <UniqueID>  (78) 
74

>  <SMILES>  (78) 
C=c1/c(=C\c2c(O)[n-]c(=O)[n-]c2=O)c(C)nn1CCC(=O)[N-]Cc1cc(F)cc(F)c1

>  <Energy>  (78) 
88.42971904237919

>  <Genealogy>  (78) 
C=c1c(=Cc2c(O)[n-]c(=O)[n-]c2=O)c(C)nn1CCC(=O)[N-]Cc1cc(F)cc(F)c1 (protonated)
C=c1/c(=C\c2c(O)[n-]c(=O)[n-]c2=O)c(C)nn1CCC(=O)[N-]Cc1cc(F)cc(F)c1 (cis-trans isomerization)
C=c1/c(=C\c2c(O)[n-]c(=O)[n-]c2=O)c(C)nn1CCC(=O)[N-]Cc1cc(F)cc(F)c1 (3D coordinates assigned)
C=c1/c(=C\c2c(O)[n-]c(=O)[n-]c2=O)c(C)nn1CCC(=O)[N-]Cc1cc(F)cc(F)c1 (optimized conformer: 88.42971904237919 kcal/mol)

>  <smiles>  (78) 
C=c1c(=Cc2c(O)[nH]c(=O)[nH]c2=O)c(C)nn1CCC(=O)NCc1cc(F)cc(F)c1

>  <score_type>  (78) 
oracle

>  <origin>  (78) 
adg

>  <m_score__min__energy>  (78) 
-14.34

>  <m_primary>  (78) 
energy

$$$$
78:0
     RDKit          3D

 68 71  0  0  0  0  0  0  0  0999 V2000
   56.4130   30.4720   54.2710 C   0  0  0  0  0  0  0  0  0  0  0  0
   56.7000   30.4390   52.7990 C   0  0  0  0  0  0  0  0  0  0  0  0
   56.0060   29.6730   52.0750 O   0  0  0  0  0  0  0  0  0  0  0  0
   57.7230   31.2700   52.2010 N   0  0  0  0  0  0  0  0  0  0  0  0
   58.2880   30.8870   50.8930 C   0  0  0  0  0  0  0  0  0  0  0  0
   58.6470   32.1290   50.0740 C   0  0  0  0  0  0  0  0  0  0  0  0
   59.4310   33.0480   50.9050 N   0  0  0  0  0  0  0  0  0  0  0  0
   60.8440   33.2200   50.6900 C   0  0  0  0  0  0  0  0  0  0  0  0
   61.6280   33.2520   51.6780 O   0  0  0  0  0  0  0  0  0  0  0  0
   61.4100   33.3350   49.3250 C   0  0  0  0  0  0  0  0  0  0  0  0
   60.6550   34.0000   48.3430 C   0  0  0  0  0  0  0  0  0  0  0  0
   61.1460   34.1520   47.0400 C   0  0  0  0  0  0  0  0  0  0  0  0
   60.3390   34.8930   46.0090 C   0  0  0  0  0  0  0  0  0  0  0  0
   58.5620   34.9100   46.4320 S   0  0  0  0  0  0  0  0  0  0  0  0
   58.2400   33.2520   45.8360 C   0  0  0  0  0  0  0  0  0  0  0  0
   58.0070   32.1360   46.6260 C   0  0  0  0  0  0  0  0  0  0  0  0
   57.8140   30.9860   45.9300 N   0  0  0  0  0  0  0  0  0  0  0  0
   57.8970   31.1920   44.5950 C   0  0  0  0  0  0  0  0  0  0  0  0
   57.7130   30.2660   43.7020 N   0  0  0  0  0  0  0  0  0  0  0  0
   57.2070   28.9500   43.9720 C   0  0  0  0  0  0  0  0  0  0  0  0
   57.7450   27.9630   43.4070 O   0  0  0  0  0  0  0  0  0  0  0  0
   56.1120   28.7190   44.9290 C   0  0  0  0  0  0  0  0  0  0  0  0
   55.2660   29.6260   45.1520 O   0  0  0  0  0  0  0  0  0  0  0  0
   56.0210   27.4650   45.6160 N   0  0  0  0  0  0  0  0  0  0  0  0
   56.9390   27.0570   46.6730 C   0  0  0  0  0  0  0  0  0  0  0  0
   58.3580   26.8850   46.1210 C   0  0  0  0  0  0  0  0  0  0  0  0
   59.2260   28.0460   46.5260 C   0  0  0  0  0  0  0  0  0  0  0  0
   59.1290   28.5910   47.8150 C   0  0  0  0  0  0  0  0  0  0  0  0
   59.9130   29.6900   48.1700 C   0  0  0  0  0  0  0  0  0  0  0  0
   60.7830   30.2420   47.2280 C   0  0  0  0  0  0  0  0  0  0  0  0
   60.8610   29.7130   45.9750 N   0  0  0  0  0  0  0  0  0  0  0  0
   60.1030   28.6440   45.6060 C   0  0  0  0  0  0  0  0  0  0  0  0
   58.1930   32.8020   44.2150 S   0  0  0  0  0  0  0  0  0  0  0  0
   62.4100   33.6390   46.7170 C   0  0  0  0  0  0  0  0  0  0  0  0
   63.1640   32.9650   47.6760 C   0  0  0  0  0  0  0  0  0  0  0  0
   62.6700   32.7820   48.9780 C   0  0  0  0  0  0  0  0  0  0  0  0
   63.5050   32.0060   49.9620 C   0  0  0  0  0  0  0  0  0  0  0  0
   58.8080   33.4870   52.1540 C   0  0  0  0  0  0  0  0  0  0  0  0
   58.4550   32.2670   53.0060 C   0  0  0  0  0  0  0  0  0  0  0  0
   57.3539   30.3638   54.8305 H   0  0  0  0  0  0  0  0  0  0  0  0
   55.9399   31.4305   54.5309 H   0  0  0  0  0  0  0  0  0  0  0  0
   55.7347   29.6459   54.5309 H   0  0  0  0  0  0  0  0  0  0  0  0
   59.1951   30.2858   51.0536 H   0  0  0  0  0  0  0  0  0  0  0  0
   57.5365   30.3041   50.3403 H   0  0  0  0  0  0  0  0  0  0  0  0
   59.2392   31.8316   49.1960 H   0  0  0  0  0  0  0  0  0  0  0  0
   57.7258   32.6290   49.7403 H   0  0  0  0  0  0  0  0  0  0  0  0
   59.6659   34.4062   48.6013 H   0  0  0  0  0  0  0  0  0  0  0  0
   60.7017   35.9297   45.9491 H   0  0  0  0  0  0  0  0  0  0  0  0
   60.4583   34.3790   45.0438 H   0  0  0  0  0  0  0  0  0  0  0  0
   57.9807   32.1789   47.7248 H   0  0  0  0  0  0  0  0  0  0  0  0
   56.9483   27.8256   47.4599 H   0  0  0  0  0  0  0  0  0  0  0  0
   56.6001   26.0945   47.0838 H   0  0  0  0  0  0  0  0  0  0  0  0
   58.7902   25.9544   46.5174 H   0  0  0  0  0  0  0  0  0  0  0  0
   58.3097   26.8433   45.0229 H   0  0  0  0  0  0  0  0  0  0  0  0
   58.4346   28.1520   48.5465 H   0  0  0  0  0  0  0  0  0  0  0  0
   59.8460   30.1167   49.1816 H   0  0  0  0  0  0  0  0  0  0  0  0
   61.4072   31.1065   47.4982 H   0  0  0  0  0  0  0  0  0  0  0  0
   61.5150   30.1400   45.2810 H   0  0  0  0  0  0  0  0  0  0  0  0
   60.1777   28.2468   44.5829 H   0  0  0  0  0  0  0  0  0  0  0  0
   62.8092   33.7692   45.7003 H   0  0  0  0  0  0  0  0  0  0  0  0
   64.1565   32.5722   47.4104 H   0  0  0  0  0  0  0  0  0  0  0  0
   63.2119   32.2784   50.9866 H   0  0  0  0  0  0  0  0  0  0  0  0
   63.3451   30.9285   49.8091 H   0  0  0  0  0  0  0  0  0  0  0  0
   64.5679   32.2443   49.8091 H   0  0  0  0  0  0  0  0  0  0  0  0
   59.5090   34.1296   52.7069 H   0  0  0  0  0  0  0  0  0  0  0  0
   57.8920   34.0523   51.9271 H   0  0  0  0  0  0  0  0  0  0  0  0
   59.3806   31.8134   53.3901 H   0  0  0  0  0  0  0  0  0  0  0  0
   57.8160   32.5888   53.8415 H   0  0  0  0  0  0  0  0  0  0  0  0
  1  2  1  0
  2  3  2  0
  2  4  1  0
  4  5  1  0
  5  6  1  0
  6  7  1  0
  7  8  1  0
  8  9  2  0
  8 10  1  0
 10 11  2  0
 11 12  1  0
 12 13  1  0
 13 14  1  0
 14 15  1  0
 15 16  2  0
 16 17  1  0
 17 18  1  0
 18 19  2  3
 19 20  1  0
 20 21  2  0
 20 22  1  0
 22 23  2  0
 22 24  1  0
 24 25  1  0
 25 26  1  0
 26 27  1  0
 27 28  2  0
 28 29  1  0
 29 30  2  0
 30 31  1  0
 31 32  2  0
 18 33  1  0
 12 34  2  0
 34 35  1  0
 35 36  2  0
 36 37  1  0
  7 38  1  0
 38 39  1  0
 39  4  1  0
 36 10  1  0
 33 15  1  0
 32 27  1  0
  1 40  1  0
  1 41  1  0
  1 42  1  0
  5 43  1  0
  5 44  1  0
  6 45  1  0
  6 46  1  0
 11 47  1  0
 13 48  1  0
 13 49  1  0
 16 50  1  0
 25 51  1  0
 25 52  1  0
 26 53  1  0
 26 54  1  0
 28 55  1  0
 29 56  1  0
 30 57  1  0
 31 58  1  0
 32 59  1  0
 34 60  1  0
 35 61  1  0
 37 62  1  0
 37 63  1  0
 37 64  1  0
 38 65  1  0
 38 66  1  0
 39 67  1  0
 39 68  1  0
M  CHG  3  17  -1  24  -1  31   1
M  END
>  <UniqueID>  (79) 
75

>  <SMILES>  (79) 
CC(=O)N1CCN(C(=O)c2cc(CSc3c[n-]c(=NC(=O)C(=O)[N-]CCc4ccc[nH+]c4)s3)ccc2C)CC1

>  <Energy>  (79) 
103.2121591107859

>  <Genealogy>  (79) 
CC(=O)N1CCN(C(=O)c2cc(CSc3c[n-]c(=NC(=O)C(=O)[N-]CCc4ccc[nH+]c4)s3)ccc2C)CC1 (protonated)
CC(=O)N1CCN(C(=O)c2cc(CSc3c[n-]c(=NC(=O)C(=O)[N-]CCc4ccc[nH+]c4)s3)ccc2C)CC1 (3D coordinates assigned)
CC(=O)N1CCN(C(=O)c2cc(CSc3c[n-]c(=NC(=O)C(=O)[N-]CCc4ccc[nH+]c4)s3)ccc2C)CC1 (nonaromatic ring conformer: 103.2121591107859 kcal/mol)

>  <smiles>  (79) 
CC(=O)N1CCN(C(=O)c2cc(CSc3c[nH]c(=NC(=O)C(=O)NCCc4cccnc4)s3)ccc2C)CC1

>  <score_type>  (79) 
oracle

>  <origin>  (79) 
adg

>  <m_score__min__energy>  (79) 
-13.84

>  <m_primary>  (79) 
energy

$$$$
79:0
     RDKit          3D

 49 53  0  0  0  0  0  0  0  0999 V2000
   58.1340   24.9480   44.6210 C   0  0  0  0  0  0  0  0  0  0  0  0
   57.4490   25.0050   46.0070 C   0  0  0  0  0  0  0  0  0  0  0  0
   56.9000   23.6020   46.3380 C   0  0  0  0  0  0  0  0  0  0  0  0
   58.4630   25.4220   47.0970 C   0  0  0  0  0  0  0  0  0  0  0  0
   58.8670   26.8690   47.0000 C   0  0  0  0  0  0  0  0  0  0  0  0
   59.9100   27.2240   47.6080 O   0  0  0  0  0  0  0  0  0  0  0  0
   58.0010   27.8660   46.2950 C   0  0  0  0  0  0  0  0  0  0  0  0
   56.7440   27.4360   45.8170 C   0  0  0  0  0  0  0  0  0  0  0  0
   55.8950   28.3190   45.2330 N   0  0  0  0  0  0  0  0  0  0  0  0
   56.2100   29.6210   45.0490 C   0  0  0  0  0  0  0  0  0  0  0  0
   55.3740   30.3780   44.4860 O   0  0  0  0  0  0  0  0  0  0  0  0
   57.4600   30.1130   45.4620 C   0  0  0  0  0  0  0  0  0  0  0  0
   57.8000   31.5390   45.2180 C   0  0  0  0  0  0  0  0  0  0  0  0
   58.1560   31.9790   43.9320 C   0  0  0  0  0  0  0  0  0  0  0  0
   58.4890   33.3190   43.7130 C   0  0  0  0  0  0  0  0  0  0  0  0
   58.4580   34.2310   44.7710 C   0  0  0  0  0  0  0  0  0  0  0  0
   58.0890   33.8050   46.0500 C   0  0  0  0  0  0  0  0  0  0  0  0
   57.7580   32.4650   46.2740 C   0  0  0  0  0  0  0  0  0  0  0  0
   58.3750   29.2250   46.0820 C   0  0  0  0  0  0  0  0  0  0  0  0
   59.7030   29.7380   46.4810 C   0  0  0  0  0  0  0  0  0  0  0  0
   60.7870   29.5480   45.7830 N   0  0  0  0  0  0  0  0  0  0  0  0
   61.8570   30.0920   46.4750 O   0  0  0  0  0  0  0  0  0  0  0  0
   61.3280   30.9380   47.4690 C   0  0  2  0  0  0  0  0  0  0  0  0
   61.8940   31.2280   48.8050 C   0  0  0  0  0  0  0  0  0  0  0  0
   60.8320   31.4510   49.6060 C   0  0  0  0  0  0  0  0  0  0  0  0
   59.5220   31.0910   48.9160 C   0  0  0  0  0  0  0  0  0  0  0  0
   60.0930   30.1850   47.8440 C   0  0  1  0  0  0  0  0  0  0  0  0
   56.2780   26.0150   45.9960 C   0  0  0  0  0  0  0  0  0  0  0  0
   59.2223   24.8574   44.7533 H   0  0  0  0  0  0  0  0  0  0  0  0
   57.7589   24.0780   44.0621 H   0  0  0  0  0  0  0  0  0  0  0  0
   57.9079   25.8681   44.0621 H   0  0  0  0  0  0  0  0  0  0  0  0
   56.8506   23.4757   47.4296 H   0  0  0  0  0  0  0  0  0  0  0  0
   55.8926   23.4922   45.9102 H   0  0  0  0  0  0  0  0  0  0  0  0
   57.5653   22.8376   45.9102 H   0  0  0  0  0  0  0  0  0  0  0  0
   58.0079   25.2502   48.0836 H   0  0  0  0  0  0  0  0  0  0  0  0
   59.3698   24.8162   46.9528 H   0  0  0  0  0  0  0  0  0  0  0  0
   58.1728   31.2663   43.0942 H   0  0  0  0  0  0  0  0  0  0  0  0
   58.7759   33.6559   42.7059 H   0  0  0  0  0  0  0  0  0  0  0  0
   58.7240   35.2841   44.5974 H   0  0  0  0  0  0  0  0  0  0  0  0
   58.0589   34.5247   46.8814 H   0  0  0  0  0  0  0  0  0  0  0  0
   57.4635   32.1345   47.2810 H   0  0  0  0  0  0  0  0  0  0  0  0
   61.4021   31.9223   46.9836 H   0  0  0  0  0  0  0  0  0  0  0  0
   62.9572   31.2559   49.0858 H   0  0  0  0  0  0  0  0  0  0  0  0
   60.9028   31.8442   50.6309 H   0  0  0  0  0  0  0  0  0  0  0  0
   58.8301   30.5596   49.5860 H   0  0  0  0  0  0  0  0  0  0  0  0
   58.9140   31.9363   48.5613 H   0  0  0  0  0  0  0  0  0  0  0  0
   59.8745   29.2503   48.3812 H   0  0  0  0  0  0  0  0  0  0  0  0
   55.7373   25.9387   46.9509 H   0  0  0  0  0  0  0  0  0  0  0  0
   55.6295   25.7658   45.1431 H   0  0  0  0  0  0  0  0  0  0  0  0
  1  2  1  0
  2  3  1  0
  2  4  1  0
  4  5  1  0
  5  6  2  0
  5  7  1  0
  7  8  2  0
  8  9  1  0
  9 10  1  0
 10 11  2  0
 10 12  1  0
 12 13  1  0
 13 14  2  0
 14 15  1  0
 15 16  2  0
 16 17  1  0
 17 18  2  0
 12 19  2  0
 19 20  1  0
 20 21  2  0
 21 22  1  0
 22 23  1  0
 23 24  1  0
 24 25  2  0
 25 26  1  0
 26 27  1  0
  8 28  1  0
 28  2  1  0
 19  7  1  0
 27 20  1  0
 18 13  1  0
 27 23  1  0
  1 29  1  0
  1 30  1  0
  1 31  1  0
  3 32  1  0
  3 33  1  0
  3 34  1  0
  4 35  1  0
  4 36  1  0
 14 37  1  0
 15 38  1  0
 16 39  1  0
 17 40  1  0
 18 41  1  0
 23 42  1  6
 24 43  1  0
 25 44  1  0
 26 45  1  0
 26 46  1  0
 27 47  1  1
 28 48  1  0
 28 49  1  0
M  CHG  1   9  -1
M  END
>  <UniqueID>  (80) 
76

>  <SMILES>  (80) 
CC1(C)CC(=O)c2c([n-]c(=O)c(-c3ccccc3)c2C2=NO[C@@H]3C=CC[C@@H]23)C1

>  <Energy>  (80) 
150.04578908924336

>  <Genealogy>  (80) 
CC1(C)CC(=O)c2c([n-]c(=O)c(-c3ccccc3)c2C2=NOC3C=CCC23)C1 (protonated)
CC1(C)CC(=O)c2c([n-]c(=O)c(-c3ccccc3)c2C2=NO[C@@H]3C=CC[C@@H]23)C1 (chirality)
CC1(C)CC(=O)c2c([n-]c(=O)c(-c3ccccc3)c2C2=NO[C@@H]3C=CC[C@@H]23)C1 (3D coordinates assigned)
CC1(C)CC(=O)c2c([n-]c(=O)c(-c3ccccc3)c2C2=NO[C@@H]3C=CC[C@@H]23)C1 (nonaromatic ring conformer: 150.04578908924336 kcal/mol)

>  <smiles>  (80) 
CC1(C)CC(=O)c2c([nH]c(=O)c(-c3ccccc3)c2C2=NOC3C=CCC23)C1

>  <score_type>  (80) 
oracle

>  <origin>  (80) 
adg

>  <m_score__min__energy>  (80) 
-10.960000000000001

>  <m_primary>  (80) 
energy

$$$$
80:0
     RDKit          3D

 49 51  0  0  0  0  0  0  0  0999 V2000
   57.8350   27.6130   43.2970 C   0  0  0  0  0  0  0  0  0  0  0  0
   58.2590   28.0010   44.6910 C   0  0  0  0  0  0  0  0  0  0  0  0
   59.3390   27.3180   45.2740 C   0  0  0  0  0  0  0  0  0  0  0  0
   59.7980   27.6560   46.5450 C   0  0  0  0  0  0  0  0  0  0  0  0
   59.1860   28.6880   47.2720 C   0  0  0  0  0  0  0  0  0  0  0  0
   59.6840   29.0540   48.6190 C   0  0  0  0  0  0  0  0  0  0  0  0
   60.4020   28.2470   49.2710 O   0  0  0  0  0  0  0  0  0  0  0  0
   59.3470   30.3220   49.1900 N   0  0  0  0  0  0  0  0  0  0  0  0
   60.0870   30.9170   50.2950 C   0  0  0  0  0  0  0  0  0  0  0  0
   60.3210   32.4090   50.0410 C   0  0  0  0  0  0  0  0  0  0  0  0
   61.3890   32.6410   48.9910 C   0  0  0  0  0  0  0  0  0  0  0  0
   62.5250   31.8080   49.0110 C   0  0  0  0  0  0  0  0  0  0  0  0
   63.5260   31.9400   48.0490 C   0  0  0  0  0  0  0  0  0  0  0  0
   63.4140   32.9050   47.0530 C   0  0  0  0  0  0  0  0  0  0  0  0
   62.3030   33.7490   47.0190 C   0  0  0  0  0  0  0  0  0  0  0  0
   61.2790   33.6350   47.9790 C   0  0  0  0  0  0  0  0  0  0  0  0
   60.1140   34.6020   47.9000 C   0  0  0  0  0  0  0  0  0  0  0  0
   59.1120   34.1580   46.9240 N   0  0  0  0  0  0  0  0  0  0  0  0
   58.8930   34.6990   45.7060 C   0  0  0  0  0  0  0  0  0  0  0  0
   59.6410   35.7410   45.1700 O   0  0  0  0  0  0  0  0  0  0  0  0
   57.8280   34.0960   45.0720 C   0  0  0  0  0  0  0  0  0  0  0  0
   57.3480   33.1460   45.9520 C   0  0  0  0  0  0  0  0  0  0  0  0
   58.1460   33.2200   47.0760 C   0  0  0  0  0  0  0  0  0  0  0  0
   57.9540   32.4310   48.2110 O   0  0  0  0  0  0  0  0  0  0  0  0
   58.0960   29.3670   46.7020 C   0  0  0  0  0  0  0  0  0  0  0  0
   57.6100   29.0320   45.4230 C   0  0  0  0  0  0  0  0  0  0  0  0
   56.4340   29.7770   44.8970 C   0  0  0  0  0  0  0  0  0  0  0  0
   55.1480   29.1610   44.8730 N   0  0  0  0  0  0  0  0  0  0  0  0
   56.5590   30.9450   44.4420 O   0  0  0  0  0  0  0  0  0  0  0  0
   57.0246   26.8714   43.3533 H   0  0  0  0  0  0  0  0  0  0  0  0
   57.4792   28.5049   42.7604 H   0  0  0  0  0  0  0  0  0  0  0  0
   58.6919   27.1797   42.7604 H   0  0  0  0  0  0  0  0  0  0  0  0
   59.8293   26.5046   44.7190 H   0  0  0  0  0  0  0  0  0  0  0  0
   60.6468   27.1096   46.9820 H   0  0  0  0  0  0  0  0  0  0  0  0
   59.5115   30.7937   51.2243 H   0  0  0  0  0  0  0  0  0  0  0  0
   61.0611   30.4137   50.3832 H   0  0  0  0  0  0  0  0  0  0  0  0
   59.3799   32.8636   49.6980 H   0  0  0  0  0  0  0  0  0  0  0  0
   60.6615   32.8664   50.9816 H   0  0  0  0  0  0  0  0  0  0  0  0
   62.6237   31.0435   49.7957 H   0  0  0  0  0  0  0  0  0  0  0  0
   64.4056   31.2801   48.0777 H   0  0  0  0  0  0  0  0  0  0  0  0
   64.2019   33.0028   46.2916 H   0  0  0  0  0  0  0  0  0  0  0  0
   62.2262   34.5135   46.2318 H   0  0  0  0  0  0  0  0  0  0  0  0
   59.6410   34.6736   48.8905 H   0  0  0  0  0  0  0  0  0  0  0  0
   60.4991   35.5809   47.5784 H   0  0  0  0  0  0  0  0  0  0  0  0
   57.4393   34.3250   44.0688 H   0  0  0  0  0  0  0  0  0  0  0  0
   56.4989   32.4658   45.7896 H   0  0  0  0  0  0  0  0  0  0  0  0
   58.5480   31.6470   48.4420 H   0  0  0  0  0  0  0  0  0  0  0  0
   57.6118   30.1775   47.2665 H   0  0  0  0  0  0  0  0  0  0  0  0
   54.4440   29.3560   45.6200 H   0  0  0  0  0  0  0  0  0  0  0  0
  1  2  1  0
  2  3  2  0
  3  4  1  0
  4  5  2  0
  5  6  1  0
  6  7  2  0
  6  8  1  0
  8  9  1  0
  9 10  1  0
 10 11  1  0
 11 12  2  0
 12 13  1  0
 13 14  2  0
 14 15  1  0
 15 16  2  0
 16 17  1  0
 17 18  1  0
 18 19  1  0
 19 20  1  0
 19 21  2  0
 21 22  1  0
 22 23  2  0
 23 24  1  0
  5 25  1  0
 25 26  2  0
 26 27  1  0
 27 28  1  0
 27 29  2  0
 26  2  1  0
 16 11  1  0
 23 18  1  0
  1 30  1  0
  1 31  1  0
  1 32  1  0
  3 33  1  0
  4 34  1  0
  9 35  1  0
  9 36  1  0
 10 37  1  0
 10 38  1  0
 12 39  1  0
 13 40  1  0
 14 41  1  0
 15 42  1  0
 17 43  1  0
 17 44  1  0
 21 45  1  0
 22 46  1  0
 24 47  1  0
 25 48  1  0
 28 49  1  0
M  CHG  3   8  -1  20  -1  28  -1
M  END
>  <UniqueID>  (81) 
77

>  <SMILES>  (81) 
Cc1ccc(C(=O)[N-]CCc2ccccc2Cn2c([O-])ccc2O)cc1C([NH-])=O

>  <Energy>  (81) 
80.62231726984395

>  <Genealogy>  (81) 
Cc1ccc(C(=O)[N-]CCc2ccccc2Cn2c([O-])ccc2O)cc1C([NH-])=O (protonated)
Cc1ccc(C(=O)[N-]CCc2ccccc2Cn2c([O-])ccc2O)cc1C([NH-])=O (3D coordinates assigned)
Cc1ccc(C(=O)[N-]CCc2ccccc2Cn2c([O-])ccc2O)cc1C([NH-])=O (optimized conformer: 80.62231726984395 kcal/mol)

>  <smiles>  (81) 
Cc1ccc(C(=O)NCCc2ccccc2Cn2c(O)ccc2O)cc1C(N)=O

>  <score_type>  (81) 
oracle

>  <origin>  (81) 
adg

>  <m_score__min__energy>  (81) 
-15.57

>  <m_primary>  (81) 
energy

$$$$
81:0
     RDKit          3D

 66 70  0  0  0  0  0  0  0  0999 V2000
   56.7760   30.8720   42.6330 C   0  0  0  0  0  0  0  0  0  0  0  0
   56.8990   30.7120   44.0880 N   0  0  0  0  0  0  0  0  0  0  0  0
   56.4270   29.5080   44.7220 C   0  0  0  0  0  0  0  0  0  0  0  0
   55.1870   29.3260   44.8700 O   0  0  0  0  0  0  0  0  0  0  0  0
   57.3620   28.4800   45.2230 C   0  0  0  0  0  0  0  0  0  0  0  0
   57.5970   27.3140   44.4750 C   0  0  0  0  0  0  0  0  0  0  0  0
   58.5030   26.3530   44.9360 C   0  0  0  0  0  0  0  0  0  0  0  0
   59.1690   26.5400   46.1500 C   0  0  0  0  0  0  0  0  0  0  0  0
   58.9210   27.6860   46.9160 C   0  0  0  0  0  0  0  0  0  0  0  0
   59.5880   27.8650   48.1810 C   0  0  0  0  0  0  0  0  0  0  0  0
   60.1260   28.0140   49.1950 N   0  0  0  0  0  0  0  0  0  0  0  0
   58.0170   28.6540   46.4540 C   0  0  0  0  0  0  0  0  0  0  0  0
   57.6130   31.6950   44.8630 C   0  0  0  0  0  0  0  0  0  0  0  0
   57.0590   32.9600   45.1070 C   0  0  0  0  0  0  0  0  0  0  0  0
   57.7660   33.9150   45.8430 C   0  0  0  0  0  0  0  0  0  0  0  0
   59.0350   33.6190   46.3680 C   0  0  0  0  0  0  0  0  0  0  0  0
   59.7770   34.6780   47.1070 C   0  0  0  0  0  0  0  0  0  0  0  0
   59.6510   35.8690   46.7090 O   0  0  0  0  0  0  0  0  0  0  0  0
   60.6480   34.4170   48.2380 N   0  0  1  0  0  0  0  0  0  0  0  0
   59.9810   33.6830   49.3370 C   0  0  0  0  0  0  0  0  0  0  0  0
   60.8540   33.6750   50.6110 C   0  0  0  0  0  0  0  0  0  0  0  0
   62.3660   33.6940   50.2860 C   0  0  1  0  0  0  0  0  0  0  0  0
   63.1600   33.1040   51.3900 N   0  0  0  0  0  0  0  0  0  0  0  0
   62.5510   32.8320   52.6650 C   0  0  0  0  0  0  0  0  0  0  0  0
   61.6830   33.6060   53.1500 O   0  0  0  0  0  0  0  0  0  0  0  0
   62.9740   31.6120   53.4130 C   0  0  0  0  0  0  0  0  0  0  0  0
   64.4970   31.5730   53.5150 C   0  0  0  0  0  0  0  0  0  0  0  0
   65.1810   31.8990   52.2060 C   0  0  0  0  0  0  0  0  0  0  0  0
   66.5150   31.4980   52.0340 C   0  0  0  0  0  0  0  0  0  0  0  0
   67.2340   31.8910   50.9070 C   0  0  0  0  0  0  0  0  0  0  0  0
   66.6400   32.7190   49.9580 C   0  0  0  0  0  0  0  0  0  0  0  0
   65.3190   33.1400   50.1170 C   0  0  0  0  0  0  0  0  0  0  0  0
   64.5520   32.7110   51.2230 C   0  0  0  0  0  0  0  0  0  0  0  0
   62.6470   33.0280   48.9230 C   0  0  0  0  0  0  0  0  0  0  0  0
   61.9110   33.7750   47.7880 C   0  0  0  0  0  0  0  0  0  0  0  0
   59.5890   32.3500   46.1270 C   0  0  0  0  0  0  0  0  0  0  0  0
   58.8810   31.3960   45.3890 C   0  0  0  0  0  0  0  0  0  0  0  0
   56.1192   31.7264   42.4123 H   0  0  0  0  0  0  0  0  0  0  0  0
   57.7704   31.0521   42.1986 H   0  0  0  0  0  0  0  0  0  0  0  0
   56.3463   29.9573   42.1986 H   0  0  0  0  0  0  0  0  0  0  0  0
   57.0670   27.1564   43.5241 H   0  0  0  0  0  0  0  0  0  0  0  0
   58.6917   25.4473   44.3409 H   0  0  0  0  0  0  0  0  0  0  0  0
   59.8883   25.7869   46.5042 H   0  0  0  0  0  0  0  0  0  0  0  0
   57.8201   29.5524   47.0574 H   0  0  0  0  0  0  0  0  0  0  0  0
   56.0599   33.2026   44.7160 H   0  0  0  0  0  0  0  0  0  0  0  0
   57.3245   34.9081   46.0128 H   0  0  0  0  0  0  0  0  0  0  0  0
   60.8990   35.3600   48.6280 H   0  0  0  0  0  0  0  0  0  0  0  0
   59.8007   32.6456   49.0186 H   0  0  0  0  0  0  0  0  0  0  0  0
   59.0311   34.1874   49.5678 H   0  0  0  0  0  0  0  0  0  0  0  0
   60.6278   32.7670   51.1893 H   0  0  0  0  0  0  0  0  0  0  0  0
   60.6214   34.5845   51.1843 H   0  0  0  0  0  0  0  0  0  0  0  0
   62.6893   34.7417   50.1971 H   0  0  0  0  0  0  0  0  0  0  0  0
   62.5403   31.6341   54.4237 H   0  0  0  0  0  0  0  0  0  0  0  0
   62.6217   30.7170   52.8792 H   0  0  0  0  0  0  0  0  0  0  0  0
   64.8174   32.3052   54.2708 H   0  0  0  0  0  0  0  0  0  0  0  0
   64.7841   30.5479   53.7922 H   0  0  0  0  0  0  0  0  0  0  0  0
   66.9972   30.8678   52.7958 H   0  0  0  0  0  0  0  0  0  0  0  0
   68.2696   31.5476   50.7671 H   0  0  0  0  0  0  0  0  0  0  0  0
   67.2152   33.0430   49.0781 H   0  0  0  0  0  0  0  0  0  0  0  0
   64.8698   33.8137   49.3725 H   0  0  0  0  0  0  0  0  0  0  0  0
   62.3003   31.9845   48.9527 H   0  0  0  0  0  0  0  0  0  0  0  0
   63.7288   33.0653   48.7275 H   0  0  0  0  0  0  0  0  0  0  0  0
   61.6735   33.0550   46.9910 H   0  0  0  0  0  0  0  0  0  0  0  0
   62.5783   34.5746   47.4339 H   0  0  0  0  0  0  0  0  0  0  0  0
   60.5863   32.1055   46.5215 H   0  0  0  0  0  0  0  0  0  0  0  0
   59.3210   30.4023   45.2188 H   0  0  0  0  0  0  0  0  0  0  0  0
  1  2  1  0
  2  3  1  0
  3  4  2  0
  3  5  1  0
  5  6  2  0
  6  7  1  0
  7  8  2  0
  8  9  1  0
  9 10  1  0
 10 11  3  0
  9 12  2  0
  2 13  1  0
 13 14  2  0
 14 15  1  0
 15 16  2  0
 16 17  1  0
 17 18  2  0
 17 19  1  0
 19 20  1  0
 20 21  1  0
 21 22  1  0
 22 23  1  0
 23 24  1  0
 24 25  2  0
 24 26  1  0
 26 27  1  0
 27 28  1  0
 28 29  2  0
 29 30  1  0
 30 31  2  0
 31 32  1  0
 32 33  2  0
 22 34  1  0
 34 35  1  0
 16 36  1  0
 36 37  2  0
 12  5  1  0
 37 13  1  0
 35 19  1  0
 33 23  1  0
 33 28  1  0
  1 38  1  0
  1 39  1  0
  1 40  1  0
  6 41  1  0
  7 42  1  0
  8 43  1  0
 12 44  1  0
 14 45  1  0
 15 46  1  0
 19 47  1  1
 20 48  1  0
 20 49  1  0
 21 50  1  0
 21 51  1  0
 22 52  1  6
 26 53  1  0
 26 54  1  0
 27 55  1  0
 27 56  1  0
 29 57  1  0
 30 58  1  0
 31 59  1  0
 32 60  1  0
 34 61  1  0
 34 62  1  0
 35 63  1  0
 35 64  1  0
 36 65  1  0
 37 66  1  0
M  CHG  1  19   1
M  END
>  <UniqueID>  (82) 
78

>  <SMILES>  (82) 
CN(C(=O)c1cccc(C#N)c1)c1ccc(C(=O)[NH+]2CCC(N3C(=O)CCc4ccccc43)CC2)cc1

>  <Energy>  (82) 
105.81417504079596

>  <Genealogy>  (82) 
CN(C(=O)c1cccc(C#N)c1)c1ccc(C(=O)[NH+]2CCC(N3C(=O)CCc4ccccc43)CC2)cc1 (protonated)
CN(C(=O)c1cccc(C#N)c1)c1ccc(C(=O)[NH+]2CCC(N3C(=O)CCc4ccccc43)CC2)cc1 (3D coordinates assigned)
CN(C(=O)c1cccc(C#N)c1)c1ccc(C(=O)[NH+]2CCC(N3C(=O)CCc4ccccc43)CC2)cc1 (nonaromatic ring conformer: 105.81417504079596 kcal/mol)

>  <smiles>  (82) 
CN(C(=O)c1cccc(C#N)c1)c1ccc(C(=O)N2CCC(N3C(=O)CCc4ccccc43)CC2)cc1

>  <score_type>  (82) 
oracle

>  <origin>  (82) 
adg

>  <m_score__min__energy>  (82) 
-8.8699999999999992

>  <m_primary>  (82) 
energy

$$$$
82:0
     RDKit          3D

 74 78  0  0  0  0  0  0  0  0999 V2000
   58.1980   34.2530   44.4980 C   0  0  0  0  0  0  0  0  0  0  0  0
   57.9670   32.7740   44.3300 C   0  0  0  0  0  0  0  0  0  0  0  0
   57.4450   32.3160   43.1080 C   0  0  0  0  0  0  0  0  0  0  0  0
   57.2070   30.9600   42.8960 C   0  0  0  0  0  0  0  0  0  0  0  0
   57.4920   30.0230   43.8940 C   0  0  0  0  0  0  0  0  0  0  0  0
   57.2190   28.6310   43.6510 N   0  0  0  0  0  0  0  0  0  0  0  0
   58.1960   27.5820   43.7420 C   0  0  0  0  0  0  0  0  0  0  0  0
   59.4260   27.8520   43.8090 O   0  0  0  0  0  0  0  0  0  0  0  0
   57.7660   26.1490   43.6490 C   0  0  0  0  0  0  0  0  0  0  0  0
   57.3360   25.6330   45.0240 C   0  0  0  0  0  0  0  0  0  0  0  0
   58.0570   26.3590   46.1160 C   0  0  0  0  0  0  0  0  0  0  0  0
   57.5560   27.4720   46.7130 N   0  0  0  0  0  0  0  0  0  0  0  0
   58.5130   27.7790   47.6010 C   0  0  0  0  0  0  0  0  0  0  0  0
   58.5310   28.8410   48.5000 C   0  0  0  0  0  0  0  0  0  0  0  0
   59.6590   28.9740   49.3400 C   0  0  0  0  0  0  0  0  0  0  0  0
   59.7250   30.2840   50.5160 S   0  0  0  0  0  0  0  0  0  0  0  0
   59.3430   31.5800   49.8520 O   0  0  0  0  0  0  0  0  0  0  0  0
   58.7370   30.0010   51.6120 O   0  0  0  0  0  0  0  0  0  0  0  0
   61.3330   30.4040   51.1910 N   0  0  0  0  0  0  0  0  0  0  0  0
   62.3130   30.6660   50.1110 C   0  0  0  0  0  0  0  0  0  0  0  0
   63.6310   31.2120   50.6680 C   0  0  0  0  0  0  0  0  0  0  0  0
   63.4200   32.5670   51.3890 C   0  0  0  0  0  0  0  0  0  0  0  0
   63.8100   33.7470   50.4880 C   0  0  0  0  0  0  0  0  0  0  0  0
   61.9700   32.7350   51.8970 C   0  0  0  0  0  0  0  0  0  0  0  0
   61.3710   31.3830   52.3070 C   0  0  0  0  0  0  0  0  0  0  0  0
   60.7200   28.0390   49.2520 C   0  0  0  0  0  0  0  0  0  0  0  0
   60.6610   26.9750   48.3320 C   0  0  0  0  0  0  0  0  0  0  0  0
   59.5330   26.8820   47.5220 C   0  0  0  0  0  0  0  0  0  0  0  0
   59.2700   25.9610   46.5840 N   0  0  0  0  0  0  0  0  0  0  0  0
   57.9830   30.4730   45.1310 C   0  0  0  0  0  0  0  0  0  0  0  0
   58.2260   31.8360   45.3630 C   0  0  0  0  0  0  0  0  0  0  0  0
   58.8900   32.2740   46.9540 S   0  0  0  0  0  0  0  0  0  0  0  0
   57.8200   32.3590   48.0040 O   0  0  0  0  0  0  0  0  0  0  0  0
   59.8490   31.1920   47.3640 O   0  0  0  0  0  0  0  0  0  0  0  0
   59.7590   33.7920   46.8270 N   0  0  0  0  0  0  0  0  0  0  0  0
   59.7030   34.5860   48.0740 C   0  0  0  0  0  0  0  0  0  0  0  0
   60.9360   34.3780   48.9730 C   0  0  0  0  0  0  0  0  0  0  0  0
   61.5010   33.1060   48.7550 O   0  0  0  0  0  0  0  0  0  0  0  0
   62.0740   33.0470   47.4620 C   0  0  0  0  0  0  0  0  0  0  0  0
   61.1400   33.5920   46.3540 C   0  0  0  0  0  0  0  0  0  0  0  0
   58.2364   34.4987   45.5695 H   0  0  0  0  0  0  0  0  0  0  0  0
   59.1505   34.5316   44.0236 H   0  0  0  0  0  0  0  0  0  0  0  0
   57.3758   34.8088   44.0236 H   0  0  0  0  0  0  0  0  0  0  0  0
   57.2215   33.0378   42.3086 H   0  0  0  0  0  0  0  0  0  0  0  0
   56.7911   30.6233   41.9349 H   0  0  0  0  0  0  0  0  0  0  0  0
   56.2590   28.3710   43.3280 H   0  0  0  0  0  0  0  0  0  0  0  0
   56.9201   26.0686   42.9505 H   0  0  0  0  0  0  0  0  0  0  0  0
   58.6113   25.5445   43.2884 H   0  0  0  0  0  0  0  0  0  0  0  0
   56.2533   25.7859   45.1436 H   0  0  0  0  0  0  0  0  0  0  0  0
   57.5825   24.5631   45.0908 H   0  0  0  0  0  0  0  0  0  0  0  0
   57.6946   29.5533   48.5548 H   0  0  0  0  0  0  0  0  0  0  0  0
   62.5136   29.7266   49.5750 H   0  0  0  0  0  0  0  0  0  0  0  0
   61.8861   31.4204   49.4338 H   0  0  0  0  0  0  0  0  0  0  0  0
   64.0455   30.4864   51.3833 H   0  0  0  0  0  0  0  0  0  0  0  0
   64.3235   31.3701   49.8281 H   0  0  0  0  0  0  0  0  0  0  0  0
   64.0840   32.5636   52.2660 H   0  0  0  0  0  0  0  0  0  0  0  0
   64.0942   34.6068   51.1124 H   0  0  0  0  0  0  0  0  0  0  0  0
   64.6604   33.4580   49.8530 H   0  0  0  0  0  0  0  0  0  0  0  0
   62.9549   34.0217   49.8530 H   0  0  0  0  0  0  0  0  0  0  0  0
   61.9694   33.4075   52.7675 H   0  0  0  0  0  0  0  0  0  0  0  0
   61.3604   33.1564   51.0841 H   0  0  0  0  0  0  0  0  0  0  0  0
   61.9789   30.9627   53.1217 H   0  0  0  0  0  0  0  0  0  0  0  0
   60.3327   31.5644   52.6216 H   0  0  0  0  0  0  0  0  0  0  0  0
   61.5968   28.1453   49.9077 H   0  0  0  0  0  0  0  0  0  0  0  0
   61.4781   26.2425   48.2560 H   0  0  0  0  0  0  0  0  0  0  0  0
   58.1804   29.7448   45.9315 H   0  0  0  0  0  0  0  0  0  0  0  0
   59.6377   35.6516   47.8089 H   0  0  0  0  0  0  0  0  0  0  0  0
   58.8216   34.2500   48.6399 H   0  0  0  0  0  0  0  0  0  0  0  0
   61.6850   35.1502   48.7434 H   0  0  0  0  0  0  0  0  0  0  0  0
   60.6235   34.4511   50.0251 H   0  0  0  0  0  0  0  0  0  0  0  0
   62.9994   33.6416   47.4625 H   0  0  0  0  0  0  0  0  0  0  0  0
   62.2632   31.9870   47.2370 H   0  0  0  0  0  0  0  0  0  0  0  0
   61.5354   34.5563   46.0023 H   0  0  0  0  0  0  0  0  0  0  0  0
   61.1113   32.8470   45.5452 H   0  0  0  0  0  0  0  0  0  0  0  0
  1  2  1  0
  2  3  2  0
  3  4  1  0
  4  5  2  0
  5  6  1  0
  6  7  1  0
  7  8  2  0
  7  9  1  0
  9 10  1  0
 10 11  1  0
 11 12  2  0
 12 13  1  0
 13 14  2  0
 14 15  1  0
 15 16  1  0
 16 17  2  0
 16 18  2  0
 16 19  1  0
 19 20  1  0
 20 21  1  0
 21 22  1  0
 22 23  1  0
 22 24  1  0
 24 25  1  0
 15 26  2  0
 26 27  1  0
 27 28  2  0
 28 29  1  0
  5 30  1  0
 30 31  2  0
 31 32  1  0
 32 33  2  0
 32 34  2  0
 32 35  1  0
 35 36  1  0
 36 37  1  0
 37 38  1  0
 38 39  1  0
 39 40  1  0
 31  2  1  0
 40 35  1  0
 29 11  1  0
 28 13  1  0
 25 19  1  0
  1 41  1  0
  1 42  1  0
  1 43  1  0
  3 44  1  0
  4 45  1  0
  6 46  1  0
  9 47  1  0
  9 48  1  0
 10 49  1  0
 10 50  1  0
 14 51  1  0
 20 52  1  0
 20 53  1  0
 21 54  1  0
 21 55  1  0
 22 56  1  0
 23 57  1  0
 23 58  1  0
 23 59  1  0
 24 60  1  0
 24 61  1  0
 25 62  1  0
 25 63  1  0
 26 64  1  0
 27 65  1  0
 30 66  1  0
 36 67  1  0
 36 68  1  0
 37 69  1  0
 37 70  1  0
 39 71  1  0
 39 72  1  0
 40 73  1  0
 40 74  1  0
M  CHG  1  29  -1
M  END
>  <UniqueID>  (83) 
79

>  <SMILES>  (83) 
Cc1ccc(NC(=O)CCc2nc3cc(S(=O)(=O)N4CCC(C)CC4)ccc3[n-]2)cc1S(=O)(=O)N1CCOCC1

>  <Energy>  (83) 
129.02522439576822

>  <Genealogy>  (83) 
Cc1ccc(NC(=O)CCc2nc3cc(S(=O)(=O)N4CCC(C)CC4)ccc3[n-]2)cc1S(=O)(=O)N1CCOCC1 (protonated)
Cc1ccc(NC(=O)CCc2nc3cc(S(=O)(=O)N4CCC(C)CC4)ccc3[n-]2)cc1S(=O)(=O)N1CCOCC1 (3D coordinates assigned)
Cc1ccc(NC(=O)CCc2nc3cc(S(=O)(=O)N4CCC(C)CC4)ccc3[n-]2)cc1S(=O)(=O)N1CCOCC1 (nonaromatic ring conformer: 129.02522439576822 kcal/mol)

>  <smiles>  (83) 
Cc1ccc(NC(=O)CCc2nc3cc(S(=O)(=O)N4CCC(C)CC4)ccc3[nH]2)cc1S(=O)(=O)N1CCOCC1

>  <score_type>  (83) 
oracle

>  <origin>  (83) 
adg

>  <m_score__min__energy>  (83) 
-12.130000000000001

>  <m_primary>  (83) 
energy

$$$$
83:0
     RDKit          3D

 47 50  0  0  1  0  0  0  0  0999 V2000
   56.4720   27.0690   46.2080 O   0  0  0  0  0  0  0  0  0  0  0  0
   57.3880   27.8580   45.3100 S   0  0  0  0  0  0  0  0  0  0  0  0
   58.0120   26.8430   44.3570 O   0  0  0  0  0  0  0  0  0  0  0  0
   56.5060   28.9640   44.3680 N   0  0  0  0  0  0  0  0  0  0  0  0
   56.9310   30.2140   43.9030 C   0  0  0  0  0  0  0  0  0  0  0  0
   56.9350   30.6630   42.6210 C   0  0  0  0  0  0  0  0  0  0  0  0
   57.3880   31.9210   42.2430 C   0  0  0  0  0  0  0  0  0  0  0  0
   57.8640   32.7700   43.2200 C   0  0  0  0  0  0  0  0  0  0  0  0
   57.8800   32.3600   44.5280 C   0  0  0  0  0  0  0  0  0  0  0  0
   58.3820   33.2450   45.5980 C   0  0  0  0  0  0  0  0  0  0  0  0
   58.9660   32.7830   46.7760 C   0  0  0  0  0  0  0  0  0  0  0  0
   59.2840   33.9310   47.4790 C   0  0  0  0  0  0  0  0  0  0  0  0
   59.8460   34.0400   48.6350 N   0  0  0  0  0  0  0  0  0  0  0  0
   61.2440   33.7920   48.7270 C   0  0  0  0  0  0  0  0  0  0  0  0
   62.0360   33.5270   47.6270 C   0  0  0  0  0  0  0  0  0  0  0  0
   63.3910   33.2980   47.8140 C   0  0  0  0  0  0  0  0  0  0  0  0
   63.9710   33.3290   49.0790 C   0  0  0  0  0  0  0  0  0  0  0  0
   65.3390   33.0960   49.2590 O   0  0  0  0  0  0  0  0  0  0  0  0
   63.1660   33.5980   50.1920 C   0  0  0  0  0  0  0  0  0  0  0  0
   61.8160   33.8250   49.9950 C   0  0  0  0  0  0  0  0  0  0  0  0
   58.9120   35.0180   46.7620 N   0  0  0  0  0  0  0  0  0  0  0  0
   58.3660   34.5970   45.6230 N   0  0  0  0  0  0  0  0  0  0  0  0
   57.4220   31.1040   44.8730 C   0  0  0  0  0  0  0  0  0  0  0  0
   58.5980   28.6390   46.2640 C   0  0  0  0  0  0  0  0  0  0  0  0
   59.7580   29.0610   45.6050 C   0  0  0  0  0  0  0  0  0  0  0  0
   60.7640   29.7130   46.3050 C   0  0  0  0  0  0  0  0  0  0  0  0
   60.6650   29.9670   47.6520 C   0  0  0  0  0  0  0  0  0  0  0  0
   61.6090   30.5940   48.3790 F   0  0  0  0  0  0  0  0  0  0  0  0
   59.5090   29.5460   48.3060 C   0  0  0  0  0  0  0  0  0  0  0  0
   58.5240   28.9020   47.5970 C   0  0  0  0  0  0  0  0  0  0  0  0
   55.5190   28.6840   44.0950 H   0  0  0  0  0  0  0  0  0  0  0  0
   56.5575   29.9913   41.8360 H   0  0  0  0  0  0  0  0  0  0  0  0
   57.3674   32.2327   41.1883 H   0  0  0  0  0  0  0  0  0  0  0  0
   58.2293   33.7720   42.9508 H   0  0  0  0  0  0  0  0  0  0  0  0
   59.1360   31.7393   47.0789 H   0  0  0  0  0  0  0  0  0  0  0  0
   61.5988   33.4980   46.6180 H   0  0  0  0  0  0  0  0  0  0  0  0
   64.0240   33.0863   46.9397 H   0  0  0  0  0  0  0  0  0  0  0  0
   65.9870   33.0570   48.4720 H   0  0  0  0  0  0  0  0  0  0  0  0
   63.5984   33.6282   51.2030 H   0  0  0  0  0  0  0  0  0  0  0  0
   61.1769   34.0375   50.8647 H   0  0  0  0  0  0  0  0  0  0  0  0
   59.0090   36.0320   47.0060 H   0  0  0  0  0  0  0  0  0  0  0  0
   57.9870   35.2330   44.8730 H   0  0  0  0  0  0  0  0  0  0  0  0
   57.4419   30.7940   45.9282 H   0  0  0  0  0  0  0  0  0  0  0  0
   59.8733   28.8752   44.5270 H   0  0  0  0  0  0  0  0  0  0  0  0
   61.6668   30.0358   45.7658 H   0  0  0  0  0  0  0  0  0  0  0  0
   59.3857   29.7282   49.3838 H   0  0  0  0  0  0  0  0  0  0  0  0
   57.6225   28.5800   48.1389 H   0  0  0  0  0  0  0  0  0  0  0  0
  1  2  2  0
  2  3  2  0
  2  4  1  0
  4  5  1  0
  5  6  2  0
  6  7  1  0
  7  8  2  0
  8  9  1  0
  9 10  1  0
 10 11  2  0
 11 12  1  0
 12 13  2  0
 13 14  1  0
 14 15  2  0
 15 16  1  0
 16 17  2  0
 17 18  1  0
 17 19  1  0
 19 20  2  0
 12 21  1  0
 21 22  1  0
  9 23  2  0
  2 24  1  0
 24 25  2  0
 25 26  1  0
 26 27  2  0
 27 28  1  0
 27 29  1  0
 29 30  2  0
 23  5  1  0
 30 24  1  0
 22 10  1  0
 20 14  1  0
  4 31  1  0
  6 32  1  0
  7 33  1  0
  8 34  1  0
 11 35  1  0
 15 36  1  0
 16 37  1  0
 18 38  1  0
 19 39  1  0
 20 40  1  0
 21 41  1  0
 22 42  1  0
 23 43  1  0
 25 44  1  0
 26 45  1  0
 29 46  1  0
 30 47  1  0
M  END
>  <smiles>  (84) 
O=S(=O)(Nc1cccc(-c2cc(=Nc3ccc(O)cc3)[nH][nH]2)c1)c1ccc(F)cc1

>  <score_type>  (84) 
oracle

>  <origin>  (84) 
adg

>  <m_score__min__energy>  (84) 
-10.27

>  <m_primary>  (84) 
energy

$$$$
84:0
     RDKit          3D

 57 60  0  0  0  0  0  0  0  0999 V2000
   58.1130   27.9780   48.2320 O   0  0  0  0  0  0  0  0  0  0  0  0
   58.9900   27.3350   47.5930 C   0  0  0  0  0  0  0  0  0  0  0  0
   58.7550   26.9490   46.1590 C   0  0  0  0  0  0  0  0  0  0  0  0
   57.6460   27.7890   45.5670 C   0  0  0  0  0  0  0  0  0  0  0  0
   56.2650   27.5440   45.6060 C   0  0  0  0  0  0  0  0  0  0  0  0
   55.5990   26.3490   46.1540 C   0  0  0  0  0  0  0  0  0  0  0  0
   56.2450   25.4720   46.7820 O   0  0  0  0  0  0  0  0  0  0  0  0
   54.2380   26.1680   45.9440 O   0  0  0  0  0  0  0  0  0  0  0  0
   55.5660   28.5740   45.0770 N   0  0  0  0  0  0  0  0  0  0  0  0
   56.4920   29.4730   44.7120 C   0  0  0  0  0  0  0  0  0  0  0  0
   56.2590   30.7190   44.1410 C   0  0  0  0  0  0  0  0  0  0  0  0
   57.3690   31.5440   43.8660 C   0  0  0  0  0  0  0  0  0  0  0  0
   58.6760   31.1040   44.1640 C   0  0  0  0  0  0  0  0  0  0  0  0
   58.8870   29.8380   44.7400 C   0  0  0  0  0  0  0  0  0  0  0  0
   57.7670   29.0420   44.9960 C   0  0  0  0  0  0  0  0  0  0  0  0
   60.1950   26.9490   48.2510 N   0  0  0  0  0  0  0  0  0  0  0  0
   61.0370   27.9270   48.9310 C   0  0  0  0  0  0  0  0  0  0  0  0
   60.6220   29.3220   48.5590 C   0  0  0  0  0  0  0  0  0  0  0  0
   61.2070   29.9210   47.6220 O   0  0  0  0  0  0  0  0  0  0  0  0
   59.4980   29.9210   49.2170 N   0  0  0  0  0  0  0  0  0  0  0  0
   59.3260   31.3690   49.3140 C   0  0  0  0  0  0  0  0  0  0  0  0
   60.4360   32.0120   50.1590 C   0  0  0  0  0  0  0  0  0  0  0  0
   61.5750   32.4700   49.2740 C   0  0  0  0  0  0  0  0  0  0  0  0
   62.7590   31.7090   49.2730 C   0  0  0  0  0  0  0  0  0  0  0  0
   63.8280   32.0450   48.4370 C   0  0  0  0  0  0  0  0  0  0  0  0
   63.7330   33.1550   47.5960 C   0  0  0  0  0  0  0  0  0  0  0  0
   62.5740   33.9290   47.5920 C   0  0  0  0  0  0  0  0  0  0  0  0
   61.4900   33.6110   48.4240 C   0  0  0  0  0  0  0  0  0  0  0  0
   60.3270   34.3950   48.2980 O   0  0  0  0  0  0  0  0  0  0  0  0
   59.4280   34.3400   47.2210 C   0  0  0  0  0  0  0  0  0  0  0  0
   58.1770   33.7070   47.3270 C   0  0  0  0  0  0  0  0  0  0  0  0
   57.3070   33.6820   46.2300 C   0  0  0  0  0  0  0  0  0  0  0  0
   57.6650   34.3210   45.0340 C   0  0  0  0  0  0  0  0  0  0  0  0
   58.9130   34.9490   44.9270 C   0  0  0  0  0  0  0  0  0  0  0  0
   59.7820   34.9700   46.0230 C   0  0  0  0  0  0  0  0  0  0  0  0
   59.6787   27.1091   45.5836 H   0  0  0  0  0  0  0  0  0  0  0  0
   58.4644   25.8890   46.1157 H   0  0  0  0  0  0  0  0  0  0  0  0
   55.2365   31.0522   43.9100 H   0  0  0  0  0  0  0  0  0  0  0  0
   57.2151   32.5362   43.4166 H   0  0  0  0  0  0  0  0  0  0  0  0
   59.5352   31.7548   43.9446 H   0  0  0  0  0  0  0  0  0  0  0  0
   59.9008   29.4859   44.9812 H   0  0  0  0  0  0  0  0  0  0  0  0
   60.9378   27.7970   50.0188 H   0  0  0  0  0  0  0  0  0  0  0  0
   62.0825   27.7719   48.6262 H   0  0  0  0  0  0  0  0  0  0  0  0
   58.8810   29.3170   49.8010 H   0  0  0  0  0  0  0  0  0  0  0  0
   59.3513   31.8006   48.3025 H   0  0  0  0  0  0  0  0  0  0  0  0
   58.3606   31.5702   49.8014 H   0  0  0  0  0  0  0  0  0  0  0  0
   60.0252   32.8783   50.6982 H   0  0  0  0  0  0  0  0  0  0  0  0
   60.8168   31.2675   50.8737 H   0  0  0  0  0  0  0  0  0  0  0  0
   62.8444   30.8379   49.9392 H   0  0  0  0  0  0  0  0  0  0  0  0
   64.7434   31.4350   48.4420 H   0  0  0  0  0  0  0  0  0  0  0  0
   64.5729   33.4188   46.9364 H   0  0  0  0  0  0  0  0  0  0  0  0
   62.5081   34.8024   46.9265 H   0  0  0  0  0  0  0  0  0  0  0  0
   57.8812   33.2306   48.2733 H   0  0  0  0  0  0  0  0  0  0  0  0
   56.3415   33.1605   46.3064 H   0  0  0  0  0  0  0  0  0  0  0  0
   56.9684   34.3292   44.1828 H   0  0  0  0  0  0  0  0  0  0  0  0
   59.2095   35.4256   43.9810 H   0  0  0  0  0  0  0  0  0  0  0  0
   60.7504   35.4854   45.9424 H   0  0  0  0  0  0  0  0  0  0  0  0
  1  2  2  0
  2  3  1  0
  3  4  1  0
  4  5  2  0
  5  6  1  0
  6  7  2  0
  6  8  1  0
  5  9  1  0
  9 10  1  0
 10 11  2  0
 11 12  1  0
 12 13  2  0
 13 14  1  0
 14 15  2  0
  2 16  1  0
 16 17  1  0
 17 18  1  0
 18 19  2  0
 18 20  1  0
 20 21  1  0
 21 22  1  0
 22 23  1  0
 23 24  2  0
 24 25  1  0
 25 26  2  0
 26 27  1  0
 27 28  2  0
 28 29  1  0
 29 30  1  0
 30 31  2  0
 31 32  1  0
 32 33  2  0
 33 34  1  0
 34 35  2  0
 15  4  1  0
 28 23  1  0
 35 30  1  0
 15 10  1  0
  3 36  1  0
  3 37  1  0
 11 38  1  0
 12 39  1  0
 13 40  1  0
 14 41  1  0
 17 42  1  0
 17 43  1  0
 20 44  1  0
 21 45  1  0
 21 46  1  0
 22 47  1  0
 22 48  1  0
 24 49  1  0
 25 50  1  0
 26 51  1  0
 27 52  1  0
 31 53  1  0
 32 54  1  0
 33 55  1  0
 34 56  1  0
 35 57  1  0
M  CHG  3   8  -1   9  -1  16  -1
M  END
>  <UniqueID>  (85) 
80

>  <SMILES>  (85) 
O=C(Cc1c(C(=O)[O-])[n-]c2ccccc12)[N-]CC(=O)NCCc1ccccc1Oc1ccccc1

>  <Energy>  (85) 
106.14601249574694

>  <Genealogy>  (85) 
O=C(Cc1c(C(=O)[O-])[n-]c2ccccc12)[N-]CC(=O)NCCc1ccccc1Oc1ccccc1 (protonated)
O=C(Cc1c(C(=O)[O-])[n-]c2ccccc12)[N-]CC(=O)NCCc1ccccc1Oc1ccccc1 (3D coordinates assigned)
O=C(Cc1c(C(=O)[O-])[n-]c2ccccc12)[N-]CC(=O)NCCc1ccccc1Oc1ccccc1 (optimized conformer: 106.14601249574694 kcal/mol)

>  <smiles>  (85) 
O=C(CNC(=O)Cc1c(C(=O)O)[nH]c2ccccc12)NCCc1ccccc1Oc1ccccc1

>  <score_type>  (85) 
oracle

>  <origin>  (85) 
adg

>  <m_score__min__energy>  (85) 
-16.82

>  <m_primary>  (85) 
energy

$$$$
85:0
     RDKit          3D

 44 46  0  0  0  0  0  0  0  0999 V2000
   60.3810   25.6620   46.2970 C   0  0  0  0  0  0  0  0  0  0  0  0
   58.9040   25.9500   46.2680 C   0  0  0  0  0  0  0  0  0  0  0  0
   58.0120   24.8970   46.0010 C   0  0  0  0  0  0  0  0  0  0  0  0
   56.6380   25.1340   45.9150 C   0  0  0  0  0  0  0  0  0  0  0  0
   56.1390   26.4260   46.0950 C   0  0  0  0  0  0  0  0  0  0  0  0
   54.7730   26.6640   45.9940 O   0  0  0  0  0  0  0  0  0  0  0  0
   57.0120   27.4790   46.3810 C   0  0  0  0  0  0  0  0  0  0  0  0
   58.3870   27.2480   46.5030 C   0  0  0  0  0  0  0  0  0  0  0  0
   59.2380   28.3590   46.8130 N   0  0  0  0  0  0  0  0  0  0  0  0
   59.2400   29.5950   46.0900 C   0  0  0  0  0  0  0  0  0  0  0  0
   59.4320   29.6030   44.8460 O   0  0  0  0  0  0  0  0  0  0  0  0
   58.9940   30.8340   46.7630 N   0  0  0  0  0  0  0  0  0  0  0  0
   58.7180   32.1010   46.1440 C   0  0  0  0  0  0  0  0  0  0  0  0
   58.0040   32.1720   44.9340 C   0  0  0  0  0  0  0  0  0  0  0  0
   57.7590   33.4040   44.3260 C   0  0  0  0  0  0  0  0  0  0  0  0
   58.2150   34.5800   44.9220 C   0  0  0  0  0  0  0  0  0  0  0  0
   58.8990   34.5290   46.1370 C   0  0  0  0  0  0  0  0  0  0  0  0
   59.1390   33.2970   46.7720 C   0  0  0  0  0  0  0  0  0  0  0  0
   59.8680   33.2810   48.0630 C   0  0  0  0  0  0  0  0  0  0  0  0
   59.2280   33.4730   49.1330 O   0  0  0  0  0  0  0  0  0  0  0  0
   61.2880   33.0570   48.1190 N   0  0  0  0  0  0  0  0  0  0  0  0
   61.8750   31.9090   47.4190 C   0  0  0  0  0  0  0  0  0  0  0  0
   63.3450   32.1960   47.0980 C   0  0  0  0  0  0  0  0  0  0  0  0
   64.0440   32.6010   48.2600 O   0  0  0  0  0  0  0  0  0  0  0  0
   63.5290   33.8350   48.7240 C   0  0  0  0  0  0  0  0  0  0  0  0
   62.0760   33.6790   49.1840 C   0  0  0  0  0  0  0  0  0  0  0  0
   60.7212   25.5957   47.3410 H   0  0  0  0  0  0  0  0  0  0  0  0
   60.5787   24.7084   45.7856 H   0  0  0  0  0  0  0  0  0  0  0  0
   60.9225   26.4715   45.7856 H   0  0  0  0  0  0  0  0  0  0  0  0
   58.3993   23.8773   45.8585 H   0  0  0  0  0  0  0  0  0  0  0  0
   55.9488   24.3027   45.7054 H   0  0  0  0  0  0  0  0  0  0  0  0
   56.6157   28.4968   46.5112 H   0  0  0  0  0  0  0  0  0  0  0  0
   57.6357   31.2486   44.4631 H   0  0  0  0  0  0  0  0  0  0  0  0
   57.2059   33.4478   43.3762 H   0  0  0  0  0  0  0  0  0  0  0  0
   58.0350   35.5489   44.4333 H   0  0  0  0  0  0  0  0  0  0  0  0
   59.2537   35.4604   46.6024 H   0  0  0  0  0  0  0  0  0  0  0  0
   61.8080   31.0171   48.0594 H   0  0  0  0  0  0  0  0  0  0  0  0
   61.3253   31.7337   46.4824 H   0  0  0  0  0  0  0  0  0  0  0  0
   63.8110   31.2841   46.6964 H   0  0  0  0  0  0  0  0  0  0  0  0
   63.3919   33.0082   46.3577 H   0  0  0  0  0  0  0  0  0  0  0  0
   64.1393   34.1856   49.5693 H   0  0  0  0  0  0  0  0  0  0  0  0
   63.5620   34.5632   47.9002 H   0  0  0  0  0  0  0  0  0  0  0  0
   62.0424   33.0449   50.0822 H   0  0  0  0  0  0  0  0  0  0  0  0
   61.6581   34.6696   49.4167 H   0  0  0  0  0  0  0  0  0  0  0  0
  1  2  1  0
  2  3  2  0
  3  4  1  0
  4  5  2  0
  5  6  1  0
  5  7  1  0
  7  8  2  0
  8  9  1  0
  9 10  1  0
 10 11  2  0
 10 12  1  0
 12 13  1  0
 13 14  2  0
 14 15  1  0
 15 16  2  0
 16 17  1  0
 17 18  2  0
 18 19  1  0
 19 20  2  0
 19 21  1  0
 21 22  1  0
 22 23  1  0
 23 24  1  0
 24 25  1  0
 25 26  1  0
  8  2  1  0
 18 13  1  0
 26 21  1  0
  1 27  1  0
  1 28  1  0
  1 29  1  0
  3 30  1  0
  4 31  1  0
  7 32  1  0
 14 33  1  0
 15 34  1  0
 16 35  1  0
 17 36  1  0
 22 37  1  0
 22 38  1  0
 23 39  1  0
 23 40  1  0
 25 41  1  0
 25 42  1  0
 26 43  1  0
 26 44  1  0
M  CHG  3   6  -1   9  -1  12  -1
M  END
>  <UniqueID>  (86) 
81

>  <SMILES>  (86) 
Cc1ccc([O-])cc1[N-]C(=O)[N-]c1ccccc1C(=O)N1CCOCC1

>  <Energy>  (86) 
62.32537585836971

>  <Genealogy>  (86) 
Cc1ccc([O-])cc1[N-]C(=O)[N-]c1ccccc1C(=O)N1CCOCC1 (protonated)
Cc1ccc([O-])cc1[N-]C(=O)[N-]c1ccccc1C(=O)N1CCOCC1 (3D coordinates assigned)
Cc1ccc([O-])cc1[N-]C(=O)[N-]c1ccccc1C(=O)N1CCOCC1 (nonaromatic ring conformer: 62.32537585836971 kcal/mol)

>  <smiles>  (86) 
Cc1ccc(O)cc1NC(=O)Nc1ccccc1C(=O)N1CCOCC1

>  <score_type>  (86) 
oracle

>  <origin>  (86) 
adg

>  <m_score__min__energy>  (86) 
-14.09

>  <m_primary>  (86) 
energy

$$$$
86:0
     RDKit          3D

 59 62  0  0  0  0  0  0  0  0999 V2000
   55.5020   29.1130   44.9130 N   0  0  0  0  0  0  0  0  0  0  0  0
   56.3010   29.9460   44.0760 C   0  0  0  0  0  0  0  0  0  0  0  0
   56.2370   29.8030   42.8260 O   0  0  0  0  0  0  0  0  0  0  0  0
   57.1960   30.9690   44.6660 C   0  0  0  0  0  0  0  0  0  0  0  0
   57.3940   32.2010   44.0180 C   0  0  0  0  0  0  0  0  0  0  0  0
   58.2150   33.1750   44.5880 C   0  0  0  0  0  0  0  0  0  0  0  0
   58.8630   32.9400   45.8090 C   0  0  0  0  0  0  0  0  0  0  0  0
   59.6450   33.9940   46.4030 N   0  0  0  0  0  0  0  0  0  0  0  0
   61.0040   33.8430   46.8240 C   0  0  0  0  0  0  0  0  0  0  0  0
   61.8710   33.4540   45.9980 O   0  0  0  0  0  0  0  0  0  0  0  0
   61.4160   34.2040   48.1490 N   0  0  0  0  0  0  0  0  0  0  0  0
   62.0890   33.3500   49.1340 C   0  0  0  0  0  0  0  0  0  0  0  0
   61.7160   31.8730   48.9300 C   0  0  0  0  0  0  0  0  0  0  0  0
   62.1400   31.0610   50.1600 C   0  0  0  0  0  0  0  0  0  0  0  0
   61.3930   31.4540   51.3820 N   0  0  0  0  0  0  0  0  0  0  0  0
   60.2530   30.5320   51.6030 C   0  0  0  0  0  0  0  0  0  0  0  0
   60.1330   29.4960   50.5100 C   0  0  0  0  0  0  0  0  0  0  0  0
   59.2840   29.7150   49.4130 C   0  0  0  0  0  0  0  0  0  0  0  0
   59.1970   28.7650   48.3920 C   0  0  0  0  0  0  0  0  0  0  0  0
   59.9500   27.5800   48.4580 C   0  0  0  0  0  0  0  0  0  0  0  0
   59.8810   26.6080   47.4510 O   0  0  0  0  0  0  0  0  0  0  0  0
   59.3380   26.8150   46.1750 C   0  0  0  0  0  0  0  0  0  0  0  0
   58.3810   25.9120   45.6920 C   0  0  0  0  0  0  0  0  0  0  0  0
   57.8290   26.0830   44.4180 C   0  0  0  0  0  0  0  0  0  0  0  0
   58.2420   27.1500   43.6120 C   0  0  0  0  0  0  0  0  0  0  0  0
   59.2060   28.0470   44.0810 C   0  0  0  0  0  0  0  0  0  0  0  0
   59.7570   27.8810   45.3560 C   0  0  0  0  0  0  0  0  0  0  0  0
   60.7570   27.3420   49.5750 C   0  0  0  0  0  0  0  0  0  0  0  0
   60.8530   28.2940   50.5940 C   0  0  0  0  0  0  0  0  0  0  0  0
   60.9530   32.8780   51.3930 C   0  0  0  0  0  0  0  0  0  0  0  0
   61.8830   33.8150   50.5960 C   0  0  0  0  0  0  0  0  0  0  0  0
   58.6710   31.7060   46.4540 C   0  0  0  0  0  0  0  0  0  0  0  0
   57.8480   30.7300   45.8880 C   0  0  0  0  0  0  0  0  0  0  0  0
   54.5030   29.3460   45.1080 H   0  0  0  0  0  0  0  0  0  0  0  0
   56.8987   32.3983   43.0558 H   0  0  0  0  0  0  0  0  0  0  0  0
   58.3552   34.1373   44.0739 H   0  0  0  0  0  0  0  0  0  0  0  0
   59.2040   34.9290   46.5400 H   0  0  0  0  0  0  0  0  0  0  0  0
   63.1691   33.4516   48.9523 H   0  0  0  0  0  0  0  0  0  0  0  0
   60.6283   31.7859   48.7909 H   0  0  0  0  0  0  0  0  0  0  0  0
   62.2331   31.4851   48.0400 H   0  0  0  0  0  0  0  0  0  0  0  0
   61.9555   29.9951   49.9605 H   0  0  0  0  0  0  0  0  0  0  0  0
   63.2070   31.2581   50.3409 H   0  0  0  0  0  0  0  0  0  0  0  0
   60.3959   30.0169   52.5644 H   0  0  0  0  0  0  0  0  0  0  0  0
   59.3305   31.1312   51.6014 H   0  0  0  0  0  0  0  0  0  0  0  0
   58.6860   30.6366   49.3574 H   0  0  0  0  0  0  0  0  0  0  0  0
   58.5355   28.9455   47.5318 H   0  0  0  0  0  0  0  0  0  0  0  0
   58.0626   25.0651   46.3175 H   0  0  0  0  0  0  0  0  0  0  0  0
   57.0694   25.3780   44.0493 H   0  0  0  0  0  0  0  0  0  0  0  0
   57.8082   27.2827   42.6099 H   0  0  0  0  0  0  0  0  0  0  0  0
   59.5318   28.8845   43.4466 H   0  0  0  0  0  0  0  0  0  0  0  0
   60.5197   28.5852   45.7198 H   0  0  0  0  0  0  0  0  0  0  0  0
   61.3196   26.3999   49.6522 H   0  0  0  0  0  0  0  0  0  0  0  0
   61.4956   28.1004   51.4655 H   0  0  0  0  0  0  0  0  0  0  0  0
   59.9448   32.9343   50.9566 H   0  0  0  0  0  0  0  0  0  0  0  0
   60.9737   33.2151   52.4399 H   0  0  0  0  0  0  0  0  0  0  0  0
   61.4425   34.8229   50.5860 H   0  0  0  0  0  0  0  0  0  0  0  0
   62.8661   33.8057   51.0893 H   0  0  0  0  0  0  0  0  0  0  0  0
   59.1731   31.5074   47.4124 H   0  0  0  0  0  0  0  0  0  0  0  0
   57.7091   29.7675   46.4021 H   0  0  0  0  0  0  0  0  0  0  0  0
  1  2  1  0
  2  3  2  0
  2  4  1  0
  4  5  2  0
  5  6  1  0
  6  7  2  0
  7  8  1  0
  8  9  1  0
  9 10  2  0
  9 11  1  0
 11 12  1  0
 12 13  1  0
 13 14  1  0
 14 15  1  0
 15 16  1  0
 16 17  1  0
 17 18  2  0
 18 19  1  0
 19 20  2  0
 20 21  1  0
 21 22  1  0
 22 23  2  0
 23 24  1  0
 24 25  2  0
 25 26  1  0
 26 27  2  0
 20 28  1  0
 28 29  2  0
 15 30  1  0
 30 31  1  0
  7 32  1  0
 32 33  2  0
 33  4  1  0
 31 12  1  0
 29 17  1  0
 27 22  1  0
  1 34  1  0
  5 35  1  0
  6 36  1  0
  8 37  1  0
 12 38  1  0
 13 39  1  0
 13 40  1  0
 14 41  1  0
 14 42  1  0
 16 43  1  0
 16 44  1  0
 18 45  1  0
 19 46  1  0
 23 47  1  0
 24 48  1  0
 25 49  1  0
 26 50  1  0
 27 51  1  0
 28 52  1  0
 29 53  1  0
 30 54  1  0
 30 55  1  0
 31 56  1  0
 31 57  1  0
 32 58  1  0
 33 59  1  0
M  CHG  2   1  -1  11  -1
M  END
>  <UniqueID>  (87) 
82

>  <SMILES>  (87) 
[NH-]C(=O)c1ccc(NC(=O)[N-]C2CCN(Cc3ccc(Oc4ccccc4)cc3)CC2)cc1

>  <Energy>  (87) 
84.03359760299574

>  <Genealogy>  (87) 
[NH-]C(=O)c1ccc(NC(=O)[N-]C2CCN(Cc3ccc(Oc4ccccc4)cc3)CC2)cc1 (protonated)
[NH-]C(=O)c1ccc(NC(=O)[N-]C2CCN(Cc3ccc(Oc4ccccc4)cc3)CC2)cc1 (3D coordinates assigned)
[NH-]C(=O)c1ccc(NC(=O)[N-]C2CCN(Cc3ccc(Oc4ccccc4)cc3)CC2)cc1 (nonaromatic ring conformer: 84.03359760299574 kcal/mol)

>  <smiles>  (87) 
NC(=O)c1ccc(NC(=O)NC2CCN(Cc3ccc(Oc4ccccc4)cc3)CC2)cc1

>  <score_type>  (87) 
oracle

>  <origin>  (87) 
adg

>  <m_score__min__energy>  (87) 
-12.58

>  <m_primary>  (87) 
energy

$$$$
87:0
     RDKit          3D

 69 73  0  0  0  0  0  0  0  0999 V2000
   54.6380   22.7220   48.4910 C   0  0  0  0  0  0  0  0  0  0  0  0
   56.0110   22.7970   47.9650 N   0  0  0  0  0  0  0  0  0  0  0  0
   56.9740   22.6000   49.0560 C   0  0  0  0  0  0  0  0  0  0  0  0
   56.2480   24.0920   47.2970 C   0  0  0  0  0  0  0  0  0  0  0  0
   56.3590   23.9020   45.7990 C   0  0  0  0  0  0  0  0  0  0  0  0
   55.6870   22.8260   45.1920 C   0  0  0  0  0  0  0  0  0  0  0  0
   55.8220   22.5860   43.8220 C   0  0  0  0  0  0  0  0  0  0  0  0
   56.6320   23.4120   43.0420 C   0  0  0  0  0  0  0  0  0  0  0  0
   57.3040   24.4870   43.6270 C   0  0  0  0  0  0  0  0  0  0  0  0
   57.1680   24.7510   45.0000 C   0  0  0  0  0  0  0  0  0  0  0  0
   57.8900   25.9010   45.5770 C   0  0  0  0  0  0  0  0  0  0  0  0
   57.3570   27.1930   45.4790 C   0  0  0  0  0  0  0  0  0  0  0  0
   58.0250   28.2760   46.0530 C   0  0  0  0  0  0  0  0  0  0  0  0
   59.2420   28.0850   46.7250 C   0  0  0  0  0  0  0  0  0  0  0  0
   59.9000   29.2110   47.3300 N   0  0  0  0  0  0  0  0  0  0  0  0
   60.0310   30.5100   46.6930 C   0  0  0  0  0  0  0  0  0  0  0  0
   60.8650   31.3950   47.6720 C   0  0  0  0  0  0  0  0  0  0  0  0
   62.3240   31.5070   47.1500 C   0  0  0  0  0  0  0  0  0  0  0  0
   63.2210   32.3570   48.0710 C   0  0  0  0  0  0  0  0  0  0  0  0
   62.4300   33.3180   48.8550 N   0  0  0  0  0  0  0  0  0  0  0  0
   62.7900   33.6350   50.2140 C   0  0  0  0  0  0  0  0  0  0  0  0
   61.8820   33.7940   51.0750 O   0  0  0  0  0  0  0  0  0  0  0  0
   64.2050   33.7640   50.6280 C   0  0  0  0  0  0  0  0  0  0  0  0
   64.5810   34.6960   51.6090 C   0  0  0  0  0  0  0  0  0  0  0  0
   65.9190   34.8050   52.0060 C   0  0  0  0  0  0  0  0  0  0  0  0
   66.8900   33.9780   51.4320 C   0  0  0  0  0  0  0  0  0  0  0  0
   68.2660   34.0920   51.8390 C   0  0  0  0  0  0  0  0  0  0  0  0
   69.3720   34.1840   52.1640 N   0  0  0  0  0  0  0  0  0  0  0  0
   66.5190   33.0350   50.4660 C   0  0  0  0  0  0  0  0  0  0  0  0
   65.1830   32.9240   50.0700 C   0  0  0  0  0  0  0  0  0  0  0  0
   61.2290   33.9060   48.2500 C   0  0  0  0  0  0  0  0  0  0  0  0
   60.2430   32.8200   47.7760 C   0  0  0  0  0  0  0  0  0  0  0  0
   60.8230   30.6390   49.0380 C   0  0  0  0  0  0  0  0  0  0  0  0
   60.3410   29.2930   48.6710 C   0  0  0  0  0  0  0  0  0  0  0  0
   60.3340   28.3130   49.4620 O   0  0  0  0  0  0  0  0  0  0  0  0
   59.7770   26.7870   46.8280 C   0  0  0  0  0  0  0  0  0  0  0  0
   60.9550   26.5570   47.5310 O   0  0  0  0  0  0  0  0  0  0  0  0
   59.1090   25.7060   46.2430 C   0  0  0  0  0  0  0  0  0  0  0  0
   54.6660   22.7235   49.5906 H   0  0  0  0  0  0  0  0  0  0  0  0
   54.0621   23.5900   48.1377 H   0  0  0  0  0  0  0  0  0  0  0  0
   54.1600   21.7964   48.1377 H   0  0  0  0  0  0  0  0  0  0  0  0
   56.4596   22.7052   50.0226 H   0  0  0  0  0  0  0  0  0  0  0  0
   57.4119   21.5937   48.9813 H   0  0  0  0  0  0  0  0  0  0  0  0
   57.7719   23.3535   48.9813 H   0  0  0  0  0  0  0  0  0  0  0  0
   55.4102   24.7707   47.5150 H   0  0  0  0  0  0  0  0  0  0  0  0
   57.1893   24.5197   47.6726 H   0  0  0  0  0  0  0  0  0  0  0  0
   55.0497   22.1678   45.8008 H   0  0  0  0  0  0  0  0  0  0  0  0
   55.2884   21.7438   43.3573 H   0  0  0  0  0  0  0  0  0  0  0  0
   56.7413   23.2161   41.9651 H   0  0  0  0  0  0  0  0  0  0  0  0
   57.9448   25.1321   43.0080 H   0  0  0  0  0  0  0  0  0  0  0  0
   56.4077   27.3547   44.9473 H   0  0  0  0  0  0  0  0  0  0  0  0
   57.5947   29.2856   45.9781 H   0  0  0  0  0  0  0  0  0  0  0  0
   60.5532   30.4112   45.7299 H   0  0  0  0  0  0  0  0  0  0  0  0
   59.0467   30.9569   46.4894 H   0  0  0  0  0  0  0  0  0  0  0  0
   62.7509   30.4957   47.0785 H   0  0  0  0  0  0  0  0  0  0  0  0
   62.2890   32.0038   46.1692 H   0  0  0  0  0  0  0  0  0  0  0  0
   63.7594   31.6902   48.7606 H   0  0  0  0  0  0  0  0  0  0  0  0
   63.9258   32.9210   47.4423 H   0  0  0  0  0  0  0  0  0  0  0  0
   63.8198   35.3440   52.0680 H   0  0  0  0  0  0  0  0  0  0  0  0
   66.2070   35.5419   52.7702 H   0  0  0  0  0  0  0  0  0  0  0  0
   67.2805   32.3800   50.0176 H   0  0  0  0  0  0  0  0  0  0  0  0
   64.8959   32.1749   49.3174 H   0  0  0  0  0  0  0  0  0  0  0  0
   60.7286   34.5419   48.9952 H   0  0  0  0  0  0  0  0  0  0  0  0
   61.5382   34.4959   47.3746 H   0  0  0  0  0  0  0  0  0  0  0  0
   59.4054   32.7798   48.4880 H   0  0  0  0  0  0  0  0  0  0  0  0
   59.9260   33.1017   46.7610 H   0  0  0  0  0  0  0  0  0  0  0  0
   61.8243   30.5884   49.4905 H   0  0  0  0  0  0  0  0  0  0  0  0
   60.1838   31.1350   49.7832 H   0  0  0  0  0  0  0  0  0  0  0  0
   59.5423   24.6969   46.3057 H   0  0  0  0  0  0  0  0  0  0  0  0
  1  2  1  0
  2  3  1  0
  2  4  1  0
  4  5  1  0
  5  6  2  0
  6  7  1  0
  7  8  2  0
  8  9  1  0
  9 10  2  0
 10 11  1  0
 11 12  2  0
 12 13  1  0
 13 14  2  0
 14 15  1  0
 15 16  1  0
 16 17  1  0
 17 18  1  0
 18 19  1  0
 19 20  1  0
 20 21  1  0
 21 22  2  0
 21 23  1  0
 23 24  2  0
 24 25  1  0
 25 26  2  0
 26 27  1  0
 27 28  3  0
 26 29  1  0
 29 30  2  0
 20 31  1  0
 31 32  1  0
 17 33  1  0
 33 34  1  0
 34 35  2  0
 14 36  1  0
 36 37  1  0
 36 38  2  0
 10  5  1  0
 38 11  1  0
 34 15  1  0
 32 17  1  0
 30 23  1  0
  1 39  1  0
  1 40  1  0
  1 41  1  0
  3 42  1  0
  3 43  1  0
  3 44  1  0
  4 45  1  0
  4 46  1  0
  6 47  1  0
  7 48  1  0
  8 49  1  0
  9 50  1  0
 12 51  1  0
 13 52  1  0
 16 53  1  0
 16 54  1  0
 18 55  1  0
 18 56  1  0
 19 57  1  0
 19 58  1  0
 24 59  1  0
 25 60  1  0
 29 61  1  0
 30 62  1  0
 31 63  1  0
 31 64  1  0
 32 65  1  0
 32 66  1  0
 33 67  1  0
 33 68  1  0
 38 69  1  0
M  CHG  1  37  -1
M  END
>  <UniqueID>  (88) 
83

>  <SMILES>  (88) 
CN(C)Cc1ccccc1-c1ccc(N2CC3(CCN(C(=O)c4ccc(C#N)cc4)CC3)CC2=O)c([O-])c1

>  <Energy>  (88) 
105.47153224720348

>  <Genealogy>  (88) 
CN(C)Cc1ccccc1-c1ccc(N2CC3(CCN(C(=O)c4ccc(C#N)cc4)CC3)CC2=O)c([O-])c1 (protonated)
CN(C)Cc1ccccc1-c1ccc(N2CC3(CCN(C(=O)c4ccc(C#N)cc4)CC3)CC2=O)c([O-])c1 (3D coordinates assigned)
CN(C)Cc1ccccc1-c1ccc(N2CC3(CCN(C(=O)c4ccc(C#N)cc4)CC3)CC2=O)c([O-])c1 (nonaromatic ring conformer: 105.47153224720348 kcal/mol)

>  <smiles>  (88) 
CN(C)Cc1ccccc1-c1ccc(N2CC3(CCN(C(=O)c4ccc(C#N)cc4)CC3)CC2=O)c(O)c1

>  <score_type>  (88) 
oracle

>  <origin>  (88) 
adg

>  <m_score__min__energy>  (88) 
-9.7899999999999991

>  <m_primary>  (88) 
energy

$$$$
88:0
     RDKit          3D

 46 49  0  0  0  0  0  0  0  0999 V2000
   53.9480   26.3440   45.2700 H   0  0  0  0  0  0  0  0  0  0  0  0
   53.6220   25.4250   45.6450 N   0  0  0  0  0  0  0  0  0  0  0  0
   54.2110   24.2030   45.2070 C   0  0  0  0  0  0  0  0  0  0  0  0
   53.4560   23.2550   44.8590 O   0  0  0  0  0  0  0  0  0  0  0  0
   55.6900   24.0410   45.1320 C   0  0  0  0  0  0  0  0  0  0  0  0
   56.2200   22.7630   44.8660 C   0  0  0  0  0  0  0  0  0  0  0  0
   55.5382   21.9117   44.7227 H   0  0  0  0  0  0  0  0  0  0  0  0
   57.5980   22.5630   44.7820 C   0  0  0  0  0  0  0  0  0  0  0  0
   57.9951   21.5608   44.5628 H   0  0  0  0  0  0  0  0  0  0  0  0
   58.4710   23.6290   44.9750 C   0  0  0  0  0  0  0  0  0  0  0  0
   59.5574   23.4667   44.9161 H   0  0  0  0  0  0  0  0  0  0  0  0
   57.9710   24.9030   45.2430 C   0  0  0  0  0  0  0  0  0  0  0  0
   58.6676   25.7383   45.4075 H   0  0  0  0  0  0  0  0  0  0  0  0
   56.5830   25.1300   45.3050 C   0  0  0  0  0  0  0  0  0  0  0  0
   56.0820   26.4300   45.6620 N   0  0  0  0  0  0  0  0  0  0  0  0
   56.7950   27.4790   45.9480 C   0  0  0  0  0  0  0  0  0  0  0  0
   56.5290   28.6510   45.3180 N   0  0  0  0  0  0  0  0  0  0  0  0
   57.2780   29.7580   45.5690 C   0  0  0  0  0  0  0  0  0  0  0  0
   57.0180   30.8950   44.9930 N   0  0  0  0  0  0  0  0  0  0  0  0
   57.6670   32.1550   45.2360 C   0  0  0  0  0  0  0  0  0  0  0  0
   58.3430   32.8550   44.2190 C   0  0  0  0  0  0  0  0  0  0  0  0
   58.3611   32.4523   43.1955 H   0  0  0  0  0  0  0  0  0  0  0  0
   58.9920   34.0610   44.5050 C   0  0  0  0  0  0  0  0  0  0  0  0
   59.5048   34.6113   43.7023 H   0  0  0  0  0  0  0  0  0  0  0  0
   58.9910   34.5690   45.8070 C   0  0  0  0  0  0  0  0  0  0  0  0
   59.6380   35.7720   46.0770 O   0  0  0  0  0  0  0  0  0  0  0  0
   59.4750   36.2800   46.9390 H   0  0  0  0  0  0  0  0  0  0  0  0
   58.3450   33.8610   46.8290 C   0  0  0  0  0  0  0  0  0  0  0  0
   58.3476   34.2545   47.8562 H   0  0  0  0  0  0  0  0  0  0  0  0
   57.6970   32.6550   46.5450 C   0  0  0  0  0  0  0  0  0  0  0  0
   57.2071   32.0945   47.3549 H   0  0  0  0  0  0  0  0  0  0  0  0
   58.2930   29.6860   46.4660 N   0  0  0  0  0  0  0  0  0  0  0  0
   58.5770   28.5180   47.0940 C   0  0  0  0  0  0  0  0  0  0  0  0
   59.5640   28.4720   47.9390 N   0  0  0  0  0  0  0  0  0  0  0  0
   59.7830   29.4300   49.0230 C   0  0  0  0  0  0  0  0  0  0  0  0
   58.8108   29.7164   49.4505 H   0  0  0  0  0  0  0  0  0  0  0  0
   60.4172   28.9540   49.7854 H   0  0  0  0  0  0  0  0  0  0  0  0
   60.4800   30.6600   48.5270 C   0  0  0  0  0  0  0  0  0  0  0  0
   60.3590   32.2000   49.1980 S   0  0  0  0  0  0  0  0  0  0  0  0
   61.2910   32.9800   48.0370 C   0  0  0  0  0  0  0  0  0  0  0  0
   61.5426   34.0508   48.0262 H   0  0  0  0  0  0  0  0  0  0  0  0
   61.6890   32.0420   47.0940 C   0  0  0  0  0  0  0  0  0  0  0  0
   62.3083   32.2926   46.2201 H   0  0  0  0  0  0  0  0  0  0  0  0
   61.2280   30.7470   47.3600 C   0  0  0  0  0  0  0  0  0  0  0  0
   61.4373   29.8848   46.7098 H   0  0  0  0  0  0  0  0  0  0  0  0
   57.8280   27.4130   46.8300 N   0  0  0  0  0  0  0  0  0  0  0  0
  1  2  1  0
  2  3  1  0
  3  4  2  0
  3  5  1  0
  5  6  2  0
  6  7  1  0
  6  8  1  0
  8  9  1  0
  8 10  2  0
 10 11  1  0
 10 12  1  0
 12 13  1  0
 12 14  2  0
 14 15  1  0
 15 16  2  3
 16 17  1  0
 17 18  1  0
 18 19  2  3
 19 20  1  0
 20 21  2  0
 21 22  1  0
 21 23  1  0
 23 24  1  0
 23 25  2  0
 25 26  1  0
 26 27  1  0
 25 28  1  0
 28 29  1  0
 28 30  2  0
 30 31  1  0
 18 32  1  0
 32 33  1  0
 33 34  2  0
 34 35  1  0
 35 36  1  0
 35 37  1  0
 35 38  1  0
 38 39  1  0
 39 40  1  0
 40 41  1  0
 40 42  2  0
 42 43  1  0
 42 44  1  0
 44 45  1  0
 33 46  1  0
 14  5  1  0
 46 16  1  0
 30 20  1  0
 44 38  2  0
M  CHG  4   2  -1  17  -1  32  -1  46  -1
M  END
>  <UniqueID>  (89) 
84

>  <SMILES>  (89) 
[NH-]C(=O)c1ccccc1N=c1[n-]c(=Nc2ccc(O)cc2)[n-]/c(=N/Cc2cccs2)[n-]1

>  <Energy>  (89) 
88.88447480818392

>  <Genealogy>  (89) 
[NH-]C(=O)c1ccccc1N=c1[n-]c(=NCc2cccs2)[n-]c(=Nc2ccc(O)cc2)[n-]1 (protonated)
[NH-]C(=O)c1ccccc1N=c1[n-]c(=Nc2ccc(O)cc2)[n-]/c(=N/Cc2cccs2)[n-]1 (cis-trans isomerization)
[NH-]C(=O)c1ccccc1N=c1[n-]c(=Nc2ccc(O)cc2)[n-]/c(=N/Cc2cccs2)[n-]1 (3D coordinates assigned)
[NH-]C(=O)c1ccccc1N=c1[n-]c(=Nc2ccc(O)cc2)[n-]/c(=N/Cc2cccs2)[n-]1 (optimized conformer: 88.88447480818392 kcal/mol)

>  <smiles>  (89) 
NC(=O)c1ccccc1N=c1[nH]c(=NCc2cccs2)[nH]c(=Nc2ccc(O)cc2)[nH]1

>  <score_type>  (89) 
oracle

>  <origin>  (89) 
adg

>  <m_score__min__energy>  (89) 
-15.35

>  <m_primary>  (89) 
energy

$$$$
89:0
     RDKit          3D

 46 48  0  0  0  0  0  0  0  0999 V2000
   55.1460   29.3410   44.8540 N   0  0  0  0  0  0  0  0  0  0  0  0
   56.1130   30.0630   44.0930 C   0  0  0  0  0  0  0  0  0  0  0  0
   56.1770   29.8750   42.8470 O   0  0  0  0  0  0  0  0  0  0  0  0
   57.0250   31.0270   44.7530 C   0  0  0  0  0  0  0  0  0  0  0  0
   56.6690   32.3820   44.8700 C   0  0  0  0  0  0  0  0  0  0  0  0
   57.5310   33.2870   45.4920 C   0  0  0  0  0  0  0  0  0  0  0  0
   58.7580   32.8540   45.9960 C   0  0  0  0  0  0  0  0  0  0  0  0
   59.1440   31.5150   45.8800 C   0  0  0  0  0  0  0  0  0  0  0  0
   60.3940   31.1470   46.4030 O   0  0  0  0  0  0  0  0  0  0  0  0
   60.7130   29.9240   47.0750 C   0  0  0  0  0  0  0  0  0  0  0  0
   59.5570   29.4860   48.0010 C   0  0  2  0  0  0  0  0  0  0  0  0
   59.8170   29.7950   49.4900 C   0  0  0  0  0  0  0  0  0  0  0  0
   60.8930   28.8970   50.1330 C   0  0  0  0  0  0  0  0  0  0  0  0
   61.0660   27.5370   49.4360 C   0  0  0  0  0  0  0  0  0  0  0  0
   59.7760   27.0550   48.7720 C   0  0  0  0  0  0  0  0  0  0  0  0
   59.2550   28.0520   47.8200 N   0  0  0  0  0  0  0  0  0  0  0  0
   58.3490   27.6520   46.7640 C   0  0  0  0  0  0  0  0  0  0  0  0
   57.3960   28.4140   46.4400 O   0  0  0  0  0  0  0  0  0  0  0  0
   58.5170   26.3550   46.0130 C   0  0  0  0  0  0  0  0  0  0  0  0
   57.4790   25.3580   46.4340 C   0  0  0  0  0  0  0  0  0  0  0  0
   57.7620   24.1310   46.9060 N   0  0  0  0  0  0  0  0  0  0  0  0
   56.5420   23.5930   47.1200 C   0  0  0  0  0  0  0  0  0  0  0  0
   56.3850   22.4300   47.5740 O   0  0  0  0  0  0  0  0  0  0  0  0
   55.5040   24.3970   46.8090 N   0  0  0  0  0  0  0  0  0  0  0  0
   56.1110   25.5120   46.3730 C   0  0  0  0  0  0  0  0  0  0  0  0
   55.4240   26.6370   45.9260 O   0  0  0  0  0  0  0  0  0  0  0  0
   58.2630   30.5990   45.2690 C   0  0  0  0  0  0  0  0  0  0  0  0
   55.4370   28.7200   45.6410 H   0  0  0  0  0  0  0  0  0  0  0  0
   55.7059   32.7311   44.4692 H   0  0  0  0  0  0  0  0  0  0  0  0
   57.2421   34.3443   45.5850 H   0  0  0  0  0  0  0  0  0  0  0  0
   59.4283   33.5731   46.4895 H   0  0  0  0  0  0  0  0  0  0  0  0
   60.8924   29.1381   46.3266 H   0  0  0  0  0  0  0  0  0  0  0  0
   61.6126   30.0839   47.6875 H   0  0  0  0  0  0  0  0  0  0  0  0
   58.6830   30.0838   47.7029 H   0  0  0  0  0  0  0  0  0  0  0  0
   60.1430   30.8421   49.5752 H   0  0  0  0  0  0  0  0  0  0  0  0
   58.8762   29.6021   50.0264 H   0  0  0  0  0  0  0  0  0  0  0  0
   61.8550   29.4293   50.0977 H   0  0  0  0  0  0  0  0  0  0  0  0
   60.5633   28.6895   51.1617 H   0  0  0  0  0  0  0  0  0  0  0  0
   61.8460   27.6312   48.6661 H   0  0  0  0  0  0  0  0  0  0  0  0
   61.3445   26.7996   50.2032 H   0  0  0  0  0  0  0  0  0  0  0  0
   59.9797   26.1180   48.2330 H   0  0  0  0  0  0  0  0  0  0  0  0
   59.0210   26.8985   49.5565 H   0  0  0  0  0  0  0  0  0  0  0  0
   58.4163   26.5470   44.9346 H   0  0  0  0  0  0  0  0  0  0  0  0
   59.5124   25.9439   46.2372 H   0  0  0  0  0  0  0  0  0  0  0  0
   55.8710   27.3300   45.3380 H   0  0  0  0  0  0  0  0  0  0  0  0
   58.5461   29.5387   45.1948 H   0  0  0  0  0  0  0  0  0  0  0  0
  1  2  1  0
  2  3  2  0
  2  4  1  0
  4  5  2  0
  5  6  1  0
  6  7  2  0
  7  8  1  0
  8  9  1  0
  9 10  1  0
 10 11  1  0
 11 12  1  0
 12 13  1  0
 13 14  1  0
 14 15  1  0
 15 16  1  0
 16 17  1  0
 17 18  2  0
 17 19  1  0
 19 20  1  0
 20 21  1  0
 21 22  1  0
 22 23  2  0
 22 24  1  0
 24 25  1  0
 25 26  1  0
  8 27  2  0
 27  4  1  0
 16 11  1  0
 25 20  2  0
  1 28  1  0
  5 29  1  0
  6 30  1  0
  7 31  1  0
 10 32  1  0
 10 33  1  0
 11 34  1  6
 12 35  1  0
 12 36  1  0
 13 37  1  0
 13 38  1  0
 14 39  1  0
 14 40  1  0
 15 41  1  0
 15 42  1  0
 19 43  1  0
 19 44  1  0
 26 45  1  0
 27 46  1  0
M  CHG  3   1  -1  21  -1  24  -1
M  END
>  <UniqueID>  (90) 
85

>  <SMILES>  (90) 
[NH-]C(=O)c1cccc(OC[C@@H]2CCCCN2C(=O)Cc2[n-]c(=O)[n-]c2O)c1

>  <Energy>  (90) 
79.40691588513639

>  <Genealogy>  (90) 
[NH-]C(=O)c1cccc(OCC2CCCCN2C(=O)Cc2[n-]c(=O)[n-]c2O)c1 (protonated)
[NH-]C(=O)c1cccc(OC[C@@H]2CCCCN2C(=O)Cc2[n-]c(=O)[n-]c2O)c1 (chirality)
[NH-]C(=O)c1cccc(OC[C@@H]2CCCCN2C(=O)Cc2[n-]c(=O)[n-]c2O)c1 (3D coordinates assigned)
[NH-]C(=O)c1cccc(OC[C@@H]2CCCCN2C(=O)Cc2[n-]c(=O)[n-]c2O)c1 (nonaromatic ring conformer: 79.40691588513639 kcal/mol)

>  <smiles>  (90) 
NC(=O)c1cccc(OCC2CCCCN2C(=O)Cc2[nH]c(=O)[nH]c2O)c1

>  <score_type>  (90) 
oracle

>  <origin>  (90) 
adg

>  <m_score__min__energy>  (90) 
-15

>  <m_primary>  (90) 
energy

$$$$
90:0
     RDKit          3D

 40 42  0  0  0  0  0  0  0  0999 V2000
   59.0290   28.0190   48.6760 C   0  0  0  0  0  0  0  0  0  0  0  0
   58.8770   28.1290   47.3470 C   0  0  0  0  0  0  0  0  0  0  0  0
   58.3520   27.1580   46.4870 C   0  0  0  0  0  0  0  0  0  0  0  0
   57.8400   25.9590   46.8270 C   0  0  0  0  0  0  0  0  0  0  0  0
   56.4630   25.5320   46.5170 C   0  0  0  0  0  0  0  0  0  0  0  0
   56.0420   24.2610   46.6310 N   0  0  0  0  0  0  0  0  0  0  0  0
   54.7730   24.3090   46.1720 C   0  0  0  0  0  0  0  0  0  0  0  0
   54.0280   23.2950   46.1320 O   0  0  0  0  0  0  0  0  0  0  0  0
   54.3680   25.5260   45.7490 N   0  0  0  0  0  0  0  0  0  0  0  0
   55.4520   26.2870   45.9620 C   0  0  0  0  0  0  0  0  0  0  0  0
   55.5280   27.6290   45.6110 O   0  0  0  0  0  0  0  0  0  0  0  0
   58.4120   27.6970   45.2080 C   0  0  0  0  0  0  0  0  0  0  0  0
   58.9630   28.9560   45.3350 C   0  0  0  0  0  0  0  0  0  0  0  0
   59.2040   29.9010   44.1960 C   0  0  0  0  0  0  0  0  0  0  0  0
   59.2570   29.2150   46.6290 N   0  0  0  0  0  0  0  0  0  0  0  0
   59.8260   30.4350   47.1340 C   0  0  0  0  0  0  0  0  0  0  0  0
   59.2660   31.6680   46.7760 C   0  0  0  0  0  0  0  0  0  0  0  0
   59.8130   32.8770   47.2460 C   0  0  0  0  0  0  0  0  0  0  0  0
   59.1860   34.1570   46.8250 C   0  0  0  0  0  0  0  0  0  0  0  0
   58.9030   35.0450   47.6740 O   0  0  0  0  0  0  0  0  0  0  0  0
   58.9240   34.3980   45.4390 N   0  0  0  0  0  0  0  0  0  0  0  0
   57.5950   34.2880   44.8550 C   0  0  0  0  0  0  0  0  0  0  0  0
   57.1590   32.8920   44.9040 C   0  0  0  0  0  0  0  0  0  0  0  0
   56.8140   31.7890   44.9420 N   0  0  0  0  0  0  0  0  0  0  0  0
   60.9440   32.8240   48.1020 C   0  0  0  0  0  0  0  0  0  0  0  0
   61.6750   34.2620   48.8110 Cl  0  0  0  0  0  0  0  0  0  0  0  0
   61.4960   31.5870   48.4540 C   0  0  0  0  0  0  0  0  0  0  0  0
   60.9450   30.3990   47.9740 C   0  0  0  0  0  0  0  0  0  0  0  0
   61.4840   29.2110   48.3470 F   0  0  0  0  0  0  0  0  0  0  0  0
   59.4559   28.8534   49.2517 H   0  0  0  0  0  0  0  0  0  0  0  0
   58.7266   27.0944   49.1895 H   0  0  0  0  0  0  0  0  0  0  0  0
   58.4890   25.2555   47.3691 H   0  0  0  0  0  0  0  0  0  0  0  0
   58.0842   27.2143   44.2755 H   0  0  0  0  0  0  0  0  0  0  0  0
   59.4576   30.8954   44.5920 H   0  0  0  0  0  0  0  0  0  0  0  0
   60.0359   29.5285   43.5802 H   0  0  0  0  0  0  0  0  0  0  0  0
   58.2953   29.9724   43.5802 H   0  0  0  0  0  0  0  0  0  0  0  0
   58.3852   31.6920   46.1175 H   0  0  0  0  0  0  0  0  0  0  0  0
   56.8909   34.9130   45.4238 H   0  0  0  0  0  0  0  0  0  0  0  0
   57.6227   34.6288   43.8095 H   0  0  0  0  0  0  0  0  0  0  0  0
   62.3736   31.5513   49.1162 H   0  0  0  0  0  0  0  0  0  0  0  0
  1  2  2  0
  2  3  1  0
  3  4  2  3
  4  5  1  0
  5  6  1  0
  6  7  1  0
  7  8  2  0
  7  9  1  0
  9 10  1  0
 10 11  1  0
  3 12  1  0
 12 13  2  0
 13 14  1  0
 13 15  1  0
 15 16  1  0
 16 17  2  0
 17 18  1  0
 18 19  1  0
 19 20  2  0
 19 21  1  0
 21 22  1  0
 22 23  1  0
 23 24  3  0
 18 25  2  0
 25 26  1  0
 25 27  1  0
 27 28  2  0
 28 29  1  0
 15  2  1  0
 28 16  1  0
 10  5  2  0
  1 30  1  0
  1 31  1  0
  4 32  1  0
 12 33  1  0
 14 34  1  0
 14 35  1  0
 14 36  1  0
 17 37  1  0
 22 38  1  0
 22 39  1  0
 27 40  1  0
M  CHG  4   6  -1   9  -1  11  -1  21  -1
M  END
>  <UniqueID>  (91) 
86

>  <SMILES>  (91) 
C=c1c(=Cc2[n-]c(=O)[n-]c2[O-])cc(C)n1-c1cc(C(=O)[N-]CC#N)c(Cl)cc1F

>  <Energy>  (91) 
114.04550278631882

>  <Genealogy>  (91) 
C=c1c(=Cc2[n-]c(=O)[n-]c2[O-])cc(C)n1-c1cc(C(=O)[N-]CC#N)c(Cl)cc1F (protonated)
C=c1c(=Cc2[n-]c(=O)[n-]c2[O-])cc(C)n1-c1cc(C(=O)[N-]CC#N)c(Cl)cc1F (3D coordinates assigned)
C=c1c(=Cc2[n-]c(=O)[n-]c2[O-])cc(C)n1-c1cc(C(=O)[N-]CC#N)c(Cl)cc1F (optimized conformer: 114.04550278631882 kcal/mol)

>  <smiles>  (91) 
C=c1c(=Cc2[nH]c(=O)[nH]c2O)cc(C)n1-c1cc(C(=O)NCC#N)c(Cl)cc1F

>  <score_type>  (91) 
oracle

>  <origin>  (91) 
adg

>  <m_score__min__energy>  (91) 
-16.030000000000001

>  <m_primary>  (91) 
energy

$$$$
91:0
     RDKit          3D

 25 27  0  0  0  0  0  0  0  0999 V2000
   55.5050   24.2650   46.9560 O   0  0  0  0  0  0  0  0  0  0  0  0
   55.9140   25.3380   46.4420 C   0  0  0  0  0  0  0  0  0  0  0  0
   55.0860   26.3610   46.1360 N   0  0  0  0  0  0  0  0  0  0  0  0
   55.9260   27.2760   45.6260 C   0  0  0  0  0  0  0  0  0  0  0  0
   55.5240   28.5240   45.1720 O   0  0  0  0  0  0  0  0  0  0  0  0
   57.2140   26.7930   45.6280 C   0  0  0  0  0  0  0  0  0  0  0  0
   58.4490   27.5250   45.2010 C   0  0  0  0  0  0  0  0  0  0  0  0
   58.4820   28.8840   45.8300 C   0  0  0  0  0  0  0  0  0  0  0  0
   58.5830   29.1620   47.1890 C   0  0  0  0  0  0  0  0  0  0  0  0
   58.4950   30.4950   47.4070 N   0  0  0  0  0  0  0  0  0  0  0  0
   58.3270   31.0580   46.1980 C   0  0  0  0  0  0  0  0  0  0  0  0
   58.1670   32.4130   45.9140 C   0  0  0  0  0  0  0  0  0  0  0  0
   57.9850   32.7870   44.5710 C   0  0  0  0  0  0  0  0  0  0  0  0
   57.9640   31.8090   43.5510 C   0  0  0  0  0  0  0  0  0  0  0  0
   57.7140   32.3340   41.7330 Br  0  0  0  0  0  0  0  0  0  0  0  0
   58.1270   30.4460   43.8690 C   0  0  0  0  0  0  0  0  0  0  0  0
   58.3080   30.1070   45.2100 C   0  0  0  0  0  0  0  0  0  0  0  0
   57.2170   25.5570   46.1570 N   0  0  0  0  0  0  0  0  0  0  0  0
   59.3366   26.9564   45.5154 H   0  0  0  0  0  0  0  0  0  0  0  0
   58.4442   27.6337   44.1064 H   0  0  0  0  0  0  0  0  0  0  0  0
   58.7157   28.4050   47.9760 H   0  0  0  0  0  0  0  0  0  0  0  0
   58.5340   30.9800   48.3310 H   0  0  0  0  0  0  0  0  0  0  0  0
   58.1826   33.1663   46.7155 H   0  0  0  0  0  0  0  0  0  0  0  0
   57.8580   33.8486   44.3123 H   0  0  0  0  0  0  0  0  0  0  0  0
   58.1120   29.6743   43.0852 H   0  0  0  0  0  0  0  0  0  0  0  0
  1  2  2  0
  2  3  1  0
  3  4  1  0
  4  5  1  0
  4  6  2  0
  6  7  1  0
  7  8  1  0
  8  9  2  0
  9 10  1  0
 10 11  1  0
 11 12  2  0
 12 13  1  0
 13 14  2  0
 14 15  1  0
 14 16  1  0
 16 17  2  0
  6 18  1  0
 18  2  1  0
 17  8  1  0
 17 11  1  0
  7 19  1  0
  7 20  1  0
  9 21  1  0
 10 22  1  0
 12 23  1  0
 13 24  1  0
 16 25  1  0
M  CHG  3   3  -1   5  -1  18  -1
M  END
>  <UniqueID>  (92) 
87

>  <SMILES>  (92) 
O=c1[n-]c([O-])c(Cc2c[nH]c3ccc(Br)cc23)[n-]1

>  <Energy>  (92) 
87.38404197320916

>  <Genealogy>  (92) 
O=c1[n-]c([O-])c(Cc2c[nH]c3ccc(Br)cc23)[n-]1 (protonated)
O=c1[n-]c([O-])c(Cc2c[nH]c3ccc(Br)cc23)[n-]1 (3D coordinates assigned)
O=c1[n-]c([O-])c(Cc2c[nH]c3ccc(Br)cc23)[n-]1 (optimized conformer: 87.38404197320916 kcal/mol)

>  <smiles>  (92) 
O=c1[nH]c(O)c(Cc2c[nH]c3ccc(Br)cc23)[nH]1

>  <score_type>  (92) 
oracle

>  <origin>  (92) 
adg

>  <m_score__min__energy>  (92) 
-15.74

>  <m_primary>  (92) 
energy

$$$$
