0:0
     RDKit          3D

 51 54  0  0  0  0  0  0  0  0999 V2000
   56.2650   29.7170   43.0690 C   0  0  0  0  0  0  0  0  0  0  0  0
   56.1560   30.0210   44.4560 O   0  0  0  0  0  0  0  0  0  0  0  0
   57.1360   29.7220   45.4160 C   0  0  0  0  0  0  0  0  0  0  0  0
   58.1110   30.6600   45.8030 C   0  0  0  0  0  0  0  0  0  0  0  0
   59.0530   30.3390   46.7820 C   0  0  0  0  0  0  0  0  0  0  0  0
   59.0320   29.0810   47.4010 C   0  0  0  0  0  0  0  0  0  0  0  0
   60.0150   28.7600   48.4630 C   0  0  0  0  0  0  0  0  0  0  0  0
   60.1920   27.5050   49.0190 C   0  0  0  0  0  0  0  0  0  0  0  0
   61.1130   27.7200   50.0210 C   0  0  0  0  0  0  0  0  0  0  0  0
   61.5550   26.8380   50.8000 O   0  0  0  0  0  0  0  0  0  0  0  0
   61.4840   29.0120   50.0710 N   0  0  0  0  0  0  0  0  0  0  0  0
   60.8160   29.6430   49.1160 N   0  0  0  0  0  0  0  0  0  0  0  0
   61.0140   31.0380   48.8300 C   0  0  0  0  0  0  0  0  0  0  0  0
   60.1680   32.0010   49.3970 C   0  0  0  0  0  0  0  0  0  0  0  0
   60.3390   33.3190   49.1140 N   0  0  0  0  0  0  0  0  0  0  0  0
   61.3330   33.7480   48.2900 C   0  0  0  0  0  0  0  0  0  0  0  0
   62.2300   32.8290   47.7270 C   0  0  0  0  0  0  0  0  0  0  0  0
   63.3030   33.2860   46.7870 C   0  0  0  0  0  0  0  0  0  0  0  0
   62.0610   31.4660   47.9990 C   0  0  0  0  0  0  0  0  0  0  0  0
   58.0820   28.1320   46.9900 C   0  0  0  0  0  0  0  0  0  0  0  0
   57.1360   28.4440   45.9980 C   0  0  0  0  0  0  0  0  0  0  0  0
   56.1130   27.5100   45.6130 N   0  0  0  0  0  0  0  0  0  0  0  0
   56.1310   26.0890   45.8030 C   0  0  0  0  0  0  0  0  0  0  0  0
   55.1550   25.5020   46.3490 O   0  0  0  0  0  0  0  0  0  0  0  0
   57.3210   25.3070   45.3340 C   0  0  0  0  0  0  0  0  0  0  0  0
   56.9190   24.0350   44.6320 C   0  0  0  0  0  0  0  0  0  0  0  0
   57.2840   22.7870   45.1610 C   0  0  0  0  0  0  0  0  0  0  0  0
   56.9450   21.6200   44.4700 C   0  0  0  0  0  0  0  0  0  0  0  0
   56.2700   21.6970   43.2930 N   0  0  0  0  0  0  0  0  0  0  0  0
   55.9110   22.8930   42.7520 C   0  0  0  0  0  0  0  0  0  0  0  0
   56.2280   24.0850   43.4100 C   0  0  0  0  0  0  0  0  0  0  0  0
   56.6340   28.6879   42.9471 H   0  0  0  0  0  0  0  0  0  0  0  0
   55.2772   29.8110   42.5943 H   0  0  0  0  0  0  0  0  0  0  0  0
   56.9680   30.4173   42.5943 H   0  0  0  0  0  0  0  0  0  0  0  0
   58.1310   31.6533   45.3307 H   0  0  0  0  0  0  0  0  0  0  0  0
   59.8161   31.0772   47.0695 H   0  0  0  0  0  0  0  0  0  0  0  0
   59.7109   26.5591   48.7293 H   0  0  0  0  0  0  0  0  0  0  0  0
   59.3606   31.6879   50.0753 H   0  0  0  0  0  0  0  0  0  0  0  0
   59.6840   34.0200   49.5300 H   0  0  0  0  0  0  0  0  0  0  0  0
   61.4334   34.8200   48.0646 H   0  0  0  0  0  0  0  0  0  0  0  0
   64.1644   33.6529   47.3644 H   0  0  0  0  0  0  0  0  0  0  0  0
   63.6182   32.4440   46.1532 H   0  0  0  0  0  0  0  0  0  0  0  0
   62.9143   34.0967   46.1532 H   0  0  0  0  0  0  0  0  0  0  0  0
   62.7501   30.7292   47.5606 H   0  0  0  0  0  0  0  0  0  0  0  0
   58.0780   27.1327   47.4497 H   0  0  0  0  0  0  0  0  0  0  0  0
   57.9026   25.9287   44.6374 H   0  0  0  0  0  0  0  0  0  0  0  0
   57.9180   25.0342   46.2167 H   0  0  0  0  0  0  0  0  0  0  0  0
   57.8328   22.7278   46.1125 H   0  0  0  0  0  0  0  0  0  0  0  0
   57.2250   20.6382   44.8795 H   0  0  0  0  0  0  0  0  0  0  0  0
   55.3701   22.9219   41.7946 H   0  0  0  0  0  0  0  0  0  0  0  0
   55.9390   25.0531   42.9749 H   0  0  0  0  0  0  0  0  0  0  0  0
  1  2  1  0
  2  3  1  0
  3  4  2  0
  4  5  1  0
  5  6  2  0
  6  7  1  0
  7  8  2  0
  8  9  1  0
  9 10  2  0
  9 11  1  0
 11 12  1  0
 12 13  1  0
 13 14  2  0
 14 15  1  0
 15 16  2  0
 16 17  1  0
 17 18  1  0
 17 19  2  0
  6 20  1  0
 20 21  2  0
 21 22  1  0
 22 23  1  0
 23 24  2  0
 23 25  1  0
 25 26  1  0
 26 27  2  0
 27 28  1  0
 28 29  2  0
 29 30  1  0
 30 31  2  0
 21  3  1  0
 31 26  1  0
 12  7  1  0
 19 13  1  0
  1 32  1  0
  1 33  1  0
  1 34  1  0
  4 35  1  0
  5 36  1  0
  8 37  1  0
 14 38  1  0
 15 39  1  0
 16 40  1  0
 18 41  1  0
 18 42  1  0
 18 43  1  0
 19 44  1  0
 20 45  1  0
 25 46  1  0
 25 47  1  0
 27 48  1  0
 28 49  1  0
 30 50  1  0
 31 51  1  0
M  CHG  3  11  -1  15   1  22  -1
M  END
>  <UniqueID>  (1) 
1

>  <SMILES>  (1) 
COc1ccc(-c2cc(=O)[n-]n2-c2c[nH+]cc(C)c2)cc1[N-]C(=O)Cc1ccncc1

>  <Energy>  (1) 
97.57592311280183

>  <Genealogy>  (1) 
COc1ccc(-c2cc(=O)[n-]n2-c2c[nH+]cc(C)c2)cc1[N-]C(=O)Cc1ccncc1 (protonated)
COc1ccc(-c2cc(=O)[n-]n2-c2c[nH+]cc(C)c2)cc1[N-]C(=O)Cc1ccncc1 (3D coordinates assigned)
COc1ccc(-c2cc(=O)[n-]n2-c2c[nH+]cc(C)c2)cc1[N-]C(=O)Cc1ccncc1 (optimized conformer: 97.57592311280183 kcal/mol)

>  <smiles>  (1) 
COc1ccc(-c2cc(=O)[nH]n2-c2cncc(C)c2)cc1NC(=O)Cc1ccncc1

>  <score_type>  (1) 
oracle

>  <origin>  (1) 
adg

>  <m_score__min__energy>  (1) 
-10.19

>  <m_primary>  (1) 
energy

$$$$
1:0
     RDKit          3D

 38 40  0  0  0  0  0  0  0  0999 V2000
   56.6820   32.3390   50.1130 H   0  0  0  0  0  0  0  0  0  0  0  0
   57.5770   31.9340   50.3600 O   0  0  0  0  0  0  0  0  0  0  0  0
   58.6600   31.9720   49.4840 C   0  0  0  0  0  0  0  0  0  0  0  0
   59.5380   33.0580   49.5190 C   0  0  0  0  0  0  0  0  0  0  0  0
   59.3719   33.8746   50.2371 H   0  0  0  0  0  0  0  0  0  0  0  0
   60.6260   33.1100   48.6450 C   0  0  0  0  0  0  0  0  0  0  0  0
   61.3123   33.9692   48.6745 H   0  0  0  0  0  0  0  0  0  0  0  0
   60.8460   32.0730   47.7320 C   0  0  0  0  0  0  0  0  0  0  0  0
   61.9250   32.1370   46.9110 F   0  0  0  0  0  0  0  0  0  0  0  0
   59.9770   30.9660   47.6960 C   0  0  0  0  0  0  0  0  0  0  0  0
   60.2150   29.8520   46.7480 C   0  0  0  0  0  0  0  0  0  0  0  0
   61.2280   29.8900   45.9980 O   0  0  0  0  0  0  0  0  0  0  0  0
   59.2810   28.7150   46.6090 C   0  0  0  0  0  0  0  0  0  0  0  0
   59.3360   27.6350   47.4110 N   0  0  0  0  0  0  0  0  0  0  0  0
   58.3280   26.8520   46.9750 C   0  0  0  0  0  0  0  0  0  0  0  0
   58.0490   25.6680   47.5120 C   0  0  0  0  0  0  0  0  0  0  0  0
   57.2150   25.0684   47.1185 H   0  0  0  0  0  0  0  0  0  0  0  0
   58.6522   25.2882   48.3498 H   0  0  0  0  0  0  0  0  0  0  0  0
   57.6220   27.3790   45.9530 N   0  0  0  0  0  0  0  0  0  0  0  0
   58.2190   28.5650   45.7230 C   0  0  0  0  0  0  0  0  0  0  0  0
   57.7880   29.4610   44.8190 C   0  0  0  0  0  0  0  0  0  0  0  0
   58.4832   29.7633   44.0220 H   0  0  0  0  0  0  0  0  0  0  0  0
   56.4360   30.0680   44.8270 C   0  0  0  0  0  0  0  0  0  0  0  0
   55.4080   29.3420   44.8560 O   0  0  0  0  0  0  0  0  0  0  0  0
   56.2650   31.4880   44.7170 N   0  0  0  0  0  0  0  0  0  0  0  0
   57.2210   32.4890   45.0950 C   0  0  0  0  0  0  0  0  0  0  0  0
   57.1610   33.1300   46.3460 C   0  0  0  0  0  0  0  0  0  0  0  0
   56.3717   32.8599   47.0630 H   0  0  0  0  0  0  0  0  0  0  0  0
   58.1010   34.1090   46.6810 C   0  0  0  0  0  0  0  0  0  0  0  0
   58.0607   34.5954   47.6668 H   0  0  0  0  0  0  0  0  0  0  0  0
   59.0920   34.4700   45.7640 C   0  0  0  0  0  0  0  0  0  0  0  0
   59.8360   35.2349   46.0311 H   0  0  0  0  0  0  0  0  0  0  0  0
   59.1380   33.8590   44.5070 C   0  0  0  0  0  0  0  0  0  0  0  0
   59.9133   34.1494   43.7828 H   0  0  0  0  0  0  0  0  0  0  0  0
   58.1990   32.8790   44.1700 C   0  0  0  0  0  0  0  0  0  0  0  0
   58.2281   32.4121   43.1744 H   0  0  0  0  0  0  0  0  0  0  0  0
   58.8770   30.9300   48.5710 C   0  0  0  0  0  0  0  0  0  0  0  0
   58.1816   30.0783   48.5391 H   0  0  0  0  0  0  0  0  0  0  0  0
  1  2  1  0
  2  3  1  0
  3  4  2  0
  4  5  1  0
  4  6  1  0
  6  7  1  0
  6  8  2  0
  8  9  1  0
  8 10  1  0
 10 11  1  0
 11 12  2  0
 11 13  1  0
 13 14  2  0
 14 15  1  0
 15 16  2  0
 16 17  1  0
 16 18  1  0
 15 19  1  0
 19 20  1  0
 20 21  2  0
 21 22  1  0
 21 23  1  0
 23 24  2  0
 23 25  1  0
 25 26  1  0
 26 27  2  0
 27 28  1  0
 27 29  1  0
 29 30  1  0
 29 31  2  0
 31 32  1  0
 31 33  1  0
 33 34  1  0
 33 35  2  0
 35 36  1  0
 10 37  2  0
 37 38  1  0
 37  3  1  0
 20 13  1  0
 35 26  1  0
M  CHG  2  19  -1  25  -1
M  END
>  <UniqueID>  (2) 
2

>  <SMILES>  (2) 
C=c1nc(C(=O)c2cc(O)ccc2F)/c(=C/C(=O)[N-]c2ccccc2)[n-]1

>  <Energy>  (2) 
79.58283085294978

>  <Genealogy>  (2) 
C=c1nc(C(=O)c2cc(O)ccc2F)c(=CC(=O)[N-]c2ccccc2)[n-]1 (protonated)
C=c1nc(C(=O)c2cc(O)ccc2F)/c(=C/C(=O)[N-]c2ccccc2)[n-]1 (cis-trans isomerization)
C=c1nc(C(=O)c2cc(O)ccc2F)/c(=C/C(=O)[N-]c2ccccc2)[n-]1 (3D coordinates assigned)
C=c1nc(C(=O)c2cc(O)ccc2F)/c(=C/C(=O)[N-]c2ccccc2)[n-]1 (optimized conformer: 79.58283085294978 kcal/mol)

>  <smiles>  (2) 
C=c1nc(C(=O)c2cc(O)ccc2F)c(=CC(=O)Nc2ccccc2)[nH]1

>  <score_type>  (2) 
oracle

>  <origin>  (2) 
adg

>  <m_score__min__energy>  (2) 
-12.18

>  <m_primary>  (2) 
energy

$$$$
2:0
     RDKit          3D

 62 65  0  0  0  0  0  0  0  0999 V2000
   54.3120   23.8610   46.0540 C   0  0  0  0  0  0  0  0  0  0  0  0
   55.4740   24.3860   46.4450 C   0  0  0  0  0  0  0  0  0  0  0  0
   56.5380   23.7510   47.2270 C   0  0  0  0  0  0  0  0  0  0  0  0
   56.5500   22.3670   47.7500 C   0  0  0  0  0  0  0  0  0  0  0  0
   57.3370   21.5320   47.2300 O   0  0  0  0  0  0  0  0  0  0  0  0
   55.6800   21.9480   48.8240 N   0  0  0  0  0  0  0  0  0  0  0  0
   54.3890   22.6020   49.0700 C   0  0  0  0  0  0  0  0  0  0  0  0
   53.3040   21.5360   49.2530 C   0  0  0  0  0  0  0  0  0  0  0  0
   53.6150   20.5450   50.3190 N   0  0  0  0  0  0  0  0  0  0  0  0
   53.1060   19.2020   49.9640 C   0  0  0  0  0  0  0  0  0  0  0  0
   52.8480   19.0860   48.4620 C   0  0  0  0  0  0  0  0  0  0  0  0
   55.0370   20.5250   50.7490 C   0  0  0  0  0  0  0  0  0  0  0  0
   56.0140   20.7350   49.5840 C   0  0  0  0  0  0  0  0  0  0  0  0
   57.5040   24.6520   47.4070 C   0  0  0  0  0  0  0  0  0  0  0  0
   57.1140   25.9180   46.7710 C   0  0  0  0  0  0  0  0  0  0  0  0
   57.8900   27.1730   46.8570 C   0  0  0  0  0  0  0  0  0  0  0  0
   58.1400   27.6560   47.9930 O   0  0  0  0  0  0  0  0  0  0  0  0
   58.3310   27.8840   45.6930 N   0  0  0  0  0  0  0  0  0  0  0  0
   57.9820   29.2330   45.3630 C   0  0  0  0  0  0  0  0  0  0  0  0
   57.0500   29.4660   44.3460 C   0  0  0  0  0  0  0  0  0  0  0  0
   56.7200   30.7720   43.9780 C   0  0  0  0  0  0  0  0  0  0  0  0
   57.2970   31.8560   44.6450 C   0  0  0  0  0  0  0  0  0  0  0  0
   58.1940   31.6400   45.7050 C   0  0  0  0  0  0  0  0  0  0  0  0
   58.7730   32.7870   46.4370 C   0  0  0  0  0  0  0  0  0  0  0  0
   58.0460   33.7860   46.6910 O   0  0  0  0  0  0  0  0  0  0  0  0
   60.1510   32.7850   46.8590 N   0  0  0  0  0  0  0  0  0  0  0  0
   60.8800   34.0570   46.8970 C   0  0  0  0  0  0  0  0  0  0  0  0
   62.3230   33.8310   47.3500 C   0  0  0  0  0  0  0  0  0  0  0  0
   62.8260   32.6680   46.7360 O   0  0  0  0  0  0  0  0  0  0  0  0
   62.2440   31.5120   47.3190 C   0  0  0  0  0  0  0  0  0  0  0  0
   60.7150   31.6100   47.5360 C   0  0  0  0  0  0  0  0  0  0  0  0
   58.5460   30.3230   46.0500 C   0  0  0  0  0  0  0  0  0  0  0  0
   55.9100   25.7550   46.2280 C   0  0  0  0  0  0  0  0  0  0  0  0
   55.1490   26.7470   45.6170 O   0  0  0  0  0  0  0  0  0  0  0  0
   53.6058   24.4651   45.4655 H   0  0  0  0  0  0  0  0  0  0  0  0
   54.0598   22.8239   46.3200 H   0  0  0  0  0  0  0  0  0  0  0  0
   54.4566   23.2165   49.9798 H   0  0  0  0  0  0  0  0  0  0  0  0
   54.1331   23.2428   48.2133 H   0  0  0  0  0  0  0  0  0  0  0  0
   52.3613   22.0404   49.5116 H   0  0  0  0  0  0  0  0  0  0  0  0
   53.2355   20.9801   48.3063 H   0  0  0  0  0  0  0  0  0  0  0  0
   53.8497   18.4472   50.2593 H   0  0  0  0  0  0  0  0  0  0  0  0
   52.1556   19.0394   50.4935 H   0  0  0  0  0  0  0  0  0  0  0  0
   51.8566   18.6402   48.2936 H   0  0  0  0  0  0  0  0  0  0  0  0
   52.8826   20.0863   48.0057 H   0  0  0  0  0  0  0  0  0  0  0  0
   53.6192   18.4480   48.0057 H   0  0  0  0  0  0  0  0  0  0  0  0
   55.1924   21.3261   51.4866 H   0  0  0  0  0  0  0  0  0  0  0  0
   55.2397   19.5318   51.1762 H   0  0  0  0  0  0  0  0  0  0  0  0
   57.0342   20.8314   49.9839 H   0  0  0  0  0  0  0  0  0  0  0  0
   55.9430   19.8696   48.9087 H   0  0  0  0  0  0  0  0  0  0  0  0
   58.4458   24.4753   47.9472 H   0  0  0  0  0  0  0  0  0  0  0  0
   56.5749   28.6164   43.8338 H   0  0  0  0  0  0  0  0  0  0  0  0
   56.0044   30.9479   43.1614 H   0  0  0  0  0  0  0  0  0  0  0  0
   57.0480   32.8828   44.3390 H   0  0  0  0  0  0  0  0  0  0  0  0
   60.8814   34.5041   45.8920 H   0  0  0  0  0  0  0  0  0  0  0  0
   60.3836   34.7316   47.6101 H   0  0  0  0  0  0  0  0  0  0  0  0
   62.9388   34.6953   47.0604 H   0  0  0  0  0  0  0  0  0  0  0  0
   62.3522   33.7130   48.4433 H   0  0  0  0  0  0  0  0  0  0  0  0
   62.4442   30.6552   46.6589 H   0  0  0  0  0  0  0  0  0  0  0  0
   62.6972   31.3990   48.3149 H   0  0  0  0  0  0  0  0  0  0  0  0
   60.2380   30.7032   47.1356 H   0  0  0  0  0  0  0  0  0  0  0  0
   60.5244   31.7080   48.6149 H   0  0  0  0  0  0  0  0  0  0  0  0
   59.2665   30.1443   46.8617 H   0  0  0  0  0  0  0  0  0  0  0  0
  1  2  2  0
  2  3  1  0
  3  4  1  0
  4  5  2  0
  4  6  1  0
  6  7  1  0
  7  8  1  0
  8  9  1  0
  9 10  1  0
 10 11  1  0
  9 12  1  0
 12 13  1  0
  3 14  2  0
 14 15  1  0
 15 16  1  0
 16 17  2  0
 16 18  1  0
 18 19  1  0
 19 20  2  0
 20 21  1  0
 21 22  2  0
 22 23  1  0
 23 24  1  0
 24 25  2  0
 24 26  1  0
 26 27  1  0
 27 28  1  0
 28 29  1  0
 29 30  1  0
 30 31  1  0
 23 32  2  0
 15 33  2  0
 33 34  1  0
 33  2  1  0
 13  6  1  0
 32 19  1  0
 31 26  1  0
  1 35  1  0
  1 36  1  0
  7 37  1  0
  7 38  1  0
  8 39  1  0
  8 40  1  0
 10 41  1  0
 10 42  1  0
 11 43  1  0
 11 44  1  0
 11 45  1  0
 12 46  1  0
 12 47  1  0
 13 48  1  0
 13 49  1  0
 14 50  1  0
 20 51  1  0
 21 52  1  0
 22 53  1  0
 27 54  1  0
 27 55  1  0
 28 56  1  0
 28 57  1  0
 30 58  1  0
 30 59  1  0
 31 60  1  0
 31 61  1  0
 32 62  1  0
M  CHG  2  18  -1  34  -1
M  END
>  <UniqueID>  (3) 
3

>  <SMILES>  (3) 
C=C1C(C(=O)N2CCN(CC)CC2)=CC(C(=O)[N-]c2cccc(C(=O)N3CCOCC3)c2)=C1[O-]

>  <Energy>  (3) 
114.02212217834035

>  <Genealogy>  (3) 
C=C1C(C(=O)N2CCN(CC)CC2)=CC(C(=O)[N-]c2cccc(C(=O)N3CCOCC3)c2)=C1[O-] (protonated)
C=C1C(C(=O)N2CCN(CC)CC2)=CC(C(=O)[N-]c2cccc(C(=O)N3CCOCC3)c2)=C1[O-] (3D coordinates assigned)
C=C1C(C(=O)N2CCN(CC)CC2)=CC(C(=O)[N-]c2cccc(C(=O)N3CCOCC3)c2)=C1[O-] (nonaromatic ring conformer: 114.02212217834035 kcal/mol)

>  <smiles>  (3) 
C=C1C(C(=O)N2CCN(CC)CC2)=CC(C(=O)Nc2cccc(C(=O)N3CCOCC3)c2)=C1O

>  <score_type>  (3) 
oracle

>  <origin>  (3) 
adg

>  <m_score__min__energy>  (3) 
-13.44

>  <m_primary>  (3) 
energy

$$$$
3:0
     RDKit          3D

 61 64  0  0  0  0  0  0  0  0999 V2000
   55.7650   18.8540   47.0410 C   0  0  0  0  0  0  0  0  0  0  0  0
   54.6970   18.9010   45.9590 C   0  0  0  0  0  0  0  0  0  0  0  0
   54.7730   20.1420   45.2630 O   0  0  0  0  0  0  0  0  0  0  0  0
   55.9380   20.5810   44.6230 C   0  0  0  0  0  0  0  0  0  0  0  0
   56.2690   20.0840   43.5110 O   0  0  0  0  0  0  0  0  0  0  0  0
   56.7540   21.6030   45.2240 N   0  0  0  0  0  0  0  0  0  0  0  0
   57.9370   22.1030   44.5030 C   0  0  0  0  0  0  0  0  0  0  0  0
   58.5650   23.3010   45.2210 C   0  0  0  0  0  0  0  0  0  0  0  0
   57.5050   24.2200   45.6530 N   0  0  0  0  0  0  0  0  0  0  0  0
   57.4470   25.5710   45.1570 C   0  0  0  0  0  0  0  0  0  0  0  0
   58.1120   25.9190   43.9700 C   0  0  0  0  0  0  0  0  0  0  0  0
   58.1260   27.2460   43.5310 C   0  0  0  0  0  0  0  0  0  0  0  0
   57.4860   28.2470   44.2710 C   0  0  0  0  0  0  0  0  0  0  0  0
   57.6490   29.6130   43.8640 N   0  0  0  0  0  0  0  0  0  0  0  0
   57.3670   30.7530   44.6780 C   0  0  0  0  0  0  0  0  0  0  0  0
   56.1780   31.1440   44.8200 O   0  0  0  0  0  0  0  0  0  0  0  0
   58.4680   31.4730   45.3470 C   0  0  0  0  0  0  0  0  0  0  0  0
   58.6760   32.8370   45.3110 C   0  0  0  0  0  0  0  0  0  0  0  0
   59.7650   33.0380   46.1420 C   0  0  0  0  0  0  0  0  0  0  0  0
   60.3370   34.3680   46.5190 C   0  0  0  0  0  0  0  0  0  0  0  0
   59.9780   34.6820   47.8180 F   0  0  0  0  0  0  0  0  0  0  0  0
   61.7170   34.3160   46.4260 F   0  0  0  0  0  0  0  0  0  0  0  0
   59.8600   35.3500   45.6690 F   0  0  0  0  0  0  0  0  0  0  0  0
   60.1660   31.8640   46.6720 N   0  0  0  0  0  0  0  0  0  0  0  0
   59.3840   30.9190   46.1740 N   0  0  0  0  0  0  0  0  0  0  0  0
   59.4470   29.5510   46.5940 C   0  0  0  0  0  0  0  0  0  0  0  0
   58.8010   29.1670   47.7770 C   0  0  0  0  0  0  0  0  0  0  0  0
   58.9210   27.8580   48.2530 C   0  0  0  0  0  0  0  0  0  0  0  0
   59.6840   26.9250   47.5480 C   0  0  0  0  0  0  0  0  0  0  0  0
   60.3190   27.2930   46.3590 C   0  0  0  0  0  0  0  0  0  0  0  0
   60.2070   28.6060   45.8700 C   0  0  0  0  0  0  0  0  0  0  0  0
   60.8800   28.9870   44.5800 C   0  0  0  0  0  0  0  0  0  0  0  0
   56.8090   27.9000   45.4530 C   0  0  0  0  0  0  0  0  0  0  0  0
   56.7900   26.5730   45.8900 C   0  0  0  0  0  0  0  0  0  0  0  0
   56.3840   23.7040   46.4530 C   0  0  0  0  0  0  0  0  0  0  0  0
   56.4070   22.1720   46.5360 C   0  0  0  0  0  0  0  0  0  0  0  0
   55.2854   18.8751   48.0307 H   0  0  0  0  0  0  0  0  0  0  0  0
   56.3515   17.9292   46.9374 H   0  0  0  0  0  0  0  0  0  0  0  0
   56.4305   19.7237   46.9374 H   0  0  0  0  0  0  0  0  0  0  0  0
   54.8570   18.0744   45.2511 H   0  0  0  0  0  0  0  0  0  0  0  0
   53.7042   18.8034   46.4225 H   0  0  0  0  0  0  0  0  0  0  0  0
   58.6817   21.2963   44.4347 H   0  0  0  0  0  0  0  0  0  0  0  0
   57.6197   22.4278   43.5011 H   0  0  0  0  0  0  0  0  0  0  0  0
   59.1266   22.9496   46.0991 H   0  0  0  0  0  0  0  0  0  0  0  0
   59.2482   23.8238   44.5355 H   0  0  0  0  0  0  0  0  0  0  0  0
   58.6246   25.1431   43.3825 H   0  0  0  0  0  0  0  0  0  0  0  0
   58.6443   27.5058   42.5962 H   0  0  0  0  0  0  0  0  0  0  0  0
   58.1063   33.5924   44.7499 H   0  0  0  0  0  0  0  0  0  0  0  0
   58.1969   29.8988   48.3334 H   0  0  0  0  0  0  0  0  0  0  0  0
   58.4140   27.5629   49.1835 H   0  0  0  0  0  0  0  0  0  0  0  0
   59.7854   25.8982   47.9294 H   0  0  0  0  0  0  0  0  0  0  0  0
   60.9100   26.5508   45.8024 H   0  0  0  0  0  0  0  0  0  0  0  0
   61.8181   29.5181   44.7988 H   0  0  0  0  0  0  0  0  0  0  0  0
   61.0995   28.0792   43.9989 H   0  0  0  0  0  0  0  0  0  0  0  0
   60.2146   29.6424   43.9989 H   0  0  0  0  0  0  0  0  0  0  0  0
   56.2921   28.6763   46.0363 H   0  0  0  0  0  0  0  0  0  0  0  0
   56.2563   26.3109   46.8154 H   0  0  0  0  0  0  0  0  0  0  0  0
   56.4512   24.1176   47.4701 H   0  0  0  0  0  0  0  0  0  0  0  0
   55.4455   24.0080   45.9663 H   0  0  0  0  0  0  0  0  0  0  0  0
   57.1554   21.8584   47.2787 H   0  0  0  0  0  0  0  0  0  0  0  0
   55.4117   21.8112   46.8347 H   0  0  0  0  0  0  0  0  0  0  0  0
  1  2  1  0
  2  3  1  0
  3  4  1  0
  4  5  2  0
  4  6  1  0
  6  7  1  0
  7  8  1  0
  8  9  1  0
  9 10  1  0
 10 11  2  0
 11 12  1  0
 12 13  2  0
 13 14  1  0
 14 15  1  0
 15 16  2  0
 15 17  1  0
 17 18  2  0
 18 19  1  0
 19 20  1  0
 20 21  1  0
 20 22  1  0
 20 23  1  0
 19 24  2  0
 24 25  1  0
 25 26  1  0
 26 27  2  0
 27 28  1  0
 28 29  2  0
 29 30  1  0
 30 31  2  0
 31 32  1  0
 13 33  1  0
 33 34  2  0
  9 35  1  0
 35 36  1  0
 36  6  1  0
 34 10  1  0
 25 17  1  0
 31 26  1  0
  1 37  1  0
  1 38  1  0
  1 39  1  0
  2 40  1  0
  2 41  1  0
  7 42  1  0
  7 43  1  0
  8 44  1  0
  8 45  1  0
 11 46  1  0
 12 47  1  0
 18 48  1  0
 27 49  1  0
 28 50  1  0
 29 51  1  0
 30 52  1  0
 32 53  1  0
 32 54  1  0
 32 55  1  0
 33 56  1  0
 34 57  1  0
 35 58  1  0
 35 59  1  0
 36 60  1  0
 36 61  1  0
M  CHG  1  14  -1
M  END
>  <UniqueID>  (4) 
4

>  <SMILES>  (4) 
CCOC(=O)N1CCN(c2ccc([N-]C(=O)c3cc(C(F)(F)F)nn3-c3ccccc3C)cc2)CC1

>  <Energy>  (4) 
103.77546245821677

>  <Genealogy>  (4) 
CCOC(=O)N1CCN(c2ccc([N-]C(=O)c3cc(C(F)(F)F)nn3-c3ccccc3C)cc2)CC1 (protonated)
CCOC(=O)N1CCN(c2ccc([N-]C(=O)c3cc(C(F)(F)F)nn3-c3ccccc3C)cc2)CC1 (3D coordinates assigned)
CCOC(=O)N1CCN(c2ccc([N-]C(=O)c3cc(C(F)(F)F)nn3-c3ccccc3C)cc2)CC1 (nonaromatic ring conformer: 103.77546245821677 kcal/mol)

>  <smiles>  (4) 
CCOC(=O)N1CCN(c2ccc(NC(=O)c3cc(C(F)(F)F)nn3-c3ccccc3C)cc2)CC1

>  <score_type>  (4) 
oracle

>  <origin>  (4) 
adg

>  <m_score__min__energy>  (4) 
-8.5600000000000005

>  <m_primary>  (4) 
energy

$$$$
4:0
     RDKit          3D

 39 41  0  0  0  0  0  0  0  0999 V2000
   60.4860   27.5990   48.8500 C   0  0  0  0  0  0  0  0  0  0  0  0
   59.3070   27.4840   48.2300 C   0  0  0  0  0  0  0  0  0  0  0  0
   59.1940   27.0460   46.7950 C   0  0  0  0  0  0  0  0  0  0  0  0
   57.9840   27.6510   46.1230 C   0  0  0  0  0  0  0  0  0  0  0  0
   56.8010   27.0010   45.7560 C   0  0  0  0  0  0  0  0  0  0  0  0
   56.4710   25.5660   45.8750 C   0  0  0  0  0  0  0  0  0  0  0  0
   57.4410   24.4830   45.5220 C   0  0  0  0  0  0  0  0  0  0  0  0
   55.3130   25.2410   46.2500 O   0  0  0  0  0  0  0  0  0  0  0  0
   55.9080   27.8810   45.2580 N   0  0  0  0  0  0  0  0  0  0  0  0
   56.5150   29.0790   45.2900 C   0  0  0  0  0  0  0  0  0  0  0  0
   55.8980   30.2510   44.8660 O   0  0  0  0  0  0  0  0  0  0  0  0
   57.7910   28.9970   45.8130 C   0  0  0  0  0  0  0  0  0  0  0  0
   58.7270   30.1270   46.0190 C   0  0  0  0  0  0  0  0  0  0  0  0
   58.2700   31.3440   45.9050 N   0  0  0  0  0  0  0  0  0  0  0  0
   59.0030   32.5710   46.0590 C   0  0  0  0  0  0  0  0  0  0  0  0
   58.4000   33.7750   45.6700 C   0  0  0  0  0  0  0  0  0  0  0  0
   59.0740   34.9890   45.8380 C   0  0  0  0  0  0  0  0  0  0  0  0
   60.3510   35.0080   46.4070 C   0  0  0  0  0  0  0  0  0  0  0  0
   60.9540   33.8140   46.8110 C   0  0  0  0  0  0  0  0  0  0  0  0
   60.2810   32.5980   46.6380 C   0  0  0  0  0  0  0  0  0  0  0  0
   60.9970   31.0960   47.1560 S   0  0  0  0  0  0  0  0  0  0  0  0
   62.4740   31.0860   46.8840 O   0  0  0  0  0  0  0  0  0  0  0  0
   60.7380   30.8720   48.6190 O   0  0  0  0  0  0  0  0  0  0  0  0
   60.2020   29.8400   46.1860 C   0  0  0  0  0  0  0  0  0  0  0  0
   60.5257   27.9225   49.9006 H   0  0  0  0  0  0  0  0  0  0  0  0
   61.4163   27.3701   48.3095 H   0  0  0  0  0  0  0  0  0  0  0  0
   58.3883   27.7176   48.7881 H   0  0  0  0  0  0  0  0  0  0  0  0
   60.0981   27.3610   46.2533 H   0  0  0  0  0  0  0  0  0  0  0  0
   59.0866   25.9514   46.7766 H   0  0  0  0  0  0  0  0  0  0  0  0
   57.8420   24.0353   46.4433 H   0  0  0  0  0  0  0  0  0  0  0  0
   56.9281   23.7095   44.9316 H   0  0  0  0  0  0  0  0  0  0  0  0
   58.2661   24.9079   44.9316 H   0  0  0  0  0  0  0  0  0  0  0  0
   56.1820   31.1500   45.2390 H   0  0  0  0  0  0  0  0  0  0  0  0
   57.3917   33.7651   45.2304 H   0  0  0  0  0  0  0  0  0  0  0  0
   58.5990   35.9296   45.5222 H   0  0  0  0  0  0  0  0  0  0  0  0
   60.8811   35.9631   46.5366 H   0  0  0  0  0  0  0  0  0  0  0  0
   61.9561   33.8291   47.2644 H   0  0  0  0  0  0  0  0  0  0  0  0
   60.6742   29.8012   45.1933 H   0  0  0  0  0  0  0  0  0  0  0  0
   60.3118   28.8773   46.7068 H   0  0  0  0  0  0  0  0  0  0  0  0
  1  2  2  0
  2  3  1  0
  3  4  1  0
  4  5  2  0
  5  6  1  0
  6  7  1  0
  6  8  2  0
  5  9  1  0
  9 10  1  0
 10 11  1  0
 10 12  2  0
 12 13  1  0
 13 14  2  0
 14 15  1  0
 15 16  2  0
 16 17  1  0
 17 18  2  0
 18 19  1  0
 19 20  2  0
 20 21  1  0
 21 22  2  0
 21 23  2  0
 21 24  1  0
 12  4  1  0
 24 13  1  0
 20 15  1  0
  1 25  1  0
  1 26  1  0
  2 27  1  0
  3 28  1  0
  3 29  1  0
  7 30  1  0
  7 31  1  0
  7 32  1  0
 11 33  1  0
 16 34  1  0
 17 35  1  0
 18 36  1  0
 19 37  1  0
 24 38  1  0
 24 39  1  0
M  CHG  1   9  -1
M  END
>  <UniqueID>  (5) 
5

>  <SMILES>  (5) 
C=CCc1c(C(C)=O)[n-]c(O)c1C1=Nc2ccccc2S(=O)(=O)C1

>  <Energy>  (5) 
70.81327696427358

>  <Genealogy>  (5) 
C=CCc1c(C(C)=O)[n-]c(O)c1C1=Nc2ccccc2S(=O)(=O)C1 (protonated)
C=CCc1c(C(C)=O)[n-]c(O)c1C1=Nc2ccccc2S(=O)(=O)C1 (3D coordinates assigned)
C=CCc1c(C(C)=O)[n-]c(O)c1C1=Nc2ccccc2S(=O)(=O)C1 (nonaromatic ring conformer: 70.81327696427358 kcal/mol)

>  <smiles>  (5) 
C=CCc1c(C(C)=O)[nH]c(O)c1C1=Nc2ccccc2S(=O)(=O)C1

>  <score_type>  (5) 
oracle

>  <origin>  (5) 
adg

>  <m_score__min__energy>  (5) 
-10.57

>  <m_primary>  (5) 
energy

$$$$
5:0
     RDKit          3D

 32 34  0  0  0  0  0  0  0  0999 V2000
   56.0890   35.2510   45.1970 H   0  0  0  0  0  0  0  0  0  0  0  0
   56.8780   34.6560   44.8610 N   0  0  0  0  0  0  0  0  0  0  0  0
   57.5220   33.8120   45.6050 C   0  0  0  0  0  0  0  0  0  0  0  0
   57.9240   34.2110   46.8390 N   0  0  0  0  0  0  0  0  0  0  0  0
   58.6100   33.3950   47.6790 C   0  0  0  0  0  0  0  0  0  0  0  0
   58.9252   33.7659   48.6654 H   0  0  0  0  0  0  0  0  0  0  0  0
   58.9190   32.0830   47.2970 C   0  0  0  0  0  0  0  0  0  0  0  0
   59.6600   31.2030   48.2310 C   0  0  0  0  0  0  0  0  0  0  0  0
   58.9930   30.1650   48.9040 C   0  0  0  0  0  0  0  0  0  0  0  0
   57.9166   30.0092   48.7395 H   0  0  0  0  0  0  0  0  0  0  0  0
   59.6910   29.3290   49.7820 C   0  0  0  0  0  0  0  0  0  0  0  0
   59.1622   28.5220   50.3103 H   0  0  0  0  0  0  0  0  0  0  0  0
   61.0600   29.5190   49.9880 C   0  0  0  0  0  0  0  0  0  0  0  0
   61.6072   28.8636   50.6816 H   0  0  0  0  0  0  0  0  0  0  0  0
   61.7340   30.5390   49.3150 C   0  0  0  0  0  0  0  0  0  0  0  0
   62.8125   30.6838   49.4755 H   0  0  0  0  0  0  0  0  0  0  0  0
   61.0400   31.3770   48.4370 C   0  0  0  0  0  0  0  0  0  0  0  0
   61.5763   32.1764   47.9047 H   0  0  0  0  0  0  0  0  0  0  0  0
   58.5120   31.6310   46.0280 C   0  0  0  0  0  0  0  0  0  0  0  0
   58.8490   30.3330   45.6180 O   0  0  0  0  0  0  0  0  0  0  0  0
   58.0080   29.2170   45.7420 C   0  0  0  0  0  0  0  0  0  0  0  0
   56.7320   29.2650   45.1710 C   0  0  0  0  0  0  0  0  0  0  0  0
   56.4020   30.1725   44.6441 H   0  0  0  0  0  0  0  0  0  0  0  0
   55.8970   28.1950   45.2640 N   0  0  0  0  0  0  0  0  0  0  0  0
   56.2660   27.0530   45.9010 C   0  0  0  0  0  0  0  0  0  0  0  0
   55.4640   26.0850   45.9670 O   0  0  0  0  0  0  0  0  0  0  0  0
   57.5350   26.9540   46.4790 C   0  0  0  0  0  0  0  0  0  0  0  0
   57.8406   26.0316   46.9945 H   0  0  0  0  0  0  0  0  0  0  0  0
   58.4100   28.0380   46.3950 C   0  0  0  0  0  0  0  0  0  0  0  0
   59.4139   27.9703   46.8395 H   0  0  0  0  0  0  0  0  0  0  0  0
   57.8200   32.5040   45.1630 C   0  0  0  0  0  0  0  0  0  0  0  0
   57.4150   31.9770   43.5260 Cl  0  0  0  0  0  0  0  0  0  0  0  0
  1  2  1  0
  2  3  2  0
  3  4  1  0
  4  5  1  0
  5  6  1  0
  5  7  2  0
  7  8  1  0
  8  9  2  0
  9 10  1  0
  9 11  1  0
 11 12  1  0
 11 13  2  0
 13 14  1  0
 13 15  1  0
 15 16  1  0
 15 17  2  0
 17 18  1  0
  7 19  1  0
 19 20  1  0
 20 21  1  0
 21 22  2  0
 22 23  1  0
 22 24  1  0
 24 25  1  0
 25 26  2  0
 25 27  1  0
 27 28  1  0
 27 29  2  0
 29 30  1  0
 19 31  2  0
 31 32  1  0
 31  3  1  0
 17  8  1  0
 29 21  1  0
M  CHG  2   4  -1  24  -1
M  END
>  <UniqueID>  (6) 
6

>  <SMILES>  (6) 
[H]/N=c1/[n-]cc(-c2ccccc2)c(Oc2ccc(=O)[n-]c2)c1Cl

>  <Energy>  (6) 
53.431093879492124

>  <Genealogy>  (6) 
N=c1[n-]cc(-c2ccccc2)c(Oc2ccc(=O)[n-]c2)c1Cl (protonated)
[H]/N=c1/[n-]cc(-c2ccccc2)c(Oc2ccc(=O)[n-]c2)c1Cl (cis-trans isomerization)
[H]/N=c1/[n-]cc(-c2ccccc2)c(Oc2ccc(=O)[n-]c2)c1Cl (3D coordinates assigned)
[H]/N=c1/[n-]cc(-c2ccccc2)c(Oc2ccc(=O)[n-]c2)c1Cl (optimized conformer: 53.431093879492124 kcal/mol)

>  <smiles>  (6) 
N=c1[nH]cc(-c2ccccc2)c(Oc2ccc(=O)[nH]c2)c1Cl

>  <score_type>  (6) 
oracle

>  <origin>  (6) 
adg

>  <m_score__min__energy>  (6) 
-9.5299999999999994

>  <m_primary>  (6) 
energy

$$$$
6:0
     RDKit          3D

 59 62  0  0  0  0  0  0  0  0999 V2000
   62.5890   30.5900   52.6870 C   0  0  0  0  0  0  0  0  0  0  0  0
   63.3520   31.6670   52.1530 O   0  0  0  0  0  0  0  0  0  0  0  0
   63.2490   32.1240   50.8300 C   0  0  0  0  0  0  0  0  0  0  0  0
   63.5010   33.4600   50.4780 C   0  0  0  0  0  0  0  0  0  0  0  0
   63.3940   33.8630   49.1560 C   0  0  0  0  0  0  0  0  0  0  0  0
   63.0230   32.9540   48.1520 C   0  0  0  0  0  0  0  0  0  0  0  0
   62.9940   33.4020   46.7060 C   0  0  0  0  0  0  0  0  0  0  0  0
   61.8290   34.2400   46.4490 N   0  0  0  0  0  0  0  0  0  0  0  0
   60.6100   34.1380   47.1940 C   0  0  0  0  0  0  0  0  0  0  0  0
   60.5840   34.4420   48.4220 O   0  0  0  0  0  0  0  0  0  0  0  0
   59.3790   33.7250   46.5170 C   0  0  0  0  0  0  0  0  0  0  0  0
   58.0890   34.0060   46.9290 C   0  0  0  0  0  0  0  0  0  0  0  0
   57.2250   33.2100   46.2980 N   0  0  0  0  0  0  0  0  0  0  0  0
   57.9730   32.2990   45.6350 C   0  0  0  0  0  0  0  0  0  0  0  0
   57.5120   30.9020   45.4710 C   0  0  0  0  0  0  0  0  0  0  0  0
   56.3770   30.7130   44.7240 N   0  0  0  0  0  0  0  0  0  0  0  0
   55.8110   29.4930   44.6110 C   0  0  0  0  0  0  0  0  0  0  0  0
   54.7610   29.3450   43.9290 O   0  0  0  0  0  0  0  0  0  0  0  0
   56.3400   28.4200   45.2440 N   0  0  0  0  0  0  0  0  0  0  0  0
   57.4420   28.5390   46.0250 C   0  0  0  0  0  0  0  0  0  0  0  0
   57.9330   27.5070   46.5580 O   0  0  0  0  0  0  0  0  0  0  0  0
   58.0720   29.7950   46.1930 C   0  0  0  0  0  0  0  0  0  0  0  0
   59.4120   29.8680   46.9020 C   0  0  0  0  0  0  0  0  0  0  0  0
   59.6190   28.7590   47.9340 N   0  0  1  0  0  0  0  0  0  0  0  0
   60.5900   27.7020   47.5400 C   0  0  0  0  0  0  0  0  0  0  0  0
   60.0850   29.3330   49.1950 C   0  0  0  0  0  0  0  0  0  0  0  0
   61.0580   28.7770   49.8290 O   0  0  0  0  0  0  0  0  0  0  0  0
   59.3770   30.4320   49.9230 C   0  0  0  0  0  0  0  0  0  0  0  0
   58.3780   30.0600   50.8630 C   0  0  0  0  0  0  0  0  0  0  0  0
   57.6570   31.0140   51.5710 C   0  0  0  0  0  0  0  0  0  0  0  0
   57.8890   32.3630   51.3520 C   0  0  0  0  0  0  0  0  0  0  0  0
   58.8570   32.7680   50.4090 C   0  0  0  0  0  0  0  0  0  0  0  0
   59.5830   31.8140   49.6900 C   0  0  0  0  0  0  0  0  0  0  0  0
   59.2980   32.6830   45.6240 C   0  0  0  0  0  0  0  0  0  0  0  0
   62.7690   31.6120   48.5020 C   0  0  0  0  0  0  0  0  0  0  0  0
   62.8780   31.2080   49.8300 C   0  0  0  0  0  0  0  0  0  0  0  0
   62.6174   30.6300   53.7859 H   0  0  0  0  0  0  0  0  0  0  0  0
   61.5472   30.6732   52.3438 H   0  0  0  0  0  0  0  0  0  0  0  0
   63.0130   29.6348   52.3438 H   0  0  0  0  0  0  0  0  0  0  0  0
   63.7838   34.1879   51.2527 H   0  0  0  0  0  0  0  0  0  0  0  0
   63.6027   34.9097   48.8896 H   0  0  0  0  0  0  0  0  0  0  0  0
   63.9067   33.9758   46.4874 H   0  0  0  0  0  0  0  0  0  0  0  0
   62.9387   32.5124   46.0614 H   0  0  0  0  0  0  0  0  0  0  0  0
   57.8159   34.7732   47.6684 H   0  0  0  0  0  0  0  0  0  0  0  0
   56.2420   33.0400   46.6060 H   0  0  0  0  0  0  0  0  0  0  0  0
   60.2092   29.7944   46.1476 H   0  0  0  0  0  0  0  0  0  0  0  0
   59.4379   30.8239   47.4457 H   0  0  0  0  0  0  0  0  0  0  0  0
   58.6620   28.3070   48.0790 H   0  0  0  0  0  0  0  0  0  0  0  0
   61.0149   27.2394   48.4430 H   0  0  0  0  0  0  0  0  0  0  0  0
   60.0749   26.9351   46.9429 H   0  0  0  0  0  0  0  0  0  0  0  0
   61.3978   28.1503   46.9429 H   0  0  0  0  0  0  0  0  0  0  0  0
   58.1709   28.9933   51.0339 H   0  0  0  0  0  0  0  0  0  0  0  0
   56.9016   30.6984   52.3057 H   0  0  0  0  0  0  0  0  0  0  0  0
   57.3185   33.1175   51.9134 H   0  0  0  0  0  0  0  0  0  0  0  0
   59.0413   33.8390   50.2388 H   0  0  0  0  0  0  0  0  0  0  0  0
   60.3184   32.1383   48.9390 H   0  0  0  0  0  0  0  0  0  0  0  0
   60.1145   32.2486   45.0285 H   0  0  0  0  0  0  0  0  0  0  0  0
   62.4851   30.8850   47.7268 H   0  0  0  0  0  0  0  0  0  0  0  0
   62.6718   30.1616   50.0995 H   0  0  0  0  0  0  0  0  0  0  0  0
  1  2  1  0
  2  3  1  0
  3  4  2  0
  4  5  1  0
  5  6  2  0
  6  7  1  0
  7  8  1  0
  8  9  1  0
  9 10  2  0
  9 11  1  0
 11 12  2  0
 12 13  1  0
 13 14  1  0
 14 15  1  0
 15 16  1  0
 16 17  1  0
 17 18  2  0
 17 19  1  0
 19 20  1  0
 20 21  2  0
 20 22  1  0
 22 23  1  0
 23 24  1  0
 24 25  1  0
 24 26  1  0
 26 27  2  0
 26 28  1  0
 28 29  2  0
 29 30  1  0
 30 31  2  0
 31 32  1  0
 32 33  2  0
 14 34  2  0
  6 35  1  0
 35 36  2  0
 36  3  1  0
 34 11  1  0
 22 15  2  0
 33 28  1  0
  1 37  1  0
  1 38  1  0
  1 39  1  0
  4 40  1  0
  5 41  1  0
  7 42  1  0
  7 43  1  0
 12 44  1  0
 13 45  1  0
 23 46  1  0
 23 47  1  0
 24 48  1  1
 25 49  1  0
 25 50  1  0
 25 51  1  0
 29 52  1  0
 30 53  1  0
 31 54  1  0
 32 55  1  0
 33 56  1  0
 34 57  1  0
 35 58  1  0
 36 59  1  0
M  CHG  4   8  -1  16  -1  19  -1  24   1
M  END
>  <UniqueID>  (7) 
7

>  <SMILES>  (7) 
COc1ccc(C[N-]C(=O)c2c[nH]c(-c3[n-]c(=O)[n-]c(=O)c3C[N@@H+](C)C(=O)c3ccccc3)c2)cc1

>  <Energy>  (7) 
127.6553343365908

>  <Genealogy>  (7) 
COc1ccc(C[N-]C(=O)c2c[nH]c(-c3[n-]c(=O)[n-]c(=O)c3C[NH+](C)C(=O)c3ccccc3)c2)cc1 (protonated)
COc1ccc(C[N-]C(=O)c2c[nH]c(-c3[n-]c(=O)[n-]c(=O)c3C[N@@H+](C)C(=O)c3ccccc3)c2)cc1 (chirality)
COc1ccc(C[N-]C(=O)c2c[nH]c(-c3[n-]c(=O)[n-]c(=O)c3C[N@@H+](C)C(=O)c3ccccc3)c2)cc1 (3D coordinates assigned)
COc1ccc(C[N-]C(=O)c2c[nH]c(-c3[n-]c(=O)[n-]c(=O)c3C[N@@H+](C)C(=O)c3ccccc3)c2)cc1 (optimized conformer: 127.6553343365908 kcal/mol)

>  <smiles>  (7) 
COc1ccc(CNC(=O)c2c[nH]c(-c3[nH]c(=O)[nH]c(=O)c3CN(C)C(=O)c3ccccc3)c2)cc1

>  <score_type>  (7) 
oracle

>  <origin>  (7) 
adg

>  <m_score__min__energy>  (7) 
-12.18

>  <m_primary>  (7) 
energy

$$$$
7:0
     RDKit          3D

 40 42  0  0  0  0  0  0  0  0999 V2000
   62.2840   30.8580   47.5500 C   0  0  0  0  0  0  0  0  0  0  0  0
   60.9010   30.2980   47.4790 C   0  0  0  0  0  0  0  0  0  0  0  0
   60.1010   30.5040   48.4320 O   0  0  0  0  0  0  0  0  0  0  0  0
   60.4680   29.6120   46.2950 N   0  0  0  0  0  0  0  0  0  0  0  0
   59.1790   28.9840   46.1670 C   0  0  0  0  0  0  0  0  0  0  0  0
   58.8940   27.7960   46.8530 C   0  0  0  0  0  0  0  0  0  0  0  0
   57.6510   27.1770   46.7130 C   0  0  0  0  0  0  0  0  0  0  0  0
   56.6740   27.7260   45.8790 C   0  0  0  0  0  0  0  0  0  0  0  0
   55.4490   27.0740   45.7730 O   0  0  0  0  0  0  0  0  0  0  0  0
   56.9410   28.9170   45.1660 C   0  0  0  0  0  0  0  0  0  0  0  0
   55.9960   29.5210   44.3050 C   0  0  0  0  0  0  0  0  0  0  0  0
   54.8560   29.0140   44.1260 O   0  0  0  0  0  0  0  0  0  0  0  0
   56.3200   30.7050   43.6370 C   0  0  0  0  0  0  0  0  0  0  0  0
   57.5750   31.2960   43.8280 C   0  0  0  0  0  0  0  0  0  0  0  0
   57.9310   32.5490   43.1250 C   0  0  0  0  0  0  0  0  0  0  0  0
   57.7810   32.6150   41.8770 O   0  0  0  0  0  0  0  0  0  0  0  0
   58.4340   33.7070   43.8100 N   0  0  0  0  0  0  0  0  0  0  0  0
   57.7710   34.4610   44.8730 C   0  0  0  0  0  0  0  0  0  0  0  0
   58.3410   34.1140   46.2270 C   0  0  0  0  0  0  0  0  0  0  0  0
   57.8000   33.0490   46.9680 C   0  0  0  0  0  0  0  0  0  0  0  0
   58.3190   32.7250   48.2240 C   0  0  0  0  0  0  0  0  0  0  0  0
   59.3950   33.4490   48.7440 C   0  0  0  0  0  0  0  0  0  0  0  0
   59.9580   34.4930   48.0050 C   0  0  0  0  0  0  0  0  0  0  0  0
   59.4400   34.8230   46.7490 C   0  0  0  0  0  0  0  0  0  0  0  0
   60.0100   35.8320   46.0420 F   0  0  0  0  0  0  0  0  0  0  0  0
   58.4750   30.6920   44.6440 N   0  0  0  0  0  0  0  0  0  0  0  0
   58.2070   29.5380   45.3130 C   0  0  0  0  0  0  0  0  0  0  0  0
   62.5778   30.9770   48.6033 H   0  0  0  0  0  0  0  0  0  0  0  0
   62.9834   30.1722   47.0495 H   0  0  0  0  0  0  0  0  0  0  0  0
   62.3092   31.8372   47.0495 H   0  0  0  0  0  0  0  0  0  0  0  0
   61.0830   29.6640   45.4520 H   0  0  0  0  0  0  0  0  0  0  0  0
   59.6562   27.3476   47.5072 H   0  0  0  0  0  0  0  0  0  0  0  0
   57.4388   26.2489   47.2641 H   0  0  0  0  0  0  0  0  0  0  0  0
   55.5890   31.1728   42.9611 H   0  0  0  0  0  0  0  0  0  0  0  0
   57.9104   35.5367   44.6902 H   0  0  0  0  0  0  0  0  0  0  0  0
   56.7020   34.2016   44.8687 H   0  0  0  0  0  0  0  0  0  0  0  0
   56.9624   32.4668   46.5562 H   0  0  0  0  0  0  0  0  0  0  0  0
   57.8803   31.8995   48.8038 H   0  0  0  0  0  0  0  0  0  0  0  0
   59.7991   33.1971   49.7356 H   0  0  0  0  0  0  0  0  0  0  0  0
   60.8105   35.0563   48.4124 H   0  0  0  0  0  0  0  0  0  0  0  0
  1  2  1  0
  2  3  2  0
  2  4  1  0
  4  5  1  0
  5  6  2  0
  6  7  1  0
  7  8  2  0
  8  9  1  0
  8 10  1  0
 10 11  1  0
 11 12  2  0
 11 13  1  0
 13 14  2  0
 14 15  1  0
 15 16  2  0
 15 17  1  0
 17 18  1  0
 18 19  1  0
 19 20  2  0
 20 21  1  0
 21 22  2  0
 22 23  1  0
 23 24  2  0
 24 25  1  0
 14 26  1  0
 26 27  1  0
 27  5  1  0
 27 10  2  0
 24 19  1  0
  1 28  1  0
  1 29  1  0
  1 30  1  0
  4 31  1  0
  6 32  1  0
  7 33  1  0
 13 34  1  0
 18 35  1  0
 18 36  1  0
 20 37  1  0
 21 38  1  0
 22 39  1  0
 23 40  1  0
M  CHG  3   9  -1  17  -1  26  -1
M  END
>  <UniqueID>  (8) 
8

>  <SMILES>  (8) 
CC(=O)Nc1ccc([O-])c2c(=O)cc(C(=O)[N-]Cc3ccccc3F)[n-]c12

>  <Energy>  (8) 
50.581673647862004

>  <Genealogy>  (8) 
CC(=O)Nc1ccc([O-])c2c(=O)cc(C(=O)[N-]Cc3ccccc3F)[n-]c12 (protonated)
CC(=O)Nc1ccc([O-])c2c(=O)cc(C(=O)[N-]Cc3ccccc3F)[n-]c12 (3D coordinates assigned)
CC(=O)Nc1ccc([O-])c2c(=O)cc(C(=O)[N-]Cc3ccccc3F)[n-]c12 (optimized conformer: 50.581673647862004 kcal/mol)

>  <smiles>  (8) 
CC(=O)Nc1ccc(O)c2c(=O)cc(C(=O)NCc3ccccc3F)[nH]c12

>  <score_type>  (8) 
oracle

>  <origin>  (8) 
adg

>  <m_score__min__energy>  (8) 
-13.67

>  <m_primary>  (8) 
energy

$$$$
8:0
     RDKit          3D

 46 49  0  0  0  0  0  0  0  0999 V2000
   58.1690   28.9660   47.7510 O   0  0  0  0  0  0  0  0  0  0  0  0
   58.7690   28.6130   46.6990 C   0  0  0  0  0  0  0  0  0  0  0  0
   58.9260   27.1580   46.3950 C   0  0  0  0  0  0  0  0  0  0  0  0
   57.5800   26.5090   46.2820 C   0  0  0  0  0  0  0  0  0  0  0  0
   57.2650   24.8950   46.6490 S   0  0  0  0  0  0  0  0  0  0  0  0
   55.6200   25.0590   46.3510 C   0  0  0  0  0  0  0  0  0  0  0  0
   54.7840   24.1240   46.4560 O   0  0  0  0  0  0  0  0  0  0  0  0
   55.2800   26.3120   45.9890 N   0  0  0  0  0  0  0  0  0  0  0  0
   56.3670   27.1270   45.9560 C   0  0  0  0  0  0  0  0  0  0  0  0
   56.2450   28.4750   45.6210 O   0  0  0  0  0  0  0  0  0  0  0  0
   59.2120   29.5860   45.7440 N   0  0  0  0  0  0  0  0  0  0  0  0
   58.7310   30.9310   45.6060 C   0  0  0  0  0  0  0  0  0  0  0  0
   57.4730   31.1360   45.0280 C   0  0  0  0  0  0  0  0  0  0  0  0
   56.9720   32.4290   44.8640 C   0  0  0  0  0  0  0  0  0  0  0  0
   57.7270   33.5310   45.2730 C   0  0  0  0  0  0  0  0  0  0  0  0
   58.9940   33.3470   45.8490 C   0  0  0  0  0  0  0  0  0  0  0  0
   59.8190   34.5370   46.2770 C   0  0  0  0  0  0  0  0  0  0  0  0
   61.0450   34.1080   47.0420 C   0  0  0  0  0  0  0  0  0  0  0  0
   62.1840   33.8620   46.3400 N   0  0  0  0  0  0  0  0  0  0  0  0
   63.3060   33.4490   46.9300 N   0  0  0  0  0  0  0  0  0  0  0  0
   63.3710   33.2430   48.2680 C   0  0  0  0  0  0  0  0  0  0  0  0
   64.4550   32.8650   48.7840 O   0  0  0  0  0  0  0  0  0  0  0  0
   62.2300   33.4550   49.0550 C   0  0  0  0  0  0  0  0  0  0  0  0
   61.0500   33.9020   48.4410 C   0  0  0  0  0  0  0  0  0  0  0  0
   59.8610   34.1750   49.3340 C   0  0  0  0  0  0  0  0  0  0  0  0
   59.6700   33.0180   50.3250 C   0  0  0  0  0  0  0  0  0  0  0  0
   60.9660   32.6030   51.0660 C   0  0  0  0  0  0  0  0  0  0  0  0
   62.2480   33.2900   50.5570 C   0  0  0  0  0  0  0  0  0  0  0  0
   59.5040   32.0430   45.9860 C   0  0  0  0  0  0  0  0  0  0  0  0
   59.4676   27.0409   45.4448 H   0  0  0  0  0  0  0  0  0  0  0  0
   59.4906   26.6785   47.2082 H   0  0  0  0  0  0  0  0  0  0  0  0
   56.9350   29.1610   45.8950 H   0  0  0  0  0  0  0  0  0  0  0  0
   56.8749   30.2728   44.7007 H   0  0  0  0  0  0  0  0  0  0  0  0
   55.9807   32.5802   44.4118 H   0  0  0  0  0  0  0  0  0  0  0  0
   57.3269   34.5474   45.1431 H   0  0  0  0  0  0  0  0  0  0  0  0
   60.1322   35.0959   45.3828 H   0  0  0  0  0  0  0  0  0  0  0  0
   59.2028   35.1676   46.9348 H   0  0  0  0  0  0  0  0  0  0  0  0
   60.0312   35.1077   49.8918 H   0  0  0  0  0  0  0  0  0  0  0  0
   58.9581   34.2704   48.7129 H   0  0  0  0  0  0  0  0  0  0  0  0
   58.9256   33.3240   51.0748 H   0  0  0  0  0  0  0  0  0  0  0  0
   59.3458   32.1461   49.7379 H   0  0  0  0  0  0  0  0  0  0  0  0
   60.8453   32.8494   52.1312 H   0  0  0  0  0  0  0  0  0  0  0  0
   61.0971   31.5264   50.8824 H   0  0  0  0  0  0  0  0  0  0  0  0
   62.3313   34.2822   51.0244 H   0  0  0  0  0  0  0  0  0  0  0  0
   63.1074   32.6574   50.8240 H   0  0  0  0  0  0  0  0  0  0  0  0
   60.5146   31.8920   46.3932 H   0  0  0  0  0  0  0  0  0  0  0  0
  1  2  2  0
  2  3  1  0
  3  4  1  0
  4  5  1  0
  5  6  1  0
  6  7  2  0
  6  8  1  0
  8  9  1  0
  9 10  1  0
  2 11  1  0
 11 12  1  0
 12 13  2  0
 13 14  1  0
 14 15  2  0
 15 16  1  0
 16 17  1  0
 17 18  1  0
 18 19  2  0
 19 20  1  0
 20 21  1  0
 21 22  2  0
 21 23  1  0
 23 24  2  0
 24 25  1  0
 25 26  1  0
 26 27  1  0
 27 28  1  0
 16 29  2  0
  9  4  2  0
 29 12  1  0
 24 18  1  0
 28 23  1  0
  3 30  1  0
  3 31  1  0
 10 32  1  0
 13 33  1  0
 14 34  1  0
 15 35  1  0
 17 36  1  0
 17 37  1  0
 25 38  1  0
 25 39  1  0
 26 40  1  0
 26 41  1  0
 27 42  1  0
 27 43  1  0
 28 44  1  0
 28 45  1  0
 29 46  1  0
M  CHG  3   8  -1  11  -1  20  -1
M  END
>  <UniqueID>  (9) 
9

>  <SMILES>  (9) 
O=C(Cc1sc(=O)[n-]c1O)[N-]c1cccc(Cc2n[n-]c(=O)c3c2CCCC3)c1

>  <Energy>  (9) 
88.2865751538968

>  <Genealogy>  (9) 
O=C(Cc1sc(=O)[n-]c1O)[N-]c1cccc(Cc2n[n-]c(=O)c3c2CCCC3)c1 (protonated)
O=C(Cc1sc(=O)[n-]c1O)[N-]c1cccc(Cc2n[n-]c(=O)c3c2CCCC3)c1 (3D coordinates assigned)
O=C(Cc1sc(=O)[n-]c1O)[N-]c1cccc(Cc2n[n-]c(=O)c3c2CCCC3)c1 (nonaromatic ring conformer: 88.2865751538968 kcal/mol)

>  <smiles>  (9) 
O=C(Cc1sc(=O)[nH]c1O)Nc1cccc(Cc2n[nH]c(=O)c3c2CCCC3)c1

>  <score_type>  (9) 
oracle

>  <origin>  (9) 
adg

>  <m_score__min__energy>  (9) 
-14.59

>  <m_primary>  (9) 
energy

$$$$
9:0
     RDKit          3D

 46 50  0  0  0  0  0  0  0  0999 V2000
   61.0410   34.2570   49.7660 O   0  0  0  0  0  0  0  0  0  0  0  0
   61.9170   33.6050   49.1330 C   0  0  0  0  0  0  0  0  0  0  0  0
   61.5610   32.9350   47.9120 N   0  0  0  0  0  0  0  0  0  0  0  0
   60.4250   33.2920   47.1060 C   0  0  0  0  0  0  0  0  0  0  0  0
   59.9730   34.6210   47.0280 C   0  0  0  0  0  0  0  0  0  0  0  0
   58.8850   34.9480   46.2180 C   0  0  0  0  0  0  0  0  0  0  0  0
   58.2430   33.9600   45.4680 C   0  0  0  0  0  0  0  0  0  0  0  0
   58.6910   32.6280   45.5160 C   0  0  0  0  0  0  0  0  0  0  0  0
   58.0160   31.5770   44.7120 C   0  0  0  0  0  0  0  0  0  0  0  0
   57.4200   31.8970   43.4790 C   0  0  0  0  0  0  0  0  0  0  0  0
   56.7870   30.9090   42.7230 C   0  0  0  0  0  0  0  0  0  0  0  0
   56.7380   29.5930   43.1840 C   0  0  0  0  0  0  0  0  0  0  0  0
   57.3260   29.2490   44.4130 C   0  0  0  0  0  0  0  0  0  0  0  0
   57.2710   27.8530   44.9050 C   0  0  0  0  0  0  0  0  0  0  0  0
   58.2540   26.9450   44.6610 N   0  0  0  0  0  0  0  0  0  0  0  0
   57.7990   25.8450   45.2780 C   0  0  0  0  0  0  0  0  0  0  0  0
   58.4100   24.5950   45.3530 C   0  0  0  0  0  0  0  0  0  0  0  0
   57.7360   23.5820   46.0630 C   0  0  0  0  0  0  0  0  0  0  0  0
   58.2890   22.3480   46.1640 F   0  0  0  0  0  0  0  0  0  0  0  0
   56.4860   23.8450   46.6690 C   0  0  0  0  0  0  0  0  0  0  0  0
   55.9010   25.1220   46.5700 C   0  0  0  0  0  0  0  0  0  0  0  0
   56.5980   26.0980   45.8610 C   0  0  0  0  0  0  0  0  0  0  0  0
   56.2340   27.3680   45.6420 N   0  0  0  0  0  0  0  0  0  0  0  0
   57.9630   30.2480   45.1710 C   0  0  0  0  0  0  0  0  0  0  0  0
   59.7890   32.3070   46.3350 C   0  0  0  0  0  0  0  0  0  0  0  0
   63.2880   33.5000   49.6870 C   0  0  0  0  0  0  0  0  0  0  0  0
   63.6170   34.0540   50.9320 C   0  0  0  0  0  0  0  0  0  0  0  0
   64.9160   33.9260   51.4200 C   0  0  0  0  0  0  0  0  0  0  0  0
   65.8460   33.2610   50.6880 N   0  0  0  0  0  0  0  0  0  0  0  0
   65.5420   32.7230   49.5060 N   0  0  0  0  0  0  0  0  0  0  0  0
   64.2930   32.8170   48.9820 C   0  0  0  0  0  0  0  0  0  0  0  0
   62.0880   32.0680   47.6570 H   0  0  0  0  0  0  0  0  0  0  0  0
   60.4794   35.4065   47.6081 H   0  0  0  0  0  0  0  0  0  0  0  0
   58.5313   35.9885   46.1699 H   0  0  0  0  0  0  0  0  0  0  0  0
   57.3823   34.2253   44.8364 H   0  0  0  0  0  0  0  0  0  0  0  0
   57.4529   32.9321   43.1082 H   0  0  0  0  0  0  0  0  0  0  0  0
   56.3247   31.1691   41.7594 H   0  0  0  0  0  0  0  0  0  0  0  0
   56.2365   28.8208   42.5822 H   0  0  0  0  0  0  0  0  0  0  0  0
   59.3828   24.4061   44.8754 H   0  0  0  0  0  0  0  0  0  0  0  0
   55.9674   23.0473   47.2211 H   0  0  0  0  0  0  0  0  0  0  0  0
   54.9288   25.3411   47.0356 H   0  0  0  0  0  0  0  0  0  0  0  0
   58.4254   29.9871   46.1344 H   0  0  0  0  0  0  0  0  0  0  0  0
   60.1538   31.2699   46.3715 H   0  0  0  0  0  0  0  0  0  0  0  0
   62.8547   34.5863   51.5199 H   0  0  0  0  0  0  0  0  0  0  0  0
   65.1864   34.3615   52.3932 H   0  0  0  0  0  0  0  0  0  0  0  0
   64.0684   32.3592   48.0073 H   0  0  0  0  0  0  0  0  0  0  0  0
  1  2  2  0
  2  3  1  0
  3  4  1  0
  4  5  2  0
  5  6  1  0
  6  7  2  0
  7  8  1  0
  8  9  1  0
  9 10  2  0
 10 11  1  0
 11 12  2  0
 12 13  1  0
 13 14  1  0
 14 15  2  0
 15 16  1  0
 16 17  2  0
 17 18  1  0
 18 19  1  0
 18 20  2  0
 20 21  1  0
 21 22  2  0
 22 23  1  0
 13 24  2  0
  8 25  2  0
  2 26  1  0
 26 27  2  0
 27 28  1  0
 28 29  2  0
 29 30  1  0
 30 31  2  0
 25  4  1  0
 31 26  1  0
 24  9  1  0
 23 14  1  0
 22 16  1  0
  3 32  1  0
  5 33  1  0
  6 34  1  0
  7 35  1  0
 10 36  1  0
 11 37  1  0
 12 38  1  0
 17 39  1  0
 20 40  1  0
 21 41  1  0
 24 42  1  0
 25 43  1  0
 27 44  1  0
 28 45  1  0
 31 46  1  0
M  CHG  1  23  -1
M  END
>  <UniqueID>  (10) 
10

>  <SMILES>  (10) 
O=C(Nc1cccc(-c2cccc(-c3nc4cc(F)ccc4[n-]3)c2)c1)c1ccnnc1

>  <Energy>  (10) 
100.87248000933845

>  <Genealogy>  (10) 
O=C(Nc1cccc(-c2cccc(-c3nc4cc(F)ccc4[n-]3)c2)c1)c1ccnnc1 (protonated)
O=C(Nc1cccc(-c2cccc(-c3nc4cc(F)ccc4[n-]3)c2)c1)c1ccnnc1 (3D coordinates assigned)
O=C(Nc1cccc(-c2cccc(-c3nc4cc(F)ccc4[n-]3)c2)c1)c1ccnnc1 (optimized conformer: 100.87248000933845 kcal/mol)

>  <smiles>  (10) 
O=C(Nc1cccc(-c2cccc(-c3nc4cc(F)ccc4[nH]3)c2)c1)c1ccnnc1

>  <score_type>  (10) 
oracle

>  <origin>  (10) 
adg

>  <m_score__min__energy>  (10) 
-10.58

>  <m_primary>  (10) 
energy

$$$$
10:0
     RDKit          3D

 60 62  0  0  0  0  0  0  0  0999 V2000
   58.4190   32.6950   51.6910 C   0  0  0  0  0  0  0  0  0  0  0  0
   58.7580   32.0740   50.3310 C   0  0  0  0  0  0  0  0  0  0  0  0
   58.5890   30.5450   50.3580 C   0  0  0  0  0  0  0  0  0  0  0  0
   60.1120   32.5430   49.7160 C   0  0  0  0  0  0  0  0  0  0  0  0
   60.1390   33.7330   48.6860 C   0  0  2  0  0  0  0  0  0  0  0  0
   61.6060   33.9850   48.2820 C   0  0  0  0  0  0  0  0  0  0  0  0
   59.6540   34.9680   49.3220 N   0  0  0  0  0  0  0  0  0  0  0  0
   59.3630   33.4260   47.3880 C   0  0  0  0  0  0  0  0  0  0  0  0
   58.9950   34.4700   46.5120 C   0  0  0  0  0  0  0  0  0  0  0  0
   58.2750   34.2090   45.3470 C   0  0  0  0  0  0  0  0  0  0  0  0
   57.8720   32.9100   45.0440 C   0  0  0  0  0  0  0  0  0  0  0  0
   58.1630   31.8550   45.9220 C   0  0  0  0  0  0  0  0  0  0  0  0
   57.7230   30.4700   45.6330 C   0  0  0  0  0  0  0  0  0  0  0  0
   56.7420   30.2910   44.8590 O   0  0  0  0  0  0  0  0  0  0  0  0
   58.3870   29.3370   46.2250 N   0  0  0  0  0  0  0  0  0  0  0  0
   58.0970   27.9710   45.8830 C   0  0  0  0  0  0  0  0  0  0  0  0
   57.7830   27.0180   46.8690 C   0  0  0  0  0  0  0  0  0  0  0  0
   57.4750   25.7040   46.5080 C   0  0  0  0  0  0  0  0  0  0  0  0
   57.4510   25.3280   45.1570 C   0  0  0  0  0  0  0  0  0  0  0  0
   57.1280   23.9380   44.7810 C   0  0  0  0  0  0  0  0  0  0  0  0
   58.1120   23.1780   44.1260 C   0  0  0  0  0  0  0  0  0  0  0  0
   57.8480   21.8670   43.7270 C   0  0  0  0  0  0  0  0  0  0  0  0
   56.6000   21.2990   43.9790 C   0  0  0  0  0  0  0  0  0  0  0  0
   55.6160   22.0350   44.6420 C   0  0  0  0  0  0  0  0  0  0  0  0
   55.8660   23.3530   45.0580 C   0  0  0  0  0  0  0  0  0  0  0  0
   54.6030   24.2200   45.9480 S   0  0  0  0  0  0  0  0  0  0  0  0
   54.6850   25.9150   45.6140 N   0  0  0  0  0  0  0  0  0  0  0  0
   53.2530   23.6930   45.5520 O   0  0  0  0  0  0  0  0  0  0  0  0
   54.7890   24.0220   47.4260 O   0  0  0  0  0  0  0  0  0  0  0  0
   57.7580   26.2770   44.1720 C   0  0  0  0  0  0  0  0  0  0  0  0
   58.0660   27.5920   44.5330 C   0  0  0  0  0  0  0  0  0  0  0  0
   58.9010   32.1230   47.0900 C   0  0  0  0  0  0  0  0  0  0  0  0
   58.7788   32.0360   52.4949 H   0  0  0  0  0  0  0  0  0  0  0  0
   58.9058   33.6777   51.7770 H   0  0  0  0  0  0  0  0  0  0  0  0
   57.3292   32.8170   51.7770 H   0  0  0  0  0  0  0  0  0  0  0  0
   58.0145   32.4724   49.6250 H   0  0  0  0  0  0  0  0  0  0  0  0
   58.5507   30.1987   51.4014 H   0  0  0  0  0  0  0  0  0  0  0  0
   57.6550   30.2702   49.8460 H   0  0  0  0  0  0  0  0  0  0  0  0
   59.4404   30.0729   49.8460 H   0  0  0  0  0  0  0  0  0  0  0  0
   60.7579   32.8362   50.5568 H   0  0  0  0  0  0  0  0  0  0  0  0
   60.4279   31.6793   49.1124 H   0  0  0  0  0  0  0  0  0  0  0  0
   62.2225   34.0909   49.1868 H   0  0  0  0  0  0  0  0  0  0  0  0
   61.9729   33.1367   47.6855 H   0  0  0  0  0  0  0  0  0  0  0  0
   61.6688   34.9071   47.6855 H   0  0  0  0  0  0  0  0  0  0  0  0
   58.9690   35.4520   48.7020 H   0  0  0  0  0  0  0  0  0  0  0  0
   59.1660   34.7420   50.2200 H   0  0  0  0  0  0  0  0  0  0  0  0
   59.2805   35.5048   46.7521 H   0  0  0  0  0  0  0  0  0  0  0  0
   58.0237   35.0332   44.6632 H   0  0  0  0  0  0  0  0  0  0  0  0
   57.3230   32.7107   44.1119 H   0  0  0  0  0  0  0  0  0  0  0  0
   59.0950   29.4950   46.9750 H   0  0  0  0  0  0  0  0  0  0  0  0
   57.7800   27.3090   47.9298 H   0  0  0  0  0  0  0  0  0  0  0  0
   57.2502   24.9607   47.2871 H   0  0  0  0  0  0  0  0  0  0  0  0
   59.0991   23.6204   43.9260 H   0  0  0  0  0  0  0  0  0  0  0  0
   58.6249   21.2816   43.2135 H   0  0  0  0  0  0  0  0  0  0  0  0
   56.3901   20.2690   43.6549 H   0  0  0  0  0  0  0  0  0  0  0  0
   54.6353   21.5781   44.8405 H   0  0  0  0  0  0  0  0  0  0  0  0
   53.7390   26.3110   45.8140 H   0  0  0  0  0  0  0  0  0  0  0  0
   57.7565   25.9859   43.1112 H   0  0  0  0  0  0  0  0  0  0  0  0
   58.2857   28.3351   43.7523 H   0  0  0  0  0  0  0  0  0  0  0  0
   59.1233   31.3010   47.7863 H   0  0  0  0  0  0  0  0  0  0  0  0
  1  2  1  0
  2  3  1  0
  2  4  1  0
  4  5  1  0
  5  6  1  0
  5  7  1  1
  5  8  1  0
  8  9  2  0
  9 10  1  0
 10 11  2  0
 11 12  1  0
 12 13  1  0
 13 14  2  0
 13 15  1  0
 15 16  1  0
 16 17  2  0
 17 18  1  0
 18 19  2  0
 19 20  1  0
 20 21  2  0
 21 22  1  0
 22 23  2  0
 23 24  1  0
 24 25  2  0
 25 26  1  0
 26 27  1  0
 26 28  2  0
 26 29  2  0
 19 30  1  0
 30 31  2  0
 12 32  2  0
 32  8  1  0
 31 16  1  0
 25 20  1  0
  1 33  1  0
  1 34  1  0
  1 35  1  0
  2 36  1  0
  3 37  1  0
  3 38  1  0
  3 39  1  0
  4 40  1  0
  4 41  1  0
  6 42  1  0
  6 43  1  0
  6 44  1  0
  7 45  1  0
  7 46  1  0
  9 47  1  0
 10 48  1  0
 11 49  1  0
 15 50  1  0
 17 51  1  0
 18 52  1  0
 21 53  1  0
 22 54  1  0
 23 55  1  0
 24 56  1  0
 27 57  1  0
 30 58  1  0
 31 59  1  0
 32 60  1  0
M  CHG  1  27  -1
M  END
>  <UniqueID>  (11) 
11

>  <SMILES>  (11) 
CC(C)C[C@](C)(N)c1cccc(C(=O)Nc2ccc(-c3ccccc3S([NH-])(=O)=O)cc2)c1

>  <Energy>  (11) 
82.53962771693897

>  <Genealogy>  (11) 
CC(C)CC(C)(N)c1cccc(C(=O)Nc2ccc(-c3ccccc3S([NH-])(=O)=O)cc2)c1 (protonated)
CC(C)C[C@](C)(N)c1cccc(C(=O)Nc2ccc(-c3ccccc3S([NH-])(=O)=O)cc2)c1 (chirality)
CC(C)C[C@](C)(N)c1cccc(C(=O)Nc2ccc(-c3ccccc3S([NH-])(=O)=O)cc2)c1 (3D coordinates assigned)
CC(C)C[C@](C)(N)c1cccc(C(=O)Nc2ccc(-c3ccccc3S([NH-])(=O)=O)cc2)c1 (optimized conformer: 82.53962771693897 kcal/mol)

>  <smiles>  (11) 
CC(C)CC(C)(N)c1cccc(C(=O)Nc2ccc(-c3ccccc3S(N)(=O)=O)cc2)c1

>  <score_type>  (11) 
oracle

>  <origin>  (11) 
adg

>  <m_score__min__energy>  (11) 
-12.720000000000001

>  <m_primary>  (11) 
energy

$$$$
11:0
     RDKit          3D

 61 64  0  0  0  0  0  0  0  0999 V2000
   63.7628   33.4967   45.7486 H   0  0  0  0  0  0  0  0  0  0  0  0
   63.3340   33.5310   46.7610 C   0  0  0  0  0  0  0  0  0  0  0  0
   63.9866   33.7055   47.6291 H   0  0  0  0  0  0  0  0  0  0  0  0
   62.0220   33.3610   46.9360 C   0  0  0  0  0  0  0  0  0  0  0  0
   61.3852   33.1877   46.0560 H   0  0  0  0  0  0  0  0  0  0  0  0
   61.3860   33.3990   48.3000 C   0  0  0  0  0  0  0  0  0  0  0  0
   61.9001   34.1532   48.9140 H   0  0  0  0  0  0  0  0  0  0  0  0
   60.3226   33.6533   48.1798 H   0  0  0  0  0  0  0  0  0  0  0  0
   61.4780   32.0850   48.9740 N   0  0  0  0  0  0  0  0  0  0  0  0
   62.5230   31.7900   49.8150 C   0  0  0  0  0  0  0  0  0  0  0  0
   63.6090   32.7040   50.0200 N   0  0  0  0  0  0  0  0  0  0  0  0
   64.9250   32.4280   49.4440 C   0  0  0  0  0  0  0  0  0  0  0  0
   64.9762   31.3744   49.1320 H   0  0  0  0  0  0  0  0  0  0  0  0
   65.0881   33.0750   48.5694 H   0  0  0  0  0  0  0  0  0  0  0  0
   66.0060   32.7040   50.4970 C   0  0  0  0  0  0  0  0  0  0  0  0
   65.9300   31.9525   51.2967 H   0  0  0  0  0  0  0  0  0  0  0  0
   66.9915   32.6500   50.0114 H   0  0  0  0  0  0  0  0  0  0  0  0
   65.8480   33.9940   51.0570 O   0  0  0  0  0  0  0  0  0  0  0  0
   64.6270   34.0650   51.7730 C   0  0  0  0  0  0  0  0  0  0  0  0
   64.6018   33.2609   52.5232 H   0  0  0  0  0  0  0  0  0  0  0  0
   64.5624   35.0481   52.2623 H   0  0  0  0  0  0  0  0  0  0  0  0
   63.4320   33.9080   50.8290 C   0  0  0  0  0  0  0  0  0  0  0  0
   62.5073   33.8217   51.4184 H   0  0  0  0  0  0  0  0  0  0  0  0
   63.3650   34.7869   50.1709 H   0  0  0  0  0  0  0  0  0  0  0  0
   62.5840   30.5510   50.4440 C   0  0  0  0  0  0  0  0  0  0  0  0
   63.4082   30.3196   51.1347 H   0  0  0  0  0  0  0  0  0  0  0  0
   61.5970   29.6100   50.1930 C   0  0  0  0  0  0  0  0  0  0  0  0
   61.6760   28.4830   50.7540 O   0  0  0  0  0  0  0  0  0  0  0  0
   60.5650   29.9030   49.3400 N   0  0  0  0  0  0  0  0  0  0  0  0
   59.5340   28.8900   49.0320 C   0  0  0  0  0  0  0  0  0  0  0  0
   59.8454   27.9217   49.4507 H   0  0  0  0  0  0  0  0  0  0  0  0
   58.5815   29.2149   49.4759 H   0  0  0  0  0  0  0  0  0  0  0  0
   59.3430   28.7440   47.5400 C   0  0  0  0  0  0  0  0  0  0  0  0
   60.3240   28.1210   46.7510 C   0  0  0  0  0  0  0  0  0  0  0  0
   61.2406   27.7342   47.2204 H   0  0  0  0  0  0  0  0  0  0  0  0
   60.1400   27.9910   45.3740 C   0  0  0  0  0  0  0  0  0  0  0  0
   60.9202   27.5186   44.7591 H   0  0  0  0  0  0  0  0  0  0  0  0
   58.9700   28.4580   44.7740 C   0  0  0  0  0  0  0  0  0  0  0  0
   58.8385   28.3614   43.6862 H   0  0  0  0  0  0  0  0  0  0  0  0
   57.9580   29.0510   45.5490 C   0  0  0  0  0  0  0  0  0  0  0  0
   56.7020   29.5390   44.9230 C   0  0  0  0  0  0  0  0  0  0  0  0
   55.6830   28.7970   44.9170 O   0  0  0  0  0  0  0  0  0  0  0  0
   56.5860   30.8680   44.3920 N   0  0  0  0  0  0  0  0  0  0  0  0
   57.3030   31.9130   44.7070 C   0  0  0  0  0  0  0  0  0  0  0  0
   57.8900   32.7480   43.7340 C   0  0  0  0  0  0  0  0  0  0  0  0
   57.7454   32.5361   42.6643 H   0  0  0  0  0  0  0  0  0  0  0  0
   58.6550   33.8440   44.1340 C   0  0  0  0  0  0  0  0  0  0  0  0
   59.1141   34.4983   43.3783 H   0  0  0  0  0  0  0  0  0  0  0  0
   58.8390   34.1120   45.4930 C   0  0  0  0  0  0  0  0  0  0  0  0
   59.6370   35.3050   45.9300 C   0  0  0  0  0  0  0  0  0  0  0  0
   59.6641   35.3455   47.0289 H   0  0  0  0  0  0  0  0  0  0  0  0
   60.6625   35.2227   45.5407 H   0  0  0  0  0  0  0  0  0  0  0  0
   59.1695   36.2215   45.5407 H   0  0  0  0  0  0  0  0  0  0  0  0
   58.2080   33.2870   46.4340 C   0  0  0  0  0  0  0  0  0  0  0  0
   58.3121   33.5029   47.5076 H   0  0  0  0  0  0  0  0  0  0  0  0
   57.4670   32.2200   46.0270 N   0  0  0  0  0  0  0  0  0  0  0  0
   57.0170   31.6200   46.7570 H   0  0  0  0  0  0  0  0  0  0  0  0
   58.1570   29.1950   46.9340 C   0  0  0  0  0  0  0  0  0  0  0  0
   57.3763   29.6655   47.5497 H   0  0  0  0  0  0  0  0  0  0  0  0
   60.5100   31.1360   48.7350 C   0  0  0  0  0  0  0  0  0  0  0  0
   59.5610   31.3970   47.9410 O   0  0  0  0  0  0  0  0  0  0  0  0
  1  2  1  0
  2  3  1  0
  2  4  2  0
  4  5  1  0
  4  6  1  0
  6  7  1  0
  6  8  1  0
  6  9  1  0
  9 10  1  0
 10 11  1  0
 11 12  1  0
 12 13  1  0
 12 14  1  0
 12 15  1  0
 15 16  1  0
 15 17  1  0
 15 18  1  0
 18 19  1  0
 19 20  1  0
 19 21  1  0
 19 22  1  0
 22 23  1  0
 22 24  1  0
 10 25  2  0
 25 26  1  0
 25 27  1  0
 27 28  2  0
 27 29  1  0
 29 30  1  0
 30 31  1  0
 30 32  1  0
 30 33  1  0
 33 34  2  0
 34 35  1  0
 34 36  1  0
 36 37  1  0
 36 38  2  0
 38 39  1  0
 38 40  1  0
 40 41  1  0
 41 42  2  0
 41 43  1  0
 43 44  2  0
 44 45  1  0
 45 46  1  0
 45 47  2  0
 47 48  1  0
 47 49  1  0
 49 50  1  0
 50 51  1  0
 50 52  1  0
 50 53  1  0
 49 54  2  0
 54 55  1  0
 54 56  1  0
 56 57  1  0
 40 58  2  0
 58 59  1  0
 29 60  1  0
 60 61  2  0
 60  9  1  0
 22 11  1  0
 58 33  1  0
 56 44  1  0
M  END
>  <UniqueID>  (12) 
12

>  <SMILES>  (12) 
C=CCn1c(N2CCOCC2)cc(=O)n(Cc2cccc(C(=O)/N=c3\ccc(C)c[nH]3)c2)c1=O

>  <Energy>  (12) 
87.09616715650664

>  <Genealogy>  (12) 
C=CCn1c(N2CCOCC2)cc(=O)n(Cc2cccc(C(=O)/N=c3\ccc(C)c[nH]3)c2)c1=O (cis-trans isomerization)
C=CCn1c(N2CCOCC2)cc(=O)n(Cc2cccc(C(=O)/N=c3\ccc(C)c[nH]3)c2)c1=O (3D coordinates assigned)
C=CCn1c(N2CCOCC2)cc(=O)n(Cc2cccc(C(=O)/N=c3\ccc(C)c[nH]3)c2)c1=O (nonaromatic ring conformer: 87.09616715650664 kcal/mol)

>  <smiles>  (12) 
C=CCn1c(N2CCOCC2)cc(=O)n(Cc2cccc(C(=O)N=c3ccc(C)c[nH]3)c2)c1=O

>  <score_type>  (12) 
oracle

>  <origin>  (12) 
adg

>  <m_score__min__energy>  (12) 
-8.8200000000000003

>  <m_primary>  (12) 
energy

$$$$
12:0
     RDKit          3D

 57 60  0  0  0  0  0  0  0  0999 V2000
   54.1510   28.2540   53.0050 C   0  0  0  0  0  0  0  0  0  0  0  0
   54.7810   29.3400   52.5510 C   0  0  0  0  0  0  0  0  0  0  0  0
   56.0800   29.3460   52.3460 O   0  0  0  0  0  0  0  0  0  0  0  0
   56.4550   30.5600   52.0180 C   0  0  0  0  0  0  0  0  0  0  0  0
   57.8440   30.9410   51.7200 C   0  0  0  0  0  0  0  0  0  0  0  0
   58.7790   30.1310   51.9640 O   0  0  0  0  0  0  0  0  0  0  0  0
   58.1340   32.2260   51.1540 N   0  0  0  0  0  0  0  0  0  0  0  0
   59.5060   32.6290   50.8430 C   0  0  0  0  0  0  0  0  0  0  0  0
   59.5280   33.6280   49.6680 C   0  0  0  0  0  0  0  0  0  0  0  0
   59.0420   33.0640   48.3890 N   0  0  0  0  0  0  0  0  0  0  0  0
   59.7950   31.8630   47.9530 C   0  0  0  0  0  0  0  0  0  0  0  0
   59.7500   31.6290   46.4300 C   0  0  0  0  0  0  0  0  0  0  0  0
   58.4930   32.1250   45.8560 N   0  0  0  0  0  0  0  0  0  0  0  0
   57.8230   31.3830   44.8210 C   0  0  0  0  0  0  0  0  0  0  0  0
   57.6980   31.9410   43.5390 C   0  0  0  0  0  0  0  0  0  0  0  0
   57.0430   31.2420   42.5230 C   0  0  0  0  0  0  0  0  0  0  0  0
   56.5100   29.9800   42.7770 C   0  0  0  0  0  0  0  0  0  0  0  0
   56.6300   29.4090   44.0460 C   0  0  0  0  0  0  0  0  0  0  0  0
   57.2920   30.1020   45.0800 C   0  0  0  0  0  0  0  0  0  0  0  0
   57.4520   29.5460   46.3580 O   0  0  0  0  0  0  0  0  0  0  0  0
   58.2950   28.4380   46.6590 C   0  0  0  0  0  0  0  0  0  0  0  0
   57.9960   33.4580   46.2190 C   0  0  0  0  0  0  0  0  0  0  0  0
   58.8470   34.0700   47.3310 C   0  0  0  0  0  0  0  0  0  0  0  0
   55.3630   31.4050   52.0010 C   0  0  0  0  0  0  0  0  0  0  0  0
   54.2650   30.6190   52.3030 C   0  0  0  0  0  0  0  0  0  0  0  0
   53.0030   31.0870   52.3150 C   0  0  0  0  0  0  0  0  0  0  0  0
   52.1050   31.1640   51.1540 C   0  0  0  0  0  0  0  0  0  0  0  0
   52.1090   30.2970   50.1230 N   0  0  0  0  0  0  0  0  0  0  0  0
   51.2390   30.8480   49.2490 C   0  0  0  0  0  0  0  0  0  0  0  0
   50.9550   30.3120   48.1470 O   0  0  0  0  0  0  0  0  0  0  0  0
   50.7070   32.0240   49.6440 N   0  0  0  0  0  0  0  0  0  0  0  0
   51.2790   32.2160   50.8440 C   0  0  0  0  0  0  0  0  0  0  0  0
   51.0540   33.3330   51.6370 O   0  0  0  0  0  0  0  0  0  0  0  0
   53.0633   28.2768   53.1675 H   0  0  0  0  0  0  0  0  0  0  0  0
   54.7196   27.3364   53.2165 H   0  0  0  0  0  0  0  0  0  0  0  0
   57.3440   32.8850   50.9660 H   0  0  0  0  0  0  0  0  0  0  0  0
   59.9525   33.1039   51.7291 H   0  0  0  0  0  0  0  0  0  0  0  0
   60.0810   31.7355   50.5582 H   0  0  0  0  0  0  0  0  0  0  0  0
   58.8920   34.4860   49.9315 H   0  0  0  0  0  0  0  0  0  0  0  0
   60.5791   33.9120   49.5115 H   0  0  0  0  0  0  0  0  0  0  0  0
   60.8457   31.9816   48.2562 H   0  0  0  0  0  0  0  0  0  0  0  0
   59.3196   30.9925   48.4285 H   0  0  0  0  0  0  0  0  0  0  0  0
   60.5927   32.1575   45.9603 H   0  0  0  0  0  0  0  0  0  0  0  0
   59.8179   30.5476   46.2405 H   0  0  0  0  0  0  0  0  0  0  0  0
   58.1191   32.9362   43.3333 H   0  0  0  0  0  0  0  0  0  0  0  0
   56.9478   31.6878   41.5219 H   0  0  0  0  0  0  0  0  0  0  0  0
   55.9931   29.4317   41.9757 H   0  0  0  0  0  0  0  0  0  0  0  0
   56.2056   28.4129   44.2398 H   0  0  0  0  0  0  0  0  0  0  0  0
   58.3793   28.3272   47.7502 H   0  0  0  0  0  0  0  0  0  0  0  0
   57.8636   27.5217   46.2296 H   0  0  0  0  0  0  0  0  0  0  0  0
   59.2931   28.6094   46.2296 H   0  0  0  0  0  0  0  0  0  0  0  0
   58.0349   34.1107   45.3344 H   0  0  0  0  0  0  0  0  0  0  0  0
   56.9610   33.3625   46.5790 H   0  0  0  0  0  0  0  0  0  0  0  0
   59.8233   34.3731   46.9248 H   0  0  0  0  0  0  0  0  0  0  0  0
   58.3403   34.9541   47.7453 H   0  0  0  0  0  0  0  0  0  0  0  0
   55.3655   32.4846   51.7900 H   0  0  0  0  0  0  0  0  0  0  0  0
   52.6091   31.4431   53.2784 H   0  0  0  0  0  0  0  0  0  0  0  0
  1  2  2  0
  2  3  1  0
  3  4  1  0
  4  5  1  0
  5  6  2  0
  5  7  1  0
  7  8  1  0
  8  9  1  0
  9 10  1  0
 10 11  1  0
 11 12  1  0
 12 13  1  0
 13 14  1  0
 14 15  2  0
 15 16  1  0
 16 17  2  0
 17 18  1  0
 18 19  2  0
 19 20  1  0
 20 21  1  0
 13 22  1  0
 22 23  1  0
  4 24  2  0
 24 25  1  0
 25 26  2  3
 26 27  1  0
 27 28  1  0
 28 29  1  0
 29 30  2  0
 29 31  1  0
 31 32  1  0
 32 33  1  0
 25  2  1  0
 32 27  2  0
 23 10  1  0
 19 14  1  0
  1 34  1  0
  1 35  1  0
  7 36  1  0
  8 37  1  0
  8 38  1  0
  9 39  1  0
  9 40  1  0
 11 41  1  0
 11 42  1  0
 12 43  1  0
 12 44  1  0
 15 45  1  0
 16 46  1  0
 17 47  1  0
 18 48  1  0
 21 49  1  0
 21 50  1  0
 21 51  1  0
 22 52  1  0
 22 53  1  0
 23 54  1  0
 23 55  1  0
 24 56  1  0
 26 57  1  0
M  CHG  3  28  -1  31  -1  33  -1
M  END
>  <UniqueID>  (13) 
13

>  <SMILES>  (13) 
C=c1oc(C(=O)NCCN2CCN(c3ccccc3OC)CC2)cc1=Cc1[n-]c(=O)[n-]c1[O-]

>  <Energy>  (13) 
135.88392373281957

>  <Genealogy>  (13) 
C=c1oc(C(=O)NCCN2CCN(c3ccccc3OC)CC2)cc1=Cc1[n-]c(=O)[n-]c1[O-] (protonated)
C=c1oc(C(=O)NCCN2CCN(c3ccccc3OC)CC2)cc1=Cc1[n-]c(=O)[n-]c1[O-] (3D coordinates assigned)
C=c1oc(C(=O)NCCN2CCN(c3ccccc3OC)CC2)cc1=Cc1[n-]c(=O)[n-]c1[O-] (nonaromatic ring conformer: 135.88392373281957 kcal/mol)

>  <smiles>  (13) 
C=c1oc(C(=O)NCCN2CCN(c3ccccc3OC)CC2)cc1=Cc1[nH]c(=O)[nH]c1O

>  <score_type>  (13) 
oracle

>  <origin>  (13) 
adg

>  <m_score__min__energy>  (13) 
-19.280000000000001

>  <m_primary>  (13) 
energy

$$$$
13:0
     RDKit          3D

 43 46  0  0  0  0  0  0  0  0999 V2000
   64.5679   32.6010   48.2578 H   0  0  0  0  0  0  0  0  0  0  0  0
   63.5770   33.0500   48.0950 C   0  0  0  0  0  0  0  0  0  0  0  0
   63.1240   33.2890   46.7950 C   0  0  0  0  0  0  0  0  0  0  0  0
   63.7571   33.0248   45.9352 H   0  0  0  0  0  0  0  0  0  0  0  0
   61.8660   33.8640   46.5860 C   0  0  0  0  0  0  0  0  0  0  0  0
   61.5095   34.0444   45.5611 H   0  0  0  0  0  0  0  0  0  0  0  0
   61.0560   34.2120   47.6800 C   0  0  0  0  0  0  0  0  0  0  0  0
   59.6880   34.7920   47.4570 C   0  0  0  0  0  0  0  0  0  0  0  0
   59.7793   35.7374   46.9022 H   0  0  0  0  0  0  0  0  0  0  0  0
   59.2107   34.9751   48.4310 H   0  0  0  0  0  0  0  0  0  0  0  0
   58.8490   33.8370   46.6720 C   0  0  0  0  0  0  0  0  0  0  0  0
   57.7750   34.2110   45.9400 N   0  0  0  0  0  0  0  0  0  0  0  0
   57.1380   33.1870   45.3750 N   0  0  0  0  0  0  0  0  0  0  0  0
   57.6870   31.9900   45.6720 C   0  0  0  0  0  0  0  0  0  0  0  0
   57.2220   30.8770   45.1820 N   0  0  0  0  0  0  0  0  0  0  0  0
   57.9710   29.6930   44.8640 C   0  0  0  0  0  0  0  0  0  0  0  0
   59.5610   29.7960   44.4540 S   0  0  0  0  0  0  0  0  0  0  0  0
   57.4230   28.3730   45.2590 C   0  0  0  0  0  0  0  0  0  0  0  0
   56.0320   28.1490   45.2680 C   0  0  0  0  0  0  0  0  0  0  0  0
   55.1450   29.1660   44.9350 O   0  0  0  0  0  0  0  0  0  0  0  0
   55.5370   26.9350   45.6220 N   0  0  0  0  0  0  0  0  0  0  0  0
   56.3400   25.9000   45.9780 C   0  0  0  0  0  0  0  0  0  0  0  0
   55.7740   24.6720   46.3360 C   0  0  0  0  0  0  0  0  0  0  0  0
   54.6807   24.5508   46.3309 H   0  0  0  0  0  0  0  0  0  0  0  0
   56.5930   23.5960   46.7010 C   0  0  0  0  0  0  0  0  0  0  0  0
   55.8740   22.0570   47.1670 S   0  0  0  0  0  0  0  0  0  0  0  0
   55.3330   21.3590   45.9500 O   0  0  0  0  0  0  0  0  0  0  0  0
   56.9160   21.1790   47.8010 O   0  0  0  0  0  0  0  0  0  0  0  0
   54.5900   22.3330   48.2910 N   0  0  0  0  0  0  0  0  0  0  0  0
   54.0460   23.1520   47.9370 H   0  0  0  0  0  0  0  0  0  0  0  0
   53.9560   21.5050   48.2390 H   0  0  0  0  0  0  0  0  0  0  0  0
   57.9830   23.7570   46.7180 C   0  0  0  0  0  0  0  0  0  0  0  0
   58.6272   22.9159   47.0139 H   0  0  0  0  0  0  0  0  0  0  0  0
   58.5580   24.9810   46.3610 C   0  0  0  0  0  0  0  0  0  0  0  0
   59.6518   25.0966   46.3719 H   0  0  0  0  0  0  0  0  0  0  0  0
   57.7420   26.0650   45.9880 C   0  0  0  0  0  0  0  0  0  0  0  0
   58.2820   27.3120   45.6190 C   0  0  0  0  0  0  0  0  0  0  0  0
   59.5340   27.4750   45.5940 O   0  0  0  0  0  0  0  0  0  0  0  0
   59.0440   32.1630   46.6660 S   0  0  0  0  0  0  0  0  0  0  0  0
   61.5130   33.9560   48.9840 C   0  0  0  0  0  0  0  0  0  0  0  0
   60.8788   34.2085   49.8465 H   0  0  0  0  0  0  0  0  0  0  0  0
   62.7720   33.3810   49.1890 C   0  0  0  0  0  0  0  0  0  0  0  0
   63.1287   33.1892   50.2118 H   0  0  0  0  0  0  0  0  0  0  0  0
  1  2  1  0
  2  3  2  0
  3  4  1  0
  3  5  1  0
  5  6  1  0
  5  7  2  0
  7  8  1  0
  8  9  1  0
  8 10  1  0
  8 11  1  0
 11 12  2  0
 12 13  1  0
 13 14  1  0
 14 15  2  0
 15 16  1  0
 16 17  2  0
 16 18  1  0
 18 19  2  0
 19 20  1  0
 19 21  1  0
 21 22  1  0
 22 23  2  0
 23 24  1  0
 23 25  1  0
 25 26  1  0
 26 27  2  0
 26 28  2  0
 26 29  1  0
 29 30  1  0
 29 31  1  0
 25 32  2  0
 32 33  1  0
 32 34  1  0
 34 35  1  0
 34 36  2  0
 36 37  1  0
 37 38  2  0
 14 39  1  0
  7 40  1  0
 40 41  1  0
 40 42  2  0
 42 43  1  0
 42  2  1  0
 39 11  1  0
 37 18  1  0
 36 22  1  0
M  CHG  3  13  -1  20  -1  21  -1
M  END
>  <UniqueID>  (14) 
14

>  <SMILES>  (14) 
NS(=O)(=O)c1ccc2c(=O)c(C(=S)/N=c3/[n-]nc(Cc4ccccc4)s3)c([O-])[n-]c2c1

>  <Energy>  (14) 
96.80447954437766

>  <Genealogy>  (14) 
NS(=O)(=O)c1ccc2c(=O)c(C(=S)N=c3[n-]nc(Cc4ccccc4)s3)c([O-])[n-]c2c1 (protonated)
NS(=O)(=O)c1ccc2c(=O)c(C(=S)/N=c3/[n-]nc(Cc4ccccc4)s3)c([O-])[n-]c2c1 (cis-trans isomerization)
NS(=O)(=O)c1ccc2c(=O)c(C(=S)/N=c3/[n-]nc(Cc4ccccc4)s3)c([O-])[n-]c2c1 (3D coordinates assigned)
NS(=O)(=O)c1ccc2c(=O)c(C(=S)/N=c3/[n-]nc(Cc4ccccc4)s3)c([O-])[n-]c2c1 (optimized conformer: 96.80447954437766 kcal/mol)

>  <smiles>  (14) 
NS(=O)(=O)c1ccc2c(=O)c(C(=S)N=c3[nH]nc(Cc4ccccc4)s3)c(O)[nH]c2c1

>  <score_type>  (14) 
oracle

>  <origin>  (14) 
adg

>  <m_score__min__energy>  (14) 
-15.380000000000001

>  <m_primary>  (14) 
energy

$$$$
14:0
     RDKit          3D

 45 47  0  0  0  0  0  0  0  0999 V2000
   58.5211   24.8767   48.1808 H   0  0  0  0  0  0  0  0  0  0  0  0
   58.1220   25.6340   47.4900 C   0  0  0  0  0  0  0  0  0  0  0  0
   56.8270   25.5650   47.0870 N   0  0  0  0  0  0  0  0  0  0  0  0
   56.2820   26.4830   46.2470 C   0  0  0  0  0  0  0  0  0  0  0  0
   55.0850   26.3460   45.8780 O   0  0  0  0  0  0  0  0  0  0  0  0
   57.0620   27.5570   45.7800 C   0  0  0  0  0  0  0  0  0  0  0  0
   56.5320   28.5420   44.8770 N   0  0  0  0  0  0  0  0  0  0  0  0
   55.7500   28.2510   44.2480 H   0  0  0  0  0  0  0  0  0  0  0  0
   57.0690   29.8680   44.7190 C   0  0  0  0  0  0  0  0  0  0  0  0
   57.7620   30.5070   45.7630 C   0  0  0  0  0  0  0  0  0  0  0  0
   57.8842   29.9983   46.7306 H   0  0  0  0  0  0  0  0  0  0  0  0
   58.2960   31.7850   45.5770 C   0  0  0  0  0  0  0  0  0  0  0  0
   58.8361   32.2773   46.3992 H   0  0  0  0  0  0  0  0  0  0  0  0
   58.1470   32.4430   44.3480 C   0  0  0  0  0  0  0  0  0  0  0  0
   58.7560   33.7980   44.1370 C   0  0  0  0  0  0  0  0  0  0  0  0
   58.9646   34.2621   45.1122 H   0  0  0  0  0  0  0  0  0  0  0  0
   59.6941   33.6944   43.5720 H   0  0  0  0  0  0  0  0  0  0  0  0
   58.0557   34.4308   43.5720 H   0  0  0  0  0  0  0  0  0  0  0  0
   57.4890   31.7920   43.2950 C   0  0  0  0  0  0  0  0  0  0  0  0
   57.3924   32.2901   42.3190 H   0  0  0  0  0  0  0  0  0  0  0  0
   56.9550   30.5130   43.4790 C   0  0  0  0  0  0  0  0  0  0  0  0
   56.4423   30.0096   42.6461 H   0  0  0  0  0  0  0  0  0  0  0  0
   58.4070   27.6260   46.1590 C   0  0  0  0  0  0  0  0  0  0  0  0
   59.0412   28.4374   45.7725 H   0  0  0  0  0  0  0  0  0  0  0  0
   58.9550   26.6680   47.0290 C   0  0  0  0  0  0  0  0  0  0  0  0
   60.3740   26.7450   47.4500 C   0  0  0  0  0  0  0  0  0  0  0  0
   61.2250   25.9870   46.9090 O   0  0  0  0  0  0  0  0  0  0  0  0
   60.7650   27.6780   48.4730 N   0  0  0  0  0  0  0  0  0  0  0  0
   60.3600   28.9060   48.6270 C   0  0  0  0  0  0  0  0  0  0  0  0
   58.8570   29.4110   49.2070 S   0  0  0  0  0  0  0  0  0  0  0  0
   59.2300   31.0480   49.0740 C   0  0  0  0  0  0  0  0  0  0  0  0
   58.5676   31.8859   49.3370 H   0  0  0  0  0  0  0  0  0  0  0  0
   60.5260   31.1540   48.5720 C   0  0  0  0  0  0  0  0  0  0  0  0
   61.2190   32.4670   48.3720 C   0  0  0  0  0  0  0  0  0  0  0  0
   60.7501   32.9998   47.5316 H   0  0  0  0  0  0  0  0  0  0  0  0
   61.1301   33.0609   49.2936 H   0  0  0  0  0  0  0  0  0  0  0  0
   62.9480   32.2110   48.0140 S   0  0  0  0  0  0  0  0  0  0  0  0
   63.0910   31.3970   46.7580 O   0  0  0  0  0  0  0  0  0  0  0  0
   63.5810   31.4680   49.1560 O   0  0  0  0  0  0  0  0  0  0  0  0
   63.7750   33.7720   47.8040 C   0  0  0  0  0  0  0  0  0  0  0  0
   64.0028   34.2019   48.7906 H   0  0  0  0  0  0  0  0  0  0  0  0
   64.7104   33.6192   47.2458 H   0  0  0  0  0  0  0  0  0  0  0  0
   63.1232   34.4601   47.2458 H   0  0  0  0  0  0  0  0  0  0  0  0
   61.1450   29.9640   48.3340 N   0  0  0  0  0  0  0  0  0  0  0  0
   62.1220   29.8780   47.9720 H   0  0  0  0  0  0  0  0  0  0  0  0
  1  2  1  0
  2  3  1  0
  3  4  1  0
  4  5  2  0
  4  6  1  0
  6  7  1  0
  7  8  1  0
  7  9  1  0
  9 10  2  0
 10 11  1  0
 10 12  1  0
 12 13  1  0
 12 14  2  0
 14 15  1  0
 15 16  1  0
 15 17  1  0
 15 18  1  0
 14 19  1  0
 19 20  1  0
 19 21  2  0
 21 22  1  0
  6 23  2  0
 23 24  1  0
 23 25  1  0
 25 26  1  0
 26 27  2  0
 26 28  1  0
 28 29  2  0
 29 30  1  0
 30 31  1  0
 31 32  1  0
 31 33  2  0
 33 34  1  0
 34 35  1  0
 34 36  1  0
 34 37  1  0
 37 38  2  0
 37 39  2  0
 37 40  1  0
 40 41  1  0
 40 42  1  0
 40 43  1  0
 33 44  1  0
 44 45  1  0
 25  2  2  0
 44 29  1  0
 21  9  1  0
M  CHG  1   3  -1
M  END
>  <UniqueID>  (15) 
15

>  <SMILES>  (15) 
Cc1ccc(Nc2cc(C(=O)/N=c3/[nH]c(CS(C)(=O)=O)cs3)c[n-]c2=O)cc1

>  <Energy>  (15) 
78.98686047367369

>  <Genealogy>  (15) 
Cc1ccc(Nc2cc(C(=O)N=c3[nH]c(CS(C)(=O)=O)cs3)c[n-]c2=O)cc1 (protonated)
Cc1ccc(Nc2cc(C(=O)/N=c3/[nH]c(CS(C)(=O)=O)cs3)c[n-]c2=O)cc1 (cis-trans isomerization)
Cc1ccc(Nc2cc(C(=O)/N=c3/[nH]c(CS(C)(=O)=O)cs3)c[n-]c2=O)cc1 (3D coordinates assigned)
Cc1ccc(Nc2cc(C(=O)/N=c3/[nH]c(CS(C)(=O)=O)cs3)c[n-]c2=O)cc1 (optimized conformer: 78.98686047367369 kcal/mol)

>  <smiles>  (15) 
Cc1ccc(Nc2cc(C(=O)N=c3[nH]c(CS(C)(=O)=O)cs3)c[nH]c2=O)cc1

>  <score_type>  (15) 
oracle

>  <origin>  (15) 
adg

>  <m_score__min__energy>  (15) 
-10.289999999999999

>  <m_primary>  (15) 
energy

$$$$
15:0
     RDKit          3D

 37 39  0  0  0  0  0  0  0  0999 V2000
   61.2620   33.8430   48.7290 C   0  0  0  0  0  0  0  0  0  0  0  0
   59.9610   33.8650   49.0090 C   0  0  0  0  0  0  0  0  0  0  0  0
   58.9440   33.3140   48.0960 C   0  0  0  0  0  0  0  0  0  0  0  0
   57.9770   32.6700   48.5830 O   0  0  0  0  0  0  0  0  0  0  0  0
   59.0080   33.5190   46.6770 N   0  0  0  0  0  0  0  0  0  0  0  0
   59.4350   34.7730   46.0490 C   0  0  0  0  0  0  0  0  0  0  0  0
   59.2000   34.5930   44.5270 C   0  0  0  0  0  0  0  0  0  0  0  0
   58.5400   33.2630   44.4460 C   0  0  0  0  0  0  0  0  0  0  0  0
   58.0050   32.6840   43.3400 N   0  0  0  0  0  0  0  0  0  0  0  0
   57.3530   31.4860   43.4440 C   0  0  0  0  0  0  0  0  0  0  0  0
   56.8250   30.9760   42.4190 O   0  0  0  0  0  0  0  0  0  0  0  0
   57.2440   30.8420   44.7030 C   0  0  0  0  0  0  0  0  0  0  0  0
   56.5510   29.5480   44.8520 C   0  0  0  0  0  0  0  0  0  0  0  0
   55.2920   29.5280   44.8690 O   0  0  0  0  0  0  0  0  0  0  0  0
   57.2660   28.3170   45.0260 N   0  0  0  0  0  0  0  0  0  0  0  0
   57.8750   27.8560   46.2710 C   0  0  0  0  0  0  0  0  0  0  0  0
   59.0020   28.7540   46.6800 C   0  0  0  0  0  0  0  0  0  0  0  0
   59.2340   29.2410   47.9590 C   0  0  0  0  0  0  0  0  0  0  0  0
   60.3860   30.0300   48.0450 C   0  0  0  0  0  0  0  0  0  0  0  0
   61.0650   30.1600   46.8400 C   0  0  0  0  0  0  0  0  0  0  0  0
   60.2270   29.2960   45.6650 S   0  0  0  0  0  0  0  0  0  0  0  0
   57.7740   31.4740   45.8430 C   0  0  0  0  0  0  0  0  0  0  0  0
   58.4430   32.6860   45.6770 C   0  0  0  0  0  0  0  0  0  0  0  0
   61.9852   34.2666   49.4415 H   0  0  0  0  0  0  0  0  0  0  0  0
   61.6141   33.4013   47.7851 H   0  0  0  0  0  0  0  0  0  0  0  0
   59.6322   34.3119   49.9588 H   0  0  0  0  0  0  0  0  0  0  0  0
   58.8376   35.6140   46.4308 H   0  0  0  0  0  0  0  0  0  0  0  0
   60.4897   34.9943   46.2695 H   0  0  0  0  0  0  0  0  0  0  0  0
   58.5457   35.3839   44.1316 H   0  0  0  0  0  0  0  0  0  0  0  0
   60.1251   34.6549   43.9350 H   0  0  0  0  0  0  0  0  0  0  0  0
   58.0760   33.1670   42.4160 H   0  0  0  0  0  0  0  0  0  0  0  0
   57.1129   27.8506   47.0642 H   0  0  0  0  0  0  0  0  0  0  0  0
   58.2729   26.8427   46.1132 H   0  0  0  0  0  0  0  0  0  0  0  0
   58.5792   29.0283   48.8169 H   0  0  0  0  0  0  0  0  0  0  0  0
   60.7227   30.5031   48.9792 H   0  0  0  0  0  0  0  0  0  0  0  0
   61.9921   30.7304   46.6814 H   0  0  0  0  0  0  0  0  0  0  0  0
   57.6633   31.0232   46.8402 H   0  0  0  0  0  0  0  0  0  0  0  0
  1  2  2  0
  2  3  1  0
  3  4  2  0
  3  5  1  0
  5  6  1  0
  6  7  1  0
  7  8  1  0
  8  9  1  0
  9 10  1  0
 10 11  2  0
 10 12  1  0
 12 13  1  0
 13 14  2  0
 13 15  1  0
 15 16  1  0
 16 17  1  0
 17 18  2  0
 18 19  1  0
 19 20  2  0
 20 21  1  0
 12 22  2  0
 22 23  1  0
 23  5  1  0
 23  8  2  0
 21 17  1  0
  1 24  1  0
  1 25  1  0
  2 26  1  0
  6 27  1  0
  6 28  1  0
  7 29  1  0
  7 30  1  0
  9 31  1  0
 16 32  1  0
 16 33  1  0
 18 34  1  0
 19 35  1  0
 20 36  1  0
 22 37  1  0
M  CHG  1  15  -1
M  END
>  <UniqueID>  (16) 
16

>  <SMILES>  (16) 
C=CC(=O)N1CCc2[nH]c(=O)c(C(=O)[N-]Cc3cccs3)cc21

>  <Energy>  (16) 
84.99039977127084

>  <Genealogy>  (16) 
C=CC(=O)N1CCc2[nH]c(=O)c(C(=O)[N-]Cc3cccs3)cc21 (protonated)
C=CC(=O)N1CCc2[nH]c(=O)c(C(=O)[N-]Cc3cccs3)cc21 (3D coordinates assigned)
C=CC(=O)N1CCc2[nH]c(=O)c(C(=O)[N-]Cc3cccs3)cc21 (nonaromatic ring conformer: 84.99039977127084 kcal/mol)

>  <smiles>  (16) 
C=CC(=O)N1CCc2[nH]c(=O)c(C(=O)NCc3cccs3)cc21

>  <score_type>  (16) 
oracle

>  <origin>  (16) 
adg

>  <m_score__min__energy>  (16) 
-9.0500000000000007

>  <m_primary>  (16) 
energy

$$$$
16:0
     RDKit          3D

 50 52  0  0  0  0  0  0  0  0999 V2000
   58.8360   31.6440   45.0110 N   0  0  0  0  0  0  0  0  0  0  0  0
   57.4730   32.0660   45.0330 C   0  0  0  0  0  0  0  0  0  0  0  0
   56.5600   31.2330   44.7850 O   0  0  0  0  0  0  0  0  0  0  0  0
   57.1230   33.4730   45.4140 C   0  0  0  0  0  0  0  0  0  0  0  0
   58.3220   34.2750   45.6440 N   0  0  0  0  0  0  0  0  0  0  0  0
   59.1500   34.2710   46.8180 C   0  0  0  0  0  0  0  0  0  0  0  0
   59.2760   35.3390   47.4700 O   0  0  0  0  0  0  0  0  0  0  0  0
   59.8680   33.1090   47.2570 N   0  0  0  0  0  0  0  0  0  0  0  0
   61.2600   33.0390   47.5900 C   0  0  0  0  0  0  0  0  0  0  0  0
   61.8770   34.2000   48.0710 C   0  0  0  0  0  0  0  0  0  0  0  0
   63.2420   34.2130   48.3610 C   0  0  0  0  0  0  0  0  0  0  0  0
   64.0020   33.0580   48.1850 C   0  0  0  0  0  0  0  0  0  0  0  0
   63.3950   31.8800   47.7480 C   0  0  0  0  0  0  0  0  0  0  0  0
   62.0110   31.8370   47.4870 C   0  0  0  0  0  0  0  0  0  0  0  0
   61.3810   30.5210   47.0790 C   0  0  0  0  0  0  0  0  0  0  0  0
   60.4910   29.9980   48.1410 N   0  0  0  0  0  0  0  0  0  0  0  0
   59.0540   30.2400   47.8760 C   0  0  0  0  0  0  0  0  0  0  0  0
   58.4870   29.3300   46.7750 C   0  0  0  0  0  0  0  0  0  0  0  0
   58.8610   27.9350   47.0210 N   0  0  0  0  0  0  0  0  0  0  0  0
   57.9780   26.8760   46.6000 C   0  0  0  0  0  0  0  0  0  0  0  0
   58.4830   25.5840   46.3790 C   0  0  0  0  0  0  0  0  0  0  0  0
   57.6310   24.5530   45.9720 C   0  0  0  0  0  0  0  0  0  0  0  0
   56.2690   24.8040   45.7800 C   0  0  0  0  0  0  0  0  0  0  0  0
   55.7580   26.0870   45.9930 C   0  0  0  0  0  0  0  0  0  0  0  0
   54.4040   26.3350   45.8020 O   0  0  0  0  0  0  0  0  0  0  0  0
   56.6080   27.1210   46.4000 C   0  0  0  0  0  0  0  0  0  0  0  0
   60.2610   27.6420   47.3380 C   0  0  0  0  0  0  0  0  0  0  0  0
   60.7520   28.5770   48.4490 C   0  0  0  0  0  0  0  0  0  0  0  0
   59.6050   32.3060   45.2610 H   0  0  0  0  0  0  0  0  0  0  0  0
   59.0800   30.6640   44.7450 H   0  0  0  0  0  0  0  0  0  0  0  0
   56.5374   33.9289   44.6021 H   0  0  0  0  0  0  0  0  0  0  0  0
   56.5401   33.4452   46.3464 H   0  0  0  0  0  0  0  0  0  0  0  0
   61.2797   35.1113   48.2219 H   0  0  0  0  0  0  0  0  0  0  0  0
   63.7178   35.1342   48.7283 H   0  0  0  0  0  0  0  0  0  0  0  0
   65.0824   33.0751   48.3910 H   0  0  0  0  0  0  0  0  0  0  0  0
   64.0037   30.9749   47.6057 H   0  0  0  0  0  0  0  0  0  0  0  0
   60.7930   30.6743   46.1621 H   0  0  0  0  0  0  0  0  0  0  0  0
   62.1847   29.7896   46.9083 H   0  0  0  0  0  0  0  0  0  0  0  0
   58.4910   30.0608   48.8039 H   0  0  0  0  0  0  0  0  0  0  0  0
   58.9528   31.2792   47.5298 H   0  0  0  0  0  0  0  0  0  0  0  0
   57.3903   29.4145   46.7643 H   0  0  0  0  0  0  0  0  0  0  0  0
   58.9003   29.6440   45.8052 H   0  0  0  0  0  0  0  0  0  0  0  0
   59.5542   25.3824   46.5269 H   0  0  0  0  0  0  0  0  0  0  0  0
   58.0327   23.5431   45.8026 H   0  0  0  0  0  0  0  0  0  0  0  0
   55.5996   23.9914   45.4612 H   0  0  0  0  0  0  0  0  0  0  0  0
   56.2026   28.1303   46.5643 H   0  0  0  0  0  0  0  0  0  0  0  0
   60.3478   26.5985   47.6749 H   0  0  0  0  0  0  0  0  0  0  0  0
   60.8753   27.7952   46.4385 H   0  0  0  0  0  0  0  0  0  0  0  0
   60.2351   28.3170   49.3845 H   0  0  0  0  0  0  0  0  0  0  0  0
   61.8403   28.4469   48.5422 H   0  0  0  0  0  0  0  0  0  0  0  0
  1  2  1  0
  2  3  2  0
  2  4  1  0
  4  5  1  0
  5  6  1  0
  6  7  2  0
  6  8  1  0
  8  9  1  0
  9 10  2  0
 10 11  1  0
 11 12  2  0
 12 13  1  0
 13 14  2  0
 14 15  1  0
 15 16  1  0
 16 17  1  0
 17 18  1  0
 18 19  1  0
 19 20  1  0
 20 21  2  0
 21 22  1  0
 22 23  2  0
 23 24  1  0
 24 25  1  0
 24 26  2  0
 19 27  1  0
 27 28  1  0
 14  9  1  0
 28 16  1  0
 26 20  1  0
  1 29  1  0
  1 30  1  0
  4 31  1  0
  4 32  1  0
 10 33  1  0
 11 34  1  0
 12 35  1  0
 13 36  1  0
 15 37  1  0
 15 38  1  0
 17 39  1  0
 17 40  1  0
 18 41  1  0
 18 42  1  0
 21 43  1  0
 22 44  1  0
 23 45  1  0
 26 46  1  0
 27 47  1  0
 27 48  1  0
 28 49  1  0
 28 50  1  0
M  CHG  3   5  -1   8  -1  25  -1
M  END
>  <UniqueID>  (17) 
17

>  <SMILES>  (17) 
NC(=O)C[N-]C(=O)[N-]c1ccccc1CN1CCN(c2cccc([O-])c2)CC1

>  <Energy>  (17) 
64.76976194061272

>  <Genealogy>  (17) 
NC(=O)C[N-]C(=O)[N-]c1ccccc1CN1CCN(c2cccc([O-])c2)CC1 (protonated)
NC(=O)C[N-]C(=O)[N-]c1ccccc1CN1CCN(c2cccc([O-])c2)CC1 (3D coordinates assigned)
NC(=O)C[N-]C(=O)[N-]c1ccccc1CN1CCN(c2cccc([O-])c2)CC1 (nonaromatic ring conformer: 64.76976194061272 kcal/mol)

>  <smiles>  (17) 
NC(=O)CNC(=O)Nc1ccccc1CN1CCN(c2cccc(O)c2)CC1

>  <score_type>  (17) 
oracle

>  <origin>  (17) 
adg

>  <m_score__min__energy>  (17) 
-14.1

>  <m_primary>  (17) 
energy

$$$$
17:0
     RDKit          3D

 53 56  0  0  0  0  0  0  0  0999 V2000
   62.4677   32.8366   52.7910 H   0  0  0  0  0  0  0  0  0  0  0  0
   61.7630   33.0350   51.9700 C   0  0  0  0  0  0  0  0  0  0  0  0
   60.4140   32.4270   52.0110 C   0  0  0  0  0  0  0  0  0  0  0  0
   60.2360   31.3590   52.6660 O   0  0  0  0  0  0  0  0  0  0  0  0
   59.3320   33.0060   51.2310 N   0  0  2  0  0  0  0  0  0  0  0  0
   59.7130   33.8660   50.7710 H   0  0  0  0  0  0  0  0  0  0  0  0
   58.2180   33.4610   52.0870 C   0  0  0  0  0  0  0  0  0  0  0  0
   58.4979   33.3467   53.1446 H   0  0  0  0  0  0  0  0  0  0  0  0
   58.0027   34.5191   51.8770 H   0  0  0  0  0  0  0  0  0  0  0  0
   57.3235   32.8562   51.8770 H   0  0  0  0  0  0  0  0  0  0  0  0
   58.8540   32.1010   50.1460 C   0  0  0  0  0  0  0  0  0  0  0  0
   59.3365   31.1211   50.2768 H   0  0  0  0  0  0  0  0  0  0  0  0
   57.7587   32.0527   50.2350 H   0  0  0  0  0  0  0  0  0  0  0  0
   59.1560   32.5970   48.7410 C   0  0  0  0  0  0  0  0  0  0  0  0
   59.0600   31.6960   47.6680 C   0  0  0  0  0  0  0  0  0  0  0  0
   58.8804   30.6301   47.8719 H   0  0  0  0  0  0  0  0  0  0  0  0
   59.1890   32.1310   46.3420 C   0  0  0  0  0  0  0  0  0  0  0  0
   58.8490   31.2570   45.2540 N   0  0  0  0  0  0  0  0  0  0  0  0
   57.7880   30.5010   45.1310 C   0  0  0  0  0  0  0  0  0  0  0  0
   56.6130   30.9620   44.4990 C   0  0  0  0  0  0  0  0  0  0  0  0
   56.5675   31.9877   44.1041 H   0  0  0  0  0  0  0  0  0  0  0  0
   55.5100   30.1180   44.3750 C   0  0  0  0  0  0  0  0  0  0  0  0
   54.5979   30.4791   43.8773 H   0  0  0  0  0  0  0  0  0  0  0  0
   55.5560   28.8540   44.8650 N   0  0  0  0  0  0  0  0  0  0  0  0
   56.6570   28.3690   45.4930 C   0  0  0  0  0  0  0  0  0  0  0  0
   56.6620   27.0510   45.9640 C   0  0  0  0  0  0  0  0  0  0  0  0
   55.7676   26.4223   45.8419 H   0  0  0  0  0  0  0  0  0  0  0  0
   57.7970   26.5310   46.5880 C   0  0  0  0  0  0  0  0  0  0  0  0
   57.8030   24.8720   47.1570 Cl  0  0  0  0  0  0  0  0  0  0  0  0
   58.9340   27.3290   46.7510 C   0  0  0  0  0  0  0  0  0  0  0  0
   59.8263   26.9168   47.2448 H   0  0  0  0  0  0  0  0  0  0  0  0
   58.9410   28.6480   46.2890 C   0  0  0  0  0  0  0  0  0  0  0  0
   59.8389   29.2693   46.4224 H   0  0  0  0  0  0  0  0  0  0  0  0
   57.8040   29.1870   45.6530 C   0  0  0  0  0  0  0  0  0  0  0  0
   59.4440   33.4830   46.0890 C   0  0  0  0  0  0  0  0  0  0  0  0
   59.5087   33.8442   45.0520 H   0  0  0  0  0  0  0  0  0  0  0  0
   59.6170   34.3770   47.1510 C   0  0  0  0  0  0  0  0  0  0  0  0
   59.8679   35.4280   46.9450 H   0  0  0  0  0  0  0  0  0  0  0  0
   59.4730   33.9430   48.4740 C   0  0  0  0  0  0  0  0  0  0  0  0
   59.6450   34.8520   49.5120 O   0  0  0  0  0  0  0  0  0  0  0  0
   62.1450   33.8230   50.9530 C   0  0  0  0  0  0  0  0  0  0  0  0
   62.1320   34.9114   51.1121 H   0  0  0  0  0  0  0  0  0  0  0  0
   62.5840   33.3200   49.6270 C   0  0  0  0  0  0  0  0  0  0  0  0
   63.0370   34.1770   48.6020 C   0  0  0  0  0  0  0  0  0  0  0  0
   63.1201   35.2579   48.7887 H   0  0  0  0  0  0  0  0  0  0  0  0
   63.3810   33.6580   47.3490 C   0  0  0  0  0  0  0  0  0  0  0  0
   63.7439   34.3305   46.5577 H   0  0  0  0  0  0  0  0  0  0  0  0
   63.2650   32.2890   47.1000 C   0  0  0  0  0  0  0  0  0  0  0  0
   63.5424   31.8835   46.1158 H   0  0  0  0  0  0  0  0  0  0  0  0
   62.7970   31.4350   48.1000 C   0  0  0  0  0  0  0  0  0  0  0  0
   62.6979   30.3577   47.9008 H   0  0  0  0  0  0  0  0  0  0  0  0
   62.4540   31.9480   49.3550 C   0  0  0  0  0  0  0  0  0  0  0  0
   62.0789   31.2708   50.1365 H   0  0  0  0  0  0  0  0  0  0  0  0
  1  2  1  0
  2  3  1  0
  3  4  2  0
  3  5  1  0
  5  6  1  6
  5  7  1  0
  7  8  1  0
  7  9  1  0
  7 10  1  0
  5 11  1  0
 11 12  1  0
 11 13  1  0
 11 14  1  0
 14 15  2  0
 15 16  1  0
 15 17  1  0
 17 18  1  0
 18 19  2  0
 19 20  1  0
 20 21  1  0
 20 22  2  0
 22 23  1  0
 22 24  1  0
 24 25  1  0
 25 26  2  0
 26 27  1  0
 26 28  1  0
 28 29  1  0
 28 30  2  0
 30 31  1  0
 30 32  1  0
 32 33  1  0
 32 34  2  0
 17 35  2  0
 35 36  1  0
 35 37  1  0
 37 38  1  0
 37 39  2  0
 39 40  1  0
  2 41  2  0
 41 42  1  0
 41 43  1  0
 43 44  2  0
 44 45  1  0
 44 46  1  0
 46 47  1  0
 46 48  2  0
 48 49  1  0
 48 50  1  0
 50 51  1  0
 50 52  2  0
 52 53  1  0
 39 14  1  0
 52 43  1  0
 34 19  1  0
 34 25  1  0
M  CHG  3   5   1  24  -1  40  -1
M  END
>  <UniqueID>  (18) 
18

>  <SMILES>  (18) 
C[N@H+](Cc1cc(/N=c2\cc[n-]c3cc(Cl)ccc23)ccc1[O-])C(=O)/C=C/c1ccccc1

>  <Energy>  (18) 
76.33461498660213

>  <Genealogy>  (18) 
C[NH+](Cc1cc(N=c2cc[n-]c3cc(Cl)ccc23)ccc1[O-])C(=O)C=Cc1ccccc1 (protonated)
C[N@H+](Cc1cc(N=c2cc[n-]c3cc(Cl)ccc23)ccc1[O-])C(=O)C=Cc1ccccc1 (chirality)
C[N@H+](Cc1cc(/N=c2\cc[n-]c3cc(Cl)ccc23)ccc1[O-])C(=O)/C=C/c1ccccc1 (cis-trans isomerization)
C[N@H+](Cc1cc(/N=c2\cc[n-]c3cc(Cl)ccc23)ccc1[O-])C(=O)/C=C/c1ccccc1 (3D coordinates assigned)
C[N@H+](Cc1cc(/N=c2\cc[n-]c3cc(Cl)ccc23)ccc1[O-])C(=O)/C=C/c1ccccc1 (optimized conformer: 76.33461498660213 kcal/mol)

>  <smiles>  (18) 
CN(Cc1cc(N=c2cc[nH]c3cc(Cl)ccc23)ccc1O)C(=O)C=Cc1ccccc1

>  <score_type>  (18) 
oracle

>  <origin>  (18) 
adg

>  <m_score__min__energy>  (18) 
-11.460000000000001

>  <m_primary>  (18) 
energy

$$$$
18:0
     RDKit          3D

 62 65  0  0  0  0  0  0  0  0999 V2000
   56.8060   31.5760   51.9710 C   0  0  0  0  0  0  0  0  0  0  0  0
   57.8180   32.1590   51.0450 C   0  0  0  0  0  0  0  0  0  0  0  0
   58.8950   32.9430   51.4060 C   0  0  0  0  0  0  0  0  0  0  0  0
   59.4790   33.2400   50.1830 C   0  0  0  0  0  0  0  0  0  0  0  0
   60.5310   33.9740   49.9650 N   0  0  0  0  0  0  0  0  0  0  0  0
   61.8360   33.8430   50.5530 C   0  0  0  0  0  0  0  0  0  0  0  0
   62.0020   33.2580   51.6590 O   0  0  0  0  0  0  0  0  0  0  0  0
   63.0270   34.3670   49.8100 C   0  0  0  0  0  0  0  0  0  0  0  0
   63.4790   33.3680   48.7340 C   0  0  0  0  0  0  0  0  0  0  0  0
   62.5690   33.3770   47.5230 C   0  0  0  0  0  0  0  0  0  0  0  0
   62.9700   33.8660   46.4750 O   0  0  0  0  0  0  0  0  0  0  0  0
   61.2690   32.7300   47.5770 N   0  0  2  0  0  0  0  0  0  0  0  0
   61.4240   31.2870   47.6890 C   0  0  0  0  0  0  0  0  0  0  0  0
   61.7590   30.5950   46.6890 O   0  0  0  0  0  0  0  0  0  0  0  0
   61.1920   30.5880   48.9750 C   0  0  0  0  0  0  0  0  0  0  0  0
   62.2080   30.5590   49.9440 C   0  0  0  0  0  0  0  0  0  0  0  0
   62.0070   29.9060   51.1640 C   0  0  0  0  0  0  0  0  0  0  0  0
   60.7930   29.2720   51.4230 C   0  0  0  0  0  0  0  0  0  0  0  0
   59.7770   29.2840   50.4670 C   0  0  0  0  0  0  0  0  0  0  0  0
   59.9690   29.9260   49.2310 C   0  0  0  0  0  0  0  0  0  0  0  0
   58.8910   29.9970   48.2790 N   0  0  0  0  0  0  0  0  0  0  0  0
   58.7670   29.1480   47.1260 C   0  0  0  0  0  0  0  0  0  0  0  0
   57.7720   29.3670   46.1540 C   0  0  0  0  0  0  0  0  0  0  0  0
   57.6430   28.4950   45.0690 C   0  0  0  0  0  0  0  0  0  0  0  0
   58.4850   27.3890   44.9560 C   0  0  0  0  0  0  0  0  0  0  0  0
   59.4650   27.1530   45.9260 C   0  0  0  0  0  0  0  0  0  0  0  0
   59.6070   28.0300   47.0040 C   0  0  0  0  0  0  0  0  0  0  0  0
   60.3910   33.1760   46.4560 C   0  0  0  0  0  0  0  0  0  0  0  0
   59.7840   34.5640   46.6830 C   0  0  0  0  0  0  0  0  0  0  0  0
   58.5170   34.5790   45.8480 C   0  0  0  0  0  0  0  0  0  0  0  0
   58.0000   33.1470   45.8550 C   0  0  0  0  0  0  0  0  0  0  0  0
   59.2090   32.2470   46.1070 C   0  0  0  0  0  0  0  0  0  0  0  0
   58.7770   32.6720   49.1820 N   0  0  0  0  0  0  0  0  0  0  0  0
   57.7890   32.0340   49.7360 O   0  0  0  0  0  0  0  0  0  0  0  0
   57.1153   31.7542   53.0115 H   0  0  0  0  0  0  0  0  0  0  0  0
   55.8296   32.0500   51.7925 H   0  0  0  0  0  0  0  0  0  0  0  0
   56.7262   30.4935   51.7925 H   0  0  0  0  0  0  0  0  0  0  0  0
   59.2114   33.2546   52.4124 H   0  0  0  0  0  0  0  0  0  0  0  0
   62.7618   35.3201   49.3291 H   0  0  0  0  0  0  0  0  0  0  0  0
   63.8513   34.5154   50.5231 H   0  0  0  0  0  0  0  0  0  0  0  0
   64.4978   33.6307   48.4130 H   0  0  0  0  0  0  0  0  0  0  0  0
   63.4439   32.3605   49.1740 H   0  0  0  0  0  0  0  0  0  0  0  0
   60.7950   33.0650   48.4470 H   0  0  0  0  0  0  0  0  0  0  0  0
   63.1694   31.0538   49.7417 H   0  0  0  0  0  0  0  0  0  0  0  0
   62.8067   29.8926   51.9192 H   0  0  0  0  0  0  0  0  0  0  0  0
   60.6355   28.7606   52.3841 H   0  0  0  0  0  0  0  0  0  0  0  0
   58.8191   28.7877   50.6817 H   0  0  0  0  0  0  0  0  0  0  0  0
   58.1540   30.7260   48.4240 H   0  0  0  0  0  0  0  0  0  0  0  0
   57.0935   30.2276   46.2488 H   0  0  0  0  0  0  0  0  0  0  0  0
   56.8759   28.6815   44.3030 H   0  0  0  0  0  0  0  0  0  0  0  0
   58.3785   26.7018   44.1037 H   0  0  0  0  0  0  0  0  0  0  0  0
   60.1240   26.2765   45.8398 H   0  0  0  0  0  0  0  0  0  0  0  0
   60.3819   27.8433   47.7620 H   0  0  0  0  0  0  0  0  0  0  0  0
   61.1044   33.1694   45.6187 H   0  0  0  0  0  0  0  0  0  0  0  0
   59.5479   34.7136   47.7469 H   0  0  0  0  0  0  0  0  0  0  0  0
   60.4765   35.3698   46.3982 H   0  0  0  0  0  0  0  0  0  0  0  0
   57.7734   35.2571   46.2921 H   0  0  0  0  0  0  0  0  0  0  0  0
   58.7098   34.9353   44.8253 H   0  0  0  0  0  0  0  0  0  0  0  0
   57.2562   33.0160   46.6547 H   0  0  0  0  0  0  0  0  0  0  0  0
   57.5116   32.8971   44.9016 H   0  0  0  0  0  0  0  0  0  0  0  0
   59.0044   31.5635   46.9443 H   0  0  0  0  0  0  0  0  0  0  0  0
   59.4363   31.6342   45.2222 H   0  0  0  0  0  0  0  0  0  0  0  0
  1  2  1  0
  2  3  2  0
  3  4  1  0
  4  5  2  3
  5  6  1  0
  6  7  2  0
  6  8  1  0
  8  9  1  0
  9 10  1  0
 10 11  2  0
 10 12  1  0
 12 13  1  0
 13 14  2  0
 13 15  1  0
 15 16  2  0
 16 17  1  0
 17 18  2  0
 18 19  1  0
 19 20  2  0
 20 21  1  0
 21 22  1  0
 22 23  2  0
 23 24  1  0
 24 25  2  0
 25 26  1  0
 26 27  2  0
 12 28  1  0
 28 29  1  0
 29 30  1  0
 30 31  1  0
 31 32  1  0
  4 33  1  0
 33 34  1  0
 34  2  1  0
 20 15  1  0
 27 22  1  0
 32 28  1  0
  1 35  1  0
  1 36  1  0
  1 37  1  0
  3 38  1  0
  8 39  1  0
  8 40  1  0
  9 41  1  0
  9 42  1  0
 12 43  1  1
 16 44  1  0
 17 45  1  0
 18 46  1  0
 19 47  1  0
 21 48  1  0
 23 49  1  0
 24 50  1  0
 25 51  1  0
 26 52  1  0
 27 53  1  0
 28 54  1  0
 29 55  1  0
 29 56  1  0
 30 57  1  0
 30 58  1  0
 31 59  1  0
 31 60  1  0
 32 61  1  0
 32 62  1  0
M  CHG  2  12   1  33  -1
M  END
>  <UniqueID>  (19) 
19

>  <SMILES>  (19) 
Cc1cc(=NC(=O)CCC(=O)[NH+](C(=O)c2ccccc2Nc2ccccc2)C2CCCC2)[n-]o1

>  <Energy>  (19) 
116.20711720078985

>  <Genealogy>  (19) 
Cc1cc(=NC(=O)CCC(=O)[NH+](C(=O)c2ccccc2Nc2ccccc2)C2CCCC2)[n-]o1 (protonated)
Cc1cc(=NC(=O)CCC(=O)[NH+](C(=O)c2ccccc2Nc2ccccc2)C2CCCC2)[n-]o1 (3D coordinates assigned)
Cc1cc(=NC(=O)CCC(=O)[NH+](C(=O)c2ccccc2Nc2ccccc2)C2CCCC2)[n-]o1 (nonaromatic ring conformer: 116.20711720078985 kcal/mol)

>  <smiles>  (19) 
Cc1cc(=NC(=O)CCC(=O)N(C(=O)c2ccccc2Nc2ccccc2)C2CCCC2)[nH]o1

>  <score_type>  (19) 
oracle

>  <origin>  (19) 
adg

>  <m_score__min__energy>  (19) 
-10.77

>  <m_primary>  (19) 
energy

$$$$
19:0
     RDKit          3D

 53 56  0  0  0  0  0  0  0  0999 V2000
   56.5266   31.6322   52.1354 H   0  0  0  0  0  0  0  0  0  0  0  0
   55.4660   31.3800   51.9890 C   0  0  0  0  0  0  0  0  0  0  0  0
   54.8176   32.0482   51.4033 H   0  0  0  0  0  0  0  0  0  0  0  0
   54.9630   30.2570   52.5250 C   0  0  0  0  0  0  0  0  0  0  0  0
   53.6410   29.8010   52.4280 C   0  0  0  0  0  0  0  0  0  0  0  0
   52.6270   30.4000   51.7650 C   0  0  0  0  0  0  0  0  0  0  0  0
   52.4762   30.1143   50.7135 H   0  0  0  0  0  0  0  0  0  0  0  0
   51.7020   31.4070   52.3310 C   0  0  0  0  0  0  0  0  0  0  0  0
   51.4180   31.5800   53.6340 N   0  0  0  0  0  0  0  0  0  0  0  0
   50.5540   32.6180   53.6360 C   0  0  0  0  0  0  0  0  0  0  0  0
   50.0440   33.0730   54.6920 O   0  0  0  0  0  0  0  0  0  0  0  0
   50.2740   33.1240   52.4160 N   0  0  0  0  0  0  0  0  0  0  0  0
   51.0110   32.3480   51.6040 C   0  0  0  0  0  0  0  0  0  0  0  0
   51.0390   32.4900   50.2220 O   0  0  0  0  0  0  0  0  0  0  0  0
   53.5970   28.6020   53.1330 C   0  0  0  0  0  0  0  0  0  0  0  0
   52.7178   27.9562   53.2741 H   0  0  0  0  0  0  0  0  0  0  0  0
   54.8680   28.3790   53.6210 C   0  0  0  0  0  0  0  0  0  0  0  0
   55.2720   27.1940   54.4420 C   0  0  0  0  0  0  0  0  0  0  0  0
   55.1874   27.4421   55.5103 H   0  0  0  0  0  0  0  0  0  0  0  0
   54.6126   26.3448   54.2094 H   0  0  0  0  0  0  0  0  0  0  0  0
   56.3128   26.9245   54.2094 H   0  0  0  0  0  0  0  0  0  0  0  0
   55.6910   29.3880   53.2650 N   0  0  0  0  0  0  0  0  0  0  0  0
   57.0930   29.4870   53.5810 C   0  0  0  0  0  0  0  0  0  0  0  0
   57.4790   29.1460   54.7300 O   0  0  0  0  0  0  0  0  0  0  0  0
   58.0660   29.9500   52.6100 N   0  0  0  0  0  0  0  0  0  0  0  0
   57.5690   29.9690   51.6890 H   0  0  0  0  0  0  0  0  0  0  0  0
   58.5320   31.3250   52.8840 C   0  0  0  0  0  0  0  0  0  0  0  0
   57.6604   31.9927   52.9508 H   0  0  0  0  0  0  0  0  0  0  0  0
   59.0910   31.3213   53.8314 H   0  0  0  0  0  0  0  0  0  0  0  0
   59.4690   31.8300   51.7650 C   0  0  0  0  0  0  0  0  0  0  0  0
   58.8516   32.2501   50.9573 H   0  0  0  0  0  0  0  0  0  0  0  0
   60.1348   32.5809   52.2153 H   0  0  0  0  0  0  0  0  0  0  0  0
   60.3330   30.7690   51.1920 N   0  0  0  0  0  0  0  0  0  0  0  0
   59.9010   30.3330   49.8450 C   0  0  0  0  0  0  0  0  0  0  0  0
   60.6260   29.6092   49.4444 H   0  0  0  0  0  0  0  0  0  0  0  0
   58.9097   29.8612   49.9140 H   0  0  0  0  0  0  0  0  0  0  0  0
   59.8250   31.5240   48.9300 C   0  0  0  0  0  0  0  0  0  0  0  0
   61.0070   32.1480   48.4930 C   0  0  0  0  0  0  0  0  0  0  0  0
   61.9839   31.7502   48.8052 H   0  0  0  0  0  0  0  0  0  0  0  0
   60.9460   33.2710   47.6640 C   0  0  0  0  0  0  0  0  0  0  0  0
   61.8743   33.7504   47.3197 H   0  0  0  0  0  0  0  0  0  0  0  0
   59.7060   33.7870   47.2710 C   0  0  0  0  0  0  0  0  0  0  0  0
   59.6310   35.2000   46.2310 Cl  0  0  0  0  0  0  0  0  0  0  0  0
   58.5240   33.1780   47.7100 C   0  0  0  0  0  0  0  0  0  0  0  0
   57.5494   33.5856   47.4034 H   0  0  0  0  0  0  0  0  0  0  0  0
   58.5810   32.0520   48.5380 C   0  0  0  0  0  0  0  0  0  0  0  0
   57.6506   31.5779   48.8837 H   0  0  0  0  0  0  0  0  0  0  0  0
   60.5270   29.6400   52.1190 C   0  0  0  0  0  0  0  0  0  0  0  0
   61.1614   28.8853   51.6313 H   0  0  0  0  0  0  0  0  0  0  0  0
   61.0008   30.0286   53.0325 H   0  0  0  0  0  0  0  0  0  0  0  0
   59.1900   28.9830   52.5190 C   0  0  0  0  0  0  0  0  0  0  0  0
   58.9359   28.2216   51.7668 H   0  0  0  0  0  0  0  0  0  0  0  0
   59.3270   28.5466   53.5194 H   0  0  0  0  0  0  0  0  0  0  0  0
  1  2  1  0
  2  3  1  0
  2  4  2  0
  4  5  1  0
  5  6  2  0
  6  7  1  0
  6  8  1  0
  8  9  1  0
  9 10  1  0
 10 11  2  0
 10 12  1  0
 12 13  1  0
 13 14  1  0
  5 15  1  0
 15 16  1  0
 15 17  2  0
 17 18  1  0
 18 19  1  0
 18 20  1  0
 18 21  1  0
 17 22  1  0
 22 23  1  0
 23 24  2  0
 23 25  1  0
 25 26  1  0
 25 27  1  0
 27 28  1  0
 27 29  1  0
 27 30  1  0
 30 31  1  0
 30 32  1  0
 30 33  1  0
 33 34  1  0
 34 35  1  0
 34 36  1  0
 34 37  1  0
 37 38  2  0
 38 39  1  0
 38 40  1  0
 40 41  1  0
 40 42  2  0
 42 43  1  0
 42 44  1  0
 44 45  1  0
 44 46  2  0
 46 47  1  0
 33 48  1  0
 48 49  1  0
 48 50  1  0
 48 51  1  0
 51 52  1  0
 51 53  1  0
 22  4  1  0
 51 25  1  0
 13  8  2  0
 46 37  1  0
M  CHG  4   9  -1  12  -1  14  -1  25   1
M  END
>  <UniqueID>  (20) 
20

>  <SMILES>  (20) 
C=c1/c(=C/c2[n-]c(=O)[n-]c2[O-])cc(C)n1C(=O)[NH+]1CCN(Cc2ccc(Cl)cc2)CC1

>  <Energy>  (20) 
139.7994721619739

>  <Genealogy>  (20) 
C=c1c(=Cc2[n-]c(=O)[n-]c2[O-])cc(C)n1C(=O)[NH+]1CCN(Cc2ccc(Cl)cc2)CC1 (protonated)
C=c1/c(=C/c2[n-]c(=O)[n-]c2[O-])cc(C)n1C(=O)[NH+]1CCN(Cc2ccc(Cl)cc2)CC1 (cis-trans isomerization)
C=c1/c(=C/c2[n-]c(=O)[n-]c2[O-])cc(C)n1C(=O)[NH+]1CCN(Cc2ccc(Cl)cc2)CC1 (3D coordinates assigned)
C=c1/c(=C/c2[n-]c(=O)[n-]c2[O-])cc(C)n1C(=O)[NH+]1CCN(Cc2ccc(Cl)cc2)CC1 (nonaromatic ring conformer: 139.7994721619739 kcal/mol)

>  <smiles>  (20) 
C=c1c(=Cc2[nH]c(=O)[nH]c2O)cc(C)n1C(=O)N1CCN(Cc2ccc(Cl)cc2)CC1

>  <score_type>  (20) 
oracle

>  <origin>  (20) 
adg

>  <m_score__min__energy>  (20) 
-16.52

>  <m_primary>  (20) 
energy

$$$$
20:0
     RDKit          3D

 37 39  0  0  0  0  0  0  0  0999 V2000
   58.1990   34.5500   47.4030 O   0  0  0  0  0  0  0  0  0  0  0  0
   58.4620   33.6200   46.5940 C   0  0  0  0  0  0  0  0  0  0  0  0
   57.8650   33.6520   45.2910 N   0  0  0  0  0  0  0  0  0  0  0  0
   58.5400   33.3590   44.0280 C   0  0  0  0  0  0  0  0  0  0  0  0
   57.7250   32.3920   43.1610 C   0  0  0  0  0  0  0  0  0  0  0  0
   57.3660   31.1530   43.9190 C   0  0  0  0  0  0  0  0  0  0  0  0
   58.2130   30.1320   44.1470 N   0  0  0  0  0  0  0  0  0  0  0  0
   57.4340   29.2910   44.8590 C   0  0  0  0  0  0  0  0  0  0  0  0
   57.8900   27.9940   45.4080 C   0  0  0  0  0  0  0  0  0  0  0  0
   59.2710   27.7960   45.5900 C   0  0  0  0  0  0  0  0  0  0  0  0
   59.7590   26.5750   46.0620 C   0  0  0  0  0  0  0  0  0  0  0  0
   58.8760   25.5360   46.3570 C   0  0  0  0  0  0  0  0  0  0  0  0
   57.5030   25.7190   46.1970 C   0  0  0  0  0  0  0  0  0  0  0  0
   56.9960   26.9460   45.7470 C   0  0  0  0  0  0  0  0  0  0  0  0
   55.6070   27.0900   45.6870 O   0  0  0  0  0  0  0  0  0  0  0  0
   56.1980   29.7890   45.0670 N   0  0  0  0  0  0  0  0  0  0  0  0
   56.1940   30.9390   44.4670 O   0  0  0  0  0  0  0  0  0  0  0  0
   59.3930   32.5540   47.0110 C   0  0  0  0  0  0  0  0  0  0  0  0
   60.7680   32.6560   46.7470 C   0  0  0  0  0  0  0  0  0  0  0  0
   61.6370   31.6270   47.1250 C   0  0  0  0  0  0  0  0  0  0  0  0
   61.1380   30.4880   47.7620 C   0  0  0  0  0  0  0  0  0  0  0  0
   59.7670   30.3700   48.0140 C   0  0  0  0  0  0  0  0  0  0  0  0
   59.1400   28.9340   48.8020 Cl  0  0  0  0  0  0  0  0  0  0  0  0
   58.8960   31.3970   47.6320 C   0  0  0  0  0  0  0  0  0  0  0  0
   58.6846   34.2986   43.4746 H   0  0  0  0  0  0  0  0  0  0  0  0
   59.5054   32.8841   44.2570 H   0  0  0  0  0  0  0  0  0  0  0  0
   56.8015   32.8935   42.8361 H   0  0  0  0  0  0  0  0  0  0  0  0
   58.3369   32.1034   42.2937 H   0  0  0  0  0  0  0  0  0  0  0  0
   59.9732   28.6104   45.3584 H   0  0  0  0  0  0  0  0  0  0  0  0
   60.8408   26.4327   46.2012 H   0  0  0  0  0  0  0  0  0  0  0  0
   59.2634   24.5712   46.7163 H   0  0  0  0  0  0  0  0  0  0  0  0
   56.8122   24.8940   46.4257 H   0  0  0  0  0  0  0  0  0  0  0  0
   55.1450   27.8940   45.2900 H   0  0  0  0  0  0  0  0  0  0  0  0
   61.1637   33.5488   46.2408 H   0  0  0  0  0  0  0  0  0  0  0  0
   62.7143   31.7147   46.9205 H   0  0  0  0  0  0  0  0  0  0  0  0
   61.8238   29.6833   48.0656 H   0  0  0  0  0  0  0  0  0  0  0  0
   57.8167   31.2971   47.8193 H   0  0  0  0  0  0  0  0  0  0  0  0
  1  2  2  0
  2  3  1  0
  3  4  1  0
  4  5  1  0
  5  6  1  0
  6  7  2  0
  7  8  1  0
  8  9  1  0
  9 10  2  0
 10 11  1  0
 11 12  2  0
 12 13  1  0
 13 14  2  0
 14 15  1  0
  8 16  2  0
 16 17  1  0
  2 18  1  0
 18 19  2  0
 19 20  1  0
 20 21  2  0
 21 22  1  0
 22 23  1  0
 22 24  2  0
 17  6  1  0
 24 18  1  0
 14  9  1  0
  4 25  1  0
  4 26  1  0
  5 27  1  0
  5 28  1  0
 10 29  1  0
 11 30  1  0
 12 31  1  0
 13 32  1  0
 15 33  1  0
 19 34  1  0
 20 35  1  0
 21 36  1  0
 24 37  1  0
M  CHG  1   3  -1
M  END
>  <UniqueID>  (21) 
21

>  <SMILES>  (21) 
O=C([N-]CCc1nc(-c2ccccc2O)no1)c1cccc(Cl)c1

>  <Energy>  (21) 
78.90011644815274

>  <Genealogy>  (21) 
O=C([N-]CCc1nc(-c2ccccc2O)no1)c1cccc(Cl)c1 (protonated)
O=C([N-]CCc1nc(-c2ccccc2O)no1)c1cccc(Cl)c1 (3D coordinates assigned)
O=C([N-]CCc1nc(-c2ccccc2O)no1)c1cccc(Cl)c1 (optimized conformer: 78.90011644815274 kcal/mol)

>  <smiles>  (21) 
O=C(NCCc1nc(-c2ccccc2O)no1)c1cccc(Cl)c1

>  <score_type>  (21) 
oracle

>  <origin>  (21) 
adg

>  <m_score__min__energy>  (21) 
-10.57

>  <m_primary>  (21) 
energy

$$$$
21:0
     RDKit          3D

 49 51  0  0  0  0  0  0  0  0999 V2000
   63.7650   32.9130   47.1250 C   0  0  0  0  0  0  0  0  0  0  0  0
   62.8210   33.4650   48.1410 C   0  0  0  0  0  0  0  0  0  0  0  0
   63.0320   33.2560   49.3670 O   0  0  0  0  0  0  0  0  0  0  0  0
   61.6750   34.2170   47.7160 N   0  0  0  0  0  0  0  0  0  0  0  0
   60.5650   34.5610   48.6070 C   0  0  0  0  0  0  0  0  0  0  0  0
   59.2360   34.6250   47.8370 C   0  0  2  0  0  0  0  0  0  0  0  0
   58.5800   33.2270   47.6530 C   0  0  0  0  0  0  0  0  0  0  0  0
   58.6950   32.9360   46.2270 N   0  0  0  0  0  0  0  0  0  0  0  0
   58.4360   31.6610   45.6090 C   0  0  0  0  0  0  0  0  0  0  0  0
   59.0990   30.5090   46.0640 C   0  0  0  0  0  0  0  0  0  0  0  0
   58.8670   29.2710   45.4610 C   0  0  0  0  0  0  0  0  0  0  0  0
   57.9650   29.1590   44.3930 C   0  0  0  0  0  0  0  0  0  0  0  0
   57.7480   27.8240   43.7300 C   0  0  0  0  0  0  0  0  0  0  0  0
   58.4830   26.7160   44.4920 C   0  0  0  0  0  0  0  0  0  0  0  0
   57.6290   26.1780   45.6080 C   0  0  0  0  0  0  0  0  0  0  0  0
   57.8550   26.6010   46.7740 O   0  0  0  0  0  0  0  0  0  0  0  0
   56.5680   25.1490   45.3830 C   0  0  0  0  0  0  0  0  0  0  0  0
   56.9030   23.8520   44.9360 C   0  0  0  0  0  0  0  0  0  0  0  0
   55.9120   22.8850   44.7380 C   0  0  0  0  0  0  0  0  0  0  0  0
   54.5740   23.1920   44.9770 C   0  0  0  0  0  0  0  0  0  0  0  0
   54.2210   24.4680   45.4140 C   0  0  0  0  0  0  0  0  0  0  0  0
   55.2030   25.4450   45.6150 C   0  0  0  0  0  0  0  0  0  0  0  0
   54.8020   26.7100   46.0360 O   0  0  0  0  0  0  0  0  0  0  0  0
   57.3230   30.3140   43.9130 C   0  0  0  0  0  0  0  0  0  0  0  0
   56.4800   30.2440   42.8520 F   0  0  0  0  0  0  0  0  0  0  0  0
   57.5580   31.5530   44.5170 C   0  0  0  0  0  0  0  0  0  0  0  0
   59.1690   34.1180   45.6070 C   0  0  0  0  0  0  0  0  0  0  0  0
   59.2650   34.2760   44.3600 O   0  0  0  0  0  0  0  0  0  0  0  0
   59.4610   35.1080   46.5170 O   0  0  0  0  0  0  0  0  0  0  0  0
   64.6063   32.4211   47.6352 H   0  0  0  0  0  0  0  0  0  0  0  0
   63.2388   32.1802   46.4955 H   0  0  0  0  0  0  0  0  0  0  0  0
   64.1456   33.7309   46.4955 H   0  0  0  0  0  0  0  0  0  0  0  0
   61.5680   34.4230   46.6970 H   0  0  0  0  0  0  0  0  0  0  0  0
   60.4871   33.7975   49.3950 H   0  0  0  0  0  0  0  0  0  0  0  0
   60.7627   35.5504   49.0451 H   0  0  0  0  0  0  0  0  0  0  0  0
   58.5814   35.2801   48.4306 H   0  0  0  0  0  0  0  0  0  0  0  0
   59.1135   32.4693   48.2457 H   0  0  0  0  0  0  0  0  0  0  0  0
   57.5337   33.2155   47.9923 H   0  0  0  0  0  0  0  0  0  0  0  0
   59.8071   30.5828   46.9026 H   0  0  0  0  0  0  0  0  0  0  0  0
   59.3952   28.3778   45.8261 H   0  0  0  0  0  0  0  0  0  0  0  0
   56.6714   27.5990   43.7147 H   0  0  0  0  0  0  0  0  0  0  0  0
   58.1424   27.8699   42.7042 H   0  0  0  0  0  0  0  0  0  0  0  0
   58.7242   25.8988   43.7963 H   0  0  0  0  0  0  0  0  0  0  0  0
   59.4037   27.1358   44.9235 H   0  0  0  0  0  0  0  0  0  0  0  0
   57.9557   23.5992   44.7412 H   0  0  0  0  0  0  0  0  0  0  0  0
   56.1899   21.8784   44.3923 H   0  0  0  0  0  0  0  0  0  0  0  0
   53.7974   22.4287   44.8211 H   0  0  0  0  0  0  0  0  0  0  0  0
   53.1642   24.7085   45.6020 H   0  0  0  0  0  0  0  0  0  0  0  0
   57.0512   32.4511   44.1341 H   0  0  0  0  0  0  0  0  0  0  0  0
  1  2  1  0
  2  3  2  0
  2  4  1  0
  4  5  1  0
  5  6  1  0
  6  7  1  0
  7  8  1  0
  8  9  1  0
  9 10  2  0
 10 11  1  0
 11 12  2  0
 12 13  1  0
 13 14  1  0
 14 15  1  0
 15 16  2  0
 15 17  1  0
 17 18  2  0
 18 19  1  0
 19 20  2  0
 20 21  1  0
 21 22  2  0
 22 23  1  0
 12 24  1  0
 24 25  1  0
 24 26  2  0
  8 27  1  0
 27 28  2  0
 27 29  1  0
 29  6  1  0
 26  9  1  0
 22 17  1  0
  1 30  1  0
  1 31  1  0
  1 32  1  0
  4 33  1  0
  5 34  1  0
  5 35  1  0
  6 36  1  1
  7 37  1  0
  7 38  1  0
 10 39  1  0
 11 40  1  0
 13 41  1  0
 13 42  1  0
 14 43  1  0
 14 44  1  0
 18 45  1  0
 19 46  1  0
 20 47  1  0
 21 48  1  0
 26 49  1  0
M  CHG  1  23  -1
M  END
>  <UniqueID>  (22) 
22

>  <SMILES>  (22) 
CC(=O)NC[C@@H]1CN(c2ccc(CCC(=O)c3ccccc3[O-])c(F)c2)C(=O)O1

>  <Energy>  (22) 
64.91587107037948

>  <Genealogy>  (22) 
CC(=O)NCC1CN(c2ccc(CCC(=O)c3ccccc3[O-])c(F)c2)C(=O)O1 (protonated)
CC(=O)NC[C@@H]1CN(c2ccc(CCC(=O)c3ccccc3[O-])c(F)c2)C(=O)O1 (chirality)
CC(=O)NC[C@@H]1CN(c2ccc(CCC(=O)c3ccccc3[O-])c(F)c2)C(=O)O1 (3D coordinates assigned)
CC(=O)NC[C@@H]1CN(c2ccc(CCC(=O)c3ccccc3[O-])c(F)c2)C(=O)O1 (nonaromatic ring conformer: 64.91587107037948 kcal/mol)

>  <smiles>  (22) 
CC(=O)NCC1CN(c2ccc(CCC(=O)c3ccccc3O)c(F)c2)C(=O)O1

>  <score_type>  (22) 
oracle

>  <origin>  (22) 
adg

>  <m_score__min__energy>  (22) 
-12.960000000000001

>  <m_primary>  (22) 
energy

$$$$
22:0
     RDKit          3D

 63 67  0  0  0  0  0  0  0  0999 V2000
   59.0770   30.8210   46.9530 C   0  0  0  0  0  0  0  0  0  0  0  0
   58.9620   31.9650   46.2620 C   0  0  0  0  0  0  0  0  0  0  0  0
   58.0060   32.2790   45.2820 C   0  0  0  0  0  0  0  0  0  0  0  0
   57.1100   31.5050   44.6400 C   0  0  0  0  0  0  0  0  0  0  0  0
   56.9940   30.0440   44.7680 C   0  0  0  0  0  0  0  0  0  0  0  0
   55.9030   29.3970   45.2320 N   0  0  0  0  0  0  0  0  0  0  0  0
   56.2900   28.1030   45.2720 C   0  0  0  0  0  0  0  0  0  0  0  0
   55.5220   27.1720   45.6290 O   0  0  0  0  0  0  0  0  0  0  0  0
   57.5720   27.9090   44.8960 N   0  0  0  0  0  0  0  0  0  0  0  0
   58.2850   26.6410   44.7690 C   0  0  0  0  0  0  0  0  0  0  0  0
   58.0150   29.1390   44.5790 C   0  0  0  0  0  0  0  0  0  0  0  0
   59.2960   29.4400   44.1270 O   0  0  0  0  0  0  0  0  0  0  0  0
   58.1330   33.6380   45.0400 C   0  0  0  0  0  0  0  0  0  0  0  0
   59.1900   34.0850   45.8060 C   0  0  0  0  0  0  0  0  0  0  0  0
   59.6430   35.5100   45.8920 C   0  0  0  0  0  0  0  0  0  0  0  0
   59.6920   33.0730   46.5430 N   0  0  0  0  0  0  0  0  0  0  0  0
   60.7280   33.1980   47.5290 C   0  0  0  0  0  0  0  0  0  0  0  0
   62.0650   33.2990   47.1320 C   0  0  0  0  0  0  0  0  0  0  0  0
   63.0740   33.4220   48.0910 C   0  0  0  0  0  0  0  0  0  0  0  0
   62.7580   33.4300   49.4610 C   0  0  0  0  0  0  0  0  0  0  0  0
   63.8240   33.5700   50.4830 C   0  0  0  0  0  0  0  0  0  0  0  0
   64.1440   34.7210   50.8890 O   0  0  0  0  0  0  0  0  0  0  0  0
   64.5130   32.4220   51.0070 N   0  0  0  0  0  0  0  0  0  0  0  0
   63.7580   31.2990   51.5740 C   0  0  0  0  0  0  0  0  0  0  0  0
   64.4510   29.9770   51.2330 C   0  0  0  0  0  0  0  0  0  0  0  0
   65.8920   30.0280   51.5200 N   0  0  0  0  0  0  0  0  0  0  0  0
   66.6540   28.8060   51.4450 C   0  0  0  0  0  0  0  0  0  0  0  0
   66.4360   27.7480   52.3470 C   0  0  0  0  0  0  0  0  0  0  0  0
   67.1890   26.5780   52.2310 C   0  0  0  0  0  0  0  0  0  0  0  0
   68.1440   26.4630   51.2220 C   0  0  0  0  0  0  0  0  0  0  0  0
   68.3270   27.5220   50.3320 C   0  0  0  0  0  0  0  0  0  0  0  0
   67.5860   28.6540   50.4600 N   0  0  0  0  0  0  0  0  0  0  0  0
   66.5170   31.2870   51.9580 C   0  0  0  0  0  0  0  0  0  0  0  0
   65.9740   32.4770   51.1540 C   0  0  0  0  0  0  0  0  0  0  0  0
   61.4100   33.3400   49.8510 C   0  0  0  0  0  0  0  0  0  0  0  0
   60.4020   33.2220   48.8910 C   0  0  0  0  0  0  0  0  0  0  0  0
   59.8785   30.7064   47.6976 H   0  0  0  0  0  0  0  0  0  0  0  0
   58.3698   29.9975   46.7750 H   0  0  0  0  0  0  0  0  0  0  0  0
   56.4048   32.0082   43.9621 H   0  0  0  0  0  0  0  0  0  0  0  0
   58.5082   26.2440   45.7703 H   0  0  0  0  0  0  0  0  0  0  0  0
   57.6591   25.9217   44.2205 H   0  0  0  0  0  0  0  0  0  0  0  0
   59.2248   26.8021   44.2205 H   0  0  0  0  0  0  0  0  0  0  0  0
   59.4490   30.0860   43.3620 H   0  0  0  0  0  0  0  0  0  0  0  0
   57.5100   34.2443   44.3660 H   0  0  0  0  0  0  0  0  0  0  0  0
   59.7359   35.8021   46.9484 H   0  0  0  0  0  0  0  0  0  0  0  0
   60.6189   35.6151   45.3954 H   0  0  0  0  0  0  0  0  0  0  0  0
   58.9070   36.1593   45.3954 H   0  0  0  0  0  0  0  0  0  0  0  0
   62.3230   33.2816   46.0628 H   0  0  0  0  0  0  0  0  0  0  0  0
   64.1227   33.5132   47.7718 H   0  0  0  0  0  0  0  0  0  0  0  0
   63.7044   31.4109   52.6670 H   0  0  0  0  0  0  0  0  0  0  0  0
   62.7433   31.2949   51.1493 H   0  0  0  0  0  0  0  0  0  0  0  0
   63.9970   29.1723   51.8299 H   0  0  0  0  0  0  0  0  0  0  0  0
   64.3224   29.7903   50.1566 H   0  0  0  0  0  0  0  0  0  0  0  0
   65.6775   27.8422   53.1381 H   0  0  0  0  0  0  0  0  0  0  0  0
   67.0289   25.7480   52.9349 H   0  0  0  0  0  0  0  0  0  0  0  0
   68.7466   25.5475   51.1285 H   0  0  0  0  0  0  0  0  0  0  0  0
   69.0715   27.4405   49.5263 H   0  0  0  0  0  0  0  0  0  0  0  0
   66.3005   31.4444   53.0249 H   0  0  0  0  0  0  0  0  0  0  0  0
   67.6022   31.2169   51.7924 H   0  0  0  0  0  0  0  0  0  0  0  0
   66.2438   33.4087   51.6728 H   0  0  0  0  0  0  0  0  0  0  0  0
   66.4181   32.4382   50.1484 H   0  0  0  0  0  0  0  0  0  0  0  0
   61.1475   33.3627   50.9190 H   0  0  0  0  0  0  0  0  0  0  0  0
   59.3505   33.1478   49.2053 H   0  0  0  0  0  0  0  0  0  0  0  0
  1  2  2  0
  2  3  1  0
  3  4  2  3
  4  5  1  0
  5  6  1  0
  6  7  1  0
  7  8  2  0
  7  9  1  0
  9 10  1  0
  9 11  1  0
 11 12  1  0
  3 13  1  0
 13 14  2  0
 14 15  1  0
 14 16  1  0
 16 17  1  0
 17 18  2  0
 18 19  1  0
 19 20  2  0
 20 21  1  0
 21 22  2  0
 21 23  1  0
 23 24  1  0
 24 25  1  0
 25 26  1  0
 26 27  1  0
 27 28  2  0
 28 29  1  0
 29 30  2  0
 30 31  1  0
 31 32  2  0
 26 33  1  0
 33 34  1  0
 20 35  1  0
 35 36  2  0
 16  2  1  0
 36 17  1  0
 11  5  2  0
 34 23  1  0
 32 27  1  0
  1 37  1  0
  1 38  1  0
  4 39  1  0
 10 40  1  0
 10 41  1  0
 10 42  1  0
 12 43  1  0
 13 44  1  0
 15 45  1  0
 15 46  1  0
 15 47  1  0
 18 48  1  0
 19 49  1  0
 24 50  1  0
 24 51  1  0
 25 52  1  0
 25 53  1  0
 28 54  1  0
 29 55  1  0
 30 56  1  0
 31 57  1  0
 33 58  1  0
 33 59  1  0
 34 60  1  0
 34 61  1  0
 35 62  1  0
 36 63  1  0
M  CHG  1   6  -1
M  END
>  <UniqueID>  (23) 
23

>  <SMILES>  (23) 
C=c1c(=Cc2[n-]c(=O)n(C)c2O)cc(C)n1-c1ccc(C(=O)N2CCN(c3ccccn3)CC2)cc1

>  <Energy>  (23) 
153.34831839794774

>  <Genealogy>  (23) 
C=c1c(=Cc2[n-]c(=O)n(C)c2O)cc(C)n1-c1ccc(C(=O)N2CCN(c3ccccn3)CC2)cc1 (protonated)
C=c1c(=Cc2[n-]c(=O)n(C)c2O)cc(C)n1-c1ccc(C(=O)N2CCN(c3ccccn3)CC2)cc1 (3D coordinates assigned)
C=c1c(=Cc2[n-]c(=O)n(C)c2O)cc(C)n1-c1ccc(C(=O)N2CCN(c3ccccn3)CC2)cc1 (nonaromatic ring conformer: 153.34831839794774 kcal/mol)

>  <smiles>  (23) 
C=c1c(=Cc2[nH]c(=O)n(C)c2O)cc(C)n1-c1ccc(C(=O)N2CCN(c3ccccn3)CC2)cc1

>  <score_type>  (23) 
oracle

>  <origin>  (23) 
adg

>  <m_score__min__energy>  (23) 
-11.19

>  <m_primary>  (23) 
energy

$$$$
23:0
     RDKit          3D

 30 32  0  0  0  0  0  0  0  0999 V2000
   58.5280   34.4870   44.9440 C   0  0  0  0  0  0  0  0  0  0  0  0
   58.4460   33.0470   45.3520 C   0  0  0  0  0  0  0  0  0  0  0  0
   58.9130   32.6430   46.6120 C   0  0  0  0  0  0  0  0  0  0  0  0
   58.8060   31.3090   47.0120 C   0  0  0  0  0  0  0  0  0  0  0  0
   58.2160   30.3620   46.1640 C   0  0  0  0  0  0  0  0  0  0  0  0
   58.1030   29.0190   46.5580 C   0  0  0  0  0  0  0  0  0  0  0  0
   57.5010   28.0790   45.7080 C   0  0  0  0  0  0  0  0  0  0  0  0
   57.3950   26.6620   46.1210 C   0  0  0  0  0  0  0  0  0  0  0  0
   56.1440   26.0370   46.3160 C   0  0  0  0  0  0  0  0  0  0  0  0
   54.9400   26.7000   46.0730 O   0  0  0  0  0  0  0  0  0  0  0  0
   56.0970   24.7440   46.7310 N   0  0  0  0  0  0  0  0  0  0  0  0
   57.2290   24.0320   46.9550 C   0  0  0  0  0  0  0  0  0  0  0  0
   57.1540   22.8360   47.3390 O   0  0  0  0  0  0  0  0  0  0  0  0
   58.4420   24.6060   46.7630 N   0  0  0  0  0  0  0  0  0  0  0  0
   58.5520   25.8960   46.3540 C   0  0  0  0  0  0  0  0  0  0  0  0
   59.6970   26.3980   46.2000 O   0  0  0  0  0  0  0  0  0  0  0  0
   57.0230   28.4850   44.4520 C   0  0  0  0  0  0  0  0  0  0  0  0
   57.1310   29.8190   44.0510 C   0  0  0  0  0  0  0  0  0  0  0  0
   57.7250   30.7660   44.8990 C   0  0  0  0  0  0  0  0  0  0  0  0
   57.8380   32.1070   44.5040 C   0  0  0  0  0  0  0  0  0  0  0  0
   58.5641   35.1211   45.8421 H   0  0  0  0  0  0  0  0  0  0  0  0
   59.4367   34.6473   44.3452 H   0  0  0  0  0  0  0  0  0  0  0  0
   57.6433   34.7494   44.3452 H   0  0  0  0  0  0  0  0  0  0  0  0
   59.3664   33.3818   47.2893 H   0  0  0  0  0  0  0  0  0  0  0  0
   59.1865   31.0004   47.9969 H   0  0  0  0  0  0  0  0  0  0  0  0
   58.4885   28.7022   47.5383 H   0  0  0  0  0  0  0  0  0  0  0  0
   54.0420   26.3390   46.3700 H   0  0  0  0  0  0  0  0  0  0  0  0
   56.5604   27.7480   43.7791 H   0  0  0  0  0  0  0  0  0  0  0  0
   56.7489   30.1280   43.0668 H   0  0  0  0  0  0  0  0  0  0  0  0
   57.4485   32.4240   43.5253 H   0  0  0  0  0  0  0  0  0  0  0  0
  1  2  1  0
  2  3  2  0
  3  4  1  0
  4  5  2  0
  5  6  1  0
  6  7  2  0
  7  8  1  0
  8  9  2  0
  9 10  1  0
  9 11  1  0
 11 12  1  0
 12 13  2  0
 12 14  1  0
 14 15  1  0
 15 16  2  0
  7 17  1  0
 17 18  2  0
 18 19  1  0
 19 20  2  0
 20  2  1  0
 19  5  1  0
 15  8  1  0
  1 21  1  0
  1 22  1  0
  1 23  1  0
  3 24  1  0
  4 25  1  0
  6 26  1  0
 10 27  1  0
 17 28  1  0
 18 29  1  0
 20 30  1  0
M  CHG  2  11  -1  14  -1
M  END
>  <UniqueID>  (24) 
24

>  <SMILES>  (24) 
Cc1ccc2cc(-c3c(O)[n-]c(=O)[n-]c3=O)ccc2c1

>  <Energy>  (24) 
44.88899859976662

>  <Genealogy>  (24) 
Cc1ccc2cc(-c3c(O)[n-]c(=O)[n-]c3=O)ccc2c1 (protonated)
Cc1ccc2cc(-c3c(O)[n-]c(=O)[n-]c3=O)ccc2c1 (3D coordinates assigned)
Cc1ccc2cc(-c3c(O)[n-]c(=O)[n-]c3=O)ccc2c1 (optimized conformer: 44.88899859976662 kcal/mol)

>  <smiles>  (24) 
Cc1ccc2cc(-c3c(O)[nH]c(=O)[nH]c3=O)ccc2c1

>  <score_type>  (24) 
oracle

>  <origin>  (24) 
adg

>  <m_score__min__energy>  (24) 
-12.26

>  <m_primary>  (24) 
energy

$$$$
24:0
     RDKit          3D

 72 76  0  0  0  0  0  0  0  0999 V2000
   56.8890   20.7290   43.0160 C   0  0  0  0  0  0  0  0  0  0  0  0
   57.3850   21.9140   43.3750 C   0  0  0  0  0  0  0  0  0  0  0  0
   56.6450   22.9420   44.1520 C   0  0  0  0  0  0  0  0  0  0  0  0
   57.2710   24.1770   44.3810 C   0  0  0  0  0  0  0  0  0  0  0  0
   56.6300   25.1750   45.1210 C   0  0  0  0  0  0  0  0  0  0  0  0
   57.3060   26.4160   45.3920 C   0  0  0  0  0  0  0  0  0  0  0  0
   57.8900   27.4470   45.6190 C   0  0  0  0  0  0  0  0  0  0  0  0
   58.6100   28.6610   45.8890 C   0  0  0  0  0  0  0  0  0  0  0  0
   60.0040   28.6360   46.0060 C   0  0  0  0  0  0  0  0  0  0  0  0
   60.7030   29.8050   46.3190 C   0  0  0  0  0  0  0  0  0  0  0  0
   60.0120   31.0090   46.5350 C   0  0  0  0  0  0  0  0  0  0  0  0
   60.7540   32.2260   46.9230 C   0  0  0  0  0  0  0  0  0  0  0  0
   60.8000   33.1930   46.1120 O   0  0  0  0  0  0  0  0  0  0  0  0
   61.4690   32.3080   48.1750 N   0  0  0  0  0  0  0  0  0  0  0  0
   62.0240   31.0920   48.7940 C   0  0  0  0  0  0  0  0  0  0  0  0
   63.1980   31.4170   49.7320 C   0  0  0  0  0  0  0  0  0  0  0  0
   64.1270   32.4730   49.0840 C   0  0  0  0  0  0  0  0  0  0  0  0
   65.3960   32.7490   49.8380 N   0  0  0  0  0  0  0  0  0  0  0  0
   66.1160   31.5340   50.3130 C   0  0  0  0  0  0  0  0  0  0  0  0
   65.7060   31.0560   51.7110 C   0  0  0  0  0  0  0  0  0  0  0  0
   65.8000   32.1950   52.7170 C   0  0  0  0  0  0  0  0  0  0  0  0
   64.9390   33.3660   52.2680 C   0  0  0  0  0  0  0  0  0  0  0  0
   65.3240   33.8380   50.8530 C   0  0  0  0  0  0  0  0  0  0  0  0
   63.3410   33.7950   48.7980 C   0  0  0  0  0  0  0  0  0  0  0  0
   61.8140   33.6130   48.7490 C   0  0  0  0  0  0  0  0  0  0  0  0
   58.6170   31.0380   46.3750 C   0  0  0  0  0  0  0  0  0  0  0  0
   57.9180   29.8680   46.0590 C   0  0  0  0  0  0  0  0  0  0  0  0
   55.3430   24.9570   45.6210 C   0  0  0  0  0  0  0  0  0  0  0  0
   54.6810   23.7410   45.3790 C   0  0  0  0  0  0  0  0  0  0  0  0
   53.3160   23.5310   45.9170 C   0  0  0  0  0  0  0  0  0  0  0  0
   53.1680   23.2540   47.1380 O   0  0  0  0  0  0  0  0  0  0  0  0
   52.1480   23.6850   45.1010 N   0  0  0  0  0  0  0  0  0  0  0  0
   51.7710   24.0900   43.7330 C   0  0  0  0  0  0  0  0  0  0  0  0
   50.2970   24.0810   43.9640 C   0  0  0  0  0  0  0  0  0  0  0  0
   50.6940   23.6570   45.3390 C   0  0  0  0  0  0  0  0  0  0  0  0
   55.3450   22.7330   44.6580 C   0  0  0  0  0  0  0  0  0  0  0  0
   57.5078   20.0255   42.4396 H   0  0  0  0  0  0  0  0  0  0  0  0
   55.8612   20.4552   43.2964 H   0  0  0  0  0  0  0  0  0  0  0  0
   58.4170   22.1473   43.0740 H   0  0  0  0  0  0  0  0  0  0  0  0
   58.2762   24.3616   43.9741 H   0  0  0  0  0  0  0  0  0  0  0  0
   60.5510   27.6942   45.8513 H   0  0  0  0  0  0  0  0  0  0  0  0
   61.8000   29.7823   46.3967 H   0  0  0  0  0  0  0  0  0  0  0  0
   61.2325   30.5935   49.3729 H   0  0  0  0  0  0  0  0  0  0  0  0
   62.3967   30.4381   47.9918 H   0  0  0  0  0  0  0  0  0  0  0  0
   62.8059   31.8120   50.6808 H   0  0  0  0  0  0  0  0  0  0  0  0
   63.7741   30.4982   49.9159 H   0  0  0  0  0  0  0  0  0  0  0  0
   64.4581   32.0266   48.1347 H   0  0  0  0  0  0  0  0  0  0  0  0
   66.0490   33.1250   49.1070 H   0  0  0  0  0  0  0  0  0  0  0  0
   65.9209   30.7189   49.6006 H   0  0  0  0  0  0  0  0  0  0  0  0
   67.1800   31.8061   50.3757 H   0  0  0  0  0  0  0  0  0  0  0  0
   64.6699   30.6880   51.6776 H   0  0  0  0  0  0  0  0  0  0  0  0
   66.3866   30.2504   52.0236 H   0  0  0  0  0  0  0  0  0  0  0  0
   65.4503   31.8424   53.6985 H   0  0  0  0  0  0  0  0  0  0  0  0
   66.8467   32.5258   52.7874 H   0  0  0  0  0  0  0  0  0  0  0  0
   63.8840   33.0544   52.2665 H   0  0  0  0  0  0  0  0  0  0  0  0
   65.0990   34.2006   52.9664 H   0  0  0  0  0  0  0  0  0  0  0  0
   64.5743   34.5704   50.5190 H   0  0  0  0  0  0  0  0  0  0  0  0
   66.3356   34.2633   50.9288 H   0  0  0  0  0  0  0  0  0  0  0  0
   63.5785   34.5181   49.5922 H   0  0  0  0  0  0  0  0  0  0  0  0
   63.6535   34.1439   47.8027 H   0  0  0  0  0  0  0  0  0  0  0  0
   61.4091   33.6777   49.7697 H   0  0  0  0  0  0  0  0  0  0  0  0
   61.3821   34.4039   48.1181 H   0  0  0  0  0  0  0  0  0  0  0  0
   58.0714   31.9851   46.4987 H   0  0  0  0  0  0  0  0  0  0  0  0
   56.8244   29.8954   45.9439 H   0  0  0  0  0  0  0  0  0  0  0  0
   54.8448   25.7427   46.2080 H   0  0  0  0  0  0  0  0  0  0  0  0
   52.1524   25.0864   43.4651 H   0  0  0  0  0  0  0  0  0  0  0  0
   52.1516   23.4730   42.9057 H   0  0  0  0  0  0  0  0  0  0  0  0
   49.7993   25.0595   43.8939 H   0  0  0  0  0  0  0  0  0  0  0  0
   49.5795   23.5336   43.3350 H   0  0  0  0  0  0  0  0  0  0  0  0
   50.3769   24.3729   46.1117 H   0  0  0  0  0  0  0  0  0  0  0  0
   50.2671   22.7153   45.7144 H   0  0  0  0  0  0  0  0  0  0  0  0
   54.8442   21.7688   44.4863 H   0  0  0  0  0  0  0  0  0  0  0  0
  1  2  2  0
  2  3  1  0
  3  4  2  0
  4  5  1  0
  5  6  1  0
  6  7  3  0
  7  8  1  0
  8  9  2  0
  9 10  1  0
 10 11  2  0
 11 12  1  0
 12 13  2  0
 12 14  1  0
 14 15  1  0
 15 16  1  0
 16 17  1  0
 17 18  1  0
 18 19  1  0
 19 20  1  0
 20 21  1  0
 21 22  1  0
 22 23  1  0
 17 24  1  0
 24 25  1  0
 11 26  1  0
 26 27  2  0
  5 28  2  0
 28 29  1  0
 29 30  1  0
 30 31  2  0
 30 32  1  0
 32 33  1  0
 33 34  1  0
 34 35  1  0
 29 36  2  0
 36  3  1  0
 27  8  1  0
 35 32  1  0
 25 14  1  0
 23 18  1  0
  1 37  1  0
  1 38  1  0
  2 39  1  0
  4 40  1  0
  9 41  1  0
 10 42  1  0
 15 43  1  0
 15 44  1  0
 16 45  1  0
 16 46  1  0
 17 47  1  0
 18 48  1  0
 19 49  1  0
 19 50  1  0
 20 51  1  0
 20 52  1  0
 21 53  1  0
 21 54  1  0
 22 55  1  0
 22 56  1  0
 23 57  1  0
 23 58  1  0
 24 59  1  0
 24 60  1  0
 25 61  1  0
 25 62  1  0
 26 63  1  0
 27 64  1  0
 28 65  1  0
 33 66  1  0
 33 67  1  0
 34 68  1  0
 34 69  1  0
 35 70  1  0
 35 71  1  0
 36 72  1  0
M  CHG  1  18   1
M  END
>  <UniqueID>  (25) 
25

>  <SMILES>  (25) 
C=Cc1cc(C#Cc2ccc(C(=O)N3CCC([NH+]4CCCCC4)CC3)cc2)cc(C(=O)N2CCC2)c1

>  <Energy>  (25) 
139.2714343653192

>  <Genealogy>  (25) 
C=Cc1cc(C#Cc2ccc(C(=O)N3CCC([NH+]4CCCCC4)CC3)cc2)cc(C(=O)N2CCC2)c1 (protonated)
C=Cc1cc(C#Cc2ccc(C(=O)N3CCC([NH+]4CCCCC4)CC3)cc2)cc(C(=O)N2CCC2)c1 (3D coordinates assigned)
C=Cc1cc(C#Cc2ccc(C(=O)N3CCC([NH+]4CCCCC4)CC3)cc2)cc(C(=O)N2CCC2)c1 (nonaromatic ring conformer: 139.2714343653192 kcal/mol)

>  <smiles>  (25) 
C=Cc1cc(C#Cc2ccc(C(=O)N3CCC(N4CCCCC4)CC3)cc2)cc(C(=O)N2CCC2)c1

>  <score_type>  (25) 
oracle

>  <origin>  (25) 
adg

>  <m_score__min__energy>  (25) 
-6.7000000000000002

>  <m_primary>  (25) 
energy

$$$$
25:0
     RDKit          3D

 55 57  0  0  0  0  0  0  0  0999 V2000
   57.7070   32.7410   45.0690 C   0  0  0  0  0  0  0  0  0  0  0  0
   57.9750   32.3000   43.6320 C   0  0  0  0  0  0  0  0  0  0  0  0
   56.9800   31.2380   43.1530 C   0  0  0  0  0  0  0  0  0  0  0  0
   57.3790   29.9090   43.6100 N   0  0  0  0  0  0  0  0  0  0  0  0
   56.5760   29.1090   44.4890 C   0  0  0  0  0  0  0  0  0  0  0  0
   55.4630   29.5330   44.9020 O   0  0  0  0  0  0  0  0  0  0  0  0
   57.0490   27.8280   44.9010 N   0  0  0  0  0  0  0  0  0  0  0  0
   58.7260   27.5190   45.2010 S   0  0  0  0  0  0  0  0  0  0  0  0
   58.9230   26.0610   45.4930 O   0  0  0  0  0  0  0  0  0  0  0  0
   59.5290   27.8760   43.9810 O   0  0  0  0  0  0  0  0  0  0  0  0
   59.2690   28.5060   46.5550 C   0  0  0  0  0  0  0  0  0  0  0  0
   60.2370   29.5020   46.3710 C   0  0  0  0  0  0  0  0  0  0  0  0
   60.6820   30.2580   47.4590 C   0  0  0  0  0  0  0  0  0  0  0  0
   60.1740   30.0250   48.7430 C   0  0  0  0  0  0  0  0  0  0  0  0
   60.6680   30.8000   49.8050 O   0  0  0  0  0  0  0  0  0  0  0  0
   60.1250   32.0500   50.2350 C   0  0  0  0  0  0  0  0  0  0  0  0
   58.8550   31.8450   51.0030 C   0  0  0  0  0  0  0  0  0  0  0  0
   57.8400   32.5220   50.7070 O   0  0  0  0  0  0  0  0  0  0  0  0
   58.8220   30.8940   52.0750 N   0  0  0  0  0  0  0  0  0  0  0  0
   57.7610   30.4990   52.7070 C   0  0  0  0  0  0  0  0  0  0  0  0
   56.5410   30.3690   52.1460 N   0  0  0  0  0  0  0  0  0  0  0  0
   55.6140   29.9220   53.0370 C   0  0  0  0  0  0  0  0  0  0  0  0
   54.1950   29.7280   52.6420 C   0  0  0  0  0  0  0  0  0  0  0  0
   53.4690   28.6430   53.1680 C   0  0  0  0  0  0  0  0  0  0  0  0
   52.1440   28.4270   52.7910 C   0  0  0  0  0  0  0  0  0  0  0  0
   51.5190   29.2950   51.8900 C   0  0  0  0  0  0  0  0  0  0  0  0
   52.2100   30.3990   51.3670 C   0  0  0  0  0  0  0  0  0  0  0  0
   51.5350   31.3250   50.4270 C   0  0  0  0  0  0  0  0  0  0  0  0
   51.4110   32.7190   50.7420 N   0  0  0  0  0  0  0  0  0  0  0  0
   51.0660   30.8900   49.3370 O   0  0  0  0  0  0  0  0  0  0  0  0
   53.5490   30.6100   51.7490 C   0  0  0  0  0  0  0  0  0  0  0  0
   56.1120   29.7040   54.3280 C   0  0  0  0  0  0  0  0  0  0  0  0
   57.7530   30.0760   54.3290 S   0  0  0  0  0  0  0  0  0  0  0  0
   59.1970   29.0260   48.9240 C   0  0  0  0  0  0  0  0  0  0  0  0
   58.7530   28.2710   47.8350 C   0  0  0  0  0  0  0  0  0  0  0  0
   58.1495   32.0128   45.7646 H   0  0  0  0  0  0  0  0  0  0  0  0
   58.1567   33.7304   45.2388 H   0  0  0  0  0  0  0  0  0  0  0  0
   56.6217   32.7975   45.2388 H   0  0  0  0  0  0  0  0  0  0  0  0
   57.8998   33.1776   42.9731 H   0  0  0  0  0  0  0  0  0  0  0  0
   58.9812   31.8568   43.5988 H   0  0  0  0  0  0  0  0  0  0  0  0
   55.9823   31.4723   43.5527 H   0  0  0  0  0  0  0  0  0  0  0  0
   56.9627   31.2420   42.0531 H   0  0  0  0  0  0  0  0  0  0  0  0
   58.3300   29.5690   43.3560 H   0  0  0  0  0  0  0  0  0  0  0  0
   60.6477   29.6894   45.3679 H   0  0  0  0  0  0  0  0  0  0  0  0
   61.4376   31.0426   47.3054 H   0  0  0  0  0  0  0  0  0  0  0  0
   60.8575   32.5584   50.8792 H   0  0  0  0  0  0  0  0  0  0  0  0
   59.9044   32.6614   49.3476 H   0  0  0  0  0  0  0  0  0  0  0  0
   53.9510   27.9596   53.8826 H   0  0  0  0  0  0  0  0  0  0  0  0
   51.5889   27.5716   53.2034 H   0  0  0  0  0  0  0  0  0  0  0  0
   50.4772   29.1109   51.5887 H   0  0  0  0  0  0  0  0  0  0  0  0
   51.4240   33.4480   49.9890 H   0  0  0  0  0  0  0  0  0  0  0  0
   54.0987   31.4735   51.3462 H   0  0  0  0  0  0  0  0  0  0  0  0
   55.5305   29.3505   55.1922 H   0  0  0  0  0  0  0  0  0  0  0  0
   58.7824   28.8397   49.9257 H   0  0  0  0  0  0  0  0  0  0  0  0
   57.9945   27.4884   47.9843 H   0  0  0  0  0  0  0  0  0  0  0  0
  1  2  1  0
  2  3  1  0
  3  4  1  0
  4  5  1  0
  5  6  2  0
  5  7  1  0
  7  8  1  0
  8  9  2  0
  8 10  2  0
  8 11  1  0
 11 12  2  0
 12 13  1  0
 13 14  2  0
 14 15  1  0
 15 16  1  0
 16 17  1  0
 17 18  2  0
 17 19  1  0
 19 20  2  3
 20 21  1  0
 21 22  1  0
 22 23  1  0
 23 24  2  0
 24 25  1  0
 25 26  2  0
 26 27  1  0
 27 28  1  0
 28 29  1  0
 28 30  2  0
 27 31  2  0
 22 32  2  0
 32 33  1  0
 14 34  1  0
 34 35  2  0
 35 11  1  0
 33 20  1  0
 31 23  1  0
  1 36  1  0
  1 37  1  0
  1 38  1  0
  2 39  1  0
  2 40  1  0
  3 41  1  0
  3 42  1  0
  4 43  1  0
 12 44  1  0
 13 45  1  0
 16 46  1  0
 16 47  1  0
 24 48  1  0
 25 49  1  0
 26 50  1  0
 29 51  1  0
 31 52  1  0
 32 53  1  0
 34 54  1  0
 35 55  1  0
M  CHG  3   7  -1  21  -1  29  -1
M  END
>  <UniqueID>  (26) 
26

>  <SMILES>  (26) 
CCCNC(=O)[N-]S(=O)(=O)c1ccc(OCC(=O)N=c2[n-]c(-c3cccc(C([NH-])=O)c3)cs2)cc1

>  <Energy>  (26) 
84.07210747441066

>  <Genealogy>  (26) 
CCCNC(=O)[N-]S(=O)(=O)c1ccc(OCC(=O)N=c2[n-]c(-c3cccc(C([NH-])=O)c3)cs2)cc1 (protonated)
CCCNC(=O)[N-]S(=O)(=O)c1ccc(OCC(=O)N=c2[n-]c(-c3cccc(C([NH-])=O)c3)cs2)cc1 (3D coordinates assigned)
CCCNC(=O)[N-]S(=O)(=O)c1ccc(OCC(=O)N=c2[n-]c(-c3cccc(C([NH-])=O)c3)cs2)cc1 (optimized conformer: 84.07210747441066 kcal/mol)

>  <smiles>  (26) 
CCCNC(=O)NS(=O)(=O)c1ccc(OCC(=O)N=c2[nH]c(-c3cccc(C(N)=O)c3)cs2)cc1

>  <score_type>  (26) 
oracle

>  <origin>  (26) 
adg

>  <m_score__min__energy>  (26) 
-15.94

>  <m_primary>  (26) 
energy

$$$$
26:0
     RDKit          3D

 45 47  0  0  0  0  0  0  0  0999 V2000
   55.1470   29.9970   44.5660 O   0  0  0  0  0  0  0  0  0  0  0  0
   56.3590   29.6860   44.7040 C   0  0  0  0  0  0  0  0  0  0  0  0
   57.3910   30.3860   43.8610 C   0  0  0  0  0  0  0  0  0  0  0  0
   57.2500   31.8360   43.9680 N   0  0  0  0  0  0  0  0  0  0  0  0
   57.4840   32.6050   45.1570 C   0  0  0  0  0  0  0  0  0  0  0  0
   56.5280   33.2470   45.6630 O   0  0  0  0  0  0  0  0  0  0  0  0
   58.8230   32.7170   45.7650 C   0  0  0  0  0  0  0  0  0  0  0  0
   59.4310   31.6080   46.3710 C   0  0  0  0  0  0  0  0  0  0  0  0
   60.7150   31.7160   46.9120 C   0  0  0  0  0  0  0  0  0  0  0  0
   61.4010   32.9370   46.8620 C   0  0  0  0  0  0  0  0  0  0  0  0
   63.0420   33.0600   47.4980 S   0  0  0  0  0  0  0  0  0  0  0  0
   63.7820   31.7830   47.2090 O   0  0  0  0  0  0  0  0  0  0  0  0
   63.7610   34.1790   46.7950 O   0  0  0  0  0  0  0  0  0  0  0  0
   63.0540   33.3550   49.2240 N   0  0  0  0  0  0  0  0  0  0  0  0
   62.0040   34.3030   49.6080 C   0  0  0  0  0  0  0  0  0  0  0  0
   60.8240   33.5190   50.1670 C   0  0  0  0  0  0  0  0  0  0  0  0
   61.3140   32.0970   50.3440 C   0  0  0  0  0  0  0  0  0  0  0  0
   62.7890   32.1220   49.9720 C   0  0  0  0  0  0  0  0  0  0  0  0
   60.7780   34.0560   46.2920 C   0  0  0  0  0  0  0  0  0  0  0  0
   59.4940   33.9470   45.7500 C   0  0  0  0  0  0  0  0  0  0  0  0
   56.7010   28.6860   45.6790 N   0  0  0  0  0  0  0  0  0  0  0  0
   56.6420   27.3910   45.5550 C   0  0  0  0  0  0  0  0  0  0  0  0
   57.7160   26.7140   44.9650 C   0  0  0  0  0  0  0  0  0  0  0  0
   57.6700   25.3240   44.8410 C   0  0  0  0  0  0  0  0  0  0  0  0
   56.5590   24.6210   45.3110 C   0  0  0  0  0  0  0  0  0  0  0  0
   56.4700   22.7220   45.1330 Br  0  0  0  0  0  0  0  0  0  0  0  0
   55.5080   25.3250   45.9030 C   0  0  0  0  0  0  0  0  0  0  0  0
   55.5750   26.6780   46.0160 N   0  0  0  0  0  0  0  0  0  0  0  0
   58.3948   30.0948   44.2038 H   0  0  0  0  0  0  0  0  0  0  0  0
   57.2460   30.0938   42.8105 H   0  0  0  0  0  0  0  0  0  0  0  0
   58.8948   30.6488   46.4207 H   0  0  0  0  0  0  0  0  0  0  0  0
   61.1888   30.8397   47.3786 H   0  0  0  0  0  0  0  0  0  0  0  0
   62.3884   34.9915   50.3749 H   0  0  0  0  0  0  0  0  0  0  0  0
   61.6863   34.8877   48.7321 H   0  0  0  0  0  0  0  0  0  0  0  0
   60.5103   33.9384   51.1343 H   0  0  0  0  0  0  0  0  0  0  0  0
   59.9548   33.5649   49.4944 H   0  0  0  0  0  0  0  0  0  0  0  0
   61.1869   31.7744   51.3879 H   0  0  0  0  0  0  0  0  0  0  0  0
   60.7487   31.3912   49.7177 H   0  0  0  0  0  0  0  0  0  0  0  0
   63.4032   32.1011   50.8843 H   0  0  0  0  0  0  0  0  0  0  0  0
   63.0400   31.2446   49.3579 H   0  0  0  0  0  0  0  0  0  0  0  0
   61.3014   35.0233   46.2711 H   0  0  0  0  0  0  0  0  0  0  0  0
   59.0084   34.8305   45.3099 H   0  0  0  0  0  0  0  0  0  0  0  0
   58.5905   27.2735   44.6014 H   0  0  0  0  0  0  0  0  0  0  0  0
   58.5070   24.7841   44.3742 H   0  0  0  0  0  0  0  0  0  0  0  0
   54.6262   24.7847   46.2778 H   0  0  0  0  0  0  0  0  0  0  0  0
  1  2  2  0
  2  3  1  0
  3  4  1  0
  4  5  1  0
  5  6  2  0
  5  7  1  0
  7  8  2  0
  8  9  1  0
  9 10  2  0
 10 11  1  0
 11 12  2  0
 11 13  2  0
 11 14  1  0
 14 15  1  0
 15 16  1  0
 16 17  1  0
 17 18  1  0
 10 19  1  0
 19 20  2  0
  2 21  1  0
 21 22  2  3
 22 23  1  0
 23 24  2  0
 24 25  1  0
 25 26  1  0
 25 27  2  0
 27 28  1  0
 20  7  1  0
 28 22  1  0
 18 14  1  0
  3 29  1  0
  3 30  1  0
  8 31  1  0
  9 32  1  0
 15 33  1  0
 15 34  1  0
 16 35  1  0
 16 36  1  0
 17 37  1  0
 17 38  1  0
 18 39  1  0
 18 40  1  0
 19 41  1  0
 20 42  1  0
 23 43  1  0
 24 44  1  0
 27 45  1  0
M  CHG  2   4  -1  28  -1
M  END
>  <UniqueID>  (27) 
27

>  <SMILES>  (27) 
O=C(C[N-]C(=O)c1ccc(S(=O)(=O)N2CCCC2)cc1)N=c1ccc(Br)c[n-]1

>  <Energy>  (27) 
52.62563568408726

>  <Genealogy>  (27) 
O=C(C[N-]C(=O)c1ccc(S(=O)(=O)N2CCCC2)cc1)N=c1ccc(Br)c[n-]1 (protonated)
O=C(C[N-]C(=O)c1ccc(S(=O)(=O)N2CCCC2)cc1)N=c1ccc(Br)c[n-]1 (3D coordinates assigned)
O=C(C[N-]C(=O)c1ccc(S(=O)(=O)N2CCCC2)cc1)N=c1ccc(Br)c[n-]1 (nonaromatic ring conformer: 52.62563568408726 kcal/mol)

>  <smiles>  (27) 
O=C(CNC(=O)c1ccc(S(=O)(=O)N2CCCC2)cc1)N=c1ccc(Br)c[nH]1

>  <score_type>  (27) 
oracle

>  <origin>  (27) 
adg

>  <m_score__min__energy>  (27) 
-12.83

>  <m_primary>  (27) 
energy

$$$$
27:0
     RDKit          3D

 53 56  0  0  0  0  0  0  0  0999 V2000
   56.0800   29.4080   52.9910 O   0  0  0  0  0  0  0  0  0  0  0  0
   56.2750   30.3560   52.1810 C   0  0  0  0  0  0  0  0  0  0  0  0
   55.1660   30.9080   51.4530 N   0  0  0  0  0  0  0  0  0  0  0  0
   53.8010   30.8430   51.9010 C   0  0  0  0  0  0  0  0  0  0  0  0
   53.3720   29.7310   52.6430 C   0  0  0  0  0  0  0  0  0  0  0  0
   52.0400   29.6280   53.0580 C   0  0  0  0  0  0  0  0  0  0  0  0
   51.1230   30.6270   52.7210 C   0  0  0  0  0  0  0  0  0  0  0  0
   51.5350   31.7290   51.9670 C   0  0  0  0  0  0  0  0  0  0  0  0
   50.6200   32.7140   51.6200 O   0  0  0  0  0  0  0  0  0  0  0  0
   52.8670   31.8370   51.5520 C   0  0  0  0  0  0  0  0  0  0  0  0
   57.6530   30.8560   51.9580 C   0  0  0  0  0  0  0  0  0  0  0  0
   57.8970   32.2210   51.7180 C   0  0  0  0  0  0  0  0  0  0  0  0
   59.2000   32.6850   51.5220 C   0  0  0  0  0  0  0  0  0  0  0  0
   60.2810   31.7970   51.5720 C   0  0  0  0  0  0  0  0  0  0  0  0
   61.9190   32.3840   51.3130 S   0  0  0  0  0  0  0  0  0  0  0  0
   61.9860   33.8320   51.7190 O   0  0  0  0  0  0  0  0  0  0  0  0
   62.8630   31.6060   52.1880 O   0  0  0  0  0  0  0  0  0  0  0  0
   62.3020   32.1810   49.6130 N   0  0  0  0  0  0  0  0  0  0  0  0
   61.4070   31.2380   48.9190 C   0  0  0  0  0  0  0  0  0  0  0  0
   60.0380   31.8540   48.6220 C   0  0  0  0  0  0  0  0  0  0  0  0
   60.2160   33.1240   47.9170 N   0  0  0  0  0  0  0  0  0  0  0  0
   59.2820   33.5130   46.8920 C   0  0  0  0  0  0  0  0  0  0  0  0
   57.9440   33.0920   46.9610 C   0  0  0  0  0  0  0  0  0  0  0  0
   57.0330   33.4690   45.9690 C   0  0  0  0  0  0  0  0  0  0  0  0
   57.4500   34.2700   44.9030 C   0  0  0  0  0  0  0  0  0  0  0  0
   58.7800   34.6870   44.8230 C   0  0  0  0  0  0  0  0  0  0  0  0
   59.6950   34.3110   45.8110 C   0  0  0  0  0  0  0  0  0  0  0  0
   61.1160   34.1110   48.5150 C   0  0  0  0  0  0  0  0  0  0  0  0
   62.4580   33.4590   48.8920 C   0  0  0  0  0  0  0  0  0  0  0  0
   60.0480   30.4380   51.8080 C   0  0  0  0  0  0  0  0  0  0  0  0
   58.7450   29.9710   52.0070 C   0  0  0  0  0  0  0  0  0  0  0  0
   55.3510   31.2970   50.5000 H   0  0  0  0  0  0  0  0  0  0  0  0
   54.0876   28.9359   52.8996 H   0  0  0  0  0  0  0  0  0  0  0  0
   51.7143   28.7600   53.6500 H   0  0  0  0  0  0  0  0  0  0  0  0
   50.0763   30.5459   53.0494 H   0  0  0  0  0  0  0  0  0  0  0  0
   53.1854   32.7015   50.9510 H   0  0  0  0  0  0  0  0  0  0  0  0
   57.0551   32.9282   51.6845 H   0  0  0  0  0  0  0  0  0  0  0  0
   59.3774   33.7530   51.3275 H   0  0  0  0  0  0  0  0  0  0  0  0
   61.8747   30.9391   47.9693 H   0  0  0  0  0  0  0  0  0  0  0  0
   61.2519   30.3714   49.5785 H   0  0  0  0  0  0  0  0  0  0  0  0
   59.4545   31.1648   47.9939 H   0  0  0  0  0  0  0  0  0  0  0  0
   59.5035   32.0314   49.5669 H   0  0  0  0  0  0  0  0  0  0  0  0
   57.6108   32.4626   47.7994 H   0  0  0  0  0  0  0  0  0  0  0  0
   55.9868   33.1344   46.0282 H   0  0  0  0  0  0  0  0  0  0  0  0
   56.7309   34.5719   44.1272 H   0  0  0  0  0  0  0  0  0  0  0  0
   59.1089   35.3130   43.9804 H   0  0  0  0  0  0  0  0  0  0  0  0
   60.7421   34.6409   45.7421 H   0  0  0  0  0  0  0  0  0  0  0  0
   61.2972   34.9202   47.7923 H   0  0  0  0  0  0  0  0  0  0  0  0
   60.6480   34.5132   49.4256 H   0  0  0  0  0  0  0  0  0  0  0  0
   63.0273   33.2725   47.9694 H   0  0  0  0  0  0  0  0  0  0  0  0
   62.9801   34.1531   49.5670 H   0  0  0  0  0  0  0  0  0  0  0  0
   60.8928   29.7341   51.8371 H   0  0  0  0  0  0  0  0  0  0  0  0
   58.5727   28.9025   52.2035 H   0  0  0  0  0  0  0  0  0  0  0  0
  1  2  2  0
  2  3  1  0
  3  4  1  0
  4  5  2  0
  5  6  1  0
  6  7  2  0
  7  8  1  0
  8  9  1  0
  8 10  2  0
  2 11  1  0
 11 12  2  0
 12 13  1  0
 13 14  2  0
 14 15  1  0
 15 16  2  0
 15 17  2  0
 15 18  1  0
 18 19  1  0
 19 20  1  0
 20 21  1  0
 21 22  1  0
 22 23  2  0
 23 24  1  0
 24 25  2  0
 25 26  1  0
 26 27  2  0
 21 28  1  0
 28 29  1  0
 14 30  1  0
 30 31  2  0
 10  4  1  0
 31 11  1  0
 29 18  1  0
 27 22  1  0
  3 32  1  0
  5 33  1  0
  6 34  1  0
  7 35  1  0
 10 36  1  0
 12 37  1  0
 13 38  1  0
 19 39  1  0
 19 40  1  0
 20 41  1  0
 20 42  1  0
 23 43  1  0
 24 44  1  0
 25 45  1  0
 26 46  1  0
 27 47  1  0
 28 48  1  0
 28 49  1  0
 29 50  1  0
 29 51  1  0
 30 52  1  0
 31 53  1  0
M  CHG  1   9  -1
M  END
>  <UniqueID>  (28) 
28

>  <SMILES>  (28) 
O=C(Nc1cccc([O-])c1)c1ccc(S(=O)(=O)N2CCN(c3ccccc3)CC2)cc1

>  <Energy>  (28) 
71.11892968392004

>  <Genealogy>  (28) 
O=C(Nc1cccc([O-])c1)c1ccc(S(=O)(=O)N2CCN(c3ccccc3)CC2)cc1 (protonated)
O=C(Nc1cccc([O-])c1)c1ccc(S(=O)(=O)N2CCN(c3ccccc3)CC2)cc1 (3D coordinates assigned)
O=C(Nc1cccc([O-])c1)c1ccc(S(=O)(=O)N2CCN(c3ccccc3)CC2)cc1 (nonaromatic ring conformer: 71.11892968392004 kcal/mol)

>  <smiles>  (28) 
O=C(Nc1cccc(O)c1)c1ccc(S(=O)(=O)N2CCN(c3ccccc3)CC2)cc1

>  <score_type>  (28) 
oracle

>  <origin>  (28) 
adg

>  <m_score__min__energy>  (28) 
-13.57

>  <m_primary>  (28) 
energy

$$$$
28:0
     RDKit          3D

 71 75  0  0  0  0  0  0  0  0999 V2000
   55.5220   29.0730   44.8620 O   0  0  0  0  0  0  0  0  0  0  0  0
   56.5480   29.7780   44.6580 C   0  0  0  0  0  0  0  0  0  0  0  0
   57.8800   29.1250   44.4560 C   0  0  0  0  0  0  0  0  0  0  0  0
   58.6780   29.1160   45.7330 C   0  0  0  0  0  0  0  0  0  0  0  0
   58.1280   28.5830   46.9090 C   0  0  0  0  0  0  0  0  0  0  0  0
   58.8660   28.5780   48.0980 C   0  0  0  0  0  0  0  0  0  0  0  0
   60.1700   29.0970   48.1220 C   0  0  0  0  0  0  0  0  0  0  0  0
   60.9260   29.0960   49.3440 N   0  0  0  0  0  0  0  0  0  0  0  0
   61.5770   30.3550   49.7390 C   0  0  0  0  0  0  0  0  0  0  0  0
   62.6370   30.1590   50.8100 C   0  0  0  0  0  0  0  0  0  0  0  0
   62.1670   29.2820   51.9800 C   0  0  0  0  0  0  0  0  0  0  0  0
   61.2550   29.9840   52.9460 N   0  0  0  0  0  0  0  0  0  0  0  0
   59.8660   29.4720   52.8830 C   0  0  0  0  0  0  0  0  0  0  0  0
   58.9720   30.5510   52.2820 C   0  0  0  0  0  0  0  0  0  0  0  0
   59.8310   31.7880   52.1540 C   0  0  0  0  0  0  0  0  0  0  0  0
   61.1540   31.4520   52.8240 C   0  0  0  0  0  0  0  0  0  0  0  0
   61.6850   27.9080   51.4750 C   0  0  0  0  0  0  0  0  0  0  0  0
   60.7820   27.9180   50.2220 C   0  0  0  0  0  0  0  0  0  0  0  0
   60.7200   29.6280   46.9460 C   0  0  0  0  0  0  0  0  0  0  0  0
   59.9790   29.6360   45.7600 C   0  0  0  0  0  0  0  0  0  0  0  0
   56.4390   31.1980   44.5070 N   0  0  0  0  0  0  0  0  0  0  0  0
   57.4140   32.1630   44.9260 C   0  0  0  0  0  0  0  0  0  0  0  0
   57.7750   33.2540   44.1160 C   0  0  0  0  0  0  0  0  0  0  0  0
   58.7030   34.1910   44.5750 C   0  0  0  0  0  0  0  0  0  0  0  0
   59.2670   34.0560   45.8480 C   0  0  0  0  0  0  0  0  0  0  0  0
   58.8850   32.9930   46.6850 C   0  0  0  0  0  0  0  0  0  0  0  0
   59.4830   32.8480   48.0330 C   0  0  0  0  0  0  0  0  0  0  0  0
   58.7640   32.4480   48.9900 O   0  0  0  0  0  0  0  0  0  0  0  0
   60.8620   33.1860   48.2750 N   0  0  0  0  0  0  0  0  0  0  0  0
   61.2390   33.7840   49.5570 C   0  0  0  0  0  0  0  0  0  0  0  0
   62.5410   34.5740   49.3940 C   0  0  0  0  0  0  0  0  0  0  0  0
   63.5440   33.7770   48.7870 O   0  0  0  0  0  0  0  0  0  0  0  0
   63.1570   33.4410   47.4660 C   0  0  0  0  0  0  0  0  0  0  0  0
   61.9160   32.5480   47.4820 C   0  0  0  0  0  0  0  0  0  0  0  0
   57.9620   32.0450   46.2090 C   0  0  0  0  0  0  0  0  0  0  0  0
   57.7251   28.0885   44.1217 H   0  0  0  0  0  0  0  0  0  0  0  0
   58.4380   29.6958   43.6991 H   0  0  0  0  0  0  0  0  0  0  0  0
   57.1100   28.1664   46.8961 H   0  0  0  0  0  0  0  0  0  0  0  0
   58.4228   28.1661   49.0167 H   0  0  0  0  0  0  0  0  0  0  0  0
   62.0519   30.7986   48.8515 H   0  0  0  0  0  0  0  0  0  0  0  0
   60.8006   31.0121   50.1578 H   0  0  0  0  0  0  0  0  0  0  0  0
   63.5151   29.6836   50.3486 H   0  0  0  0  0  0  0  0  0  0  0  0
   62.8702   31.1520   51.2217 H   0  0  0  0  0  0  0  0  0  0  0  0
   63.0403   29.0733   52.6154 H   0  0  0  0  0  0  0  0  0  0  0  0
   61.6100   29.7700   53.9120 H   0  0  0  0  0  0  0  0  0  0  0  0
   59.8323   28.5707   52.2532 H   0  0  0  0  0  0  0  0  0  0  0  0
   59.5155   29.2162   53.8938 H   0  0  0  0  0  0  0  0  0  0  0  0
   58.6069   30.2364   51.2932 H   0  0  0  0  0  0  0  0  0  0  0  0
   58.0909   30.7387   52.9132 H   0  0  0  0  0  0  0  0  0  0  0  0
   59.9912   32.0338   51.0939 H   0  0  0  0  0  0  0  0  0  0  0  0
   59.3526   32.6605   52.6229 H   0  0  0  0  0  0  0  0  0  0  0  0
   61.9865   31.8322   52.2139 H   0  0  0  0  0  0  0  0  0  0  0  0
   61.2028   31.9182   53.8191 H   0  0  0  0  0  0  0  0  0  0  0  0
   62.5753   27.3055   51.2418 H   0  0  0  0  0  0  0  0  0  0  0  0
   61.0602   27.5009   52.2836 H   0  0  0  0  0  0  0  0  0  0  0  0
   61.0164   27.0222   49.6282 H   0  0  0  0  0  0  0  0  0  0  0  0
   59.7477   27.9445   50.5955 H   0  0  0  0  0  0  0  0  0  0  0  0
   61.7397   30.0404   46.9567 H   0  0  0  0  0  0  0  0  0  0  0  0
   60.4201   30.0530   44.8427 H   0  0  0  0  0  0  0  0  0  0  0  0
   57.3255   33.3697   43.1187 H   0  0  0  0  0  0  0  0  0  0  0  0
   58.9912   35.0373   43.9341 H   0  0  0  0  0  0  0  0  0  0  0  0
   60.0133   34.7854   46.1959 H   0  0  0  0  0  0  0  0  0  0  0  0
   60.4401   34.4609   49.8939 H   0  0  0  0  0  0  0  0  0  0  0  0
   61.3863   32.9878   50.3015 H   0  0  0  0  0  0  0  0  0  0  0  0
   62.3510   35.4553   48.7638 H   0  0  0  0  0  0  0  0  0  0  0  0
   62.8920   34.8821   50.3899 H   0  0  0  0  0  0  0  0  0  0  0  0
   62.9325   34.3627   46.9091 H   0  0  0  0  0  0  0  0  0  0  0  0
   63.9809   32.8963   46.9817 H   0  0  0  0  0  0  0  0  0  0  0  0
   61.5595   32.3981   46.4522 H   0  0  0  0  0  0  0  0  0  0  0  0
   62.1712   31.5756   47.9283 H   0  0  0  0  0  0  0  0  0  0  0  0
   57.6674   31.2020   46.8513 H   0  0  0  0  0  0  0  0  0  0  0  0
  1  2  2  0
  2  3  1  0
  3  4  1  0
  4  5  2  0
  5  6  1  0
  6  7  2  0
  7  8  1  0
  8  9  1  0
  9 10  1  0
 10 11  1  0
 11 12  1  0
 12 13  1  0
 13 14  1  0
 14 15  1  0
 15 16  1  0
 11 17  1  0
 17 18  1  0
  7 19  1  0
 19 20  2  0
  2 21  1  0
 21 22  1  0
 22 23  2  0
 23 24  1  0
 24 25  2  0
 25 26  1  0
 26 27  1  0
 27 28  2  0
 27 29  1  0
 29 30  1  0
 30 31  1  0
 31 32  1  0
 32 33  1  0
 33 34  1  0
 26 35  2  0
 20  4  1  0
 35 22  1  0
 18  8  1  0
 34 29  1  0
 16 12  1  0
  3 36  1  0
  3 37  1  0
  5 38  1  0
  6 39  1  0
  9 40  1  0
  9 41  1  0
 10 42  1  0
 10 43  1  0
 11 44  1  0
 12 45  1  0
 13 46  1  0
 13 47  1  0
 14 48  1  0
 14 49  1  0
 15 50  1  0
 15 51  1  0
 16 52  1  0
 16 53  1  0
 17 54  1  0
 17 55  1  0
 18 56  1  0
 18 57  1  0
 19 58  1  0
 20 59  1  0
 23 60  1  0
 24 61  1  0
 25 62  1  0
 30 63  1  0
 30 64  1  0
 31 65  1  0
 31 66  1  0
 33 67  1  0
 33 68  1  0
 34 69  1  0
 34 70  1  0
 35 71  1  0
M  CHG  2  12   1  21  -1
M  END
>  <UniqueID>  (29) 
29

>  <SMILES>  (29) 
O=C(Cc1ccc(N2CCC([NH+]3CCCC3)CC2)cc1)[N-]c1cccc(C(=O)N2CCOCC2)c1

>  <Energy>  (29) 
103.61829409409232

>  <Genealogy>  (29) 
O=C(Cc1ccc(N2CCC([NH+]3CCCC3)CC2)cc1)[N-]c1cccc(C(=O)N2CCOCC2)c1 (protonated)
O=C(Cc1ccc(N2CCC([NH+]3CCCC3)CC2)cc1)[N-]c1cccc(C(=O)N2CCOCC2)c1 (3D coordinates assigned)
O=C(Cc1ccc(N2CCC([NH+]3CCCC3)CC2)cc1)[N-]c1cccc(C(=O)N2CCOCC2)c1 (nonaromatic ring conformer: 103.61829409409232 kcal/mol)

>  <smiles>  (29) 
O=C(Cc1ccc(N2CCC(N3CCCC3)CC2)cc1)Nc1cccc(C(=O)N2CCOCC2)c1

>  <score_type>  (29) 
oracle

>  <origin>  (29) 
adg

>  <m_score__min__energy>  (29) 
-11.9

>  <m_primary>  (29) 
energy

$$$$
29:0
     RDKit          3D

 62 64  0  0  0  0  0  0  0  0999 V2000
   58.5246   32.6574   43.4317 H   0  0  0  0  0  0  0  0  0  0  0  0
   57.7700   31.8610   43.3520 C   0  0  0  0  0  0  0  0  0  0  0  0
   57.4201   31.5319   42.3624 H   0  0  0  0  0  0  0  0  0  0  0  0
   57.2790   31.2940   44.4560 C   0  0  0  0  0  0  0  0  0  0  0  0
   56.0510   29.9980   44.3260 S   0  0  0  0  0  0  0  0  0  0  0  0
   57.1560   28.8080   45.0970 C   0  0  0  0  0  0  0  0  0  0  0  0
   57.4140   27.6140   44.5360 C   0  0  0  0  0  0  0  0  0  0  0  0
   57.6467   27.5797   43.4614 H   0  0  0  0  0  0  0  0  0  0  0  0
   57.4000   26.3480   45.2920 C   0  0  0  0  0  0  0  0  0  0  0  0
   58.5340   25.5240   45.2660 C   0  0  0  0  0  0  0  0  0  0  0  0
   59.4208   25.8279   44.6906 H   0  0  0  0  0  0  0  0  0  0  0  0
   58.5390   24.3140   45.9720 C   0  0  0  0  0  0  0  0  0  0  0  0
   59.6700   23.5070   45.9550 O   0  0  0  0  0  0  0  0  0  0  0  0
   57.4060   23.9170   46.6910 C   0  0  0  0  0  0  0  0  0  0  0  0
   57.4128   22.9680   47.2472 H   0  0  0  0  0  0  0  0  0  0  0  0
   56.2660   24.7250   46.7030 C   0  0  0  0  0  0  0  0  0  0  0  0
   55.3761   24.4094   47.2674 H   0  0  0  0  0  0  0  0  0  0  0  0
   56.2530   25.9330   46.0000 C   0  0  0  0  0  0  0  0  0  0  0  0
   55.0970   26.7070   45.9980 O   0  0  0  0  0  0  0  0  0  0  0  0
   57.7300   29.1780   46.4080 C   0  0  0  0  0  0  0  0  0  0  0  0
   58.1300   28.2890   47.2070 O   0  0  0  0  0  0  0  0  0  0  0  0
   57.8740   30.5590   46.7700 N   0  0  0  0  0  0  0  0  0  0  0  0
   57.7590   31.6250   45.8160 C   0  0  0  0  0  0  0  0  0  0  0  0
   58.0040   32.9000   46.1680 C   0  0  0  0  0  0  0  0  0  0  0  0
   57.1548   33.5989   46.1514 H   0  0  0  0  0  0  0  0  0  0  0  0
   59.3170   33.4410   46.5750 C   0  0  0  0  0  0  0  0  0  0  0  0
   60.2470   33.7700   45.6610 N   0  0  0  0  0  0  0  0  0  0  0  0
   61.3170   34.1520   46.3870 C   0  0  0  0  0  0  0  0  0  0  0  0
   62.2567   34.5047   45.9369 H   0  0  0  0  0  0  0  0  0  0  0  0
   61.1240   34.0600   47.7160 N   0  0  0  0  0  0  0  0  0  0  0  0
   59.8630   33.6050   47.8410 C   0  0  0  0  0  0  0  0  0  0  0  0
   59.2590   33.2940   49.1810 C   0  0  0  0  0  0  0  0  0  0  0  0
   58.2136   33.6359   49.1987 H   0  0  0  0  0  0  0  0  0  0  0  0
   59.2965   32.2082   49.3533 H   0  0  0  0  0  0  0  0  0  0  0  0
   60.0480   34.0100   50.2850 C   0  0  0  0  0  0  0  0  0  0  0  0
   60.9763   33.4521   50.4776 H   0  0  0  0  0  0  0  0  0  0  0  0
   60.2637   35.0324   49.9414 H   0  0  0  0  0  0  0  0  0  0  0  0
   59.2480   34.1060   51.5890 C   0  0  0  0  0  0  0  0  0  0  0  0
   59.7571   34.8118   52.2618 H   0  0  0  0  0  0  0  0  0  0  0  0
   58.2344   34.4456   51.3298 H   0  0  0  0  0  0  0  0  0  0  0  0
   59.1110   32.7520   52.3100 C   0  0  0  0  0  0  0  0  0  0  0  0
   59.4975   32.8663   53.3335 H   0  0  0  0  0  0  0  0  0  0  0  0
   58.0436   32.4876   52.2826 H   0  0  0  0  0  0  0  0  0  0  0  0
   59.8690   31.5940   51.6350 C   0  0  0  0  0  0  0  0  0  0  0  0
   60.5261   32.0135   50.8590 H   0  0  0  0  0  0  0  0  0  0  0  0
   60.4333   31.0738   52.4230 H   0  0  0  0  0  0  0  0  0  0  0  0
   58.9610   30.5740   50.9920 C   0  0  0  0  0  0  0  0  0  0  0  0
   59.4430   29.8310   50.0310 N   0  0  0  0  0  0  0  0  0  0  0  0
   60.5380   30.0930   49.1400 C   0  0  0  0  0  0  0  0  0  0  0  0
   60.4140   29.9630   47.8920 O   0  0  0  0  0  0  0  0  0  0  0  0
   61.7380   30.5650   49.6800 O   0  0  0  0  0  0  0  0  0  0  0  0
   62.5020   31.5960   49.0650 C   0  0  0  0  0  0  0  0  0  0  0  0
   62.9657   32.2218   49.8418 H   0  0  0  0  0  0  0  0  0  0  0  0
   63.2870   31.1469   48.4389 H   0  0  0  0  0  0  0  0  0  0  0  0
   61.8438   32.2163   48.4389 H   0  0  0  0  0  0  0  0  0  0  0  0
   57.5510   30.5210   51.4310 C   0  0  0  0  0  0  0  0  0  0  0  0
   56.7630   31.4770   51.1820 O   0  0  0  0  0  0  0  0  0  0  0  0
   57.0800   29.3560   52.0430 O   0  0  0  0  0  0  0  0  0  0  0  0
   55.9900   29.3590   52.9600 C   0  0  0  0  0  0  0  0  0  0  0  0
   56.3771   29.3579   53.9896 H   0  0  0  0  0  0  0  0  0  0  0  0
   55.3781   30.2588   52.7992 H   0  0  0  0  0  0  0  0  0  0  0  0
   55.3731   28.4625   52.7992 H   0  0  0  0  0  0  0  0  0  0  0  0
  1  2  1  0
  2  3  1  0
  2  4  2  0
  4  5  1  0
  5  6  1  0
  6  7  2  3
  7  8  1  0
  7  9  1  0
  9 10  2  0
 10 11  1  0
 10 12  1  0
 12 13  1  0
 12 14  2  0
 14 15  1  0
 14 16  1  0
 16 17  1  0
 16 18  2  0
 18 19  1  0
  6 20  1  0
 20 21  2  0
 20 22  1  0
 22 23  1  0
 23 24  2  0
 24 25  1  0
 24 26  1  0
 26 27  1  0
 27 28  1  0
 28 29  1  0
 28 30  2  0
 30 31  1  0
 31 32  1  0
 32 33  1  0
 32 34  1  0
 32 35  1  0
 35 36  1  0
 35 37  1  0
 35 38  1  0
 38 39  1  0
 38 40  1  0
 38 41  1  0
 41 42  1  0
 41 43  1  0
 41 44  1  0
 44 45  1  0
 44 46  1  0
 44 47  1  0
 47 48  2  3
 48 49  1  0
 49 50  2  0
 49 51  1  0
 51 52  1  0
 52 53  1  0
 52 54  1  0
 52 55  1  0
 47 56  1  0
 56 57  2  0
 56 58  1  0
 58 59  1  0
 59 60  1  0
 59 61  1  0
 59 62  1  0
 23  4  1  0
 31 26  2  0
 18  9  1  0
M  CHG  4  13  -1  19  -1  22  -1  27  -1
M  END
>  <UniqueID>  (30) 
30

>  <SMILES>  (30) 
C=C1SC(=Cc2cc([O-])ccc2[O-])C(=O)[N-]/C1=C\c1[n-]cnc1CCCCCC(=NC(=O)OC)C(=O)OC

>  <Energy>  (30) 
106.57072793001868

>  <Genealogy>  (30) 
C=C1SC(=Cc2cc([O-])ccc2[O-])C(=O)[N-]C1=Cc1[n-]cnc1CCCCCC(=NC(=O)OC)C(=O)OC (protonated)
C=C1SC(=Cc2cc([O-])ccc2[O-])C(=O)[N-]/C1=C\c1[n-]cnc1CCCCCC(=NC(=O)OC)C(=O)OC (cis-trans isomerization)
C=C1SC(=Cc2cc([O-])ccc2[O-])C(=O)[N-]/C1=C\c1[n-]cnc1CCCCCC(=NC(=O)OC)C(=O)OC (3D coordinates assigned)
C=C1SC(=Cc2cc([O-])ccc2[O-])C(=O)[N-]/C1=C\c1[n-]cnc1CCCCCC(=NC(=O)OC)C(=O)OC (nonaromatic ring conformer: 106.57072793001868 kcal/mol)

>  <smiles>  (30) 
C=C1SC(=Cc2cc(O)ccc2O)C(=O)NC1=Cc1[nH]cnc1CCCCCC(=NC(=O)OC)C(=O)OC

>  <score_type>  (30) 
oracle

>  <origin>  (30) 
adg

>  <m_score__min__energy>  (30) 
-16.109999999999999

>  <m_primary>  (30) 
energy

$$$$
30:0
     RDKit          3D

 22 23  0  0  0  0  0  0  0  0999 V2000
   55.1440   27.4880   45.3650 H   0  0  0  0  0  0  0  0  0  0  0  0
   55.0830   26.6900   45.9850 O   0  0  0  0  0  0  0  0  0  0  0  0
   56.2140   25.9460   46.3090 C   0  0  0  0  0  0  0  0  0  0  0  0
   56.0920   24.8610   47.1210 N   0  0  0  0  0  0  0  0  0  0  0  0
   57.1650   24.0890   47.4270 C   0  0  0  0  0  0  0  0  0  0  0  0
   57.0280   23.0930   48.1830 O   0  0  0  0  0  0  0  0  0  0  0  0
   58.3860   24.3860   46.9140 N   0  0  0  0  0  0  0  0  0  0  0  0
   58.5630   25.4600   46.1000 C   0  0  0  0  0  0  0  0  0  0  0  0
   59.7090   25.7040   45.6390 O   0  0  0  0  0  0  0  0  0  0  0  0
   57.4740   26.2920   45.7900 C   0  0  0  0  0  0  0  0  0  0  0  0
   57.6500   27.4510   44.8850 C   0  0  0  0  0  0  0  0  0  0  0  0
   57.7594   27.2595   43.8073 H   0  0  0  0  0  0  0  0  0  0  0  0
   57.6830   28.7260   45.3130 C   0  0  0  0  0  0  0  0  0  0  0  0
   58.4760   29.2450   46.3240 C   0  0  0  0  0  0  0  0  0  0  0  0
   59.1881   28.6934   46.9554 H   0  0  0  0  0  0  0  0  0  0  0  0
   58.1910   30.5950   46.3780 C   0  0  0  0  0  0  0  0  0  0  0  0
   58.6485   31.3098   47.0779 H   0  0  0  0  0  0  0  0  0  0  0  0
   57.2920   30.8990   45.4690 O   0  0  0  0  0  0  0  0  0  0  0  0
   56.9660   29.8100   44.8100 C   0  0  0  0  0  0  0  0  0  0  0  0
   56.0710   29.8090   43.8200 C   0  0  0  0  0  0  0  0  0  0  0  0
   55.8304   28.8717   43.2970 H   0  0  0  0  0  0  0  0  0  0  0  0
   55.5739   30.7455   43.5270 H   0  0  0  0  0  0  0  0  0  0  0  0
  1  2  1  0
  2  3  1  0
  3  4  1  0
  4  5  1  0
  5  6  2  0
  5  7  1  0
  7  8  1  0
  8  9  2  0
  8 10  1  0
 10 11  1  0
 11 12  1  0
 11 13  2  0
 13 14  1  0
 14 15  1  0
 14 16  2  0
 16 17  1  0
 16 18  1  0
 18 19  1  0
 19 20  2  0
 20 21  1  0
 20 22  1  0
 10  3  2  0
 19 13  1  0
M  CHG  2   4  -1   7  -1
M  END
>  <UniqueID>  (31) 
31

>  <SMILES>  (31) 
C=c1occ/c1=C\c1c(O)[n-]c(=O)[n-]c1=O

>  <Energy>  (31) 
59.56328370120263

>  <Genealogy>  (31) 
C=c1occc1=Cc1c(O)[n-]c(=O)[n-]c1=O (protonated)
C=c1occ/c1=C\c1c(O)[n-]c(=O)[n-]c1=O (cis-trans isomerization)
C=c1occ/c1=C\c1c(O)[n-]c(=O)[n-]c1=O (3D coordinates assigned)
C=c1occ/c1=C\c1c(O)[n-]c(=O)[n-]c1=O (optimized conformer: 59.56328370120263 kcal/mol)

>  <smiles>  (31) 
C=c1occc1=Cc1c(O)[nH]c(=O)[nH]c1=O

>  <score_type>  (31) 
oracle

>  <origin>  (31) 
adg

>  <m_score__min__energy>  (31) 
-10.43

>  <m_primary>  (31) 
energy

$$$$
31:0
     RDKit          3D

 45 47  0  0  0  0  0  0  0  0999 V2000
   58.1380   26.6890   42.3920 C   0  0  0  0  0  0  0  0  0  0  0  0
   57.7890   27.8850   43.0860 O   0  0  0  0  0  0  0  0  0  0  0  0
   58.3990   28.3230   44.2740 C   0  0  0  0  0  0  0  0  0  0  0  0
   59.5500   27.6950   44.7940 C   0  0  0  0  0  0  0  0  0  0  0  0
   60.1350   28.1580   45.9720 C   0  0  0  0  0  0  0  0  0  0  0  0
   59.5940   29.2600   46.6420 C   0  0  0  0  0  0  0  0  0  0  0  0
   60.3960   29.8880   48.2550 Br  0  0  0  0  0  0  0  0  0  0  0  0
   58.4580   29.8970   46.1310 C   0  0  0  0  0  0  0  0  0  0  0  0
   57.8430   29.4220   44.9640 C   0  0  0  0  0  0  0  0  0  0  0  0
   56.3700   30.1980   44.3680 S   0  0  0  0  0  0  0  0  0  0  0  0
   56.3630   30.1320   42.8680 O   0  0  0  0  0  0  0  0  0  0  0  0
   55.1530   29.4910   44.9000 O   0  0  0  0  0  0  0  0  0  0  0  0
   56.3110   31.8650   44.8490 N   0  0  0  0  0  0  0  0  0  0  0  0
   57.3990   32.6020   45.4200 C   0  0  0  0  0  0  0  0  0  0  0  0
   58.4160   33.1630   44.6300 C   0  0  0  0  0  0  0  0  0  0  0  0
   59.4510   33.8860   45.2300 C   0  0  0  0  0  0  0  0  0  0  0  0
   59.4730   34.0810   46.6140 C   0  0  0  0  0  0  0  0  0  0  0  0
   60.5600   34.8090   47.2030 N   0  0  0  0  0  0  0  0  0  0  0  0
   61.7740   34.2180   47.6770 C   0  0  0  0  0  0  0  0  0  0  0  0
   62.6500   33.8190   46.8600 O   0  0  0  0  0  0  0  0  0  0  0  0
   61.9820   34.0760   49.0890 N   0  0  0  0  0  0  0  0  0  0  0  0
   62.9910   33.2250   49.6550 C   0  0  0  0  0  0  0  0  0  0  0  0
   64.3480   33.3910   49.3130 C   0  0  0  0  0  0  0  0  0  0  0  0
   65.3150   32.5130   49.8120 C   0  0  0  0  0  0  0  0  0  0  0  0
   64.9370   31.4640   50.6550 C   0  0  0  0  0  0  0  0  0  0  0  0
   63.5900   31.2910   51.0000 C   0  0  0  0  0  0  0  0  0  0  0  0
   62.6180   32.1630   50.4980 C   0  0  0  0  0  0  0  0  0  0  0  0
   61.3160   31.9790   50.8410 F   0  0  0  0  0  0  0  0  0  0  0  0
   58.4670   33.5080   47.4050 C   0  0  0  0  0  0  0  0  0  0  0  0
   57.4400   32.7710   46.8090 C   0  0  0  0  0  0  0  0  0  0  0  0
   58.3691   25.8970   43.1196 H   0  0  0  0  0  0  0  0  0  0  0  0
   57.2949   26.3721   41.7606 H   0  0  0  0  0  0  0  0  0  0  0  0
   59.0192   26.8753   41.7606 H   0  0  0  0  0  0  0  0  0  0  0  0
   59.9887   26.8349   44.2671 H   0  0  0  0  0  0  0  0  0  0  0  0
   61.0256   27.6545   46.3760 H   0  0  0  0  0  0  0  0  0  0  0  0
   58.0449   30.7757   46.6479 H   0  0  0  0  0  0  0  0  0  0  0  0
   58.3979   33.0332   43.5378 H   0  0  0  0  0  0  0  0  0  0  0  0
   60.2553   34.3052   44.6076 H   0  0  0  0  0  0  0  0  0  0  0  0
   61.4330   34.6920   49.7260 H   0  0  0  0  0  0  0  0  0  0  0  0
   64.6481   34.2158   48.6499 H   0  0  0  0  0  0  0  0  0  0  0  0
   66.3726   32.6477   49.5413 H   0  0  0  0  0  0  0  0  0  0  0  0
   65.6978   30.7736   51.0480 H   0  0  0  0  0  0  0  0  0  0  0  0
   63.2961   30.4674   51.6673 H   0  0  0  0  0  0  0  0  0  0  0  0
   58.4862   33.6389   48.4970 H   0  0  0  0  0  0  0  0  0  0  0  0
   56.6573   32.3199   47.4366 H   0  0  0  0  0  0  0  0  0  0  0  0
  1  2  1  0
  2  3  1  0
  3  4  2  0
  4  5  1  0
  5  6  2  0
  6  7  1  0
  6  8  1  0
  8  9  2  0
  9 10  1  0
 10 11  2  0
 10 12  2  0
 10 13  1  0
 13 14  1  0
 14 15  2  0
 15 16  1  0
 16 17  2  0
 17 18  1  0
 18 19  1  0
 19 20  2  0
 19 21  1  0
 21 22  1  0
 22 23  2  0
 23 24  1  0
 24 25  2  0
 25 26  1  0
 26 27  2  0
 27 28  1  0
 17 29  1  0
 29 30  2  0
  9  3  1  0
 30 14  1  0
 27 22  1  0
  1 31  1  0
  1 32  1  0
  1 33  1  0
  4 34  1  0
  5 35  1  0
  8 36  1  0
 15 37  1  0
 16 38  1  0
 21 39  1  0
 23 40  1  0
 24 41  1  0
 25 42  1  0
 26 43  1  0
 29 44  1  0
 30 45  1  0
M  CHG  2  13  -1  18  -1
M  END
>  <UniqueID>  (32) 
32

>  <SMILES>  (32) 
COc1ccc(Br)cc1S(=O)(=O)[N-]c1ccc([N-]C(=O)Nc2ccccc2F)cc1

>  <Energy>  (32) 
58.71668360888962

>  <Genealogy>  (32) 
COc1ccc(Br)cc1S(=O)(=O)[N-]c1ccc([N-]C(=O)Nc2ccccc2F)cc1 (protonated)
COc1ccc(Br)cc1S(=O)(=O)[N-]c1ccc([N-]C(=O)Nc2ccccc2F)cc1 (3D coordinates assigned)
COc1ccc(Br)cc1S(=O)(=O)[N-]c1ccc([N-]C(=O)Nc2ccccc2F)cc1 (optimized conformer: 58.71668360888962 kcal/mol)

>  <smiles>  (32) 
COc1ccc(Br)cc1S(=O)(=O)Nc1ccc(NC(=O)Nc2ccccc2F)cc1

>  <score_type>  (32) 
oracle

>  <origin>  (32) 
adg

>  <m_score__min__energy>  (32) 
-11.01

>  <m_primary>  (32) 
energy

$$$$
32:0
     RDKit          3D

 48 49  0  0  0  0  0  0  0  0999 V2000
   56.6610   22.1960   49.2420 C   0  0  0  0  0  0  0  0  0  0  0  0
   56.1560   22.9770   48.0350 C   0  0  0  0  0  0  0  0  0  0  0  0
   57.2600   23.6390   47.3490 N   0  0  0  0  0  0  0  0  0  0  0  0
   57.3360   25.0540   47.1520 C   0  0  0  0  0  0  0  0  0  0  0  0
   56.3340   25.6950   46.7350 O   0  0  0  0  0  0  0  0  0  0  0  0
   58.6160   25.7810   47.4370 C   0  0  0  0  0  0  0  0  0  0  0  0
   58.7510   27.0640   46.5980 C   0  0  0  0  0  0  0  0  0  0  0  0
   57.8640   28.2200   47.0880 C   0  0  0  0  0  0  0  0  0  0  0  0
   57.4710   29.1260   46.0010 N   0  0  0  0  0  0  0  0  0  0  0  0
   56.4240   28.9440   45.1700 C   0  0  0  0  0  0  0  0  0  0  0  0
   55.5380   27.8750   45.2470 O   0  0  0  0  0  0  0  0  0  0  0  0
   56.3700   29.9490   44.2330 C   0  0  0  0  0  0  0  0  0  0  0  0
   55.4210   30.0780   43.2230 O   0  0  0  0  0  0  0  0  0  0  0  0
   57.4310   30.8020   44.4870 C   0  0  0  0  0  0  0  0  0  0  0  0
   57.7710   32.0400   43.7480 C   0  0  0  0  0  0  0  0  0  0  0  0
   57.6850   33.3840   44.4020 C   0  0  0  0  0  0  0  0  0  0  0  0
   58.1720   31.9700   42.5550 O   0  0  0  0  0  0  0  0  0  0  0  0
   58.0880   30.2670   45.5980 C   0  0  0  0  0  0  0  0  0  0  0  0
   59.3190   30.8070   46.2100 C   0  0  0  0  0  0  0  0  0  0  0  0
   60.4970   30.0490   46.2230 C   0  0  0  0  0  0  0  0  0  0  0  0
   61.6640   30.5710   46.7860 C   0  0  0  0  0  0  0  0  0  0  0  0
   61.6730   31.8550   47.3440 C   0  0  0  0  0  0  0  0  0  0  0  0
   62.8720   32.3340   47.8940 O   0  0  0  0  0  0  0  0  0  0  0  0
   63.7140   33.3060   47.2820 C   0  0  0  0  0  0  0  0  0  0  0  0
   63.2520   33.5630   46.0050 F   0  0  0  0  0  0  0  0  0  0  0  0
   63.6890   34.4790   48.0130 F   0  0  0  0  0  0  0  0  0  0  0  0
   60.4860   32.6140   47.3370 C   0  0  0  0  0  0  0  0  0  0  0  0
   59.3190   32.0900   46.7750 C   0  0  0  0  0  0  0  0  0  0  0  0
   56.3365   22.6979   50.1654 H   0  0  0  0  0  0  0  0  0  0  0  0
   56.2513   21.1755   49.2159 H   0  0  0  0  0  0  0  0  0  0  0  0
   57.7598   22.1508   49.2159 H   0  0  0  0  0  0  0  0  0  0  0  0
   55.6616   22.2843   47.3381 H   0  0  0  0  0  0  0  0  0  0  0  0
   55.4459   23.7423   48.3815 H   0  0  0  0  0  0  0  0  0  0  0  0
   58.6415   26.0499   48.5033 H   0  0  0  0  0  0  0  0  0  0  0  0
   59.4505   25.1144   47.1740 H   0  0  0  0  0  0  0  0  0  0  0  0
   59.8002   27.3927   46.6328 H   0  0  0  0  0  0  0  0  0  0  0  0
   58.4217   26.8167   45.5780 H   0  0  0  0  0  0  0  0  0  0  0  0
   56.9551   27.7992   47.5427 H   0  0  0  0  0  0  0  0  0  0  0  0
   58.4468   28.8036   47.8158 H   0  0  0  0  0  0  0  0  0  0  0  0
   55.2070   29.3030   42.6070 H   0  0  0  0  0  0  0  0  0  0  0  0
   57.6929   33.2610   45.4951 H   0  0  0  0  0  0  0  0  0  0  0  0
   58.5458   33.9966   44.0957 H   0  0  0  0  0  0  0  0  0  0  0  0
   56.7532   33.8819   44.0957 H   0  0  0  0  0  0  0  0  0  0  0  0
   60.5031   29.0386   45.7881 H   0  0  0  0  0  0  0  0  0  0  0  0
   62.5839   29.9679   46.7910 H   0  0  0  0  0  0  0  0  0  0  0  0
   64.7440   32.9218   47.2443 H   0  0  0  0  0  0  0  0  0  0  0  0
   60.4780   33.6228   47.7756 H   0  0  0  0  0  0  0  0  0  0  0  0
   58.3953   32.6874   46.7759 H   0  0  0  0  0  0  0  0  0  0  0  0
  1  2  1  0
  2  3  1  0
  3  4  1  0
  4  5  2  0
  4  6  1  0
  6  7  1  0
  7  8  1  0
  8  9  1  0
  9 10  1  0
 10 11  1  0
 10 12  2  0
 12 13  1  0
 12 14  1  0
 14 15  1  0
 15 16  1  0
 15 17  2  0
 14 18  2  0
 18 19  1  0
 19 20  2  0
 20 21  1  0
 21 22  2  0
 22 23  1  0
 23 24  1  0
 24 25  1  0
 24 26  1  0
 22 27  1  0
 27 28  2  0
 18  9  1  0
 28 19  1  0
  1 29  1  0
  1 30  1  0
  1 31  1  0
  2 32  1  0
  2 33  1  0
  6 34  1  0
  6 35  1  0
  7 36  1  0
  7 37  1  0
  8 38  1  0
  8 39  1  0
 13 40  1  0
 16 41  1  0
 16 42  1  0
 16 43  1  0
 20 44  1  0
 21 45  1  0
 24 46  1  0
 27 47  1  0
 28 48  1  0
M  CHG  2   3  -1  11  -1
M  END
>  <UniqueID>  (33) 
33

>  <SMILES>  (33) 
CC[N-]C(=O)CCCn1c([O-])c(O)c(C(C)=O)c1-c1ccc(OC(F)F)cc1

>  <Energy>  (33) 
70.05007362038934

>  <Genealogy>  (33) 
CC[N-]C(=O)CCCn1c([O-])c(O)c(C(C)=O)c1-c1ccc(OC(F)F)cc1 (protonated)
CC[N-]C(=O)CCCn1c([O-])c(O)c(C(C)=O)c1-c1ccc(OC(F)F)cc1 (3D coordinates assigned)
CC[N-]C(=O)CCCn1c([O-])c(O)c(C(C)=O)c1-c1ccc(OC(F)F)cc1 (optimized conformer: 70.05007362038934 kcal/mol)

>  <smiles>  (33) 
CCNC(=O)CCCn1c(O)c(O)c(C(C)=O)c1-c1ccc(OC(F)F)cc1

>  <score_type>  (33) 
oracle

>  <origin>  (33) 
adg

>  <m_score__min__energy>  (33) 
-11.51

>  <m_primary>  (33) 
energy

$$$$
33:0
     RDKit          3D

 42 44  0  0  0  0  0  0  0  0999 V2000
   57.7490   25.9140   42.6260 C   0  0  0  0  0  0  0  0  0  0  0  0
   57.4030   24.8070   43.5930 C   0  0  0  0  0  0  0  0  0  0  0  0
   56.8240   23.6440   43.0760 C   0  0  0  0  0  0  0  0  0  0  0  0
   56.4490   22.5970   43.9070 C   0  0  0  0  0  0  0  0  0  0  0  0
   55.8980   21.4540   43.3340 O   0  0  0  0  0  0  0  0  0  0  0  0
   56.6130   22.6970   45.2990 C   0  0  0  0  0  0  0  0  0  0  0  0
   56.1990   21.5380   46.1750 C   0  0  0  0  0  0  0  0  0  0  0  0
   57.1300   23.8970   45.8570 C   0  0  0  0  0  0  0  0  0  0  0  0
   57.1830   24.0560   47.3630 C   0  0  0  0  0  0  0  0  0  0  0  0
   57.6370   24.9170   44.9930 C   0  0  0  0  0  0  0  0  0  0  0  0
   58.3910   26.1210   45.5560 C   0  0  0  0  0  0  0  0  0  0  0  0
   57.6220   27.4190   45.4190 C   0  0  0  0  0  0  0  0  0  0  0  0
   56.2520   27.5940   45.5610 C   0  0  0  0  0  0  0  0  0  0  0  0
   55.3120   26.6180   45.8880 O   0  0  0  0  0  0  0  0  0  0  0  0
   55.9140   28.8770   45.3320 N   0  0  0  0  0  0  0  0  0  0  0  0
   57.0920   29.4610   45.0360 C   0  0  0  0  0  0  0  0  0  0  0  0
   57.1940   30.6870   44.7620 O   0  0  0  0  0  0  0  0  0  0  0  0
   58.1420   28.6140   45.0590 N   0  0  0  0  0  0  0  0  0  0  0  0
   59.5380   28.9640   44.7950 C   0  0  0  0  0  0  0  0  0  0  0  0
   60.3510   28.8850   46.0960 C   0  0  0  0  0  0  0  0  0  0  0  0
   59.6260   29.2940   47.3700 C   0  0  0  0  0  0  0  0  0  0  0  0
   60.6400   30.2330   46.7400 C   0  0  0  0  0  0  0  0  0  0  0  0
   58.0311   26.8167   43.1877 H   0  0  0  0  0  0  0  0  0  0  0  0
   58.5912   25.5979   41.9929 H   0  0  0  0  0  0  0  0  0  0  0  0
   56.8767   26.1338   41.9929 H   0  0  0  0  0  0  0  0  0  0  0  0
   56.6627   23.5571   41.9914 H   0  0  0  0  0  0  0  0  0  0  0  0
   56.3008   21.8230   47.2325 H   0  0  0  0  0  0  0  0  0  0  0  0
   55.1516   21.2756   45.9652 H   0  0  0  0  0  0  0  0  0  0  0  0
   56.8432   20.6714   45.9652 H   0  0  0  0  0  0  0  0  0  0  0  0
   56.8699   23.1166   47.8421 H   0  0  0  0  0  0  0  0  0  0  0  0
   58.2108   24.2994   47.6701 H   0  0  0  0  0  0  0  0  0  0  0  0
   56.5067   24.8674   47.6701 H   0  0  0  0  0  0  0  0  0  0  0  0
   58.5896   25.9424   46.6231 H   0  0  0  0  0  0  0  0  0  0  0  0
   59.3203   26.2269   44.9770 H   0  0  0  0  0  0  0  0  0  0  0  0
   55.1090   26.3570   46.8420 H   0  0  0  0  0  0  0  0  0  0  0  0
   59.9574   28.2618   44.0594 H   0  0  0  0  0  0  0  0  0  0  0  0
   59.5861   29.9892   44.3992 H   0  0  0  0  0  0  0  0  0  0  0  0
   60.9438   28.0085   45.7955 H   0  0  0  0  0  0  0  0  0  0  0  0
   58.5544   29.5403   47.3379 H   0  0  0  0  0  0  0  0  0  0  0  0
   59.4938   28.8479   48.3667 H   0  0  0  0  0  0  0  0  0  0  0  0
   60.3026   31.1592   46.2518 H   0  0  0  0  0  0  0  0  0  0  0  0
   61.5460   30.7482   47.0919 H   0  0  0  0  0  0  0  0  0  0  0  0
  1  2  1  0
  2  3  2  0
  3  4  1  0
  4  5  1  0
  4  6  2  0
  6  7  1  0
  6  8  1  0
  8  9  1  0
  8 10  2  0
 10 11  1  0
 11 12  1  0
 12 13  2  0
 13 14  1  0
 13 15  1  0
 15 16  1  0
 16 17  2  0
 16 18  1  0
 18 19  1  0
 19 20  1  0
 20 21  1  0
 21 22  1  0
 10  2  1  0
 18 12  1  0
 22 20  1  0
  1 23  1  0
  1 24  1  0
  1 25  1  0
  3 26  1  0
  7 27  1  0
  7 28  1  0
  7 29  1  0
  9 30  1  0
  9 31  1  0
  9 32  1  0
 11 33  1  0
 11 34  1  0
 14 35  1  0
 19 36  1  0
 19 37  1  0
 20 38  1  0
 21 39  1  0
 21 40  1  0
 22 41  1  0
 22 42  1  0
M  CHG  2   5  -1  15  -1
M  END
>  <UniqueID>  (34) 
34

>  <SMILES>  (34) 
Cc1cc([O-])c(C)c(C)c1Cc1c(O)[n-]c(=O)n1CC1CC1

>  <Energy>  (34) 
342.71447246411293

>  <Genealogy>  (34) 
Cc1cc([O-])c(C)c(C)c1Cc1c(O)[n-]c(=O)n1CC1CC1 (protonated)
Cc1cc([O-])c(C)c(C)c1Cc1c(O)[n-]c(=O)n1CC1CC1 (3D coordinates assigned)
Cc1cc([O-])c(C)c(C)c1Cc1c(O)[n-]c(=O)n1CC1CC1 (nonaromatic ring conformer: 342.71447246411293 kcal/mol)

>  <smiles>  (34) 
Cc1cc(O)c(C)c(C)c1Cc1c(O)[nH]c(=O)n1CC1CC1

>  <score_type>  (34) 
oracle

>  <origin>  (34) 
adg

>  <m_score__min__energy>  (34) 
-10.83

>  <m_primary>  (34) 
energy

$$$$
34:0
     RDKit          3D

 50 52  0  0  0  0  0  0  0  0999 V2000
   58.0520   34.5890   44.8670 C   0  0  0  0  0  0  0  0  0  0  0  0
   57.8470   33.1330   44.5640 C   0  0  0  0  0  0  0  0  0  0  0  0
   57.6620   32.2100   45.6040 C   0  0  0  0  0  0  0  0  0  0  0  0
   57.5060   30.8500   45.3210 C   0  0  0  0  0  0  0  0  0  0  0  0
   57.5500   30.3920   43.9950 C   0  0  0  0  0  0  0  0  0  0  0  0
   57.3650   28.9280   43.6980 C   0  0  0  0  0  0  0  0  0  0  0  0
   57.2370   27.9670   45.2500 S   0  0  0  0  0  0  0  0  0  0  0  0
   58.9640   27.3630   45.2840 C   0  0  0  0  0  0  0  0  0  0  0  0
   59.4430   27.2670   46.6960 C   0  0  0  0  0  0  0  0  0  0  0  0
   60.1410   26.2780   47.0490 O   0  0  0  0  0  0  0  0  0  0  0  0
   59.0410   28.2600   47.6480 N   0  0  0  0  0  0  0  0  0  0  0  0
   59.4690   29.6300   47.6720 C   0  0  0  0  0  0  0  0  0  0  0  0
   58.9440   30.4810   48.6510 C   0  0  0  0  0  0  0  0  0  0  0  0
   59.3300   31.8240   48.7030 C   0  0  0  0  0  0  0  0  0  0  0  0
   60.2360   32.3350   47.7630 C   0  0  0  0  0  0  0  0  0  0  0  0
   60.7460   34.0220   47.8430 S   0  0  0  0  0  0  0  0  0  0  0  0
   60.4430   34.6930   46.5320 O   0  0  0  0  0  0  0  0  0  0  0  0
   59.9590   34.7260   48.9140 O   0  0  0  0  0  0  0  0  0  0  0  0
   62.4570   34.1760   48.1930 N   0  0  0  0  0  0  0  0  0  0  0  0
   63.2710   33.8490   47.0170 C   0  0  0  0  0  0  0  0  0  0  0  0
   63.7530   32.4100   47.1500 C   0  0  0  0  0  0  0  0  0  0  0  0
   63.4710   32.0110   48.5860 C   0  0  0  0  0  0  0  0  0  0  0  0
   62.8690   33.2420   49.2460 C   0  0  0  0  0  0  0  0  0  0  0  0
   60.7330   31.4950   46.7570 C   0  0  0  0  0  0  0  0  0  0  0  0
   60.3510   30.1500   46.7090 C   0  0  0  0  0  0  0  0  0  0  0  0
   57.7600   31.3130   42.9560 C   0  0  0  0  0  0  0  0  0  0  0  0
   57.9140   32.6750   43.2400 C   0  0  0  0  0  0  0  0  0  0  0  0
   58.0729   34.7373   45.9568 H   0  0  0  0  0  0  0  0  0  0  0  0
   59.0060   34.9230   44.4331 H   0  0  0  0  0  0  0  0  0  0  0  0
   57.2273   35.1735   44.4331 H   0  0  0  0  0  0  0  0  0  0  0  0
   57.6396   32.5581   46.6472 H   0  0  0  0  0  0  0  0  0  0  0  0
   57.3479   30.1350   46.1418 H   0  0  0  0  0  0  0  0  0  0  0  0
   56.4445   28.7916   43.1114 H   0  0  0  0  0  0  0  0  0  0  0  0
   58.2354   28.5688   43.1293 H   0  0  0  0  0  0  0  0  0  0  0  0
   59.0119   26.3694   44.8145 H   0  0  0  0  0  0  0  0  0  0  0  0
   59.6042   28.0670   44.7322 H   0  0  0  0  0  0  0  0  0  0  0  0
   58.2230   30.0909   49.3844 H   0  0  0  0  0  0  0  0  0  0  0  0
   58.9214   32.4819   49.4842 H   0  0  0  0  0  0  0  0  0  0  0  0
   62.6653   33.9550   46.1049 H   0  0  0  0  0  0  0  0  0  0  0  0
   64.1316   34.5310   46.9519 H   0  0  0  0  0  0  0  0  0  0  0  0
   63.2042   31.7565   46.4560 H   0  0  0  0  0  0  0  0  0  0  0  0
   64.8216   32.3167   46.9062 H   0  0  0  0  0  0  0  0  0  0  0  0
   62.7599   31.1724   48.6182 H   0  0  0  0  0  0  0  0  0  0  0  0
   64.3846   31.6803   49.1018 H   0  0  0  0  0  0  0  0  0  0  0  0
   61.9952   32.9513   49.8477 H   0  0  0  0  0  0  0  0  0  0  0  0
   63.6096   33.7181   49.9054 H   0  0  0  0  0  0  0  0  0  0  0  0
   61.4261   31.8949   46.0023 H   0  0  0  0  0  0  0  0  0  0  0  0
   60.7423   29.4971   45.9148 H   0  0  0  0  0  0  0  0  0  0  0  0
   57.8037   30.9626   41.9142 H   0  0  0  0  0  0  0  0  0  0  0  0
   58.0883   33.3890   42.4215 H   0  0  0  0  0  0  0  0  0  0  0  0
  1  2  1  0
  2  3  2  0
  3  4  1  0
  4  5  2  0
  5  6  1  0
  6  7  1  0
  7  8  1  0
  8  9  1  0
  9 10  2  0
  9 11  1  0
 11 12  1  0
 12 13  2  0
 13 14  1  0
 14 15  2  0
 15 16  1  0
 16 17  2  0
 16 18  2  0
 16 19  1  0
 19 20  1  0
 20 21  1  0
 21 22  1  0
 22 23  1  0
 15 24  1  0
 24 25  2  0
  5 26  1  0
 26 27  2  0
 27  2  1  0
 25 12  1  0
 23 19  1  0
  1 28  1  0
  1 29  1  0
  1 30  1  0
  3 31  1  0
  4 32  1  0
  6 33  1  0
  6 34  1  0
  8 35  1  0
  8 36  1  0
 13 37  1  0
 14 38  1  0
 20 39  1  0
 20 40  1  0
 21 41  1  0
 21 42  1  0
 22 43  1  0
 22 44  1  0
 23 45  1  0
 23 46  1  0
 24 47  1  0
 25 48  1  0
 26 49  1  0
 27 50  1  0
M  CHG  1  11  -1
M  END
>  <UniqueID>  (35) 
35

>  <SMILES>  (35) 
Cc1ccc(CSCC(=O)[N-]c2ccc(S(=O)(=O)N3CCCC3)cc2)cc1

>  <Energy>  (35) 
49.54567518098056

>  <Genealogy>  (35) 
Cc1ccc(CSCC(=O)[N-]c2ccc(S(=O)(=O)N3CCCC3)cc2)cc1 (protonated)
Cc1ccc(CSCC(=O)[N-]c2ccc(S(=O)(=O)N3CCCC3)cc2)cc1 (3D coordinates assigned)
Cc1ccc(CSCC(=O)[N-]c2ccc(S(=O)(=O)N3CCCC3)cc2)cc1 (nonaromatic ring conformer: 49.54567518098056 kcal/mol)

>  <smiles>  (35) 
Cc1ccc(CSCC(=O)Nc2ccc(S(=O)(=O)N3CCCC3)cc2)cc1

>  <score_type>  (35) 
oracle

>  <origin>  (35) 
adg

>  <m_score__min__energy>  (35) 
-10.449999999999999

>  <m_primary>  (35) 
energy

$$$$
35:0
     RDKit          3D

 55 58  0  0  0  0  0  0  0  0999 V2000
   56.4960   30.2220   42.9520 O   0  0  0  0  0  0  0  0  0  0  0  0
   56.8290   30.3480   44.1610 C   0  0  0  0  0  0  0  0  0  0  0  0
   56.5380   31.5820   44.8260 N   0  0  0  0  0  0  0  0  0  0  0  0
   57.5090   32.5710   45.1940 C   0  0  0  0  0  0  0  0  0  0  0  0
   58.2440   33.2800   44.2230 C   0  0  0  0  0  0  0  0  0  0  0  0
   59.1460   34.2740   44.6120 C   0  0  0  0  0  0  0  0  0  0  0  0
   59.3210   34.5660   45.9700 C   0  0  0  0  0  0  0  0  0  0  0  0
   58.6050   33.8540   46.9400 C   0  0  0  0  0  0  0  0  0  0  0  0
   57.6930   32.8690   46.5530 C   0  0  0  0  0  0  0  0  0  0  0  0
   57.4420   29.2430   44.8600 N   0  0  0  0  0  0  0  0  0  0  0  0
   57.7430   28.0210   44.0740 C   0  0  0  0  0  0  0  0  0  0  0  0
   58.4070   26.9220   44.9290 C   0  0  1  0  0  0  0  0  0  0  0  0
   59.8360   27.3280   45.3090 C   0  0  0  0  0  0  0  0  0  0  0  0
   59.6860   28.0520   46.6510 C   0  0  0  0  0  0  0  0  0  0  0  0
   58.1820   28.0260   46.9370 C   0  0  1  0  0  0  0  0  0  0  0  0
   57.4940   29.2740   46.3440 C   0  0  0  0  0  0  0  0  0  0  0  0
   57.7080   26.8790   46.1950 N   0  0  0  0  0  0  0  0  0  0  0  0
   56.4200   26.2770   46.3890 C   0  0  0  0  0  0  0  0  0  0  0  0
   55.4260   26.7020   45.7390 O   0  0  0  0  0  0  0  0  0  0  0  0
   56.2630   25.1950   47.3170 N   0  0  0  0  0  0  0  0  0  0  0  0
   57.0180   23.9470   47.2290 C   0  0  0  0  0  0  0  0  0  0  0  0
   56.6020   23.1240   45.9990 C   0  0  0  0  0  0  0  0  0  0  0  0
   57.5650   23.3250   44.8890 N   0  0  0  0  0  0  0  0  0  0  0  0
   58.1690   22.0580   44.4140 C   0  0  0  0  0  0  0  0  0  0  0  0
   57.3480   21.4020   43.2840 C   0  0  0  0  0  0  0  0  0  0  0  0
   56.0070   21.8430   43.3180 O   0  0  0  0  0  0  0  0  0  0  0  0
   55.9480   23.2180   42.9810 C   0  0  0  0  0  0  0  0  0  0  0  0
   56.9750   24.0740   43.7630 C   0  0  0  0  0  0  0  0  0  0  0  0
   58.1074   33.0504   43.1559 H   0  0  0  0  0  0  0  0  0  0  0  0
   59.7179   34.8264   43.8519 H   0  0  0  0  0  0  0  0  0  0  0  0
   60.0224   35.3564   46.2756 H   0  0  0  0  0  0  0  0  0  0  0  0
   58.7607   34.0703   48.0072 H   0  0  0  0  0  0  0  0  0  0  0  0
   57.1171   32.3251   47.3162 H   0  0  0  0  0  0  0  0  0  0  0  0
   56.8034   27.6270   43.6595 H   0  0  0  0  0  0  0  0  0  0  0  0
   58.4488   28.2993   43.2775 H   0  0  0  0  0  0  0  0  0  0  0  0
   58.3887   25.9789   44.3630 H   0  0  0  0  0  0  0  0  0  0  0  0
   60.4769   26.4404   45.4157 H   0  0  0  0  0  0  0  0  0  0  0  0
   60.3083   27.9608   44.5432 H   0  0  0  0  0  0  0  0  0  0  0  0
   60.2408   27.5247   47.4410 H   0  0  0  0  0  0  0  0  0  0  0  0
   60.0875   29.0757   46.6202 H   0  0  0  0  0  0  0  0  0  0  0  0
   57.9741   27.9938   48.0167 H   0  0  0  0  0  0  0  0  0  0  0  0
   56.4661   29.3282   46.7320 H   0  0  0  0  0  0  0  0  0  0  0  0
   58.0845   30.1537   46.6397 H   0  0  0  0  0  0  0  0  0  0  0  0
   58.0902   24.1819   47.1562 H   0  0  0  0  0  0  0  0  0  0  0  0
   56.8085   23.3519   48.1301 H   0  0  0  0  0  0  0  0  0  0  0  0
   56.5776   22.0578   46.2684 H   0  0  0  0  0  0  0  0  0  0  0  0
   55.6060   23.4551   45.6699 H   0  0  0  0  0  0  0  0  0  0  0  0
   59.1814   22.2682   44.0387 H   0  0  0  0  0  0  0  0  0  0  0  0
   58.1907   21.3582   45.2624 H   0  0  0  0  0  0  0  0  0  0  0  0
   57.7914   21.6701   42.3137 H   0  0  0  0  0  0  0  0  0  0  0  0
   57.3642   20.3110   43.4238 H   0  0  0  0  0  0  0  0  0  0  0  0
   56.1490   23.3247   41.9048 H   0  0  0  0  0  0  0  0  0  0  0  0
   54.9443   23.5808   43.2475 H   0  0  0  0  0  0  0  0  0  0  0  0
   57.7794   24.3798   43.0779 H   0  0  0  0  0  0  0  0  0  0  0  0
   56.4506   24.9504   44.1715 H   0  0  0  0  0  0  0  0  0  0  0  0
  1  2  2  0
  2  3  1  0
  3  4  1  0
  4  5  2  0
  5  6  1  0
  6  7  2  0
  7  8  1  0
  8  9  2  0
  2 10  1  0
 10 11  1  0
 11 12  1  0
 12 13  1  0
 13 14  1  0
 14 15  1  0
 15 16  1  0
 15 17  1  0
 17 18  1  0
 18 19  2  0
 18 20  1  0
 20 21  1  0
 21 22  1  0
 22 23  1  0
 23 24  1  0
 24 25  1  0
 25 26  1  0
 26 27  1  0
 27 28  1  0
  9  4  1  0
 16 10  1  0
 28 23  1  0
 17 12  1  0
  5 29  1  0
  6 30  1  0
  7 31  1  0
  8 32  1  0
  9 33  1  0
 11 34  1  0
 11 35  1  0
 12 36  1  6
 13 37  1  0
 13 38  1  0
 14 39  1  0
 14 40  1  0
 15 41  1  1
 16 42  1  0
 16 43  1  0
 21 44  1  0
 21 45  1  0
 22 46  1  0
 22 47  1  0
 24 48  1  0
 24 49  1  0
 25 50  1  0
 25 51  1  0
 27 52  1  0
 27 53  1  0
 28 54  1  0
 28 55  1  0
M  CHG  2   3  -1  20  -1
M  END
>  <UniqueID>  (36) 
36

>  <SMILES>  (36) 
O=C([N-]c1ccccc1)N1C[C@H]2CC[C@@H](C1)N2C(=O)[N-]CCN1CCOCC1

>  <Energy>  (36) 
85.1542823325344

>  <Genealogy>  (36) 
O=C([N-]c1ccccc1)N1CC2CCC(C1)N2C(=O)[N-]CCN1CCOCC1 (protonated)
O=C([N-]c1ccccc1)N1C[C@H]2CC[C@@H](C1)N2C(=O)[N-]CCN1CCOCC1 (chirality)
O=C([N-]c1ccccc1)N1C[C@H]2CC[C@@H](C1)N2C(=O)[N-]CCN1CCOCC1 (3D coordinates assigned)
O=C([N-]c1ccccc1)N1C[C@H]2CC[C@@H](C1)N2C(=O)[N-]CCN1CCOCC1 (nonaromatic ring conformer: 85.1542823325344 kcal/mol)

>  <smiles>  (36) 
O=C(Nc1ccccc1)N1CC2CCC(C1)N2C(=O)NCCN1CCOCC1

>  <score_type>  (36) 
oracle

>  <origin>  (36) 
adg

>  <m_score__min__energy>  (36) 
-12.630000000000001

>  <m_primary>  (36) 
energy

$$$$
36:0
     RDKit          3D

 50 52  0  0  0  0  0  0  0  0999 V2000
   59.3753   34.0003   46.6909 H   0  0  0  0  0  0  0  0  0  0  0  0
   59.2040   34.0600   45.6060 C   0  0  0  0  0  0  0  0  0  0  0  0
   59.5205   34.9533   45.0475 H   0  0  0  0  0  0  0  0  0  0  0  0
   58.6100   33.0450   44.9650 C   0  0  0  0  0  0  0  0  0  0  0  0
   58.1750   31.8330   45.5150 C   0  0  0  0  0  0  0  0  0  0  0  0
   58.3000   31.4570   46.8060 C   0  0  0  0  0  0  0  0  0  0  0  0
   57.3783   31.3362   47.3941 H   0  0  0  0  0  0  0  0  0  0  0  0
   59.5820   31.1970   47.4830 C   0  0  0  0  0  0  0  0  0  0  0  0
   60.7490   31.6380   47.0690 O   0  0  0  0  0  0  0  0  0  0  0  0
   61.6720   31.2740   47.9310 C   0  0  0  0  0  0  0  0  0  0  0  0
   63.1180   31.6130   47.7750 C   0  0  0  0  0  0  0  0  0  0  0  0
   63.5785   31.7210   48.7681 H   0  0  0  0  0  0  0  0  0  0  0  0
   63.6253   30.8094   47.2210 H   0  0  0  0  0  0  0  0  0  0  0  0
   63.2153   32.5583   47.2210 H   0  0  0  0  0  0  0  0  0  0  0  0
   61.0960   30.5610   48.9750 C   0  0  0  0  0  0  0  0  0  0  0  0
   61.8150   29.9830   50.1590 C   0  0  0  0  0  0  0  0  0  0  0  0
   61.3530   30.3544   51.0856 H   0  0  0  0  0  0  0  0  0  0  0  0
   61.7467   28.8855   50.1295 H   0  0  0  0  0  0  0  0  0  0  0  0
   62.8722   30.2855   50.1295 H   0  0  0  0  0  0  0  0  0  0  0  0
   59.7360   30.5220   48.6780 C   0  0  0  0  0  0  0  0  0  0  0  0
   58.6750   29.9430   49.3900 O   0  0  0  0  0  0  0  0  0  0  0  0
   58.4260   30.1180   50.7770 C   0  0  0  0  0  0  0  0  0  0  0  0
   59.1905   29.5807   51.3574 H   0  0  0  0  0  0  0  0  0  0  0  0
   58.4637   31.1892   51.0240 H   0  0  0  0  0  0  0  0  0  0  0  0
   57.4309   29.7196   51.0240 H   0  0  0  0  0  0  0  0  0  0  0  0
   57.6150   31.1170   44.4480 C   0  0  0  0  0  0  0  0  0  0  0  0
   56.7490   29.9250   44.5110 C   0  0  0  0  0  0  0  0  0  0  0  0
   55.4970   30.0670   44.5250 O   0  0  0  0  0  0  0  0  0  0  0  0
   57.3380   28.6190   44.4610 N   0  0  0  0  0  0  0  0  0  0  0  0
   58.0730   27.9480   45.4990 C   0  0  0  0  0  0  0  0  0  0  0  0
   57.4270   27.1640   46.4750 C   0  0  0  0  0  0  0  0  0  0  0  0
   56.3352   27.0354   46.4373 H   0  0  0  0  0  0  0  0  0  0  0  0
   58.1630   26.5490   47.4900 C   0  0  0  0  0  0  0  0  0  0  0  0
   57.6505   25.9332   48.2437 H   0  0  0  0  0  0  0  0  0  0  0  0
   59.5470   26.7140   47.5500 C   0  0  0  0  0  0  0  0  0  0  0  0
   60.1250   26.2227   48.3466 H   0  0  0  0  0  0  0  0  0  0  0  0
   60.1990   27.5020   46.6000 C   0  0  0  0  0  0  0  0  0  0  0  0
   61.2898   27.6330   46.6540 H   0  0  0  0  0  0  0  0  0  0  0  0
   59.4700   28.1290   45.5750 C   0  0  0  0  0  0  0  0  0  0  0  0
   60.1850   28.9820   44.5630 C   0  0  0  0  0  0  0  0  0  0  0  0
   60.8075   29.7246   45.0837 H   0  0  0  0  0  0  0  0  0  0  0  0
   60.8235   28.3456   43.9327 H   0  0  0  0  0  0  0  0  0  0  0  0
   59.4469   29.4995   43.9327 H   0  0  0  0  0  0  0  0  0  0  0  0
   57.7780   31.9070   43.3170 C   0  0  0  0  0  0  0  0  0  0  0  0
   57.2770   31.5960   41.9400 C   0  0  0  0  0  0  0  0  0  0  0  0
   56.3444   31.0171   42.0112 H   0  0  0  0  0  0  0  0  0  0  0  0
   57.0857   32.5344   41.3988 H   0  0  0  0  0  0  0  0  0  0  0  0
   58.0330   31.0082   41.3988 H   0  0  0  0  0  0  0  0  0  0  0  0
   58.3770   33.0680   43.6380 N   0  0  0  0  0  0  0  0  0  0  0  0
   58.5970   33.8500   42.9810 H   0  0  0  0  0  0  0  0  0  0  0  0
  1  2  1  0
  2  3  1  0
  2  4  2  0
  4  5  1  0
  5  6  2  0
  6  7  1  0
  6  8  1  0
  8  9  1  0
  9 10  1  0
 10 11  1  0
 11 12  1  0
 11 13  1  0
 11 14  1  0
 10 15  2  0
 15 16  1  0
 16 17  1  0
 16 18  1  0
 16 19  1  0
 15 20  1  0
 20 21  1  0
 21 22  1  0
 22 23  1  0
 22 24  1  0
 22 25  1  0
  5 26  1  0
 26 27  1  0
 27 28  2  0
 27 29  1  0
 29 30  1  0
 30 31  2  0
 31 32  1  0
 31 33  1  0
 33 34  1  0
 33 35  2  0
 35 36  1  0
 35 37  1  0
 37 38  1  0
 37 39  2  0
 39 40  1  0
 40 41  1  0
 40 42  1  0
 40 43  1  0
 26 44  2  0
 44 45  1  0
 45 46  1  0
 45 47  1  0
 45 48  1  0
 44 49  1  0
 49 50  1  0
 49  4  1  0
 20  8  2  0
 39 30  1  0
M  CHG  1  29  -1
M  END
>  <UniqueID>  (37) 
37

>  <SMILES>  (37) 
C=c1[nH]c(C)c(C(=O)[N-]c2ccccc2C)/c1=C\c1oc(C)c(C)c1OC

>  <Energy>  (37) 
117.82643063216163

>  <Genealogy>  (37) 
C=c1[nH]c(C)c(C(=O)[N-]c2ccccc2C)c1=Cc1oc(C)c(C)c1OC (protonated)
C=c1[nH]c(C)c(C(=O)[N-]c2ccccc2C)/c1=C\c1oc(C)c(C)c1OC (cis-trans isomerization)
C=c1[nH]c(C)c(C(=O)[N-]c2ccccc2C)/c1=C\c1oc(C)c(C)c1OC (3D coordinates assigned)
C=c1[nH]c(C)c(C(=O)[N-]c2ccccc2C)/c1=C\c1oc(C)c(C)c1OC (optimized conformer: 117.82643063216163 kcal/mol)

>  <smiles>  (37) 
C=c1[nH]c(C)c(C(=O)Nc2ccccc2C)c1=Cc1oc(C)c(C)c1OC

>  <score_type>  (37) 
oracle

>  <origin>  (37) 
adg

>  <m_score__min__energy>  (37) 
-9.6099999999999994

>  <m_primary>  (37) 
energy

$$$$
37:0
     RDKit          3D

 57 60  0  0  0  0  0  0  0  0999 V2000
   56.9310   23.4640   44.9920 C   0  0  0  0  0  0  0  0  0  0  0  0
   56.0450   23.3650   45.9870 C   0  0  0  0  0  0  0  0  0  0  0  0
   56.0630   24.3080   47.1570 C   0  0  0  0  0  0  0  0  0  0  0  0
   56.7170   25.6140   46.7820 C   0  0  0  0  0  0  0  0  0  0  0  0
   58.0270   25.8900   47.2120 C   0  0  0  0  0  0  0  0  0  0  0  0
   58.6470   27.1140   46.8970 C   0  0  0  0  0  0  0  0  0  0  0  0
   60.0300   27.4320   47.3370 C   0  0  0  0  0  0  0  0  0  0  0  0
   60.7550   28.1360   46.5830 O   0  0  0  0  0  0  0  0  0  0  0  0
   60.5790   26.9290   48.6230 C   0  0  0  0  0  0  0  0  0  0  0  0
   60.9490   27.7010   49.6570 C   0  0  0  0  0  0  0  0  0  0  0  0
   60.2050   28.8770   50.1550 C   0  0  0  0  0  0  0  0  0  0  0  0
   59.7320   28.9330   51.4750 C   0  0  0  0  0  0  0  0  0  0  0  0
   59.0750   30.0730   51.9410 C   0  0  0  0  0  0  0  0  0  0  0  0
   58.8930   31.1880   51.1020 C   0  0  0  0  0  0  0  0  0  0  0  0
   58.2600   32.3570   51.5520 O   0  0  0  0  0  0  0  0  0  0  0  0
   58.9080   33.4040   52.2670 C   0  0  0  0  0  0  0  0  0  0  0  0
   59.3770   31.1390   49.7770 C   0  0  0  0  0  0  0  0  0  0  0  0
   59.2070   32.2900   48.8610 C   0  0  0  0  0  0  0  0  0  0  0  0
   58.2390   32.2310   47.8450 C   0  0  0  0  0  0  0  0  0  0  0  0
   58.0460   33.3180   46.9800 C   0  0  0  0  0  0  0  0  0  0  0  0
   57.0630   33.2060   45.8860 C   0  0  0  0  0  0  0  0  0  0  0  0
   57.3130   32.6710   44.6810 C   0  0  0  0  0  0  0  0  0  0  0  0
   58.4980   33.4260   43.5620 S   0  0  0  0  0  0  0  0  0  0  0  0
   58.0480   32.1740   42.3560 C   0  0  0  0  0  0  0  0  0  0  0  0
   58.5070   32.1800   41.1860 O   0  0  0  0  0  0  0  0  0  0  0  0
   57.1370   31.1730   42.7900 N   0  0  0  0  0  0  0  0  0  0  0  0
   56.7370   31.4430   44.1210 C   0  0  0  0  0  0  0  0  0  0  0  0
   55.9970   30.6470   44.7570 O   0  0  0  0  0  0  0  0  0  0  0  0
   58.8630   34.4520   47.1040 C   0  0  0  0  0  0  0  0  0  0  0  0
   59.8200   34.5220   48.1190 C   0  0  0  0  0  0  0  0  0  0  0  0
   59.9890   33.4520   49.0040 C   0  0  0  0  0  0  0  0  0  0  0  0
   60.9250   33.5590   50.0280 O   0  0  0  0  0  0  0  0  0  0  0  0
   60.0510   29.9920   49.3230 C   0  0  0  0  0  0  0  0  0  0  0  0
   57.9370   28.0550   46.1300 C   0  0  0  0  0  0  0  0  0  0  0  0
   56.6330   27.7910   45.7090 C   0  0  0  0  0  0  0  0  0  0  0  0
   56.0180   26.5810   46.0370 C   0  0  0  0  0  0  0  0  0  0  0  0
   54.7110   26.3460   45.6190 O   0  0  0  0  0  0  0  0  0  0  0  0
   56.8922   22.7586   44.1488 H   0  0  0  0  0  0  0  0  0  0  0  0
   57.6993   24.2509   45.0159 H   0  0  0  0  0  0  0  0  0  0  0  0
   55.2827   22.5729   45.9489 H   0  0  0  0  0  0  0  0  0  0  0  0
   55.0295   24.5018   47.4799 H   0  0  0  0  0  0  0  0  0  0  0  0
   56.6389   23.8467   47.9729 H   0  0  0  0  0  0  0  0  0  0  0  0
   58.5743   25.1400   47.8020 H   0  0  0  0  0  0  0  0  0  0  0  0
   60.6908   25.8406   48.7364 H   0  0  0  0  0  0  0  0  0  0  0  0
   61.8821   27.4368   50.1761 H   0  0  0  0  0  0  0  0  0  0  0  0
   59.8798   28.0740   52.1460 H   0  0  0  0  0  0  0  0  0  0  0  0
   58.6961   30.1000   52.9733 H   0  0  0  0  0  0  0  0  0  0  0  0
   58.8008   33.2308   53.3480 H   0  0  0  0  0  0  0  0  0  0  0  0
   59.9756   33.4224   52.0027 H   0  0  0  0  0  0  0  0  0  0  0  0
   58.4482   34.3677   52.0027 H   0  0  0  0  0  0  0  0  0  0  0  0
   57.6271   31.3246   47.7267 H   0  0  0  0  0  0  0  0  0  0  0  0
   56.0490   33.5898   46.0718 H   0  0  0  0  0  0  0  0  0  0  0  0
   58.7494   35.2889   46.3993 H   0  0  0  0  0  0  0  0  0  0  0  0
   60.4434   35.4223   48.2228 H   0  0  0  0  0  0  0  0  0  0  0  0
   60.4618   29.9705   48.3028 H   0  0  0  0  0  0  0  0  0  0  0  0
   58.4142   29.0084   45.8593 H   0  0  0  0  0  0  0  0  0  0  0  0
   56.0870   28.5395   45.1160 H   0  0  0  0  0  0  0  0  0  0  0  0
  1  2  2  0
  2  3  1  0
  3  4  1  0
  4  5  2  0
  5  6  1  0
  6  7  1  0
  7  8  2  0
  7  9  1  0
  9 10  2  3
 10 11  1  0
 11 12  2  0
 12 13  1  0
 13 14  2  0
 14 15  1  0
 15 16  1  0
 14 17  1  0
 17 18  1  0
 18 19  2  0
 19 20  1  0
 20 21  1  0
 21 22  2  3
 22 23  1  0
 23 24  1  0
 24 25  2  0
 24 26  1  0
 26 27  1  0
 27 28  2  0
 20 29  2  0
 29 30  1  0
 30 31  2  0
 31 32  1  0
 17 33  2  0
  6 34  2  0
 34 35  1  0
 35 36  2  0
 36 37  1  0
 36  4  1  0
 33 11  1  0
 31 18  1  0
 27 22  1  0
  1 38  1  0
  1 39  1  0
  2 40  1  0
  3 41  1  0
  3 42  1  0
  5 43  1  0
  9 44  1  0
 10 45  1  0
 12 46  1  0
 13 47  1  0
 16 48  1  0
 16 49  1  0
 16 50  1  0
 19 51  1  0
 21 52  1  0
 29 53  1  0
 30 54  1  0
 33 55  1  0
 34 56  1  0
 35 57  1  0
M  CHG  3  26  -1  32  -1  37  -1
M  END
>  <UniqueID>  (38) 
38

>  <SMILES>  (38) 
C=CCc1cc(C(=O)C=Cc2ccc(OC)c(-c3cc(C=C4SC(=O)[N-]C4=O)ccc3[O-])c2)ccc1[O-]

>  <Energy>  (38) 
103.73565520736919

>  <Genealogy>  (38) 
C=CCc1cc(C(=O)C=Cc2ccc(OC)c(-c3cc(C=C4SC(=O)[N-]C4=O)ccc3[O-])c2)ccc1[O-] (protonated)
C=CCc1cc(C(=O)C=Cc2ccc(OC)c(-c3cc(C=C4SC(=O)[N-]C4=O)ccc3[O-])c2)ccc1[O-] (3D coordinates assigned)
C=CCc1cc(C(=O)C=Cc2ccc(OC)c(-c3cc(C=C4SC(=O)[N-]C4=O)ccc3[O-])c2)ccc1[O-] (nonaromatic ring conformer: 103.73565520736919 kcal/mol)

>  <smiles>  (38) 
C=CCc1cc(C(=O)C=Cc2ccc(OC)c(-c3cc(C=C4SC(=O)NC4=O)ccc3O)c2)ccc1O

>  <score_type>  (38) 
oracle

>  <origin>  (38) 
adg

>  <m_score__min__energy>  (38) 
-17.219999999999999

>  <m_primary>  (38) 
energy

$$$$
38:0
     RDKit          3D

 51 54  0  0  0  0  0  0  0  0999 V2000
   66.8380   27.5220   52.2650 C   0  0  0  0  0  0  0  0  0  0  0  0
   66.2620   28.8260   51.7770 C   0  0  0  0  0  0  0  0  0  0  0  0
   67.1220   29.8110   51.2620 C   0  0  0  0  0  0  0  0  0  0  0  0
   66.6130   31.0220   50.7870 C   0  0  0  0  0  0  0  0  0  0  0  0
   65.2370   31.2670   50.8180 C   0  0  0  0  0  0  0  0  0  0  0  0
   64.5800   32.7830   50.1980 S   0  0  0  0  0  0  0  0  0  0  0  0
   63.4610   33.2580   51.0830 O   0  0  0  0  0  0  0  0  0  0  0  0
   65.6730   33.8150   50.2140 O   0  0  0  0  0  0  0  0  0  0  0  0
   63.9940   32.5610   48.5650 N   0  0  0  0  0  0  0  0  0  0  0  0
   62.8090   31.6570   48.5460 C   0  0  0  0  0  0  0  0  0  0  0  0
   61.4780   32.4080   48.4140 C   0  0  0  0  0  0  0  0  0  0  0  0
   61.5090   33.2610   47.2210 N   0  0  0  0  0  0  0  0  0  0  0  0
   60.2820   33.7070   46.6250 C   0  0  0  0  0  0  0  0  0  0  0  0
   60.0020   34.9350   46.6250 O   0  0  0  0  0  0  0  0  0  0  0  0
   59.3580   32.7510   45.9910 C   0  0  0  0  0  0  0  0  0  0  0  0
   58.8560   32.8560   44.6920 C   0  0  0  0  0  0  0  0  0  0  0  0
   58.0330   31.7780   44.3500 C   0  0  0  0  0  0  0  0  0  0  0  0
   57.3830   31.5930   43.1260 C   0  0  0  0  0  0  0  0  0  0  0  0
   56.5950   30.4420   42.9450 C   0  0  0  0  0  0  0  0  0  0  0  0
   56.4670   29.4960   43.9800 C   0  0  0  0  0  0  0  0  0  0  0  0
   57.1250   29.6910   45.2060 C   0  0  0  0  0  0  0  0  0  0  0  0
   57.8990   30.8380   45.3610 C   0  0  0  0  0  0  0  0  0  0  0  0
   58.7920   31.3180   46.6980 S   0  0  0  0  0  0  0  0  0  0  0  0
   62.7840   33.8270   46.7710 C   0  0  0  0  0  0  0  0  0  0  0  0
   63.7710   33.8900   47.9410 C   0  0  0  0  0  0  0  0  0  0  0  0
   64.3720   30.3010   51.3440 C   0  0  0  0  0  0  0  0  0  0  0  0
   64.8690   29.0760   51.8230 C   0  0  0  0  0  0  0  0  0  0  0  0
   63.9090   28.0520   52.3700 C   0  0  0  0  0  0  0  0  0  0  0  0
   66.8424   27.5119   53.3649 H   0  0  0  0  0  0  0  0  0  0  0  0
   66.2245   26.6882   51.8932 H   0  0  0  0  0  0  0  0  0  0  0  0
   67.8676   27.4139   51.8932 H   0  0  0  0  0  0  0  0  0  0  0  0
   68.2060   29.6266   51.2327 H   0  0  0  0  0  0  0  0  0  0  0  0
   67.2970   31.7852   50.3873 H   0  0  0  0  0  0  0  0  0  0  0  0
   64.7650   32.0870   48.0370 H   0  0  0  0  0  0  0  0  0  0  0  0
   62.9080   30.9687   47.6937 H   0  0  0  0  0  0  0  0  0  0  0  0
   62.7893   31.1236   49.5078 H   0  0  0  0  0  0  0  0  0  0  0  0
   60.6560   31.6826   48.3238 H   0  0  0  0  0  0  0  0  0  0  0  0
   61.3220   33.0333   49.3055 H   0  0  0  0  0  0  0  0  0  0  0  0
   59.0823   33.6923   44.0142 H   0  0  0  0  0  0  0  0  0  0  0  0
   57.4860   32.3339   42.3195 H   0  0  0  0  0  0  0  0  0  0  0  0
   56.0756   30.2799   41.9890 H   0  0  0  0  0  0  0  0  0  0  0  0
   55.8484   28.5993   43.8279 H   0  0  0  0  0  0  0  0  0  0  0  0
   57.0313   28.9579   46.0207 H   0  0  0  0  0  0  0  0  0  0  0  0
   63.2028   33.1941   45.9748 H   0  0  0  0  0  0  0  0  0  0  0  0
   62.6126   34.8438   46.3878 H   0  0  0  0  0  0  0  0  0  0  0  0
   64.7336   34.2727   47.5710 H   0  0  0  0  0  0  0  0  0  0  0  0
   63.3417   34.5526   48.7069 H   0  0  0  0  0  0  0  0  0  0  0  0
   63.2913   30.5022   51.3832 H   0  0  0  0  0  0  0  0  0  0  0  0
   63.9329   28.0775   53.4694 H   0  0  0  0  0  0  0  0  0  0  0  0
   62.8913   28.2797   52.0200 H   0  0  0  0  0  0  0  0  0  0  0  0
   64.2018   27.0511   52.0200 H   0  0  0  0  0  0  0  0  0  0  0  0
  1  2  1  0
  2  3  2  0
  3  4  1  0
  4  5  2  0
  5  6  1  0
  6  7  2  0
  6  8  2  0
  6  9  1  0
  9 10  1  0
 10 11  1  0
 11 12  1  0
 12 13  1  0
 13 14  2  0
 13 15  1  0
 15 16  2  0
 16 17  1  0
 17 18  2  0
 18 19  1  0
 19 20  2  0
 20 21  1  0
 21 22  2  0
 22 23  1  0
 12 24  1  0
 24 25  1  0
  5 26  1  0
 26 27  2  0
 27 28  1  0
 27  2  1  0
 25  9  1  0
 23 15  1  0
 22 17  1  0
  1 29  1  0
  1 30  1  0
  1 31  1  0
  3 32  1  0
  4 33  1  0
  9 34  1  0
 10 35  1  0
 10 36  1  0
 11 37  1  0
 11 38  1  0
 16 39  1  0
 18 40  1  0
 19 41  1  0
 20 42  1  0
 21 43  1  0
 24 44  1  0
 24 45  1  0
 25 46  1  0
 25 47  1  0
 26 48  1  0
 28 49  1  0
 28 50  1  0
 28 51  1  0
M  CHG  1   9   1
M  END
>  <UniqueID>  (39) 
39

>  <SMILES>  (39) 
Cc1ccc(S(=O)(=O)[NH+]2CCN(C(=O)c3cc4ccccc4s3)CC2)cc1C

>  <Energy>  (39) 
94.79259708354628

>  <Genealogy>  (39) 
Cc1ccc(S(=O)(=O)[NH+]2CCN(C(=O)c3cc4ccccc4s3)CC2)cc1C (protonated)
Cc1ccc(S(=O)(=O)[NH+]2CCN(C(=O)c3cc4ccccc4s3)CC2)cc1C (3D coordinates assigned)
Cc1ccc(S(=O)(=O)[NH+]2CCN(C(=O)c3cc4ccccc4s3)CC2)cc1C (nonaromatic ring conformer: 94.79259708354628 kcal/mol)

>  <smiles>  (39) 
Cc1ccc(S(=O)(=O)N2CCN(C(=O)c3cc4ccccc4s3)CC2)cc1C

>  <score_type>  (39) 
oracle

>  <origin>  (39) 
adg

>  <m_score__min__energy>  (39) 
-7.6900000000000004

>  <m_primary>  (39) 
energy

$$$$
39:0
     RDKit          3D

 47 49  0  0  0  0  0  0  0  0999 V2000
   59.0610   34.6130   47.2830 C   0  0  0  0  0  0  0  0  0  0  0  0
   60.5770   34.6000   47.4470 C   0  0  0  0  0  0  0  0  0  0  0  0
   61.0420   33.2440   47.7320 N   0  0  0  0  0  0  0  0  0  0  0  0
   62.3130   32.8760   47.9900 C   0  0  0  0  0  0  0  0  0  0  0  0
   62.3790   31.5050   48.1450 C   0  0  0  0  0  0  0  0  0  0  0  0
   61.0930   31.0280   47.9550 C   0  0  0  0  0  0  0  0  0  0  0  0
   60.6630   29.6210   48.0480 C   0  0  0  0  0  0  0  0  0  0  0  0
   60.8530   28.9870   49.1210 O   0  0  0  0  0  0  0  0  0  0  0  0
   60.0020   28.9700   46.9510 N   0  0  0  0  0  0  0  0  0  0  0  0
   60.6540   28.8800   45.6390 C   0  0  0  0  0  0  0  0  0  0  0  0
   59.6290   29.0710   44.5060 C   0  0  0  0  0  0  0  0  0  0  0  0
   58.2790   28.5600   44.8480 N   0  0  0  0  0  0  0  0  0  0  0  0
   57.4410   28.2330   43.6710 C   0  0  0  0  0  0  0  0  0  0  0  0
   56.5960   29.4000   43.1070 C   0  0  0  0  0  0  0  0  0  0  0  0
   57.0460   30.7460   43.5990 C   0  0  0  0  0  0  0  0  0  0  0  0
   57.7540   31.6150   42.7550 C   0  0  0  0  0  0  0  0  0  0  0  0
   58.1370   32.8700   43.2350 C   0  0  0  0  0  0  0  0  0  0  0  0
   57.8090   33.2470   44.5390 C   0  0  0  0  0  0  0  0  0  0  0  0
   57.0990   32.3590   45.3480 C   0  0  0  0  0  0  0  0  0  0  0  0
   56.7350   31.1410   44.8660 N   0  0  0  0  0  0  0  0  0  0  0  0
   58.2550   27.5550   45.9250 C   0  0  0  0  0  0  0  0  0  0  0  0
   58.7960   28.1780   47.2140 C   0  0  0  0  0  0  0  0  0  0  0  0
   60.2910   32.1260   47.7060 C   0  0  0  0  0  0  0  0  0  0  0  0
   58.5849   34.6171   48.2746 H   0  0  0  0  0  0  0  0  0  0  0  0
   58.7599   35.5138   46.7280 H   0  0  0  0  0  0  0  0  0  0  0  0
   58.7445   33.7175   46.7280 H   0  0  0  0  0  0  0  0  0  0  0  0
   61.0460   34.9574   46.5184 H   0  0  0  0  0  0  0  0  0  0  0  0
   60.8532   35.2577   48.2843 H   0  0  0  0  0  0  0  0  0  0  0  0
   63.1683   33.5636   48.0657 H   0  0  0  0  0  0  0  0  0  0  0  0
   63.2755   30.9101   48.3740 H   0  0  0  0  0  0  0  0  0  0  0  0
   61.4242   29.6619   45.5644 H   0  0  0  0  0  0  0  0  0  0  0  0
   61.1095   27.8838   45.5387 H   0  0  0  0  0  0  0  0  0  0  0  0
   59.5502   30.1453   44.2831 H   0  0  0  0  0  0  0  0  0  0  0  0
   59.9873   28.4949   43.6401 H   0  0  0  0  0  0  0  0  0  0  0  0
   58.1063   27.8788   42.8698 H   0  0  0  0  0  0  0  0  0  0  0  0
   56.7191   27.4781   44.0160 H   0  0  0  0  0  0  0  0  0  0  0  0
   56.6689   29.3863   42.0095 H   0  0  0  0  0  0  0  0  0  0  0  0
   55.5623   29.2533   43.4534 H   0  0  0  0  0  0  0  0  0  0  0  0
   58.0045   31.3118   41.7277 H   0  0  0  0  0  0  0  0  0  0  0  0
   58.6963   33.5603   42.5865 H   0  0  0  0  0  0  0  0  0  0  0  0
   58.1071   34.2333   44.9242 H   0  0  0  0  0  0  0  0  0  0  0  0
   56.8336   32.6447   46.3766 H   0  0  0  0  0  0  0  0  0  0  0  0
   57.2213   27.2155   46.0872 H   0  0  0  0  0  0  0  0  0  0  0  0
   58.8816   26.6968   45.6406 H   0  0  0  0  0  0  0  0  0  0  0  0
   58.0249   28.8310   47.6488 H   0  0  0  0  0  0  0  0  0  0  0  0
   59.0547   27.3682   47.9120 H   0  0  0  0  0  0  0  0  0  0  0  0
   59.2080   32.0921   47.5162 H   0  0  0  0  0  0  0  0  0  0  0  0
  1  2  1  0
  2  3  1  0
  3  4  1  0
  4  5  2  0
  5  6  1  0
  6  7  1  0
  7  8  2  0
  7  9  1  0
  9 10  1  0
 10 11  1  0
 11 12  1  0
 12 13  1  0
 13 14  1  0
 14 15  1  0
 15 16  2  0
 16 17  1  0
 17 18  2  0
 18 19  1  0
 19 20  2  0
 12 21  1  0
 21 22  1  0
  6 23  2  0
 23  3  1  0
 22  9  1  0
 20 15  1  0
  1 24  1  0
  1 25  1  0
  1 26  1  0
  2 27  1  0
  2 28  1  0
  4 29  1  0
  5 30  1  0
 10 31  1  0
 10 32  1  0
 11 33  1  0
 11 34  1  0
 13 35  1  0
 13 36  1  0
 14 37  1  0
 14 38  1  0
 16 39  1  0
 17 40  1  0
 18 41  1  0
 19 42  1  0
 21 43  1  0
 21 44  1  0
 22 45  1  0
 22 46  1  0
 23 47  1  0
M  END
>  <UniqueID>  (40) 
40

>  <SMILES>  (40) 
CCn1ccc(C(=O)N2CCN(CCc3ccccn3)CC2)c1

>  <Energy>  (40) 
81.13939306514656

>  <Genealogy>  (40) 
CCn1ccc(C(=O)N2CCN(CCc3ccccn3)CC2)c1 (3D coordinates assigned)
CCn1ccc(C(=O)N2CCN(CCc3ccccn3)CC2)c1 (nonaromatic ring conformer: 81.13939306514656 kcal/mol)

>  <smiles>  (40) 
CCn1ccc(C(=O)N2CCN(CCc3ccccn3)CC2)c1

>  <score_type>  (40) 
oracle

>  <origin>  (40) 
adg

>  <m_score__min__energy>  (40) 
-7.4299999999999997

>  <m_primary>  (40) 
energy

$$$$
40:0
     RDKit          3D

 41 43  0  0  0  0  0  0  0  0999 V2000
   61.3670   30.5350   46.7080 O   0  0  0  0  0  0  0  0  0  0  0  0
   60.2710   30.2250   47.2500 C   0  0  0  0  0  0  0  0  0  0  0  0
   59.9910   28.7950   47.5810 C   0  0  0  0  0  0  0  0  0  0  0  0
   59.9760   27.7710   46.0670 S   0  0  0  0  0  0  0  0  0  0  0  0
   58.2340   28.0530   45.6910 C   0  0  0  0  0  0  0  0  0  0  0  0
   57.8810   29.2800   45.1190 C   0  0  0  0  0  0  0  0  0  0  0  0
   56.5440   29.5510   44.8320 C   0  0  0  0  0  0  0  0  0  0  0  0
   56.2170   30.6560   44.3270 O   0  0  0  0  0  0  0  0  0  0  0  0
   55.5920   28.6230   45.1010 N   0  0  0  0  0  0  0  0  0  0  0  0
   55.8940   27.4150   45.6430 C   0  0  0  0  0  0  0  0  0  0  0  0
   54.8670   26.5110   45.8890 O   0  0  0  0  0  0  0  0  0  0  0  0
   57.2320   27.0860   45.9490 C   0  0  0  0  0  0  0  0  0  0  0  0
   57.5550   25.7100   46.4970 C   0  0  0  0  0  0  0  0  0  0  0  0
   57.1200   24.6330   45.5360 C   0  0  0  0  0  0  0  0  0  0  0  0
   57.3210   24.7930   44.1550 C   0  0  0  0  0  0  0  0  0  0  0  0
   56.9130   23.7980   43.2630 C   0  0  0  0  0  0  0  0  0  0  0  0
   56.3000   22.6370   43.7420 C   0  0  0  0  0  0  0  0  0  0  0  0
   55.8960   21.6470   42.8540 O   0  0  0  0  0  0  0  0  0  0  0  0
   56.0920   22.4700   45.1130 C   0  0  0  0  0  0  0  0  0  0  0  0
   56.5000   23.4640   46.0090 C   0  0  0  0  0  0  0  0  0  0  0  0
   59.2490   31.2070   47.4580 N   0  0  0  0  0  0  0  0  0  0  0  0
   59.0720   32.4200   46.7150 C   0  0  0  0  0  0  0  0  0  0  0  0
   57.9250   32.6590   45.9350 C   0  0  0  0  0  0  0  0  0  0  0  0
   57.8010   33.8510   45.2150 C   0  0  0  0  0  0  0  0  0  0  0  0
   58.8190   34.8070   45.2590 C   0  0  0  0  0  0  0  0  0  0  0  0
   59.9690   34.5660   46.0140 C   0  0  0  0  0  0  0  0  0  0  0  0
   60.0990   33.3730   46.7320 C   0  0  0  0  0  0  0  0  0  0  0  0
   60.7713   28.4225   48.2609 H   0  0  0  0  0  0  0  0  0  0  0  0
   59.0033   28.7304   48.0609 H   0  0  0  0  0  0  0  0  0  0  0  0
   58.6558   30.0284   44.8965 H   0  0  0  0  0  0  0  0  0  0  0  0
   58.6403   25.6321   46.6581 H   0  0  0  0  0  0  0  0  0  0  0  0
   57.0152   25.5737   47.4457 H   0  0  0  0  0  0  0  0  0  0  0  0
   57.8019   25.7060   43.7740 H   0  0  0  0  0  0  0  0  0  0  0  0
   57.0744   23.9286   42.1828 H   0  0  0  0  0  0  0  0  0  0  0  0
   55.6073   21.5567   45.4884 H   0  0  0  0  0  0  0  0  0  0  0  0
   56.3348   23.3299   47.0882 H   0  0  0  0  0  0  0  0  0  0  0  0
   57.1242   31.9061   45.8918 H   0  0  0  0  0  0  0  0  0  0  0  0
   56.8997   34.0367   44.6123 H   0  0  0  0  0  0  0  0  0  0  0  0
   58.7148   35.7484   44.6996 H   0  0  0  0  0  0  0  0  0  0  0  0
   60.7735   35.3156   46.0439 H   0  0  0  0  0  0  0  0  0  0  0  0
   61.0129   33.1817   47.3135 H   0  0  0  0  0  0  0  0  0  0  0  0
  1  2  2  0
  2  3  1  0
  3  4  1  0
  4  5  1  0
  5  6  2  0
  6  7  1  0
  7  8  2  0
  7  9  1  0
  9 10  1  0
 10 11  1  0
 10 12  2  0
 12 13  1  0
 13 14  1  0
 14 15  2  0
 15 16  1  0
 16 17  2  0
 17 18  1  0
 17 19  1  0
 19 20  2  0
  2 21  1  0
 21 22  1  0
 22 23  2  0
 23 24  1  0
 24 25  2  0
 25 26  1  0
 26 27  2  0
 12  5  1  0
 20 14  1  0
 27 22  1  0
  3 28  1  0
  3 29  1  0
  6 30  1  0
 13 31  1  0
 13 32  1  0
 15 33  1  0
 16 34  1  0
 19 35  1  0
 20 36  1  0
 23 37  1  0
 24 38  1  0
 25 39  1  0
 26 40  1  0
 27 41  1  0
M  CHG  4   9  -1  11  -1  18  -1  21  -1
M  END
>  <UniqueID>  (41) 
41

>  <SMILES>  (41) 
O=C(CSc1cc(=O)[n-]c([O-])c1Cc1ccc([O-])cc1)[N-]c1ccccc1

>  <Energy>  (41) 
43.69418018520335

>  <Genealogy>  (41) 
O=C(CSc1cc(=O)[n-]c([O-])c1Cc1ccc([O-])cc1)[N-]c1ccccc1 (protonated)
O=C(CSc1cc(=O)[n-]c([O-])c1Cc1ccc([O-])cc1)[N-]c1ccccc1 (3D coordinates assigned)
O=C(CSc1cc(=O)[n-]c([O-])c1Cc1ccc([O-])cc1)[N-]c1ccccc1 (optimized conformer: 43.69418018520335 kcal/mol)

>  <smiles>  (41) 
O=C(CSc1cc(=O)[nH]c(O)c1Cc1ccc(O)cc1)Nc1ccccc1

>  <score_type>  (41) 
oracle

>  <origin>  (41) 
adg

>  <m_score__min__energy>  (41) 
-17.199999999999999

>  <m_primary>  (41) 
energy

$$$$
41:0
     RDKit          3D

 53 56  0  0  0  0  0  0  0  0999 V2000
   50.6600   29.6130   48.9990 H   0  0  0  0  0  0  0  0  0  0  0  0
   51.5240   30.0530   49.2890 O   0  0  0  0  0  0  0  0  0  0  0  0
   51.5880   30.8730   50.4130 C   0  0  0  0  0  0  0  0  0  0  0  0
   50.8240   31.9650   50.5690 N   0  0  0  0  0  0  0  0  0  0  0  0
   51.1660   32.3980   51.8010 C   0  0  0  0  0  0  0  0  0  0  0  0
   50.6500   33.4160   52.3280 O   0  0  0  0  0  0  0  0  0  0  0  0
   52.0950   31.6450   52.4280 N   0  0  0  0  0  0  0  0  0  0  0  0
   52.3820   30.6890   51.5290 C   0  0  0  0  0  0  0  0  0  0  0  0
   53.3050   29.5720   51.8080 C   0  0  0  0  0  0  0  0  0  0  0  0
   52.9401   28.5592   51.5821 H   0  0  0  0  0  0  0  0  0  0  0  0
   54.5600   29.6710   52.3160 C   0  0  0  0  0  0  0  0  0  0  0  0
   55.4170   30.6100   51.7010 C   0  0  0  0  0  0  0  0  0  0  0  0
   55.1056   31.0860   50.7595 H   0  0  0  0  0  0  0  0  0  0  0  0
   56.6550   30.9490   52.2630 C   0  0  0  0  0  0  0  0  0  0  0  0
   57.4930   31.9890   51.6270 C   0  0  0  0  0  0  0  0  0  0  0  0
   57.4350   33.1670   52.0740 O   0  0  0  0  0  0  0  0  0  0  0  0
   58.3970   31.6760   50.5450 N   0  0  0  0  0  0  0  0  0  0  0  0
   58.9990   30.3380   50.4470 C   0  0  0  0  0  0  0  0  0  0  0  0
   59.1711   29.9498   51.4618 H   0  0  0  0  0  0  0  0  0  0  0  0
   58.3061   29.6915   49.8885 H   0  0  0  0  0  0  0  0  0  0  0  0
   60.3380   30.3680   49.6920 C   0  0  0  0  0  0  0  0  0  0  0  0
   60.8851   29.4347   49.8912 H   0  0  0  0  0  0  0  0  0  0  0  0
   60.1334   30.4703   48.6160 H   0  0  0  0  0  0  0  0  0  0  0  0
   61.2050   31.5750   50.1510 C   0  0  0  0  0  0  0  0  0  0  0  0
   61.4021   31.4412   51.2249 H   0  0  0  0  0  0  0  0  0  0  0  0
   62.5330   31.6250   49.4660 N   0  0  0  0  0  0  0  0  0  0  0  0
   62.4080   31.5650   47.9820 C   0  0  0  0  0  0  0  0  0  0  0  0
   63.0997   30.7994   47.6007 H   0  0  0  0  0  0  0  0  0  0  0  0
   61.3621   31.3203   47.7449 H   0  0  0  0  0  0  0  0  0  0  0  0
   62.7380   32.9090   47.3060 C   0  0  0  0  0  0  0  0  0  0  0  0
   62.6305   32.7890   46.2179 H   0  0  0  0  0  0  0  0  0  0  0  0
   62.0409   33.6583   47.7093 H   0  0  0  0  0  0  0  0  0  0  0  0
   64.0530   33.3640   47.5820 O   0  0  0  0  0  0  0  0  0  0  0  0
   64.5050   33.0380   48.8890 C   0  0  0  0  0  0  0  0  0  0  0  0
   65.1317   32.1364   48.8227 H   0  0  0  0  0  0  0  0  0  0  0  0
   65.0573   33.9137   49.2607 H   0  0  0  0  0  0  0  0  0  0  0  0
   63.3740   32.7670   49.8970 C   0  0  0  0  0  0  0  0  0  0  0  0
   63.8153   32.5373   50.8780 H   0  0  0  0  0  0  0  0  0  0  0  0
   62.7393   33.6634   49.9571 H   0  0  0  0  0  0  0  0  0  0  0  0
   60.4280   32.9130   49.9170 C   0  0  0  0  0  0  0  0  0  0  0  0
   60.5662   33.5504   50.8028 H   0  0  0  0  0  0  0  0  0  0  0  0
   60.8397   33.3584   48.9993 H   0  0  0  0  0  0  0  0  0  0  0  0
   58.9200   32.7390   49.6810 C   0  0  0  0  0  0  0  0  0  0  0  0
   58.4039   33.6827   49.9113 H   0  0  0  0  0  0  0  0  0  0  0  0
   58.7480   32.4670   48.6291 H   0  0  0  0  0  0  0  0  0  0  0  0
   57.0800   30.3030   53.4250 C   0  0  0  0  0  0  0  0  0  0  0  0
   58.0383   30.5830   53.8867 H   0  0  0  0  0  0  0  0  0  0  0  0
   56.2990   29.3070   54.0030 C   0  0  0  0  0  0  0  0  0  0  0  0
   56.6519   28.8047   54.9158 H   0  0  0  0  0  0  0  0  0  0  0  0
   55.0640   28.9310   53.4390 C   0  0  0  0  0  0  0  0  0  0  0  0
   54.4800   27.8190   53.9220 C   0  0  0  0  0  0  0  0  0  0  0  0
   53.5148   27.4834   53.5147 H   0  0  0  0  0  0  0  0  0  0  0  0
   54.9678   27.2456   54.7241 H   0  0  0  0  0  0  0  0  0  0  0  0
  1  2  1  0
  2  3  1  0
  3  4  1  0
  4  5  1  0
  5  6  2  0
  5  7  1  0
  7  8  1  0
  8  9  1  0
  9 10  1  0
  9 11  2  0
 11 12  1  0
 12 13  1  0
 12 14  2  0
 14 15  1  0
 15 16  2  0
 15 17  1  0
 17 18  1  0
 18 19  1  0
 18 20  1  0
 18 21  1  0
 21 22  1  0
 21 23  1  0
 21 24  1  0
 24 25  1  0
 24 26  1  0
 26 27  1  0
 27 28  1  0
 27 29  1  0
 27 30  1  0
 30 31  1  0
 30 32  1  0
 30 33  1  0
 33 34  1  0
 34 35  1  0
 34 36  1  0
 34 37  1  0
 37 38  1  0
 37 39  1  0
 24 40  1  0
 40 41  1  0
 40 42  1  0
 40 43  1  0
 43 44  1  0
 43 45  1  0
 14 46  1  0
 46 47  1  0
 46 48  2  0
 48 49  1  0
 48 50  1  0
 50 51  2  0
 51 52  1  0
 51 53  1  0
  8  3  2  0
 50 11  1  0
 43 17  1  0
 37 26  1  0
M  CHG  2   4  -1   7  -1
M  END
>  <UniqueID>  (42) 
42

>  <SMILES>  (42) 
C=c1ccc(C(=O)N2CCC(N3CCOCC3)CC2)c/c1=C/c1[n-]c(=O)[n-]c1O

>  <Energy>  (42) 
133.19794141601378

>  <Genealogy>  (42) 
C=c1ccc(C(=O)N2CCC(N3CCOCC3)CC2)cc1=Cc1[n-]c(=O)[n-]c1O (protonated)
C=c1ccc(C(=O)N2CCC(N3CCOCC3)CC2)c/c1=C/c1[n-]c(=O)[n-]c1O (cis-trans isomerization)
C=c1ccc(C(=O)N2CCC(N3CCOCC3)CC2)c/c1=C/c1[n-]c(=O)[n-]c1O (3D coordinates assigned)
C=c1ccc(C(=O)N2CCC(N3CCOCC3)CC2)c/c1=C/c1[n-]c(=O)[n-]c1O (nonaromatic ring conformer: 133.19794141601378 kcal/mol)

>  <smiles>  (42) 
C=c1ccc(C(=O)N2CCC(N3CCOCC3)CC2)cc1=Cc1[nH]c(=O)[nH]c1O

>  <score_type>  (42) 
oracle

>  <origin>  (42) 
adg

>  <m_score__min__energy>  (42) 
-13.699999999999999

>  <m_primary>  (42) 
energy

$$$$
42:0
     RDKit          3D

 44 46  0  0  0  0  0  0  0  0999 V2000
   54.6200   25.9410   46.3960 H   0  0  0  0  0  0  0  0  0  0  0  0
   55.1400   26.7300   46.0310 O   0  0  0  0  0  0  0  0  0  0  0  0
   56.5340   26.7550   46.0040 C   0  0  0  0  0  0  0  0  0  0  0  0
   57.1810   27.9400   45.6380 C   0  0  0  0  0  0  0  0  0  0  0  0
   56.5863   28.8227   45.3604 H   0  0  0  0  0  0  0  0  0  0  0  0
   58.5790   28.0120   45.6220 C   0  0  0  0  0  0  0  0  0  0  0  0
   59.2400   29.2750   45.2330 C   0  0  0  0  0  0  0  0  0  0  0  0
   60.2529   29.4598   45.6201 H   0  0  0  0  0  0  0  0  0  0  0  0
   58.6960   30.2140   44.4420 C   0  0  0  0  0  0  0  0  0  0  0  0
   59.0969   30.3076   43.4220 H   0  0  0  0  0  0  0  0  0  0  0  0
   57.6040   31.1320   44.8270 C   0  0  0  0  0  0  0  0  0  0  0  0
   56.4190   30.7050   44.7870 O   0  0  0  0  0  0  0  0  0  0  0  0
   57.8860   32.4670   45.4010 C   0  0  0  0  0  0  0  0  0  0  0  0
   57.1736   33.2754   45.1797 H   0  0  0  0  0  0  0  0  0  0  0  0
   58.9430   32.7670   46.1700 C   0  0  0  0  0  0  0  0  0  0  0  0
   59.8460   34.2990   45.8900 S   0  0  0  0  0  0  0  0  0  0  0  0
   61.2710   33.4330   46.5320 C   0  0  0  0  0  0  0  0  0  0  0  0
   62.5790   33.9190   46.4980 C   0  0  0  0  0  0  0  0  0  0  0  0
   62.8036   34.8852   46.0225 H   0  0  0  0  0  0  0  0  0  0  0  0
   63.6020   33.1570   47.0790 C   0  0  0  0  0  0  0  0  0  0  0  0
   64.6383   33.5255   47.0604 H   0  0  0  0  0  0  0  0  0  0  0  0
   63.3080   31.9240   47.6850 C   0  0  0  0  0  0  0  0  0  0  0  0
   64.1144   31.3318   48.1422 H   0  0  0  0  0  0  0  0  0  0  0  0
   61.9910   31.4460   47.7090 C   0  0  0  0  0  0  0  0  0  0  0  0
   61.7563   30.4800   48.1800 H   0  0  0  0  0  0  0  0  0  0  0  0
   60.9770   32.2170   47.1240 C   0  0  0  0  0  0  0  0  0  0  0  0
   59.6050   31.8350   47.0380 N   0  0  0  0  0  0  0  0  0  0  0  0
   58.9190   31.1690   48.1550 C   0  0  0  0  0  0  0  0  0  0  0  0
   59.5787   30.3943   48.5729 H   0  0  0  0  0  0  0  0  0  0  0  0
   57.9889   30.7178   47.7789 H   0  0  0  0  0  0  0  0  0  0  0  0
   58.5680   32.1720   49.2510 C   0  0  0  0  0  0  0  0  0  0  0  0
   58.7296   31.7101   50.2362 H   0  0  0  0  0  0  0  0  0  0  0  0
   59.2085   33.0610   49.1533 H   0  0  0  0  0  0  0  0  0  0  0  0
   57.5130   32.4676   49.1533 H   0  0  0  0  0  0  0  0  0  0  0  0
   59.3310   26.8650   45.9190 C   0  0  0  0  0  0  0  0  0  0  0  0
   60.4290   26.9013   45.8639 H   0  0  0  0  0  0  0  0  0  0  0  0
   58.6930   25.6780   46.2840 C   0  0  0  0  0  0  0  0  0  0  0  0
   59.2916   24.7887   46.5307 H   0  0  0  0  0  0  0  0  0  0  0  0
   57.2870   25.6130   46.3380 C   0  0  0  0  0  0  0  0  0  0  0  0
   56.6130   24.4400   46.7140 O   0  0  0  0  0  0  0  0  0  0  0  0
   56.7000   23.8370   48.0000 C   0  0  0  0  0  0  0  0  0  0  0  0
   56.5886   24.6093   48.7754 H   0  0  0  0  0  0  0  0  0  0  0  0
   55.9004   23.0896   48.1094 H   0  0  0  0  0  0  0  0  0  0  0  0
   57.6783   23.3461   48.1094 H   0  0  0  0  0  0  0  0  0  0  0  0
  1  2  1  0
  2  3  1  0
  3  4  2  0
  4  5  1  0
  4  6  1  0
  6  7  1  0
  7  8  1  0
  7  9  2  0
  9 10  1  0
  9 11  1  0
 11 12  2  0
 11 13  1  0
 13 14  1  0
 13 15  2  0
 15 16  1  0
 16 17  1  0
 17 18  2  0
 18 19  1  0
 18 20  1  0
 20 21  1  0
 20 22  2  0
 22 23  1  0
 22 24  1  0
 24 25  1  0
 24 26  2  0
 26 27  1  0
 27 28  1  0
 28 29  1  0
 28 30  1  0
 28 31  1  0
 31 32  1  0
 31 33  1  0
 31 34  1  0
  6 35  2  0
 35 36  1  0
 35 37  1  0
 37 38  1  0
 37 39  2  0
 39 40  1  0
 40 41  1  0
 41 42  1  0
 41 43  1  0
 41 44  1  0
 39  3  1  0
 27 15  1  0
 26 17  1  0
M  END
>  <UniqueID>  (43) 
43

>  <SMILES>  (43) 
CCN1/C(=C\C(=O)/C=C\c2ccc(OC)c(O)c2)Sc2ccccc21

>  <Energy>  (43) 
78.36819769643095

>  <Genealogy>  (43) 
CCN1/C(=C\C(=O)/C=C\c2ccc(OC)c(O)c2)Sc2ccccc21 (cis-trans isomerization)
CCN1/C(=C\C(=O)/C=C\c2ccc(OC)c(O)c2)Sc2ccccc21 (3D coordinates assigned)
CCN1/C(=C\C(=O)/C=C\c2ccc(OC)c(O)c2)Sc2ccccc21 (nonaromatic ring conformer: 78.36819769643095 kcal/mol)

>  <smiles>  (43) 
CCN1C(=CC(=O)C=Cc2ccc(OC)c(O)c2)Sc2ccccc21

>  <score_type>  (43) 
oracle

>  <origin>  (43) 
adg

>  <m_score__min__energy>  (43) 
-9.4399999999999995

>  <m_primary>  (43) 
energy

$$$$
43:0
     RDKit          3D

 49 51  0  0  0  0  0  0  0  0999 V2000
   61.9170   34.0790   50.5080 C   0  0  0  0  0  0  0  0  0  0  0  0
   62.3870   33.2150   49.3760 C   0  0  0  0  0  0  0  0  0  0  0  0
   63.4930   32.6200   49.4910 O   0  0  0  0  0  0  0  0  0  0  0  0
   61.6090   33.0700   48.1670 N   0  0  0  0  0  0  0  0  0  0  0  0
   61.9990   32.0750   47.1550 C   0  0  0  0  0  0  0  0  0  0  0  0
   60.7530   31.4240   46.5430 C   0  0  0  0  0  0  0  0  0  0  0  0
   59.7560   32.4280   46.1410 N   0  0  0  0  0  0  0  0  0  0  0  0
   58.7330   32.0680   45.1930 C   0  0  0  0  0  0  0  0  0  0  0  0
   58.4800   32.8430   44.2310 O   0  0  0  0  0  0  0  0  0  0  0  0
   57.9730   30.8050   45.3230 C   0  0  0  0  0  0  0  0  0  0  0  0
   56.8480   30.5610   44.5180 C   0  0  0  0  0  0  0  0  0  0  0  0
   56.1420   29.3600   44.6370 C   0  0  0  0  0  0  0  0  0  0  0  0
   56.5700   28.3760   45.5350 C   0  0  0  0  0  0  0  0  0  0  0  0
   55.8220   27.1600   45.6530 N   0  0  0  0  0  0  0  0  0  0  0  0
   56.3750   25.8370   45.6100 C   0  0  0  0  0  0  0  0  0  0  0  0
   55.9010   24.9580   46.3760 O   0  0  0  0  0  0  0  0  0  0  0  0
   57.4090   25.4430   44.5850 C   0  0  0  0  0  0  0  0  0  0  0  0
   57.4950   23.9470   44.4120 C   0  0  0  0  0  0  0  0  0  0  0  0
   56.6920   23.2920   43.4650 C   0  0  0  0  0  0  0  0  0  0  0  0
   56.8010   21.9080   43.3050 C   0  0  0  0  0  0  0  0  0  0  0  0
   57.6860   21.1990   44.0580 N   0  0  0  0  0  0  0  0  0  0  0  0
   58.4860   21.8100   44.9730 C   0  0  0  0  0  0  0  0  0  0  0  0
   58.4110   23.1930   45.1620 C   0  0  0  0  0  0  0  0  0  0  0  0
   57.6830   28.6220   46.3500 C   0  0  0  0  0  0  0  0  0  0  0  0
   58.3890   29.8210   46.2350 C   0  0  0  0  0  0  0  0  0  0  0  0
   59.9670   33.8440   46.4620 C   0  0  0  0  0  0  0  0  0  0  0  0
   60.4950   33.9930   47.8930 C   0  0  0  0  0  0  0  0  0  0  0  0
   62.1762   33.6026   51.4650 H   0  0  0  0  0  0  0  0  0  0  0  0
   62.4040   35.0633   50.4447 H   0  0  0  0  0  0  0  0  0  0  0  0
   60.8261   34.2049   50.4447 H   0  0  0  0  0  0  0  0  0  0  0  0
   62.5763   32.5715   46.3612 H   0  0  0  0  0  0  0  0  0  0  0  0
   62.6110   31.2969   47.6346 H   0  0  0  0  0  0  0  0  0  0  0  0
   61.0523   30.8444   45.6573 H   0  0  0  0  0  0  0  0  0  0  0  0
   60.2970   30.7739   47.3042 H   0  0  0  0  0  0  0  0  0  0  0  0
   56.5209   31.3184   43.7905 H   0  0  0  0  0  0  0  0  0  0  0  0
   55.2463   29.1880   44.0221 H   0  0  0  0  0  0  0  0  0  0  0  0
   57.1421   25.8970   43.6193 H   0  0  0  0  0  0  0  0  0  0  0  0
   58.3881   25.8002   44.9368 H   0  0  0  0  0  0  0  0  0  0  0  0
   55.9807   23.8651   42.8521 H   0  0  0  0  0  0  0  0  0  0  0  0
   56.1696   21.3899   42.5682 H   0  0  0  0  0  0  0  0  0  0  0  0
   57.7540   20.1650   43.9280 H   0  0  0  0  0  0  0  0  0  0  0  0
   59.1946   21.2135   45.5664 H   0  0  0  0  0  0  0  0  0  0  0  0
   59.0661   23.6876   45.8943 H   0  0  0  0  0  0  0  0  0  0  0  0
   58.0019   27.8670   47.0837 H   0  0  0  0  0  0  0  0  0  0  0  0
   59.2757   29.9960   46.8619 H   0  0  0  0  0  0  0  0  0  0  0  0
   60.6982   34.2701   45.7594 H   0  0  0  0  0  0  0  0  0  0  0  0
   59.0081   34.3764   46.3776 H   0  0  0  0  0  0  0  0  0  0  0  0
   60.8454   35.0257   48.0369 H   0  0  0  0  0  0  0  0  0  0  0  0
   59.6749   33.7520   48.5854 H   0  0  0  0  0  0  0  0  0  0  0  0
  1  2  1  0
  2  3  2  0
  2  4  1  0
  4  5  1  0
  5  6  1  0
  6  7  1  0
  7  8  1  0
  8  9  2  0
  8 10  1  0
 10 11  2  0
 11 12  1  0
 12 13  2  0
 13 14  1  0
 14 15  1  0
 15 16  2  0
 15 17  1  0
 17 18  1  0
 18 19  2  0
 19 20  1  0
 20 21  2  0
 21 22  1  0
 22 23  2  0
 13 24  1  0
 24 25  2  0
  7 26  1  0
 26 27  1  0
 27  4  1  0
 25 10  1  0
 23 18  1  0
  1 28  1  0
  1 29  1  0
  1 30  1  0
  5 31  1  0
  5 32  1  0
  6 33  1  0
  6 34  1  0
 11 35  1  0
 12 36  1  0
 17 37  1  0
 17 38  1  0
 19 39  1  0
 20 40  1  0
 21 41  1  0
 22 42  1  0
 23 43  1  0
 24 44  1  0
 25 45  1  0
 26 46  1  0
 26 47  1  0
 27 48  1  0
 27 49  1  0
M  CHG  2  14  -1  21   1
M  END
>  <UniqueID>  (44) 
44

>  <SMILES>  (44) 
CC(=O)N1CCN(C(=O)c2ccc([N-]C(=O)Cc3cc[nH+]cc3)cc2)CC1

>  <Energy>  (44) 
58.648163746968514

>  <Genealogy>  (44) 
CC(=O)N1CCN(C(=O)c2ccc([N-]C(=O)Cc3cc[nH+]cc3)cc2)CC1 (protonated)
CC(=O)N1CCN(C(=O)c2ccc([N-]C(=O)Cc3cc[nH+]cc3)cc2)CC1 (3D coordinates assigned)
CC(=O)N1CCN(C(=O)c2ccc([N-]C(=O)Cc3cc[nH+]cc3)cc2)CC1 (nonaromatic ring conformer: 58.648163746968514 kcal/mol)

>  <smiles>  (44) 
CC(=O)N1CCN(C(=O)c2ccc(NC(=O)Cc3ccncc3)cc2)CC1

>  <score_type>  (44) 
oracle

>  <origin>  (44) 
adg

>  <m_score__min__energy>  (44) 
-8.9499999999999993

>  <m_primary>  (44) 
energy

$$$$
44:0
     RDKit          3D

 52 55  0  0  0  0  0  0  0  0999 V2000
   55.9070   29.6390   45.9730 H   0  0  0  0  0  0  0  0  0  0  0  0
   56.0290   28.9110   45.2810 O   0  0  0  0  0  0  0  0  0  0  0  0
   56.2730   27.5970   45.6710 C   0  0  0  0  0  0  0  0  0  0  0  0
   55.3110   26.7170   45.9910 N   0  0  0  0  0  0  0  0  0  0  0  0
   56.0160   25.6180   46.3400 C   0  0  0  0  0  0  0  0  0  0  0  0
   55.4690   24.5460   46.7130 O   0  0  0  0  0  0  0  0  0  0  0  0
   57.3550   25.7600   46.2670 N   0  0  0  0  0  0  0  0  0  0  0  0
   57.5110   27.0180   45.8090 C   0  0  0  0  0  0  0  0  0  0  0  0
   58.8010   27.7230   45.7070 C   0  0  0  0  0  0  0  0  0  0  0  0
   59.6032   27.2229   45.1446 H   0  0  0  0  0  0  0  0  0  0  0  0
   59.0840   28.9280   46.2430 C   0  0  0  0  0  0  0  0  0  0  0  0
   59.0410   30.1050   45.5140 C   0  0  0  0  0  0  0  0  0  0  0  0
   58.8618   30.1988   44.4328 H   0  0  0  0  0  0  0  0  0  0  0  0
   59.2670   31.1440   46.4070 C   0  0  0  0  0  0  0  0  0  0  0  0
   59.3390   32.5900   46.0720 C   0  0  0  0  0  0  0  0  0  0  0  0
   58.2850   33.1420   45.3190 C   0  0  0  0  0  0  0  0  0  0  0  0
   57.4787   32.4897   44.9525 H   0  0  0  0  0  0  0  0  0  0  0  0
   58.2520   34.5050   45.0330 C   0  0  0  0  0  0  0  0  0  0  0  0
   57.4193   34.9219   44.4475 H   0  0  0  0  0  0  0  0  0  0  0  0
   59.2680   35.3410   45.4850 C   0  0  0  0  0  0  0  0  0  0  0  0
   59.2316   36.4182   45.2651 H   0  0  0  0  0  0  0  0  0  0  0  0
   60.3290   34.8170   46.2140 C   0  0  0  0  0  0  0  0  0  0  0  0
   61.1273   35.4858   46.5680 H   0  0  0  0  0  0  0  0  0  0  0  0
   60.3950   33.4420   46.5050 C   0  0  0  0  0  0  0  0  0  0  0  0
   61.5940   32.9460   47.2220 C   0  0  0  0  0  0  0  0  0  0  0  0
   62.7290   32.9910   46.6760 O   0  0  0  0  0  0  0  0  0  0  0  0
   61.4680   32.4560   48.5610 N   0  0  0  0  0  0  0  0  0  0  0  0
   61.1610   33.3090   49.7060 C   0  0  1  0  0  0  0  0  0  0  0  0
   61.4897   34.3372   49.4943 H   0  0  0  0  0  0  0  0  0  0  0  0
   59.6470   33.3050   49.9500 C   0  0  0  0  0  0  0  0  0  0  0  0
   59.1436   33.6899   49.0509 H   0  0  0  0  0  0  0  0  0  0  0  0
   59.4477   33.9384   50.8270 H   0  0  0  0  0  0  0  0  0  0  0  0
   59.1230   31.9470   50.2450 N   0  0  0  0  0  0  0  0  0  0  0  0
   57.8210   32.0440   50.9220 C   0  0  0  0  0  0  0  0  0  0  0  0
   57.9725   32.0327   52.0115 H   0  0  0  0  0  0  0  0  0  0  0  0
   57.3251   32.9816   50.6304 H   0  0  0  0  0  0  0  0  0  0  0  0
   57.1916   31.1903   50.6304 H   0  0  0  0  0  0  0  0  0  0  0  0
   60.0580   31.0810   51.0060 C   0  0  0  0  0  0  0  0  0  0  0  0
   60.6195   30.4583   50.2939 H   0  0  0  0  0  0  0  0  0  0  0  0
   59.4577   30.4696   51.6958 H   0  0  0  0  0  0  0  0  0  0  0  0
   61.0570   31.8850   51.8490 C   0  0  0  0  0  0  0  0  0  0  0  0
   61.7170   31.1874   52.3854 H   0  0  0  0  0  0  0  0  0  0  0  0
   60.4922   32.5077   52.5584 H   0  0  0  0  0  0  0  0  0  0  0  0
   61.9150   32.8090   50.9650 C   0  0  0  0  0  0  0  0  0  0  0  0
   62.8089   32.2552   50.6421 H   0  0  0  0  0  0  0  0  0  0  0  0
   62.1762   33.6923   51.5663 H   0  0  0  0  0  0  0  0  0  0  0  0
   59.5180   30.6490   47.6370 N   0  0  0  0  0  0  0  0  0  0  0  0
   59.7730   31.2070   48.4910 H   0  0  0  0  0  0  0  0  0  0  0  0
   59.4360   29.2990   47.5490 C   0  0  0  0  0  0  0  0  0  0  0  0
   59.8070   28.5100   48.5630 C   0  0  0  0  0  0  0  0  0  0  0  0
   59.7304   27.4170   48.4659 H   0  0  0  0  0  0  0  0  0  0  0  0
   60.1887   28.9540   49.4942 H   0  0  0  0  0  0  0  0  0  0  0  0
  1  2  1  0
  2  3  1  0
  3  4  1  0
  4  5  1  0
  5  6  2  0
  5  7  1  0
  7  8  1  0
  8  9  1  0
  9 10  1  0
  9 11  2  0
 11 12  1  0
 12 13  1  0
 12 14  2  0
 14 15  1  0
 15 16  2  0
 16 17  1  0
 16 18  1  0
 18 19  1  0
 18 20  2  0
 20 21  1  0
 20 22  1  0
 22 23  1  0
 22 24  2  0
 24 25  1  0
 25 26  2  0
 25 27  1  0
 27 28  1  0
 28 29  1  6
 28 30  1  0
 30 31  1  0
 30 32  1  0
 30 33  1  0
 33 34  1  0
 34 35  1  0
 34 36  1  0
 34 37  1  0
 33 38  1  0
 38 39  1  0
 38 40  1  0
 38 41  1  0
 41 42  1  0
 41 43  1  0
 41 44  1  0
 44 45  1  0
 44 46  1  0
 14 47  1  0
 47 48  1  0
 47 49  1  0
 49 50  2  0
 50 51  1  0
 50 52  1  0
  8  3  2  0
 49 11  1  0
 24 15  1  0
 44 28  1  0
M  CHG  3   4  -1   7  -1  27  -1
M  END
>  <UniqueID>  (45) 
45

>  <SMILES>  (45) 
C=c1[nH]c(-c2ccccc2C(=O)[N-][C@@H]2CCCN(C)C2)c/c1=C/c1[n-]c(=O)[n-]c1O

>  <Energy>  (45) 
138.15570635949265

>  <Genealogy>  (45) 
C=c1[nH]c(-c2ccccc2C(=O)[N-]C2CCCN(C)C2)cc1=Cc1[n-]c(=O)[n-]c1O (protonated)
C=c1[nH]c(-c2ccccc2C(=O)[N-][C@@H]2CCCN(C)C2)cc1=Cc1[n-]c(=O)[n-]c1O (chirality)
C=c1[nH]c(-c2ccccc2C(=O)[N-][C@@H]2CCCN(C)C2)c/c1=C/c1[n-]c(=O)[n-]c1O (cis-trans isomerization)
C=c1[nH]c(-c2ccccc2C(=O)[N-][C@@H]2CCCN(C)C2)c/c1=C/c1[n-]c(=O)[n-]c1O (3D coordinates assigned)
C=c1[nH]c(-c2ccccc2C(=O)[N-][C@@H]2CCCN(C)C2)c/c1=C/c1[n-]c(=O)[n-]c1O (nonaromatic ring conformer: 138.15570635949265 kcal/mol)

>  <smiles>  (45) 
C=c1[nH]c(-c2ccccc2C(=O)NC2CCCN(C)C2)cc1=Cc1[nH]c(=O)[nH]c1O

>  <score_type>  (45) 
oracle

>  <origin>  (45) 
adg

>  <m_score__min__energy>  (45) 
-15.050000000000001

>  <m_primary>  (45) 
energy

$$$$
45:0
     RDKit          3D

 53 56  0  0  0  0  0  0  0  0999 V2000
   57.9380   26.1790   53.7700 O   0  0  0  0  0  0  0  0  0  0  0  0
   57.7650   27.4290   53.8040 C   0  0  0  0  0  0  0  0  0  0  0  0
   56.3850   27.9320   53.9900 C   0  0  0  0  0  0  0  0  0  0  0  0
   55.5190   27.5410   54.9930 C   0  0  0  0  0  0  0  0  0  0  0  0
   54.3580   28.2570   54.7940 C   0  0  0  0  0  0  0  0  0  0  0  0
   54.5840   29.0390   53.6730 C   0  0  0  0  0  0  0  0  0  0  0  0
   53.6400   29.9850   53.0400 C   0  0  0  0  0  0  0  0  0  0  0  0
   53.9180   30.4850   51.7560 C   0  0  0  0  0  0  0  0  0  0  0  0
   53.0470   31.3920   51.1450 C   0  0  0  0  0  0  0  0  0  0  0  0
   51.8890   31.8060   51.8070 C   0  0  0  0  0  0  0  0  0  0  0  0
   51.0240   32.7070   51.1980 O   0  0  0  0  0  0  0  0  0  0  0  0
   51.6000   31.3130   53.0830 C   0  0  0  0  0  0  0  0  0  0  0  0
   52.4690   30.4070   53.6990 C   0  0  0  0  0  0  0  0  0  0  0  0
   55.7970   28.8180   53.2220 O   0  0  0  0  0  0  0  0  0  0  0  0
   58.9260   28.3020   53.7330 N   0  0  0  0  0  0  0  0  0  0  0  0
   58.8210   29.4100   54.7090 C   0  0  0  0  0  0  0  0  0  0  0  0
   57.9620   30.5940   54.2100 C   0  0  0  0  0  0  0  0  0  0  0  0
   58.0450   30.8090   52.7500 N   0  0  0  0  0  0  0  0  0  0  0  0
   57.8890   32.5030   52.3550 S   0  0  0  0  0  0  0  0  0  0  0  0
   58.6030   33.3250   53.3920 O   0  0  0  0  0  0  0  0  0  0  0  0
   56.4350   32.8920   52.3740 O   0  0  0  0  0  0  0  0  0  0  0  0
   58.5550   32.8620   50.7600 C   0  0  0  0  0  0  0  0  0  0  0  0
   58.1480   32.1260   49.6390 C   0  0  0  0  0  0  0  0  0  0  0  0
   58.6770   32.4120   48.3760 C   0  0  0  0  0  0  0  0  0  0  0  0
   59.6320   33.4360   48.2220 C   0  0  0  0  0  0  0  0  0  0  0  0
   60.2040   33.7600   46.9810 O   0  0  0  0  0  0  0  0  0  0  0  0
   59.5890   34.5580   45.9720 C   0  0  0  0  0  0  0  0  0  0  0  0
   58.2110   34.4940   46.0880 F   0  0  0  0  0  0  0  0  0  0  0  0
   60.0110   35.8720   46.0820 F   0  0  0  0  0  0  0  0  0  0  0  0
   59.9550   34.0750   44.7320 F   0  0  0  0  0  0  0  0  0  0  0  0
   60.0350   34.1660   49.3470 C   0  0  0  0  0  0  0  0  0  0  0  0
   59.5020   33.8830   50.6070 C   0  0  0  0  0  0  0  0  0  0  0  0
   59.2700   30.2540   52.1660 C   0  0  0  0  0  0  0  0  0  0  0  0
   59.2750   28.7290   52.3480 C   0  0  0  0  0  0  0  0  0  0  0  0
   55.7160   26.8074   55.7887 H   0  0  0  0  0  0  0  0  0  0  0  0
   53.4411   28.2159   55.4003 H   0  0  0  0  0  0  0  0  0  0  0  0
   54.8270   30.1604   51.2284 H   0  0  0  0  0  0  0  0  0  0  0  0
   53.2741   31.7802   50.1412 H   0  0  0  0  0  0  0  0  0  0  0  0
   50.6872   31.6385   53.6034 H   0  0  0  0  0  0  0  0  0  0  0  0
   52.2369   30.0221   54.7030 H   0  0  0  0  0  0  0  0  0  0  0  0
   59.7360   27.7240   54.0650 H   0  0  0  0  0  0  0  0  0  0  0  0
   58.3703   29.0183   55.6328 H   0  0  0  0  0  0  0  0  0  0  0  0
   59.8386   29.7951   54.8709 H   0  0  0  0  0  0  0  0  0  0  0  0
   56.9123   30.3980   54.4739 H   0  0  0  0  0  0  0  0  0  0  0  0
   58.3513   31.5022   54.6933 H   0  0  0  0  0  0  0  0  0  0  0  0
   57.4088   31.3193   49.7528 H   0  0  0  0  0  0  0  0  0  0  0  0
   58.3460   31.8351   47.4998 H   0  0  0  0  0  0  0  0  0  0  0  0
   60.7781   34.9697   49.2376 H   0  0  0  0  0  0  0  0  0  0  0  0
   59.8272   34.4642   51.4825 H   0  0  0  0  0  0  0  0  0  0  0  0
   59.3079   30.4960   51.0936 H   0  0  0  0  0  0  0  0  0  0  0  0
   60.1467   30.6875   52.6694 H   0  0  0  0  0  0  0  0  0  0  0  0
   58.5437   28.2915   51.6525 H   0  0  0  0  0  0  0  0  0  0  0  0
   60.2980   28.3789   52.1459 H   0  0  0  0  0  0  0  0  0  0  0  0
  1  2  2  0
  2  3  1  0
  3  4  2  0
  4  5  1  0
  5  6  2  0
  6  7  1  0
  7  8  2  0
  8  9  1  0
  9 10  2  0
 10 11  1  0
 10 12  1  0
 12 13  2  0
  6 14  1  0
  2 15  1  0
 15 16  1  0
 16 17  1  0
 17 18  1  0
 18 19  1  0
 19 20  2  0
 19 21  2  0
 19 22  1  0
 22 23  2  0
 23 24  1  0
 24 25  2  0
 25 26  1  0
 26 27  1  0
 27 28  1  0
 27 29  1  0
 27 30  1  0
 25 31  1  0
 31 32  2  0
 18 33  1  0
 33 34  1  0
 14  3  1  0
 34 15  1  0
 13  7  1  0
 32 22  1  0
  4 35  1  0
  5 36  1  0
  8 37  1  0
  9 38  1  0
 12 39  1  0
 13 40  1  0
 15 41  1  0
 16 42  1  0
 16 43  1  0
 17 44  1  0
 17 45  1  0
 23 46  1  0
 24 47  1  0
 31 48  1  0
 32 49  1  0
 33 50  1  0
 33 51  1  0
 34 52  1  0
 34 53  1  0
M  CHG  2  11  -1  15   1
M  END
>  <UniqueID>  (46) 
46

>  <SMILES>  (46) 
O=C(c1ccc(-c2ccc([O-])cc2)o1)[NH+]1CCN(S(=O)(=O)c2ccc(OC(F)(F)F)cc2)CC1

>  <Energy>  (46) 
96.22783232396115

>  <Genealogy>  (46) 
O=C(c1ccc(-c2ccc([O-])cc2)o1)[NH+]1CCN(S(=O)(=O)c2ccc(OC(F)(F)F)cc2)CC1 (protonated)
O=C(c1ccc(-c2ccc([O-])cc2)o1)[NH+]1CCN(S(=O)(=O)c2ccc(OC(F)(F)F)cc2)CC1 (3D coordinates assigned)
O=C(c1ccc(-c2ccc([O-])cc2)o1)[NH+]1CCN(S(=O)(=O)c2ccc(OC(F)(F)F)cc2)CC1 (nonaromatic ring conformer: 96.22783232396115 kcal/mol)

>  <smiles>  (46) 
O=C(c1ccc(-c2ccc(O)cc2)o1)N1CCN(S(=O)(=O)c2ccc(OC(F)(F)F)cc2)CC1

>  <score_type>  (46) 
oracle

>  <origin>  (46) 
adg

>  <m_score__min__energy>  (46) 
-11.210000000000001

>  <m_primary>  (46) 
energy

$$$$
46:0
     RDKit          3D

 45 47  0  0  0  0  0  0  0  0999 V2000
   50.9950   24.3200   42.3960 C   0  0  0  0  0  0  0  0  0  0  0  0
   50.6860   24.6310   43.8560 C   0  0  0  0  0  0  0  0  0  0  0  0
   51.5900   23.8530   44.7670 C   0  0  0  0  0  0  0  0  0  0  0  0
   51.1110   23.3250   45.9710 C   0  0  0  0  0  0  0  0  0  0  0  0
   52.0000   22.6340   46.7950 C   0  0  0  0  0  0  0  0  0  0  0  0
   51.6030   22.1390   47.8820 O   0  0  0  0  0  0  0  0  0  0  0  0
   53.2990   22.4970   46.4240 N   0  0  0  0  0  0  0  0  0  0  0  0
   53.7580   23.0240   45.2560 C   0  0  0  0  0  0  0  0  0  0  0  0
   55.1360   22.8770   44.8760 N   0  0  0  0  0  0  0  0  0  0  0  0
   55.5520   21.9540   44.0210 N   0  0  0  0  0  0  0  0  0  0  0  0
   56.8880   22.0850   43.8970 C   0  0  0  0  0  0  0  0  0  0  0  0
   57.7260   21.2470   42.9910 C   0  0  0  0  0  0  0  0  0  0  0  0
   57.3450   23.1280   44.6790 C   0  0  0  0  0  0  0  0  0  0  0  0
   56.1960   23.6110   45.2840 C   0  0  0  0  0  0  0  0  0  0  0  0
   56.1120   24.5770   46.1550 N   0  0  0  0  0  0  0  0  0  0  0  0
   56.1470   25.9920   45.9100 C   0  0  0  0  0  0  0  0  0  0  0  0
   55.0830   26.6540   46.0320 O   0  0  0  0  0  0  0  0  0  0  0  0
   57.3760   26.6870   45.4060 C   0  0  0  0  0  0  0  0  0  0  0  0
   57.4020   28.0560   45.9070 N   0  0  0  0  0  0  0  0  0  0  0  0
   56.7190   29.1570   45.2970 C   0  0  0  0  0  0  0  0  0  0  0  0
   55.5710   28.9690   44.8170 O   0  0  0  0  0  0  0  0  0  0  0  0
   57.3240   30.5000   45.2030 C   0  0  0  0  0  0  0  0  0  0  0  0
   57.1080   31.3040   44.0720 C   0  0  0  0  0  0  0  0  0  0  0  0
   57.7060   32.5650   43.9810 C   0  0  0  0  0  0  0  0  0  0  0  0
   58.5300   33.0270   45.0120 C   0  0  0  0  0  0  0  0  0  0  0  0
   59.2800   34.6080   44.8960 Cl  0  0  0  0  0  0  0  0  0  0  0  0
   58.7640   32.2220   46.1320 C   0  0  0  0  0  0  0  0  0  0  0  0
   58.1700   30.9590   46.2250 C   0  0  0  0  0  0  0  0  0  0  0  0
   52.9010   23.7000   44.4430 N   0  0  0  0  0  0  0  0  0  0  0  0
   51.7694   23.5406   42.3431 H   0  0  0  0  0  0  0  0  0  0  0  0
   50.0822   23.9645   41.8957 H   0  0  0  0  0  0  0  0  0  0  0  0
   51.3564   25.2305   41.8957 H   0  0  0  0  0  0  0  0  0  0  0  0
   50.8320   25.7065   44.0348 H   0  0  0  0  0  0  0  0  0  0  0  0
   49.6440   24.3473   44.0651 H   0  0  0  0  0  0  0  0  0  0  0  0
   50.0576   23.4518   46.2613 H   0  0  0  0  0  0  0  0  0  0  0  0
   58.3774   20.5956   43.5922 H   0  0  0  0  0  0  0  0  0  0  0  0
   57.0742   20.6286   42.3564 H   0  0  0  0  0  0  0  0  0  0  0  0
   58.3444   21.8988   42.3564 H   0  0  0  0  0  0  0  0  0  0  0  0
   58.3774   23.4897   44.7942 H   0  0  0  0  0  0  0  0  0  0  0  0
   58.2701   26.1512   45.7575 H   0  0  0  0  0  0  0  0  0  0  0  0
   57.3641   26.6999   44.3061 H   0  0  0  0  0  0  0  0  0  0  0  0
   56.4667   30.9409   43.2554 H   0  0  0  0  0  0  0  0  0  0  0  0
   57.5278   33.1945   43.0967 H   0  0  0  0  0  0  0  0  0  0  0  0
   59.4162   32.5829   46.9409 H   0  0  0  0  0  0  0  0  0  0  0  0
   58.3663   30.3237   47.1013 H   0  0  0  0  0  0  0  0  0  0  0  0
  1  2  1  0
  2  3  1  0
  3  4  2  0
  4  5  1  0
  5  6  2  0
  5  7  1  0
  7  8  1  0
  8  9  1  0
  9 10  1  0
 10 11  1  0
 11 12  1  0
 11 13  2  0
 13 14  1  0
 14 15  2  3
 15 16  1  0
 16 17  2  0
 16 18  1  0
 18 19  1  0
 19 20  1  0
 20 21  2  0
 20 22  1  0
 22 23  2  0
 23 24  1  0
 24 25  2  0
 25 26  1  0
 25 27  1  0
 27 28  2  0
  8 29  2  0
 29  3  1  0
 14  9  1  0
 28 22  1  0
  1 30  1  0
  1 31  1  0
  1 32  1  0
  2 33  1  0
  2 34  1  0
  4 35  1  0
 12 36  1  0
 12 37  1  0
 12 38  1  0
 13 39  1  0
 18 40  1  0
 18 41  1  0
 23 42  1  0
 24 43  1  0
 27 44  1  0
 28 45  1  0
M  CHG  3   7  -1  10  -1  19  -1
M  END
>  <UniqueID>  (47) 
47

>  <SMILES>  (47) 
CCc1cc(=O)[n-]c(-n2[n-]c(C)cc2=NC(=O)C[N-]C(=O)c2ccc(Cl)cc2)n1

>  <Energy>  (47) 
84.60963494637234

>  <Genealogy>  (47) 
CCc1cc(=O)[n-]c(-n2[n-]c(C)cc2=NC(=O)C[N-]C(=O)c2ccc(Cl)cc2)n1 (protonated)
CCc1cc(=O)[n-]c(-n2[n-]c(C)cc2=NC(=O)C[N-]C(=O)c2ccc(Cl)cc2)n1 (3D coordinates assigned)
CCc1cc(=O)[n-]c(-n2[n-]c(C)cc2=NC(=O)C[N-]C(=O)c2ccc(Cl)cc2)n1 (optimized conformer: 84.60963494637234 kcal/mol)

>  <smiles>  (47) 
CCc1cc(=O)[nH]c(-n2[nH]c(C)cc2=NC(=O)CNC(=O)c2ccc(Cl)cc2)n1

>  <score_type>  (47) 
oracle

>  <origin>  (47) 
adg

>  <m_score__min__energy>  (47) 
-13.1

>  <m_primary>  (47) 
energy

$$$$
47:0
     RDKit          3D

 52 55  0  0  0  0  0  0  0  0999 V2000
   55.8990   29.3420   42.5810 O   0  0  0  0  0  0  0  0  0  0  0  0
   56.0980   29.7240   43.7650 C   0  0  0  0  0  0  0  0  0  0  0  0
   55.5850   28.9660   44.8650 N   0  0  0  0  0  0  0  0  0  0  0  0
   56.3430   27.9030   45.5140 C   0  0  0  0  0  0  0  0  0  0  0  0
   57.7980   28.2780   45.5310 C   0  0  0  0  0  0  0  0  0  0  0  0
   58.6740   27.7740   44.5590 C   0  0  0  0  0  0  0  0  0  0  0  0
   59.9960   28.2200   44.5030 C   0  0  0  0  0  0  0  0  0  0  0  0
   60.4450   29.2010   45.3890 C   0  0  0  0  0  0  0  0  0  0  0  0
   59.5700   29.7480   46.3420 C   0  0  0  0  0  0  0  0  0  0  0  0
   60.0240   30.8630   47.2610 C   0  0  0  0  0  0  0  0  0  0  0  0
   60.1020   30.4950   48.6950 N   0  0  0  0  0  0  0  0  0  0  0  0
   60.4230   29.0960   48.9840 C   0  0  0  0  0  0  0  0  0  0  0  0
   60.0090   28.8630   50.4310 C   0  0  0  0  0  0  0  0  0  0  0  0
   59.0400   29.9930   50.7620 C   0  0  0  0  0  0  0  0  0  0  0  0
   58.9080   30.8030   49.4810 C   0  0  0  0  0  0  0  0  0  0  0  0
   58.2610   29.2480   46.4340 C   0  0  0  0  0  0  0  0  0  0  0  0
   56.8220   30.9740   44.0200 C   0  0  0  0  0  0  0  0  0  0  0  0
   57.6900   31.6060   43.1580 C   0  0  0  0  0  0  0  0  0  0  0  0
   58.0770   32.7700   43.7070 N   0  0  0  0  0  0  0  0  0  0  0  0
   57.4240   32.8050   44.8900 C   0  0  0  0  0  0  0  0  0  0  0  0
   57.5190   33.9540   45.8420 C   0  0  0  0  0  0  0  0  0  0  0  0
   58.8620   33.9550   46.5220 C   0  0  0  0  0  0  0  0  0  0  0  0
   60.0410   33.8730   45.7600 C   0  0  0  0  0  0  0  0  0  0  0  0
   61.2880   33.8360   46.3930 C   0  0  0  0  0  0  0  0  0  0  0  0
   61.3660   33.8750   47.7890 C   0  0  0  0  0  0  0  0  0  0  0  0
   60.1980   33.9440   48.5530 C   0  0  0  0  0  0  0  0  0  0  0  0
   58.9480   33.9750   47.9230 C   0  0  0  0  0  0  0  0  0  0  0  0
   56.6450   31.7270   45.1190 N   0  0  0  0  0  0  0  0  0  0  0  0
   55.9842   27.7715   46.5455 H   0  0  0  0  0  0  0  0  0  0  0  0
   56.2090   26.9613   44.9616 H   0  0  0  0  0  0  0  0  0  0  0  0
   58.3182   27.0239   43.8374 H   0  0  0  0  0  0  0  0  0  0  0  0
   60.6861   27.7969   43.7582 H   0  0  0  0  0  0  0  0  0  0  0  0
   61.4881   29.5469   45.3406 H   0  0  0  0  0  0  0  0  0  0  0  0
   61.0235   31.1881   46.9365 H   0  0  0  0  0  0  0  0  0  0  0  0
   59.2639   31.6546   47.1858 H   0  0  0  0  0  0  0  0  0  0  0  0
   59.8622   28.4284   48.3134 H   0  0  0  0  0  0  0  0  0  0  0  0
   61.4921   28.8871   48.8312 H   0  0  0  0  0  0  0  0  0  0  0  0
   59.5127   27.8871   50.5369 H   0  0  0  0  0  0  0  0  0  0  0  0
   60.8757   28.8558   51.1083 H   0  0  0  0  0  0  0  0  0  0  0  0
   58.0630   29.5862   51.0621 H   0  0  0  0  0  0  0  0  0  0  0  0
   59.4013   30.6087   51.5989 H   0  0  0  0  0  0  0  0  0  0  0  0
   58.0010   30.5087   48.9326 H   0  0  0  0  0  0  0  0  0  0  0  0
   58.8240   31.8801   49.6878 H   0  0  0  0  0  0  0  0  0  0  0  0
   57.5908   29.6207   47.2226 H   0  0  0  0  0  0  0  0  0  0  0  0
   58.0138   31.2210   42.1798 H   0  0  0  0  0  0  0  0  0  0  0  0
   57.3910   34.8960   45.2887 H   0  0  0  0  0  0  0  0  0  0  0  0
   56.7310   33.8560   46.6032 H   0  0  0  0  0  0  0  0  0  0  0  0
   59.9825   33.8378   44.6621 H   0  0  0  0  0  0  0  0  0  0  0  0
   62.2077   33.7762   45.7925 H   0  0  0  0  0  0  0  0  0  0  0  0
   62.3472   33.8513   48.2857 H   0  0  0  0  0  0  0  0  0  0  0  0
   60.2607   33.9740   49.6508 H   0  0  0  0  0  0  0  0  0  0  0  0
   58.0302   34.0152   48.5280 H   0  0  0  0  0  0  0  0  0  0  0  0
  1  2  2  0
  2  3  1  0
  3  4  1  0
  4  5  1  0
  5  6  2  0
  6  7  1  0
  7  8  2  0
  8  9  1  0
  9 10  1  0
 10 11  1  0
 11 12  1  0
 12 13  1  0
 13 14  1  0
 14 15  1  0
  9 16  2  0
  2 17  1  0
 17 18  2  0
 18 19  1  0
 19 20  1  0
 20 21  1  0
 21 22  1  0
 22 23  2  0
 23 24  1  0
 24 25  2  0
 25 26  1  0
 26 27  2  0
 20 28  2  0
 16  5  1  0
 28 17  1  0
 15 11  1  0
 27 22  1  0
  4 29  1  0
  4 30  1  0
  6 31  1  0
  7 32  1  0
  8 33  1  0
 10 34  1  0
 10 35  1  0
 12 36  1  0
 12 37  1  0
 13 38  1  0
 13 39  1  0
 14 40  1  0
 14 41  1  0
 15 42  1  0
 15 43  1  0
 16 44  1  0
 18 45  1  0
 21 46  1  0
 21 47  1  0
 23 48  1  0
 24 49  1  0
 25 50  1  0
 26 51  1  0
 27 52  1  0
M  CHG  2   3  -1  19  -1
M  END
>  <UniqueID>  (48) 
48

>  <SMILES>  (48) 
O=C([N-]Cc1cccc(CN2CCCC2)c1)c1c[n-]c(Cc2ccccc2)n1

>  <Energy>  (48) 
81.90654147525318

>  <Genealogy>  (48) 
O=C([N-]Cc1cccc(CN2CCCC2)c1)c1c[n-]c(Cc2ccccc2)n1 (protonated)
O=C([N-]Cc1cccc(CN2CCCC2)c1)c1c[n-]c(Cc2ccccc2)n1 (3D coordinates assigned)
O=C([N-]Cc1cccc(CN2CCCC2)c1)c1c[n-]c(Cc2ccccc2)n1 (nonaromatic ring conformer: 81.90654147525318 kcal/mol)

>  <smiles>  (48) 
O=C(NCc1cccc(CN2CCCC2)c1)c1c[nH]c(Cc2ccccc2)n1

>  <score_type>  (48) 
oracle

>  <origin>  (48) 
adg

>  <m_score__min__energy>  (48) 
-12.51

>  <m_primary>  (48) 
energy

$$$$
48:0
     RDKit          3D

 58 61  0  0  0  0  0  0  0  0999 V2000
   57.3920   31.4530   43.6340 C   0  0  0  0  0  0  0  0  0  0  0  0
   56.9210   30.2720   43.2270 C   0  0  0  0  0  0  0  0  0  0  0  0
   55.5280   29.8100   43.5640 C   0  0  0  0  0  0  0  0  0  0  0  0
   55.5380   29.0610   44.8200 N   0  0  0  0  0  0  0  0  0  0  0  0
   56.6090   28.6020   45.3960 C   0  0  0  0  0  0  0  0  0  0  0  0
   57.4070   29.4200   46.1450 N   0  0  0  0  0  0  0  0  0  0  0  0
   58.5190   28.9160   46.7380 C   0  0  0  0  0  0  0  0  0  0  0  0
   58.8470   27.5960   46.6120 C   0  0  0  0  0  0  0  0  0  0  0  0
   58.0370   26.7580   45.8550 C   0  0  0  0  0  0  0  0  0  0  0  0
   56.9330   27.2820   45.2540 N   0  0  0  0  0  0  0  0  0  0  0  0
   60.0640   27.2490   47.3760 C   0  0  0  0  0  0  0  0  0  0  0  0
   60.6040   28.6180   47.8330 C   0  0  0  0  0  0  0  0  0  0  0  0
   59.4670   29.6680   47.6110 C   0  0  1  0  0  0  0  0  0  0  0  0
   60.0050   30.9410   46.8880 C   0  0  0  0  0  0  0  0  0  0  0  0
   59.2390   32.1970   47.3230 C   0  0  0  0  0  0  0  0  0  0  0  0
   59.3390   32.4440   48.7850 N   0  0  2  0  0  0  0  0  0  0  0  0
   60.3070   33.4850   49.1570 C   0  0  0  0  0  0  0  0  0  0  0  0
   59.8730   34.6100   49.3700 O   0  0  0  0  0  0  0  0  0  0  0  0
   61.8390   33.3250   49.2780 C   0  0  0  0  0  0  0  0  0  0  0  0
   62.6850   33.8370   48.1040 C   0  0  0  0  0  0  0  0  0  0  0  0
   64.1380   33.3250   48.2150 C   0  0  0  0  0  0  0  0  0  0  0  0
   64.6830   33.3280   49.5980 N   0  0  0  0  0  0  0  0  0  0  0  0
   64.9130   31.9710   50.1200 C   0  0  0  0  0  0  0  0  0  0  0  0
   63.9170   34.1630   50.5470 C   0  0  0  0  0  0  0  0  0  0  0  0
   62.4310   33.7610   50.6400 C   0  0  0  0  0  0  0  0  0  0  0  0
   59.4170   31.2210   49.6270 C   0  0  0  0  0  0  0  0  0  0  0  0
   58.7500   30.0170   48.9490 C   0  0  0  0  0  0  0  0  0  0  0  0
   58.4151   31.7580   43.3690 H   0  0  0  0  0  0  0  0  0  0  0  0
   56.7570   32.1211   44.2343 H   0  0  0  0  0  0  0  0  0  0  0  0
   57.5700   29.6167   42.6275 H   0  0  0  0  0  0  0  0  0  0  0  0
   54.8693   30.6849   43.6672 H   0  0  0  0  0  0  0  0  0  0  0  0
   55.1598   29.1578   42.7584 H   0  0  0  0  0  0  0  0  0  0  0  0
   58.2830   25.6917   45.7434 H   0  0  0  0  0  0  0  0  0  0  0  0
   59.8181   26.6148   48.2405 H   0  0  0  0  0  0  0  0  0  0  0  0
   60.7932   26.6767   46.7837 H   0  0  0  0  0  0  0  0  0  0  0  0
   60.8760   28.5782   48.8981 H   0  0  0  0  0  0  0  0  0  0  0  0
   61.5022   28.8917   47.2600 H   0  0  0  0  0  0  0  0  0  0  0  0
   61.0699   31.0685   47.1326 H   0  0  0  0  0  0  0  0  0  0  0  0
   59.8667   30.8087   45.8048 H   0  0  0  0  0  0  0  0  0  0  0  0
   59.6523   33.0654   46.7890 H   0  0  0  0  0  0  0  0  0  0  0  0
   58.1771   32.0427   47.0809 H   0  0  0  0  0  0  0  0  0  0  0  0
   58.3990   32.8490   49.0260 H   0  0  0  0  0  0  0  0  0  0  0  0
   61.9272   32.2300   49.2219 H   0  0  0  0  0  0  0  0  0  0  0  0
   62.2472   33.4796   47.1603 H   0  0  0  0  0  0  0  0  0  0  0  0
   62.6944   34.9367   48.1276 H   0  0  0  0  0  0  0  0  0  0  0  0
   64.1700   32.2935   47.8342 H   0  0  0  0  0  0  0  0  0  0  0  0
   64.7615   34.0162   47.6289 H   0  0  0  0  0  0  0  0  0  0  0  0
   64.9088   31.9956   51.2197 H   0  0  0  0  0  0  0  0  0  0  0  0
   64.1155   31.3016   49.7652 H   0  0  0  0  0  0  0  0  0  0  0  0
   65.8865   31.6018   49.7652 H   0  0  0  0  0  0  0  0  0  0  0  0
   64.3698   34.0649   51.5447 H   0  0  0  0  0  0  0  0  0  0  0  0
   63.9552   35.1988   50.1788 H   0  0  0  0  0  0  0  0  0  0  0  0
   62.3374   32.9240   51.3476 H   0  0  0  0  0  0  0  0  0  0  0  0
   61.8700   34.6455   50.9760 H   0  0  0  0  0  0  0  0  0  0  0  0
   60.4749   30.9838   49.8126 H   0  0  0  0  0  0  0  0  0  0  0  0
   58.8846   31.4205   50.5687 H   0  0  0  0  0  0  0  0  0  0  0  0
   58.8020   29.1492   49.6230 H   0  0  0  0  0  0  0  0  0  0  0  0
   57.7020   30.2709   48.7315 H   0  0  0  0  0  0  0  0  0  0  0  0
  1  2  2  0
  2  3  1  0
  3  4  1  0
  4  5  2  3
  5  6  1  0
  6  7  2  0
  7  8  1  0
  8  9  2  0
  9 10  1  0
  8 11  1  0
 11 12  1  0
 13 12  1  1
 13 14  1  0
 14 15  1  0
 15 16  1  0
 16 17  1  0
 17 18  2  0
 17 19  1  0
 19 20  1  0
 20 21  1  0
 21 22  1  0
 22 23  1  0
 22 24  1  0
 24 25  1  0
 16 26  1  0
 26 27  1  0
 10  5  1  0
 27 13  1  0
 13  7  1  0
 25 19  1  0
  1 28  1  0
  1 29  1  0
  2 30  1  0
  3 31  1  0
  3 32  1  0
  9 33  1  0
 11 34  1  0
 11 35  1  0
 12 36  1  0
 12 37  1  0
 14 38  1  0
 14 39  1  0
 15 40  1  0
 15 41  1  0
 16 42  1  1
 19 43  1  0
 20 44  1  0
 20 45  1  0
 21 46  1  0
 21 47  1  0
 23 48  1  0
 23 49  1  0
 23 50  1  0
 24 51  1  0
 24 52  1  0
 25 53  1  0
 25 54  1  0
 26 55  1  0
 26 56  1  0
 27 57  1  0
 27 58  1  0
M  CHG  2  10  -1  16   1
M  END
>  <UniqueID>  (49) 
49

>  <SMILES>  (49) 
C=CCN=c1nc2c(c[n-]1)CCC21CC[NH+](C(=O)C2CCN(C)CC2)CC1

>  <Energy>  (49) 
99.32751264123662

>  <Genealogy>  (49) 
C=CCN=c1nc2c(c[n-]1)CCC21CC[NH+](C(=O)C2CCN(C)CC2)CC1 (protonated)
C=CCN=c1nc2c(c[n-]1)CCC21CC[NH+](C(=O)C2CCN(C)CC2)CC1 (3D coordinates assigned)
C=CCN=c1nc2c(c[n-]1)CCC21CC[NH+](C(=O)C2CCN(C)CC2)CC1 (nonaromatic ring conformer: 99.32751264123662 kcal/mol)

>  <smiles>  (49) 
C=CCN=c1nc2c(c[nH]1)CCC21CCN(C(=O)C2CCN(C)CC2)CC1

>  <score_type>  (49) 
oracle

>  <origin>  (49) 
adg

>  <m_score__min__energy>  (49) 
-8.4100000000000001

>  <m_primary>  (49) 
energy

$$$$
49:0
     RDKit          3D

 56 59  0  0  0  0  0  0  0  0999 V2000
   54.5290   26.5830   46.7850 H   0  0  0  0  0  0  0  0  0  0  0  0
   55.1430   26.7240   45.9910 O   0  0  0  0  0  0  0  0  0  0  0  0
   56.5260   26.8270   46.1400 C   0  0  0  0  0  0  0  0  0  0  0  0
   57.2580   25.9260   46.8150 N   0  0  0  0  0  0  0  0  0  0  0  0
   58.5140   26.4130   46.7030 C   0  0  0  0  0  0  0  0  0  0  0  0
   59.5120   25.8430   47.2160 O   0  0  0  0  0  0  0  0  0  0  0  0
   58.6130   27.5630   46.0050 N   0  0  0  0  0  0  0  0  0  0  0  0
   57.3420   27.8190   45.6340 C   0  0  0  0  0  0  0  0  0  0  0  0
   56.9000   29.0260   44.9010 C   0  0  0  0  0  0  0  0  0  0  0  0
   56.1286   28.8972   44.1275 H   0  0  0  0  0  0  0  0  0  0  0  0
   57.3720   30.2730   45.1100 C   0  0  0  0  0  0  0  0  0  0  0  0
   57.7490   30.8300   46.3260 C   0  0  0  0  0  0  0  0  0  0  0  0
   57.7141   30.3396   47.3100 H   0  0  0  0  0  0  0  0  0  0  0  0
   58.1760   32.1170   46.0630 C   0  0  0  0  0  0  0  0  0  0  0  0
   58.6720   33.0620   47.0800 C   0  0  0  0  0  0  0  0  0  0  0  0
   58.1150   34.1840   47.2140 O   0  0  0  0  0  0  0  0  0  0  0  0
   59.8380   32.7600   47.8550 N   0  0  0  0  0  0  0  0  0  0  0  0
   61.0920   33.4200   47.4740 C   0  0  0  0  0  0  0  0  0  0  0  0
   61.2955   33.2185   46.4119 H   0  0  0  0  0  0  0  0  0  0  0  0
   60.9848   34.5006   47.6495 H   0  0  0  0  0  0  0  0  0  0  0  0
   62.2590   32.9080   48.3100 C   0  0  0  0  0  0  0  0  0  0  0  0
   62.5363   31.8961   47.9797 H   0  0  0  0  0  0  0  0  0  0  0  0
   63.1284   33.5712   48.1899 H   0  0  0  0  0  0  0  0  0  0  0  0
   61.8420   32.8730   49.7220 N   0  0  0  0  0  0  0  0  0  0  0  0
   62.9600   32.8010   50.7040 C   0  0  0  0  0  0  0  0  0  0  0  0
   62.5064   32.5743   51.6801 H   0  0  0  0  0  0  0  0  0  0  0  0
   63.9440   31.6100   50.4750 C   0  0  0  0  0  0  0  0  0  0  0  0
   64.2019   31.1775   51.4530 H   0  0  0  0  0  0  0  0  0  0  0  0
   63.4328   30.8865   49.8229 H   0  0  0  0  0  0  0  0  0  0  0  0
   65.2420   32.0210   49.7670 C   0  0  0  0  0  0  0  0  0  0  0  0
   65.9141   31.1507   49.7371 H   0  0  0  0  0  0  0  0  0  0  0  0
   64.9681   32.3678   48.7597 H   0  0  0  0  0  0  0  0  0  0  0  0
   65.9770   33.1840   50.4670 C   0  0  0  0  0  0  0  0  0  0  0  0
   66.8040   32.7653   51.0593 H   0  0  0  0  0  0  0  0  0  0  0  0
   66.3277   33.8638   49.6765 H   0  0  0  0  0  0  0  0  0  0  0  0
   65.0790   34.0110   51.4040 C   0  0  0  0  0  0  0  0  0  0  0  0
   65.0069   33.5010   52.3759 H   0  0  0  0  0  0  0  0  0  0  0  0
   65.5242   35.0096   51.5250 H   0  0  0  0  0  0  0  0  0  0  0  0
   63.6740   34.1710   50.8170 C   0  0  0  0  0  0  0  0  0  0  0  0
   63.0844   34.8311   51.4701 H   0  0  0  0  0  0  0  0  0  0  0  0
   63.7624   34.6042   49.8097 H   0  0  0  0  0  0  0  0  0  0  0  0
   60.8190   31.8300   49.9700 C   0  0  0  0  0  0  0  0  0  0  0  0
   61.3340   30.8759   50.1555 H   0  0  0  0  0  0  0  0  0  0  0  0
   60.2251   32.1620   50.8343 H   0  0  0  0  0  0  0  0  0  0  0  0
   59.8330   31.6320   48.7940 C   0  0  0  0  0  0  0  0  0  0  0  0
   60.1142   30.7189   48.2488 H   0  0  0  0  0  0  0  0  0  0  0  0
   58.8208   31.5569   49.2180 H   0  0  0  0  0  0  0  0  0  0  0  0
   58.0890   32.3790   44.7370 N   0  0  0  0  0  0  0  0  0  0  0  0
   58.4900   33.6160   44.0580 C   0  0  0  0  0  0  0  0  0  0  0  0
   58.7383   34.3818   44.8076 H   0  0  0  0  0  0  0  0  0  0  0  0
   59.3706   33.4199   43.4286 H   0  0  0  0  0  0  0  0  0  0  0  0
   57.6618   33.9738   43.4286 H   0  0  0  0  0  0  0  0  0  0  0  0
   57.6050   31.2590   44.1450 C   0  0  0  0  0  0  0  0  0  0  0  0
   57.3850   31.1490   42.8250 C   0  0  0  0  0  0  0  0  0  0  0  0
   57.6068   31.9951   42.1580 H   0  0  0  0  0  0  0  0  0  0  0  0
   56.9829   30.2127   42.4106 H   0  0  0  0  0  0  0  0  0  0  0  0
  1  2  1  0
  2  3  1  0
  3  4  1  0
  4  5  1  0
  5  6  2  0
  5  7  1  0
  7  8  1  0
  8  9  1  0
  9 10  1  0
  9 11  2  0
 11 12  1  0
 12 13  1  0
 12 14  2  0
 14 15  1  0
 15 16  2  0
 15 17  1  0
 17 18  1  0
 18 19  1  0
 18 20  1  0
 18 21  1  0
 21 22  1  0
 21 23  1  0
 21 24  1  0
 24 25  1  0
 25 26  1  0
 25 27  1  0
 27 28  1  0
 27 29  1  0
 27 30  1  0
 30 31  1  0
 30 32  1  0
 30 33  1  0
 33 34  1  0
 33 35  1  0
 33 36  1  0
 36 37  1  0
 36 38  1  0
 36 39  1  0
 39 40  1  0
 39 41  1  0
 24 42  1  0
 42 43  1  0
 42 44  1  0
 42 45  1  0
 45 46  1  0
 45 47  1  0
 14 48  1  0
 48 49  1  0
 49 50  1  0
 49 51  1  0
 49 52  1  0
 48 53  1  0
 53 54  2  0
 54 55  1  0
 54 56  1  0
  8  3  2  0
 53 11  1  0
 45 17  1  0
 39 25  1  0
M  CHG  2   4  -1   7  -1
M  END
>  <UniqueID>  (50) 
50

>  <SMILES>  (50) 
C=c1/c(=C/c2[n-]c(=O)[n-]c2O)cc(C(=O)N2CCN(C3CCCCC3)CC2)n1C

>  <Energy>  (50) 
144.26657011698347

>  <Genealogy>  (50) 
C=c1c(=Cc2[n-]c(=O)[n-]c2O)cc(C(=O)N2CCN(C3CCCCC3)CC2)n1C (protonated)
C=c1/c(=C/c2[n-]c(=O)[n-]c2O)cc(C(=O)N2CCN(C3CCCCC3)CC2)n1C (cis-trans isomerization)
C=c1/c(=C/c2[n-]c(=O)[n-]c2O)cc(C(=O)N2CCN(C3CCCCC3)CC2)n1C (3D coordinates assigned)
C=c1/c(=C/c2[n-]c(=O)[n-]c2O)cc(C(=O)N2CCN(C3CCCCC3)CC2)n1C (nonaromatic ring conformer: 144.26657011698347 kcal/mol)

>  <smiles>  (50) 
C=c1c(=Cc2[nH]c(=O)[nH]c2O)cc(C(=O)N2CCN(C3CCCCC3)CC2)n1C

>  <score_type>  (50) 
oracle

>  <origin>  (50) 
adg

>  <m_score__min__energy>  (50) 
-13.69

>  <m_primary>  (50) 
energy

$$$$
50:0
     RDKit          3D

 66 70  0  0  0  0  0  0  0  0999 V2000
   57.3920   21.2020   47.9500 O   0  0  0  0  0  0  0  0  0  0  0  0
   56.7670   21.4500   46.8850 C   0  0  0  0  0  0  0  0  0  0  0  0
   55.2900   21.5110   46.8950 C   0  0  0  0  0  0  0  0  0  0  0  0
   54.5500   20.3190   46.7980 C   0  0  0  0  0  0  0  0  0  0  0  0
   53.1530   20.3500   46.7610 C   0  0  0  0  0  0  0  0  0  0  0  0
   52.4810   21.5710   46.8240 C   0  0  0  0  0  0  0  0  0  0  0  0
   53.2010   22.7630   46.9190 C   0  0  0  0  0  0  0  0  0  0  0  0
   54.6050   22.7480   46.9400 C   0  0  0  0  0  0  0  0  0  0  0  0
   55.3240   23.9810   47.0790 N   0  0  0  0  0  0  0  0  0  0  0  0
   55.5280   25.0490   45.7290 S   0  0  0  0  0  0  0  0  0  0  0  0
   54.3390   25.9620   45.6310 O   0  0  0  0  0  0  0  0  0  0  0  0
   55.6090   24.2370   44.4660 O   0  0  0  0  0  0  0  0  0  0  0  0
   57.0040   25.9950   45.8930 C   0  0  0  0  0  0  0  0  0  0  0  0
   58.2180   25.3600   46.1840 C   0  0  0  0  0  0  0  0  0  0  0  0
   59.3920   26.1080   46.2860 C   0  0  0  0  0  0  0  0  0  0  0  0
   59.3620   27.4910   46.0980 C   0  0  0  0  0  0  0  0  0  0  0  0
   58.1520   28.1460   45.8010 C   0  0  0  0  0  0  0  0  0  0  0  0
   58.1230   29.6170   45.5960 C   0  0  0  0  0  0  0  0  0  0  0  0
   57.6140   30.1630   44.4030 C   0  0  0  0  0  0  0  0  0  0  0  0
   57.5770   31.5470   44.2150 C   0  0  0  0  0  0  0  0  0  0  0  0
   58.0370   32.4130   45.2180 C   0  0  0  0  0  0  0  0  0  0  0  0
   58.0180   33.9010   45.0040 C   0  0  0  0  0  0  0  0  0  0  0  0
   59.3840   34.4310   45.0750 N   0  0  0  0  0  0  0  0  0  0  0  0
   59.6190   35.0580   46.3810 C   0  0  0  0  0  0  0  0  0  0  0  0
   60.7400   34.3490   47.0920 C   0  0  0  0  0  0  0  0  0  0  0  0
   60.6840   34.1490   48.4800 C   0  0  0  0  0  0  0  0  0  0  0  0
   61.7120   33.4630   49.1360 C   0  0  0  0  0  0  0  0  0  0  0  0
   62.7950   32.9640   48.4080 C   0  0  0  0  0  0  0  0  0  0  0  0
   62.8500   33.1440   47.0230 C   0  0  0  0  0  0  0  0  0  0  0  0
   61.8240   33.8290   46.3640 C   0  0  0  0  0  0  0  0  0  0  0  0
   58.5670   31.8740   46.4000 C   0  0  0  0  0  0  0  0  0  0  0  0
   58.6040   30.4890   46.5900 C   0  0  0  0  0  0  0  0  0  0  0  0
   56.9740   27.3830   45.6990 C   0  0  0  0  0  0  0  0  0  0  0  0
   57.5040   21.6640   45.6790 N   0  0  0  0  0  0  0  0  0  0  0  0
   58.9240   21.7100   45.2890 C   0  0  0  0  0  0  0  0  0  0  0  0
   58.6840   21.8460   43.8220 C   0  0  0  0  0  0  0  0  0  0  0  0
   57.2500   21.7980   44.2320 C   0  0  0  0  0  0  0  0  0  0  0  0
   55.0752   19.3537   46.7508 H   0  0  0  0  0  0  0  0  0  0  0  0
   52.5837   19.4121   46.6822 H   0  0  0  0  0  0  0  0  0  0  0  0
   51.3815   21.5944   46.7988 H   0  0  0  0  0  0  0  0  0  0  0  0
   52.6645   23.7215   46.9779 H   0  0  0  0  0  0  0  0  0  0  0  0
   55.9880   24.0880   47.8770 H   0  0  0  0  0  0  0  0  0  0  0  0
   58.2463   24.2704   46.3323 H   0  0  0  0  0  0  0  0  0  0  0  0
   60.3437   25.6063   46.5152 H   0  0  0  0  0  0  0  0  0  0  0  0
   60.2913   28.0735   46.1826 H   0  0  0  0  0  0  0  0  0  0  0  0
   57.2423   29.4948   43.6122 H   0  0  0  0  0  0  0  0  0  0  0  0
   57.1845   31.9602   43.2742 H   0  0  0  0  0  0  0  0  0  0  0  0
   57.5915   34.1222   44.0145 H   0  0  0  0  0  0  0  0  0  0  0  0
   57.4045   34.3725   45.7859 H   0  0  0  0  0  0  0  0  0  0  0  0
   59.4780   35.1750   44.3410 H   0  0  0  0  0  0  0  0  0  0  0  0
   59.8889   36.1144   46.2357 H   0  0  0  0  0  0  0  0  0  0  0  0
   58.7035   34.9896   46.9870 H   0  0  0  0  0  0  0  0  0  0  0  0
   59.8283   34.5332   49.0546 H   0  0  0  0  0  0  0  0  0  0  0  0
   61.6675   33.3165   50.2253 H   0  0  0  0  0  0  0  0  0  0  0  0
   63.6051   32.4290   48.9252 H   0  0  0  0  0  0  0  0  0  0  0  0
   63.7011   32.7465   46.4507 H   0  0  0  0  0  0  0  0  0  0  0  0
   61.8656   33.9612   45.2728 H   0  0  0  0  0  0  0  0  0  0  0  0
   58.9553   32.5441   47.1811 H   0  0  0  0  0  0  0  0  0  0  0  0
   59.0127   30.0777   47.5248 H   0  0  0  0  0  0  0  0  0  0  0  0
   56.0211   27.8802   45.4649 H   0  0  0  0  0  0  0  0  0  0  0  0
   59.4528   22.5757   45.7143 H   0  0  0  0  0  0  0  0  0  0  0  0
   59.5596   20.8740   45.6162 H   0  0  0  0  0  0  0  0  0  0  0  0
   59.0178   22.7925   43.3719 H   0  0  0  0  0  0  0  0  0  0  0  0
   59.1287   21.1860   43.0626 H   0  0  0  0  0  0  0  0  0  0  0  0
   56.7056   22.7201   43.9803 H   0  0  0  0  0  0  0  0  0  0  0  0
   56.6203   21.0288   43.7611 H   0  0  0  0  0  0  0  0  0  0  0  0
  1  2  2  0
  2  3  1  0
  3  4  2  0
  4  5  1  0
  5  6  2  0
  6  7  1  0
  7  8  2  0
  8  9  1  0
  9 10  1  0
 10 11  2  0
 10 12  2  0
 10 13  1  0
 13 14  2  0
 14 15  1  0
 15 16  2  0
 16 17  1  0
 17 18  1  0
 18 19  2  0
 19 20  1  0
 20 21  2  0
 21 22  1  0
 22 23  1  0
 23 24  1  0
 24 25  1  0
 25 26  2  0
 26 27  1  0
 27 28  2  0
 28 29  1  0
 29 30  2  0
 21 31  1  0
 31 32  2  0
 17 33  2  0
  2 34  1  0
 34 35  1  0
 35 36  1  0
 36 37  1  0
  8  3  1  0
 33 13  1  0
 37 34  1  0
 32 18  1  0
 30 25  1  0
  4 38  1  0
  5 39  1  0
  6 40  1  0
  7 41  1  0
  9 42  1  0
 14 43  1  0
 15 44  1  0
 16 45  1  0
 19 46  1  0
 20 47  1  0
 22 48  1  0
 22 49  1  0
 23 50  1  0
 24 51  1  0
 24 52  1  0
 26 53  1  0
 27 54  1  0
 28 55  1  0
 29 56  1  0
 30 57  1  0
 31 58  1  0
 32 59  1  0
 33 60  1  0
 35 61  1  0
 35 62  1  0
 36 63  1  0
 36 64  1  0
 37 65  1  0
 37 66  1  0
M  END
>  <UniqueID>  (51) 
51

>  <SMILES>  (51) 
O=C(c1ccccc1NS(=O)(=O)c1cccc(-c2ccc(CNCc3ccccc3)cc2)c1)N1CCC1

>  <Energy>  (51) 
128.2076564185708

>  <Genealogy>  (51) 
O=C(c1ccccc1NS(=O)(=O)c1cccc(-c2ccc(CNCc3ccccc3)cc2)c1)N1CCC1 (3D coordinates assigned)
O=C(c1ccccc1NS(=O)(=O)c1cccc(-c2ccc(CNCc3ccccc3)cc2)c1)N1CCC1 (nonaromatic ring conformer: 128.2076564185708 kcal/mol)

>  <smiles>  (51) 
O=C(c1ccccc1NS(=O)(=O)c1cccc(-c2ccc(CNCc3ccccc3)cc2)c1)N1CCC1

>  <score_type>  (51) 
oracle

>  <origin>  (51) 
adg

>  <m_score__min__energy>  (51) 
-12.5

>  <m_primary>  (51) 
energy

$$$$
51:0
     RDKit          3D

 55 57  0  0  0  0  0  0  0  0999 V2000
   58.5360   27.9810   46.5970 C   0  0  0  0  0  0  0  0  0  0  0  0
   58.7040   29.1530   45.7180 N   0  0  0  0  0  0  0  0  0  0  0  0
   60.1160   29.2670   45.3160 C   0  0  0  0  0  0  0  0  0  0  0  0
   57.8470   29.0380   44.5190 C   0  0  0  0  0  0  0  0  0  0  0  0
   56.5440   29.7760   44.7060 C   0  0  0  0  0  0  0  0  0  0  0  0
   55.5560   29.1600   45.1910 O   0  0  0  0  0  0  0  0  0  0  0  0
   56.4400   31.1920   44.5050 N   0  0  0  0  0  0  0  0  0  0  0  0
   57.3870   32.1810   44.9280 C   0  0  0  0  0  0  0  0  0  0  0  0
   57.8670   33.1610   44.0430 C   0  0  0  0  0  0  0  0  0  0  0  0
   58.7620   34.1360   44.4920 C   0  0  0  0  0  0  0  0  0  0  0  0
   59.1680   34.1510   45.8290 C   0  0  0  0  0  0  0  0  0  0  0  0
   58.6750   33.1930   46.7280 C   0  0  0  0  0  0  0  0  0  0  0  0
   59.0720   33.2190   48.1090 N   0  0  0  0  0  0  0  0  0  0  0  0
   60.0390   34.2290   48.5610 C   0  0  0  0  0  0  0  0  0  0  0  0
   61.4520   33.7160   48.4490 C   0  0  0  0  0  0  0  0  0  0  0  0
   62.0480   33.5390   47.1880 C   0  0  0  0  0  0  0  0  0  0  0  0
   63.3730   33.1040   47.0880 C   0  0  0  0  0  0  0  0  0  0  0  0
   64.1120   32.8370   48.2440 C   0  0  0  0  0  0  0  0  0  0  0  0
   63.5250   33.0020   49.5020 C   0  0  0  0  0  0  0  0  0  0  0  0
   62.2000   33.4390   49.6050 C   0  0  0  0  0  0  0  0  0  0  0  0
   58.3340   32.4010   49.0840 C   0  0  0  0  0  0  0  0  0  0  0  0
   59.0920   31.1360   49.3790 C   0  0  0  0  0  0  0  0  0  0  0  0
   60.0350   30.6420   48.4580 C   0  0  0  0  0  0  0  0  0  0  0  0
   60.7600   29.4810   48.7440 C   0  0  0  0  0  0  0  0  0  0  0  0
   60.5650   28.8120   49.9570 C   0  0  0  0  0  0  0  0  0  0  0  0
   61.2840   27.6470   50.2220 O   0  0  0  0  0  0  0  0  0  0  0  0
   59.6490   29.3150   50.8910 C   0  0  0  0  0  0  0  0  0  0  0  0
   58.9160   30.4710   50.6030 C   0  0  0  0  0  0  0  0  0  0  0  0
   57.7750   32.2200   46.2730 C   0  0  0  0  0  0  0  0  0  0  0  0
   58.5819   28.3015   47.6483 H   0  0  0  0  0  0  0  0  0  0  0  0
   57.5613   27.5110   46.3992 H   0  0  0  0  0  0  0  0  0  0  0  0
   59.3394   27.2562   46.3992 H   0  0  0  0  0  0  0  0  0  0  0  0
   60.7498   29.3182   46.2136 H   0  0  0  0  0  0  0  0  0  0  0  0
   60.3988   28.3888   44.7171 H   0  0  0  0  0  0  0  0  0  0  0  0
   60.2542   30.1792   44.7171 H   0  0  0  0  0  0  0  0  0  0  0  0
   58.3794   29.4633   43.6554 H   0  0  0  0  0  0  0  0  0  0  0  0
   57.6235   27.9740   44.3517 H   0  0  0  0  0  0  0  0  0  0  0  0
   57.5374   33.1609   42.9935 H   0  0  0  0  0  0  0  0  0  0  0  0
   59.1472   34.8923   43.7923 H   0  0  0  0  0  0  0  0  0  0  0  0
   59.8766   34.9165   46.1780 H   0  0  0  0  0  0  0  0  0  0  0  0
   59.9338   35.1305   47.9396 H   0  0  0  0  0  0  0  0  0  0  0  0
   59.8342   34.4610   49.6166 H   0  0  0  0  0  0  0  0  0  0  0  0
   61.4689   33.7438   46.2755 H   0  0  0  0  0  0  0  0  0  0  0  0
   63.8345   32.9717   46.0983 H   0  0  0  0  0  0  0  0  0  0  0  0
   65.1551   32.4972   48.1639 H   0  0  0  0  0  0  0  0  0  0  0  0
   64.1054   32.7881   50.4116 H   0  0  0  0  0  0  0  0  0  0  0  0
   61.7415   33.5663   50.5968 H   0  0  0  0  0  0  0  0  0  0  0  0
   58.2051   32.9729   50.0147 H   0  0  0  0  0  0  0  0  0  0  0  0
   57.3511   32.1412   48.6641 H   0  0  0  0  0  0  0  0  0  0  0  0
   60.2024   31.1719   47.5087 H   0  0  0  0  0  0  0  0  0  0  0  0
   61.4852   29.0929   48.0136 H   0  0  0  0  0  0  0  0  0  0  0  0
   61.7460   27.5020   51.1130 H   0  0  0  0  0  0  0  0  0  0  0  0
   59.5063   28.7997   51.8523 H   0  0  0  0  0  0  0  0  0  0  0  0
   58.1979   30.8611   51.3393 H   0  0  0  0  0  0  0  0  0  0  0  0
   57.3696   31.4801   46.9788 H   0  0  0  0  0  0  0  0  0  0  0  0
  1  2  1  0
  2  3  1  0
  2  4  1  0
  4  5  1  0
  5  6  2  0
  5  7  1  0
  7  8  1  0
  8  9  2  0
  9 10  1  0
 10 11  2  0
 11 12  1  0
 12 13  1  0
 13 14  1  0
 14 15  1  0
 15 16  2  0
 16 17  1  0
 17 18  2  0
 18 19  1  0
 19 20  2  0
 13 21  1  0
 21 22  1  0
 22 23  2  0
 23 24  1  0
 24 25  2  0
 25 26  1  0
 25 27  1  0
 27 28  2  0
 12 29  2  0
 29  8  1  0
 20 15  1  0
 28 22  1  0
  1 30  1  0
  1 31  1  0
  1 32  1  0
  3 33  1  0
  3 34  1  0
  3 35  1  0
  4 36  1  0
  4 37  1  0
  9 38  1  0
 10 39  1  0
 11 40  1  0
 14 41  1  0
 14 42  1  0
 16 43  1  0
 17 44  1  0
 18 45  1  0
 19 46  1  0
 20 47  1  0
 21 48  1  0
 21 49  1  0
 23 50  1  0
 24 51  1  0
 26 52  1  0
 27 53  1  0
 28 54  1  0
 29 55  1  0
M  CHG  1   7  -1
M  END
>  <UniqueID>  (52) 
52

>  <SMILES>  (52) 
CN(C)CC(=O)[N-]c1cccc(N(Cc2ccccc2)Cc2ccc(O)cc2)c1

>  <Energy>  (52) 
62.63513872968093

>  <Genealogy>  (52) 
CN(C)CC(=O)[N-]c1cccc(N(Cc2ccccc2)Cc2ccc(O)cc2)c1 (protonated)
CN(C)CC(=O)[N-]c1cccc(N(Cc2ccccc2)Cc2ccc(O)cc2)c1 (3D coordinates assigned)
CN(C)CC(=O)[N-]c1cccc(N(Cc2ccccc2)Cc2ccc(O)cc2)c1 (optimized conformer: 62.63513872968093 kcal/mol)

>  <smiles>  (52) 
CN(C)CC(=O)Nc1cccc(N(Cc2ccccc2)Cc2ccc(O)cc2)c1

>  <score_type>  (52) 
oracle

>  <origin>  (52) 
adg

>  <m_score__min__energy>  (52) 
-9.7300000000000004

>  <m_primary>  (52) 
energy

$$$$
52:0
     RDKit          3D

 61 64  0  0  0  0  0  0  0  0999 V2000
   60.7840   29.9640   47.7030 C   0  0  0  0  0  0  0  0  0  0  0  0
   61.3340   31.3230   47.3880 C   0  0  0  0  0  0  0  0  0  0  0  0
   62.7090   31.5760   47.5200 C   0  0  0  0  0  0  0  0  0  0  0  0
   63.2290   32.8310   47.1920 C   0  0  0  0  0  0  0  0  0  0  0  0
   62.3850   33.8400   46.7230 C   0  0  0  0  0  0  0  0  0  0  0  0
   61.0090   33.5960   46.5720 C   0  0  0  0  0  0  0  0  0  0  0  0
   60.0980   34.6760   46.0440 C   0  0  0  0  0  0  0  0  0  0  0  0
   58.8940   34.9400   46.9690 C   0  0  0  0  0  0  0  0  0  0  0  0
   57.6970   34.1410   46.6430 N   0  0  0  0  0  0  0  0  0  0  0  0
   57.4110   34.0660   45.2020 C   0  0  0  0  0  0  0  0  0  0  0  0
   57.5640   32.6620   44.7030 C   0  0  0  0  0  0  0  0  0  0  0  0
   57.7760   32.2790   43.3990 C   0  0  0  0  0  0  0  0  0  0  0  0
   57.8900   30.9750   43.3900 O   0  0  0  0  0  0  0  0  0  0  0  0
   57.7650   30.5600   44.6320 C   0  0  0  0  0  0  0  0  0  0  0  0
   57.8380   29.1400   45.0370 C   0  0  0  0  0  0  0  0  0  0  0  0
   57.9100   28.7950   46.3950 C   0  0  0  0  0  0  0  0  0  0  0  0
   57.9920   27.4540   46.7800 C   0  0  0  0  0  0  0  0  0  0  0  0
   57.9980   26.4360   45.8190 C   0  0  0  0  0  0  0  0  0  0  0  0
   58.0880   25.1070   46.2570 O   0  0  0  0  0  0  0  0  0  0  0  0
   57.1400   24.4720   47.1100 C   0  0  0  0  0  0  0  0  0  0  0  0
   57.0430   23.0150   46.7600 C   0  0  0  0  0  0  0  0  0  0  0  0
   57.2400   22.1720   47.6780 O   0  0  0  0  0  0  0  0  0  0  0  0
   56.7310   22.5630   45.4220 N   0  0  0  0  0  0  0  0  0  0  0  0
   56.3840   21.1480   45.2110 C   0  0  0  0  0  0  0  0  0  0  0  0
   56.6460   20.7410   43.7610 C   0  0  0  0  0  0  0  0  0  0  0  0
   56.0150   21.6380   42.8710 O   0  0  0  0  0  0  0  0  0  0  0  0
   56.6270   22.9090   42.9740 C   0  0  0  0  0  0  0  0  0  0  0  0
   56.3880   23.5220   44.3590 C   0  0  0  0  0  0  0  0  0  0  0  0
   57.9150   26.7790   44.4580 C   0  0  0  0  0  0  0  0  0  0  0  0
   57.8400   28.1200   44.0720 C   0  0  0  0  0  0  0  0  0  0  0  0
   57.5640   31.5750   45.5010 N   0  0  0  0  0  0  0  0  0  0  0  0
   60.4910   32.3310   46.8950 C   0  0  0  0  0  0  0  0  0  0  0  0
   60.7312   29.8336   48.7940 H   0  0  0  0  0  0  0  0  0  0  0  0
   59.7761   29.8677   47.2730 H   0  0  0  0  0  0  0  0  0  0  0  0
   61.4412   29.1938   47.2730 H   0  0  0  0  0  0  0  0  0  0  0  0
   63.3795   30.7831   47.8830 H   0  0  0  0  0  0  0  0  0  0  0  0
   64.3061   33.0246   47.3035 H   0  0  0  0  0  0  0  0  0  0  0  0
   62.7980   34.8279   46.4712 H   0  0  0  0  0  0  0  0  0  0  0  0
   60.6759   35.6065   45.9437 H   0  0  0  0  0  0  0  0  0  0  0  0
   59.7051   34.3360   45.0744 H   0  0  0  0  0  0  0  0  0  0  0  0
   59.1940   34.7072   48.0014 H   0  0  0  0  0  0  0  0  0  0  0  0
   58.6166   35.9960   46.8349 H   0  0  0  0  0  0  0  0  0  0  0  0
   57.7990   33.1750   47.0250 H   0  0  0  0  0  0  0  0  0  0  0  0
   56.3797   34.4030   45.0208 H   0  0  0  0  0  0  0  0  0  0  0  0
   58.1235   34.7107   44.6665 H   0  0  0  0  0  0  0  0  0  0  0  0
   57.8382   32.9450   42.5257 H   0  0  0  0  0  0  0  0  0  0  0  0
   57.9019   29.5844   47.1610 H   0  0  0  0  0  0  0  0  0  0  0  0
   58.0524   27.1961   47.8476 H   0  0  0  0  0  0  0  0  0  0  0  0
   57.4620   24.5763   48.1566 H   0  0  0  0  0  0  0  0  0  0  0  0
   56.1558   24.9454   46.9782 H   0  0  0  0  0  0  0  0  0  0  0  0
   56.9950   20.5224   45.8783 H   0  0  0  0  0  0  0  0  0  0  0  0
   55.3155   21.0079   45.4315 H   0  0  0  0  0  0  0  0  0  0  0  0
   57.7299   20.7484   43.5737 H   0  0  0  0  0  0  0  0  0  0  0  0
   56.2383   19.7327   43.5965 H   0  0  0  0  0  0  0  0  0  0  0  0
   57.7094   22.8017   42.8098 H   0  0  0  0  0  0  0  0  0  0  0  0
   56.1867   23.5730   42.2156 H   0  0  0  0  0  0  0  0  0  0  0  0
   57.0133   24.4204   44.4684 H   0  0  0  0  0  0  0  0  0  0  0  0
   55.3232   23.7828   44.4499 H   0  0  0  0  0  0  0  0  0  0  0  0
   57.9091   25.9881   43.6935 H   0  0  0  0  0  0  0  0  0  0  0  0
   57.7821   28.3784   43.0043 H   0  0  0  0  0  0  0  0  0  0  0  0
   59.4181   32.1291   46.7607 H   0  0  0  0  0  0  0  0  0  0  0  0
  1  2  1  0
  2  3  2  0
  3  4  1  0
  4  5  2  0
  5  6  1  0
  6  7  1  0
  7  8  1  0
  8  9  1  0
  9 10  1  0
 10 11  1  0
 11 12  2  0
 12 13  1  0
 13 14  1  0
 14 15  1  0
 15 16  2  0
 16 17  1  0
 17 18  2  0
 18 19  1  0
 19 20  1  0
 20 21  1  0
 21 22  2  0
 21 23  1  0
 23 24  1  0
 24 25  1  0
 25 26  1  0
 26 27  1  0
 27 28  1  0
 18 29  1  0
 29 30  2  0
 14 31  2  0
  6 32  2  0
 32  2  1  0
 31 11  1  0
 30 15  1  0
 28 23  1  0
  1 33  1  0
  1 34  1  0
  1 35  1  0
  3 36  1  0
  4 37  1  0
  5 38  1  0
  7 39  1  0
  7 40  1  0
  8 41  1  0
  8 42  1  0
  9 43  1  0
 10 44  1  0
 10 45  1  0
 12 46  1  0
 16 47  1  0
 17 48  1  0
 20 49  1  0
 20 50  1  0
 24 51  1  0
 24 52  1  0
 25 53  1  0
 25 54  1  0
 27 55  1  0
 27 56  1  0
 28 57  1  0
 28 58  1  0
 29 59  1  0
 30 60  1  0
 32 61  1  0
M  END
>  <UniqueID>  (53) 
53

>  <SMILES>  (53) 
Cc1cccc(CCNCc2coc(-c3ccc(OCC(=O)N4CCOCC4)cc3)n2)c1

>  <Energy>  (53) 
92.30429698051711

>  <Genealogy>  (53) 
Cc1cccc(CCNCc2coc(-c3ccc(OCC(=O)N4CCOCC4)cc3)n2)c1 (3D coordinates assigned)
Cc1cccc(CCNCc2coc(-c3ccc(OCC(=O)N4CCOCC4)cc3)n2)c1 (nonaromatic ring conformer: 92.30429698051711 kcal/mol)

>  <smiles>  (53) 
Cc1cccc(CCNCc2coc(-c3ccc(OCC(=O)N4CCOCC4)cc3)n2)c1

>  <score_type>  (53) 
oracle

>  <origin>  (53) 
adg

>  <m_score__min__energy>  (53) 
-9.5800000000000001

>  <m_primary>  (53) 
energy

$$$$
53:0
     RDKit          3D

 56 59  0  0  0  0  0  0  0  0999 V2000
   58.5270   34.4300   52.5960 C   0  0  0  0  0  0  0  0  0  0  0  0
   59.1330   33.4410   51.6470 C   0  0  0  0  0  0  0  0  0  0  0  0
   58.6000   32.1490   51.5360 C   0  0  0  0  0  0  0  0  0  0  0  0
   59.1500   31.2300   50.6310 C   0  0  0  0  0  0  0  0  0  0  0  0
   58.5490   29.8620   50.4910 C   0  0  0  0  0  0  0  0  0  0  0  0
   60.2090   31.6250   49.8000 C   0  0  0  0  0  0  0  0  0  0  0  0
   60.7370   32.9270   49.8820 C   0  0  0  0  0  0  0  0  0  0  0  0
   61.8150   33.3670   49.0350 N   0  0  0  0  0  0  0  0  0  0  0  0
   61.9570   32.9730   47.3490 S   0  0  0  0  0  0  0  0  0  0  0  0
   62.3300   34.2120   46.5860 O   0  0  0  0  0  0  0  0  0  0  0  0
   63.0390   31.9440   47.1770 O   0  0  0  0  0  0  0  0  0  0  0  0
   60.4260   32.3640   46.7240 C   0  0  0  0  0  0  0  0  0  0  0  0
   59.3430   33.2370   46.5570 C   0  0  0  0  0  0  0  0  0  0  0  0
   58.1270   32.7630   46.0560 C   0  0  0  0  0  0  0  0  0  0  0  0
   57.9880   31.4140   45.7150 C   0  0  0  0  0  0  0  0  0  0  0  0
   56.8080   30.9550   45.2340 N   0  0  0  0  0  0  0  0  0  0  0  0
   56.6370   29.6520   44.8920 C   0  0  0  0  0  0  0  0  0  0  0  0
   55.5120   29.2810   44.4640 O   0  0  0  0  0  0  0  0  0  0  0  0
   57.6750   28.7590   45.0120 N   0  0  0  0  0  0  0  0  0  0  0  0
   57.4830   27.3410   44.6540 C   0  0  0  0  0  0  0  0  0  0  0  0
   56.6740   26.6510   45.7060 C   0  0  0  0  0  0  0  0  0  0  0  0
   55.5310   27.0910   46.0020 O   0  0  0  0  0  0  0  0  0  0  0  0
   57.2050   25.4880   46.3540 N   0  0  0  0  0  0  0  0  0  0  0  0
   57.6750   24.2950   45.7120 C   0  0  0  0  0  0  0  0  0  0  0  0
   59.0030   23.8530   45.8440 C   0  0  0  0  0  0  0  0  0  0  0  0
   59.4320   22.7080   45.1680 C   0  0  0  0  0  0  0  0  0  0  0  0
   58.5480   22.0000   44.3500 C   0  0  0  0  0  0  0  0  0  0  0  0
   57.2230   22.4390   44.1900 C   0  0  0  0  0  0  0  0  0  0  0  0
   56.2900   21.6950   43.3160 C   0  0  0  0  0  0  0  0  0  0  0  0
   55.8090   22.2340   42.2830 O   0  0  0  0  0  0  0  0  0  0  0  0
   55.9290   20.3870   43.6240 O   0  0  0  0  0  0  0  0  0  0  0  0
   56.7990   23.5960   44.8700 C   0  0  0  0  0  0  0  0  0  0  0  0
   58.8830   29.1810   45.5160 C   0  0  0  0  0  0  0  0  0  0  0  0
   59.8330   28.3600   45.6580 O   0  0  0  0  0  0  0  0  0  0  0  0
   59.0680   30.5270   45.8790 C   0  0  0  0  0  0  0  0  0  0  0  0
   60.2850   31.0080   46.3950 C   0  0  0  0  0  0  0  0  0  0  0  0
   60.1890   33.8260   50.8090 C   0  0  0  0  0  0  0  0  0  0  0  0
   58.7218   34.1120   53.6309 H   0  0  0  0  0  0  0  0  0  0  0  0
   58.9730   35.4212   52.4269 H   0  0  0  0  0  0  0  0  0  0  0  0
   57.4414   34.4827   52.4269 H   0  0  0  0  0  0  0  0  0  0  0  0
   57.7452   31.8545   52.1626 H   0  0  0  0  0  0  0  0  0  0  0  0
   58.3632   29.4392   51.4894 H   0  0  0  0  0  0  0  0  0  0  0  0
   57.5993   29.9333   49.9405 H   0  0  0  0  0  0  0  0  0  0  0  0
   59.2439   29.2108   49.9405 H   0  0  0  0  0  0  0  0  0  0  0  0
   60.6306   30.9105   49.0777 H   0  0  0  0  0  0  0  0  0  0  0  0
   62.5380   34.0110   49.4280 H   0  0  0  0  0  0  0  0  0  0  0  0
   59.4499   34.2995   46.8211 H   0  0  0  0  0  0  0  0  0  0  0  0
   57.2787   33.4519   45.9299 H   0  0  0  0  0  0  0  0  0  0  0  0
   56.9570   27.2770   43.6900 H   0  0  0  0  0  0  0  0  0  0  0  0
   58.4656   26.8526   44.5769 H   0  0  0  0  0  0  0  0  0  0  0  0
   59.7059   24.4099   46.4810 H   0  0  0  0  0  0  0  0  0  0  0  0
   60.4703   22.3625   45.2803 H   0  0  0  0  0  0  0  0  0  0  0  0
   58.8911   21.0942   43.8286 H   0  0  0  0  0  0  0  0  0  0  0  0
   55.7679   23.9561   44.7392 H   0  0  0  0  0  0  0  0  0  0  0  0
   61.1292   30.3180   46.5410 H   0  0  0  0  0  0  0  0  0  0  0  0
   60.5932   34.8466   50.8794 H   0  0  0  0  0  0  0  0  0  0  0  0
  1  2  1  0
  2  3  2  0
  3  4  1  0
  4  5  1  0
  4  6  2  0
  6  7  1  0
  7  8  1  0
  8  9  1  0
  9 10  2  0
  9 11  2  0
  9 12  1  0
 12 13  2  0
 13 14  1  0
 14 15  2  0
 15 16  1  0
 16 17  1  0
 17 18  2  0
 17 19  1  0
 19 20  1  0
 20 21  1  0
 21 22  2  0
 21 23  1  0
 23 24  1  0
 24 25  2  0
 25 26  1  0
 26 27  2  0
 27 28  1  0
 28 29  1  0
 29 30  2  0
 29 31  1  0
 28 32  2  0
 19 33  1  0
 33 34  2  0
 33 35  1  0
 35 36  2  0
  7 37  2  0
 37  2  1  0
 36 12  1  0
 35 15  1  0
 32 24  1  0
  1 38  1  0
  1 39  1  0
  1 40  1  0
  3 41  1  0
  5 42  1  0
  5 43  1  0
  5 44  1  0
  6 45  1  0
  8 46  1  0
 13 47  1  0
 14 48  1  0
 20 49  1  0
 20 50  1  0
 25 51  1  0
 26 52  1  0
 27 53  1  0
 32 54  1  0
 36 55  1  0
 37 56  1  0
M  CHG  3  16  -1  23  -1  31  -1
M  END
>  <UniqueID>  (54) 
54

>  <SMILES>  (54) 
Cc1cc(C)cc(NS(=O)(=O)c2ccc3[n-]c(=O)n(CC(=O)[N-]c4cccc(C(=O)[O-])c4)c(=O)c3c2)c1

>  <Energy>  (54) 
72.06809819472757

>  <Genealogy>  (54) 
Cc1cc(C)cc(NS(=O)(=O)c2ccc3[n-]c(=O)n(CC(=O)[N-]c4cccc(C(=O)[O-])c4)c(=O)c3c2)c1 (protonated)
Cc1cc(C)cc(NS(=O)(=O)c2ccc3[n-]c(=O)n(CC(=O)[N-]c4cccc(C(=O)[O-])c4)c(=O)c3c2)c1 (3D coordinates assigned)
Cc1cc(C)cc(NS(=O)(=O)c2ccc3[n-]c(=O)n(CC(=O)[N-]c4cccc(C(=O)[O-])c4)c(=O)c3c2)c1 (optimized conformer: 72.06809819472757 kcal/mol)

>  <smiles>  (54) 
Cc1cc(C)cc(NS(=O)(=O)c2ccc3[nH]c(=O)n(CC(=O)Nc4cccc(C(=O)O)c4)c(=O)c3c2)c1

>  <score_type>  (54) 
oracle

>  <origin>  (54) 
adg

>  <m_score__min__energy>  (54) 
-16.359999999999999

>  <m_primary>  (54) 
energy

$$$$
54:0
     RDKit          3D

 44 46  0  0  0  0  0  0  0  0999 V2000
   57.9680   27.6110   47.7590 H   0  0  0  0  0  0  0  0  0  0  0  0
   57.6760   27.4900   46.7960 O   0  0  0  0  0  0  0  0  0  0  0  0
   57.2440   28.5780   46.0400 C   0  0  0  0  0  0  0  0  0  0  0  0
   56.1630   28.4470   45.2250 N   0  0  0  0  0  0  0  0  0  0  0  0
   55.7150   29.4910   44.4810 C   0  0  0  0  0  0  0  0  0  0  0  0
   54.7160   29.3440   43.7290 O   0  0  0  0  0  0  0  0  0  0  0  0
   56.3400   30.6950   44.5500 N   0  0  0  0  0  0  0  0  0  0  0  0
   57.4230   30.8780   45.3490 C   0  0  0  0  0  0  0  0  0  0  0  0
   57.9660   32.0140   45.4040 O   0  0  0  0  0  0  0  0  0  0  0  0
   57.9220   29.8040   46.1080 C   0  0  0  0  0  0  0  0  0  0  0  0
   59.0690   29.9700   47.0200 C   0  0  0  0  0  0  0  0  0  0  0  0
   60.0732   29.9617   46.5712 H   0  0  0  0  0  0  0  0  0  0  0  0
   58.9930   30.1310   48.3560 C   0  0  0  0  0  0  0  0  0  0  0  0
   59.3780   29.1450   49.2470 C   0  0  0  0  0  0  0  0  0  0  0  0
   59.8124   28.1668   48.9930 H   0  0  0  0  0  0  0  0  0  0  0  0
   59.1140   29.6210   50.5130 C   0  0  0  0  0  0  0  0  0  0  0  0
   59.3560   28.8480   51.7750 C   0  0  0  0  0  0  0  0  0  0  0  0
   59.1544   29.4919   52.6438 H   0  0  0  0  0  0  0  0  0  0  0  0
   58.6884   27.9742   51.8035 H   0  0  0  0  0  0  0  0  0  0  0  0
   60.4027   28.5109   51.8035 H   0  0  0  0  0  0  0  0  0  0  0  0
   58.5910   30.8690   50.4510 N   0  0  0  0  0  0  0  0  0  0  0  0
   58.2590   31.7150   51.6080 C   0  0  0  0  0  0  0  0  0  0  0  0
   58.7822   31.3352   52.4980 H   0  0  0  0  0  0  0  0  0  0  0  0
   58.5741   32.7481   51.3996 H   0  0  0  0  0  0  0  0  0  0  0  0
   56.7830   31.6950   51.8560 C   0  0  0  0  0  0  0  0  0  0  0  0
   56.2190   32.7070   52.3500 O   0  0  0  0  0  0  0  0  0  0  0  0
   56.0470   30.4890   51.6180 N   0  0  0  0  0  0  0  0  0  0  0  0
   54.6460   30.2750   51.8410 C   0  0  0  0  0  0  0  0  0  0  0  0
   54.1630   29.1470   52.5270 C   0  0  0  0  0  0  0  0  0  0  0  0
   54.8663   28.3870   52.8981 H   0  0  0  0  0  0  0  0  0  0  0  0
   52.7910   28.9900   52.7380 C   0  0  0  0  0  0  0  0  0  0  0  0
   52.4160   28.1001   53.2648 H   0  0  0  0  0  0  0  0  0  0  0  0
   51.8940   29.9580   52.2830 C   0  0  0  0  0  0  0  0  0  0  0  0
   50.8146   29.8220   52.4453 H   0  0  0  0  0  0  0  0  0  0  0  0
   52.3610   31.1050   51.6190 C   0  0  0  0  0  0  0  0  0  0  0  0
   51.4170   32.1470   51.1550 C   0  0  0  0  0  0  0  0  0  0  0  0
   51.0460   32.1860   49.9520 O   0  0  0  0  0  0  0  0  0  0  0  0
   50.9210   33.0940   52.0430 O   0  0  0  0  0  0  0  0  0  0  0  0
   53.7440   31.2570   51.4100 C   0  0  0  0  0  0  0  0  0  0  0  0
   54.1215   32.1569   50.9025 H   0  0  0  0  0  0  0  0  0  0  0  0
   58.5400   31.2100   49.1350 C   0  0  0  0  0  0  0  0  0  0  0  0
   58.1950   32.4330   48.7010 C   0  0  0  0  0  0  0  0  0  0  0  0
   57.8539   33.1949   49.4174 H   0  0  0  0  0  0  0  0  0  0  0  0
   58.2535   32.6730   47.6291 H   0  0  0  0  0  0  0  0  0  0  0  0
  1  2  1  0
  2  3  1  0
  3  4  1  0
  4  5  1  0
  5  6  2  0
  5  7  1  0
  7  8  1  0
  8  9  2  0
  8 10  1  0
 10 11  1  0
 11 12  1  0
 11 13  2  0
 13 14  1  0
 14 15  1  0
 14 16  2  0
 16 17  1  0
 17 18  1  0
 17 19  1  0
 17 20  1  0
 16 21  1  0
 21 22  1  0
 22 23  1  0
 22 24  1  0
 22 25  1  0
 25 26  2  0
 25 27  1  0
 27 28  1  0
 28 29  2  0
 29 30  1  0
 29 31  1  0
 31 32  1  0
 31 33  2  0
 33 34  1  0
 33 35  1  0
 35 36  1  0
 36 37  2  0
 36 38  1  0
 35 39  2  0
 39 40  1  0
 21 41  1  0
 41 42  2  0
 42 43  1  0
 42 44  1  0
 10  3  2  0
 41 13  1  0
 39 28  1  0
M  CHG  4   4  -1   7  -1  27  -1  38  -1
M  END
>  <UniqueID>  (55) 
55

>  <SMILES>  (55) 
C=c1/c(=C\c2c(O)[n-]c(=O)[n-]c2=O)cc(C)n1CC(=O)[N-]c1cccc(C(=O)[O-])c1

>  <Energy>  (55) 
91.15300991203547

>  <Genealogy>  (55) 
C=c1c(=Cc2c(O)[n-]c(=O)[n-]c2=O)cc(C)n1CC(=O)[N-]c1cccc(C(=O)[O-])c1 (protonated)
C=c1/c(=C\c2c(O)[n-]c(=O)[n-]c2=O)cc(C)n1CC(=O)[N-]c1cccc(C(=O)[O-])c1 (cis-trans isomerization)
C=c1/c(=C\c2c(O)[n-]c(=O)[n-]c2=O)cc(C)n1CC(=O)[N-]c1cccc(C(=O)[O-])c1 (3D coordinates assigned)
C=c1/c(=C\c2c(O)[n-]c(=O)[n-]c2=O)cc(C)n1CC(=O)[N-]c1cccc(C(=O)[O-])c1 (optimized conformer: 91.15300991203547 kcal/mol)

>  <smiles>  (55) 
C=c1c(=Cc2c(O)[nH]c(=O)[nH]c2=O)cc(C)n1CC(=O)Nc1cccc(C(=O)O)c1

>  <score_type>  (55) 
oracle

>  <origin>  (55) 
adg

>  <m_score__min__energy>  (55) 
-16.210000000000001

>  <m_primary>  (55) 
energy

$$$$
55:0
     RDKit          3D

 59 62  0  0  0  0  0  0  0  0999 V2000
   57.3269   26.1602   48.3592 H   0  0  0  0  0  0  0  0  0  0  0  0
   57.0310   25.5460   47.4960 C   0  0  0  0  0  0  0  0  0  0  0  0
   56.4033   24.6549   47.6444 H   0  0  0  0  0  0  0  0  0  0  0  0
   57.4360   25.8840   46.2610 C   0  0  0  0  0  0  0  0  0  0  0  0
   57.1380   25.2000   45.0770 C   0  0  0  0  0  0  0  0  0  0  0  0
   56.3930   24.0860   44.9410 C   0  0  0  0  0  0  0  0  0  0  0  0
   56.9007   23.1601   44.6327 H   0  0  0  0  0  0  0  0  0  0  0  0
   54.9380   24.0310   45.1800 C   0  0  0  0  0  0  0  0  0  0  0  0
   54.1760   22.9720   44.8560 N   0  0  0  0  0  0  0  0  0  0  0  0
   52.9220   23.3840   45.1470 C   0  0  0  0  0  0  0  0  0  0  0  0
   51.9120   22.6500   44.9860 O   0  0  0  0  0  0  0  0  0  0  0  0
   52.8340   24.6490   45.6090 N   0  0  0  0  0  0  0  0  0  0  0  0
   54.1160   25.0500   45.6120 C   0  0  0  0  0  0  0  0  0  0  0  0
   54.5150   26.3380   45.9520 O   0  0  0  0  0  0  0  0  0  0  0  0
   57.7250   25.9270   44.0490 C   0  0  0  0  0  0  0  0  0  0  0  0
   57.6846   25.6952   42.9745 H   0  0  0  0  0  0  0  0  0  0  0  0
   58.3690   26.9970   44.6380 C   0  0  0  0  0  0  0  0  0  0  0  0
   59.1570   28.0290   43.8890 C   0  0  0  0  0  0  0  0  0  0  0  0
   59.6642   28.6933   44.6041 H   0  0  0  0  0  0  0  0  0  0  0  0
   59.9064   27.5304   43.2566 H   0  0  0  0  0  0  0  0  0  0  0  0
   58.4787   28.6206   43.2566 H   0  0  0  0  0  0  0  0  0  0  0  0
   58.1930   26.9760   45.9790 N   0  0  0  0  0  0  0  0  0  0  0  0
   58.7860   27.8930   46.9130 C   0  0  0  0  0  0  0  0  0  0  0  0
   59.7380   27.5110   47.6490 O   0  0  0  0  0  0  0  0  0  0  0  0
   58.2810   29.2330   47.0260 N   0  0  0  0  0  0  0  0  0  0  0  0
   57.2920   29.4050   46.7400 H   0  0  0  0  0  0  0  0  0  0  0  0
   59.0150   30.3040   47.6390 C   0  0  0  0  0  0  0  0  0  0  0  0
   59.2690   30.3090   49.0220 C   0  0  0  0  0  0  0  0  0  0  0  0
   58.8980   29.4856   49.6500 H   0  0  0  0  0  0  0  0  0  0  0  0
   59.9910   31.3560   49.6020 C   0  0  0  0  0  0  0  0  0  0  0  0
   60.1895   31.3495   50.6839 H   0  0  0  0  0  0  0  0  0  0  0  0
   60.4640   32.4150   48.8130 C   0  0  0  0  0  0  0  0  0  0  0  0
   61.2140   33.5280   49.4340 C   0  0  0  0  0  0  0  0  0  0  0  0
   60.6000   34.5900   49.7300 O   0  0  0  0  0  0  0  0  0  0  0  0
   62.6220   33.4170   49.7230 N   0  0  0  0  0  0  0  0  0  0  0  0
   63.5400   32.7920   48.7620 C   0  0  0  0  0  0  0  0  0  0  0  0
   62.9672   32.1402   48.0860 H   0  0  0  0  0  0  0  0  0  0  0  0
   64.0464   33.5827   48.1890 H   0  0  0  0  0  0  0  0  0  0  0  0
   64.6010   31.9530   49.4950 C   0  0  0  0  0  0  0  0  0  0  0  0
   64.1826   30.9543   49.6886 H   0  0  0  0  0  0  0  0  0  0  0  0
   65.4885   31.9143   48.8462 H   0  0  0  0  0  0  0  0  0  0  0  0
   65.0310   32.5430   50.7910 N   0  0  0  0  0  0  0  0  0  0  0  0
   66.4350   32.2270   51.1370 C   0  0  0  0  0  0  0  0  0  0  0  0
   66.5432   32.2835   52.2302 H   0  0  0  0  0  0  0  0  0  0  0  0
   66.6418   31.2210   50.7430 H   0  0  0  0  0  0  0  0  0  0  0  0
   67.4640   33.1760   50.4990 C   0  0  0  0  0  0  0  0  0  0  0  0
   68.0254   33.6938   51.2906 H   0  0  0  0  0  0  0  0  0  0  0  0
   68.1601   32.5962   49.8751 H   0  0  0  0  0  0  0  0  0  0  0  0
   66.9423   33.9166   49.8751 H   0  0  0  0  0  0  0  0  0  0  0  0
   64.6940   33.9690   50.9550 C   0  0  0  0  0  0  0  0  0  0  0  0
   65.0507   34.3198   51.9346 H   0  0  0  0  0  0  0  0  0  0  0  0
   65.1767   34.5540   50.1582 H   0  0  0  0  0  0  0  0  0  0  0  0
   63.1770   34.1470   50.8710 C   0  0  0  0  0  0  0  0  0  0  0  0
   62.7187   33.7653   51.7952 H   0  0  0  0  0  0  0  0  0  0  0  0
   62.9571   35.2173   50.7441 H   0  0  0  0  0  0  0  0  0  0  0  0
   60.2430   32.3880   47.4260 C   0  0  0  0  0  0  0  0  0  0  0  0
   60.6333   33.1995   46.7942 H   0  0  0  0  0  0  0  0  0  0  0  0
   59.5300   31.3360   46.8440 C   0  0  0  0  0  0  0  0  0  0  0  0
   59.3724   31.3184   45.7555 H   0  0  0  0  0  0  0  0  0  0  0  0
  1  2  1  0
  2  3  1  0
  2  4  2  0
  4  5  1  0
  5  6  2  0
  6  7  1  0
  6  8  1  0
  8  9  1  0
  9 10  1  0
 10 11  2  0
 10 12  1  0
 12 13  1  0
 13 14  1  0
  5 15  1  0
 15 16  1  0
 15 17  2  0
 17 18  1  0
 18 19  1  0
 18 20  1  0
 18 21  1  0
 17 22  1  0
 22 23  1  0
 23 24  2  0
 23 25  1  0
 25 26  1  0
 25 27  1  0
 27 28  2  0
 28 29  1  0
 28 30  1  0
 30 31  1  0
 30 32  2  0
 32 33  1  0
 33 34  2  0
 33 35  1  0
 35 36  1  0
 36 37  1  0
 36 38  1  0
 36 39  1  0
 39 40  1  0
 39 41  1  0
 39 42  1  0
 42 43  1  0
 43 44  1  0
 43 45  1  0
 43 46  1  0
 46 47  1  0
 46 48  1  0
 46 49  1  0
 42 50  1  0
 50 51  1  0
 50 52  1  0
 50 53  1  0
 53 54  1  0
 53 55  1  0
 32 56  1  0
 56 57  1  0
 56 58  2  0
 58 59  1  0
 22  4  1  0
 58 27  1  0
 13  8  2  0
 53 35  1  0
M  CHG  3   9  -1  12  -1  14  -1
M  END
>  <UniqueID>  (56) 
56

>  <SMILES>  (56) 
C=c1/c(=C/c2[n-]c(=O)[n-]c2[O-])cc(C)n1C(=O)Nc1ccc(C(=O)N2CCN(CC)CC2)cc1

>  <Energy>  (56) 
146.66376605470788

>  <Genealogy>  (56) 
C=c1c(=Cc2[n-]c(=O)[n-]c2[O-])cc(C)n1C(=O)Nc1ccc(C(=O)N2CCN(CC)CC2)cc1 (protonated)
C=c1/c(=C/c2[n-]c(=O)[n-]c2[O-])cc(C)n1C(=O)Nc1ccc(C(=O)N2CCN(CC)CC2)cc1 (cis-trans isomerization)
C=c1/c(=C/c2[n-]c(=O)[n-]c2[O-])cc(C)n1C(=O)Nc1ccc(C(=O)N2CCN(CC)CC2)cc1 (3D coordinates assigned)
C=c1/c(=C/c2[n-]c(=O)[n-]c2[O-])cc(C)n1C(=O)Nc1ccc(C(=O)N2CCN(CC)CC2)cc1 (nonaromatic ring conformer: 146.66376605470788 kcal/mol)

>  <smiles>  (56) 
C=c1c(=Cc2[nH]c(=O)[nH]c2O)cc(C)n1C(=O)Nc1ccc(C(=O)N2CCN(CC)CC2)cc1

>  <score_type>  (56) 
oracle

>  <origin>  (56) 
adg

>  <m_score__min__energy>  (56) 
-16.43

>  <m_primary>  (56) 
energy

$$$$
56:0
     RDKit          3D

 36 37  0  0  0  0  0  0  0  0999 V2000
   59.6060   26.9350   45.7880 N   0  0  0  0  0  0  0  0  0  0  0  0
   58.2970   27.5030   45.6600 C   0  0  0  0  0  0  0  0  0  0  0  0
   57.1760   26.6980   45.9050 C   0  0  0  0  0  0  0  0  0  0  0  0
   55.8970   27.2110   45.6910 C   0  0  0  0  0  0  0  0  0  0  0  0
   54.7810   26.4170   45.9240 O   0  0  0  0  0  0  0  0  0  0  0  0
   55.7380   28.4830   45.2430 N   0  0  0  0  0  0  0  0  0  0  0  0
   56.8010   29.2980   45.0090 C   0  0  0  0  0  0  0  0  0  0  0  0
   56.6020   30.4720   44.6000 O   0  0  0  0  0  0  0  0  0  0  0  0
   58.1080   28.8380   45.2350 C   0  0  0  0  0  0  0  0  0  0  0  0
   59.2080   29.7300   45.0150 N   0  0  0  0  0  0  0  0  0  0  0  0
   60.2090   30.0300   45.9920 C   0  0  0  0  0  0  0  0  0  0  0  0
   61.0800   29.1720   46.3010 O   0  0  0  0  0  0  0  0  0  0  0  0
   60.1790   31.3430   46.7070 C   0  0  0  0  0  0  0  0  0  0  0  0
   61.5190   31.7020   47.1570 N   0  0  0  0  0  0  0  0  0  0  0  0
   61.8300   32.9370   47.8060 C   0  0  0  0  0  0  0  0  0  0  0  0
   62.8920   33.5550   47.5220 O   0  0  0  0  0  0  0  0  0  0  0  0
   60.9400   33.4480   48.7560 O   0  0  0  0  0  0  0  0  0  0  0  0
   60.0740   34.5530   48.5030 C   0  0  0  0  0  0  0  0  0  0  0  0
   59.2590   34.3070   47.2630 C   0  0  0  0  0  0  0  0  0  0  0  0
   59.6850   34.8240   46.0290 C   0  0  0  0  0  0  0  0  0  0  0  0
   58.9420   34.5840   44.8690 C   0  0  0  0  0  0  0  0  0  0  0  0
   57.7720   33.8230   44.9320 C   0  0  0  0  0  0  0  0  0  0  0  0
   57.3430   33.3000   46.1550 C   0  0  0  0  0  0  0  0  0  0  0  0
   58.0840   33.5390   47.3180 C   0  0  0  0  0  0  0  0  0  0  0  0
   59.7480   25.9470   46.0950 H   0  0  0  0  0  0  0  0  0  0  0  0
   60.4560   27.5280   45.6630 H   0  0  0  0  0  0  0  0  0  0  0  0
   57.3045   25.6663   46.2644 H   0  0  0  0  0  0  0  0  0  0  0  0
   59.8046   32.1200   46.0243 H   0  0  0  0  0  0  0  0  0  0  0  0
   59.5167   31.2606   47.5814 H   0  0  0  0  0  0  0  0  0  0  0  0
   59.3980   34.6875   49.3603 H   0  0  0  0  0  0  0  0  0  0  0  0
   60.6828   35.4573   48.3563 H   0  0  0  0  0  0  0  0  0  0  0  0
   60.6075   35.4206   45.9745 H   0  0  0  0  0  0  0  0  0  0  0  0
   59.2790   34.9948   43.9058 H   0  0  0  0  0  0  0  0  0  0  0  0
   57.1883   33.6354   44.0187 H   0  0  0  0  0  0  0  0  0  0  0  0
   56.4223   32.7001   46.2035 H   0  0  0  0  0  0  0  0  0  0  0  0
   57.7451   33.1240   48.2787 H   0  0  0  0  0  0  0  0  0  0  0  0
  1  2  1  0
  2  3  1  0
  3  4  2  0
  4  5  1  0
  4  6  1  0
  6  7  1  0
  7  8  2  0
  7  9  1  0
  9 10  1  0
 10 11  1  0
 11 12  2  0
 11 13  1  0
 13 14  1  0
 14 15  1  0
 15 16  2  0
 15 17  1  0
 17 18  1  0
 18 19  1  0
 19 20  2  0
 20 21  1  0
 21 22  2  0
 22 23  1  0
 23 24  2  0
  9  2  2  0
 24 19  1  0
  1 25  1  0
  1 26  1  0
  3 27  1  0
 13 28  1  0
 13 29  1  0
 18 30  1  0
 18 31  1  0
 20 32  1  0
 21 33  1  0
 22 34  1  0
 23 35  1  0
 24 36  1  0
M  CHG  4   5  -1   6  -1  10  -1  14  -1
M  END
>  <UniqueID>  (57) 
57

>  <SMILES>  (57) 
Nc1cc([O-])[n-]c(=O)c1[N-]C(=O)C[N-]C(=O)OCc1ccccc1

>  <Energy>  (57) 
39.17060634641738

>  <Genealogy>  (57) 
Nc1cc([O-])[n-]c(=O)c1[N-]C(=O)C[N-]C(=O)OCc1ccccc1 (protonated)
Nc1cc([O-])[n-]c(=O)c1[N-]C(=O)C[N-]C(=O)OCc1ccccc1 (3D coordinates assigned)
Nc1cc([O-])[n-]c(=O)c1[N-]C(=O)C[N-]C(=O)OCc1ccccc1 (optimized conformer: 39.17060634641738 kcal/mol)

>  <smiles>  (57) 
Nc1cc(O)[nH]c(=O)c1NC(=O)CNC(=O)OCc1ccccc1

>  <score_type>  (57) 
oracle

>  <origin>  (57) 
adg

>  <m_score__min__energy>  (57) 
-14.609999999999999

>  <m_primary>  (57) 
energy

$$$$
57:0
     RDKit          3D

 66 69  0  0  0  0  0  0  0  0999 V2000
   58.5330   33.4610   51.8630 C   0  0  0  0  0  0  0  0  0  0  0  0
   58.9170   33.3280   50.4480 N   0  0  0  0  0  0  0  0  0  0  0  0
   60.3500   33.6330   50.2390 C   0  0  0  0  0  0  0  0  0  0  0  0
   60.6520   33.7130   48.7670 C   0  0  0  0  0  0  0  0  0  0  0  0
   61.8570   33.1840   48.2770 C   0  0  0  0  0  0  0  0  0  0  0  0
   62.1470   33.2400   46.9130 C   0  0  0  0  0  0  0  0  0  0  0  0
   61.2430   33.8310   46.0280 C   0  0  0  0  0  0  0  0  0  0  0  0
   60.0370   34.3700   46.5030 C   0  0  0  0  0  0  0  0  0  0  0  0
   59.0300   34.9490   45.5400 C   0  0  0  0  0  0  0  0  0  0  0  0
   58.2000   33.8660   44.8250 C   0  0  0  0  0  0  0  0  0  0  0  0
   57.4990   32.9030   45.7920 C   0  0  0  0  0  0  0  0  0  0  0  0
   56.6200   32.0100   45.0440 N   0  0  0  0  0  0  0  0  0  0  0  0
   57.0140   30.7310   44.5420 C   0  0  0  0  0  0  0  0  0  0  0  0
   56.9160   30.4860   43.3070 O   0  0  0  0  0  0  0  0  0  0  0  0
   57.5320   29.7020   45.4710 C   0  0  0  0  0  0  0  0  0  0  0  0
   58.4910   30.0330   46.4420 C   0  0  0  0  0  0  0  0  0  0  0  0
   59.0100   29.0510   47.2890 C   0  0  0  0  0  0  0  0  0  0  0  0
   58.5780   27.7220   47.1860 C   0  0  0  0  0  0  0  0  0  0  0  0
   59.1270   26.7480   48.0210 O   0  0  0  0  0  0  0  0  0  0  0  0
   57.6050   27.3730   46.2270 C   0  0  0  0  0  0  0  0  0  0  0  0
   57.1150   25.9760   46.1040 C   0  0  0  0  0  0  0  0  0  0  0  0
   58.0340   24.9100   46.0940 C   0  0  0  0  0  0  0  0  0  0  0  0
   57.5850   23.5860   46.0320 C   0  0  0  0  0  0  0  0  0  0  0  0
   58.5010   22.5390   46.0340 O   0  0  0  0  0  0  0  0  0  0  0  0
   56.2160   23.3150   45.9810 C   0  0  0  0  0  0  0  0  0  0  0  0
   55.2930   24.3620   45.9940 C   0  0  0  0  0  0  0  0  0  0  0  0
   55.7330   25.6900   46.0470 C   0  0  0  0  0  0  0  0  0  0  0  0
   54.7930   26.7150   46.0310 O   0  0  0  0  0  0  0  0  0  0  0  0
   57.0890   28.3690   45.3790 C   0  0  0  0  0  0  0  0  0  0  0  0
   59.7500   34.3140   47.8760 C   0  0  0  0  0  0  0  0  0  0  0  0
   58.4870   32.0340   49.8520 C   0  0  0  0  0  0  0  0  0  0  0  0
   59.2840   30.8320   50.3320 C   0  0  0  0  0  0  0  0  0  0  0  0
   60.4380   30.4190   49.6450 C   0  0  0  0  0  0  0  0  0  0  0  0
   61.1520   29.2950   50.0730 C   0  0  0  0  0  0  0  0  0  0  0  0
   60.7370   28.5800   51.2020 C   0  0  0  0  0  0  0  0  0  0  0  0
   61.6590   27.1670   51.7050 Cl  0  0  0  0  0  0  0  0  0  0  0  0
   59.6020   29.0010   51.9140 C   0  0  0  0  0  0  0  0  0  0  0  0
   59.0570   28.1440   53.3490 Cl  0  0  0  0  0  0  0  0  0  0  0  0
   58.8870   30.1260   51.4820 C   0  0  0  0  0  0  0  0  0  0  0  0
   59.3793   33.1679   52.5017 H   0  0  0  0  0  0  0  0  0  0  0  0
   58.2604   34.5059   52.0723 H   0  0  0  0  0  0  0  0  0  0  0  0
   57.6725   32.8086   52.0723 H   0  0  0  0  0  0  0  0  0  0  0  0
   60.5898   34.5965   50.7125 H   0  0  0  0  0  0  0  0  0  0  0  0
   60.9576   32.8337   50.6884 H   0  0  0  0  0  0  0  0  0  0  0  0
   62.5754   32.7235   48.9712 H   0  0  0  0  0  0  0  0  0  0  0  0
   63.0895   32.8178   46.5344 H   0  0  0  0  0  0  0  0  0  0  0  0
   61.4769   33.8744   44.9540 H   0  0  0  0  0  0  0  0  0  0  0  0
   58.3460   35.6051   46.0984 H   0  0  0  0  0  0  0  0  0  0  0  0
   59.5871   35.5029   44.7700 H   0  0  0  0  0  0  0  0  0  0  0  0
   57.4347   34.3618   44.2098 H   0  0  0  0  0  0  0  0  0  0  0  0
   58.8965   33.2691   44.2178 H   0  0  0  0  0  0  0  0  0  0  0  0
   58.2538   32.3089   46.3280 H   0  0  0  0  0  0  0  0  0  0  0  0
   56.9033   33.4806   46.5142 H   0  0  0  0  0  0  0  0  0  0  0  0
   58.8360   31.0732   46.5363 H   0  0  0  0  0  0  0  0  0  0  0  0
   59.7636   29.3231   48.0427 H   0  0  0  0  0  0  0  0  0  0  0  0
   59.9100   26.9510   48.6310 H   0  0  0  0  0  0  0  0  0  0  0  0
   59.1131   25.1191   46.1352 H   0  0  0  0  0  0  0  0  0  0  0  0
   55.8642   22.2740   45.9305 H   0  0  0  0  0  0  0  0  0  0  0  0
   54.2155   24.1428   45.9625 H   0  0  0  0  0  0  0  0  0  0  0  0
   56.3270   28.1022   44.6318 H   0  0  0  0  0  0  0  0  0  0  0  0
   58.8116   34.7442   48.2559 H   0  0  0  0  0  0  0  0  0  0  0  0
   57.4295   31.8711   50.1072 H   0  0  0  0  0  0  0  0  0  0  0  0
   58.6563   32.1133   48.7680 H   0  0  0  0  0  0  0  0  0  0  0  0
   60.7819   30.9829   48.7654 H   0  0  0  0  0  0  0  0  0  0  0  0
   62.0452   28.9711   49.5187 H   0  0  0  0  0  0  0  0  0  0  0  0
   58.0055   30.4607   52.0485 H   0  0  0  0  0  0  0  0  0  0  0  0
  1  2  1  0
  2  3  1  0
  3  4  1  0
  4  5  2  0
  5  6  1  0
  6  7  2  0
  7  8  1  0
  8  9  1  0
  9 10  1  0
 10 11  1  0
 11 12  1  0
 12 13  1  0
 13 14  2  0
 13 15  1  0
 15 16  2  0
 16 17  1  0
 17 18  2  0
 18 19  1  0
 18 20  1  0
 20 21  1  0
 21 22  2  0
 22 23  1  0
 23 24  1  0
 23 25  2  0
 25 26  1  0
 26 27  2  0
 27 28  1  0
 20 29  2  0
  8 30  2  0
  2 31  1  0
 31 32  1  0
 32 33  2  0
 33 34  1  0
 34 35  2  0
 35 36  1  0
 35 37  1  0
 37 38  1  0
 37 39  2  0
 30  4  1  0
 39 32  1  0
 29 15  1  0
 27 21  1  0
  1 40  1  0
  1 41  1  0
  1 42  1  0
  3 43  1  0
  3 44  1  0
  5 45  1  0
  6 46  1  0
  7 47  1  0
  9 48  1  0
  9 49  1  0
 10 50  1  0
 10 51  1  0
 11 52  1  0
 11 53  1  0
 16 54  1  0
 17 55  1  0
 19 56  1  0
 22 57  1  0
 25 58  1  0
 26 59  1  0
 29 60  1  0
 30 61  1  0
 31 62  1  0
 31 63  1  0
 33 64  1  0
 34 65  1  0
 39 66  1  0
M  CHG  3  12  -1  24  -1  28  -1
M  END
>  <UniqueID>  (58) 
58

>  <SMILES>  (58) 
CN(Cc1cccc(CCC[N-]C(=O)c2ccc(O)c(-c3cc([O-])ccc3[O-])c2)c1)Cc1ccc(Cl)c(Cl)c1

>  <Energy>  (58) 
69.08420561334344

>  <Genealogy>  (58) 
CN(Cc1cccc(CCC[N-]C(=O)c2ccc(O)c(-c3cc([O-])ccc3[O-])c2)c1)Cc1ccc(Cl)c(Cl)c1 (protonated)
CN(Cc1cccc(CCC[N-]C(=O)c2ccc(O)c(-c3cc([O-])ccc3[O-])c2)c1)Cc1ccc(Cl)c(Cl)c1 (3D coordinates assigned)
CN(Cc1cccc(CCC[N-]C(=O)c2ccc(O)c(-c3cc([O-])ccc3[O-])c2)c1)Cc1ccc(Cl)c(Cl)c1 (optimized conformer: 69.08420561334344 kcal/mol)

>  <smiles>  (58) 
CN(Cc1cccc(CCCNC(=O)c2ccc(O)c(-c3cc(O)ccc3O)c2)c1)Cc1ccc(Cl)c(Cl)c1

>  <score_type>  (58) 
oracle

>  <origin>  (58) 
adg

>  <m_score__min__energy>  (58) 
-16.52

>  <m_primary>  (58) 
energy

$$$$
58:0
     RDKit          3D

 72 76  0  0  0  0  0  0  0  0999 V2000
   61.6500   31.4850   48.3680 O   0  0  0  0  0  0  0  0  0  0  0  0
   60.4130   31.2650   48.4530 C   0  0  0  0  0  0  0  0  0  0  0  0
   59.5460   32.2440   49.0340 N   0  0  0  0  0  0  0  0  0  0  0  0
   59.6290   33.6670   48.7290 C   0  0  0  0  0  0  0  0  0  0  0  0
   58.9860   33.9130   47.3930 C   0  0  0  0  0  0  0  0  0  0  0  0
   59.6550   34.6430   46.3960 C   0  0  0  0  0  0  0  0  0  0  0  0
   59.0860   34.7830   45.1280 C   0  0  0  0  0  0  0  0  0  0  0  0
   57.8610   34.1750   44.8380 C   0  0  0  0  0  0  0  0  0  0  0  0
   57.1990   33.4350   45.8200 C   0  0  0  0  0  0  0  0  0  0  0  0
   57.7510   33.3170   47.0950 C   0  0  0  0  0  0  0  0  0  0  0  0
   59.8560   29.9910   47.9770 C   0  0  0  0  0  0  0  0  0  0  0  0
   60.4180   28.7680   48.3800 C   0  0  0  0  0  0  0  0  0  0  0  0
   59.9060   27.5640   47.8870 C   0  0  0  0  0  0  0  0  0  0  0  0
   58.8170   27.5690   47.0100 C   0  0  0  0  0  0  0  0  0  0  0  0
   58.2100   28.7830   46.6460 C   0  0  0  0  0  0  0  0  0  0  0  0
   57.0290   28.7930   45.7630 C   0  0  0  0  0  0  0  0  0  0  0  0
   56.7230   29.8450   45.1430 O   0  0  0  0  0  0  0  0  0  0  0  0
   56.2010   27.6320   45.6230 N   0  0  0  0  0  0  0  0  0  0  0  0
   56.6700   26.2740   45.6620 C   0  0  0  0  0  0  0  0  0  0  0  0
   56.2700   25.4480   46.7260 C   0  0  0  0  0  0  0  0  0  0  0  0
   56.6250   24.0870   46.7540 C   0  0  0  0  0  0  0  0  0  0  0  0
   56.1500   23.1970   47.8440 C   0  0  0  0  0  0  0  0  0  0  0  0
   54.9370   23.2100   48.1910 O   0  0  0  0  0  0  0  0  0  0  0  0
   57.0410   22.2730   48.4710 N   0  0  0  0  0  0  0  0  0  0  0  0
   57.0650   22.1070   49.8890 C   0  0  0  0  0  0  0  0  0  0  0  0
   56.0510   21.3880   50.5360 C   0  0  0  0  0  0  0  0  0  0  0  0
   56.0440   21.2830   51.9300 C   0  0  0  0  0  0  0  0  0  0  0  0
   57.0430   21.9050   52.6860 C   0  0  0  0  0  0  0  0  0  0  0  0
   58.0620   22.6240   52.0460 C   0  0  0  0  0  0  0  0  0  0  0  0
   59.2660   23.4960   52.9970 S   0  0  0  0  0  0  0  0  0  0  0  0
   58.6280   24.7180   53.5980 O   0  0  0  0  0  0  0  0  0  0  0  0
   59.7420   22.6160   54.1200 O   0  0  0  0  0  0  0  0  0  0  0  0
   60.6370   23.9810   52.0230 N   0  0  0  0  0  0  0  0  0  0  0  0
   60.6830   25.4510   51.8350 C   0  0  0  0  0  0  0  0  0  0  0  0
   62.1150   25.9930   51.7630 C   0  0  0  0  0  0  0  0  0  0  0  0
   62.8330   25.6780   53.0710 C   0  0  0  0  0  0  0  0  0  0  0  0
   62.7390   24.1830   53.4340 C   0  0  0  0  0  0  0  0  0  0  0  0
   61.8980   23.3390   52.4570 C   0  0  0  0  0  0  0  0  0  0  0  0
   58.0920   22.6870   50.6440 C   0  0  0  0  0  0  0  0  0  0  0  0
   57.3780   23.5580   45.6940 C   0  0  0  0  0  0  0  0  0  0  0  0
   57.7670   24.3680   44.6280 C   0  0  0  0  0  0  0  0  0  0  0  0
   57.4160   25.7180   44.6010 C   0  0  0  0  0  0  0  0  0  0  0  0
   57.7360   26.4470   43.5050 F   0  0  0  0  0  0  0  0  0  0  0  0
   58.7390   29.9910   47.1250 C   0  0  0  0  0  0  0  0  0  0  0  0
   59.1027   34.2429   49.5045 H   0  0  0  0  0  0  0  0  0  0  0  0
   60.6823   33.9830   48.7013 H   0  0  0  0  0  0  0  0  0  0  0  0
   60.6289   35.1052   46.6145 H   0  0  0  0  0  0  0  0  0  0  0  0
   59.6027   35.3726   44.3564 H   0  0  0  0  0  0  0  0  0  0  0  0
   57.4186   34.2795   43.8363 H   0  0  0  0  0  0  0  0  0  0  0  0
   56.2419   32.9451   45.5876 H   0  0  0  0  0  0  0  0  0  0  0  0
   57.2148   32.7530   47.8724 H   0  0  0  0  0  0  0  0  0  0  0  0
   61.2625   28.7577   49.0848 H   0  0  0  0  0  0  0  0  0  0  0  0
   60.3614   26.6097   48.1901 H   0  0  0  0  0  0  0  0  0  0  0  0
   58.4347   26.6208   46.6042 H   0  0  0  0  0  0  0  0  0  0  0  0
   55.6721   25.8706   47.5469 H   0  0  0  0  0  0  0  0  0  0  0  0
   55.2585   20.9050   49.9455 H   0  0  0  0  0  0  0  0  0  0  0  0
   55.2513   20.7101   52.4333 H   0  0  0  0  0  0  0  0  0  0  0  0
   57.0290   21.8299   53.7833 H   0  0  0  0  0  0  0  0  0  0  0  0
   60.1639   25.7025   50.8984 H   0  0  0  0  0  0  0  0  0  0  0  0
   60.1960   25.9131   52.7064 H   0  0  0  0  0  0  0  0  0  0  0  0
   62.6475   25.5171   50.9264 H   0  0  0  0  0  0  0  0  0  0  0  0
   62.0923   27.0814   51.6050 H   0  0  0  0  0  0  0  0  0  0  0  0
   63.8932   25.9532   52.9697 H   0  0  0  0  0  0  0  0  0  0  0  0
   62.3481   26.2541   53.8728 H   0  0  0  0  0  0  0  0  0  0  0  0
   63.7583   23.7700   53.4550 H   0  0  0  0  0  0  0  0  0  0  0  0
   62.2325   24.1295   54.4090 H   0  0  0  0  0  0  0  0  0  0  0  0
   62.5072   23.1385   51.5633 H   0  0  0  0  0  0  0  0  0  0  0  0
   61.6144   22.4237   52.9971 H   0  0  0  0  0  0  0  0  0  0  0  0
   58.9257   23.1941   50.1363 H   0  0  0  0  0  0  0  0  0  0  0  0
   57.6635   22.4957   45.7045 H   0  0  0  0  0  0  0  0  0  0  0  0
   58.3547   23.9398   43.8026 H   0  0  0  0  0  0  0  0  0  0  0  0
   58.2759   30.9446   46.8314 H   0  0  0  0  0  0  0  0  0  0  0  0
  1  2  2  0
  2  3  1  0
  3  4  1  0
  4  5  1  0
  5  6  2  0
  6  7  1  0
  7  8  2  0
  8  9  1  0
  9 10  2  0
  2 11  1  0
 11 12  2  0
 12 13  1  0
 13 14  2  0
 14 15  1  0
 15 16  1  0
 16 17  2  0
 16 18  1  0
 18 19  1  0
 19 20  2  0
 20 21  1  0
 21 22  1  0
 22 23  2  0
 22 24  1  0
 24 25  1  0
 25 26  2  0
 26 27  1  0
 27 28  2  0
 28 29  1  0
 29 30  1  0
 30 31  2  0
 30 32  2  0
 30 33  1  0
 33 34  1  0
 34 35  1  0
 35 36  1  0
 36 37  1  0
 37 38  1  0
 29 39  2  0
 21 40  2  0
 40 41  1  0
 41 42  2  0
 42 43  1  0
 15 44  2  0
 10  5  1  0
 44 11  1  0
 42 19  1  0
 39 25  1  0
 38 33  1  0
  4 45  1  0
  4 46  1  0
  6 47  1  0
  7 48  1  0
  8 49  1  0
  9 50  1  0
 10 51  1  0
 12 52  1  0
 13 53  1  0
 14 54  1  0
 20 55  1  0
 26 56  1  0
 27 57  1  0
 28 58  1  0
 34 59  1  0
 34 60  1  0
 35 61  1  0
 35 62  1  0
 36 63  1  0
 36 64  1  0
 37 65  1  0
 37 66  1  0
 38 67  1  0
 38 68  1  0
 39 69  1  0
 40 70  1  0
 41 71  1  0
 44 72  1  0
M  CHG  3   3  -1  18  -1  24  -1
M  END
>  <UniqueID>  (59) 
59

>  <SMILES>  (59) 
O=C([N-]Cc1ccccc1)c1cccc(C(=O)[N-]c2cc(C(=O)[N-]c3cccc(S(=O)(=O)N4CCCCC4)c3)ccc2F)c1

>  <Energy>  (59) 
102.25142190345981

>  <Genealogy>  (59) 
O=C([N-]Cc1ccccc1)c1cccc(C(=O)[N-]c2cc(C(=O)[N-]c3cccc(S(=O)(=O)N4CCCCC4)c3)ccc2F)c1 (protonated)
O=C([N-]Cc1ccccc1)c1cccc(C(=O)[N-]c2cc(C(=O)[N-]c3cccc(S(=O)(=O)N4CCCCC4)c3)ccc2F)c1 (3D coordinates assigned)
O=C([N-]Cc1ccccc1)c1cccc(C(=O)[N-]c2cc(C(=O)[N-]c3cccc(S(=O)(=O)N4CCCCC4)c3)ccc2F)c1 (nonaromatic ring conformer: 102.25142190345981 kcal/mol)

>  <smiles>  (59) 
O=C(NCc1ccccc1)c1cccc(C(=O)Nc2cc(C(=O)Nc3cccc(S(=O)(=O)N4CCCCC4)c3)ccc2F)c1

>  <score_type>  (59) 
oracle

>  <origin>  (59) 
adg

>  <m_score__min__energy>  (59) 
-14.68

>  <m_primary>  (59) 
energy

$$$$
59:0
     RDKit          3D

 44 45  0  0  0  0  0  0  0  0999 V2000
   56.5740   28.3370   53.2590 C   0  0  0  0  0  0  0  0  0  0  0  0
   55.7540   29.2800   52.7880 C   0  0  0  0  0  0  0  0  0  0  0  0
   54.4140   29.1460   52.7820 N   0  0  0  0  0  0  0  0  0  0  0  0
   53.8970   30.3060   52.3260 C   0  0  0  0  0  0  0  0  0  0  0  0
   52.5720   30.5040   52.2000 C   0  0  0  0  0  0  0  0  0  0  0  0
   51.8570   30.8460   50.9520 C   0  0  0  0  0  0  0  0  0  0  0  0
   51.7880   30.0840   49.8460 N   0  0  0  0  0  0  0  0  0  0  0  0
   51.0530   30.8290   48.9930 C   0  0  0  0  0  0  0  0  0  0  0  0
   50.7640   30.4420   47.8310 O   0  0  0  0  0  0  0  0  0  0  0  0
   50.6520   32.0210   49.4840 N   0  0  0  0  0  0  0  0  0  0  0  0
   51.1700   32.0160   50.7210 C   0  0  0  0  0  0  0  0  0  0  0  0
   51.0240   33.0650   51.6200 O   0  0  0  0  0  0  0  0  0  0  0  0
   54.9240   31.1960   52.0310 C   0  0  0  0  0  0  0  0  0  0  0  0
   56.1080   30.5360   52.3100 C   0  0  0  0  0  0  0  0  0  0  0  0
   57.4510   31.1160   52.1120 C   0  0  0  0  0  0  0  0  0  0  0  0
   58.4180   30.6510   52.7750 O   0  0  0  0  0  0  0  0  0  0  0  0
   57.6870   32.2590   51.1640 C   0  0  0  0  0  0  0  0  0  0  0  0
   58.8630   31.9740   50.2700 C   0  0  0  0  0  0  0  0  0  0  0  0
   59.1370   30.7770   49.9900 O   0  0  0  0  0  0  0  0  0  0  0  0
   59.6570   33.0750   49.6730 C   0  0  0  0  0  0  0  0  0  0  0  0
   59.5820   34.2280   50.1810 O   0  0  0  0  0  0  0  0  0  0  0  0
   60.4530   32.8530   48.4780 N   0  0  0  0  0  0  0  0  0  0  0  0
   59.7050   33.2820   47.2700 C   0  0  0  0  0  0  0  0  0  0  0  0
   59.5710   34.8030   47.1080 C   0  0  0  0  0  0  0  0  0  0  0  0
   61.8010   33.4590   48.6190 C   0  0  0  0  0  0  0  0  0  0  0  0
   62.7580   33.0530   47.4930 C   0  0  0  0  0  0  0  0  0  0  0  0
   57.6624   28.4956   53.2412 H   0  0  0  0  0  0  0  0  0  0  0  0
   56.1611   27.4017   53.6648 H   0  0  0  0  0  0  0  0  0  0  0  0
   53.8730   28.3080   53.0990 H   0  0  0  0  0  0  0  0  0  0  0  0
   51.9639   30.4018   53.1109 H   0  0  0  0  0  0  0  0  0  0  0  0
   54.8165   32.2226   51.6507 H   0  0  0  0  0  0  0  0  0  0  0  0
   56.7898   32.4057   50.5447 H   0  0  0  0  0  0  0  0  0  0  0  0
   57.8991   33.1659   51.7492 H   0  0  0  0  0  0  0  0  0  0  0  0
   60.6060   31.8200   48.3890 H   0  0  0  0  0  0  0  0  0  0  0  0
   60.2263   32.8873   46.3854 H   0  0  0  0  0  0  0  0  0  0  0  0
   58.6835   32.8889   47.3798 H   0  0  0  0  0  0  0  0  0  0  0  0
   59.5294   35.2752   48.1006 H   0  0  0  0  0  0  0  0  0  0  0  0
   60.4385   35.1905   46.5537 H   0  0  0  0  0  0  0  0  0  0  0  0
   58.6491   35.0329   46.5537 H   0  0  0  0  0  0  0  0  0  0  0  0
   61.6960   34.5540   48.6127 H   0  0  0  0  0  0  0  0  0  0  0  0
   62.2297   33.0944   49.5641 H   0  0  0  0  0  0  0  0  0  0  0  0
   63.6885   32.6583   47.9271 H   0  0  0  0  0  0  0  0  0  0  0  0
   62.2855   32.2778   46.8718 H   0  0  0  0  0  0  0  0  0  0  0  0
   62.9870   33.9315   46.8718 H   0  0  0  0  0  0  0  0  0  0  0  0
  1  2  2  0
  2  3  1  0
  3  4  1  0
  4  5  2  3
  5  6  1  0
  6  7  1  0
  7  8  1  0
  8  9  2  0
  8 10  1  0
 10 11  1  0
 11 12  1  0
  4 13  1  0
 13 14  2  0
 14 15  1  0
 15 16  2  0
 15 17  1  0
 17 18  1  0
 18 19  2  0
 18 20  1  0
 20 21  2  0
 20 22  1  0
 22 23  1  0
 23 24  1  0
 22 25  1  0
 25 26  1  0
 14  2  1  0
 11  6  2  0
  1 27  1  0
  1 28  1  0
  3 29  1  0
  5 30  1  0
 13 31  1  0
 17 32  1  0
 17 33  1  0
 22 34  1  0
 23 35  1  0
 23 36  1  0
 24 37  1  0
 24 38  1  0
 24 39  1  0
 25 40  1  0
 25 41  1  0
 26 42  1  0
 26 43  1  0
 26 44  1  0
M  CHG  4   7  -1  10  -1  12  -1  22   1
M  END
>  <UniqueID>  (60) 
60

>  <SMILES>  (60) 
C=c1[nH]c(=Cc2[n-]c(=O)[n-]c2[O-])cc1C(=O)CC(=O)C(=O)[NH+](CC)CC

>  <Energy>  (60) 
107.78611464441443

>  <Genealogy>  (60) 
C=c1[nH]c(=Cc2[n-]c(=O)[n-]c2[O-])cc1C(=O)CC(=O)C(=O)[NH+](CC)CC (protonated)
C=c1[nH]c(=Cc2[n-]c(=O)[n-]c2[O-])cc1C(=O)CC(=O)C(=O)[NH+](CC)CC (3D coordinates assigned)
C=c1[nH]c(=Cc2[n-]c(=O)[n-]c2[O-])cc1C(=O)CC(=O)C(=O)[NH+](CC)CC (optimized conformer: 107.78611464441443 kcal/mol)

>  <smiles>  (60) 
C=c1[nH]c(=Cc2[nH]c(=O)[nH]c2O)cc1C(=O)CC(=O)C(=O)N(CC)CC

>  <score_type>  (60) 
oracle

>  <origin>  (60) 
adg

>  <m_score__min__energy>  (60) 
-14.74

>  <m_primary>  (60) 
energy

$$$$
60:0
     RDKit          3D

 75 79  0  0  0  0  0  0  0  0999 V2000
   55.5550   29.7330   44.1590 C   0  0  0  0  0  0  0  0  0  0  0  0
   56.2850   30.3160   43.2040 C   0  0  0  0  0  0  0  0  0  0  0  0
   57.3300   31.3470   43.5260 C   0  0  0  0  0  0  0  0  0  0  0  0
   58.0050   31.0080   44.7930 N   0  0  0  0  0  0  0  0  0  0  0  0
   57.8640   31.8200   45.8880 C   0  0  0  0  0  0  0  0  0  0  0  0
   57.1300   32.8430   45.8440 O   0  0  0  0  0  0  0  0  0  0  0  0
   58.5210   31.5370   47.0390 N   0  0  0  0  0  0  0  0  0  0  0  0
   59.3210   30.4500   47.1600 C   0  0  0  0  0  0  0  0  0  0  0  0
   60.0310   30.2520   48.3870 N   0  0  0  0  0  0  0  0  0  0  0  0
   60.8970   31.3290   48.8800 C   0  0  0  0  0  0  0  0  0  0  0  0
   61.4080   31.0480   50.3020 C   0  0  0  0  0  0  0  0  0  0  0  0
   60.2970   30.5660   51.2830 C   0  0  0  0  0  0  0  0  0  0  0  0
   59.6970   31.7020   52.0460 N   0  0  0  0  0  0  0  0  0  0  0  0
   60.0240   33.0460   51.5420 C   0  0  0  0  0  0  0  0  0  0  0  0
   58.8930   33.9630   51.9700 C   0  0  0  0  0  0  0  0  0  0  0  0
   57.6880   33.0600   52.1480 C   0  0  0  0  0  0  0  0  0  0  0  0
   58.2270   31.6320   52.1580 C   0  0  0  0  0  0  0  0  0  0  0  0
   59.2510   29.6140   50.6150 C   0  0  0  0  0  0  0  0  0  0  0  0
   59.7010   29.1110   49.2420 C   0  0  0  0  0  0  0  0  0  0  0  0
   59.4710   29.5740   46.0730 C   0  0  0  0  0  0  0  0  0  0  0  0
   60.2640   28.2850   46.1940 C   0  0  0  0  0  0  0  0  0  0  0  0
   59.3390   27.1010   46.3250 C   0  0  0  0  0  0  0  0  0  0  0  0
   59.7820   25.8100   45.9960 C   0  0  0  0  0  0  0  0  0  0  0  0
   58.9140   24.7180   46.0980 C   0  0  0  0  0  0  0  0  0  0  0  0
   57.5920   24.9040   46.5230 C   0  0  0  0  0  0  0  0  0  0  0  0
   56.4920   23.5290   46.6280 S   0  0  0  0  0  0  0  0  0  0  0  0
   55.1430   24.0100   47.0870 O   0  0  0  0  0  0  0  0  0  0  0  0
   57.0110   22.5590   47.6530 O   0  0  0  0  0  0  0  0  0  0  0  0
   56.3190   22.7140   45.0940 N   0  0  0  0  0  0  0  0  0  0  0  0
   56.3290   23.6850   43.9890 C   0  0  0  0  0  0  0  0  0  0  0  0
   56.1520   22.9500   42.6440 C   0  0  0  0  0  0  0  0  0  0  0  0
   56.2030   21.5420   42.7890 O   0  0  0  0  0  0  0  0  0  0  0  0
   57.3860   21.1720   43.4710 C   0  0  0  0  0  0  0  0  0  0  0  0
   57.3950   21.7250   44.9100 C   0  0  0  0  0  0  0  0  0  0  0  0
   57.1490   26.1910   46.8570 C   0  0  0  0  0  0  0  0  0  0  0  0
   58.0180   27.2820   46.7650 C   0  0  0  0  0  0  0  0  0  0  0  0
   58.8140   29.9000   44.8700 C   0  0  0  0  0  0  0  0  0  0  0  0
   58.9700   29.1570   43.8600 O   0  0  0  0  0  0  0  0  0  0  0  0
   54.7976   28.9817   43.8908 H   0  0  0  0  0  0  0  0  0  0  0  0
   55.7113   30.0043   45.2135 H   0  0  0  0  0  0  0  0  0  0  0  0
   56.1167   30.0339   42.1542 H   0  0  0  0  0  0  0  0  0  0  0  0
   58.0727   31.3774   42.7152 H   0  0  0  0  0  0  0  0  0  0  0  0
   56.8461   32.3295   43.6282 H   0  0  0  0  0  0  0  0  0  0  0  0
   61.7600   31.4285   48.2052 H   0  0  0  0  0  0  0  0  0  0  0  0
   60.3059   32.2563   48.9072 H   0  0  0  0  0  0  0  0  0  0  0  0
   62.1828   30.2692   50.2451 H   0  0  0  0  0  0  0  0  0  0  0  0
   61.7963   31.9981   50.6977 H   0  0  0  0  0  0  0  0  0  0  0  0
   60.7892   29.9313   52.0347 H   0  0  0  0  0  0  0  0  0  0  0  0
   60.0690   31.6470   53.0250 H   0  0  0  0  0  0  0  0  0  0  0  0
   60.9751   33.3911   51.9737 H   0  0  0  0  0  0  0  0  0  0  0  0
   60.1346   33.0406   50.4476 H   0  0  0  0  0  0  0  0  0  0  0  0
   59.1415   34.4644   52.9170 H   0  0  0  0  0  0  0  0  0  0  0  0
   58.7054   34.7543   51.2293 H   0  0  0  0  0  0  0  0  0  0  0  0
   57.1807   33.2832   53.0982 H   0  0  0  0  0  0  0  0  0  0  0  0
   56.9534   33.2067   51.3425 H   0  0  0  0  0  0  0  0  0  0  0  0
   57.9470   31.1332   53.0976 H   0  0  0  0  0  0  0  0  0  0  0  0
   57.8055   31.0571   51.3202 H   0  0  0  0  0  0  0  0  0  0  0  0
   59.0941   28.7467   51.2732 H   0  0  0  0  0  0  0  0  0  0  0  0
   58.3242   30.1886   50.4704 H   0  0  0  0  0  0  0  0  0  0  0  0
   60.5886   28.4718   49.3588 H   0  0  0  0  0  0  0  0  0  0  0  0
   58.8885   28.5306   48.7805 H   0  0  0  0  0  0  0  0  0  0  0  0
   60.8873   28.1588   45.2965 H   0  0  0  0  0  0  0  0  0  0  0  0
   60.8961   28.3414   47.0925 H   0  0  0  0  0  0  0  0  0  0  0  0
   60.8169   25.6566   45.6563 H   0  0  0  0  0  0  0  0  0  0  0  0
   59.2707   23.7091   45.8435 H   0  0  0  0  0  0  0  0  0  0  0  0
   55.5050   24.4009   44.1248 H   0  0  0  0  0  0  0  0  0  0  0  0
   57.2897   24.2208   43.9858 H   0  0  0  0  0  0  0  0  0  0  0  0
   55.1772   23.2262   42.2158 H   0  0  0  0  0  0  0  0  0  0  0  0
   56.9803   23.2502   41.9854 H   0  0  0  0  0  0  0  0  0  0  0  0
   57.4508   20.0745   43.5078 H   0  0  0  0  0  0  0  0  0  0  0  0
   58.2464   21.5930   42.9303 H   0  0  0  0  0  0  0  0  0  0  0  0
   57.2475   20.8951   45.6168 H   0  0  0  0  0  0  0  0  0  0  0  0
   58.3620   22.2158   45.0944 H   0  0  0  0  0  0  0  0  0  0  0  0
   56.1127   26.3433   47.1931 H   0  0  0  0  0  0  0  0  0  0  0  0
   57.6652   28.2873   47.0387 H   0  0  0  0  0  0  0  0  0  0  0  0
  1  2  2  0
  2  3  1  0
  3  4  1  0
  4  5  1  0
  5  6  2  0
  5  7  1  0
  7  8  1  0
  8  9  1  0
  9 10  1  0
 10 11  1  0
 11 12  1  0
 12 13  1  0
 13 14  1  0
 14 15  1  0
 15 16  1  0
 16 17  1  0
 12 18  1  0
 18 19  1  0
  8 20  2  0
 20 21  1  0
 21 22  1  0
 22 23  2  0
 23 24  1  0
 24 25  2  0
 25 26  1  0
 26 27  2  0
 26 28  2  0
 26 29  1  0
 29 30  1  0
 30 31  1  0
 31 32  1  0
 32 33  1  0
 33 34  1  0
 25 35  1  0
 35 36  2  0
 20 37  1  0
 37 38  2  0
 37  4  1  0
 19  9  1  0
 36 22  1  0
 17 13  1  0
 34 29  1  0
  1 39  1  0
  1 40  1  0
  2 41  1  0
  3 42  1  0
  3 43  1  0
 10 44  1  0
 10 45  1  0
 11 46  1  0
 11 47  1  0
 12 48  1  0
 13 49  1  0
 14 50  1  0
 14 51  1  0
 15 52  1  0
 15 53  1  0
 16 54  1  0
 16 55  1  0
 17 56  1  0
 17 57  1  0
 18 58  1  0
 18 59  1  0
 19 60  1  0
 19 61  1  0
 21 62  1  0
 21 63  1  0
 23 64  1  0
 24 65  1  0
 30 66  1  0
 30 67  1  0
 31 68  1  0
 31 69  1  0
 33 70  1  0
 33 71  1  0
 34 72  1  0
 34 73  1  0
 35 74  1  0
 36 75  1  0
M  CHG  2   7  -1  13   1
M  END
>  <UniqueID>  (61) 
61

>  <SMILES>  (61) 
C=CCn1c(=O)[n-]c(N2CCC([NH+]3CCCC3)CC2)c(Cc2ccc(S(=O)(=O)N3CCOCC3)cc2)c1=O

>  <Energy>  (61) 
105.15229995800449

>  <Genealogy>  (61) 
C=CCn1c(=O)[n-]c(N2CCC([NH+]3CCCC3)CC2)c(Cc2ccc(S(=O)(=O)N3CCOCC3)cc2)c1=O (protonated)
C=CCn1c(=O)[n-]c(N2CCC([NH+]3CCCC3)CC2)c(Cc2ccc(S(=O)(=O)N3CCOCC3)cc2)c1=O (3D coordinates assigned)
C=CCn1c(=O)[n-]c(N2CCC([NH+]3CCCC3)CC2)c(Cc2ccc(S(=O)(=O)N3CCOCC3)cc2)c1=O (nonaromatic ring conformer: 105.15229995800449 kcal/mol)

>  <smiles>  (61) 
C=CCn1c(=O)[nH]c(N2CCC(N3CCCC3)CC2)c(Cc2ccc(S(=O)(=O)N3CCOCC3)cc2)c1=O

>  <score_type>  (61) 
oracle

>  <origin>  (61) 
adg

>  <m_score__min__energy>  (61) 
-10.49

>  <m_primary>  (61) 
energy

$$$$
61:0
     RDKit          3D

 64 68  0  0  0  0  0  0  0  0999 V2000
   54.7890   29.4770   44.1820 N   0  0  0  0  0  0  0  0  0  0  0  0
   56.2360   30.3900   43.9490 S   0  0  0  0  0  0  0  0  0  0  0  0
   56.3100   30.8620   42.5240 O   0  0  0  0  0  0  0  0  0  0  0  0
   56.2180   31.5890   44.8550 O   0  0  0  0  0  0  0  0  0  0  0  0
   57.6320   29.3810   44.3110 C   0  0  0  0  0  0  0  0  0  0  0  0
   58.8950   29.9640   44.4710 C   0  0  0  0  0  0  0  0  0  0  0  0
   60.0060   29.1650   44.7580 C   0  0  0  0  0  0  0  0  0  0  0  0
   59.8620   27.7800   44.8800 C   0  0  0  0  0  0  0  0  0  0  0  0
   58.6050   27.1810   44.7020 C   0  0  0  0  0  0  0  0  0  0  0  0
   58.4520   25.7130   44.8400 C   0  0  0  0  0  0  0  0  0  0  0  0
   57.4480   25.0760   44.0910 C   0  0  0  0  0  0  0  0  0  0  0  0
   57.3040   23.6890   44.1320 C   0  0  0  0  0  0  0  0  0  0  0  0
   58.1560   22.9200   44.9200 C   0  0  0  0  0  0  0  0  0  0  0  0
   59.1510   23.5350   45.6810 C   0  0  0  0  0  0  0  0  0  0  0  0
   59.3140   24.9330   45.6580 C   0  0  0  0  0  0  0  0  0  0  0  0
   60.3420   25.5470   46.5400 C   0  0  0  0  0  0  0  0  0  0  0  0
   61.4810   25.8140   46.0740 O   0  0  0  0  0  0  0  0  0  0  0  0
   60.0360   25.9770   47.8770 N   0  0  0  0  0  0  0  0  0  0  0  0
   59.7980   27.1880   48.2990 C   0  0  0  0  0  0  0  0  0  0  0  0
   60.5340   27.7950   49.3350 C   0  0  0  0  0  0  0  0  0  0  0  0
   60.2320   29.1010   49.7220 C   0  0  0  0  0  0  0  0  0  0  0  0
   59.2000   29.8050   49.0880 C   0  0  0  0  0  0  0  0  0  0  0  0
   58.8850   31.1980   49.4800 C   0  0  0  0  0  0  0  0  0  0  0  0
   58.1850   31.4050   50.5090 O   0  0  0  0  0  0  0  0  0  0  0  0
   59.3750   32.3190   48.7250 N   0  0  0  0  0  0  0  0  0  0  0  0
   59.2110   32.3760   47.2710 C   0  0  0  0  0  0  0  0  0  0  0  0
   60.4770   32.9620   46.6280 C   0  0  0  0  0  0  0  0  0  0  0  0
   61.0190   34.1710   47.3150 N   0  0  0  0  0  0  0  0  0  0  0  0
   62.4360   33.9900   47.7150 C   0  0  0  0  0  0  0  0  0  0  0  0
   62.7300   32.5930   48.2720 C   0  0  0  0  0  0  0  0  0  0  0  0
   63.6830   32.3250   47.1200 C   0  0  0  0  0  0  0  0  0  0  0  0
   63.3640   33.6910   46.5350 C   0  0  0  0  0  0  0  0  0  0  0  0
   60.1830   34.6410   48.4480 C   0  0  0  0  0  0  0  0  0  0  0  0
   59.8420   33.5140   49.4330 C   0  0  0  0  0  0  0  0  0  0  0  0
   58.5090   29.1770   48.0430 C   0  0  0  0  0  0  0  0  0  0  0  0
   58.8220   27.9060   47.6800 N   0  0  0  0  0  0  0  0  0  0  0  0
   57.4900   27.9900   44.4240 C   0  0  0  0  0  0  0  0  0  0  0  0
   54.6760   29.3410   45.2110 H   0  0  0  0  0  0  0  0  0  0  0  0
   59.0134   31.0530   44.3707 H   0  0  0  0  0  0  0  0  0  0  0  0
   60.9956   29.6274   44.8881 H   0  0  0  0  0  0  0  0  0  0  0  0
   60.7372   27.1570   45.1164 H   0  0  0  0  0  0  0  0  0  0  0  0
   56.7697   25.6763   43.4669 H   0  0  0  0  0  0  0  0  0  0  0  0
   56.5152   23.2017   43.5402 H   0  0  0  0  0  0  0  0  0  0  0  0
   58.0447   21.8259   44.9428 H   0  0  0  0  0  0  0  0  0  0  0  0
   59.8155   22.9203   46.3060 H   0  0  0  0  0  0  0  0  0  0  0  0
   61.3424   27.2425   49.8362 H   0  0  0  0  0  0  0  0  0  0  0  0
   60.8067   29.5800   50.5284 H   0  0  0  0  0  0  0  0  0  0  0  0
   59.0402   31.3611   46.8826 H   0  0  0  0  0  0  0  0  0  0  0  0
   58.3499   33.0156   47.0271 H   0  0  0  0  0  0  0  0  0  0  0  0
   61.2561   32.1855   46.6341 H   0  0  0  0  0  0  0  0  0  0  0  0
   60.1935   33.2800   45.6138 H   0  0  0  0  0  0  0  0  0  0  0  0
   62.5793   34.8888   48.3328 H   0  0  0  0  0  0  0  0  0  0  0  0
   63.2125   32.5974   49.2605 H   0  0  0  0  0  0  0  0  0  0  0  0
   61.9056   31.8958   48.4825 H   0  0  0  0  0  0  0  0  0  0  0  0
   64.7325   32.2016   47.4253 H   0  0  0  0  0  0  0  0  0  0  0  0
   63.5730   31.4183   46.5070 H   0  0  0  0  0  0  0  0  0  0  0  0
   64.2324   34.3628   46.4669 H   0  0  0  0  0  0  0  0  0  0  0  0
   62.9932   33.7785   45.5031 H   0  0  0  0  0  0  0  0  0  0  0  0
   60.7302   35.4279   48.9878 H   0  0  0  0  0  0  0  0  0  0  0  0
   59.2376   35.0192   48.0319 H   0  0  0  0  0  0  0  0  0  0  0  0
   60.7412   33.2595   50.0133 H   0  0  0  0  0  0  0  0  0  0  0  0
   59.0386   33.8625   50.0986 H   0  0  0  0  0  0  0  0  0  0  0  0
   57.7092   29.7160   47.5141 H   0  0  0  0  0  0  0  0  0  0  0  0
   56.4995   27.5295   44.2942 H   0  0  0  0  0  0  0  0  0  0  0  0
  1  2  1  0
  2  3  2  0
  2  4  2  0
  2  5  1  0
  5  6  2  0
  6  7  1  0
  7  8  2  0
  8  9  1  0
  9 10  1  0
 10 11  2  0
 11 12  1  0
 12 13  2  0
 13 14  1  0
 14 15  2  0
 15 16  1  0
 16 17  2  0
 16 18  1  0
 18 19  2  3
 19 20  1  0
 20 21  2  0
 21 22  1  0
 22 23  1  0
 23 24  2  0
 23 25  1  0
 25 26  1  0
 26 27  1  0
 27 28  1  0
 28 29  1  0
 29 30  1  0
 30 31  1  0
 31 32  1  0
 28 33  1  0
 33 34  1  0
 22 35  2  0
 35 36  1  0
  9 37  2  0
 37  5  1  0
 15 10  1  0
 36 19  1  0
 34 25  1  0
 32 29  1  0
  1 38  1  0
  6 39  1  0
  7 40  1  0
  8 41  1  0
 11 42  1  0
 12 43  1  0
 13 44  1  0
 14 45  1  0
 20 46  1  0
 21 47  1  0
 26 48  1  0
 26 49  1  0
 27 50  1  0
 27 51  1  0
 29 52  1  0
 30 53  1  0
 30 54  1  0
 31 55  1  0
 31 56  1  0
 32 57  1  0
 32 58  1  0
 33 59  1  0
 33 60  1  0
 34 61  1  0
 34 62  1  0
 35 63  1  0
 37 64  1  0
M  CHG  2   1  -1  36  -1
M  END
>  <UniqueID>  (62) 
62

>  <SMILES>  (62) 
[NH-]S(=O)(=O)c1cccc(-c2ccccc2C(=O)N=c2ccc(C(=O)N3CCN(C4CCC4)CC3)c[n-]2)c1

>  <Energy>  (62) 
160.81501603760773

>  <Genealogy>  (62) 
[NH-]S(=O)(=O)c1cccc(-c2ccccc2C(=O)N=c2ccc(C(=O)N3CCN(C4CCC4)CC3)c[n-]2)c1 (protonated)
[NH-]S(=O)(=O)c1cccc(-c2ccccc2C(=O)N=c2ccc(C(=O)N3CCN(C4CCC4)CC3)c[n-]2)c1 (3D coordinates assigned)
[NH-]S(=O)(=O)c1cccc(-c2ccccc2C(=O)N=c2ccc(C(=O)N3CCN(C4CCC4)CC3)c[n-]2)c1 (nonaromatic ring conformer: 160.81501603760773 kcal/mol)

>  <smiles>  (62) 
NS(=O)(=O)c1cccc(-c2ccccc2C(=O)N=c2ccc(C(=O)N3CCN(C4CCC4)CC3)c[nH]2)c1

>  <score_type>  (62) 
oracle

>  <origin>  (62) 
adg

>  <m_score__min__energy>  (62) 
-14.01

>  <m_primary>  (62) 
energy

$$$$
62:0
     RDKit          3D

 23 24  0  0  0  0  0  0  0  0999 V2000
   56.2030   31.2990   52.1440 C   0  0  0  0  0  0  0  0  0  0  0  0
   55.0960   30.5940   52.3700 C   0  0  0  0  0  0  0  0  0  0  0  0
   53.8060   31.0860   52.2880 C   0  0  0  0  0  0  0  0  0  0  0  0
   52.9730   30.0240   52.5960 C   0  0  0  0  0  0  0  0  0  0  0  0
   51.4720   30.0640   52.5700 C   0  0  0  0  0  0  0  0  0  0  0  0
   50.9880   31.4650   52.7860 C   0  0  0  0  0  0  0  0  0  0  0  0
   50.6900   31.9810   53.9920 N   0  0  0  0  0  0  0  0  0  0  0  0
   50.3260   33.2500   53.7040 C   0  0  0  0  0  0  0  0  0  0  0  0
   49.9690   34.0690   54.5900 O   0  0  0  0  0  0  0  0  0  0  0  0
   50.3740   33.5720   52.3940 N   0  0  0  0  0  0  0  0  0  0  0  0
   50.7970   32.4310   51.8260 C   0  0  0  0  0  0  0  0  0  0  0  0
   51.0000   32.2770   50.4610 O   0  0  0  0  0  0  0  0  0  0  0  0
   53.7980   28.9320   52.8350 C   0  0  0  0  0  0  0  0  0  0  0  0
   53.4080   27.6940   53.1440 C   0  0  0  0  0  0  0  0  0  0  0  0
   55.0910   29.2890   52.7030 N   0  0  0  0  0  0  0  0  0  0  0  0
   57.1887   30.8191   52.2340 H   0  0  0  0  0  0  0  0  0  0  0  0
   56.1317   32.3612   51.8673 H   0  0  0  0  0  0  0  0  0  0  0  0
   53.5036   32.1118   52.0306 H   0  0  0  0  0  0  0  0  0  0  0  0
   51.1158   29.7029   51.5939 H   0  0  0  0  0  0  0  0  0  0  0  0
   51.0819   29.4217   53.3732 H   0  0  0  0  0  0  0  0  0  0  0  0
   54.1579   26.9069   53.3118 H   0  0  0  0  0  0  0  0  0  0  0  0
   52.3366   27.4605   53.2309 H   0  0  0  0  0  0  0  0  0  0  0  0
   55.9270   28.6700   52.8240 H   0  0  0  0  0  0  0  0  0  0  0  0
  1  2  2  0
  2  3  1  0
  3  4  2  0
  4  5  1  0
  5  6  1  0
  6  7  1  0
  7  8  1  0
  8  9  2  0
  8 10  1  0
 10 11  1  0
 11 12  1  0
  4 13  1  0
 13 14  2  0
 13 15  1  0
 15  2  1  0
 11  6  2  0
  1 16  1  0
  1 17  1  0
  3 18  1  0
  5 19  1  0
  5 20  1  0
 14 21  1  0
 14 22  1  0
 15 23  1  0
M  CHG  3   7  -1  10  -1  12  -1
M  END
>  <UniqueID>  (63) 
63

>  <SMILES>  (63) 
C=c1cc(Cc2[n-]c(=O)[n-]c2[O-])c(=C)[nH]1

>  <Energy>  (63) 
76.33863371565528

>  <Genealogy>  (63) 
C=c1cc(Cc2[n-]c(=O)[n-]c2[O-])c(=C)[nH]1 (protonated)
C=c1cc(Cc2[n-]c(=O)[n-]c2[O-])c(=C)[nH]1 (3D coordinates assigned)
C=c1cc(Cc2[n-]c(=O)[n-]c2[O-])c(=C)[nH]1 (optimized conformer: 76.33863371565528 kcal/mol)

>  <smiles>  (63) 
C=c1cc(Cc2[nH]c(=O)[nH]c2O)c(=C)[nH]1

>  <score_type>  (63) 
oracle

>  <origin>  (63) 
adg

>  <m_score__min__energy>  (63) 
-14.789999999999999

>  <m_primary>  (63) 
energy

$$$$
63:0
     RDKit          3D

 47 50  0  0  0  0  0  0  0  0999 V2000
   54.7690   26.7270   47.0810 H   0  0  0  0  0  0  0  0  0  0  0  0
   55.1470   26.5340   46.1630 O   0  0  0  0  0  0  0  0  0  0  0  0
   55.1510   25.2390   45.6530 C   0  0  0  0  0  0  0  0  0  0  0  0
   54.1300   24.3930   45.9520 N   0  0  0  0  0  0  0  0  0  0  0  0
   54.1120   23.1190   45.4790 C   0  0  0  0  0  0  0  0  0  0  0  0
   53.1560   22.3550   45.7660 O   0  0  0  0  0  0  0  0  0  0  0  0
   55.1280   22.6690   44.6990 N   0  0  0  0  0  0  0  0  0  0  0  0
   56.1720   23.4750   44.3720 C   0  0  0  0  0  0  0  0  0  0  0  0
   57.1010   23.0250   43.6510 O   0  0  0  0  0  0  0  0  0  0  0  0
   56.2010   24.8010   44.8320 C   0  0  0  0  0  0  0  0  0  0  0  0
   57.3430   25.6790   44.5260 C   0  0  0  0  0  0  0  0  0  0  0  0
   58.0663   25.3215   43.7783 H   0  0  0  0  0  0  0  0  0  0  0  0
   57.5770   26.8810   45.0830 C   0  0  0  0  0  0  0  0  0  0  0  0
   57.5010   28.0650   44.3670 C   0  0  0  0  0  0  0  0  0  0  0  0
   57.2545   28.1687   43.3000 H   0  0  0  0  0  0  0  0  0  0  0  0
   57.7940   29.0940   45.2480 C   0  0  0  0  0  0  0  0  0  0  0  0
   57.7730   30.5480   44.9260 C   0  0  0  0  0  0  0  0  0  0  0  0
   57.6820   30.9880   43.5920 C   0  0  0  0  0  0  0  0  0  0  0  0
   57.6040   30.2518   42.7784 H   0  0  0  0  0  0  0  0  0  0  0  0
   57.6900   32.3510   43.2940 C   0  0  0  0  0  0  0  0  0  0  0  0
   57.6149   32.6848   42.2486 H   0  0  0  0  0  0  0  0  0  0  0  0
   57.7930   33.2910   44.3190 C   0  0  0  0  0  0  0  0  0  0  0  0
   57.7980   34.3640   44.0766 H   0  0  0  0  0  0  0  0  0  0  0  0
   57.8900   32.8810   45.6520 C   0  0  0  0  0  0  0  0  0  0  0  0
   58.0140   33.8830   46.6700 N   0  0  0  0  0  0  0  0  0  0  0  0
   59.5070   34.5290   47.2700 S   0  0  0  0  0  0  0  0  0  0  0  0
   59.9750   35.6350   46.3640 O   0  0  0  0  0  0  0  0  0  0  0  0
   59.2790   35.1000   48.6410 O   0  0  0  0  0  0  0  0  0  0  0  0
   60.7150   33.2530   47.3820 C   0  0  0  0  0  0  0  0  0  0  0  0
   62.0650   33.5130   47.0990 C   0  0  0  0  0  0  0  0  0  0  0  0
   62.3767   34.5232   46.7951 H   0  0  0  0  0  0  0  0  0  0  0  0
   63.0140   32.4930   47.2020 C   0  0  0  0  0  0  0  0  0  0  0  0
   64.0705   32.7005   46.9768 H   0  0  0  0  0  0  0  0  0  0  0  0
   62.6220   31.2090   47.5910 C   0  0  0  0  0  0  0  0  0  0  0  0
   63.3711   30.4084   47.6793 H   0  0  0  0  0  0  0  0  0  0  0  0
   61.2770   30.9420   47.8680 C   0  0  0  0  0  0  0  0  0  0  0  0
   60.7870   29.3280   48.3520 Cl  0  0  0  0  0  0  0  0  0  0  0  0
   60.3250   31.9620   47.7630 C   0  0  0  0  0  0  0  0  0  0  0  0
   59.2677   31.7500   47.9801 H   0  0  0  0  0  0  0  0  0  0  0  0
   57.8720   31.5070   45.9520 C   0  0  0  0  0  0  0  0  0  0  0  0
   57.9360   31.1781   46.9997 H   0  0  0  0  0  0  0  0  0  0  0  0
   58.0460   28.5870   46.4730 N   0  0  0  0  0  0  0  0  0  0  0  0
   58.2900   29.1250   47.3340 H   0  0  0  0  0  0  0  0  0  0  0  0
   57.9040   27.2460   46.3970 C   0  0  0  0  0  0  0  0  0  0  0  0
   58.0080   26.4660   47.4800 C   0  0  0  0  0  0  0  0  0  0  0  0
   57.8874   25.3766   47.3868 H   0  0  0  0  0  0  0  0  0  0  0  0
   58.2140   26.9145   48.4631 H   0  0  0  0  0  0  0  0  0  0  0  0
  1  2  1  0
  2  3  1  0
  3  4  1  0
  4  5  1  0
  5  6  2  0
  5  7  1  0
  7  8  1  0
  8  9  2  0
  8 10  1  0
 10 11  1  0
 11 12  1  0
 11 13  2  0
 13 14  1  0
 14 15  1  0
 14 16  2  0
 16 17  1  0
 17 18  2  0
 18 19  1  0
 18 20  1  0
 20 21  1  0
 20 22  2  0
 22 23  1  0
 22 24  1  0
 24 25  1  0
 25 26  1  0
 26 27  2  0
 26 28  2  0
 26 29  1  0
 29 30  2  0
 30 31  1  0
 30 32  1  0
 32 33  1  0
 32 34  2  0
 34 35  1  0
 34 36  1  0
 36 37  1  0
 36 38  2  0
 38 39  1  0
 24 40  2  0
 40 41  1  0
 16 42  1  0
 42 43  1  0
 42 44  1  0
 44 45  2  0
 45 46  1  0
 45 47  1  0
 10  3  2  0
 44 13  1  0
 40 17  1  0
 38 29  1  0
M  CHG  3   4  -1   7  -1  25  -1
M  END
>  <UniqueID>  (64) 
64

>  <SMILES>  (64) 
C=c1[nH]c(-c2cccc([N-]S(=O)(=O)c3cccc(Cl)c3)c2)c/c1=C/c1c(O)[n-]c(=O)[n-]c1=O

>  <Energy>  (64) 
97.90643757869249

>  <Genealogy>  (64) 
C=c1[nH]c(-c2cccc([N-]S(=O)(=O)c3cccc(Cl)c3)c2)cc1=Cc1c(O)[n-]c(=O)[n-]c1=O (protonated)
C=c1[nH]c(-c2cccc([N-]S(=O)(=O)c3cccc(Cl)c3)c2)c/c1=C/c1c(O)[n-]c(=O)[n-]c1=O (cis-trans isomerization)
C=c1[nH]c(-c2cccc([N-]S(=O)(=O)c3cccc(Cl)c3)c2)c/c1=C/c1c(O)[n-]c(=O)[n-]c1=O (3D coordinates assigned)
C=c1[nH]c(-c2cccc([N-]S(=O)(=O)c3cccc(Cl)c3)c2)c/c1=C/c1c(O)[n-]c(=O)[n-]c1=O (optimized conformer: 97.90643757869249 kcal/mol)

>  <smiles>  (64) 
C=c1[nH]c(-c2cccc(NS(=O)(=O)c3cccc(Cl)c3)c2)cc1=Cc1c(O)[nH]c(=O)[nH]c1=O

>  <score_type>  (64) 
oracle

>  <origin>  (64) 
adg

>  <m_score__min__energy>  (64) 
-15.970000000000001

>  <m_primary>  (64) 
energy

$$$$
64:0
     RDKit          3D

 60 63  0  0  0  0  0  0  0  0999 V2000
   59.3170   35.2730   46.7780 C   0  0  0  0  0  0  0  0  0  0  0  0
   59.1820   33.8470   46.4410 N   0  0  0  0  0  0  0  0  0  0  0  0
   60.1680   32.9400   46.7540 C   0  0  0  0  0  0  0  0  0  0  0  0
   61.3570   33.3370   47.4540 N   0  0  0  0  0  0  0  0  0  0  0  0
   61.2410   33.6860   48.8770 C   0  0  0  0  0  0  0  0  0  0  0  0
   62.5430   34.2690   49.4400 C   0  0  0  0  0  0  0  0  0  0  0  0
   63.6720   33.6130   48.9040 O   0  0  0  0  0  0  0  0  0  0  0  0
   63.7720   33.9300   47.5310 C   0  0  0  0  0  0  0  0  0  0  0  0
   62.6380   33.2790   46.7390 C   0  0  0  0  0  0  0  0  0  0  0  0
   60.0160   31.5930   46.4130 C   0  0  0  0  0  0  0  0  0  0  0  0
   58.8420   31.1780   45.7780 C   0  0  0  0  0  0  0  0  0  0  0  0
   58.6200   29.7630   45.3960 C   0  0  0  0  0  0  0  0  0  0  0  0
   57.9640   29.4570   44.1920 C   0  0  0  0  0  0  0  0  0  0  0  0
   57.7650   28.1280   43.8080 C   0  0  0  0  0  0  0  0  0  0  0  0
   58.2370   27.0750   44.6100 C   0  0  0  0  0  0  0  0  0  0  0  0
   58.0270   25.6710   44.1920 C   0  0  0  0  0  0  0  0  0  0  0  0
   57.4010   25.4260   43.1220 O   0  0  0  0  0  0  0  0  0  0  0  0
   58.5360   24.5840   44.9790 N   0  0  0  0  0  0  0  0  0  0  0  0
   58.1320   23.2020   44.7250 C   0  0  0  0  0  0  0  0  0  0  0  0
   57.4450   22.5700   45.9490 C   0  0  0  0  0  0  0  0  0  0  0  0
   56.1520   23.2260   46.2510 N   0  0  0  0  0  0  0  0  0  0  0  0
   55.4780   23.7150   45.0280 C   0  0  0  0  0  0  0  0  0  0  0  0
   54.4490   24.8070   45.3680 C   0  0  0  0  0  0  0  0  0  0  0  0
   55.0100   25.9560   45.9900 O   0  0  0  0  0  0  0  0  0  0  0  0
   56.2280   25.6980   46.6700 C   0  0  0  0  0  0  0  0  0  0  0  0
   56.2970   24.2880   47.2800 C   0  0  0  0  0  0  0  0  0  0  0  0
   58.8940   27.3790   45.8140 C   0  0  0  0  0  0  0  0  0  0  0  0
   59.0830   28.7090   46.2030 C   0  0  0  0  0  0  0  0  0  0  0  0
   57.8730   32.0960   45.5290 N   0  0  0  0  0  0  0  0  0  0  0  0
   58.0240   33.4050   45.8500 C   0  0  0  0  0  0  0  0  0  0  0  0
   57.0840   34.2060   45.5970 O   0  0  0  0  0  0  0  0  0  0  0  0
   59.3283   35.3919   47.8715 H   0  0  0  0  0  0  0  0  0  0  0  0
   60.2560   35.6619   46.3572 H   0  0  0  0  0  0  0  0  0  0  0  0
   58.4677   35.8312   46.3572 H   0  0  0  0  0  0  0  0  0  0  0  0
   60.4398   34.4305   48.9947 H   0  0  0  0  0  0  0  0  0  0  0  0
   61.0165   32.7638   49.4330 H   0  0  0  0  0  0  0  0  0  0  0  0
   62.5959   35.3382   49.1868 H   0  0  0  0  0  0  0  0  0  0  0  0
   62.5441   34.1271   50.5308 H   0  0  0  0  0  0  0  0  0  0  0  0
   63.7171   35.0217   47.4081 H   0  0  0  0  0  0  0  0  0  0  0  0
   64.7313   33.5493   47.1504 H   0  0  0  0  0  0  0  0  0  0  0  0
   62.5311   33.8030   45.7778 H   0  0  0  0  0  0  0  0  0  0  0  0
   62.8944   32.2195   46.5914 H   0  0  0  0  0  0  0  0  0  0  0  0
   60.8110   30.8680   46.6417 H   0  0  0  0  0  0  0  0  0  0  0  0
   57.6037   30.2708   43.5456 H   0  0  0  0  0  0  0  0  0  0  0  0
   57.2347   27.9045   42.8705 H   0  0  0  0  0  0  0  0  0  0  0  0
   59.2880   24.7790   45.6750 H   0  0  0  0  0  0  0  0  0  0  0  0
   57.4317   23.1865   43.8768 H   0  0  0  0  0  0  0  0  0  0  0  0
   59.0372   22.6178   44.5030 H   0  0  0  0  0  0  0  0  0  0  0  0
   57.2650   21.5040   45.7459 H   0  0  0  0  0  0  0  0  0  0  0  0
   58.1065   22.6995   46.8183 H   0  0  0  0  0  0  0  0  0  0  0  0
   56.2317   24.1309   44.3432 H   0  0  0  0  0  0  0  0  0  0  0  0
   54.9529   22.8721   44.5550 H   0  0  0  0  0  0  0  0  0  0  0  0
   53.9589   25.1230   44.4353 H   0  0  0  0  0  0  0  0  0  0  0  0
   53.7439   24.3670   46.0886 H   0  0  0  0  0  0  0  0  0  0  0  0
   57.0572   25.8105   45.9560 H   0  0  0  0  0  0  0  0  0  0  0  0
   56.2960   26.4161   47.5005 H   0  0  0  0  0  0  0  0  0  0  0  0
   57.2684   24.1657   47.7815 H   0  0  0  0  0  0  0  0  0  0  0  0
   55.4646   24.1858   47.9918 H   0  0  0  0  0  0  0  0  0  0  0  0
   59.2625   26.5649   46.4555 H   0  0  0  0  0  0  0  0  0  0  0  0
   59.5985   28.9324   47.1487 H   0  0  0  0  0  0  0  0  0  0  0  0
  1  2  1  0
  2  3  1  0
  3  4  1  0
  4  5  1  0
  5  6  1  0
  6  7  1  0
  7  8  1  0
  8  9  1  0
  3 10  2  0
 10 11  1  0
 11 12  1  0
 12 13  2  0
 13 14  1  0
 14 15  2  0
 15 16  1  0
 16 17  2  0
 16 18  1  0
 18 19  1  0
 19 20  1  0
 20 21  1  0
 21 22  1  0
 22 23  1  0
 23 24  1  0
 24 25  1  0
 25 26  1  0
 15 27  1  0
 27 28  2  0
 11 29  2  0
 29 30  1  0
 30 31  2  0
 30  2  1  0
  9  4  1  0
 28 12  1  0
 26 21  1  0
  1 32  1  0
  1 33  1  0
  1 34  1  0
  5 35  1  0
  5 36  1  0
  6 37  1  0
  6 38  1  0
  8 39  1  0
  8 40  1  0
  9 41  1  0
  9 42  1  0
 10 43  1  0
 13 44  1  0
 14 45  1  0
 18 46  1  0
 19 47  1  0
 19 48  1  0
 20 49  1  0
 20 50  1  0
 22 51  1  0
 22 52  1  0
 23 53  1  0
 23 54  1  0
 25 55  1  0
 25 56  1  0
 26 57  1  0
 26 58  1  0
 27 59  1  0
 28 60  1  0
M  END
>  <UniqueID>  (65) 
65

>  <SMILES>  (65) 
Cn1c(N2CCOCC2)cc(-c2ccc(C(=O)NCCN3CCOCC3)cc2)nc1=O

>  <Energy>  (65) 
92.83637272882964

>  <Genealogy>  (65) 
Cn1c(N2CCOCC2)cc(-c2ccc(C(=O)NCCN3CCOCC3)cc2)nc1=O (3D coordinates assigned)
Cn1c(N2CCOCC2)cc(-c2ccc(C(=O)NCCN3CCOCC3)cc2)nc1=O (nonaromatic ring conformer: 92.83637272882964 kcal/mol)

>  <smiles>  (65) 
Cn1c(N2CCOCC2)cc(-c2ccc(C(=O)NCCN3CCOCC3)cc2)nc1=O

>  <score_type>  (65) 
oracle

>  <origin>  (65) 
adg

>  <m_score__min__energy>  (65) 
-8.9700000000000006

>  <m_primary>  (65) 
energy

$$$$
65:0
     RDKit          3D

 62 65  0  0  0  0  0  0  0  0999 V2000
   55.1220   26.3380   45.9780 N   0  0  0  0  0  0  0  0  0  0  0  0
   56.1950   25.4720   46.3500 C   0  0  0  0  0  0  0  0  0  0  0  0
   56.1730   24.9070   47.4770 O   0  0  0  0  0  0  0  0  0  0  0  0
   57.2890   25.1580   45.4090 C   0  0  0  0  0  0  0  0  0  0  0  0
   57.8060   26.0070   44.5020 C   0  0  0  0  0  0  0  0  0  0  0  0
   57.6570   27.4780   44.5290 C   0  0  0  0  0  0  0  0  0  0  0  0
   57.5360   28.2180   43.3410 C   0  0  0  0  0  0  0  0  0  0  0  0
   57.4010   29.6070   43.3870 C   0  0  0  0  0  0  0  0  0  0  0  0
   57.3710   30.2820   44.6230 C   0  0  0  0  0  0  0  0  0  0  0  0
   57.2950   31.7600   44.6990 C   0  0  0  0  0  0  0  0  0  0  0  0
   56.2510   32.3020   45.1600 O   0  0  0  0  0  0  0  0  0  0  0  0
   58.4110   32.5860   44.3210 N   0  0  0  0  0  0  0  0  0  0  0  0
   58.5500   33.9580   44.8070 C   0  0  0  0  0  0  0  0  0  0  0  0
   58.8440   33.9400   46.2840 C   0  0  0  0  0  0  0  0  0  0  0  0
   58.1940   33.0230   47.1230 C   0  0  0  0  0  0  0  0  0  0  0  0
   58.5880   32.8840   48.4570 C   0  0  0  0  0  0  0  0  0  0  0  0
   59.6500   33.6480   48.9620 C   0  0  0  0  0  0  0  0  0  0  0  0
   60.1590   33.4160   50.3290 C   0  0  0  0  0  0  0  0  0  0  0  0
   59.3910   33.8740   51.4130 C   0  0  0  0  0  0  0  0  0  0  0  0
   59.8420   33.7040   52.7240 C   0  0  0  0  0  0  0  0  0  0  0  0
   61.0690   33.0880   52.9660 C   0  0  0  0  0  0  0  0  0  0  0  0
   61.8510   32.6360   51.9000 C   0  0  0  0  0  0  0  0  0  0  0  0
   61.4110   32.7860   50.5720 C   0  0  0  0  0  0  0  0  0  0  0  0
   62.3310   32.3220   49.4630 C   0  0  0  0  0  0  0  0  0  0  0  0
   61.8090   31.0960   48.8250 N   0  0  0  0  0  0  0  0  0  0  0  0
   60.6850   30.5450   49.6040 C   0  0  0  0  0  0  0  0  0  0  0  0
   60.1870   29.2320   48.9620 C   0  0  0  0  0  0  0  0  0  0  0  0
   60.7280   29.0210   47.6680 O   0  0  0  0  0  0  0  0  0  0  0  0
   60.5470   30.1800   46.8770 C   0  0  0  0  0  0  0  0  0  0  0  0
   61.3700   31.3580   47.4350 C   0  0  0  0  0  0  0  0  0  0  0  0
   60.2500   34.6170   48.1480 C   0  0  0  0  0  0  0  0  0  0  0  0
   59.8600   34.7580   46.8130 C   0  0  0  0  0  0  0  0  0  0  0  0
   60.5060   35.6520   46.0220 F   0  0  0  0  0  0  0  0  0  0  0  0
   57.4250   29.5290   45.8120 C   0  0  0  0  0  0  0  0  0  0  0  0
   57.5560   28.1380   45.7620 C   0  0  0  0  0  0  0  0  0  0  0  0
   54.7850   27.0870   46.6240 H   0  0  0  0  0  0  0  0  0  0  0  0
   57.7170   24.1456   45.4532 H   0  0  0  0  0  0  0  0  0  0  0  0
   58.3857   25.5721   43.6745 H   0  0  0  0  0  0  0  0  0  0  0  0
   57.5477   27.7009   42.3702 H   0  0  0  0  0  0  0  0  0  0  0  0
   57.3174   30.1785   42.4509 H   0  0  0  0  0  0  0  0  0  0  0  0
   59.2340   32.1650   43.8390 H   0  0  0  0  0  0  0  0  0  0  0  0
   59.3753   34.4537   44.2749 H   0  0  0  0  0  0  0  0  0  0  0  0
   57.6145   34.5077   44.6260 H   0  0  0  0  0  0  0  0  0  0  0  0
   57.3699   32.4100   46.7292 H   0  0  0  0  0  0  0  0  0  0  0  0
   58.0635   32.1733   49.1125 H   0  0  0  0  0  0  0  0  0  0  0  0
   58.4270   34.3703   51.2276 H   0  0  0  0  0  0  0  0  0  0  0  0
   59.2285   34.0565   53.5662 H   0  0  0  0  0  0  0  0  0  0  0  0
   61.4226   32.9574   53.9994 H   0  0  0  0  0  0  0  0  0  0  0  0
   62.8210   32.1578   52.1011 H   0  0  0  0  0  0  0  0  0  0  0  0
   62.4117   33.1159   48.7059 H   0  0  0  0  0  0  0  0  0  0  0  0
   63.3186   32.1013   49.8942 H   0  0  0  0  0  0  0  0  0  0  0  0
   61.0195   30.3431   50.6323 H   0  0  0  0  0  0  0  0  0  0  0  0
   59.8623   31.2751   49.6143 H   0  0  0  0  0  0  0  0  0  0  0  0
   60.4787   28.3907   49.6078 H   0  0  0  0  0  0  0  0  0  0  0  0
   59.0941   29.3033   48.8599 H   0  0  0  0  0  0  0  0  0  0  0  0
   60.8723   29.9685   45.8477 H   0  0  0  0  0  0  0  0  0  0  0  0
   59.4821   30.4551   46.8933 H   0  0  0  0  0  0  0  0  0  0  0  0
   62.2565   31.5079   46.8013 H   0  0  0  0  0  0  0  0  0  0  0  0
   60.7354   32.2565   47.4345 H   0  0  0  0  0  0  0  0  0  0  0  0
   61.0323   35.2706   48.5614 H   0  0  0  0  0  0  0  0  0  0  0  0
   57.3638   30.0381   46.7852 H   0  0  0  0  0  0  0  0  0  0  0  0
   57.5800   27.5575   46.6961 H   0  0  0  0  0  0  0  0  0  0  0  0
  1  2  1  0
  2  3  2  0
  2  4  1  0
  4  5  2  3
  5  6  1  0
  6  7  2  0
  7  8  1  0
  8  9  2  0
  9 10  1  0
 10 11  2  0
 10 12  1  0
 12 13  1  0
 13 14  1  0
 14 15  2  0
 15 16  1  0
 16 17  2  0
 17 18  1  0
 18 19  2  0
 19 20  1  0
 20 21  2  0
 21 22  1  0
 22 23  2  0
 23 24  1  0
 24 25  1  0
 25 26  1  0
 26 27  1  0
 27 28  1  0
 28 29  1  0
 29 30  1  0
 17 31  1  0
 31 32  2  0
 32 33  1  0
  9 34  1  0
 34 35  2  0
 35  6  1  0
 32 14  1  0
 23 18  1  0
 30 25  1  0
  1 36  1  0
  4 37  1  0
  5 38  1  0
  7 39  1  0
  8 40  1  0
 12 41  1  0
 13 42  1  0
 13 43  1  0
 15 44  1  0
 16 45  1  0
 19 46  1  0
 20 47  1  0
 21 48  1  0
 22 49  1  0
 24 50  1  0
 24 51  1  0
 26 52  1  0
 26 53  1  0
 27 54  1  0
 27 55  1  0
 29 56  1  0
 29 57  1  0
 30 58  1  0
 30 59  1  0
 31 60  1  0
 34 61  1  0
 35 62  1  0
M  CHG  1   1  -1
M  END
>  <UniqueID>  (66) 
66

>  <SMILES>  (66) 
[NH-]C(=O)C=Cc1ccc(C(=O)NCc2ccc(-c3ccccc3CN3CCOCC3)cc2F)cc1

>  <Energy>  (66) 
87.07529120671873

>  <Genealogy>  (66) 
[NH-]C(=O)C=Cc1ccc(C(=O)NCc2ccc(-c3ccccc3CN3CCOCC3)cc2F)cc1 (protonated)
[NH-]C(=O)C=Cc1ccc(C(=O)NCc2ccc(-c3ccccc3CN3CCOCC3)cc2F)cc1 (3D coordinates assigned)
[NH-]C(=O)C=Cc1ccc(C(=O)NCc2ccc(-c3ccccc3CN3CCOCC3)cc2F)cc1 (nonaromatic ring conformer: 87.07529120671873 kcal/mol)

>  <smiles>  (66) 
NC(=O)C=Cc1ccc(C(=O)NCc2ccc(-c3ccccc3CN3CCOCC3)cc2F)cc1

>  <score_type>  (66) 
oracle

>  <origin>  (66) 
adg

>  <m_score__min__energy>  (66) 
-12.74

>  <m_primary>  (66) 
energy

$$$$
66:0
     RDKit          3D

 52 55  0  0  0  0  0  0  0  0999 V2000
   55.4970   26.1680   46.3750 O   0  0  0  0  0  0  0  0  0  0  0  0
   56.7160   25.9850   46.6430 C   0  0  0  0  0  0  0  0  0  0  0  0
   57.6680   27.1410   46.6200 C   0  0  0  0  0  0  0  0  0  0  0  0
   57.0940   28.3040   45.8660 C   0  0  0  0  0  0  0  0  0  0  0  0
   55.9050   28.2670   45.2370 N   0  0  0  0  0  0  0  0  0  0  0  0
   55.7930   29.5050   44.7140 C   0  0  0  0  0  0  0  0  0  0  0  0
   54.7920   29.8690   44.0430 O   0  0  0  0  0  0  0  0  0  0  0  0
   56.8320   30.3250   44.9710 N   0  0  0  0  0  0  0  0  0  0  0  0
   57.6660   29.5510   45.6890 C   0  0  0  0  0  0  0  0  0  0  0  0
   58.9290   30.0540   46.3080 C   0  0  0  0  0  0  0  0  0  0  0  0
   58.6620   31.3010   46.9390 O   0  0  0  0  0  0  0  0  0  0  0  0
   58.5810   32.5380   46.2810 C   0  0  0  0  0  0  0  0  0  0  0  0
   57.4300   32.9190   45.5640 C   0  0  0  0  0  0  0  0  0  0  0  0
   57.3890   34.1420   44.8910 C   0  0  0  0  0  0  0  0  0  0  0  0
   58.4900   34.9960   44.9230 C   0  0  0  0  0  0  0  0  0  0  0  0
   59.6370   34.6340   45.6320 C   0  0  0  0  0  0  0  0  0  0  0  0
   59.6920   33.4100   46.3240 C   0  0  0  0  0  0  0  0  0  0  0  0
   60.9250   33.0440   47.0670 C   0  0  0  0  0  0  0  0  0  0  0  0
   62.1800   33.5100   46.6350 C   0  0  0  0  0  0  0  0  0  0  0  0
   63.3430   33.1500   47.3200 C   0  0  0  0  0  0  0  0  0  0  0  0
   63.2700   32.3300   48.4500 C   0  0  0  0  0  0  0  0  0  0  0  0
   64.4380   31.9780   49.1210 O   0  0  0  0  0  0  0  0  0  0  0  0
   62.0230   31.8740   48.8970 C   0  0  0  0  0  0  0  0  0  0  0  0
   60.8570   32.2320   48.2130 C   0  0  0  0  0  0  0  0  0  0  0  0
   57.2020   24.6770   46.9620 N   0  0  0  0  0  0  0  0  0  0  0  0
   56.4210   23.4580   46.7910 C   0  0  0  0  0  0  0  0  0  0  0  0
   56.4920   22.9850   45.3650 C   0  0  0  0  0  0  0  0  0  0  0  0
   57.3590   21.9370   45.0140 C   0  0  0  0  0  0  0  0  0  0  0  0
   57.4440   21.5080   43.6860 C   0  0  0  0  0  0  0  0  0  0  0  0
   56.6690   22.1250   42.7000 C   0  0  0  0  0  0  0  0  0  0  0  0
   55.8080   23.1720   43.0390 C   0  0  0  0  0  0  0  0  0  0  0  0
   55.7210   23.6040   44.3670 C   0  0  0  0  0  0  0  0  0  0  0  0
   57.8784   27.4527   47.6537 H   0  0  0  0  0  0  0  0  0  0  0  0
   58.5912   26.8209   46.1148 H   0  0  0  0  0  0  0  0  0  0  0  0
   59.2890   29.3308   47.0546 H   0  0  0  0  0  0  0  0  0  0  0  0
   59.7004   30.1827   45.5345 H   0  0  0  0  0  0  0  0  0  0  0  0
   56.5580   32.2491   45.5340 H   0  0  0  0  0  0  0  0  0  0  0  0
   56.4856   34.4320   44.3343 H   0  0  0  0  0  0  0  0  0  0  0  0
   58.4552   35.9569   44.3887 H   0  0  0  0  0  0  0  0  0  0  0  0
   60.5041   35.3106   45.6498 H   0  0  0  0  0  0  0  0  0  0  0  0
   62.2460   34.1623   45.7518 H   0  0  0  0  0  0  0  0  0  0  0  0
   64.3202   33.5132   46.9689 H   0  0  0  0  0  0  0  0  0  0  0  0
   65.3470   32.0520   48.6780 H   0  0  0  0  0  0  0  0  0  0  0  0
   61.9609   31.2326   49.7885 H   0  0  0  0  0  0  0  0  0  0  0  0
   59.8806   31.8762   48.5737 H   0  0  0  0  0  0  0  0  0  0  0  0
   56.8210   22.6756   47.4527 H   0  0  0  0  0  0  0  0  0  0  0  0
   55.3716   23.6682   47.0452 H   0  0  0  0  0  0  0  0  0  0  0  0
   57.9734   21.4520   45.7869 H   0  0  0  0  0  0  0  0  0  0  0  0
   58.1214   20.6842   43.4170 H   0  0  0  0  0  0  0  0  0  0  0  0
   56.7370   21.7859   41.6558 H   0  0  0  0  0  0  0  0  0  0  0  0
   55.1986   23.6566   42.2619 H   0  0  0  0  0  0  0  0  0  0  0  0
   55.0462   24.4317   44.6307 H   0  0  0  0  0  0  0  0  0  0  0  0
  1  2  2  0
  2  3  1  0
  3  4  1  0
  4  5  1  0
  5  6  1  0
  6  7  2  0
  6  8  1  0
  8  9  1  0
  9 10  1  0
 10 11  1  0
 11 12  1  0
 12 13  2  0
 13 14  1  0
 14 15  2  0
 15 16  1  0
 16 17  2  0
 17 18  1  0
 18 19  2  0
 19 20  1  0
 20 21  2  0
 21 22  1  0
 21 23  1  0
 23 24  2  0
  2 25  1  0
 25 26  1  0
 26 27  1  0
 27 28  2  0
 28 29  1  0
 29 30  2  0
 30 31  1  0
 31 32  2  0
  9  4  2  0
 17 12  1  0
 24 18  1  0
 32 27  1  0
  3 33  1  0
  3 34  1  0
 10 35  1  0
 10 36  1  0
 13 37  1  0
 14 38  1  0
 15 39  1  0
 16 40  1  0
 19 41  1  0
 20 42  1  0
 22 43  1  0
 23 44  1  0
 24 45  1  0
 26 46  1  0
 26 47  1  0
 28 48  1  0
 29 49  1  0
 30 50  1  0
 31 51  1  0
 32 52  1  0
M  CHG  3   5  -1   8  -1  25  -1
M  END
>  <UniqueID>  (67) 
67

>  <SMILES>  (67) 
O=C(Cc1[n-]c(=O)[n-]c1COc1ccccc1-c1ccc(O)cc1)[N-]Cc1ccccc1

>  <Energy>  (67) 
79.99429740486343

>  <Genealogy>  (67) 
O=C(Cc1[n-]c(=O)[n-]c1COc1ccccc1-c1ccc(O)cc1)[N-]Cc1ccccc1 (protonated)
O=C(Cc1[n-]c(=O)[n-]c1COc1ccccc1-c1ccc(O)cc1)[N-]Cc1ccccc1 (3D coordinates assigned)
O=C(Cc1[n-]c(=O)[n-]c1COc1ccccc1-c1ccc(O)cc1)[N-]Cc1ccccc1 (optimized conformer: 79.99429740486343 kcal/mol)

>  <smiles>  (67) 
O=C(Cc1[nH]c(=O)[nH]c1COc1ccccc1-c1ccc(O)cc1)NCc1ccccc1

>  <score_type>  (67) 
oracle

>  <origin>  (67) 
adg

>  <m_score__min__energy>  (67) 
-14.92

>  <m_primary>  (67) 
energy

$$$$
67:0
     RDKit          3D

 31 33  0  0  0  0  0  0  0  0999 V2000
   55.1480   29.1500   44.5960 O   0  0  0  0  0  0  0  0  0  0  0  0
   56.3310   29.4890   44.8600 C   0  0  0  0  0  0  0  0  0  0  0  0
   57.0330   28.7960   45.9010 N   0  0  0  0  0  0  0  0  0  0  0  0
   57.5070   27.4700   45.8040 N   0  0  0  0  0  0  0  0  0  0  0  0
   58.8490   27.1970   45.7330 C   0  0  0  0  0  0  0  0  0  0  0  0
   59.6960   28.1300   45.7970 O   0  0  0  0  0  0  0  0  0  0  0  0
   59.2870   25.9140   45.6240 N   0  0  0  0  0  0  0  0  0  0  0  0
   58.4140   24.8700   45.6260 C   0  0  0  0  0  0  0  0  0  0  0  0
   58.8790   23.5500   45.5150 C   0  0  0  0  0  0  0  0  0  0  0  0
   57.9780   22.4830   45.5330 C   0  0  0  0  0  0  0  0  0  0  0  0
   56.6090   22.7230   45.6650 C   0  0  0  0  0  0  0  0  0  0  0  0
   56.1330   24.0330   45.7780 C   0  0  0  0  0  0  0  0  0  0  0  0
   57.0320   25.1150   45.7570 C   0  0  0  0  0  0  0  0  0  0  0  0
   56.6020   26.4480   45.8610 C   0  0  0  0  0  0  0  0  0  0  0  0
   55.3720   26.7080   45.9920 O   0  0  0  0  0  0  0  0  0  0  0  0
   56.9570   30.5850   44.0870 C   0  0  0  0  0  0  0  0  0  0  0  0
   56.7720   30.6230   42.6940 C   0  0  0  0  0  0  0  0  0  0  0  0
   57.3220   31.6570   41.9340 C   0  0  0  0  0  0  0  0  0  0  0  0
   58.0730   32.6570   42.5530 C   0  0  0  0  0  0  0  0  0  0  0  0
   58.2890   32.6160   43.9320 C   0  0  0  0  0  0  0  0  0  0  0  0
   57.7440   31.5830   44.7040 C   0  0  0  0  0  0  0  0  0  0  0  0
   58.1520   31.5250   46.4150 Cl  0  0  0  0  0  0  0  0  0  0  0  0
   60.3140   25.7330   45.5540 H   0  0  0  0  0  0  0  0  0  0  0  0
   59.9569   23.3554   45.4135 H   0  0  0  0  0  0  0  0  0  0  0  0
   58.3479   21.4510   45.4430 H   0  0  0  0  0  0  0  0  0  0  0  0
   55.9031   21.8795   45.6802 H   0  0  0  0  0  0  0  0  0  0  0  0
   55.0538   24.2178   45.8835 H   0  0  0  0  0  0  0  0  0  0  0  0
   56.1895   29.8320   42.1990 H   0  0  0  0  0  0  0  0  0  0  0  0
   57.1631   31.6834   40.8459 H   0  0  0  0  0  0  0  0  0  0  0  0
   58.4950   33.4778   41.9545 H   0  0  0  0  0  0  0  0  0  0  0  0
   58.8910   33.4000   44.4146 H   0  0  0  0  0  0  0  0  0  0  0  0
  1  2  2  0
  2  3  1  0
  3  4  1  0
  4  5  1  0
  5  6  2  0
  5  7  1  0
  7  8  1  0
  8  9  2  0
  9 10  1  0
 10 11  2  0
 11 12  1  0
 12 13  2  0
 13 14  1  0
 14 15  2  0
  2 16  1  0
 16 17  2  0
 17 18  1  0
 18 19  2  0
 19 20  1  0
 20 21  2  0
 21 22  1  0
 14  4  1  0
 21 16  1  0
 13  8  1  0
  7 23  1  0
  9 24  1  0
 10 25  1  0
 11 26  1  0
 12 27  1  0
 17 28  1  0
 18 29  1  0
 19 30  1  0
 20 31  1  0
M  CHG  1   3  -1
M  END
>  <UniqueID>  (68) 
68

>  <SMILES>  (68) 
O=C([N-]n1c(=O)[nH]c2ccccc2c1=O)c1ccccc1Cl

>  <Energy>  (68) 
52.12749549630703

>  <Genealogy>  (68) 
O=C([N-]n1c(=O)[nH]c2ccccc2c1=O)c1ccccc1Cl (protonated)
O=C([N-]n1c(=O)[nH]c2ccccc2c1=O)c1ccccc1Cl (3D coordinates assigned)
O=C([N-]n1c(=O)[nH]c2ccccc2c1=O)c1ccccc1Cl (optimized conformer: 52.12749549630703 kcal/mol)

>  <smiles>  (68) 
O=C(Nn1c(=O)[nH]c2ccccc2c1=O)c1ccccc1Cl

>  <score_type>  (68) 
oracle

>  <origin>  (68) 
adg

>  <m_score__min__energy>  (68) 
-9.1799999999999997

>  <m_primary>  (68) 
energy

$$$$
68:0
     RDKit          3D

 42 45  0  0  0  0  0  0  0  0999 V2000
   50.3250   30.5950   47.9580 O   0  0  0  0  0  0  0  0  0  0  0  0
   51.0080   30.8680   48.9810 C   0  0  0  0  0  0  0  0  0  0  0  0
   50.6790   31.9580   49.7440 N   0  0  0  0  0  0  0  0  0  0  0  0
   51.3850   32.2960   50.8640 C   0  0  0  0  0  0  0  0  0  0  0  0
   51.0180   33.4010   51.6210 O   0  0  0  0  0  0  0  0  0  0  0  0
   52.4700   31.5030   51.2230 C   0  0  0  0  0  0  0  0  0  0  0  0
   53.3330   31.5700   52.2950 C   0  0  0  0  0  0  0  0  0  0  0  0
   54.1910   30.4840   52.1280 C   0  0  0  0  0  0  0  0  0  0  0  0
   55.2170   30.0390   53.1250 C   0  0  0  0  0  0  0  0  0  0  0  0
   56.5640   30.5550   52.7070 C   0  0  0  0  0  0  0  0  0  0  0  0
   56.8420   31.9310   52.7480 C   0  0  0  0  0  0  0  0  0  0  0  0
   58.0390   32.4220   52.2190 C   0  0  0  0  0  0  0  0  0  0  0  0
   58.9510   31.5500   51.6220 C   0  0  0  0  0  0  0  0  0  0  0  0
   58.6810   30.1750   51.5750 C   0  0  0  0  0  0  0  0  0  0  0  0
   59.5400   29.2880   50.8590 N   0  0  0  0  0  0  0  0  0  0  0  0
   59.6540   29.3870   49.1360 S   0  0  0  0  0  0  0  0  0  0  0  0
   60.7740   28.5160   48.6410 O   0  0  0  0  0  0  0  0  0  0  0  0
   58.3660   28.9190   48.5200 O   0  0  0  0  0  0  0  0  0  0  0  0
   59.9340   31.0700   48.6960 C   0  0  0  0  0  0  0  0  0  0  0  0
   58.8650   31.8700   48.2640 C   0  0  0  0  0  0  0  0  0  0  0  0
   59.0680   33.2250   47.9880 C   0  0  0  0  0  0  0  0  0  0  0  0
   60.3350   33.7910   48.1520 C   0  0  0  0  0  0  0  0  0  0  0  0
   61.4010   33.0020   48.5920 C   0  0  0  0  0  0  0  0  0  0  0  0
   61.2020   31.6450   48.8650 C   0  0  0  0  0  0  0  0  0  0  0  0
   57.5010   29.6790   52.1360 C   0  0  0  0  0  0  0  0  0  0  0  0
   53.8680   29.7740   51.0210 N   0  0  0  0  0  0  0  0  0  0  0  0
   52.8170   30.4110   50.4770 C   0  0  0  0  0  0  0  0  0  0  0  0
   52.1010   30.0530   49.3380 C   0  0  0  0  0  0  0  0  0  0  0  0
   52.4390   28.9610   48.6070 F   0  0  0  0  0  0  0  0  0  0  0  0
   53.3428   32.3155   53.1038 H   0  0  0  0  0  0  0  0  0  0  0  0
   54.9622   30.4367   54.1184 H   0  0  0  0  0  0  0  0  0  0  0  0
   55.2384   28.9401   53.1696 H   0  0  0  0  0  0  0  0  0  0  0  0
   56.1158   32.6242   53.1976 H   0  0  0  0  0  0  0  0  0  0  0  0
   58.2628   33.4976   52.2732 H   0  0  0  0  0  0  0  0  0  0  0  0
   59.8826   31.9421   51.1879 H   0  0  0  0  0  0  0  0  0  0  0  0
   57.8645   31.4294   48.1423 H   0  0  0  0  0  0  0  0  0  0  0  0
   58.2293   33.8466   47.6412 H   0  0  0  0  0  0  0  0  0  0  0  0
   60.4932   34.8577   47.9347 H   0  0  0  0  0  0  0  0  0  0  0  0
   62.3976   33.4487   48.7237 H   0  0  0  0  0  0  0  0  0  0  0  0
   62.0425   31.0267   49.2133 H   0  0  0  0  0  0  0  0  0  0  0  0
   57.3053   28.5966   52.1302 H   0  0  0  0  0  0  0  0  0  0  0  0
   54.3160   28.8930   50.6830 H   0  0  0  0  0  0  0  0  0  0  0  0
  1  2  2  0
  2  3  1  0
  3  4  1  0
  4  5  1  0
  4  6  2  0
  6  7  1  0
  7  8  2  0
  8  9  1  0
  9 10  1  0
 10 11  2  0
 11 12  1  0
 12 13  2  0
 13 14  1  0
 14 15  1  0
 15 16  1  0
 16 17  2  0
 16 18  2  0
 16 19  1  0
 19 20  2  0
 20 21  1  0
 21 22  2  0
 22 23  1  0
 23 24  2  0
 14 25  2  0
  8 26  1  0
 26 27  1  0
 27 28  2  0
 28 29  1  0
 28  2  1  0
 27  6  1  0
 25 10  1  0
 24 19  1  0
  7 30  1  0
  9 31  1  0
  9 32  1  0
 11 33  1  0
 12 34  1  0
 13 35  1  0
 20 36  1  0
 21 37  1  0
 22 38  1  0
 23 39  1  0
 24 40  1  0
 25 41  1  0
 26 42  1  0
M  CHG  3   3  -1   5  -1  15  -1
M  END
>  <UniqueID>  (69) 
69

>  <SMILES>  (69) 
O=c1[n-]c([O-])c2cc(Cc3cccc([N-]S(=O)(=O)c4ccccc4)c3)[nH]c2c1F

>  <Energy>  (69) 
83.4733508180414

>  <Genealogy>  (69) 
O=c1[n-]c([O-])c2cc(Cc3cccc([N-]S(=O)(=O)c4ccccc4)c3)[nH]c2c1F (protonated)
O=c1[n-]c([O-])c2cc(Cc3cccc([N-]S(=O)(=O)c4ccccc4)c3)[nH]c2c1F (3D coordinates assigned)
O=c1[n-]c([O-])c2cc(Cc3cccc([N-]S(=O)(=O)c4ccccc4)c3)[nH]c2c1F (optimized conformer: 83.4733508180414 kcal/mol)

>  <smiles>  (69) 
O=c1[nH]c(O)c2cc(Cc3cccc(NS(=O)(=O)c4ccccc4)c3)[nH]c2c1F

>  <score_type>  (69) 
oracle

>  <origin>  (69) 
adg

>  <m_score__min__energy>  (69) 
-17.170000000000002

>  <m_primary>  (69) 
energy

$$$$
69:0
     RDKit          3D

 41 43  0  0  0  0  0  0  0  0999 V2000
   51.8377   22.0111   45.7880 H   0  0  0  0  0  0  0  0  0  0  0  0
   52.3830   22.9610   45.8900 C   0  0  0  0  0  0  0  0  0  0  0  0
   51.9090   23.9035   45.5784 H   0  0  0  0  0  0  0  0  0  0  0  0
   53.6200   22.9700   46.3920 C   0  0  0  0  0  0  0  0  0  0  0  0
   54.3300   21.8650   46.8390 C   0  0  0  0  0  0  0  0  0  0  0  0
   53.8780   20.4390   46.8630 C   0  0  0  0  0  0  0  0  0  0  0  0
   53.7722   20.1054   47.9058 H   0  0  0  0  0  0  0  0  0  0  0  0
   52.9085   20.3530   46.3504 H   0  0  0  0  0  0  0  0  0  0  0  0
   54.6209   19.8102   46.3504 H   0  0  0  0  0  0  0  0  0  0  0  0
   55.5470   22.3370   47.2960 C   0  0  0  0  0  0  0  0  0  0  0  0
   56.3635   21.7437   47.7334 H   0  0  0  0  0  0  0  0  0  0  0  0
   55.5310   23.7080   47.0920 C   0  0  0  0  0  0  0  0  0  0  0  0
   56.5310   24.5350   47.4360 C   0  0  0  0  0  0  0  0  0  0  0  0
   57.0166   24.3860   48.4117 H   0  0  0  0  0  0  0  0  0  0  0  0
   57.0130   25.6300   46.5790 C   0  0  0  0  0  0  0  0  0  0  0  0
   58.3150   25.8130   46.2690 N   0  0  0  0  0  0  0  0  0  0  0  0
   58.3030   26.9080   45.4770 C   0  0  0  0  0  0  0  0  0  0  0  0
   59.3530   27.4220   45.0070 O   0  0  0  0  0  0  0  0  0  0  0  0
   57.0660   27.4010   45.2490 N   0  0  0  0  0  0  0  0  0  0  0  0
   56.7060   28.6390   44.5580 C   0  0  0  0  0  0  0  0  0  0  0  0
   57.1924   28.6632   43.5717 H   0  0  0  0  0  0  0  0  0  0  0  0
   55.6144   28.6833   44.4295 H   0  0  0  0  0  0  0  0  0  0  0  0
   57.1620   29.8140   45.3690 C   0  0  0  0  0  0  0  0  0  0  0  0
   56.6820   30.9530   45.1230 O   0  0  0  0  0  0  0  0  0  0  0  0
   58.2140   29.6510   46.3340 N   0  0  0  0  0  0  0  0  0  0  0  0
   58.6570   28.7080   46.4140 H   0  0  0  0  0  0  0  0  0  0  0  0
   58.8490   30.7410   47.0220 C   0  0  0  0  0  0  0  0  0  0  0  0
   59.4330   30.5680   48.2870 C   0  0  0  0  0  0  0  0  0  0  0  0
   59.4003   29.5830   48.7756 H   0  0  0  0  0  0  0  0  0  0  0  0
   60.0560   31.6430   48.9280 C   0  0  0  0  0  0  0  0  0  0  0  0
   60.5041   31.5025   49.9227 H   0  0  0  0  0  0  0  0  0  0  0  0
   60.1120   32.8980   48.3090 C   0  0  0  0  0  0  0  0  0  0  0  0
   60.9050   34.2260   49.1470 Cl  0  0  0  0  0  0  0  0  0  0  0  0
   59.5490   33.0720   47.0350 C   0  0  0  0  0  0  0  0  0  0  0  0
   59.6060   34.6270   46.2150 Cl  0  0  0  0  0  0  0  0  0  0  0  0
   58.9290   31.9930   46.3950 C   0  0  0  0  0  0  0  0  0  0  0  0
   58.5005   32.1280   45.3910 H   0  0  0  0  0  0  0  0  0  0  0  0
   56.2530   26.5890   45.9430 C   0  0  0  0  0  0  0  0  0  0  0  0
   54.8670   26.6990   45.9750 O   0  0  0  0  0  0  0  0  0  0  0  0
   54.3530   24.0890   46.5490 N   0  0  0  0  0  0  0  0  0  0  0  0
   54.0350   25.0610   46.3340 H   0  0  0  0  0  0  0  0  0  0  0  0
  1  2  1  0
  2  3  1  0
  2  4  2  0
  4  5  1  0
  5  6  1  0
  6  7  1  0
  6  8  1  0
  6  9  1  0
  5 10  2  0
 10 11  1  0
 10 12  1  0
 12 13  2  0
 13 14  1  0
 13 15  1  0
 15 16  1  0
 16 17  1  0
 17 18  2  0
 17 19  1  0
 19 20  1  0
 20 21  1  0
 20 22  1  0
 20 23  1  0
 23 24  2  0
 23 25  1  0
 25 26  1  0
 25 27  1  0
 27 28  2  0
 28 29  1  0
 28 30  1  0
 30 31  1  0
 30 32  2  0
 32 33  1  0
 32 34  1  0
 34 35  1  0
 34 36  2  0
 36 37  1  0
 19 38  1  0
 38 39  1  0
 12 40  1  0
 40 41  1  0
 40  4  1  0
 38 15  2  0
 36 27  1  0
M  CHG  2  16  -1  39  -1
M  END
>  <UniqueID>  (70) 
70

>  <SMILES>  (70) 
C=c1[nH]/c(=C\c2[n-]c(=O)n(CC(=O)Nc3ccc(Cl)c(Cl)c3)c2[O-])cc1C

>  <Energy>  (70) 
107.77386133479054

>  <Genealogy>  (70) 
C=c1[nH]c(=Cc2[n-]c(=O)n(CC(=O)Nc3ccc(Cl)c(Cl)c3)c2[O-])cc1C (protonated)
C=c1[nH]/c(=C\c2[n-]c(=O)n(CC(=O)Nc3ccc(Cl)c(Cl)c3)c2[O-])cc1C (cis-trans isomerization)
C=c1[nH]/c(=C\c2[n-]c(=O)n(CC(=O)Nc3ccc(Cl)c(Cl)c3)c2[O-])cc1C (3D coordinates assigned)
C=c1[nH]/c(=C\c2[n-]c(=O)n(CC(=O)Nc3ccc(Cl)c(Cl)c3)c2[O-])cc1C (optimized conformer: 107.77386133479054 kcal/mol)

>  <smiles>  (70) 
C=c1[nH]c(=Cc2[nH]c(=O)n(CC(=O)Nc3ccc(Cl)c(Cl)c3)c2O)cc1C

>  <score_type>  (70) 
oracle

>  <origin>  (70) 
adg

>  <m_score__min__energy>  (70) 
-12.539999999999999

>  <m_primary>  (70) 
energy

$$$$
70:0
     RDKit          3D

 43 45  0  0  0  0  0  0  0  0999 V2000
   58.1615   33.5549   42.3396 H   0  0  0  0  0  0  0  0  0  0  0  0
   57.8010   32.7080   42.9420 C   0  0  0  0  0  0  0  0  0  0  0  0
   57.8160   32.7780   44.3450 C   0  0  0  0  0  0  0  0  0  0  0  0
   58.3120   33.8930   45.0350 O   0  0  0  0  0  0  0  0  0  0  0  0
   59.1600   33.8630   46.1510 C   0  0  0  0  0  0  0  0  0  0  0  0
   58.6630   33.8830   47.4650 C   0  0  0  0  0  0  0  0  0  0  0  0
   57.5783   33.9319   47.6411 H   0  0  0  0  0  0  0  0  0  0  0  0
   59.5430   33.8410   48.5470 C   0  0  0  0  0  0  0  0  0  0  0  0
   59.1508   33.8741   49.5742 H   0  0  0  0  0  0  0  0  0  0  0  0
   60.9210   33.7570   48.3300 C   0  0  0  0  0  0  0  0  0  0  0  0
   61.6089   33.7353   49.1881 H   0  0  0  0  0  0  0  0  0  0  0  0
   61.4340   33.7000   47.0220 C   0  0  0  0  0  0  0  0  0  0  0  0
   62.8980   33.6010   46.8050 C   0  0  0  0  0  0  0  0  0  0  0  0
   63.5250   34.5830   46.3210 O   0  0  0  0  0  0  0  0  0  0  0  0
   63.6270   32.4190   47.1460 N   0  0  0  0  0  0  0  0  0  0  0  0
   63.1930   31.6430   47.6920 H   0  0  0  0  0  0  0  0  0  0  0  0
   64.6470   32.3540   46.9280 H   0  0  0  0  0  0  0  0  0  0  0  0
   60.5380   33.7570   45.9370 C   0  0  0  0  0  0  0  0  0  0  0  0
   60.9267   33.7177   44.9087 H   0  0  0  0  0  0  0  0  0  0  0  0
   57.3930   31.7080   45.0660 N   0  0  0  0  0  0  0  0  0  0  0  0
   56.9440   30.5580   44.4870 C   0  0  0  0  0  0  0  0  0  0  0  0
   56.5500   29.5500   45.2130 N   0  0  0  0  0  0  0  0  0  0  0  0
   57.3970   28.6340   45.9290 C   0  0  0  0  0  0  0  0  0  0  0  0
   57.1670   27.3990   45.8360 O   0  0  0  0  0  0  0  0  0  0  0  0
   58.5460   29.0920   46.7430 C   0  0  0  0  0  0  0  0  0  0  0  0
   58.5740   28.8450   48.1250 C   0  0  0  0  0  0  0  0  0  0  0  0
   57.7718   28.2553   48.5926 H   0  0  0  0  0  0  0  0  0  0  0  0
   59.6180   29.3460   48.9090 C   0  0  0  0  0  0  0  0  0  0  0  0
   59.6295   29.1579   49.9927 H   0  0  0  0  0  0  0  0  0  0  0  0
   60.6480   30.0860   48.3180 C   0  0  0  0  0  0  0  0  0  0  0  0
   61.9550   30.7800   49.3310 S   0  0  0  0  0  0  0  0  0  0  0  0
   60.8240   31.2400   50.6820 C   0  0  0  0  0  0  0  0  0  0  0  0
   61.3090   31.0427   51.6494 H   0  0  0  0  0  0  0  0  0  0  0  0
   60.5783   32.3095   50.6063 H   0  0  0  0  0  0  0  0  0  0  0  0
   59.9015   30.6456   50.6063 H   0  0  0  0  0  0  0  0  0  0  0  0
   60.6520   30.2930   46.9330 C   0  0  0  0  0  0  0  0  0  0  0  0
   61.4767   30.8483   46.4625 H   0  0  0  0  0  0  0  0  0  0  0  0
   59.6080   29.7940   46.1480 C   0  0  0  0  0  0  0  0  0  0  0  0
   59.6181   29.9517   45.0594 H   0  0  0  0  0  0  0  0  0  0  0  0
   56.8870   30.4720   43.0910 C   0  0  0  0  0  0  0  0  0  0  0  0
   56.4330   29.3470   42.4830 F   0  0  0  0  0  0  0  0  0  0  0  0
   57.3240   31.5530   42.3200 C   0  0  0  0  0  0  0  0  0  0  0  0
   57.2920   31.4934   41.2221 H   0  0  0  0  0  0  0  0  0  0  0  0
  1  2  1  0
  2  3  2  0
  3  4  1  0
  4  5  1  0
  5  6  2  0
  6  7  1  0
  6  8  1  0
  8  9  1  0
  8 10  2  0
 10 11  1  0
 10 12  1  0
 12 13  1  0
 13 14  2  0
 13 15  1  0
 15 16  1  0
 15 17  1  0
 12 18  2  0
 18 19  1  0
  3 20  1  0
 20 21  1  0
 21 22  2  0
 22 23  1  0
 23 24  2  0
 23 25  1  0
 25 26  2  0
 26 27  1  0
 26 28  1  0
 28 29  1  0
 28 30  2  0
 30 31  1  0
 31 32  1  0
 32 33  1  0
 32 34  1  0
 32 35  1  0
 30 36  1  0
 36 37  1  0
 36 38  2  0
 38 39  1  0
 21 40  1  0
 40 41  1  0
 40 42  2  0
 42 43  1  0
 42  2  1  0
 18  5  1  0
 38 25  1  0
M  CHG  1  20  -1
M  END
>  <UniqueID>  (71) 
71

>  <SMILES>  (71) 
CSc1ccc(C(=O)/N=c2\[n-]c(Oc3cccc(C(N)=O)c3)ccc2F)cc1

>  <Energy>  (71) 
57.433224436524156

>  <Genealogy>  (71) 
CSc1ccc(C(=O)N=c2[n-]c(Oc3cccc(C(N)=O)c3)ccc2F)cc1 (protonated)
CSc1ccc(C(=O)/N=c2\[n-]c(Oc3cccc(C(N)=O)c3)ccc2F)cc1 (cis-trans isomerization)
CSc1ccc(C(=O)/N=c2\[n-]c(Oc3cccc(C(N)=O)c3)ccc2F)cc1 (3D coordinates assigned)
CSc1ccc(C(=O)/N=c2\[n-]c(Oc3cccc(C(N)=O)c3)ccc2F)cc1 (optimized conformer: 57.433224436524156 kcal/mol)

>  <smiles>  (71) 
CSc1ccc(C(=O)N=c2[nH]c(Oc3cccc(C(N)=O)c3)ccc2F)cc1

>  <score_type>  (71) 
oracle

>  <origin>  (71) 
adg

>  <m_score__min__energy>  (71) 
-10.49

>  <m_primary>  (71) 
energy

$$$$
71:0
     RDKit          3D

 60 64  0  0  0  0  0  0  0  0999 V2000
   56.6100   22.9396   49.1649 H   0  0  0  0  0  0  0  0  0  0  0  0
   56.9690   23.2760   48.1810 C   0  0  0  0  0  0  0  0  0  0  0  0
   57.3380   22.3620   47.2460 N   0  0  0  0  0  0  0  0  0  0  0  0
   57.7870   22.7400   46.0200 C   0  0  0  0  0  0  0  0  0  0  0  0
   58.0818   21.9771   45.2844 H   0  0  0  0  0  0  0  0  0  0  0  0
   57.8750   24.0950   45.6920 C   0  0  0  0  0  0  0  0  0  0  0  0
   58.2360   24.4008   44.6990 H   0  0  0  0  0  0  0  0  0  0  0  0
   57.5000   25.0660   46.6370 C   0  0  0  0  0  0  0  0  0  0  0  0
   57.5790   26.5150   46.3110 C   0  0  0  0  0  0  0  0  0  0  0  0
   58.6350   27.3000   46.7960 C   0  0  0  0  0  0  0  0  0  0  0  0
   59.4077   26.8409   47.4302 H   0  0  0  0  0  0  0  0  0  0  0  0
   58.7160   28.6600   46.4820 C   0  0  0  0  0  0  0  0  0  0  0  0
   59.5306   29.2665   46.9047 H   0  0  0  0  0  0  0  0  0  0  0  0
   57.7670   29.2660   45.6300 C   0  0  0  0  0  0  0  0  0  0  0  0
   57.8040   30.6410   45.2380 C   0  0  0  0  0  0  0  0  0  0  0  0
   58.8480   31.4250   45.3260 N   0  0  0  0  0  0  0  0  0  0  0  0
   58.9890   32.7010   45.9670 C   0  0  0  0  0  0  0  0  0  0  0  0
   58.0970   33.5800   45.8110 O   0  0  0  0  0  0  0  0  0  0  0  0
   60.1230   32.9510   46.8880 C   0  0  0  0  0  0  0  0  0  0  0  0
   61.4160   33.1710   46.3840 C   0  0  0  0  0  0  0  0  0  0  0  0
   61.5858   33.1669   45.2972 H   0  0  0  0  0  0  0  0  0  0  0  0
   62.4880   33.3950   47.2520 C   0  0  0  0  0  0  0  0  0  0  0  0
   63.4951   33.5647   46.8434 H   0  0  0  0  0  0  0  0  0  0  0  0
   62.2890   33.4050   48.6420 C   0  0  0  0  0  0  0  0  0  0  0  0
   63.3980   33.6130   49.5380 N   0  0  0  0  0  0  0  0  0  0  0  0
   63.2090   34.3530   50.7890 C   0  0  0  0  0  0  0  0  0  0  0  0
   62.2371   34.0809   51.2266 H   0  0  0  0  0  0  0  0  0  0  0  0
   63.2403   35.4308   50.5714 H   0  0  0  0  0  0  0  0  0  0  0  0
   64.3270   34.0170   51.7920 C   0  0  0  0  0  0  0  0  0  0  0  0
   63.9777   34.2535   52.8079 H   0  0  0  0  0  0  0  0  0  0  0  0
   65.2131   34.6144   51.5313 H   0  0  0  0  0  0  0  0  0  0  0  0
   64.7020   32.5830   51.7340 N   0  0  0  0  0  0  0  0  0  0  0  0
   65.4800   32.4630   52.4290 H   0  0  0  0  0  0  0  0  0  0  0  0
   63.5730   31.7140   52.1610 C   0  0  0  0  0  0  0  0  0  0  0  0
   62.6945   32.3459   52.3585 H   0  0  0  0  0  0  0  0  0  0  0  0
   63.8872   31.1717   53.0650 H   0  0  0  0  0  0  0  0  0  0  0  0
   63.2050   30.6760   51.0930 C   0  0  0  0  0  0  0  0  0  0  0  0
   62.8758   29.7474   51.5822 H   0  0  0  0  0  0  0  0  0  0  0  0
   62.3912   31.0683   50.4655 H   0  0  0  0  0  0  0  0  0  0  0  0
   64.0842   30.4680   50.4655 H   0  0  0  0  0  0  0  0  0  0  0  0
   65.2340   32.1960   50.3930 C   0  0  0  0  0  0  0  0  0  0  0  0
   64.9328   31.1580   50.1883 H   0  0  0  0  0  0  0  0  0  0  0  0
   66.3260   32.3208   50.4370 H   0  0  0  0  0  0  0  0  0  0  0  0
   64.7310   33.0840   49.2350 C   0  0  0  0  0  0  0  0  0  0  0  0
   64.6823   32.4849   48.3137 H   0  0  0  0  0  0  0  0  0  0  0  0
   65.4270   33.9255   49.1026 H   0  0  0  0  0  0  0  0  0  0  0  0
   61.0000   33.1730   49.1480 C   0  0  0  0  0  0  0  0  0  0  0  0
   60.8334   33.1651   50.2353 H   0  0  0  0  0  0  0  0  0  0  0  0
   59.9270   32.9520   48.2800 C   0  0  0  0  0  0  0  0  0  0  0  0
   58.9211   32.7774   48.6894 H   0  0  0  0  0  0  0  0  0  0  0  0
   56.6540   31.2040   44.6680 C   0  0  0  0  0  0  0  0  0  0  0  0
   56.6119   32.2868   44.4787 H   0  0  0  0  0  0  0  0  0  0  0  0
   55.5650   30.4020   44.3400 C   0  0  0  0  0  0  0  0  0  0  0  0
   54.6793   30.8475   43.8636 H   0  0  0  0  0  0  0  0  0  0  0  0
   55.5930   29.0740   44.6060 N   0  0  0  0  0  0  0  0  0  0  0  0
   56.6430   28.4900   45.2400 C   0  0  0  0  0  0  0  0  0  0  0  0
   56.5750   27.1260   45.5480 C   0  0  0  0  0  0  0  0  0  0  0  0
   55.7250   26.5280   45.1875 H   0  0  0  0  0  0  0  0  0  0  0  0
   57.0440   24.6410   47.8970 C   0  0  0  0  0  0  0  0  0  0  0  0
   56.7477   25.3804   48.6556 H   0  0  0  0  0  0  0  0  0  0  0  0
  1  2  1  0
  2  3  2  0
  3  4  1  0
  4  5  1  0
  4  6  2  0
  6  7  1  0
  6  8  1  0
  8  9  1  0
  9 10  2  0
 10 11  1  0
 10 12  1  0
 12 13  1  0
 12 14  2  0
 14 15  1  0
 15 16  2  0
 16 17  1  0
 17 18  2  0
 17 19  1  0
 19 20  2  0
 20 21  1  0
 20 22  1  0
 22 23  1  0
 22 24  2  0
 24 25  1  0
 25 26  1  0
 26 27  1  0
 26 28  1  0
 26 29  1  0
 29 30  1  0
 29 31  1  0
 29 32  1  0
 32 33  1  0
 32 34  1  0
 34 35  1  0
 34 36  1  0
 34 37  1  0
 37 38  1  0
 37 39  1  0
 37 40  1  0
 32 41  1  0
 41 42  1  0
 41 43  1  0
 41 44  1  0
 44 45  1  0
 44 46  1  0
 24 47  1  0
 47 48  1  0
 47 49  2  0
 49 50  1  0
 15 51  1  0
 51 52  1  0
 51 53  2  0
 53 54  1  0
 53 55  1  0
 55 56  1  0
 56 57  2  0
 57 58  1  0
  8 59  2  0
 59 60  1  0
 59  2  1  0
 57  9  1  0
 56 14  1  0
 49 19  1  0
 44 25  1  0
M  CHG  2  32   1  55  -1
M  END
>  <UniqueID>  (72) 
72

>  <SMILES>  (72) 
CC[NH+]1CCN(c2ccc(C(=O)/N=c3/cc[n-]c4cc(-c5ccncc5)ccc34)cc2)CC1

>  <Energy>  (72) 
106.57158714277793

>  <Genealogy>  (72) 
CC[NH+]1CCN(c2ccc(C(=O)N=c3cc[n-]c4cc(-c5ccncc5)ccc34)cc2)CC1 (protonated)
CC[NH+]1CCN(c2ccc(C(=O)/N=c3/cc[n-]c4cc(-c5ccncc5)ccc34)cc2)CC1 (cis-trans isomerization)
CC[NH+]1CCN(c2ccc(C(=O)/N=c3/cc[n-]c4cc(-c5ccncc5)ccc34)cc2)CC1 (3D coordinates assigned)
CC[NH+]1CCN(c2ccc(C(=O)/N=c3/cc[n-]c4cc(-c5ccncc5)ccc34)cc2)CC1 (nonaromatic ring conformer: 106.57158714277793 kcal/mol)

>  <smiles>  (72) 
CCN1CCN(c2ccc(C(=O)N=c3cc[nH]c4cc(-c5ccncc5)ccc34)cc2)CC1

>  <score_type>  (72) 
oracle

>  <origin>  (72) 
adg

>  <m_score__min__energy>  (72) 
-8.9499999999999993

>  <m_primary>  (72) 
energy

$$$$
72:0
     RDKit          3D

 68 72  0  0  0  0  0  0  0  0999 V2000
   60.4830   27.0860   49.4390 O   0  0  0  0  0  0  0  0  0  0  0  0
   60.2850   27.9870   48.5850 C   0  0  0  0  0  0  0  0  0  0  0  0
   60.6230   27.7570   47.2150 N   0  0  0  0  0  0  0  0  0  0  0  0
   59.6640   27.7190   46.1520 C   0  0  0  0  0  0  0  0  0  0  0  0
   59.1480   26.4850   45.7410 C   0  0  0  0  0  0  0  0  0  0  0  0
   58.1430   26.4300   44.7720 C   0  0  0  0  0  0  0  0  0  0  0  0
   57.6190   27.6110   44.2360 C   0  0  0  0  0  0  0  0  0  0  0  0
   58.1070   28.8560   44.6640 C   0  0  0  0  0  0  0  0  0  0  0  0
   57.3350   30.3500   44.1260 S   0  0  0  0  0  0  0  0  0  0  0  0
   57.0370   30.2530   42.6560 O   0  0  0  0  0  0  0  0  0  0  0  0
   56.0300   30.5260   44.8540 O   0  0  0  0  0  0  0  0  0  0  0  0
   58.3520   31.7420   44.4330 N   0  0  0  0  0  0  0  0  0  0  0  0
   57.7810   32.9830   43.8520 C   0  0  0  0  0  0  0  0  0  0  0  0
   57.0060   33.8280   44.8800 C   0  0  0  0  0  0  0  0  0  0  0  0
   57.8700   34.1990   46.1000 C   0  0  0  0  0  0  0  0  0  0  0  0
   59.0780   33.2650   46.2770 C   0  0  0  0  0  0  0  0  0  0  0  0
   58.7040   31.8360   45.8680 C   0  0  0  0  0  0  0  0  0  0  0  0
   59.1500   28.9040   45.5980 C   0  0  0  0  0  0  0  0  0  0  0  0
   59.7490   29.2870   48.9980 C   0  0  0  0  0  0  0  0  0  0  0  0
   58.8950   29.5270   50.0590 C   0  0  0  0  0  0  0  0  0  0  0  0
   58.8220   30.9010   50.1850 C   0  0  0  0  0  0  0  0  0  0  0  0
   58.1100   31.6230   51.2540 C   0  0  0  0  0  0  0  0  0  0  0  0
   56.8490   31.6250   51.2490 O   0  0  0  0  0  0  0  0  0  0  0  0
   58.8240   32.3970   52.2350 N   0  0  0  0  0  0  0  0  0  0  0  0
   60.2750   32.4720   52.3210 C   0  0  0  0  0  0  0  0  0  0  0  0
   60.5710   33.4640   53.4400 C   0  0  0  0  0  0  0  0  0  0  0  0
   59.2750   34.2370   53.6610 C   0  0  0  0  0  0  0  0  0  0  0  0
   58.1650   33.3460   53.1160 C   0  0  0  0  0  0  0  0  0  0  0  0
   59.6040   31.4980   49.2550 N   0  0  0  0  0  0  0  0  0  0  0  0
   59.9930   32.9110   49.2110 C   0  0  0  0  0  0  0  0  0  0  0  0
   61.4580   33.0340   48.8670 C   0  0  0  0  0  0  0  0  0  0  0  0
   62.4440   32.6800   49.8060 C   0  0  0  0  0  0  0  0  0  0  0  0
   63.7960   32.7100   49.4520 C   0  0  0  0  0  0  0  0  0  0  0  0
   64.1740   33.0910   48.1610 C   0  0  0  0  0  0  0  0  0  0  0  0
   63.2010   33.4590   47.2270 C   0  0  0  0  0  0  0  0  0  0  0  0
   61.8470   33.4320   47.5770 C   0  0  0  0  0  0  0  0  0  0  0  0
   60.1680   30.5160   48.5250 C   0  0  0  0  0  0  0  0  0  0  0  0
   59.5350   25.5548   46.1825 H   0  0  0  0  0  0  0  0  0  0  0  0
   57.7631   25.4560   44.4299 H   0  0  0  0  0  0  0  0  0  0  0  0
   56.8233   27.5643   43.4779 H   0  0  0  0  0  0  0  0  0  0  0  0
   58.6034   33.5911   43.4472 H   0  0  0  0  0  0  0  0  0  0  0  0
   57.0687   32.6823   43.0696 H   0  0  0  0  0  0  0  0  0  0  0  0
   56.6655   34.7535   44.3928 H   0  0  0  0  0  0  0  0  0  0  0  0
   56.1568   33.2276   45.2383 H   0  0  0  0  0  0  0  0  0  0  0  0
   58.2366   35.2282   45.9718 H   0  0  0  0  0  0  0  0  0  0  0  0
   57.2396   34.1006   46.9961 H   0  0  0  0  0  0  0  0  0  0  0  0
   59.9068   33.6188   45.6462 H   0  0  0  0  0  0  0  0  0  0  0  0
   59.3837   33.2685   47.3337 H   0  0  0  0  0  0  0  0  0  0  0  0
   59.5599   31.1744   46.0674 H   0  0  0  0  0  0  0  0  0  0  0  0
   57.8226   31.5355   46.4536 H   0  0  0  0  0  0  0  0  0  0  0  0
   59.5693   29.8752   45.8997 H   0  0  0  0  0  0  0  0  0  0  0  0
   58.3791   28.7770   50.6766 H   0  0  0  0  0  0  0  0  0  0  0  0
   60.6965   31.4850   52.5620 H   0  0  0  0  0  0  0  0  0  0  0  0
   60.7224   32.7899   51.3677 H   0  0  0  0  0  0  0  0  0  0  0  0
   60.8610   32.9314   54.3577 H   0  0  0  0  0  0  0  0  0  0  0  0
   61.4033   34.1340   53.1785 H   0  0  0  0  0  0  0  0  0  0  0  0
   59.1211   34.4290   54.7331 H   0  0  0  0  0  0  0  0  0  0  0  0
   59.2947   35.2148   53.1575 H   0  0  0  0  0  0  0  0  0  0  0  0
   57.6573   32.8191   53.9373 H   0  0  0  0  0  0  0  0  0  0  0  0
   57.3978   33.9293   52.5857 H   0  0  0  0  0  0  0  0  0  0  0  0
   59.3949   33.4296   48.4473 H   0  0  0  0  0  0  0  0  0  0  0  0
   59.8148   33.3649   50.1970 H   0  0  0  0  0  0  0  0  0  0  0  0
   62.1501   32.3786   50.8222 H   0  0  0  0  0  0  0  0  0  0  0  0
   64.5634   32.4335   50.1900 H   0  0  0  0  0  0  0  0  0  0  0  0
   65.2375   33.1012   47.8800 H   0  0  0  0  0  0  0  0  0  0  0  0
   63.5007   33.7702   46.2154 H   0  0  0  0  0  0  0  0  0  0  0  0
   61.0843   33.7233   46.8398 H   0  0  0  0  0  0  0  0  0  0  0  0
   60.8569   30.6692   47.6812 H   0  0  0  0  0  0  0  0  0  0  0  0
  1  2  2  0
  2  3  1  0
  3  4  1  0
  4  5  2  0
  5  6  1  0
  6  7  2  0
  7  8  1  0
  8  9  1  0
  9 10  2  0
  9 11  2  0
  9 12  1  0
 12 13  1  0
 13 14  1  0
 14 15  1  0
 15 16  1  0
 16 17  1  0
  8 18  2  0
  2 19  1  0
 19 20  1  0
 20 21  2  0
 21 22  1  0
 22 23  2  0
 22 24  1  0
 24 25  1  0
 25 26  1  0
 26 27  1  0
 27 28  1  0
 21 29  1  0
 29 30  1  0
 30 31  1  0
 31 32  2  0
 32 33  1  0
 33 34  2  0
 34 35  1  0
 35 36  2  0
 29 37  1  0
 18  4  1  0
 37 19  2  0
 17 12  1  0
 28 24  1  0
 36 31  1  0
  5 38  1  0
  6 39  1  0
  7 40  1  0
 13 41  1  0
 13 42  1  0
 14 43  1  0
 14 44  1  0
 15 45  1  0
 15 46  1  0
 16 47  1  0
 16 48  1  0
 17 49  1  0
 17 50  1  0
 18 51  1  0
 20 52  1  0
 25 53  1  0
 25 54  1  0
 26 55  1  0
 26 56  1  0
 27 57  1  0
 27 58  1  0
 28 59  1  0
 28 60  1  0
 30 61  1  0
 30 62  1  0
 32 63  1  0
 33 64  1  0
 34 65  1  0
 35 66  1  0
 36 67  1  0
 37 68  1  0
M  CHG  1   3  -1
M  END
>  <UniqueID>  (73) 
73

>  <SMILES>  (73) 
O=C([N-]c1cccc(S(=O)(=O)N2CCCCC2)c1)c1cc(C(=O)N2CCCC2)n(Cc2ccccc2)c1

>  <Energy>  (73) 
108.46824598785462

>  <Genealogy>  (73) 
O=C([N-]c1cccc(S(=O)(=O)N2CCCCC2)c1)c1cc(C(=O)N2CCCC2)n(Cc2ccccc2)c1 (protonated)
O=C([N-]c1cccc(S(=O)(=O)N2CCCCC2)c1)c1cc(C(=O)N2CCCC2)n(Cc2ccccc2)c1 (3D coordinates assigned)
O=C([N-]c1cccc(S(=O)(=O)N2CCCCC2)c1)c1cc(C(=O)N2CCCC2)n(Cc2ccccc2)c1 (nonaromatic ring conformer: 108.46824598785462 kcal/mol)

>  <smiles>  (73) 
O=C(Nc1cccc(S(=O)(=O)N2CCCCC2)c1)c1cc(C(=O)N2CCCC2)n(Cc2ccccc2)c1

>  <score_type>  (73) 
oracle

>  <origin>  (73) 
adg

>  <m_score__min__energy>  (73) 
-11.970000000000001

>  <m_primary>  (73) 
energy

$$$$
73:0
     RDKit          3D

 45 47  0  0  0  0  0  0  0  0999 V2000
   57.8140   32.2950   41.4640 C   0  0  0  0  0  0  0  0  0  0  0  0
   57.0520   32.1390   42.6570 O   0  0  0  0  0  0  0  0  0  0  0  0
   57.5960   31.9280   43.9360 C   0  0  0  0  0  0  0  0  0  0  0  0
   58.4660   32.8710   44.5190 C   0  0  0  0  0  0  0  0  0  0  0  0
   59.0150   32.6500   45.7810 C   0  0  0  0  0  0  0  0  0  0  0  0
   58.7170   31.4790   46.4870 C   0  0  0  0  0  0  0  0  0  0  0  0
   59.2780   31.2650   47.8660 C   0  0  0  0  0  0  0  0  0  0  0  0
   60.6420   30.6600   47.7740 C   0  0  0  0  0  0  0  0  0  0  0  0
   61.6520   31.4080   47.6870 O   0  0  0  0  0  0  0  0  0  0  0  0
   60.7710   29.2360   47.6730 N   0  0  0  0  0  0  0  0  0  0  0  0
   59.9780   28.3640   46.8550 C   0  0  0  0  0  0  0  0  0  0  0  0
   60.0060   28.4300   45.4510 C   0  0  0  0  0  0  0  0  0  0  0  0
   59.2200   27.5580   44.6920 C   0  0  0  0  0  0  0  0  0  0  0  0
   58.4140   26.6070   45.3240 C   0  0  0  0  0  0  0  0  0  0  0  0
   58.4060   26.5070   46.7240 C   0  0  0  0  0  0  0  0  0  0  0  0
   57.5110   25.5100   47.4080 C   0  0  0  0  0  0  0  0  0  0  0  0
   56.5980   24.8700   46.4090 C   0  0  0  0  0  0  0  0  0  0  0  0
   56.7900   23.6460   45.8860 N   0  0  0  0  0  0  0  0  0  0  0  0
   55.7830   23.5290   44.9950 C   0  0  0  0  0  0  0  0  0  0  0  0
   55.6160   22.4980   44.2920 O   0  0  0  0  0  0  0  0  0  0  0  0
   54.9700   24.6060   44.9090 N   0  0  0  0  0  0  0  0  0  0  0  0
   55.5060   25.4490   45.8070 C   0  0  0  0  0  0  0  0  0  0  0  0
   55.0130   26.7230   46.0700 O   0  0  0  0  0  0  0  0  0  0  0  0
   59.1920   27.3900   47.4830 C   0  0  0  0  0  0  0  0  0  0  0  0
   57.8380   30.5430   45.9260 C   0  0  0  0  0  0  0  0  0  0  0  0
   57.2680   30.7500   44.6540 C   0  0  0  0  0  0  0  0  0  0  0  0
   56.3380   29.7230   44.1060 C   0  0  0  0  0  0  0  0  0  0  0  0
   55.1430   29.3590   44.7940 N   0  0  0  0  0  0  0  0  0  0  0  0
   56.6060   29.1460   43.0170 O   0  0  0  0  0  0  0  0  0  0  0  0
   58.8613   32.5094   41.7233 H   0  0  0  0  0  0  0  0  0  0  0  0
   57.7648   31.3681   40.8736 H   0  0  0  0  0  0  0  0  0  0  0  0
   57.4045   33.1279   40.8736 H   0  0  0  0  0  0  0  0  0  0  0  0
   58.7147   33.7922   43.9717 H   0  0  0  0  0  0  0  0  0  0  0  0
   59.6862   33.4002   46.2245 H   0  0  0  0  0  0  0  0  0  0  0  0
   59.3424   32.2315   48.3872 H   0  0  0  0  0  0  0  0  0  0  0  0
   58.6176   30.5844   48.4233 H   0  0  0  0  0  0  0  0  0  0  0  0
   60.6475   29.1691   44.9488 H   0  0  0  0  0  0  0  0  0  0  0  0
   59.2359   27.6205   43.5939 H   0  0  0  0  0  0  0  0  0  0  0  0
   57.7842   25.9350   44.7225 H   0  0  0  0  0  0  0  0  0  0  0  0
   58.1279   24.7350   47.8863 H   0  0  0  0  0  0  0  0  0  0  0  0
   56.9076   26.0287   48.1675 H   0  0  0  0  0  0  0  0  0  0  0  0
   55.1420   27.4730   45.4010 H   0  0  0  0  0  0  0  0  0  0  0  0
   59.1900   27.3156   48.5805 H   0  0  0  0  0  0  0  0  0  0  0  0
   57.5886   29.6310   46.4882 H   0  0  0  0  0  0  0  0  0  0  0  0
   55.1720   28.7460   45.6390 H   0  0  0  0  0  0  0  0  0  0  0  0
  1  2  1  0
  2  3  1  0
  3  4  2  0
  4  5  1  0
  5  6  2  0
  6  7  1  0
  7  8  1  0
  8  9  2  0
  8 10  1  0
 10 11  1  0
 11 12  2  0
 12 13  1  0
 13 14  2  0
 14 15  1  0
 15 16  1  0
 16 17  1  0
 17 18  1  0
 18 19  1  0
 19 20  2  0
 19 21  1  0
 21 22  1  0
 22 23  1  0
 15 24  2  0
  6 25  1  0
 25 26  2  0
 26 27  1  0
 27 28  1  0
 27 29  2  0
 26  3  1  0
 24 11  1  0
 22 17  2  0
  1 30  1  0
  1 31  1  0
  1 32  1  0
  4 33  1  0
  5 34  1  0
  7 35  1  0
  7 36  1  0
 12 37  1  0
 13 38  1  0
 14 39  1  0
 16 40  1  0
 16 41  1  0
 23 42  1  0
 24 43  1  0
 25 44  1  0
 28 45  1  0
M  CHG  4  10  -1  18  -1  21  -1  28  -1
M  END
>  <UniqueID>  (74) 
74

>  <SMILES>  (74) 
COc1ccc(CC(=O)[N-]c2cccc(Cc3[n-]c(=O)[n-]c3O)c2)cc1C([NH-])=O

>  <Energy>  (74) 
77.33235673231302

>  <Genealogy>  (74) 
COc1ccc(CC(=O)[N-]c2cccc(Cc3[n-]c(=O)[n-]c3O)c2)cc1C([NH-])=O (protonated)
COc1ccc(CC(=O)[N-]c2cccc(Cc3[n-]c(=O)[n-]c3O)c2)cc1C([NH-])=O (3D coordinates assigned)
COc1ccc(CC(=O)[N-]c2cccc(Cc3[n-]c(=O)[n-]c3O)c2)cc1C([NH-])=O (optimized conformer: 77.33235673231302 kcal/mol)

>  <smiles>  (74) 
COc1ccc(CC(=O)Nc2cccc(Cc3[nH]c(=O)[nH]c3O)c2)cc1C(N)=O

>  <score_type>  (74) 
oracle

>  <origin>  (74) 
adg

>  <m_score__min__energy>  (74) 
-16.140000000000001

>  <m_primary>  (74) 
energy

$$$$
74:0
     RDKit          3D

 30 32  0  0  0  0  0  0  0  0999 V2000
   61.2820   34.5860   48.8270 C   0  0  0  0  0  0  0  0  0  0  0  0
   60.3480   34.1410   47.7990 N   0  0  0  0  0  0  0  0  0  0  0  0
   60.4850   32.8620   47.1620 C   0  0  0  0  0  0  0  0  0  0  0  0
   61.5130   32.1640   47.3750 O   0  0  0  0  0  0  0  0  0  0  0  0
   59.4530   32.3650   46.2240 C   0  0  0  0  0  0  0  0  0  0  0  0
   59.1560   30.9910   46.1940 C   0  0  0  0  0  0  0  0  0  0  0  0
   58.1870   30.4770   45.3100 C   0  0  0  0  0  0  0  0  0  0  0  0
   57.8800   29.0250   45.2590 C   0  0  0  0  0  0  0  0  0  0  0  0
   58.8420   28.0770   44.8050 C   0  0  0  0  0  0  0  0  0  0  0  0
   58.5210   26.7090   44.7740 C   0  0  0  0  0  0  0  0  0  0  0  0
   57.2540   26.3410   45.2030 C   0  0  0  0  0  0  0  0  0  0  0  0
   56.7190   25.1140   45.2720 N   0  0  0  0  0  0  0  0  0  0  0  0
   55.4800   25.3750   45.7660 C   0  0  0  0  0  0  0  0  0  0  0  0
   54.6370   24.4660   45.9850 O   0  0  0  0  0  0  0  0  0  0  0  0
   55.2140   26.6870   46.0080 N   0  0  0  0  0  0  0  0  0  0  0  0
   56.3630   27.2640   45.6390 C   0  0  0  0  0  0  0  0  0  0  0  0
   56.6490   28.5880   45.6780 N   0  0  0  0  0  0  0  0  0  0  0  0
   57.5240   31.3620   44.4450 C   0  0  0  0  0  0  0  0  0  0  0  0
   57.7970   32.7300   44.4820 C   0  0  0  0  0  0  0  0  0  0  0  0
   58.7470   33.2370   45.3720 C   0  0  0  0  0  0  0  0  0  0  0  0
   58.9570   34.6110   45.4180 O   0  0  0  0  0  0  0  0  0  0  0  0
   60.8569   34.3835   49.8211 H   0  0  0  0  0  0  0  0  0  0  0  0
   62.2331   34.0443   48.7176 H   0  0  0  0  0  0  0  0  0  0  0  0
   61.4605   35.6659   48.7176 H   0  0  0  0  0  0  0  0  0  0  0  0
   59.5950   34.7970   47.4950 H   0  0  0  0  0  0  0  0  0  0  0  0
   59.6884   30.3069   46.8712 H   0  0  0  0  0  0  0  0  0  0  0  0
   59.8363   28.4159   44.4786 H   0  0  0  0  0  0  0  0  0  0  0  0
   59.2459   25.9596   44.4234 H   0  0  0  0  0  0  0  0  0  0  0  0
   56.7824   30.9735   43.7315 H   0  0  0  0  0  0  0  0  0  0  0  0
   57.2611   33.4130   43.8065 H   0  0  0  0  0  0  0  0  0  0  0  0
  1  2  1  0
  2  3  1  0
  3  4  2  0
  3  5  1  0
  5  6  2  0
  6  7  1  0
  7  8  1  0
  8  9  2  0
  9 10  1  0
 10 11  2  0
 11 12  1  0
 12 13  1  0
 13 14  2  0
 13 15  1  0
 15 16  1  0
 16 17  2  0
  7 18  2  0
 18 19  1  0
 19 20  2  0
 20 21  1  0
 20  5  1  0
 17  8  1  0
 16 11  1  0
  1 22  1  0
  1 23  1  0
  1 24  1  0
  2 25  1  0
  6 26  1  0
  9 27  1  0
 10 28  1  0
 18 29  1  0
 19 30  1  0
M  CHG  3  12  -1  15  -1  21  -1
M  END
>  <UniqueID>  (75) 
75

>  <SMILES>  (75) 
CNC(=O)c1cc(-c2ccc3[n-]c(=O)[n-]c3n2)ccc1[O-]

>  <Energy>  (75) 
75.84285725276892

>  <Genealogy>  (75) 
CNC(=O)c1cc(-c2ccc3[n-]c(=O)[n-]c3n2)ccc1[O-] (protonated)
CNC(=O)c1cc(-c2ccc3[n-]c(=O)[n-]c3n2)ccc1[O-] (3D coordinates assigned)
CNC(=O)c1cc(-c2ccc3[n-]c(=O)[n-]c3n2)ccc1[O-] (optimized conformer: 75.84285725276892 kcal/mol)

>  <smiles>  (75) 
CNC(=O)c1cc(-c2ccc3[nH]c(=O)[nH]c3n2)ccc1O

>  <score_type>  (75) 
oracle

>  <origin>  (75) 
adg

>  <m_score__min__energy>  (75) 
-11.25

>  <m_primary>  (75) 
energy

$$$$
75:0
     RDKit          3D

 47 49  0  0  0  0  0  0  0  0999 V2000
   55.9090   28.2090   45.2570 O   0  0  0  0  0  0  0  0  0  0  0  0
   56.6560   29.2160   45.1410 C   0  0  0  0  0  0  0  0  0  0  0  0
   56.1480   30.3880   44.4950 N   0  0  0  0  0  0  0  0  0  0  0  0
   56.5640   30.8420   43.1730 C   0  0  0  0  0  0  0  0  0  0  0  0
   58.0150   31.3150   43.2290 C   0  0  0  0  0  0  0  0  0  0  0  0
   58.0950   32.8250   43.4680 C   0  0  0  0  0  0  0  0  0  0  0  0
   58.0950   33.1090   44.9000 N   0  0  0  0  0  0  0  0  0  0  0  0
   57.0200   33.3260   45.6820 C   0  0  0  0  0  0  0  0  0  0  0  0
   57.4580   33.4750   46.9810 C   0  0  0  0  0  0  0  0  0  0  0  0
   58.7990   33.3380   47.0010 N   0  0  0  0  0  0  0  0  0  0  0  0
   59.1610   33.1090   45.7250 C   0  0  0  0  0  0  0  0  0  0  0  0
   58.0410   29.1420   45.6400 C   0  0  0  0  0  0  0  0  0  0  0  0
   58.4560   30.0090   46.6630 C   0  0  0  0  0  0  0  0  0  0  0  0
   59.7720   29.9610   47.1450 C   0  0  0  0  0  0  0  0  0  0  0  0
   60.2820   31.0430   48.4470 S   0  0  0  0  0  0  0  0  0  0  0  0
   61.0040   30.2410   49.4940 O   0  0  0  0  0  0  0  0  0  0  0  0
   59.0640   31.6480   49.0850 O   0  0  0  0  0  0  0  0  0  0  0  0
   61.3320   32.3260   47.8930 N   0  0  0  0  0  0  0  0  0  0  0  0
   62.5120   31.8100   47.2010 C   0  0  0  0  0  0  0  0  0  0  0  0
   63.5870   32.8760   47.3350 C   0  0  0  0  0  0  0  0  0  0  0  0
   63.1540   33.7390   48.5120 C   0  0  0  0  0  0  0  0  0  0  0  0
   61.8470   33.1310   48.9970 C   0  0  0  0  0  0  0  0  0  0  0  0
   60.6730   29.0360   46.6010 C   0  0  0  0  0  0  0  0  0  0  0  0
   60.2700   28.1850   45.5700 C   0  0  0  0  0  0  0  0  0  0  0  0
   58.9620   28.2380   45.0830 C   0  0  0  0  0  0  0  0  0  0  0  0
   58.6050   27.4390   44.0460 F   0  0  0  0  0  0  0  0  0  0  0  0
   56.4765   30.0122   42.4563 H   0  0  0  0  0  0  0  0  0  0  0  0
   55.9199   31.6739   42.8521 H   0  0  0  0  0  0  0  0  0  0  0  0
   58.5311   30.7939   44.0488 H   0  0  0  0  0  0  0  0  0  0  0  0
   58.4931   31.0887   42.2645 H   0  0  0  0  0  0  0  0  0  0  0  0
   59.0208   33.2153   43.0201 H   0  0  0  0  0  0  0  0  0  0  0  0
   57.2216   33.3085   43.0060 H   0  0  0  0  0  0  0  0  0  0  0  0
   55.9746   33.3757   45.3433 H   0  0  0  0  0  0  0  0  0  0  0  0
   56.8198   33.6726   47.8549 H   0  0  0  0  0  0  0  0  0  0  0  0
   59.4240   33.3860   47.8340 H   0  0  0  0  0  0  0  0  0  0  0  0
   60.1975   32.9426   45.3964 H   0  0  0  0  0  0  0  0  0  0  0  0
   57.7441   30.7310   47.0895 H   0  0  0  0  0  0  0  0  0  0  0  0
   62.8465   30.8714   47.6670 H   0  0  0  0  0  0  0  0  0  0  0  0
   62.2930   31.5944   46.1448 H   0  0  0  0  0  0  0  0  0  0  0  0
   64.5648   32.4138   47.5355 H   0  0  0  0  0  0  0  0  0  0  0  0
   63.6963   33.4658   46.4129 H   0  0  0  0  0  0  0  0  0  0  0  0
   63.9112   33.7108   49.3094 H   0  0  0  0  0  0  0  0  0  0  0  0
   63.0334   34.7938   48.2243 H   0  0  0  0  0  0  0  0  0  0  0  0
   62.0260   32.4977   49.8784 H   0  0  0  0  0  0  0  0  0  0  0  0
   61.1291   33.9110   49.2905 H   0  0  0  0  0  0  0  0  0  0  0  0
   61.7013   28.9801   46.9875 H   0  0  0  0  0  0  0  0  0  0  0  0
   60.9860   27.4695   45.1393 H   0  0  0  0  0  0  0  0  0  0  0  0
  1  2  2  0
  2  3  1  0
  3  4  1  0
  4  5  1  0
  5  6  1  0
  6  7  1  0
  7  8  1  0
  8  9  2  0
  9 10  1  0
 10 11  2  0
  2 12  1  0
 12 13  2  0
 13 14  1  0
 14 15  1  0
 15 16  2  0
 15 17  2  0
 15 18  1  0
 18 19  1  0
 19 20  1  0
 20 21  1  0
 21 22  1  0
 14 23  2  0
 23 24  1  0
 24 25  2  0
 25 26  1  0
 11  7  1  0
 25 12  1  0
 22 18  1  0
  4 27  1  0
  4 28  1  0
  5 29  1  0
  5 30  1  0
  6 31  1  0
  6 32  1  0
  8 33  1  0
  9 34  1  0
 10 35  1  0
 11 36  1  0
 13 37  1  0
 19 38  1  0
 19 39  1  0
 20 40  1  0
 20 41  1  0
 21 42  1  0
 21 43  1  0
 22 44  1  0
 22 45  1  0
 23 46  1  0
 24 47  1  0
M  CHG  2   3  -1  10   1
M  END
>  <UniqueID>  (76) 
76

>  <SMILES>  (76) 
O=C([N-]CCCn1cc[nH+]c1)c1cc(S(=O)(=O)N2CCCC2)ccc1F

>  <Energy>  (76) 
78.0231098328379

>  <Genealogy>  (76) 
O=C([N-]CCCn1cc[nH+]c1)c1cc(S(=O)(=O)N2CCCC2)ccc1F (protonated)
O=C([N-]CCCn1cc[nH+]c1)c1cc(S(=O)(=O)N2CCCC2)ccc1F (3D coordinates assigned)
O=C([N-]CCCn1cc[nH+]c1)c1cc(S(=O)(=O)N2CCCC2)ccc1F (nonaromatic ring conformer: 78.0231098328379 kcal/mol)

>  <smiles>  (76) 
O=C(NCCCn1ccnc1)c1cc(S(=O)(=O)N2CCCC2)ccc1F

>  <score_type>  (76) 
oracle

>  <origin>  (76) 
adg

>  <m_score__min__energy>  (76) 
-9.6099999999999994

>  <m_primary>  (76) 
energy

$$$$
76:0
     RDKit          3D

 54 57  0  0  0  0  0  0  0  0999 V2000
   55.1590   29.4070   44.8630 O   0  0  0  0  0  0  0  0  0  0  0  0
   56.3740   29.3580   44.5340 C   0  0  0  0  0  0  0  0  0  0  0  0
   57.0120   28.0770   44.4560 N   0  0  0  0  0  0  0  0  0  0  0  0
   58.0320   27.5870   45.3400 C   0  0  0  0  0  0  0  0  0  0  0  0
   59.2000   28.3470   45.4850 C   0  0  0  0  0  0  0  0  0  0  0  0
   60.2120   27.9360   46.3540 C   0  0  0  0  0  0  0  0  0  0  0  0
   60.0510   26.7790   47.1150 C   0  0  0  0  0  0  0  0  0  0  0  0
   58.8780   26.0290   47.0090 C   0  0  0  0  0  0  0  0  0  0  0  0
   57.8670   26.4050   46.1090 C   0  0  0  0  0  0  0  0  0  0  0  0
   56.5950   25.6470   46.0940 C   0  0  0  0  0  0  0  0  0  0  0  0
   55.5670   26.2120   46.5570 O   0  0  0  0  0  0  0  0  0  0  0  0
   56.4940   24.3090   45.5480 N   0  0  0  0  0  0  0  0  0  0  0  0
   57.6670   23.6810   44.9070 C   0  0  0  0  0  0  0  0  0  0  0  0
   57.3620   22.3180   44.2700 C   0  0  0  0  0  0  0  0  0  0  0  0
   56.0450   22.2570   43.7770 O   0  0  0  0  0  0  0  0  0  0  0  0
   55.1560   22.3090   44.8680 C   0  0  0  0  0  0  0  0  0  0  0  0
   55.1510   23.7060   45.4860 C   0  0  0  0  0  0  0  0  0  0  0  0
   57.1100   30.6200   44.2860 C   0  0  0  0  0  0  0  0  0  0  0  0
   57.0420   31.2380   43.0270 C   0  0  0  0  0  0  0  0  0  0  0  0
   57.7390   32.4230   42.7830 C   0  0  0  0  0  0  0  0  0  0  0  0
   58.4950   33.0150   43.7980 C   0  0  0  0  0  0  0  0  0  0  0  0
   58.5370   32.4360   45.0780 C   0  0  0  0  0  0  0  0  0  0  0  0
   59.3280   33.0080   46.1330 N   0  0  0  0  0  0  0  0  0  0  0  0
   60.4230   32.3310   46.7770 C   0  0  0  0  0  0  0  0  0  0  0  0
   60.7600   31.1730   46.4080 O   0  0  0  0  0  0  0  0  0  0  0  0
   61.1680   32.9740   47.8810 C   0  0  0  0  0  0  0  0  0  0  0  0
   60.5050   33.2590   49.0870 C   0  0  0  0  0  0  0  0  0  0  0  0
   61.1860   33.8700   50.1440 C   0  0  0  0  0  0  0  0  0  0  0  0
   62.5380   34.1920   50.0110 C   0  0  0  0  0  0  0  0  0  0  0  0
   63.2130   33.8960   48.8250 C   0  0  0  0  0  0  0  0  0  0  0  0
   62.5380   33.2850   47.7630 C   0  0  0  0  0  0  0  0  0  0  0  0
   63.2390   32.9530   46.6490 F   0  0  0  0  0  0  0  0  0  0  0  0
   57.8530   31.2340   45.3090 C   0  0  0  0  0  0  0  0  0  0  0  0
   59.3206   29.2762   44.9087 H   0  0  0  0  0  0  0  0  0  0  0  0
   61.1370   28.5253   46.4385 H   0  0  0  0  0  0  0  0  0  0  0  0
   60.8491   26.4565   47.7999 H   0  0  0  0  0  0  0  0  0  0  0  0
   58.7443   25.1353   47.6362 H   0  0  0  0  0  0  0  0  0  0  0  0
   58.0379   24.3566   44.1222 H   0  0  0  0  0  0  0  0  0  0  0  0
   58.4129   23.5086   45.6969 H   0  0  0  0  0  0  0  0  0  0  0  0
   58.0621   22.1483   43.4387 H   0  0  0  0  0  0  0  0  0  0  0  0
   57.4746   21.5447   45.0441 H   0  0  0  0  0  0  0  0  0  0  0  0
   54.1417   22.0628   44.5208 H   0  0  0  0  0  0  0  0  0  0  0  0
   55.4821   21.5841   45.6284 H   0  0  0  0  0  0  0  0  0  0  0  0
   54.5019   24.3556   44.8804 H   0  0  0  0  0  0  0  0  0  0  0  0
   54.7839   23.6095   46.5184 H   0  0  0  0  0  0  0  0  0  0  0  0
   56.4360   30.7858   42.2281 H   0  0  0  0  0  0  0  0  0  0  0  0
   57.6928   32.8918   41.7890 H   0  0  0  0  0  0  0  0  0  0  0  0
   59.0591   33.9372   43.5946 H   0  0  0  0  0  0  0  0  0  0  0  0
   59.1120   33.9910   46.4090 H   0  0  0  0  0  0  0  0  0  0  0  0
   59.4421   32.9993   49.2001 H   0  0  0  0  0  0  0  0  0  0  0  0
   60.6564   34.0972   51.0810 H   0  0  0  0  0  0  0  0  0  0  0  0
   63.0715   34.6789   50.8406 H   0  0  0  0  0  0  0  0  0  0  0  0
   64.2800   34.1443   48.7254 H   0  0  0  0  0  0  0  0  0  0  0  0
   57.8984   30.7657   46.3033 H   0  0  0  0  0  0  0  0  0  0  0  0
  1  2  2  0
  2  3  1  0
  3  4  1  0
  4  5  2  0
  5  6  1  0
  6  7  2  0
  7  8  1  0
  8  9  2  0
  9 10  1  0
 10 11  2  0
 10 12  1  0
 12 13  1  0
 13 14  1  0
 14 15  1  0
 15 16  1  0
 16 17  1  0
  2 18  1  0
 18 19  2  0
 19 20  1  0
 20 21  2  0
 21 22  1  0
 22 23  1  0
 23 24  1  0
 24 25  2  0
 24 26  1  0
 26 27  2  0
 27 28  1  0
 28 29  2  0
 29 30  1  0
 30 31  2  0
 31 32  1  0
 22 33  2  0
  9  4  1  0
 17 12  1  0
 33 18  1  0
 31 26  1  0
  5 34  1  0
  6 35  1  0
  7 36  1  0
  8 37  1  0
 13 38  1  0
 13 39  1  0
 14 40  1  0
 14 41  1  0
 16 42  1  0
 16 43  1  0
 17 44  1  0
 17 45  1  0
 19 46  1  0
 20 47  1  0
 21 48  1  0
 23 49  1  0
 27 50  1  0
 28 51  1  0
 29 52  1  0
 30 53  1  0
 33 54  1  0
M  CHG  1   3  -1
M  END
>  <UniqueID>  (77) 
77

>  <SMILES>  (77) 
O=C([N-]c1ccccc1C(=O)N1CCOCC1)c1cccc(NC(=O)c2ccccc2F)c1

>  <Energy>  (77) 
81.69592002173505

>  <Genealogy>  (77) 
O=C([N-]c1ccccc1C(=O)N1CCOCC1)c1cccc(NC(=O)c2ccccc2F)c1 (protonated)
O=C([N-]c1ccccc1C(=O)N1CCOCC1)c1cccc(NC(=O)c2ccccc2F)c1 (3D coordinates assigned)
O=C([N-]c1ccccc1C(=O)N1CCOCC1)c1cccc(NC(=O)c2ccccc2F)c1 (nonaromatic ring conformer: 81.69592002173505 kcal/mol)

>  <smiles>  (77) 
O=C(Nc1ccccc1C(=O)N1CCOCC1)c1cccc(NC(=O)c2ccccc2F)c1

>  <score_type>  (77) 
oracle

>  <origin>  (77) 
adg

>  <m_score__min__energy>  (77) 
-12.01

>  <m_primary>  (77) 
energy

$$$$
77:0
     RDKit          3D

 48 51  0  0  0  0  0  0  0  0999 V2000
   59.2661   36.3843   46.0657 H   0  0  0  0  0  0  0  0  0  0  0  0
   59.5550   35.3230   46.0790 C   0  0  0  0  0  0  0  0  0  0  0  0
   60.8310   34.9700   46.3820 N   0  0  0  0  0  0  0  0  0  0  0  0
   61.2160   33.6640   46.3910 C   0  0  0  0  0  0  0  0  0  0  0  0
   62.4280   33.3170   46.7110 N   0  0  0  0  0  0  0  0  0  0  0  0
   62.9450   33.0920   48.0340 C   0  0  0  0  0  0  0  0  0  0  0  0
   63.0190   34.1780   48.9180 C   0  0  0  0  0  0  0  0  0  0  0  0
   62.7070   35.1782   48.5828 H   0  0  0  0  0  0  0  0  0  0  0  0
   63.4870   33.9970   50.2230 C   0  0  0  0  0  0  0  0  0  0  0  0
   63.5593   34.8571   50.9049 H   0  0  0  0  0  0  0  0  0  0  0  0
   63.8630   32.7250   50.6620 C   0  0  0  0  0  0  0  0  0  0  0  0
   64.2383   32.5850   51.6865 H   0  0  0  0  0  0  0  0  0  0  0  0
   63.7620   31.6310   49.7990 C   0  0  0  0  0  0  0  0  0  0  0  0
   64.0504   30.6284   50.1476 H   0  0  0  0  0  0  0  0  0  0  0  0
   63.2950   31.8080   48.4930 C   0  0  0  0  0  0  0  0  0  0  0  0
   63.2008   30.9413   47.8222 H   0  0  0  0  0  0  0  0  0  0  0  0
   60.3040   32.6960   46.1130 N   0  0  0  0  0  0  0  0  0  0  0  0
   59.0110   32.9960   45.8130 C   0  0  0  0  0  0  0  0  0  0  0  0
   58.0480   31.9030   45.5330 C   0  0  0  0  0  0  0  0  0  0  0  0
   58.0500   30.6890   46.2690 C   0  0  0  0  0  0  0  0  0  0  0  0
   58.9140   30.4800   47.4520 C   0  0  0  0  0  0  0  0  0  0  0  0
   59.9160   29.4980   47.4310 C   0  0  0  0  0  0  0  0  0  0  0  0
   60.0659   28.8875   46.5283 H   0  0  0  0  0  0  0  0  0  0  0  0
   60.7220   29.2930   48.5490 C   0  0  0  0  0  0  0  0  0  0  0  0
   61.4989   28.5146   48.5285 H   0  0  0  0  0  0  0  0  0  0  0  0
   60.5480   30.0710   49.6950 C   0  0  0  0  0  0  0  0  0  0  0  0
   61.1843   29.8962   50.5751 H   0  0  0  0  0  0  0  0  0  0  0  0
   59.5640   31.0780   49.7330 C   0  0  0  0  0  0  0  0  0  0  0  0
   59.3630   31.9000   50.9000 N   0  0  0  0  0  0  0  0  0  0  0  0
   58.9690   31.4680   51.7660 H   0  0  0  0  0  0  0  0  0  0  0  0
   59.7050   33.6010   50.9840 S   0  0  0  0  0  0  0  0  0  0  0  0
   61.0120   33.8310   51.6890 O   0  0  0  0  0  0  0  0  0  0  0  0
   58.6130   34.2760   51.7670 O   0  0  0  0  0  0  0  0  0  0  0  0
   59.7440   34.3020   49.3480 C   0  0  0  0  0  0  0  0  0  0  0  0
   59.8050   35.3979   49.4200 H   0  0  0  0  0  0  0  0  0  0  0  0
   60.6223   33.9207   48.8066 H   0  0  0  0  0  0  0  0  0  0  0  0
   58.8288   34.0205   48.8066 H   0  0  0  0  0  0  0  0  0  0  0  0
   58.7520   31.2790   48.5990 C   0  0  0  0  0  0  0  0  0  0  0  0
   57.7850   32.2340   48.6200 F   0  0  0  0  0  0  0  0  0  0  0  0
   57.2050   29.6840   45.9060 N   0  0  0  0  0  0  0  0  0  0  0  0
   56.3390   29.8000   44.8680 C   0  0  0  0  0  0  0  0  0  0  0  0
   55.5800   28.8390   44.5740 O   0  0  0  0  0  0  0  0  0  0  0  0
   56.2890   30.9830   44.1310 C   0  0  0  0  0  0  0  0  0  0  0  0
   55.5809   31.0873   43.2957 H   0  0  0  0  0  0  0  0  0  0  0  0
   57.1450   32.0320   44.4630 C   0  0  0  0  0  0  0  0  0  0  0  0
   57.1138   32.9668   43.8841 H   0  0  0  0  0  0  0  0  0  0  0  0
   58.6120   34.3400   45.7850 C   0  0  0  0  0  0  0  0  0  0  0  0
   57.5758   34.6128   45.5361 H   0  0  0  0  0  0  0  0  0  0  0  0
  1  2  1  0
  2  3  1  0
  3  4  1  0
  4  5  2  0
  5  6  1  0
  6  7  2  0
  7  8  1  0
  7  9  1  0
  9 10  1  0
  9 11  2  0
 11 12  1  0
 11 13  1  0
 13 14  1  0
 13 15  2  0
 15 16  1  0
  4 17  1  0
 17 18  2  0
 18 19  1  0
 19 20  2  0
 20 21  1  0
 21 22  2  0
 22 23  1  0
 22 24  1  0
 24 25  1  0
 24 26  2  0
 26 27  1  0
 26 28  1  0
 28 29  1  0
 29 30  1  0
 29 31  1  0
 31 32  2  0
 31 33  2  0
 31 34  1  0
 34 35  1  0
 34 36  1  0
 34 37  1  0
 28 38  2  0
 38 39  1  0
 20 40  1  0
 40 41  1  0
 41 42  2  0
 41 43  1  0
 43 44  1  0
 43 45  2  0
 45 46  1  0
 18 47  1  0
 47 48  1  0
 47  2  2  0
 15  6  1  0
 45 19  1  0
 38 21  1  0
M  CHG  2   3  -1  40  -1
M  END
>  <UniqueID>  (78) 
78

>  <SMILES>  (78) 
CS(=O)(=O)Nc1cccc(-c2[n-]c(=O)ccc2-c2cc[n-]/c(=N\c3ccccc3)n2)c1F

>  <Energy>  (78) 
71.75135909343739

>  <Genealogy>  (78) 
CS(=O)(=O)Nc1cccc(-c2[n-]c(=O)ccc2-c2cc[n-]c(=Nc3ccccc3)n2)c1F (protonated)
CS(=O)(=O)Nc1cccc(-c2[n-]c(=O)ccc2-c2cc[n-]/c(=N\c3ccccc3)n2)c1F (cis-trans isomerization)
CS(=O)(=O)Nc1cccc(-c2[n-]c(=O)ccc2-c2cc[n-]/c(=N\c3ccccc3)n2)c1F (3D coordinates assigned)
CS(=O)(=O)Nc1cccc(-c2[n-]c(=O)ccc2-c2cc[n-]/c(=N\c3ccccc3)n2)c1F (optimized conformer: 71.75135909343739 kcal/mol)

>  <smiles>  (78) 
CS(=O)(=O)Nc1cccc(-c2[nH]c(=O)ccc2-c2cc[nH]c(=Nc3ccccc3)n2)c1F

>  <score_type>  (78) 
oracle

>  <origin>  (78) 
adg

>  <m_score__min__energy>  (78) 
-11.44

>  <m_primary>  (78) 
energy

$$$$
78:0
     RDKit          3D

 57 59  0  0  0  0  0  0  0  0999 V2000
   67.0830   30.6080   51.0840 C   0  0  0  0  0  0  0  0  0  0  0  0
   66.1130   31.6360   50.4860 C   0  0  0  0  0  0  0  0  0  0  0  0
   66.7630   33.0250   50.4340 C   0  0  0  0  0  0  0  0  0  0  0  0
   64.7720   31.6740   51.2440 C   0  0  0  0  0  0  0  0  0  0  0  0
   64.1250   32.9400   51.1060 O   0  0  0  0  0  0  0  0  0  0  0  0
   62.8760   33.1210   50.4980 C   0  0  0  0  0  0  0  0  0  0  0  0
   61.8480   33.3090   51.2060 O   0  0  0  0  0  0  0  0  0  0  0  0
   62.7740   33.0880   49.0620 N   0  0  0  0  0  0  0  0  0  0  0  0
   64.0080   33.1310   48.2640 C   0  0  0  0  0  0  0  0  0  0  0  0
   63.7160   33.0490   46.7610 C   0  0  0  0  0  0  0  0  0  0  0  0
   62.6310   34.0580   46.3640 C   0  0  0  0  0  0  0  0  0  0  0  0
   61.3460   33.9460   47.2330 C   0  0  1  0  0  0  0  0  0  0  0  0
   60.1250   33.6380   46.3980 C   0  0  0  0  0  0  0  0  0  0  0  0
   59.4980   34.6290   45.6250 C   0  0  0  0  0  0  0  0  0  0  0  0
   58.3780   34.2960   44.8640 C   0  0  0  0  0  0  0  0  0  0  0  0
   57.8950   32.9870   44.8660 C   0  0  0  0  0  0  0  0  0  0  0  0
   58.5480   32.0090   45.6350 C   0  0  0  0  0  0  0  0  0  0  0  0
   58.0790   30.6000   45.6750 C   0  0  0  0  0  0  0  0  0  0  0  0
   57.0590   30.1400   44.8180 C   0  0  0  0  0  0  0  0  0  0  0  0
   56.6420   28.8070   44.8620 C   0  0  0  0  0  0  0  0  0  0  0  0
   57.2340   27.9110   45.7600 C   0  0  0  0  0  0  0  0  0  0  0  0
   56.7180   26.2280   45.7880 S   0  0  0  0  0  0  0  0  0  0  0  0
   57.5550   25.3770   47.1080 C   0  0  0  0  0  0  0  0  0  0  0  0
   55.2310   26.1480   46.0030 O   0  0  0  0  0  0  0  0  0  0  0  0
   57.0520   25.5770   44.4740 O   0  0  0  0  0  0  0  0  0  0  0  0
   58.2590   28.3540   46.6040 C   0  0  0  0  0  0  0  0  0  0  0  0
   58.6790   29.6870   46.5620 C   0  0  0  0  0  0  0  0  0  0  0  0
   59.6340   32.3680   46.3760 N   0  0  0  0  0  0  0  0  0  0  0  0
   61.4740   32.9350   48.3940 C   0  0  0  0  0  0  0  0  0  0  0  0
   67.0374   30.6563   52.1820 H   0  0  0  0  0  0  0  0  0  0  0  0
   66.8002   29.5990   50.7493 H   0  0  0  0  0  0  0  0  0  0  0  0
   68.1067   30.8318   50.7493 H   0  0  0  0  0  0  0  0  0  0  0  0
   65.8879   31.3202   49.4566 H   0  0  0  0  0  0  0  0  0  0  0  0
   66.9332   33.3887   51.4581 H   0  0  0  0  0  0  0  0  0  0  0  0
   67.7244   32.9603   49.9033 H   0  0  0  0  0  0  0  0  0  0  0  0
   66.0974   33.7217   49.9033 H   0  0  0  0  0  0  0  0  0  0  0  0
   64.1126   30.8906   50.8422 H   0  0  0  0  0  0  0  0  0  0  0  0
   64.9759   31.5067   52.3119 H   0  0  0  0  0  0  0  0  0  0  0  0
   64.5352   34.0734   48.4736 H   0  0  0  0  0  0  0  0  0  0  0  0
   64.6251   32.2635   48.5407 H   0  0  0  0  0  0  0  0  0  0  0  0
   64.6369   33.2702   46.2016 H   0  0  0  0  0  0  0  0  0  0  0  0
   63.3601   32.0354   46.5245 H   0  0  0  0  0  0  0  0  0  0  0  0
   63.0402   35.0732   46.4734 H   0  0  0  0  0  0  0  0  0  0  0  0
   62.3442   33.8392   45.3248 H   0  0  0  0  0  0  0  0  0  0  0  0
   61.2184   34.9395   47.6877 H   0  0  0  0  0  0  0  0  0  0  0  0
   59.8868   35.6580   45.6200 H   0  0  0  0  0  0  0  0  0  0  0  0
   57.8746   35.0663   44.2613 H   0  0  0  0  0  0  0  0  0  0  0  0
   57.0093   32.7225   44.2698 H   0  0  0  0  0  0  0  0  0  0  0  0
   56.5873   30.8360   44.1087 H   0  0  0  0  0  0  0  0  0  0  0  0
   55.8449   28.4602   44.1879 H   0  0  0  0  0  0  0  0  0  0  0  0
   57.1880   25.7501   48.0756 H   0  0  0  0  0  0  0  0  0  0  0  0
   57.3568   24.2977   47.0322 H   0  0  0  0  0  0  0  0  0  0  0  0
   58.6375   25.5573   47.0322 H   0  0  0  0  0  0  0  0  0  0  0  0
   58.7358   27.6509   47.3028 H   0  0  0  0  0  0  0  0  0  0  0  0
   59.4860   30.0252   47.2286 H   0  0  0  0  0  0  0  0  0  0  0  0
   60.6687   33.1141   49.1217 H   0  0  0  0  0  0  0  0  0  0  0  0
   61.3968   31.9147   47.9903 H   0  0  0  0  0  0  0  0  0  0  0  0
  1  2  1  0
  2  3  1  0
  2  4  1  0
  4  5  1  0
  5  6  1  0
  6  7  2  0
  6  8  1  0
  8  9  1  0
  9 10  1  0
 10 11  1  0
 11 12  1  0
 12 13  1  0
 13 14  2  0
 14 15  1  0
 15 16  2  0
 16 17  1  0
 17 18  1  0
 18 19  2  0
 19 20  1  0
 20 21  2  0
 21 22  1  0
 22 23  1  0
 22 24  2  0
 22 25  2  0
 21 26  1  0
 26 27  2  0
 17 28  2  0
 12 29  1  0
 29  8  1  0
 28 13  1  0
 27 18  1  0
  1 30  1  0
  1 31  1  0
  1 32  1  0
  2 33  1  0
  3 34  1  0
  3 35  1  0
  3 36  1  0
  4 37  1  0
  4 38  1  0
  9 39  1  0
  9 40  1  0
 10 41  1  0
 10 42  1  0
 11 43  1  0
 11 44  1  0
 12 45  1  1
 14 46  1  0
 15 47  1  0
 16 48  1  0
 19 49  1  0
 20 50  1  0
 23 51  1  0
 23 52  1  0
 23 53  1  0
 26 54  1  0
 27 55  1  0
 29 56  1  0
 29 57  1  0
M  END
>  <UniqueID>  (79) 
79

>  <SMILES>  (79) 
CC(C)COC(=O)N1CCC[C@@H](c2cccc(-c3ccc(S(C)(=O)=O)cc3)n2)C1

>  <Energy>  (79) 
54.99620928401463

>  <Genealogy>  (79) 
CC(C)COC(=O)N1CCC[C@@H](c2cccc(-c3ccc(S(C)(=O)=O)cc3)n2)C1 (chirality)
CC(C)COC(=O)N1CCC[C@@H](c2cccc(-c3ccc(S(C)(=O)=O)cc3)n2)C1 (3D coordinates assigned)
CC(C)COC(=O)N1CCC[C@@H](c2cccc(-c3ccc(S(C)(=O)=O)cc3)n2)C1 (nonaromatic ring conformer: 54.99620928401463 kcal/mol)

>  <smiles>  (79) 
CC(C)COC(=O)N1CCCC(c2cccc(-c3ccc(S(C)(=O)=O)cc3)n2)C1

>  <score_type>  (79) 
oracle

>  <origin>  (79) 
adg

>  <m_score__min__energy>  (79) 
-9.2599999999999998

>  <m_primary>  (79) 
energy

$$$$
79:0
     RDKit          3D

 45 46  0  0  0  0  0  0  0  0999 V2000
   57.0960   26.7020   46.2110 C   0  0  0  0  0  0  0  0  0  0  0  0
   58.4670   26.0140   46.2350 C   0  0  0  0  0  0  0  0  0  0  0  0
   59.5240   26.8120   46.8920 N   0  0  0  0  0  0  0  0  0  0  0  0
   60.5320   27.3890   45.9710 C   0  0  0  0  0  0  0  0  0  0  0  0
   60.3250   28.8910   45.7070 C   0  0  0  0  0  0  0  0  0  0  0  0
   60.0990   29.6350   46.9530 N   0  0  0  0  0  0  0  0  0  0  0  0
   60.1610   31.0730   46.9370 C   0  0  0  0  0  0  0  0  0  0  0  0
   61.3660   31.7530   47.1660 C   0  0  0  0  0  0  0  0  0  0  0  0
   61.3670   33.1480   47.1140 C   0  0  0  0  0  0  0  0  0  0  0  0
   62.4330   33.7880   47.3100 O   0  0  0  0  0  0  0  0  0  0  0  0
   60.2160   33.8190   46.8520 N   0  0  0  0  0  0  0  0  0  0  0  0
   59.0480   33.1510   46.6560 C   0  0  0  0  0  0  0  0  0  0  0  0
   57.8020   33.9000   46.2970 C   0  0  0  0  0  0  0  0  0  0  0  0
   57.5180   33.8540   44.7860 C   0  0  0  0  0  0  0  0  0  0  0  0
   57.6630   32.4480   44.1840 C   0  0  0  0  0  0  0  0  0  0  0  0
   57.0130   31.4550   45.0440 N   0  0  0  0  0  0  0  0  0  0  0  0
   56.5610   30.0630   44.1110 S   0  0  0  0  0  0  0  0  0  0  0  0
   55.1590   29.3260   44.8050 N   0  0  0  0  0  0  0  0  0  0  0  0
   56.2670   30.4670   42.6930 O   0  0  0  0  0  0  0  0  0  0  0  0
   57.6940   29.0750   44.1200 O   0  0  0  0  0  0  0  0  0  0  0  0
   59.0310   31.7920   46.7010 N   0  0  0  0  0  0  0  0  0  0  0  0
   59.9410   28.8940   48.2090 C   0  0  0  0  0  0  0  0  0  0  0  0
   59.0170   27.7020   47.9640 C   0  0  0  0  0  0  0  0  0  0  0  0
   56.7538   26.8737   47.2422 H   0  0  0  0  0  0  0  0  0  0  0  0
   57.1784   27.6655   45.6868 H   0  0  0  0  0  0  0  0  0  0  0  0
   56.3727   26.0601   45.6868 H   0  0  0  0  0  0  0  0  0  0  0  0
   58.3670   25.0603   46.7740 H   0  0  0  0  0  0  0  0  0  0  0  0
   58.7743   25.8758   45.1879 H   0  0  0  0  0  0  0  0  0  0  0  0
   61.5298   27.2460   46.4113 H   0  0  0  0  0  0  0  0  0  0  0  0
   60.4269   26.8708   45.0064 H   0  0  0  0  0  0  0  0  0  0  0  0
   61.2202   29.2923   45.2095 H   0  0  0  0  0  0  0  0  0  0  0  0
   59.4350   29.0082   45.0712 H   0  0  0  0  0  0  0  0  0  0  0  0
   62.2912   31.1986   47.3821 H   0  0  0  0  0  0  0  0  0  0  0  0
   56.9517   33.4521   46.8321 H   0  0  0  0  0  0  0  0  0  0  0  0
   57.9430   34.9523   46.5846 H   0  0  0  0  0  0  0  0  0  0  0  0
   56.4895   34.2037   44.6131 H   0  0  0  0  0  0  0  0  0  0  0  0
   58.2623   34.4977   44.2944 H   0  0  0  0  0  0  0  0  0  0  0  0
   57.1933   32.4292   43.1895 H   0  0  0  0  0  0  0  0  0  0  0  0
   58.7323   32.2035   44.1014 H   0  0  0  0  0  0  0  0  0  0  0  0
   57.7070   31.1360   45.7590 H   0  0  0  0  0  0  0  0  0  0  0  0
   55.1560   28.3270   44.4990 H   0  0  0  0  0  0  0  0  0  0  0  0
   60.9226   28.5363   48.5533 H   0  0  0  0  0  0  0  0  0  0  0  0
   59.5086   29.5504   48.9786 H   0  0  0  0  0  0  0  0  0  0  0  0
   58.9319   27.1224   48.8950 H   0  0  0  0  0  0  0  0  0  0  0  0
   58.0393   28.0923   47.6449 H   0  0  0  0  0  0  0  0  0  0  0  0
  1  2  1  0
  2  3  1  0
  3  4  1  0
  4  5  1  0
  5  6  1  0
  6  7  1  0
  7  8  2  0
  8  9  1  0
  9 10  2  0
  9 11  1  0
 11 12  1  0
 12 13  1  0
 13 14  1  0
 14 15  1  0
 15 16  1  0
 16 17  1  0
 17 18  1  0
 17 19  2  0
 17 20  2  0
 12 21  2  0
  6 22  1  0
 22 23  1  0
 23  3  1  0
 21  7  1  0
  1 24  1  0
  1 25  1  0
  1 26  1  0
  2 27  1  0
  2 28  1  0
  4 29  1  0
  4 30  1  0
  5 31  1  0
  5 32  1  0
  8 33  1  0
 13 34  1  0
 13 35  1  0
 14 36  1  0
 14 37  1  0
 15 38  1  0
 15 39  1  0
 16 40  1  0
 18 41  1  0
 22 42  1  0
 22 43  1  0
 23 44  1  0
 23 45  1  0
M  CHG  2  11  -1  18  -1
M  END
>  <UniqueID>  (80) 
80

>  <SMILES>  (80) 
CCN1CCN(c2cc(=O)[n-]c(CCCNS([NH-])(=O)=O)n2)CC1

>  <Energy>  (80) 
45.230332956992385

>  <Genealogy>  (80) 
CCN1CCN(c2cc(=O)[n-]c(CCCNS([NH-])(=O)=O)n2)CC1 (protonated)
CCN1CCN(c2cc(=O)[n-]c(CCCNS([NH-])(=O)=O)n2)CC1 (3D coordinates assigned)
CCN1CCN(c2cc(=O)[n-]c(CCCNS([NH-])(=O)=O)n2)CC1 (nonaromatic ring conformer: 45.230332956992385 kcal/mol)

>  <smiles>  (80) 
CCN1CCN(c2cc(=O)[nH]c(CCCNS(N)(=O)=O)n2)CC1

>  <score_type>  (80) 
oracle

>  <origin>  (80) 
adg

>  <m_score__min__energy>  (80) 
-12.369999999999999

>  <m_primary>  (80) 
energy

$$$$
80:0
     RDKit          3D

 59 61  0  0  0  0  0  0  0  0999 V2000
   55.6820   31.2070   52.3740 C   0  0  0  0  0  0  0  0  0  0  0  0
   56.9520   32.0120   52.1140 C   0  0  0  0  0  0  0  0  0  0  0  0
   57.8070   31.3600   51.0210 C   0  0  0  0  0  0  0  0  0  0  0  0
   58.7670   32.3340   50.4760 N   0  0  0  0  0  0  0  0  0  0  0  0
   59.6940   32.8830   51.3200 C   0  0  0  0  0  0  0  0  0  0  0  0
   60.6050   33.8300   50.8570 C   0  0  0  0  0  0  0  0  0  0  0  0
   60.5700   34.2190   49.5230 C   0  0  0  0  0  0  0  0  0  0  0  0
   59.6210   33.6700   48.6480 C   0  0  0  0  0  0  0  0  0  0  0  0
   59.5870   34.1260   47.2340 C   0  0  0  0  0  0  0  0  0  0  0  0
   60.1440   35.2150   46.9260 O   0  0  0  0  0  0  0  0  0  0  0  0
   58.9610   33.3310   46.2140 N   0  0  0  0  0  0  0  0  0  0  0  0
   58.7410   33.8220   44.8540 C   0  0  0  0  0  0  0  0  0  0  0  0
   57.3990   33.3280   44.3030 C   0  0  0  0  0  0  0  0  0  0  0  0
   57.4150   31.8260   44.0150 C   0  0  0  0  0  0  0  0  0  0  0  0
   57.3570   31.0890   45.2710 N   0  0  0  0  0  0  0  0  0  0  0  0
   56.9760   29.7110   45.3460 C   0  0  0  0  0  0  0  0  0  0  0  0
   55.7680   29.3880   45.1640 O   0  0  0  0  0  0  0  0  0  0  0  0
   57.9910   28.6790   45.6730 C   0  0  0  0  0  0  0  0  0  0  0  0
   57.8010   27.3640   45.2070 C   0  0  0  0  0  0  0  0  0  0  0  0
   58.7680   26.3810   45.4310 C   0  0  0  0  0  0  0  0  0  0  0  0
   59.9330   26.6910   46.1310 C   0  0  0  0  0  0  0  0  0  0  0  0
   60.1330   27.9850   46.6150 C   0  0  0  0  0  0  0  0  0  0  0  0
   59.1740   28.9890   46.3940 C   0  0  0  0  0  0  0  0  0  0  0  0
   59.3620   30.2870   46.9840 N   0  0  0  0  0  0  0  0  0  0  0  0
   60.5310   30.6590   47.7350 C   0  0  0  0  0  0  0  0  0  0  0  0
   61.5280   31.4330   47.1250 C   0  0  0  0  0  0  0  0  0  0  0  0
   62.6880   31.7790   47.8260 C   0  0  0  0  0  0  0  0  0  0  0  0
   62.8630   31.3390   49.1420 C   0  0  0  0  0  0  0  0  0  0  0  0
   61.8830   30.5530   49.7550 C   0  0  0  0  0  0  0  0  0  0  0  0
   60.7220   30.2100   49.0550 C   0  0  0  0  0  0  0  0  0  0  0  0
   58.6990   32.7280   49.1590 C   0  0  0  0  0  0  0  0  0  0  0  0
   57.7910   32.2700   48.4110 O   0  0  0  0  0  0  0  0  0  0  0  0
   55.5261   31.1082   53.4584 H   0  0  0  0  0  0  0  0  0  0  0  0
   54.8214   31.7249   51.9255 H   0  0  0  0  0  0  0  0  0  0  0  0
   55.7830   30.2077   51.9255 H   0  0  0  0  0  0  0  0  0  0  0  0
   56.6743   33.0273   51.7946 H   0  0  0  0  0  0  0  0  0  0  0  0
   57.5400   32.0452   53.0431 H   0  0  0  0  0  0  0  0  0  0  0  0
   58.3568   30.5090   51.4494 H   0  0  0  0  0  0  0  0  0  0  0  0
   57.1491   31.0133   50.2105 H   0  0  0  0  0  0  0  0  0  0  0  0
   59.7201   32.5733   52.3752 H   0  0  0  0  0  0  0  0  0  0  0  0
   61.3466   34.2667   51.5421 H   0  0  0  0  0  0  0  0  0  0  0  0
   61.2910   34.9620   49.1512 H   0  0  0  0  0  0  0  0  0  0  0  0
   58.7250   32.3340   46.4140 H   0  0  0  0  0  0  0  0  0  0  0  0
   58.7430   34.9220   44.8638 H   0  0  0  0  0  0  0  0  0  0  0  0
   59.5466   33.4413   44.2090 H   0  0  0  0  0  0  0  0  0  0  0  0
   56.6123   33.5394   45.0422 H   0  0  0  0  0  0  0  0  0  0  0  0
   57.2069   33.8532   43.3558 H   0  0  0  0  0  0  0  0  0  0  0  0
   56.5455   31.5624   43.3949 H   0  0  0  0  0  0  0  0  0  0  0  0
   58.3401   31.5655   43.4798 H   0  0  0  0  0  0  0  0  0  0  0  0
   56.8812   27.1079   44.6607 H   0  0  0  0  0  0  0  0  0  0  0  0
   58.6098   25.3598   45.0541 H   0  0  0  0  0  0  0  0  0  0  0  0
   60.6947   25.9160   46.3020 H   0  0  0  0  0  0  0  0  0  0  0  0
   61.0499   28.2214   47.1748 H   0  0  0  0  0  0  0  0  0  0  0  0
   58.5830   30.9780   46.9060 H   0  0  0  0  0  0  0  0  0  0  0  0
   61.3970   31.7711   46.0865 H   0  0  0  0  0  0  0  0  0  0  0  0
   63.4606   32.3956   47.3434 H   0  0  0  0  0  0  0  0  0  0  0  0
   63.7735   31.6120   49.6956 H   0  0  0  0  0  0  0  0  0  0  0  0
   62.0251   30.2041   50.7885 H   0  0  0  0  0  0  0  0  0  0  0  0
   59.9550   29.5868   49.5380 H   0  0  0  0  0  0  0  0  0  0  0  0
  1  2  1  0
  2  3  1  0
  3  4  1  0
  4  5  1  0
  5  6  2  0
  6  7  1  0
  7  8  2  0
  8  9  1  0
  9 10  2  0
  9 11  1  0
 11 12  1  0
 12 13  1  0
 13 14  1  0
 14 15  1  0
 15 16  1  0
 16 17  2  0
 16 18  1  0
 18 19  2  0
 19 20  1  0
 20 21  2  0
 21 22  1  0
 22 23  2  0
 23 24  1  0
 24 25  1  0
 25 26  2  0
 26 27  1  0
 27 28  2  0
 28 29  1  0
 29 30  2  0
  8 31  1  0
 31 32  2  0
 31  4  1  0
 23 18  1  0
 30 25  1  0
  1 33  1  0
  1 34  1  0
  1 35  1  0
  2 36  1  0
  2 37  1  0
  3 38  1  0
  3 39  1  0
  5 40  1  0
  6 41  1  0
  7 42  1  0
 11 43  1  0
 12 44  1  0
 12 45  1  0
 13 46  1  0
 13 47  1  0
 14 48  1  0
 14 49  1  0
 19 50  1  0
 20 51  1  0
 21 52  1  0
 22 53  1  0
 24 54  1  0
 26 55  1  0
 27 56  1  0
 28 57  1  0
 29 58  1  0
 30 59  1  0
M  CHG  1  15  -1
M  END
>  <UniqueID>  (81) 
81

>  <SMILES>  (81) 
CCCn1cccc(C(=O)NCCC[N-]C(=O)c2ccccc2Nc2ccccc2)c1=O

>  <Energy>  (81) 
64.85836000900204

>  <Genealogy>  (81) 
CCCn1cccc(C(=O)NCCC[N-]C(=O)c2ccccc2Nc2ccccc2)c1=O (protonated)
CCCn1cccc(C(=O)NCCC[N-]C(=O)c2ccccc2Nc2ccccc2)c1=O (3D coordinates assigned)
CCCn1cccc(C(=O)NCCC[N-]C(=O)c2ccccc2Nc2ccccc2)c1=O (optimized conformer: 64.85836000900204 kcal/mol)

>  <smiles>  (81) 
CCCn1cccc(C(=O)NCCCNC(=O)c2ccccc2Nc2ccccc2)c1=O

>  <score_type>  (81) 
oracle

>  <origin>  (81) 
adg

>  <m_score__min__energy>  (81) 
-10.140000000000001

>  <m_primary>  (81) 
energy

$$$$
81:0
     RDKit          3D

 62 66  0  0  1  0  0  0  0  0999 V2000
   58.4730   32.2280   50.4990 C   0  0  0  0  0  0  0  0  0  0  0  0
   59.2840   33.1020   51.0090 C   0  0  0  0  0  0  0  0  0  0  0  0
   58.7470   33.9270   52.1560 C   0  0  0  0  0  0  0  0  0  0  0  0
   60.6560   33.3880   50.6320 C   0  0  0  0  0  0  0  0  0  0  0  0
   61.6870   33.2430   51.5690 C   0  0  0  0  0  0  0  0  0  0  0  0
   62.9990   33.5060   51.3160 C   0  0  0  0  0  0  0  0  0  0  0  0
   63.3800   33.9440   50.0840 C   0  0  0  0  0  0  0  0  0  0  0  0
   62.4140   34.1040   49.1270 C   0  0  0  0  0  0  0  0  0  0  0  0
   61.0500   33.8290   49.3870 C   0  0  0  0  0  0  0  0  0  0  0  0
   60.1900   34.0020   48.2520 C   0  0  0  0  0  0  0  0  0  0  0  0
   59.3350   34.9680   48.3440 O   0  0  0  0  0  0  0  0  0  0  0  0
   60.1460   33.2630   47.0650 N   0  0  0  0  0  0  0  0  0  0  0  0
   59.2660   33.2440   46.1550 C   0  0  0  0  0  0  0  0  0  0  0  0
   58.7150   34.2920   45.5470 N   0  0  0  0  0  0  0  0  0  0  0  0
   57.8390   33.9380   44.6450 N   0  0  0  0  0  0  0  0  0  0  0  0
   57.8000   32.5990   44.6490 C   0  0  0  0  0  0  0  0  0  0  0  0
   57.0330   31.7590   43.8640 C   0  0  0  0  0  0  0  0  0  0  0  0
   57.2020   30.4090   44.0690 C   0  0  0  0  0  0  0  0  0  0  0  0
   58.1040   29.9130   45.0230 C   0  0  0  0  0  0  0  0  0  0  0  0
   58.1690   28.4600   45.1160 C   0  0  0  0  0  0  0  0  0  0  0  0
   58.3290   27.8700   46.3590 C   0  0  0  0  0  0  0  0  0  0  0  0
   58.3860   26.4790   46.5040 C   0  0  0  0  0  0  0  0  0  0  0  0
   58.2820   25.6520   45.3860 C   0  0  0  0  0  0  0  0  0  0  0  0
   58.3600   23.9360   45.6410 S   0  0  0  0  0  0  0  0  0  0  0  0
   57.8430   23.5830   47.0290 O   0  0  0  0  0  0  0  0  0  0  0  0
   59.7980   23.4410   45.6430 O   0  0  0  0  0  0  0  0  0  0  0  0
   57.5040   23.0250   44.5260 N   0  0  0  0  0  0  0  0  0  0  0  0
   56.3830   23.5670   43.8900 C   0  0  0  0  0  0  0  0  0  0  0  0
   55.9070   22.8470   42.6670 C   0  0  0  0  0  0  0  0  0  0  0  0
   55.9350   21.4780   42.9250 O   0  0  0  0  0  0  0  0  0  0  0  0
   57.2810   21.1150   43.0020 C   0  0  0  0  0  0  0  0  0  0  0  0
   57.9360   21.7200   44.2230 C   0  0  0  0  0  0  0  0  0  0  0  0
   58.1220   26.2450   44.1540 C   0  0  0  0  0  0  0  0  0  0  0  0
   58.0650   27.6320   44.0090 C   0  0  0  0  0  0  0  0  0  0  0  0
   58.8620   30.7640   45.7990 C   0  0  0  0  0  0  0  0  0  0  0  0
   58.6860   32.1120   45.5880 C   0  0  0  0  0  0  0  0  0  0  0  0
   58.8021   31.5952   49.6616 H   0  0  0  0  0  0  0  0  0  0  0  0
   57.4560   32.1194   50.9038 H   0  0  0  0  0  0  0  0  0  0  0  0
   59.0461   33.4675   53.1097 H   0  0  0  0  0  0  0  0  0  0  0  0
   59.1548   34.9469   52.0965 H   0  0  0  0  0  0  0  0  0  0  0  0
   57.6493   33.9670   52.0965 H   0  0  0  0  0  0  0  0  0  0  0  0
   61.4189   32.8932   52.5769 H   0  0  0  0  0  0  0  0  0  0  0  0
   63.7508   33.3647   52.1065 H   0  0  0  0  0  0  0  0  0  0  0  0
   64.4352   34.1633   49.8638 H   0  0  0  0  0  0  0  0  0  0  0  0
   62.7064   34.4565   48.1269 H   0  0  0  0  0  0  0  0  0  0  0  0
   58.9550   35.2720   45.7660 H   0  0  0  0  0  0  0  0  0  0  0  0
   57.2890   34.6250   44.0570 H   0  0  0  0  0  0  0  0  0  0  0  0
   56.3263   32.1483   43.1164 H   0  0  0  0  0  0  0  0  0  0  0  0
   56.6141   29.6990   43.4688 H   0  0  0  0  0  0  0  0  0  0  0  0
   58.4130   28.5082   47.2510 H   0  0  0  0  0  0  0  0  0  0  0  0
   58.5133   26.0367   47.5031 H   0  0  0  0  0  0  0  0  0  0  0  0
   55.5570   23.5778   44.6164 H   0  0  0  0  0  0  0  0  0  0  0  0
   56.6931   24.5640   43.5438 H   0  0  0  0  0  0  0  0  0  0  0  0
   54.8797   23.1593   42.4281 H   0  0  0  0  0  0  0  0  0  0  0  0
   56.5564   23.0842   41.8114 H   0  0  0  0  0  0  0  0  0  0  0  0
   57.3553   20.0190   43.0597 H   0  0  0  0  0  0  0  0  0  0  0  0
   57.7969   21.4894   42.1056 H   0  0  0  0  0  0  0  0  0  0  0  0
   57.7164   21.0753   45.0867 H   0  0  0  0  0  0  0  0  0  0  0  0
   59.0115   21.7878   44.0023 H   0  0  0  0  0  0  0  0  0  0  0  0
   58.0369   25.6091   43.2605 H   0  0  0  0  0  0  0  0  0  0  0  0
   57.9366   28.0714   43.0088 H   0  0  0  0  0  0  0  0  0  0  0  0
   59.5716   30.3843   46.5489 H   0  0  0  0  0  0  0  0  0  0  0  0
  1  2  2  0
  2  3  1  0
  2  4  1  0
  4  5  2  0
  5  6  1  0
  6  7  2  0
  7  8  1  0
  8  9  2  0
  9 10  1  0
 10 11  2  0
 10 12  1  0
 12 13  2  0
 13 14  1  0
 14 15  1  0
 15 16  1  0
 16 17  2  0
 17 18  1  0
 18 19  2  0
 19 20  1  0
 20 21  2  0
 21 22  1  0
 22 23  2  0
 23 24  1  0
 24 25  2  0
 24 26  2  0
 24 27  1  0
 27 28  1  0
 28 29  1  0
 29 30  1  0
 30 31  1  0
 31 32  1  0
 23 33  1  0
 33 34  2  0
 19 35  1  0
 35 36  2  0
  9  4  1  0
 36 13  1  0
 36 16  1  0
 34 20  1  0
 32 27  1  0
  1 37  1  0
  1 38  1  0
  3 39  1  0
  3 40  1  0
  3 41  1  0
  5 42  1  0
  6 43  1  0
  7 44  1  0
  8 45  1  0
 14 46  1  0
 15 47  1  0
 17 48  1  0
 18 49  1  0
 21 50  1  0
 22 51  1  0
 28 52  1  0
 28 53  1  0
 29 54  1  0
 29 55  1  0
 31 56  1  0
 31 57  1  0
 32 58  1  0
 32 59  1  0
 33 60  1  0
 34 61  1  0
 35 62  1  0
M  END
>  <smiles>  (82) 
C=C(C)c1ccccc1C(=O)N=c1[nH][nH]c2ccc(-c3ccc(S(=O)(=O)N4CCOCC4)cc3)cc12

>  <score_type>  (82) 
oracle

>  <origin>  (82) 
adg

>  <m_score__min__energy>  (82) 
-11.199999999999999

>  <m_primary>  (82) 
energy

$$$$
82:0
     RDKit          3D

 39 41  0  0  0  0  0  0  0  0999 V2000
   54.6700   27.0890   46.6830 H   0  0  0  0  0  0  0  0  0  0  0  0
   55.1510   26.4680   45.9950 N   0  0  0  0  0  0  0  0  0  0  0  0
   56.5160   26.6880   45.6400 C   0  0  0  0  0  0  0  0  0  0  0  0
   57.2490   25.6960   45.3810 O   0  0  0  0  0  0  0  0  0  0  0  0
   57.0640   28.0620   45.5720 C   0  0  0  0  0  0  0  0  0  0  0  0
   56.5360   29.0030   44.6690 C   0  0  0  0  0  0  0  0  0  0  0  0
   55.7060   28.7168   44.0063 H   0  0  0  0  0  0  0  0  0  0  0  0
   57.0570   30.2980   44.6070 C   0  0  0  0  0  0  0  0  0  0  0  0
   56.6241   31.0272   43.9063 H   0  0  0  0  0  0  0  0  0  0  0  0
   58.1250   30.6750   45.4290 C   0  0  0  0  0  0  0  0  0  0  0  0
   58.6120   32.0260   45.3530 N   0  0  0  0  0  0  0  0  0  0  0  0
   59.1870   32.7000   46.3070 C   0  0  0  0  0  0  0  0  0  0  0  0
   58.8200   32.5350   47.6100 N   0  0  0  0  0  0  0  0  0  0  0  0
   59.4200   33.2050   48.6330 C   0  0  0  0  0  0  0  0  0  0  0  0
   58.9470   32.9680   50.0170 C   0  0  0  0  0  0  0  0  0  0  0  0
   59.4450   33.7570   51.0660 C   0  0  0  0  0  0  0  0  0  0  0  0
   60.1945   34.5346   50.8574 H   0  0  0  0  0  0  0  0  0  0  0  0
   58.9940   33.5600   52.3730 C   0  0  0  0  0  0  0  0  0  0  0  0
   59.3929   34.1806   53.1889 H   0  0  0  0  0  0  0  0  0  0  0  0
   58.0400   32.5800   52.6490 C   0  0  0  0  0  0  0  0  0  0  0  0
   57.6925   32.4306   53.6819 H   0  0  0  0  0  0  0  0  0  0  0  0
   57.5200   31.7820   51.6140 C   0  0  0  0  0  0  0  0  0  0  0  0
   56.4880   30.7500   51.8870 C   0  0  0  0  0  0  0  0  0  0  0  0
   56.8410   29.5890   52.2280 O   0  0  0  0  0  0  0  0  0  0  0  0
   55.0920   31.0450   51.7880 N   0  0  0  0  0  0  0  0  0  0  0  0
   54.3890   30.2850   51.9290 H   0  0  0  0  0  0  0  0  0  0  0  0
   54.7430   32.0210   51.6670 H   0  0  0  0  0  0  0  0  0  0  0  0
   57.9710   31.9940   50.2980 C   0  0  0  0  0  0  0  0  0  0  0  0
   57.5550   31.3903   49.4780 H   0  0  0  0  0  0  0  0  0  0  0  0
   60.4520   34.1160   48.3420 C   0  0  0  0  0  0  0  0  0  0  0  0
   61.0340   34.8620   49.3150 F   0  0  0  0  0  0  0  0  0  0  0  0
   60.8560   34.2910   47.0170 C   0  0  0  0  0  0  0  0  0  0  0  0
   61.6689   34.9927   46.7787 H   0  0  0  0  0  0  0  0  0  0  0  0
   60.2300   33.5770   45.9950 C   0  0  0  0  0  0  0  0  0  0  0  0
   60.5546   33.7031   44.9516 H   0  0  0  0  0  0  0  0  0  0  0  0
   58.6340   29.7500   46.3570 C   0  0  0  0  0  0  0  0  0  0  0  0
   59.4450   30.0483   47.0377 H   0  0  0  0  0  0  0  0  0  0  0  0
   58.1160   28.4540   46.4200 C   0  0  0  0  0  0  0  0  0  0  0  0
   58.5342   27.7339   47.1387 H   0  0  0  0  0  0  0  0  0  0  0  0
  1  2  1  0
  2  3  1  0
  3  4  2  0
  3  5  1  0
  5  6  2  0
  6  7  1  0
  6  8  1  0
  8  9  1  0
  8 10  2  0
 10 11  1  0
 11 12  2  0
 12 13  1  0
 13 14  1  0
 14 15  1  0
 15 16  2  0
 16 17  1  0
 16 18  1  0
 18 19  1  0
 18 20  2  0
 20 21  1  0
 20 22  1  0
 22 23  1  0
 23 24  2  0
 23 25  1  0
 25 26  1  0
 25 27  1  0
 22 28  2  0
 28 29  1  0
 14 30  2  0
 30 31  1  0
 30 32  1  0
 32 33  1  0
 32 34  2  0
 34 35  1  0
 10 36  1  0
 36 37  1  0
 36 38  2  0
 38 39  1  0
 38  5  1  0
 34 12  1  0
 28 15  1  0
M  CHG  2   2  -1  13  -1
M  END
>  <UniqueID>  (83) 
82

>  <SMILES>  (83) 
[NH-]C(=O)c1ccc(/N=c2/ccc(F)c(-c3cccc(C(N)=O)c3)[n-]2)cc1

>  <Energy>  (83) 
55.1769736447822

>  <Genealogy>  (83) 
[NH-]C(=O)c1ccc(N=c2ccc(F)c(-c3cccc(C(N)=O)c3)[n-]2)cc1 (protonated)
[NH-]C(=O)c1ccc(/N=c2/ccc(F)c(-c3cccc(C(N)=O)c3)[n-]2)cc1 (cis-trans isomerization)
[NH-]C(=O)c1ccc(/N=c2/ccc(F)c(-c3cccc(C(N)=O)c3)[n-]2)cc1 (3D coordinates assigned)
[NH-]C(=O)c1ccc(/N=c2/ccc(F)c(-c3cccc(C(N)=O)c3)[n-]2)cc1 (optimized conformer: 55.1769736447822 kcal/mol)

>  <smiles>  (83) 
NC(=O)c1ccc(N=c2ccc(F)c(-c3cccc(C(N)=O)c3)[nH]2)cc1

>  <score_type>  (83) 
oracle

>  <origin>  (83) 
adg

>  <m_score__min__energy>  (83) 
-12.18

>  <m_primary>  (83) 
energy

$$$$
83:0
     RDKit          3D

 32 34  0  0  0  0  0  0  0  0999 V2000
   57.3890   32.3430   41.1080 C   0  0  0  0  0  0  0  0  0  0  0  0
   57.6050   32.0930   42.5220 N   0  0  0  0  0  0  0  0  0  0  0  0
   58.1470   32.8400   43.5550 C   0  0  0  0  0  0  0  0  0  0  0  0
   57.9320   31.8740   44.5880 C   0  0  0  0  0  0  0  0  0  0  0  0
   58.2330   31.8420   46.0270 C   0  0  0  0  0  0  0  0  0  0  0  0
   58.9340   30.9240   46.6790 C   0  0  0  0  0  0  0  0  0  0  0  0
   59.6900   29.4860   46.0100 Cl  0  0  0  0  0  0  0  0  0  0  0  0
   58.9880   31.3270   48.0790 C   0  0  0  0  0  0  0  0  0  0  0  0
   59.5280   30.6420   48.9900 O   0  0  0  0  0  0  0  0  0  0  0  0
   58.3270   32.5780   48.3220 N   0  0  1  0  0  0  0  0  0  0  0  0
   59.2540   33.6290   48.8030 C   0  0  0  0  0  0  0  0  0  0  0  0
   60.6580   33.5180   48.2320 C   0  0  0  0  0  0  0  0  0  0  0  0
   60.9320   33.9640   46.9280 C   0  0  0  0  0  0  0  0  0  0  0  0
   62.2150   33.8250   46.3900 C   0  0  0  0  0  0  0  0  0  0  0  0
   63.2340   33.2420   47.1480 C   0  0  0  0  0  0  0  0  0  0  0  0
   64.4770   33.1070   46.6250 F   0  0  0  0  0  0  0  0  0  0  0  0
   62.9720   32.8010   48.4490 C   0  0  0  0  0  0  0  0  0  0  0  0
   61.6890   32.9380   48.9890 C   0  0  0  0  0  0  0  0  0  0  0  0
   57.8220   32.8480   47.0050 C   0  0  0  0  0  0  0  0  0  0  0  0
   57.0760   33.8310   46.7430 O   0  0  0  0  0  0  0  0  0  0  0  0
   57.2110   30.8560   43.5260 S   0  0  0  0  0  0  0  0  0  0  0  0
   56.6742   33.1703   40.9869 H   0  0  0  0  0  0  0  0  0  0  0  0
   58.3442   32.6112   40.6330 H   0  0  0  0  0  0  0  0  0  0  0  0
   56.9850   31.4369   40.6330 H   0  0  0  0  0  0  0  0  0  0  0  0
   58.5949   33.8445   43.5745 H   0  0  0  0  0  0  0  0  0  0  0  0
   57.5330   32.4390   48.9890 H   0  0  0  0  0  0  0  0  0  0  0  0
   58.8421   34.6095   48.5221 H   0  0  0  0  0  0  0  0  0  0  0  0
   59.3410   33.5047   49.8925 H   0  0  0  0  0  0  0  0  0  0  0  0
   60.1335   34.4246   46.3278 H   0  0  0  0  0  0  0  0  0  0  0  0
   62.4227   34.1752   45.3681 H   0  0  0  0  0  0  0  0  0  0  0  0
   63.7750   32.3463   49.0477 H   0  0  0  0  0  0  0  0  0  0  0  0
   61.4864   32.5895   50.0125 H   0  0  0  0  0  0  0  0  0  0  0  0
  1  2  1  0
  2  3  1  0
  3  4  2  0
  4  5  1  0
  5  6  2  0
  6  7  1  0
  6  8  1  0
  8  9  2  0
  8 10  1  0
 10 11  1  0
 11 12  1  0
 12 13  2  0
 13 14  1  0
 14 15  2  0
 15 16  1  0
 15 17  1  0
 17 18  2  0
 10 19  1  0
 19 20  2  0
  4 21  1  0
 21  2  1  0
 19  5  1  0
 18 12  1  0
  1 22  1  0
  1 23  1  0
  1 24  1  0
  3 25  1  0
 10 26  1  1
 11 27  1  0
 11 28  1  0
 13 29  1  0
 14 30  1  0
 17 31  1  0
 18 32  1  0
M  CHG  1  10   1
M  END
>  <UniqueID>  (84) 
83

>  <SMILES>  (84) 
Cn1cc(C2=C(Cl)C(=O)[N@@H+](Cc3ccc(F)cc3)C2=O)s1

>  <Energy>  (84) 
61.20483525350576

>  <Genealogy>  (84) 
Cn1cc(C2=C(Cl)C(=O)[NH+](Cc3ccc(F)cc3)C2=O)s1 (protonated)
Cn1cc(C2=C(Cl)C(=O)[N@@H+](Cc3ccc(F)cc3)C2=O)s1 (chirality)
Cn1cc(C2=C(Cl)C(=O)[N@@H+](Cc3ccc(F)cc3)C2=O)s1 (3D coordinates assigned)
Cn1cc(C2=C(Cl)C(=O)[N@@H+](Cc3ccc(F)cc3)C2=O)s1 (nonaromatic ring conformer: 61.20483525350576 kcal/mol)

>  <smiles>  (84) 
Cn1cc(C2=C(Cl)C(=O)N(Cc3ccc(F)cc3)C2=O)s1

>  <score_type>  (84) 
oracle

>  <origin>  (84) 
adg

>  <m_score__min__energy>  (84) 
-5.4500000000000002

>  <m_primary>  (84) 
energy

$$$$
84:0
     RDKit          3D

 43 47  0  0  0  0  0  0  0  0999 V2000
   54.1020   28.2020   53.5890 C   0  0  0  0  0  0  0  0  0  0  0  0
   54.5030   29.3530   53.0270 C   0  0  0  0  0  0  0  0  0  0  0  0
   53.6810   30.3880   52.5520 C   0  0  0  0  0  0  0  0  0  0  0  0
   52.3530   30.4340   52.3300 C   0  0  0  0  0  0  0  0  0  0  0  0
   51.7090   30.7990   51.0580 C   0  0  0  0  0  0  0  0  0  0  0  0
   51.7220   30.0410   49.9450 N   0  0  0  0  0  0  0  0  0  0  0  0
   51.1440   30.8370   49.0190 C   0  0  0  0  0  0  0  0  0  0  0  0
   50.9580   30.4690   47.8310 O   0  0  0  0  0  0  0  0  0  0  0  0
   50.7900   32.0610   49.4650 N   0  0  0  0  0  0  0  0  0  0  0  0
   51.1690   32.0250   50.7530 C   0  0  0  0  0  0  0  0  0  0  0  0
   51.0290   33.0930   51.6300 O   0  0  0  0  0  0  0  0  0  0  0  0
   54.5190   31.4580   52.2900 C   0  0  0  0  0  0  0  0  0  0  0  0
   55.8050   31.0340   52.5470 C   0  0  0  0  0  0  0  0  0  0  0  0
   57.0060   31.8650   52.3470 C   0  0  0  0  0  0  0  0  0  0  0  0
   57.4000   32.2710   51.0530 C   0  0  0  0  0  0  0  0  0  0  0  0
   58.5570   33.0580   50.8690 C   0  0  0  0  0  0  0  0  0  0  0  0
   59.3410   33.4450   51.9700 C   0  0  0  0  0  0  0  0  0  0  0  0
   58.9380   33.0220   53.2340 C   0  0  0  0  0  0  0  0  0  0  0  0
   59.4970   33.2520   54.4710 C   0  0  0  0  0  0  0  0  0  0  0  0
   58.6610   32.6020   55.3730 C   0  0  0  0  0  0  0  0  0  0  0  0
   57.6360   31.9990   54.7300 N   0  0  0  0  0  0  0  0  0  0  0  0
   57.8150   32.2590   53.4210 C   0  0  0  0  0  0  0  0  0  0  0  0
   55.8040   29.7510   52.9790 N   0  0  0  0  0  0  0  0  0  0  0  0
   56.9990   28.9580   53.3150 C   0  0  0  0  0  0  0  0  0  0  0  0
   58.1040   29.1770   52.3230 C   0  0  0  0  0  0  0  0  0  0  0  0
   59.4610   29.1070   52.5610 C   0  0  0  0  0  0  0  0  0  0  0  0
   60.1210   29.3170   51.4100 N   0  0  0  0  0  0  0  0  0  0  0  0
   59.1330   29.4950   50.5090 C   0  0  0  0  0  0  0  0  0  0  0  0
   59.3560   29.7200   49.2920 O   0  0  0  0  0  0  0  0  0  0  0  0
   57.8870   29.4120   51.0160 N   0  0  0  0  0  0  0  0  0  0  0  0
   54.8465   27.4645   53.9234 H   0  0  0  0  0  0  0  0  0  0  0  0
   53.0288   27.9962   53.7152 H   0  0  0  0  0  0  0  0  0  0  0  0
   51.6934   30.1766   53.1718 H   0  0  0  0  0  0  0  0  0  0  0  0
   54.2162   32.4568   51.9427 H   0  0  0  0  0  0  0  0  0  0  0  0
   56.8000   31.9713   50.1811 H   0  0  0  0  0  0  0  0  0  0  0  0
   58.8479   33.3713   49.8555 H   0  0  0  0  0  0  0  0  0  0  0  0
   60.2425   34.0612   51.8374 H   0  0  0  0  0  0  0  0  0  0  0  0
   60.4079   33.8258   54.6972 H   0  0  0  0  0  0  0  0  0  0  0  0
   58.8133   32.5814   56.4622 H   0  0  0  0  0  0  0  0  0  0  0  0
   56.8610   31.4550   55.1710 H   0  0  0  0  0  0  0  0  0  0  0  0
   57.3529   29.2516   54.3143 H   0  0  0  0  0  0  0  0  0  0  0  0
   56.7229   27.8934   53.2932 H   0  0  0  0  0  0  0  0  0  0  0  0
   59.9280   28.9106   53.5374 H   0  0  0  0  0  0  0  0  0  0  0  0
  1  2  2  0
  2  3  1  0
  3  4  2  3
  4  5  1  0
  5  6  1  0
  6  7  1  0
  7  8  2  0
  7  9  1  0
  9 10  1  0
 10 11  1  0
  3 12  1  0
 12 13  2  0
 13 14  1  0
 14 15  2  0
 15 16  1  0
 16 17  2  0
 17 18  1  0
 18 19  1  0
 19 20  2  0
 20 21  1  0
 21 22  1  0
 13 23  1  0
 23 24  1  0
 24 25  1  0
 25 26  2  0
 26 27  1  0
 27 28  1  0
 28 29  2  0
 28 30  1  0
 23  2  1  0
 30 25  1  0
 10  5  2  0
 22 14  1  0
 22 18  2  0
  1 31  1  0
  1 32  1  0
  4 33  1  0
 12 34  1  0
 15 35  1  0
 16 36  1  0
 17 37  1  0
 19 38  1  0
 20 39  1  0
 21 40  1  0
 24 41  1  0
 24 42  1  0
 26 43  1  0
M  CHG  5   6  -1   9  -1  11  -1  27  -1  30  -1
M  END
>  <UniqueID>  (85) 
84

>  <SMILES>  (85) 
C=c1c(=Cc2[n-]c(=O)[n-]c2[O-])cc(-c2cccc3cc[nH]c23)n1Cc1c[n-]c(=O)[n-]1

>  <Energy>  (85) 
184.30459198907286

>  <Genealogy>  (85) 
C=c1c(=Cc2[n-]c(=O)[n-]c2[O-])cc(-c2cccc3cc[nH]c23)n1Cc1c[n-]c(=O)[n-]1 (protonated)
C=c1c(=Cc2[n-]c(=O)[n-]c2[O-])cc(-c2cccc3cc[nH]c23)n1Cc1c[n-]c(=O)[n-]1 (3D coordinates assigned)
C=c1c(=Cc2[n-]c(=O)[n-]c2[O-])cc(-c2cccc3cc[nH]c23)n1Cc1c[n-]c(=O)[n-]1 (optimized conformer: 184.30459198907286 kcal/mol)

>  <smiles>  (85) 
C=c1c(=Cc2[nH]c(=O)[nH]c2O)cc(-c2cccc3cc[nH]c23)n1Cc1c[nH]c(=O)[nH]1

>  <score_type>  (85) 
oracle

>  <origin>  (85) 
adg

>  <m_score__min__energy>  (85) 
-17.809999999999999

>  <m_primary>  (85) 
energy

$$$$
85:0
     RDKit          3D

 45 47  0  0  0  0  0  0  0  0999 V2000
   59.3890   26.1320   48.1950 O   0  0  0  0  0  0  0  0  0  0  0  0
   59.2640   26.3650   46.9600 C   0  0  0  0  0  0  0  0  0  0  0  0
   59.1770   25.2060   45.9990 C   0  0  0  0  0  0  0  0  0  0  0  0
   57.7460   24.8400   45.7060 C   0  0  0  0  0  0  0  0  0  0  0  0
   57.4280   23.5550   45.2370 C   0  0  0  0  0  0  0  0  0  0  0  0
   56.0980   23.2030   44.9930 C   0  0  0  0  0  0  0  0  0  0  0  0
   55.0700   24.1240   45.2220 C   0  0  0  0  0  0  0  0  0  0  0  0
   53.7510   23.7460   44.9700 O   0  0  0  0  0  0  0  0  0  0  0  0
   55.3800   25.4070   45.7020 C   0  0  0  0  0  0  0  0  0  0  0  0
   54.3710   26.3320   45.9420 O   0  0  0  0  0  0  0  0  0  0  0  0
   56.7120   25.7600   45.9470 C   0  0  0  0  0  0  0  0  0  0  0  0
   59.1710   27.7310   46.5050 N   0  0  0  0  0  0  0  0  0  0  0  0
   58.5360   28.0680   45.2210 C   0  0  0  0  0  0  0  0  0  0  0  0
   57.7040   29.3530   45.3490 C   0  0  0  0  0  0  0  0  0  0  0  0
   58.4400   30.5150   46.0730 C   0  0  0  0  0  0  0  0  0  0  0  0
   58.5180   31.6990   45.2050 N   0  0  0  0  0  0  0  0  0  0  0  0
   58.9010   33.0150   45.6540 C   0  0  0  0  0  0  0  0  0  0  0  0
   58.9800   34.1140   44.7740 C   0  0  0  0  0  0  0  0  0  0  0  0
   59.3570   35.3750   45.2500 C   0  0  0  0  0  0  0  0  0  0  0  0
   59.6550   35.5550   46.6010 C   0  0  0  0  0  0  0  0  0  0  0  0
   59.5770   34.4750   47.4830 C   0  0  0  0  0  0  0  0  0  0  0  0
   59.2030   33.2120   47.0130 C   0  0  0  0  0  0  0  0  0  0  0  0
   59.8490   30.1160   46.5540 C   0  0  0  0  0  0  0  0  0  0  0  0
   59.8080   28.7840   47.3070 C   0  0  0  0  0  0  0  0  0  0  0  0
   59.6751   25.4832   45.0582 H   0  0  0  0  0  0  0  0  0  0  0  0
   59.6687   24.3368   46.4603 H   0  0  0  0  0  0  0  0  0  0  0  0
   58.2295   22.8224   45.0610 H   0  0  0  0  0  0  0  0  0  0  0  0
   55.8580   22.1968   44.6190 H   0  0  0  0  0  0  0  0  0  0  0  0
   52.9810   24.3980   45.0520 H   0  0  0  0  0  0  0  0  0  0  0  0
   56.9505   26.7631   46.3303 H   0  0  0  0  0  0  0  0  0  0  0  0
   59.3163   28.2170   44.4601 H   0  0  0  0  0  0  0  0  0  0  0  0
   57.8704   27.2428   44.9276 H   0  0  0  0  0  0  0  0  0  0  0  0
   57.4336   29.6918   44.3380 H   0  0  0  0  0  0  0  0  0  0  0  0
   56.8254   29.1028   45.9618 H   0  0  0  0  0  0  0  0  0  0  0  0
   57.8467   30.7566   46.9672 H   0  0  0  0  0  0  0  0  0  0  0  0
   58.2990   31.5830   44.1880 H   0  0  0  0  0  0  0  0  0  0  0  0
   58.7441   33.9795   43.7080 H   0  0  0  0  0  0  0  0  0  0  0  0
   59.4185   36.2268   44.5567 H   0  0  0  0  0  0  0  0  0  0  0  0
   59.9514   36.5474   46.9715 H   0  0  0  0  0  0  0  0  0  0  0  0
   59.8100   34.6179   48.5485 H   0  0  0  0  0  0  0  0  0  0  0  0
   59.1446   32.3653   47.7127 H   0  0  0  0  0  0  0  0  0  0  0  0
   60.5133   30.0177   45.6828 H   0  0  0  0  0  0  0  0  0  0  0  0
   60.2236   30.8949   47.2344 H   0  0  0  0  0  0  0  0  0  0  0  0
   60.8368   28.4774   47.5470 H   0  0  0  0  0  0  0  0  0  0  0  0
   59.2169   28.9243   48.2240 H   0  0  0  0  0  0  0  0  0  0  0  0
  1  2  2  0
  2  3  1  0
  3  4  1  0
  4  5  2  0
  5  6  1  0
  6  7  2  0
  7  8  1  0
  7  9  1  0
  9 10  1  0
  9 11  2  0
  2 12  1  0
 12 13  1  0
 13 14  1  0
 14 15  1  0
 15 16  1  0
 16 17  1  0
 17 18  2  0
 18 19  1  0
 19 20  2  0
 20 21  1  0
 21 22  2  0
 15 23  1  0
 23 24  1  0
 11  4  1  0
 24 12  1  0
 22 17  1  0
  3 25  1  0
  3 26  1  0
  5 27  1  0
  6 28  1  0
  8 29  1  0
 11 30  1  0
 13 31  1  0
 13 32  1  0
 14 33  1  0
 14 34  1  0
 15 35  1  0
 16 36  1  0
 18 37  1  0
 19 38  1  0
 20 39  1  0
 21 40  1  0
 22 41  1  0
 23 42  1  0
 23 43  1  0
 24 44  1  0
 24 45  1  0
M  CHG  1  10  -1
M  END
>  <UniqueID>  (86) 
85

>  <SMILES>  (86) 
O=C(Cc1ccc(O)c([O-])c1)N1CCC(Nc2ccccc2)CC1

>  <Energy>  (86) 
49.58768946120474

>  <Genealogy>  (86) 
O=C(Cc1ccc(O)c([O-])c1)N1CCC(Nc2ccccc2)CC1 (protonated)
O=C(Cc1ccc(O)c([O-])c1)N1CCC(Nc2ccccc2)CC1 (3D coordinates assigned)
O=C(Cc1ccc(O)c([O-])c1)N1CCC(Nc2ccccc2)CC1 (nonaromatic ring conformer: 49.58768946120474 kcal/mol)

>  <smiles>  (86) 
O=C(Cc1ccc(O)c(O)c1)N1CCC(Nc2ccccc2)CC1

>  <score_type>  (86) 
oracle

>  <origin>  (86) 
adg

>  <m_score__min__energy>  (86) 
-11.369999999999999

>  <m_primary>  (86) 
energy

$$$$
86:0
     RDKit          3D

 60 63  0  0  0  0  0  0  0  0999 V2000
   56.9640   34.5720   44.8590 C   0  0  0  0  0  0  0  0  0  0  0  0
   57.9130   33.7340   45.6540 C   0  0  0  0  0  0  0  0  0  0  0  0
   58.3180   34.0450   46.9010 N   0  0  0  0  0  0  0  0  0  0  0  0
   59.1010   33.0620   47.3280 N   0  0  0  0  0  0  0  0  0  0  0  0
   59.6410   33.0090   48.6870 C   0  0  0  0  0  0  0  0  0  0  0  0
   61.1440   32.8840   48.6500 C   0  0  0  0  0  0  0  0  0  0  0  0
   61.8050   32.1620   49.6600 C   0  0  0  0  0  0  0  0  0  0  0  0
   63.1970   32.0350   49.6450 C   0  0  0  0  0  0  0  0  0  0  0  0
   63.9420   32.6300   48.6240 C   0  0  0  0  0  0  0  0  0  0  0  0
   63.2970   33.3540   47.6170 C   0  0  0  0  0  0  0  0  0  0  0  0
   64.0270   33.9310   46.6310 F   0  0  0  0  0  0  0  0  0  0  0  0
   61.9030   33.4850   47.6260 C   0  0  0  0  0  0  0  0  0  0  0  0
   61.2980   34.1960   46.6430 F   0  0  0  0  0  0  0  0  0  0  0  0
   59.2020   32.1100   46.3720 C   0  0  0  0  0  0  0  0  0  0  0  0
   59.8880   30.7840   46.5460 C   0  0  0  0  0  0  0  0  0  0  0  0
   58.4480   32.5100   45.2780 C   0  0  0  0  0  0  0  0  0  0  0  0
   58.1480   31.7240   44.0330 C   0  0  0  0  0  0  0  0  0  0  0  0
   57.1230   30.6570   44.3190 C   0  0  0  0  0  0  0  0  0  0  0  0
   55.9020   30.9420   44.1610 O   0  0  0  0  0  0  0  0  0  0  0  0
   57.4970   29.3240   44.7370 N   0  0  0  0  0  0  0  0  0  0  0  0
   58.8080   28.7750   44.3600 C   0  0  0  0  0  0  0  0  0  0  0  0
   58.9090   27.3000   44.7340 C   0  0  0  0  0  0  0  0  0  0  0  0
   58.4820   27.1510   46.1410 N   0  0  0  0  0  0  0  0  0  0  0  0
   58.9350   25.8400   46.6960 C   0  0  0  0  0  0  0  0  0  0  0  0
   59.2270   24.7650   45.6310 C   0  0  0  0  0  0  0  0  0  0  0  0
   57.8800   24.1610   45.2850 C   0  0  0  0  0  0  0  0  0  0  0  0
   57.0440   24.2640   46.5550 C   0  0  0  0  0  0  0  0  0  0  0  0
   57.8020   25.1900   47.5080 C   0  0  0  0  0  0  0  0  0  0  0  0
   57.0140   27.3620   46.2400 C   0  0  0  0  0  0  0  0  0  0  0  0
   56.4550   28.4210   45.2570 C   0  0  0  0  0  0  0  0  0  0  0  0
   56.3178   35.1426   45.5423 H   0  0  0  0  0  0  0  0  0  0  0  0
   57.5324   35.2682   44.2249 H   0  0  0  0  0  0  0  0  0  0  0  0
   56.3435   33.9218   44.2249 H   0  0  0  0  0  0  0  0  0  0  0  0
   59.3668   33.9300   49.2224 H   0  0  0  0  0  0  0  0  0  0  0  0
   59.2222   32.1330   49.2039 H   0  0  0  0  0  0  0  0  0  0  0  0
   61.2225   31.6940   50.4673 H   0  0  0  0  0  0  0  0  0  0  0  0
   63.7059   31.4664   50.4373 H   0  0  0  0  0  0  0  0  0  0  0  0
   65.0373   32.5287   48.6124 H   0  0  0  0  0  0  0  0  0  0  0  0
   60.0002   30.5672   47.6186 H   0  0  0  0  0  0  0  0  0  0  0  0
   59.2852   29.9945   46.0734 H   0  0  0  0  0  0  0  0  0  0  0  0
   60.8806   30.8199   46.0734 H   0  0  0  0  0  0  0  0  0  0  0  0
   57.7580   32.4034   43.2607 H   0  0  0  0  0  0  0  0  0  0  0  0
   59.0737   31.2444   43.6824 H   0  0  0  0  0  0  0  0  0  0  0  0
   58.9438   28.8811   43.2736 H   0  0  0  0  0  0  0  0  0  0  0  0
   59.5894   29.3288   44.9011 H   0  0  0  0  0  0  0  0  0  0  0  0
   58.2542   26.7044   44.0809 H   0  0  0  0  0  0  0  0  0  0  0  0
   59.9433   26.9464   44.6110 H   0  0  0  0  0  0  0  0  0  0  0  0
   59.8402   26.0983   47.2651 H   0  0  0  0  0  0  0  0  0  0  0  0
   59.6842   25.2205   44.7403 H   0  0  0  0  0  0  0  0  0  0  0  0
   59.9320   24.0056   46.0003 H   0  0  0  0  0  0  0  0  0  0  0  0
   57.4061   24.7235   44.4671 H   0  0  0  0  0  0  0  0  0  0  0  0
   57.9771   23.1191   44.9460 H   0  0  0  0  0  0  0  0  0  0  0  0
   56.0546   24.6856   46.3241 H   0  0  0  0  0  0  0  0  0  0  0  0
   56.8885   23.2733   47.0071 H   0  0  0  0  0  0  0  0  0  0  0  0
   57.1260   25.9641   47.9001 H   0  0  0  0  0  0  0  0  0  0  0  0
   58.2044   24.6285   48.3641 H   0  0  0  0  0  0  0  0  0  0  0  0
   56.5136   26.4040   46.0356 H   0  0  0  0  0  0  0  0  0  0  0  0
   56.8174   27.7388   47.2546 H   0  0  0  0  0  0  0  0  0  0  0  0
   55.9860   27.9004   44.4090 H   0  0  0  0  0  0  0  0  0  0  0  0
   55.7298   29.0360   45.8101 H   0  0  0  0  0  0  0  0  0  0  0  0
  1  2  1  0
  2  3  2  0
  3  4  1  0
  4  5  1  0
  5  6  1  0
  6  7  2  0
  7  8  1  0
  8  9  2  0
  9 10  1  0
 10 11  1  0
 10 12  2  0
 12 13  1  0
  4 14  1  0
 14 15  1  0
 14 16  2  0
 16 17  1  0
 17 18  1  0
 18 19  2  0
 18 20  1  0
 20 21  1  0
 21 22  1  0
 22 23  1  0
 23 24  1  0
 24 25  1  0
 25 26  1  0
 26 27  1  0
 27 28  1  0
 23 29  1  0
 29 30  1  0
 16  2  1  0
 30 20  1  0
 12  6  1  0
 28 24  1  0
  1 31  1  0
  1 32  1  0
  1 33  1  0
  5 34  1  0
  5 35  1  0
  7 36  1  0
  8 37  1  0
  9 38  1  0
 15 39  1  0
 15 40  1  0
 15 41  1  0
 17 42  1  0
 17 43  1  0
 21 44  1  0
 21 45  1  0
 22 46  1  0
 22 47  1  0
 24 48  1  0
 25 49  1  0
 25 50  1  0
 26 51  1  0
 26 52  1  0
 27 53  1  0
 27 54  1  0
 28 55  1  0
 28 56  1  0
 29 57  1  0
 29 58  1  0
 30 59  1  0
 30 60  1  0
M  END
>  <UniqueID>  (87) 
86

>  <SMILES>  (87) 
Cc1nn(Cc2cccc(F)c2F)c(C)c1CC(=O)N1CCN(C2CCCC2)CC1

>  <Energy>  (87) 
101.3168092785073

>  <Genealogy>  (87) 
Cc1nn(Cc2cccc(F)c2F)c(C)c1CC(=O)N1CCN(C2CCCC2)CC1 (3D coordinates assigned)
Cc1nn(Cc2cccc(F)c2F)c(C)c1CC(=O)N1CCN(C2CCCC2)CC1 (nonaromatic ring conformer: 101.3168092785073 kcal/mol)

>  <smiles>  (87) 
Cc1nn(Cc2cccc(F)c2F)c(C)c1CC(=O)N1CCN(C2CCCC2)CC1

>  <score_type>  (87) 
oracle

>  <origin>  (87) 
adg

>  <m_score__min__energy>  (87) 
-9.0399999999999991

>  <m_primary>  (87) 
energy

$$$$
