0:0
     RDKit          3D

 40 42  0  0  0  0  0  0  0  0999 V2000
   55.2630   28.2750   44.8220 H   0  0  0  0  0  0  0  0  0  0  0  0
   55.1500   29.3120   44.8730 N   0  0  0  0  0  0  0  0  0  0  0  0
   55.9820   30.1110   44.2860 C   0  0  0  0  0  0  0  0  0  0  0  0
   56.7390   30.9570   45.0300 N   0  0  0  0  0  0  0  0  0  0  0  0
   57.6260   31.8150   44.4510 C   0  0  0  0  0  0  0  0  0  0  0  0
   58.4370   32.7200   45.3040 C   0  0  0  0  0  0  0  0  0  0  0  0
   58.4630   34.1020   45.0350 C   0  0  0  0  0  0  0  0  0  0  0  0
   57.8607   34.5080   44.2089 H   0  0  0  0  0  0  0  0  0  0  0  0
   59.2460   34.9610   45.8070 C   0  0  0  0  0  0  0  0  0  0  0  0
   59.2578   36.0389   45.5879 H   0  0  0  0  0  0  0  0  0  0  0  0
   60.0130   34.4560   46.8550 C   0  0  0  0  0  0  0  0  0  0  0  0
   60.6293   35.1361   47.4614 H   0  0  0  0  0  0  0  0  0  0  0  0
   60.0010   33.0890   47.1370 C   0  0  0  0  0  0  0  0  0  0  0  0
   60.6102   32.6970   47.9648 H   0  0  0  0  0  0  0  0  0  0  0  0
   59.2140   32.2070   46.3690 C   0  0  0  0  0  0  0  0  0  0  0  0
   59.1580   30.8290   46.6480 O   0  0  0  0  0  0  0  0  0  0  0  0
   60.1840   29.8750   46.3680 C   0  0  0  0  0  0  0  0  0  0  0  0
   60.6536   30.1247   45.4051 H   0  0  0  0  0  0  0  0  0  0  0  0
   60.9249   29.9103   47.1803 H   0  0  0  0  0  0  0  0  0  0  0  0
   59.6080   28.4460   46.2920 C   0  0  0  0  0  0  0  0  0  0  0  0
   60.2492   27.7836   46.8921 H   0  0  0  0  0  0  0  0  0  0  0  0
   58.1850   28.4120   46.8930 C   0  0  0  0  0  0  0  0  0  0  0  0
   58.2574   28.3072   47.9856 H   0  0  0  0  0  0  0  0  0  0  0  0
   57.6693   29.3478   46.6315 H   0  0  0  0  0  0  0  0  0  0  0  0
   57.3830   27.2340   46.3270 C   0  0  0  0  0  0  0  0  0  0  0  0
   57.9204   26.3004   46.5495 H   0  0  0  0  0  0  0  0  0  0  0  0
   56.3887   27.2461   46.7973 H   0  0  0  0  0  0  0  0  0  0  0  0
   57.1940   27.3370   44.8660 N   0  0  0  0  0  0  0  0  0  0  0  0
   57.1240   26.3670   44.4790 H   0  0  0  0  0  0  0  0  0  0  0  0
   58.2740   28.0490   44.1540 C   0  0  0  0  0  0  0  0  0  0  0  0
   58.3476   27.6474   43.1326 H   0  0  0  0  0  0  0  0  0  0  0  0
   58.0226   29.1199   44.1504 H   0  0  0  0  0  0  0  0  0  0  0  0
   59.6360   27.8920   44.8440 C   0  0  0  0  0  0  0  0  0  0  0  0
   59.8998   26.8246   44.8750 H   0  0  0  0  0  0  0  0  0  0  0  0
   60.3807   28.4636   44.2707 H   0  0  0  0  0  0  0  0  0  0  0  0
   57.7540   31.8180   43.0540 C   0  0  0  0  0  0  0  0  0  0  0  0
   58.4596   32.5002   42.5574 H   0  0  0  0  0  0  0  0  0  0  0  0
   56.9700   30.9400   42.3070 C   0  0  0  0  0  0  0  0  0  0  0  0
   57.0564   30.9230   41.2105 H   0  0  0  0  0  0  0  0  0  0  0  0
   56.1000   30.1060   42.9320 N   0  0  0  0  0  0  0  0  0  0  0  0
  1  2  1  0
  2  3  2  0
  3  4  1  0
  4  5  2  0
  5  6  1  0
  6  7  2  0
  7  8  1  0
  7  9  1  0
  9 10  1  0
  9 11  2  0
 11 12  1  0
 11 13  1  0
 13 14  1  0
 13 15  2  0
 15 16  1  0
 16 17  1  0
 17 18  1  0
 17 19  1  0
 17 20  1  0
 20 21  1  0
 20 22  1  0
 22 23  1  0
 22 24  1  0
 22 25  1  0
 25 26  1  0
 25 27  1  0
 25 28  1  0
 28 29  1  0
 28 30  1  0
 30 31  1  0
 30 32  1  0
 30 33  1  0
 33 34  1  0
 33 35  1  0
  5 36  1  0
 36 37  1  0
 36 38  2  0
 38 39  1  0
 38 40  1  0
 40  3  1  0
 15  6  1  0
 33 20  1  0
M  CHG  1  40  -1
M  END
>  <UniqueID>  (1) 
1

>  <SMILES>  (1) 
[H]/N=c1/nc(-c2ccccc2OCC2CCNCC2)cc[n-]1

>  <Energy>  (1) 
51.525133594029526

>  <Genealogy>  (1) 
N=c1nc(-c2ccccc2OCC2CCNCC2)cc[n-]1 (protonated)
[H]/N=c1/nc(-c2ccccc2OCC2CCNCC2)cc[n-]1 (cis-trans isomerization)
[H]/N=c1/nc(-c2ccccc2OCC2CCNCC2)cc[n-]1 (3D coordinates assigned)
[H]/N=c1/nc(-c2ccccc2OCC2CCNCC2)cc[n-]1 (nonaromatic ring conformer: 51.525133594029526 kcal/mol)

>  <smiles>  (1) 
N=c1nc(-c2ccccc2OCC2CCNCC2)cc[nH]1

>  <score_type>  (1) 
oracle

>  <origin>  (1) 
adg

>  <m_score__min__energy>  (1) 
-9.9199999999999999

>  <m_primary>  (1) 
energy

$$$$
1:0
     RDKit          3D

 55 57  0  0  0  0  0  0  0  0999 V2000
   58.4010   33.3980   44.1490 C   0  0  0  0  0  0  0  0  0  0  0  0
   57.3890   32.7420   45.4640 S   0  0  0  0  0  0  0  0  0  0  0  0
   58.2590   32.5530   46.6750 O   0  0  0  0  0  0  0  0  0  0  0  0
   56.2780   33.7000   45.8040 O   0  0  0  0  0  0  0  0  0  0  0  0
   56.7360   31.2010   45.0030 N   0  0  0  0  0  0  0  0  0  0  0  0
   57.4820   29.9790   44.8780 C   0  0  0  0  0  0  0  0  0  0  0  0
   58.8680   30.0700   44.6930 C   0  0  0  0  0  0  0  0  0  0  0  0
   59.6340   28.9200   44.5300 C   0  0  0  0  0  0  0  0  0  0  0  0
   59.0350   27.6620   44.5860 C   0  0  0  0  0  0  0  0  0  0  0  0
   57.6490   27.5430   44.8050 C   0  0  0  0  0  0  0  0  0  0  0  0
   57.0390   26.1720   44.9760 C   0  0  0  0  0  0  0  0  0  0  0  0
   56.6460   25.9740   46.4170 C   0  0  0  0  0  0  0  0  0  0  0  0
   55.5450   25.4180   46.6690 O   0  0  0  0  0  0  0  0  0  0  0  0
   57.5140   26.3070   47.5090 N   0  0  0  0  0  0  0  0  0  0  0  0
   58.9590   26.4840   47.4360 C   0  0  0  0  0  0  0  0  0  0  0  0
   59.3460   27.7840   48.0800 C   0  0  0  0  0  0  0  0  0  0  0  0
   58.6400   28.9660   47.8020 C   0  0  0  0  0  0  0  0  0  0  0  0
   58.9890   30.1620   48.4380 C   0  0  0  0  0  0  0  0  0  0  0  0
   60.0350   30.1920   49.3690 C   0  0  0  0  0  0  0  0  0  0  0  0
   60.3330   31.4310   50.0260 N   0  0  0  0  0  0  0  0  0  0  0  0
   59.2550   32.7930   50.1240 S   0  0  0  0  0  0  0  0  0  0  0  0
   57.8340   32.3260   49.9990 O   0  0  0  0  0  0  0  0  0  0  0  0
   59.4300   33.4520   51.4640 O   0  0  0  0  0  0  0  0  0  0  0  0
   59.6280   33.9880   48.8430 C   0  0  0  0  0  0  0  0  0  0  0  0
   61.0510   33.8440   48.3880 C   0  0  0  0  0  0  0  0  0  0  0  0
   62.0960   33.8700   49.3230 C   0  0  0  0  0  0  0  0  0  0  0  0
   63.4180   33.6870   48.9070 C   0  0  0  0  0  0  0  0  0  0  0  0
   63.7040   33.4760   47.5570 C   0  0  0  0  0  0  0  0  0  0  0  0
   62.6700   33.4460   46.6190 C   0  0  0  0  0  0  0  0  0  0  0  0
   61.3480   33.6290   47.0310 C   0  0  0  0  0  0  0  0  0  0  0  0
   60.7470   29.0110   49.6390 C   0  0  0  0  0  0  0  0  0  0  0  0
   60.3990   27.8170   49.0050 C   0  0  0  0  0  0  0  0  0  0  0  0
   56.8730   28.7070   44.9660 C   0  0  0  0  0  0  0  0  0  0  0  0
   55.5200   28.5860   45.2450 O   0  0  0  0  0  0  0  0  0  0  0  0
   59.2503   33.9485   44.5798 H   0  0  0  0  0  0  0  0  0  0  0  0
   58.7768   32.5713   43.5283 H   0  0  0  0  0  0  0  0  0  0  0  0
   57.7997   34.0786   43.5283 H   0  0  0  0  0  0  0  0  0  0  0  0
   59.3535   31.0569   44.6765 H   0  0  0  0  0  0  0  0  0  0  0  0
   60.7170   29.0035   44.3562 H   0  0  0  0  0  0  0  0  0  0  0  0
   59.6484   26.7578   44.4584 H   0  0  0  0  0  0  0  0  0  0  0  0
   56.1476   26.0849   44.3374 H   0  0  0  0  0  0  0  0  0  0  0  0
   57.7729   25.4052   44.6872 H   0  0  0  0  0  0  0  0  0  0  0  0
   59.4554   25.6545   47.9610 H   0  0  0  0  0  0  0  0  0  0  0  0
   59.2705   26.4947   46.3811 H   0  0  0  0  0  0  0  0  0  0  0  0
   57.8092   28.9511   47.0812 H   0  0  0  0  0  0  0  0  0  0  0  0
   58.4382   31.0853   48.2054 H   0  0  0  0  0  0  0  0  0  0  0  0
   58.9561   33.8235   47.9877 H   0  0  0  0  0  0  0  0  0  0  0  0
   59.4849   35.0005   49.2484 H   0  0  0  0  0  0  0  0  0  0  0  0
   61.8745   34.0350   50.3878 H   0  0  0  0  0  0  0  0  0  0  0  0
   64.2340   33.7093   49.6444 H   0  0  0  0  0  0  0  0  0  0  0  0
   64.7451   33.3332   47.2318 H   0  0  0  0  0  0  0  0  0  0  0  0
   62.8966   33.2783   45.5557 H   0  0  0  0  0  0  0  0  0  0  0  0
   60.5354   33.6048   46.2900 H   0  0  0  0  0  0  0  0  0  0  0  0
   61.5830   29.0275   50.3537 H   0  0  0  0  0  0  0  0  0  0  0  0
   60.9549   26.8955   49.2328 H   0  0  0  0  0  0  0  0  0  0  0  0
  1  2  1  0
  2  3  2  0
  2  4  2  0
  2  5  1  0
  5  6  1  0
  6  7  2  0
  7  8  1  0
  8  9  2  0
  9 10  1  0
 10 11  1  0
 11 12  1  0
 12 13  2  0
 12 14  1  0
 14 15  1  0
 15 16  1  0
 16 17  2  0
 17 18  1  0
 18 19  2  0
 19 20  1  0
 20 21  1  0
 21 22  2  0
 21 23  2  0
 21 24  1  0
 24 25  1  0
 25 26  2  0
 26 27  1  0
 27 28  2  0
 28 29  1  0
 29 30  2  0
 19 31  1  0
 31 32  2  0
 10 33  2  0
 33 34  1  0
 33  6  1  0
 32 16  1  0
 30 25  1  0
  1 35  1  0
  1 36  1  0
  1 37  1  0
  7 38  1  0
  8 39  1  0
  9 40  1  0
 11 41  1  0
 11 42  1  0
 15 43  1  0
 15 44  1  0
 17 45  1  0
 18 46  1  0
 24 47  1  0
 24 48  1  0
 26 49  1  0
 27 50  1  0
 28 51  1  0
 29 52  1  0
 30 53  1  0
 31 54  1  0
 32 55  1  0
M  CHG  4   5  -1  14  -1  20  -1  34  -1
M  END
>  <UniqueID>  (2) 
2

>  <SMILES>  (2) 
CS(=O)(=O)[N-]c1cccc(CC(=O)[N-]Cc2ccc([N-]S(=O)(=O)Cc3ccccc3)cc2)c1[O-]

>  <Energy>  (2) 
57.248614848462225

>  <Genealogy>  (2) 
CS(=O)(=O)[N-]c1cccc(CC(=O)[N-]Cc2ccc([N-]S(=O)(=O)Cc3ccccc3)cc2)c1[O-] (protonated)
CS(=O)(=O)[N-]c1cccc(CC(=O)[N-]Cc2ccc([N-]S(=O)(=O)Cc3ccccc3)cc2)c1[O-] (3D coordinates assigned)
CS(=O)(=O)[N-]c1cccc(CC(=O)[N-]Cc2ccc([N-]S(=O)(=O)Cc3ccccc3)cc2)c1[O-] (optimized conformer: 57.248614848462225 kcal/mol)

>  <smiles>  (2) 
CS(=O)(=O)Nc1cccc(CC(=O)NCc2ccc(NS(=O)(=O)Cc3ccccc3)cc2)c1O

>  <score_type>  (2) 
oracle

>  <origin>  (2) 
adg

>  <m_score__min__energy>  (2) 
-17.75

>  <m_primary>  (2) 
energy

$$$$
2:0
     RDKit          3D

 60 63  0  0  0  0  0  0  0  0999 V2000
   58.1650   29.8530   47.0000 O   0  0  0  0  0  0  0  0  0  0  0  0
   59.3860   30.0750   47.2320 C   0  0  0  0  0  0  0  0  0  0  0  0
   60.3780   29.7290   46.2550 N   0  0  0  0  0  0  0  0  0  0  0  0
   60.0520   29.0100   45.0260 C   0  0  0  0  0  0  0  0  0  0  0  0
   59.1890   27.8100   45.3350 C   0  0  0  0  0  0  0  0  0  0  0  0
   59.7620   26.7370   46.0410 C   0  0  0  0  0  0  0  0  0  0  0  0
   59.0010   25.6120   46.3670 C   0  0  0  0  0  0  0  0  0  0  0  0
   57.6580   25.5450   45.9920 C   0  0  0  0  0  0  0  0  0  0  0  0
   57.0750   26.6000   45.2900 C   0  0  0  0  0  0  0  0  0  0  0  0
   57.8280   27.7340   44.9570 C   0  0  0  0  0  0  0  0  0  0  0  0
   57.0230   29.0220   44.0650 Cl  0  0  0  0  0  0  0  0  0  0  0  0
   59.7920   30.7600   48.5130 C   0  0  0  0  0  0  0  0  0  0  0  0
   58.6320   31.6180   49.0710 C   0  0  0  0  0  0  0  0  0  0  0  0
   58.5240   31.5580   50.6060 C   0  0  0  0  0  0  0  0  0  0  0  0
   59.8390   31.5480   51.2780 N   0  0  0  0  0  0  0  0  0  0  0  0
   60.6130   33.1180   51.2420 S   0  0  0  0  0  0  0  0  0  0  0  0
   61.6500   33.2170   52.3260 O   0  0  0  0  0  0  0  0  0  0  0  0
   59.5810   34.1850   51.4790 O   0  0  0  0  0  0  0  0  0  0  0  0
   61.3630   33.4100   49.6740 C   0  0  0  0  0  0  0  0  0  0  0  0
   62.6780   33.0140   49.4250 C   0  0  0  0  0  0  0  0  0  0  0  0
   63.2460   33.2450   48.1750 C   0  0  0  0  0  0  0  0  0  0  0  0
   62.4910   33.8680   47.1760 C   0  0  0  0  0  0  0  0  0  0  0  0
   63.0220   34.0790   46.0520 O   0  0  0  0  0  0  0  0  0  0  0  0
   61.1920   34.2430   47.4220 N   0  0  0  0  0  0  0  0  0  0  0  0
   60.3940   34.9260   46.3900 C   0  0  0  0  0  0  0  0  0  0  0  0
   59.2340   34.0620   45.9710 C   0  0  0  0  0  0  0  0  0  0  0  0
   58.1360   33.8880   46.8300 C   0  0  0  0  0  0  0  0  0  0  0  0
   57.0420   33.1160   46.4290 C   0  0  0  0  0  0  0  0  0  0  0  0
   57.0330   32.5170   45.1640 C   0  0  0  0  0  0  0  0  0  0  0  0
   55.9710   31.7690   44.7770 F   0  0  0  0  0  0  0  0  0  0  0  0
   58.1170   32.6930   44.3010 C   0  0  0  0  0  0  0  0  0  0  0  0
   59.2130   33.4650   44.6980 C   0  0  0  0  0  0  0  0  0  0  0  0
   60.6310   34.0240   48.6510 C   0  0  0  0  0  0  0  0  0  0  0  0
   60.7510   30.4660   50.8300 C   0  0  0  0  0  0  0  0  0  0  0  0
   60.2920   29.7450   49.5490 C   0  0  0  0  0  0  0  0  0  0  0  0
   61.3740   29.9960   46.4220 H   0  0  0  0  0  0  0  0  0  0  0  0
   59.5089   29.6821   44.3454 H   0  0  0  0  0  0  0  0  0  0  0  0
   60.9844   28.6683   44.5529 H   0  0  0  0  0  0  0  0  0  0  0  0
   60.8197   26.7842   46.3393 H   0  0  0  0  0  0  0  0  0  0  0  0
   59.4600   24.7787   46.9193 H   0  0  0  0  0  0  0  0  0  0  0  0
   57.0589   24.6594   46.2504 H   0  0  0  0  0  0  0  0  0  0  0  0
   56.0167   26.5414   44.9957 H   0  0  0  0  0  0  0  0  0  0  0  0
   60.6288   31.4375   48.2876 H   0  0  0  0  0  0  0  0  0  0  0  0
   58.7941   32.6640   48.7716 H   0  0  0  0  0  0  0  0  0  0  0  0
   57.6957   31.2135   48.6591 H   0  0  0  0  0  0  0  0  0  0  0  0
   57.9603   32.4369   50.9522 H   0  0  0  0  0  0  0  0  0  0  0  0
   58.0164   30.6166   50.8631 H   0  0  0  0  0  0  0  0  0  0  0  0
   63.2641   32.5207   50.2143 H   0  0  0  0  0  0  0  0  0  0  0  0
   64.2833   32.9391   47.9741 H   0  0  0  0  0  0  0  0  0  0  0  0
   60.0123   35.8748   46.7950 H   0  0  0  0  0  0  0  0  0  0  0  0
   61.0310   35.1198   45.5144 H   0  0  0  0  0  0  0  0  0  0  0  0
   58.1373   34.3616   47.8228 H   0  0  0  0  0  0  0  0  0  0  0  0
   56.1875   32.9791   47.1080 H   0  0  0  0  0  0  0  0  0  0  0  0
   58.1084   32.2231   43.3065 H   0  0  0  0  0  0  0  0  0  0  0  0
   60.0616   33.6058   44.0124 H   0  0  0  0  0  0  0  0  0  0  0  0
   59.5922   34.3343   48.8371 H   0  0  0  0  0  0  0  0  0  0  0  0
   61.7419   30.9053   50.6426 H   0  0  0  0  0  0  0  0  0  0  0  0
   60.7643   29.7116   51.6304 H   0  0  0  0  0  0  0  0  0  0  0  0
   61.1380   29.1830   49.1266 H   0  0  0  0  0  0  0  0  0  0  0  0
   59.4701   29.0588   49.8012 H   0  0  0  0  0  0  0  0  0  0  0  0
  1  2  2  0
  2  3  1  0
  3  4  1  0
  4  5  1  0
  5  6  2  0
  6  7  1  0
  7  8  2  0
  8  9  1  0
  9 10  2  0
 10 11  1  0
  2 12  1  0
 12 13  1  0
 13 14  1  0
 14 15  1  0
 15 16  1  0
 16 17  2  0
 16 18  2  0
 16 19  1  0
 19 20  1  0
 20 21  2  0
 21 22  1  0
 22 23  2  0
 22 24  1  0
 24 25  1  0
 25 26  1  0
 26 27  2  0
 27 28  1  0
 28 29  2  0
 29 30  1  0
 29 31  1  0
 31 32  2  0
 24 33  1  0
 15 34  1  0
 34 35  1  0
 10  5  1  0
 35 12  1  0
 33 19  2  0
 32 26  1  0
  3 36  1  0
  4 37  1  0
  4 38  1  0
  6 39  1  0
  7 40  1  0
  8 41  1  0
  9 42  1  0
 12 43  1  0
 13 44  1  0
 13 45  1  0
 14 46  1  0
 14 47  1  0
 20 48  1  0
 21 49  1  0
 25 50  1  0
 25 51  1  0
 27 52  1  0
 28 53  1  0
 31 54  1  0
 32 55  1  0
 33 56  1  0
 34 57  1  0
 34 58  1  0
 35 59  1  0
 35 60  1  0
M  END
>  <UniqueID>  (3) 
3

>  <SMILES>  (3) 
O=C(NCc1ccccc1Cl)C1CCN(S(=O)(=O)c2ccc(=O)n(Cc3ccc(F)cc3)c2)CC1

>  <Energy>  (3) 
71.68246752531697

>  <Genealogy>  (3) 
O=C(NCc1ccccc1Cl)C1CCN(S(=O)(=O)c2ccc(=O)n(Cc3ccc(F)cc3)c2)CC1 (3D coordinates assigned)
O=C(NCc1ccccc1Cl)C1CCN(S(=O)(=O)c2ccc(=O)n(Cc3ccc(F)cc3)c2)CC1 (nonaromatic ring conformer: 71.68246752531697 kcal/mol)

>  <smiles>  (3) 
O=C(NCc1ccccc1Cl)C1CCN(S(=O)(=O)c2ccc(=O)n(Cc3ccc(F)cc3)c2)CC1

>  <score_type>  (3) 
oracle

>  <origin>  (3) 
adg

>  <m_score__min__energy>  (3) 
-9.8300000000000001

>  <m_primary>  (3) 
energy

$$$$
3:0
     RDKit          3D

 49 51  0  0  0  0  0  0  0  0999 V2000
   56.2100   28.1890   45.6000 O   0  0  0  0  0  0  0  0  0  0  0  0
   56.4910   26.9750   45.7970 C   0  0  0  0  0  0  0  0  0  0  0  0
   57.8330   26.4510   45.3910 C   0  0  0  0  0  0  0  0  0  0  0  0
   58.5180   27.4100   44.5090 N   0  0  0  0  0  0  0  0  0  0  0  0
   59.7740   28.0320   44.9660 C   0  0  0  0  0  0  0  0  0  0  0  0
   59.6800   28.4540   46.4100 C   0  0  0  0  0  0  0  0  0  0  0  0
   60.2210   27.6420   47.4240 C   0  0  0  0  0  0  0  0  0  0  0  0
   60.1210   28.0260   48.7640 C   0  0  0  0  0  0  0  0  0  0  0  0
   59.5000   29.2310   49.1030 C   0  0  0  0  0  0  0  0  0  0  0  0
   59.3990   29.5980   50.4040 F   0  0  0  0  0  0  0  0  0  0  0  0
   58.9850   30.0580   48.1010 C   0  0  0  0  0  0  0  0  0  0  0  0
   59.0760   29.6750   46.7590 C   0  0  0  0  0  0  0  0  0  0  0  0
   57.9280   27.7210   43.2200 C   0  0  0  0  0  0  0  0  0  0  0  0
   58.1600   26.9710   42.2310 O   0  0  0  0  0  0  0  0  0  0  0  0
   57.0240   28.9050   43.0060 C   0  0  0  0  0  0  0  0  0  0  0  0
   57.6610   30.1420   43.4540 N   0  0  0  0  0  0  0  0  0  0  0  0
   57.0460   31.0320   44.4020 C   0  0  0  0  0  0  0  0  0  0  0  0
   55.8880   30.7810   44.8370 O   0  0  0  0  0  0  0  0  0  0  0  0
   57.7360   32.2590   44.8530 C   0  0  0  0  0  0  0  0  0  0  0  0
   58.4870   33.1010   44.0130 C   0  0  0  0  0  0  0  0  0  0  0  0
   59.0070   34.2140   44.6580 C   0  0  0  0  0  0  0  0  0  0  0  0
   58.5410   34.1490   46.2710 S   0  0  0  0  0  0  0  0  0  0  0  0
   57.6820   32.7100   46.1720 C   0  0  0  0  0  0  0  0  0  0  0  0
   55.5230   26.0910   46.3700 N   0  0  0  0  0  0  0  0  0  0  0  0
   54.8270   25.0770   45.5920 C   0  0  0  0  0  0  0  0  0  0  0  0
   55.8070   24.0700   45.0850 C   0  0  0  0  0  0  0  0  0  0  0  0
   55.9980   23.7320   43.7620 C   0  0  0  0  0  0  0  0  0  0  0  0
   57.0250   22.8130   43.7610 C   0  0  0  0  0  0  0  0  0  0  0  0
   57.3930   22.6460   45.0810 C   0  0  0  0  0  0  0  0  0  0  0  0
   56.6510   23.4120   45.8470 O   0  0  0  0  0  0  0  0  0  0  0  0
   58.4443   26.2867   46.2906 H   0  0  0  0  0  0  0  0  0  0  0  0
   57.6948   25.5049   44.8471 H   0  0  0  0  0  0  0  0  0  0  0  0
   60.5939   27.3068   44.8569 H   0  0  0  0  0  0  0  0  0  0  0  0
   59.9626   28.9261   44.3536 H   0  0  0  0  0  0  0  0  0  0  0  0
   60.7251   26.7004   47.1606 H   0  0  0  0  0  0  0  0  0  0  0  0
   60.5317   27.3788   49.5529 H   0  0  0  0  0  0  0  0  0  0  0  0
   58.5071   31.0120   48.3684 H   0  0  0  0  0  0  0  0  0  0  0  0
   58.6735   30.3314   45.9734 H   0  0  0  0  0  0  0  0  0  0  0  0
   56.7900   28.9892   41.9345 H   0  0  0  0  0  0  0  0  0  0  0  0
   56.1055   28.7533   43.5919 H   0  0  0  0  0  0  0  0  0  0  0  0
   58.5530   30.4180   42.9880 H   0  0  0  0  0  0  0  0  0  0  0  0
   58.6471   32.8961   42.9442 H   0  0  0  0  0  0  0  0  0  0  0  0
   59.6182   35.0021   44.1939 H   0  0  0  0  0  0  0  0  0  0  0  0
   57.1655   32.2090   47.0040 H   0  0  0  0  0  0  0  0  0  0  0  0
   54.0830   24.5750   46.2280 H   0  0  0  0  0  0  0  0  0  0  0  0
   54.3222   25.5550   44.7395 H   0  0  0  0  0  0  0  0  0  0  0  0
   55.4467   24.1152   42.8907 H   0  0  0  0  0  0  0  0  0  0  0  0
   57.4633   22.3131   42.8847 H   0  0  0  0  0  0  0  0  0  0  0  0
   58.1872   21.9734   45.4370 H   0  0  0  0  0  0  0  0  0  0  0  0
  1  2  2  0
  2  3  1  0
  3  4  1  0
  4  5  1  0
  5  6  1  0
  6  7  2  0
  7  8  1  0
  8  9  2  0
  9 10  1  0
  9 11  1  0
 11 12  2  0
  4 13  1  0
 13 14  2  0
 13 15  1  0
 15 16  1  0
 16 17  1  0
 17 18  2  0
 17 19  1  0
 19 20  1  0
 20 21  2  0
 21 22  1  0
 22 23  1  0
  2 24  1  0
 24 25  1  0
 25 26  1  0
 26 27  2  0
 27 28  1  0
 28 29  2  0
 29 30  1  0
 12  6  1  0
 23 19  2  0
 30 26  1  0
  3 31  1  0
  3 32  1  0
  5 33  1  0
  5 34  1  0
  7 35  1  0
  8 36  1  0
 11 37  1  0
 12 38  1  0
 15 39  1  0
 15 40  1  0
 16 41  1  0
 20 42  1  0
 21 43  1  0
 23 44  1  0
 25 45  1  0
 25 46  1  0
 27 47  1  0
 28 48  1  0
 29 49  1  0
M  CHG  1  24  -1
M  END
>  <UniqueID>  (4) 
4

>  <SMILES>  (4) 
O=C(CN(Cc1ccc(F)cc1)C(=O)CNC(=O)c1ccsc1)[N-]Cc1ccco1

>  <Energy>  (4) 
90.52161908566059

>  <Genealogy>  (4) 
O=C(CN(Cc1ccc(F)cc1)C(=O)CNC(=O)c1ccsc1)[N-]Cc1ccco1 (protonated)
O=C(CN(Cc1ccc(F)cc1)C(=O)CNC(=O)c1ccsc1)[N-]Cc1ccco1 (3D coordinates assigned)
O=C(CN(Cc1ccc(F)cc1)C(=O)CNC(=O)c1ccsc1)[N-]Cc1ccco1 (optimized conformer: 90.52161908566059 kcal/mol)

>  <smiles>  (4) 
O=C(CN(Cc1ccc(F)cc1)C(=O)CNC(=O)c1ccsc1)NCc1ccco1

>  <score_type>  (4) 
oracle

>  <origin>  (4) 
adg

>  <m_score__min__energy>  (4) 
-10.32

>  <m_primary>  (4) 
energy

$$$$
4:0
     RDKit          3D

 52 55  0  0  0  0  0  0  0  0999 V2000
   56.5390   22.3700   48.1700 H   0  0  0  0  0  0  0  0  0  0  0  0
   57.3720   22.6850   47.6880 O   0  0  0  0  0  0  0  0  0  0  0  0
   57.3070   23.6250   46.6610 C   0  0  0  0  0  0  0  0  0  0  0  0
   57.5000   23.2390   45.3270 C   0  0  0  0  0  0  0  0  0  0  0  0
   57.7216   22.1891   45.0851 H   0  0  0  0  0  0  0  0  0  0  0  0
   57.4110   24.1870   44.3050 C   0  0  0  0  0  0  0  0  0  0  0  0
   57.5537   23.8807   43.2582 H   0  0  0  0  0  0  0  0  0  0  0  0
   57.1410   25.5240   44.6100 C   0  0  0  0  0  0  0  0  0  0  0  0
   57.0560   26.2630   43.7996 H   0  0  0  0  0  0  0  0  0  0  0  0
   56.9780   25.9290   45.9410 C   0  0  0  0  0  0  0  0  0  0  0  0
   56.6730   27.3070   46.2090 N   0  0  0  0  0  0  0  0  0  0  0  0
   56.7960   28.3130   45.3890 C   0  0  0  0  0  0  0  0  0  0  0  0
   55.6920   28.9490   44.8980 N   0  0  0  0  0  0  0  0  0  0  0  0
   55.7810   30.0370   44.0910 C   0  0  0  0  0  0  0  0  0  0  0  0
   54.8661   30.5141   43.7098 H   0  0  0  0  0  0  0  0  0  0  0  0
   57.0280   30.5500   43.7450 C   0  0  0  0  0  0  0  0  0  0  0  0
   57.1050   31.4318   43.0919 H   0  0  0  0  0  0  0  0  0  0  0  0
   58.1790   29.9330   44.2360 C   0  0  0  0  0  0  0  0  0  0  0  0
   59.1694   30.3315   43.9707 H   0  0  0  0  0  0  0  0  0  0  0  0
   58.0790   28.8060   45.0670 C   0  0  0  0  0  0  0  0  0  0  0  0
   59.3130   28.1760   45.5970 C   0  0  0  0  0  0  0  0  0  0  0  0
   59.6060   27.0010   45.2510 O   0  0  0  0  0  0  0  0  0  0  0  0
   60.2170   28.8890   46.4520 N   0  0  0  0  0  0  0  0  0  0  0  0
   59.8490   29.8240   47.4780 C   0  0  0  0  0  0  0  0  0  0  0  0
   59.2480   29.3440   48.6470 C   0  0  0  0  0  0  0  0  0  0  0  0
   59.0802   28.2641   48.7722 H   0  0  0  0  0  0  0  0  0  0  0  0
   58.8600   30.2290   49.6560 C   0  0  0  0  0  0  0  0  0  0  0  0
   58.3987   29.8434   50.5771 H   0  0  0  0  0  0  0  0  0  0  0  0
   59.0570   31.6030   49.4970 C   0  0  0  0  0  0  0  0  0  0  0  0
   58.7583   32.2960   50.2973 H   0  0  0  0  0  0  0  0  0  0  0  0
   59.6340   32.1010   48.3210 C   0  0  0  0  0  0  0  0  0  0  0  0
   59.8710   33.8380   48.1070 S   0  0  0  0  0  0  0  0  0  0  0  0
   59.6680   34.5320   49.4250 O   0  0  0  0  0  0  0  0  0  0  0  0
   61.2870   34.0900   47.6630 O   0  0  0  0  0  0  0  0  0  0  0  0
   58.7640   34.5050   46.9290 N   0  0  0  0  0  0  0  0  0  0  0  0
   57.6800   33.5460   46.6420 C   0  0  0  0  0  0  0  0  0  0  0  0
   58.0978   32.5292   46.6034 H   0  0  0  0  0  0  0  0  0  0  0  0
   56.9239   33.6169   47.4378 H   0  0  0  0  0  0  0  0  0  0  0  0
   57.0130   33.8700   45.2940 C   0  0  0  0  0  0  0  0  0  0  0  0
   56.2071   33.1411   45.1233 H   0  0  0  0  0  0  0  0  0  0  0  0
   56.6432   34.9037   45.3634 H   0  0  0  0  0  0  0  0  0  0  0  0
   57.8990   33.8250   44.1820 O   0  0  0  0  0  0  0  0  0  0  0  0
   59.2650   34.0090   44.5270 C   0  0  0  0  0  0  0  0  0  0  0  0
   59.6933   33.0312   44.7925 H   0  0  0  0  0  0  0  0  0  0  0  0
   59.7650   34.4562   43.6552 H   0  0  0  0  0  0  0  0  0  0  0  0
   59.4670   34.9700   45.7130 C   0  0  0  0  0  0  0  0  0  0  0  0
   60.5426   35.0439   45.9310 H   0  0  0  0  0  0  0  0  0  0  0  0
   59.0498   35.9484   45.4325 H   0  0  0  0  0  0  0  0  0  0  0  0
   60.0220   31.2100   47.3120 C   0  0  0  0  0  0  0  0  0  0  0  0
   60.4654   31.5972   46.3828 H   0  0  0  0  0  0  0  0  0  0  0  0
   57.0380   24.9640   46.9660 C   0  0  0  0  0  0  0  0  0  0  0  0
   56.8726   25.2647   48.0111 H   0  0  0  0  0  0  0  0  0  0  0  0
  1  2  1  0
  2  3  1  0
  3  4  2  0
  4  5  1  0
  4  6  1  0
  6  7  1  0
  6  8  2  0
  8  9  1  0
  8 10  1  0
 10 11  1  0
 11 12  2  0
 12 13  1  0
 13 14  1  0
 14 15  1  0
 14 16  2  0
 16 17  1  0
 16 18  1  0
 18 19  1  0
 18 20  2  0
 20 21  1  0
 21 22  2  0
 21 23  1  0
 23 24  1  0
 24 25  2  0
 25 26  1  0
 25 27  1  0
 27 28  1  0
 27 29  2  0
 29 30  1  0
 29 31  1  0
 31 32  1  0
 32 33  2  0
 32 34  2  0
 32 35  1  0
 35 36  1  0
 36 37  1  0
 36 38  1  0
 36 39  1  0
 39 40  1  0
 39 41  1  0
 39 42  1  0
 42 43  1  0
 43 44  1  0
 43 45  1  0
 43 46  1  0
 46 47  1  0
 46 48  1  0
 31 49  2  0
 49 50  1  0
 10 51  2  0
 51 52  1  0
 51  3  1  0
 20 12  1  0
 49 24  1  0
 46 35  1  0
M  CHG  2  13  -1  23  -1
M  END
>  <UniqueID>  (5) 
5

>  <SMILES>  (5) 
O=C([N-]c1cccc(S(=O)(=O)N2CCOCC2)c1)c1ccc[n-]/c1=N\c1cccc(O)c1

>  <Energy>  (5) 
81.65698848369851

>  <Genealogy>  (5) 
O=C([N-]c1cccc(S(=O)(=O)N2CCOCC2)c1)c1ccc[n-]c1=Nc1cccc(O)c1 (protonated)
O=C([N-]c1cccc(S(=O)(=O)N2CCOCC2)c1)c1ccc[n-]/c1=N\c1cccc(O)c1 (cis-trans isomerization)
O=C([N-]c1cccc(S(=O)(=O)N2CCOCC2)c1)c1ccc[n-]/c1=N\c1cccc(O)c1 (3D coordinates assigned)
O=C([N-]c1cccc(S(=O)(=O)N2CCOCC2)c1)c1ccc[n-]/c1=N\c1cccc(O)c1 (nonaromatic ring conformer: 81.65698848369851 kcal/mol)

>  <smiles>  (5) 
O=C(Nc1cccc(S(=O)(=O)N2CCOCC2)c1)c1ccc[nH]c1=Nc1cccc(O)c1

>  <score_type>  (5) 
oracle

>  <origin>  (5) 
adg

>  <m_score__min__energy>  (5) 
-12.470000000000001

>  <m_primary>  (5) 
energy

$$$$
5:0
     RDKit          3D

 51 54  0  0  0  0  0  0  0  0999 V2000
   61.1410   29.4510   50.0090 N   0  0  0  0  0  0  0  0  0  0  0  0
   60.2850   28.7220   49.1290 C   0  0  0  0  0  0  0  0  0  0  0  0
   60.2270   27.4670   49.2210 O   0  0  0  0  0  0  0  0  0  0  0  0
   59.4930   29.4190   48.0970 C   0  0  0  0  0  0  0  0  0  0  0  0
   58.9660   30.7050   48.1540 C   0  0  0  0  0  0  0  0  0  0  0  0
   58.9570   31.6360   49.3020 C   0  0  0  0  0  0  0  0  0  0  0  0
   59.6580   32.8490   49.2130 C   0  0  0  0  0  0  0  0  0  0  0  0
   59.6450   33.7520   50.2800 C   0  0  0  0  0  0  0  0  0  0  0  0
   58.9200   33.4580   51.4380 C   0  0  0  0  0  0  0  0  0  0  0  0
   58.9070   34.3360   52.4710 F   0  0  0  0  0  0  0  0  0  0  0  0
   58.2000   32.2640   51.5250 C   0  0  0  0  0  0  0  0  0  0  0  0
   58.2110   31.3580   50.4600 C   0  0  0  0  0  0  0  0  0  0  0  0
   58.4200   31.0050   46.9980 O   0  0  0  0  0  0  0  0  0  0  0  0
   58.5380   29.9880   46.1750 C   0  0  0  0  0  0  0  0  0  0  0  0
   57.9870   30.0400   44.7680 C   0  0  0  0  0  0  0  0  0  0  0  0
   56.4640   29.8300   44.7280 C   0  0  0  0  0  0  0  0  0  0  0  0
   55.9430   29.7910   43.2730 C   0  0  0  0  0  0  0  0  0  0  0  0
   56.7620   30.5720   42.3230 N   0  0  0  0  0  0  0  0  0  0  0  0
   57.3900   31.7400   42.9530 C   0  0  0  0  0  0  0  0  0  0  0  0
   58.4260   31.3140   44.0090 C   0  0  0  0  0  0  0  0  0  0  0  0
   59.2150   28.9500   46.8190 C   0  0  0  0  0  0  0  0  0  0  0  0
   59.6450   27.6180   46.2500 C   0  0  0  0  0  0  0  0  0  0  0  0
   58.4830   26.6610   46.1180 C   0  0  0  0  0  0  0  0  0  0  0  0
   58.7160   25.2770   46.0470 C   0  0  0  0  0  0  0  0  0  0  0  0
   57.6460   24.3830   45.9440 C   0  0  0  0  0  0  0  0  0  0  0  0
   56.3340   24.8620   45.9220 C   0  0  0  0  0  0  0  0  0  0  0  0
   56.0880   26.2350   46.0090 C   0  0  0  0  0  0  0  0  0  0  0  0
   54.7820   26.7100   45.9910 O   0  0  0  0  0  0  0  0  0  0  0  0
   57.1560   27.1320   46.1120 C   0  0  0  0  0  0  0  0  0  0  0  0
   61.2870   30.4770   49.8880 H   0  0  0  0  0  0  0  0  0  0  0  0
   61.6750   28.9520   50.7550 H   0  0  0  0  0  0  0  0  0  0  0  0
   60.2204   33.0901   48.2989 H   0  0  0  0  0  0  0  0  0  0  0  0
   60.2062   34.6953   50.2080 H   0  0  0  0  0  0  0  0  0  0  0  0
   57.6231   32.0360   52.4334 H   0  0  0  0  0  0  0  0  0  0  0  0
   57.6336   30.4243   50.5289 H   0  0  0  0  0  0  0  0  0  0  0  0
   58.4321   29.1904   44.2294 H   0  0  0  0  0  0  0  0  0  0  0  0
   56.2200   28.8780   45.2221 H   0  0  0  0  0  0  0  0  0  0  0  0
   55.9826   30.6714   45.2479 H   0  0  0  0  0  0  0  0  0  0  0  0
   55.9287   28.7433   42.9381 H   0  0  0  0  0  0  0  0  0  0  0  0
   54.9414   30.2456   43.2801 H   0  0  0  0  0  0  0  0  0  0  0  0
   57.5140   29.9560   41.9320 H   0  0  0  0  0  0  0  0  0  0  0  0
   57.8923   32.3384   42.1787 H   0  0  0  0  0  0  0  0  0  0  0  0
   56.6067   32.3295   43.4519 H   0  0  0  0  0  0  0  0  0  0  0  0
   59.3845   31.1161   43.5069 H   0  0  0  0  0  0  0  0  0  0  0  0
   58.5219   32.1300   44.7404 H   0  0  0  0  0  0  0  0  0  0  0  0
   60.0859   27.7816   45.2556 H   0  0  0  0  0  0  0  0  0  0  0  0
   60.3772   27.1727   46.9396 H   0  0  0  0  0  0  0  0  0  0  0  0
   59.7470   24.8945   46.0726 H   0  0  0  0  0  0  0  0  0  0  0  0
   57.8375   23.3017   45.8802 H   0  0  0  0  0  0  0  0  0  0  0  0
   55.4934   24.1577   45.8361 H   0  0  0  0  0  0  0  0  0  0  0  0
   56.9583   28.2114   46.1887 H   0  0  0  0  0  0  0  0  0  0  0  0
  1  2  1  0
  2  3  2  0
  2  4  1  0
  4  5  2  0
  5  6  1  0
  6  7  2  0
  7  8  1  0
  8  9  2  0
  9 10  1  0
  9 11  1  0
 11 12  2  0
  5 13  1  0
 13 14  1  0
 14 15  1  0
 15 16  1  0
 16 17  1  0
 17 18  1  0
 18 19  1  0
 19 20  1  0
 14 21  2  0
 21 22  1  0
 22 23  1  0
 23 24  2  0
 24 25  1  0
 25 26  2  0
 26 27  1  0
 27 28  1  0
 27 29  2  0
 21  4  1  0
 29 23  1  0
 12  6  1  0
 20 15  1  0
  1 30  1  0
  1 31  1  0
  7 32  1  0
  8 33  1  0
 11 34  1  0
 12 35  1  0
 15 36  1  0
 16 37  1  0
 16 38  1  0
 17 39  1  0
 17 40  1  0
 18 41  1  0
 19 42  1  0
 19 43  1  0
 20 44  1  0
 20 45  1  0
 22 46  1  0
 22 47  1  0
 24 48  1  0
 25 49  1  0
 26 50  1  0
 29 51  1  0
M  CHG  1  28  -1
M  END
>  <UniqueID>  (6) 
6

>  <SMILES>  (6) 
NC(=O)c1c(-c2ccc(F)cc2)oc(C2CCNCC2)c1Cc1cccc([O-])c1

>  <Energy>  (6) 
91.7713007199331

>  <Genealogy>  (6) 
NC(=O)c1c(-c2ccc(F)cc2)oc(C2CCNCC2)c1Cc1cccc([O-])c1 (protonated)
NC(=O)c1c(-c2ccc(F)cc2)oc(C2CCNCC2)c1Cc1cccc([O-])c1 (3D coordinates assigned)
NC(=O)c1c(-c2ccc(F)cc2)oc(C2CCNCC2)c1Cc1cccc([O-])c1 (nonaromatic ring conformer: 91.7713007199331 kcal/mol)

>  <smiles>  (6) 
NC(=O)c1c(-c2ccc(F)cc2)oc(C2CCNCC2)c1Cc1cccc(O)c1

>  <score_type>  (6) 
oracle

>  <origin>  (6) 
adg

>  <m_score__min__energy>  (6) 
-12.43

>  <m_primary>  (6) 
energy

$$$$
6:0
     RDKit          3D

 57 60  0  0  1  0  0  0  0  0999 V2000
   62.4500   34.0890   49.1950 C   0  0  0  0  0  0  0  0  0  0  0  0
   61.1740   34.6070   48.8820 O   0  0  0  0  0  0  0  0  0  0  0  0
   60.3140   34.0330   47.9540 C   0  0  0  0  0  0  0  0  0  0  0  0
   60.5110   34.2550   46.5990 C   0  0  0  0  0  0  0  0  0  0  0  0
   59.6210   33.6560   45.7150 C   0  0  0  0  0  0  0  0  0  0  0  0
   58.5920   32.8780   46.1990 C   0  0  0  0  0  0  0  0  0  0  0  0
   57.6160   32.2200   45.3110 C   0  0  0  0  0  0  0  0  0  0  0  0
   56.4990   32.7350   45.2180 O   0  0  0  0  0  0  0  0  0  0  0  0
   58.0630   31.0520   44.6460 N   0  0  0  0  0  0  0  0  0  0  0  0
   57.9870   29.9020   45.1800 C   0  0  0  0  0  0  0  0  0  0  0  0
   57.0160   28.9490   45.0940 C   0  0  0  0  0  0  0  0  0  0  0  0
   57.3960   27.8630   45.8560 C   0  0  0  0  0  0  0  0  0  0  0  0
   56.6210   26.6320   46.0190 C   0  0  0  0  0  0  0  0  0  0  0  0
   55.3670   26.6940   46.0040 O   0  0  0  0  0  0  0  0  0  0  0  0
   57.3510   25.4270   46.1860 N   0  0  0  0  0  0  0  0  0  0  0  0
   56.7330   24.1270   46.3570 C   0  0  0  0  0  0  0  0  0  0  0  0
   56.7630   23.2940   45.1450 C   0  0  0  0  0  0  0  0  0  0  0  0
   55.9180   23.6520   44.1060 C   0  0  0  0  0  0  0  0  0  0  0  0
   55.8540   22.9540   42.9180 C   0  0  0  0  0  0  0  0  0  0  0  0
   56.6690   21.8480   42.7510 C   0  0  0  0  0  0  0  0  0  0  0  0
   57.5170   21.4760   43.7740 C   0  0  0  0  0  0  0  0  0  0  0  0
   57.5700   22.1920   44.9690 C   0  0  0  0  0  0  0  0  0  0  0  0
   58.5810   28.1800   46.3810 N   0  0  0  0  0  0  0  0  0  0  0  0
   58.9390   29.3890   45.9840 N   0  0  0  0  0  0  0  0  0  0  0  0
   60.1830   30.0710   46.3620 C   0  0  0  0  0  0  0  0  0  0  0  0
   58.3950   32.6550   47.5580 C   0  0  0  0  0  0  0  0  0  0  0  0
   59.2840   33.2540   48.4380 C   0  0  0  0  0  0  0  0  0  0  0  0
   59.1370   33.0640   49.8770 C   0  0  0  0  0  0  0  0  0  0  0  0
   58.8450   31.8880   50.5330 C   0  0  0  0  0  0  0  0  0  0  0  0
   58.7940   32.1140   51.8400 N   0  0  0  0  0  0  0  0  0  0  0  0
   59.0490   33.4190   52.0490 C   0  0  0  0  0  0  0  0  0  0  0  0
   59.1020   34.1560   53.3590 C   0  0  0  0  0  0  0  0  0  0  0  0
   59.2600   34.0030   50.8450 N   0  0  0  0  0  0  0  0  0  0  0  0
   62.5683   34.0410   50.2876 H   0  0  0  0  0  0  0  0  0  0  0  0
   62.5499   33.0791   48.7706 H   0  0  0  0  0  0  0  0  0  0  0  0
   63.2256   34.7435   48.7706 H   0  0  0  0  0  0  0  0  0  0  0  0
   61.3400   34.8813   46.2377 H   0  0  0  0  0  0  0  0  0  0  0  0
   59.7380   33.8028   44.6311 H   0  0  0  0  0  0  0  0  0  0  0  0
   56.0850   29.0318   44.5140 H   0  0  0  0  0  0  0  0  0  0  0  0
   58.4050   25.4500   46.1900 H   0  0  0  0  0  0  0  0  0  0  0  0
   57.2639   23.5928   47.1587 H   0  0  0  0  0  0  0  0  0  0  0  0
   55.6747   24.3036   46.5996 H   0  0  0  0  0  0  0  0  0  0  0  0
   55.2700   24.5315   44.2346 H   0  0  0  0  0  0  0  0  0  0  0  0
   55.1681   23.2705   42.1184 H   0  0  0  0  0  0  0  0  0  0  0  0
   56.6411   21.2724   41.8140 H   0  0  0  0  0  0  0  0  0  0  0  0
   58.1645   20.5964   43.6439 H   0  0  0  0  0  0  0  0  0  0  0  0
   58.2552   21.8773   45.7699 H   0  0  0  0  0  0  0  0  0  0  0  0
   59.1300   27.5610   47.0070 H   0  0  0  0  0  0  0  0  0  0  0  0
   60.2595   30.1130   47.4585 H   0  0  0  0  0  0  0  0  0  0  0  0
   61.0425   29.5179   45.9553 H   0  0  0  0  0  0  0  0  0  0  0  0
   60.1790   31.0931   45.9553 H   0  0  0  0  0  0  0  0  0  0  0  0
   57.5668   32.0283   47.9203 H   0  0  0  0  0  0  0  0  0  0  0  0
   58.6799   30.9140   50.0492 H   0  0  0  0  0  0  0  0  0  0  0  0
   58.5920   31.4120   52.5840 H   0  0  0  0  0  0  0  0  0  0  0  0
   59.0501   33.4347   54.1879 H   0  0  0  0  0  0  0  0  0  0  0  0
   60.0432   34.7217   53.4236 H   0  0  0  0  0  0  0  0  0  0  0  0
   58.2515   34.8506   53.4236 H   0  0  0  0  0  0  0  0  0  0  0  0
  1  2  1  0
  2  3  1  0
  3  4  2  0
  4  5  1  0
  5  6  2  0
  6  7  1  0
  7  8  2  0
  7  9  1  0
  9 10  2  0
 10 11  1  0
 11 12  2  0
 12 13  1  0
 13 14  2  0
 13 15  1  0
 15 16  1  0
 16 17  1  0
 17 18  2  0
 18 19  1  0
 19 20  2  0
 20 21  1  0
 21 22  2  0
 12 23  1  0
 23 24  1  0
 24 25  1  0
  6 26  1  0
 26 27  2  0
 27 28  1  0
 28 29  2  0
 29 30  1  0
 30 31  1  0
 31 32  1  0
 31 33  2  0
 27  3  1  0
 33 28  1  0
 24 10  1  0
 22 17  1  0
  1 34  1  0
  1 35  1  0
  1 36  1  0
  4 37  1  0
  5 38  1  0
 11 39  1  0
 15 40  1  0
 16 41  1  0
 16 42  1  0
 18 43  1  0
 19 44  1  0
 20 45  1  0
 21 46  1  0
 22 47  1  0
 23 48  1  0
 25 49  1  0
 25 50  1  0
 25 51  1  0
 26 52  1  0
 29 53  1  0
 30 54  1  0
 32 55  1  0
 32 56  1  0
 32 57  1  0
M  END
>  <smiles>  (7) 
COc1ccc(C(=O)N=c2cc(C(=O)NCc3ccccc3)[nH]n2C)cc1-c1c[nH]c(C)n1

>  <score_type>  (7) 
oracle

>  <origin>  (7) 
adg

>  <m_score__min__energy>  (7) 
-9.2799999999999994

>  <m_primary>  (7) 
energy

$$$$
7:0
     RDKit          3D

 47 49  0  0  0  0  0  0  0  0999 V2000
   57.3670   21.2000   43.3700 C   0  0  0  0  0  0  0  0  0  0  0  0
   57.3300   21.7520   44.6830 O   0  0  0  0  0  0  0  0  0  0  0  0
   56.8210   23.0210   44.9970 C   0  0  0  0  0  0  0  0  0  0  0  0
   55.5020   23.1150   45.4510 C   0  0  0  0  0  0  0  0  0  0  0  0
   54.9520   24.3550   45.7800 C   0  0  0  0  0  0  0  0  0  0  0  0
   55.7170   25.5190   45.6640 C   0  0  0  0  0  0  0  0  0  0  0  0
   55.1440   26.7430   45.9940 O   0  0  0  0  0  0  0  0  0  0  0  0
   57.0480   25.4470   45.2120 C   0  0  0  0  0  0  0  0  0  0  0  0
   57.8950   26.6990   45.0940 C   0  0  0  0  0  0  0  0  0  0  0  0
   57.0750   27.9050   44.8160 N   0  0  0  0  0  0  0  0  0  0  0  0
   57.3940   28.4290   43.4630 C   0  0  0  0  0  0  0  0  0  0  0  0
   57.0100   29.9070   43.3290 C   0  0  0  0  0  0  0  0  0  0  0  0
   57.7990   30.7590   44.2560 N   0  0  0  0  0  0  0  0  0  0  0  0
   57.0890   32.0160   44.5710 C   0  0  0  0  0  0  0  0  0  0  0  0
   57.9450   32.9220   45.4060 C   0  0  0  0  0  0  0  0  0  0  0  0
   58.7110   33.9780   44.9280 C   0  0  0  0  0  0  0  0  0  0  0  0
   59.4060   34.6550   45.9380 C   0  0  0  0  0  0  0  0  0  0  0  0
   59.1690   34.1370   47.2060 C   0  0  0  0  0  0  0  0  0  0  0  0
   59.8230   34.5980   48.4650 C   0  0  0  0  0  0  0  0  0  0  0  0
   58.1230   32.8260   47.0750 S   0  0  0  0  0  0  0  0  0  0  0  0
   58.2130   30.0490   45.4920 C   0  0  0  0  0  0  0  0  0  0  0  0
   57.2230   28.9380   45.8830 C   0  0  0  0  0  0  0  0  0  0  0  0
   57.5910   24.1940   44.8720 C   0  0  0  0  0  0  0  0  0  0  0  0
   57.4404   20.1044   43.4348 H   0  0  0  0  0  0  0  0  0  0  0  0
   56.4484   21.4747   42.8308 H   0  0  0  0  0  0  0  0  0  0  0  0
   58.2407   21.5948   42.8308 H   0  0  0  0  0  0  0  0  0  0  0  0
   54.8928   22.2044   45.5497 H   0  0  0  0  0  0  0  0  0  0  0  0
   53.9117   24.4164   46.1322 H   0  0  0  0  0  0  0  0  0  0  0  0
   58.4384   26.8497   46.0385 H   0  0  0  0  0  0  0  0  0  0  0  0
   58.5887   26.5600   44.2517 H   0  0  0  0  0  0  0  0  0  0  0  0
   56.0670   27.6190   44.7970 H   0  0  0  0  0  0  0  0  0  0  0  0
   58.4741   28.3225   43.2838 H   0  0  0  0  0  0  0  0  0  0  0  0
   56.8163   27.8536   42.7246 H   0  0  0  0  0  0  0  0  0  0  0  0
   57.1982   30.2333   42.2955 H   0  0  0  0  0  0  0  0  0  0  0  0
   55.9452   30.0122   43.5841 H   0  0  0  0  0  0  0  0  0  0  0  0
   56.8314   32.5286   43.6324 H   0  0  0  0  0  0  0  0  0  0  0  0
   56.1791   31.7718   45.1389 H   0  0  0  0  0  0  0  0  0  0  0  0
   58.7660   34.2542   43.8647 H   0  0  0  0  0  0  0  0  0  0  0  0
   60.0717   35.5097   45.7473 H   0  0  0  0  0  0  0  0  0  0  0  0
   59.2683   34.2070   49.3307 H   0  0  0  0  0  0  0  0  0  0  0  0
   60.8589   34.2294   48.4963 H   0  0  0  0  0  0  0  0  0  0  0  0
   59.8240   35.6976   48.4963 H   0  0  0  0  0  0  0  0  0  0  0  0
   59.2033   29.5993   45.3275 H   0  0  0  0  0  0  0  0  0  0  0  0
   58.2378   30.7829   46.3110 H   0  0  0  0  0  0  0  0  0  0  0  0
   57.5847   28.4494   46.7997 H   0  0  0  0  0  0  0  0  0  0  0  0
   56.2388   29.4050   46.0359 H   0  0  0  0  0  0  0  0  0  0  0  0
   58.6261   24.1300   44.5053 H   0  0  0  0  0  0  0  0  0  0  0  0
  1  2  1  0
  2  3  1  0
  3  4  2  0
  4  5  1  0
  5  6  2  0
  6  7  1  0
  6  8  1  0
  8  9  1  0
  9 10  1  0
 10 11  1  0
 11 12  1  0
 12 13  1  0
 13 14  1  0
 14 15  1  0
 15 16  2  0
 16 17  1  0
 17 18  2  0
 18 19  1  0
 18 20  1  0
 13 21  1  0
 21 22  1  0
  8 23  2  0
 23  3  1  0
 22 10  1  0
 20 15  1  0
  1 24  1  0
  1 25  1  0
  1 26  1  0
  4 27  1  0
  5 28  1  0
  9 29  1  0
  9 30  1  0
 10 31  1  0
 11 32  1  0
 11 33  1  0
 12 34  1  0
 12 35  1  0
 14 36  1  0
 14 37  1  0
 16 38  1  0
 17 39  1  0
 19 40  1  0
 19 41  1  0
 19 42  1  0
 21 43  1  0
 21 44  1  0
 22 45  1  0
 22 46  1  0
 23 47  1  0
M  CHG  2   7  -1  10   1
M  END
>  <UniqueID>  (8) 
7

>  <SMILES>  (8) 
COc1ccc([O-])c(C[NH+]2CCN(Cc3ccc(C)s3)CC2)c1

>  <Energy>  (8) 
86.18047299719436

>  <Genealogy>  (8) 
COc1ccc([O-])c(C[NH+]2CCN(Cc3ccc(C)s3)CC2)c1 (protonated)
COc1ccc([O-])c(C[NH+]2CCN(Cc3ccc(C)s3)CC2)c1 (3D coordinates assigned)
COc1ccc([O-])c(C[NH+]2CCN(Cc3ccc(C)s3)CC2)c1 (nonaromatic ring conformer: 86.18047299719436 kcal/mol)

>  <smiles>  (8) 
COc1ccc(O)c(CN2CCN(Cc3ccc(C)s3)CC2)c1

>  <score_type>  (8) 
oracle

>  <origin>  (8) 
adg

>  <m_score__min__energy>  (8) 
-9.4299999999999997

>  <m_primary>  (8) 
energy

$$$$
8:0
     RDKit          3D

 50 52  0  0  0  0  0  0  0  0999 V2000
   57.0080   19.8000   43.6610 H   0  0  0  0  0  0  0  0  0  0  0  0
   56.2300   20.3840   43.3750 O   0  0  0  0  0  0  0  0  0  0  0  0
   56.2310   21.7290   43.6730 N   0  0  0  0  0  0  0  0  0  0  0  0
   57.1220   22.2710   44.4500 C   0  0  0  0  0  0  0  0  0  0  0  0
   57.1320   23.7250   44.7350 C   0  0  0  0  0  0  0  0  0  0  0  0
   57.7660   24.6010   43.8420 C   0  0  0  0  0  0  0  0  0  0  0  0
   58.2831   24.2002   42.9577 H   0  0  0  0  0  0  0  0  0  0  0  0
   57.7450   25.9840   44.0690 C   0  0  0  0  0  0  0  0  0  0  0  0
   58.2498   26.6586   43.3619 H   0  0  0  0  0  0  0  0  0  0  0  0
   57.0850   26.5200   45.1920 C   0  0  0  0  0  0  0  0  0  0  0  0
   57.0120   27.9880   45.3960 C   0  0  0  0  0  0  0  0  0  0  0  0
   55.9130   28.5880   45.2440 O   0  0  0  0  0  0  0  0  0  0  0  0
   58.1860   28.7550   45.6850 N   0  0  0  0  0  0  0  0  0  0  0  0
   59.0330   28.4970   46.8010 C   0  0  0  0  0  0  0  0  0  0  0  0
   59.2380   29.1060   48.0230 C   0  0  0  0  0  0  0  0  0  0  0  0
   58.7510   30.2950   48.6450 N   0  0  0  0  0  0  0  0  0  0  0  0
   57.8430   30.2340   49.1650 H   0  0  0  0  0  0  0  0  0  0  0  0
   59.3240   31.5820   48.3540 C   0  0  0  0  0  0  0  0  0  0  0  0
   58.5840   32.4950   47.5810 C   0  0  0  0  0  0  0  0  0  0  0  0
   57.5850   32.2164   47.2145 H   0  0  0  0  0  0  0  0  0  0  0  0
   59.1080   33.7510   47.2760 C   0  0  0  0  0  0  0  0  0  0  0  0
   58.5383   34.4498   46.6459 H   0  0  0  0  0  0  0  0  0  0  0  0
   60.3650   34.1180   47.7770 C   0  0  0  0  0  0  0  0  0  0  0  0
   60.7645   35.1192   47.5577 H   0  0  0  0  0  0  0  0  0  0  0  0
   61.1220   33.2260   48.5550 C   0  0  0  0  0  0  0  0  0  0  0  0
   62.4270   33.6540   49.0870 C   0  0  0  0  0  0  0  0  0  0  0  0
   62.4540   34.4280   50.0830 O   0  0  0  0  0  0  0  0  0  0  0  0
   63.6660   33.1670   48.5210 N   0  0  0  0  0  0  0  0  0  0  0  0
   64.8520   33.0660   49.3950 C   0  0  0  0  0  0  0  0  0  0  0  0
   64.5349   33.0930   50.4480 H   0  0  0  0  0  0  0  0  0  0  0  0
   65.3761   32.1200   49.1940 H   0  0  0  0  0  0  0  0  0  0  0  0
   65.5285   33.9098   49.1940 H   0  0  0  0  0  0  0  0  0  0  0  0
   63.7320   32.7280   47.1080 C   0  0  0  0  0  0  0  0  0  0  0  0
   63.8954   31.6409   47.0690 H   0  0  0  0  0  0  0  0  0  0  0  0
   62.7866   32.9750   46.6028 H   0  0  0  0  0  0  0  0  0  0  0  0
   64.5630   33.2421   46.6028 H   0  0  0  0  0  0  0  0  0  0  0  0
   60.6130   31.9400   48.8390 C   0  0  0  0  0  0  0  0  0  0  0  0
   61.3600   31.0180   49.5860 O   0  0  0  0  0  0  0  0  0  0  0  0
   61.1980   30.0190   49.5650 H   0  0  0  0  0  0  0  0  0  0  0  0
   60.1660   28.1310   48.3550 C   0  0  0  0  0  0  0  0  0  0  0  0
   60.8970   27.8920   49.3550 O   0  0  0  0  0  0  0  0  0  0  0  0
   59.9650   27.5250   47.1320 C   0  0  0  0  0  0  0  0  0  0  0  0
   60.4370   26.5050   46.5550 O   0  0  0  0  0  0  0  0  0  0  0  0
   56.4300   25.6460   46.0740 C   0  0  0  0  0  0  0  0  0  0  0  0
   55.8921   26.0499   46.9444 H   0  0  0  0  0  0  0  0  0  0  0  0
   56.4570   24.2560   45.8520 C   0  0  0  0  0  0  0  0  0  0  0  0
   55.7730   23.4420   46.6940 F   0  0  0  0  0  0  0  0  0  0  0  0
   58.1230   21.4370   45.0380 N   0  0  0  0  0  0  0  0  0  0  0  0
   58.8660   21.8510   45.6390 H   0  0  0  0  0  0  0  0  0  0  0  0
   58.1700   20.4150   44.8100 H   0  0  0  0  0  0  0  0  0  0  0  0
  1  2  1  0
  2  3  1  0
  3  4  2  0
  4  5  1  0
  5  6  2  0
  6  7  1  0
  6  8  1  0
  8  9  1  0
  8 10  2  0
 10 11  1  0
 11 12  2  0
 11 13  1  0
 13 14  1  0
 14 15  2  0
 15 16  1  0
 16 17  1  0
 16 18  1  0
 18 19  2  0
 19 20  1  0
 19 21  1  0
 21 22  1  0
 21 23  2  0
 23 24  1  0
 23 25  1  0
 25 26  1  0
 26 27  2  0
 26 28  1  0
 28 29  1  0
 29 30  1  0
 29 31  1  0
 29 32  1  0
 28 33  1  0
 33 34  1  0
 33 35  1  0
 33 36  1  0
 25 37  2  0
 37 38  1  0
 38 39  1  0
 15 40  1  0
 40 41  2  0
 40 42  1  0
 42 43  2  0
 10 44  1  0
 44 45  1  0
 44 46  2  0
 46 47  1  0
  4 48  1  0
 48 49  1  0
 48 50  1  0
 46  5  1  0
 42 14  1  0
 37 18  1  0
M  CHG  1  13  -1
M  END
>  <UniqueID>  (9) 
8

>  <SMILES>  (9) 
CN(C)C(=O)c1cccc(Nc2c([N-]C(=O)c3ccc(/C(N)=N\O)c(F)c3)c(=O)c2=O)c1O

>  <Energy>  (9) 
68.61269617149091

>  <Genealogy>  (9) 
CN(C)C(=O)c1cccc(Nc2c([N-]C(=O)c3ccc(C(N)=NO)c(F)c3)c(=O)c2=O)c1O (protonated)
CN(C)C(=O)c1cccc(Nc2c([N-]C(=O)c3ccc(/C(N)=N\O)c(F)c3)c(=O)c2=O)c1O (cis-trans isomerization)
CN(C)C(=O)c1cccc(Nc2c([N-]C(=O)c3ccc(/C(N)=N\O)c(F)c3)c(=O)c2=O)c1O (3D coordinates assigned)
CN(C)C(=O)c1cccc(Nc2c([N-]C(=O)c3ccc(/C(N)=N\O)c(F)c3)c(=O)c2=O)c1O (optimized conformer: 68.61269617149091 kcal/mol)

>  <smiles>  (9) 
CN(C)C(=O)c1cccc(Nc2c(NC(=O)c3ccc(C(N)=NO)c(F)c3)c(=O)c2=O)c1O

>  <score_type>  (9) 
oracle

>  <origin>  (9) 
adg

>  <m_score__min__energy>  (9) 
-11.050000000000001

>  <m_primary>  (9) 
energy

$$$$
9:0
     RDKit          3D

 61 63  0  0  0  0  0  0  0  0999 V2000
   57.6490   26.7640   46.6590 C   0  0  0  0  0  0  0  0  0  0  0  0
   58.6060   27.5410   47.1810 C   0  0  0  0  0  0  0  0  0  0  0  0
   60.0540   27.3590   46.8180 C   0  0  0  0  0  0  0  0  0  0  0  0
   60.3900   28.1200   45.5310 C   0  0  0  0  0  0  0  0  0  0  0  0
   59.5860   29.3610   45.4300 N   0  0  0  0  0  0  0  0  0  0  0  0
   58.5150   29.3670   44.5700 C   0  0  0  0  0  0  0  0  0  0  0  0
   58.1970   28.3070   43.9620 O   0  0  0  0  0  0  0  0  0  0  0  0
   57.7600   30.5350   44.3440 C   0  0  0  0  0  0  0  0  0  0  0  0
   56.6130   30.4830   43.3420 C   0  0  0  0  0  0  0  0  0  0  0  0
   55.3010   30.0640   44.0140 C   0  0  0  0  0  0  0  0  0  0  0  0
   55.5280   28.9700   44.8620 O   0  0  0  0  0  0  0  0  0  0  0  0
   58.1210   31.7300   45.0130 C   0  0  0  0  0  0  0  0  0  0  0  0
   57.4150   33.0480   44.7190 C   0  0  0  0  0  0  0  0  0  0  0  0
   59.1480   31.6860   45.9900 C   0  0  0  0  0  0  0  0  0  0  0  0
   59.4660   32.8220   46.7720 C   0  0  0  0  0  0  0  0  0  0  0  0
   60.4950   32.7860   47.7170 C   0  0  0  0  0  0  0  0  0  0  0  0
   60.8560   33.9150   48.4640 O   0  0  0  0  0  0  0  0  0  0  0  0
   61.6410   33.8760   49.6580 C   0  0  0  0  0  0  0  0  0  0  0  0
   60.8010   33.3150   50.8100 C   0  0  0  0  0  0  0  0  0  0  0  0
   59.2970   33.6050   50.6320 C   0  0  0  0  0  0  0  0  0  0  0  0
   58.5030   32.3680   50.8010 N   0  0  0  0  0  0  0  0  0  0  0  0
   57.7360   32.4120   52.0630 C   0  0  0  0  0  0  0  0  0  0  0  0
   57.0680   31.0510   52.3490 C   0  0  0  0  0  0  0  0  0  0  0  0
   57.1800   30.1790   51.2390 O   0  0  0  0  0  0  0  0  0  0  0  0
   58.5460   29.8970   50.9950 C   0  0  0  0  0  0  0  0  0  0  0  0
   59.3810   31.1810   50.8020 C   0  0  0  0  0  0  0  0  0  0  0  0
   61.2080   31.6090   47.9050 C   0  0  0  0  0  0  0  0  0  0  0  0
   60.8910   30.4640   47.1790 C   0  0  0  0  0  0  0  0  0  0  0  0
   59.8750   30.4780   46.1910 C   0  0  0  0  0  0  0  0  0  0  0  0
   56.5978   26.9203   46.9430 H   0  0  0  0  0  0  0  0  0  0  0  0
   57.9138   25.9693   45.9461 H   0  0  0  0  0  0  0  0  0  0  0  0
   58.3264   28.3318   47.8927 H   0  0  0  0  0  0  0  0  0  0  0  0
   60.6821   27.7396   47.6369 H   0  0  0  0  0  0  0  0  0  0  0  0
   60.2458   26.2881   46.6557 H   0  0  0  0  0  0  0  0  0  0  0  0
   61.4585   28.3815   45.5348 H   0  0  0  0  0  0  0  0  0  0  0  0
   60.1570   27.4771   44.6694 H   0  0  0  0  0  0  0  0  0  0  0  0
   56.4834   31.4795   42.8945 H   0  0  0  0  0  0  0  0  0  0  0  0
   56.8603   29.7378   42.5716 H   0  0  0  0  0  0  0  0  0  0  0  0
   54.9071   30.9060   44.6021 H   0  0  0  0  0  0  0  0  0  0  0  0
   54.5727   29.7783   43.2407 H   0  0  0  0  0  0  0  0  0  0  0  0
   56.0740   28.3220   44.3390 H   0  0  0  0  0  0  0  0  0  0  0  0
   57.1506   33.5415   45.6659 H   0  0  0  0  0  0  0  0  0  0  0  0
   58.0841   33.7010   44.1395 H   0  0  0  0  0  0  0  0  0  0  0  0
   56.5006   32.8529   44.1395 H   0  0  0  0  0  0  0  0  0  0  0  0
   58.8926   33.7504   46.6334 H   0  0  0  0  0  0  0  0  0  0  0  0
   62.5184   33.2322   49.4979 H   0  0  0  0  0  0  0  0  0  0  0  0
   61.9713   34.8944   49.9103 H   0  0  0  0  0  0  0  0  0  0  0  0
   60.9482   32.2259   50.8576 H   0  0  0  0  0  0  0  0  0  0  0  0
   61.1311   33.8056   51.7376 H   0  0  0  0  0  0  0  0  0  0  0  0
   58.9800   34.3432   51.3834 H   0  0  0  0  0  0  0  0  0  0  0  0
   59.1297   33.9972   49.6180 H   0  0  0  0  0  0  0  0  0  0  0  0
   58.4175   32.6596   52.8902 H   0  0  0  0  0  0  0  0  0  0  0  0
   56.9505   33.1765   51.9704 H   0  0  0  0  0  0  0  0  0  0  0  0
   57.5565   30.5880   53.2190 H   0  0  0  0  0  0  0  0  0  0  0  0
   56.0001   31.2237   52.5482 H   0  0  0  0  0  0  0  0  0  0  0  0
   58.9504   29.3367   51.8509 H   0  0  0  0  0  0  0  0  0  0  0  0
   58.6091   29.3104   50.0666 H   0  0  0  0  0  0  0  0  0  0  0  0
   60.1078   31.2680   51.6230 H   0  0  0  0  0  0  0  0  0  0  0  0
   59.9069   31.1242   49.8375 H   0  0  0  0  0  0  0  0  0  0  0  0
   62.0309   31.5812   48.6344 H   0  0  0  0  0  0  0  0  0  0  0  0
   61.4394   29.5310   47.3760 H   0  0  0  0  0  0  0  0  0  0  0  0
  1  2  2  0
  2  3  1  0
  3  4  1  0
  4  5  1  0
  5  6  1  0
  6  7  2  0
  6  8  1  0
  8  9  1  0
  9 10  1  0
 10 11  1  0
  8 12  2  0
 12 13  1  0
 12 14  1  0
 14 15  2  0
 15 16  1  0
 16 17  1  0
 17 18  1  0
 18 19  1  0
 19 20  1  0
 20 21  1  0
 21 22  1  0
 22 23  1  0
 23 24  1  0
 24 25  1  0
 25 26  1  0
 16 27  2  0
 27 28  1  0
 28 29  2  0
 29  5  1  0
 29 14  1  0
 26 21  1  0
  1 30  1  0
  1 31  1  0
  2 32  1  0
  3 33  1  0
  3 34  1  0
  4 35  1  0
  4 36  1  0
  9 37  1  0
  9 38  1  0
 10 39  1  0
 10 40  1  0
 11 41  1  0
 13 42  1  0
 13 43  1  0
 13 44  1  0
 15 45  1  0
 18 46  1  0
 18 47  1  0
 19 48  1  0
 19 49  1  0
 20 50  1  0
 20 51  1  0
 22 52  1  0
 22 53  1  0
 23 54  1  0
 23 55  1  0
 25 56  1  0
 25 57  1  0
 26 58  1  0
 26 59  1  0
 27 60  1  0
 28 61  1  0
M  END
>  <UniqueID>  (10) 
9

>  <SMILES>  (10) 
C=CCCn1c(=O)c(CCO)c(C)c2cc(OCCCN3CCOCC3)ccc21

>  <Energy>  (10) 
86.73363236634495

>  <Genealogy>  (10) 
C=CCCn1c(=O)c(CCO)c(C)c2cc(OCCCN3CCOCC3)ccc21 (3D coordinates assigned)
C=CCCn1c(=O)c(CCO)c(C)c2cc(OCCCN3CCOCC3)ccc21 (nonaromatic ring conformer: 86.73363236634495 kcal/mol)

>  <smiles>  (10) 
C=CCCn1c(=O)c(CCO)c(C)c2cc(OCCCN3CCOCC3)ccc21

>  <score_type>  (10) 
oracle

>  <origin>  (10) 
adg

>  <m_score__min__energy>  (10) 
-8

>  <m_primary>  (10) 
energy

$$$$
10:0
     RDKit          3D

 68 71  0  0  0  0  0  0  0  0999 V2000
   57.2550   30.7600   43.6680 C   0  0  0  0  0  0  0  0  0  0  0  0
   57.4350   29.3760   43.9410 O   0  0  0  0  0  0  0  0  0  0  0  0
   56.6500   28.6730   44.8610 C   0  0  0  0  0  0  0  0  0  0  0  0
   55.5230   29.1340   45.1970 O   0  0  0  0  0  0  0  0  0  0  0  0
   57.1490   27.4020   45.4590 C   0  0  0  0  0  0  0  0  0  0  0  0
   56.2480   26.4630   46.0150 C   0  0  0  0  0  0  0  0  0  0  0  0
   54.8730   26.6830   45.9930 O   0  0  0  0  0  0  0  0  0  0  0  0
   56.7240   25.2830   46.5920 C   0  0  0  0  0  0  0  0  0  0  0  0
   58.0900   25.0160   46.6260 C   0  0  0  0  0  0  0  0  0  0  0  0
   58.9940   25.9260   46.0810 C   0  0  0  0  0  0  0  0  0  0  0  0
   58.5390   27.1230   45.4930 C   0  0  0  0  0  0  0  0  0  0  0  0
   59.4390   28.0520   44.9480 O   0  0  0  0  0  0  0  0  0  0  0  0
   60.5690   28.5980   45.6190 C   0  0  0  0  0  0  0  0  0  0  0  0
   60.0870   29.4150   46.7820 C   0  0  0  0  0  0  0  0  0  0  0  0
   60.3720   29.0030   48.0910 C   0  0  0  0  0  0  0  0  0  0  0  0
   59.8640   29.7120   49.1800 C   0  0  0  0  0  0  0  0  0  0  0  0
   59.0500   30.8360   48.9760 C   0  0  0  0  0  0  0  0  0  0  0  0
   58.5140   31.5620   50.1430 C   0  0  0  0  0  0  0  0  0  0  0  0
   59.0250   32.6650   50.4690 O   0  0  0  0  0  0  0  0  0  0  0  0
   57.4250   31.0420   50.9120 N   0  0  0  0  0  0  0  0  0  0  0  0
   57.5970   30.1660   52.0690 C   0  0  0  0  0  0  0  0  0  0  0  0
   56.6240   30.5580   53.1820 C   0  0  0  0  0  0  0  0  0  0  0  0
   55.1940   30.2930   52.7860 C   0  0  0  0  0  0  0  0  0  0  0  0
   54.4960   31.2060   51.9770 C   0  0  0  0  0  0  0  0  0  0  0  0
   53.1690   30.9530   51.6120 C   0  0  0  0  0  0  0  0  0  0  0  0
   52.5330   29.7840   52.0400 C   0  0  0  0  0  0  0  0  0  0  0  0
   53.2230   28.8670   52.8380 C   0  0  0  0  0  0  0  0  0  0  0  0
   54.5470   29.1180   53.2100 C   0  0  0  0  0  0  0  0  0  0  0  0
   58.7800   31.2760   47.6650 C   0  0  0  0  0  0  0  0  0  0  0  0
   58.0040   32.4670   47.4720 N   0  0  0  0  0  0  0  0  0  0  0  0
   58.2380   33.6230   46.2020 S   0  0  0  0  0  0  0  0  0  0  0  0
   56.9190   34.2290   45.8150 O   0  0  0  0  0  0  0  0  0  0  0  0
   58.8610   32.9550   45.0100 O   0  0  0  0  0  0  0  0  0  0  0  0
   59.3420   34.8990   46.7790 C   0  0  0  0  0  0  0  0  0  0  0  0
   60.6000   34.2830   47.3270 C   0  0  0  0  0  0  0  0  0  0  0  0
   61.6050   33.8360   46.4530 C   0  0  0  0  0  0  0  0  0  0  0  0
   62.7910   33.3010   46.9590 C   0  0  0  0  0  0  0  0  0  0  0  0
   62.9900   33.2220   48.3410 C   0  0  0  0  0  0  0  0  0  0  0  0
   62.0040   33.6820   49.2170 C   0  0  0  0  0  0  0  0  0  0  0  0
   60.8140   34.2180   48.7140 C   0  0  0  0  0  0  0  0  0  0  0  0
   59.2830   30.5460   46.5730 C   0  0  0  0  0  0  0  0  0  0  0  0
   57.1829   31.3143   44.6154 H   0  0  0  0  0  0  0  0  0  0  0  0
   58.1121   31.1340   43.0887 H   0  0  0  0  0  0  0  0  0  0  0  0
   56.3308   30.9023   43.0887 H   0  0  0  0  0  0  0  0  0  0  0  0
   56.0150   24.5603   47.0222 H   0  0  0  0  0  0  0  0  0  0  0  0
   58.4563   24.0853   47.0838 H   0  0  0  0  0  0  0  0  0  0  0  0
   60.0718   25.7080   46.1101 H   0  0  0  0  0  0  0  0  0  0  0  0
   61.2145   27.7839   45.9803 H   0  0  0  0  0  0  0  0  0  0  0  0
   61.1462   29.2309   44.9288 H   0  0  0  0  0  0  0  0  0  0  0  0
   60.9997   28.1157   48.2607 H   0  0  0  0  0  0  0  0  0  0  0  0
   60.1030   29.3879   50.2036 H   0  0  0  0  0  0  0  0  0  0  0  0
   57.4039   29.1257   51.7682 H   0  0  0  0  0  0  0  0  0  0  0  0
   58.6267   30.2657   52.4429 H   0  0  0  0  0  0  0  0  0  0  0  0
   56.8590   29.9739   54.0840 H   0  0  0  0  0  0  0  0  0  0  0  0
   56.7347   31.6357   53.3727 H   0  0  0  0  0  0  0  0  0  0  0  0
   54.9947   32.1228   51.6295 H   0  0  0  0  0  0  0  0  0  0  0  0
   52.6248   31.6760   50.9866 H   0  0  0  0  0  0  0  0  0  0  0  0
   51.4908   29.5860   51.7491 H   0  0  0  0  0  0  0  0  0  0  0  0
   52.7234   27.9463   53.1738 H   0  0  0  0  0  0  0  0  0  0  0  0
   55.0858   28.3928   53.8376 H   0  0  0  0  0  0  0  0  0  0  0  0
   59.5976   35.5653   45.9419 H   0  0  0  0  0  0  0  0  0  0  0  0
   58.8451   35.4730   47.5750 H   0  0  0  0  0  0  0  0  0  0  0  0
   61.4568   33.9079   45.3654 H   0  0  0  0  0  0  0  0  0  0  0  0
   63.5696   32.9413   46.2702 H   0  0  0  0  0  0  0  0  0  0  0  0
   63.9236   32.7973   48.7385 H   0  0  0  0  0  0  0  0  0  0  0  0
   62.1636   33.6226   50.3037 H   0  0  0  0  0  0  0  0  0  0  0  0
   60.0439   34.5895   49.4060 H   0  0  0  0  0  0  0  0  0  0  0  0
   59.0443   30.8641   45.5474 H   0  0  0  0  0  0  0  0  0  0  0  0
  1  2  1  0
  2  3  1  0
  3  4  2  0
  3  5  1  0
  5  6  2  0
  6  7  1  0
  6  8  1  0
  8  9  2  0
  9 10  1  0
 10 11  2  0
 11 12  1  0
 12 13  1  0
 13 14  1  0
 14 15  2  0
 15 16  1  0
 16 17  2  0
 17 18  1  0
 18 19  2  0
 18 20  1  0
 20 21  1  0
 21 22  1  0
 22 23  1  0
 23 24  2  0
 24 25  1  0
 25 26  2  0
 26 27  1  0
 27 28  2  0
 17 29  1  0
 29 30  1  0
 30 31  1  0
 31 32  2  0
 31 33  2  0
 31 34  1  0
 34 35  1  0
 35 36  2  0
 36 37  1  0
 37 38  2  0
 38 39  1  0
 39 40  2  0
 29 41  2  0
 11  5  1  0
 41 14  1  0
 28 23  1  0
 40 35  1  0
  1 42  1  0
  1 43  1  0
  1 44  1  0
  8 45  1  0
  9 46  1  0
 10 47  1  0
 13 48  1  0
 13 49  1  0
 15 50  1  0
 16 51  1  0
 21 52  1  0
 21 53  1  0
 22 54  1  0
 22 55  1  0
 24 56  1  0
 25 57  1  0
 26 58  1  0
 27 59  1  0
 28 60  1  0
 34 61  1  0
 34 62  1  0
 36 63  1  0
 37 64  1  0
 38 65  1  0
 39 66  1  0
 40 67  1  0
 41 68  1  0
M  CHG  3   7  -1  20  -1  30  -1
M  END
>  <UniqueID>  (11) 
10

>  <SMILES>  (11) 
COC(=O)c1c([O-])cccc1OCc1ccc(C(=O)[N-]CCc2ccccc2)c([N-]S(=O)(=O)Cc2ccccc2)c1

>  <Energy>  (11) 
69.51215677542736

>  <Genealogy>  (11) 
COC(=O)c1c([O-])cccc1OCc1ccc(C(=O)[N-]CCc2ccccc2)c([N-]S(=O)(=O)Cc2ccccc2)c1 (protonated)
COC(=O)c1c([O-])cccc1OCc1ccc(C(=O)[N-]CCc2ccccc2)c([N-]S(=O)(=O)Cc2ccccc2)c1 (3D coordinates assigned)
COC(=O)c1c([O-])cccc1OCc1ccc(C(=O)[N-]CCc2ccccc2)c([N-]S(=O)(=O)Cc2ccccc2)c1 (optimized conformer: 69.51215677542736 kcal/mol)

>  <smiles>  (11) 
COC(=O)c1c(O)cccc1OCc1ccc(C(=O)NCCc2ccccc2)c(NS(=O)(=O)Cc2ccccc2)c1

>  <score_type>  (11) 
oracle

>  <origin>  (11) 
adg

>  <m_score__min__energy>  (11) 
-15.890000000000001

>  <m_primary>  (11) 
energy

$$$$
11:0
     RDKit          3D

 59 62  0  0  0  0  0  0  0  0999 V2000
   60.7370   29.7750   48.5570 C   0  0  0  0  0  0  0  0  0  0  0  0
   61.4810   30.6570   47.6060 C   0  0  0  0  0  0  0  0  0  0  0  0
   61.0850   30.7550   46.4140 O   0  0  0  0  0  0  0  0  0  0  0  0
   62.6680   31.3370   48.0310 N   0  0  0  0  0  0  0  0  0  0  0  0
   63.3990   32.2370   47.1370 C   0  0  0  0  0  0  0  0  0  0  0  0
   63.3060   33.6890   47.6230 C   0  0  0  0  0  0  0  0  0  0  0  0
   62.7020   33.7610   49.0090 C   0  0  0  0  0  0  0  0  0  0  0  0
   63.5680   33.8040   50.1170 C   0  0  0  0  0  0  0  0  0  0  0  0
   63.0610   33.8450   51.4170 C   0  0  0  0  0  0  0  0  0  0  0  0
   61.6830   33.8420   51.6310 C   0  0  0  0  0  0  0  0  0  0  0  0
   60.8060   33.8040   50.5460 C   0  0  0  0  0  0  0  0  0  0  0  0
   61.2980   33.7760   49.2300 C   0  0  0  0  0  0  0  0  0  0  0  0
   60.3280   33.7320   48.1180 C   0  0  0  0  0  0  0  0  0  0  0  0
   60.4920   34.5700   47.0080 C   0  0  0  0  0  0  0  0  0  0  0  0
   59.5580   34.5590   45.9700 C   0  0  0  0  0  0  0  0  0  0  0  0
   58.4480   33.6950   46.0170 C   0  0  0  0  0  0  0  0  0  0  0  0
   57.4380   33.7180   44.9290 C   0  0  0  0  0  0  0  0  0  0  0  0
   56.6230   34.6770   44.8570 O   0  0  0  0  0  0  0  0  0  0  0  0
   57.3240   32.6490   43.9790 N   0  0  0  0  0  0  0  0  0  0  0  0
   57.3510   31.2500   44.2930 C   0  0  0  0  0  0  0  0  0  0  0  0
   58.5810   30.6170   44.4850 C   0  0  0  0  0  0  0  0  0  0  0  0
   58.6300   29.2600   44.8110 C   0  0  0  0  0  0  0  0  0  0  0  0
   57.4310   28.5440   44.9740 C   0  0  0  0  0  0  0  0  0  0  0  0
   57.4350   27.1510   45.3420 N   0  0  0  0  0  0  0  0  0  0  0  0
   57.1040   26.6430   46.6630 C   0  0  0  0  0  0  0  0  0  0  0  0
   57.0710   25.1260   46.5230 C   0  0  0  0  0  0  0  0  0  0  0  0
   57.7880   24.8070   45.2120 C   0  0  0  0  0  0  0  0  0  0  0  0
   57.7540   26.0920   44.3960 C   0  0  0  0  0  0  0  0  0  0  0  0
   56.2420   29.1910   44.8010 N   0  0  0  0  0  0  0  0  0  0  0  0
   56.1730   30.5060   44.4650 C   0  0  0  0  0  0  0  0  0  0  0  0
   58.2920   32.8490   47.1300 C   0  0  0  0  0  0  0  0  0  0  0  0
   59.2280   32.8620   48.1670 C   0  0  0  0  0  0  0  0  0  0  0  0
   60.9798   30.0629   49.5905 H   0  0  0  0  0  0  0  0  0  0  0  0
   59.6554   29.8857   48.3900 H   0  0  0  0  0  0  0  0  0  0  0  0
   61.0284   28.7275   48.3900 H   0  0  0  0  0  0  0  0  0  0  0  0
   63.0150   31.1760   49.0060 H   0  0  0  0  0  0  0  0  0  0  0  0
   64.4562   31.9344   47.1076 H   0  0  0  0  0  0  0  0  0  0  0  0
   62.9522   32.1738   46.1338 H   0  0  0  0  0  0  0  0  0  0  0  0
   64.3155   34.1251   47.6478 H   0  0  0  0  0  0  0  0  0  0  0  0
   62.6604   34.2490   46.9305 H   0  0  0  0  0  0  0  0  0  0  0  0
   64.6563   33.8053   49.9572 H   0  0  0  0  0  0  0  0  0  0  0  0
   63.7497   33.8797   52.2741 H   0  0  0  0  0  0  0  0  0  0  0  0
   61.2866   33.8696   52.6567 H   0  0  0  0  0  0  0  0  0  0  0  0
   59.7203   33.7959   50.7225 H   0  0  0  0  0  0  0  0  0  0  0  0
   61.3619   35.2410   46.9535 H   0  0  0  0  0  0  0  0  0  0  0  0
   59.6908   35.2307   45.1091 H   0  0  0  0  0  0  0  0  0  0  0  0
   59.5144   31.1893   44.3791 H   0  0  0  0  0  0  0  0  0  0  0  0
   59.5989   28.7553   44.9392 H   0  0  0  0  0  0  0  0  0  0  0  0
   57.8695   26.9445   47.3931 H   0  0  0  0  0  0  0  0  0  0  0  0
   56.1428   27.0393   47.0221 H   0  0  0  0  0  0  0  0  0  0  0  0
   57.5922   24.6530   47.3683 H   0  0  0  0  0  0  0  0  0  0  0  0
   56.0393   24.7445   46.5205 H   0  0  0  0  0  0  0  0  0  0  0  0
   58.8275   24.5052   45.4078 H   0  0  0  0  0  0  0  0  0  0  0  0
   57.3039   23.9760   44.6781 H   0  0  0  0  0  0  0  0  0  0  0  0
   58.7331   26.2763   43.9298 H   0  0  0  0  0  0  0  0  0  0  0  0
   57.0147   26.0374   43.5833 H   0  0  0  0  0  0  0  0  0  0  0  0
   55.1936   30.9877   44.3277 H   0  0  0  0  0  0  0  0  0  0  0  0
   57.4266   32.1722   47.1842 H   0  0  0  0  0  0  0  0  0  0  0  0
   59.1021   32.1869   49.0263 H   0  0  0  0  0  0  0  0  0  0  0  0
  1  2  1  0
  2  3  2  0
  2  4  1  0
  4  5  1  0
  5  6  1  0
  6  7  1  0
  7  8  2  0
  8  9  1  0
  9 10  2  0
 10 11  1  0
 11 12  2  0
 12 13  1  0
 13 14  2  0
 14 15  1  0
 15 16  2  0
 16 17  1  0
 17 18  2  0
 17 19  1  0
 19 20  1  0
 20 21  2  0
 21 22  1  0
 22 23  2  0
 23 24  1  0
 24 25  1  0
 25 26  1  0
 26 27  1  0
 27 28  1  0
 23 29  1  0
 29 30  2  0
 16 31  1  0
 31 32  2  0
 12  7  1  0
 32 13  1  0
 30 20  1  0
 28 24  1  0
  1 33  1  0
  1 34  1  0
  1 35  1  0
  4 36  1  0
  5 37  1  0
  5 38  1  0
  6 39  1  0
  6 40  1  0
  8 41  1  0
  9 42  1  0
 10 43  1  0
 11 44  1  0
 14 45  1  0
 15 46  1  0
 21 47  1  0
 22 48  1  0
 25 49  1  0
 25 50  1  0
 26 51  1  0
 26 52  1  0
 27 53  1  0
 27 54  1  0
 28 55  1  0
 28 56  1  0
 30 57  1  0
 31 58  1  0
 32 59  1  0
M  CHG  1  19  -1
M  END
>  <UniqueID>  (12) 
11

>  <SMILES>  (12) 
CC(=O)NCCc1ccccc1-c1ccc(C(=O)[N-]c2ccc(N3CCCC3)nc2)cc1

>  <Energy>  (12) 
71.78744563893441

>  <Genealogy>  (12) 
CC(=O)NCCc1ccccc1-c1ccc(C(=O)[N-]c2ccc(N3CCCC3)nc2)cc1 (protonated)
CC(=O)NCCc1ccccc1-c1ccc(C(=O)[N-]c2ccc(N3CCCC3)nc2)cc1 (3D coordinates assigned)
CC(=O)NCCc1ccccc1-c1ccc(C(=O)[N-]c2ccc(N3CCCC3)nc2)cc1 (nonaromatic ring conformer: 71.78744563893441 kcal/mol)

>  <smiles>  (12) 
CC(=O)NCCc1ccccc1-c1ccc(C(=O)Nc2ccc(N3CCCC3)nc2)cc1

>  <score_type>  (12) 
oracle

>  <origin>  (12) 
adg

>  <m_score__min__energy>  (12) 
-10.66

>  <m_primary>  (12) 
energy

$$$$
12:0
     RDKit          3D

 59 61  0  0  0  0  0  0  0  0999 V2000
   58.2250   30.8620   51.0600 C   0  0  0  0  0  0  0  0  0  0  0  0
   58.7670   29.8690   50.0170 C   0  0  0  0  0  0  0  0  0  0  0  0
   59.0140   30.4320   48.6610 N   0  0  0  0  0  0  0  0  0  0  0  0
   60.1590   31.3560   48.6240 C   0  0  0  0  0  0  0  0  0  0  0  0
   61.3430   30.6110   48.0130 C   0  0  0  0  0  0  0  0  0  0  0  0
   60.7650   29.3400   47.4040 C   0  0  0  0  0  0  0  0  0  0  0  0
   59.2550   29.4890   47.5510 C   0  0  1  0  0  0  0  0  0  0  0  0
   58.5070   28.1400   47.6200 C   0  0  0  0  0  0  0  0  0  0  0  0
   58.1240   27.6710   46.2920 N   0  0  0  0  0  0  0  0  0  0  0  0
   56.9810   28.1380   45.5660 C   0  0  0  0  0  0  0  0  0  0  0  0
   55.8940   27.5000   45.6160 O   0  0  0  0  0  0  0  0  0  0  0  0
   57.0620   29.3800   44.7740 C   0  0  0  0  0  0  0  0  0  0  0  0
   56.8530   29.3710   43.3860 C   0  0  0  0  0  0  0  0  0  0  0  0
   56.9810   30.5590   42.6670 C   0  0  0  0  0  0  0  0  0  0  0  0
   57.3100   31.7430   43.3280 C   0  0  0  0  0  0  0  0  0  0  0  0
   57.5000   31.7270   44.7190 C   0  0  0  0  0  0  0  0  0  0  0  0
   57.8490   32.9610   45.4490 C   0  0  0  0  0  0  0  0  0  0  0  0
   57.7230   34.0800   44.8810 O   0  0  0  0  0  0  0  0  0  0  0  0
   58.3270   32.8960   46.7990 N   0  0  0  0  0  0  0  0  0  0  0  0
   58.7550   34.1030   47.5070 C   0  0  0  0  0  0  0  0  0  0  0  0
   59.9950   34.7330   46.8610 C   0  0  0  0  0  0  0  0  0  0  0  0
   61.2760   34.2090   47.4580 C   0  0  0  0  0  0  0  0  0  0  0  0
   62.2840   33.6830   46.6330 C   0  0  0  0  0  0  0  0  0  0  0  0
   63.4610   33.1820   47.1940 C   0  0  0  0  0  0  0  0  0  0  0  0
   63.6540   33.1970   48.5800 C   0  0  0  0  0  0  0  0  0  0  0  0
   64.8500   32.6700   49.0930 O   0  0  0  0  0  0  0  0  0  0  0  0
   65.4750   33.1150   50.2910 C   0  0  0  0  0  0  0  0  0  0  0  0
   62.6500   33.7330   49.4060 C   0  0  0  0  0  0  0  0  0  0  0  0
   61.4700   34.2360   48.8480 C   0  0  0  0  0  0  0  0  0  0  0  0
   57.3730   30.5530   45.3970 N   0  0  0  0  0  0  0  0  0  0  0  0
   58.4326   30.4816   52.0710 H   0  0  0  0  0  0  0  0  0  0  0  0
   58.7158   31.8375   50.9273 H   0  0  0  0  0  0  0  0  0  0  0  0
   57.1391   30.9768   50.9273 H   0  0  0  0  0  0  0  0  0  0  0  0
   59.7185   29.4667   50.3950 H   0  0  0  0  0  0  0  0  0  0  0  0
   57.9825   29.1086   49.8890 H   0  0  0  0  0  0  0  0  0  0  0  0
   59.9115   32.2335   48.0085 H   0  0  0  0  0  0  0  0  0  0  0  0
   60.4058   31.7014   49.6388 H   0  0  0  0  0  0  0  0  0  0  0  0
   61.8217   31.2247   47.2357 H   0  0  0  0  0  0  0  0  0  0  0  0
   62.1115   30.3851   48.7669 H   0  0  0  0  0  0  0  0  0  0  0  0
   61.0447   29.2567   46.3434 H   0  0  0  0  0  0  0  0  0  0  0  0
   61.1428   28.4334   47.8994 H   0  0  0  0  0  0  0  0  0  0  0  0
   58.8101   29.9207   46.6423 H   0  0  0  0  0  0  0  0  0  0  0  0
   59.1631   27.3912   48.0878 H   0  0  0  0  0  0  0  0  0  0  0  0
   57.5912   28.2836   48.2122 H   0  0  0  0  0  0  0  0  0  0  0  0
   56.5907   28.4355   42.8702 H   0  0  0  0  0  0  0  0  0  0  0  0
   56.8226   30.5627   41.5785 H   0  0  0  0  0  0  0  0  0  0  0  0
   57.4196   32.6810   42.7640 H   0  0  0  0  0  0  0  0  0  0  0  0
   58.3260   31.9740   47.2900 H   0  0  0  0  0  0  0  0  0  0  0  0
   57.9342   34.8352   47.4907 H   0  0  0  0  0  0  0  0  0  0  0  0
   59.0130   33.8209   48.5384 H   0  0  0  0  0  0  0  0  0  0  0  0
   59.9873   34.5069   45.7845 H   0  0  0  0  0  0  0  0  0  0  0  0
   59.9565   35.8173   47.0424 H   0  0  0  0  0  0  0  0  0  0  0  0
   62.1460   33.6656   45.5418 H   0  0  0  0  0  0  0  0  0  0  0  0
   64.2442   32.7715   46.5397 H   0  0  0  0  0  0  0  0  0  0  0  0
   64.9247   32.7232   51.1591 H   0  0  0  0  0  0  0  0  0  0  0  0
   66.5127   32.7513   50.3201 H   0  0  0  0  0  0  0  0  0  0  0  0
   65.4709   34.2146   50.3201 H   0  0  0  0  0  0  0  0  0  0  0  0
   62.7933   33.7569   50.4964 H   0  0  0  0  0  0  0  0  0  0  0  0
   60.6905   34.6547   49.5015 H   0  0  0  0  0  0  0  0  0  0  0  0
  1  2  1  0
  2  3  1  0
  3  4  1  0
  4  5  1  0
  5  6  1  0
  6  7  1  0
  7  8  1  0
  8  9  1  0
  9 10  1  0
 10 11  2  0
 10 12  1  0
 12 13  2  0
 13 14  1  0
 14 15  2  0
 15 16  1  0
 16 17  1  0
 17 18  2  0
 17 19  1  0
 19 20  1  0
 20 21  1  0
 21 22  1  0
 22 23  2  0
 23 24  1  0
 24 25  2  0
 25 26  1  0
 26 27  1  0
 25 28  1  0
 28 29  2  0
 16 30  2  0
  7  3  1  0
 30 12  1  0
 29 22  1  0
  1 31  1  0
  1 32  1  0
  1 33  1  0
  2 34  1  0
  2 35  1  0
  4 36  1  0
  4 37  1  0
  5 38  1  0
  5 39  1  0
  6 40  1  0
  6 41  1  0
  7 42  1  6
  8 43  1  0
  8 44  1  0
 13 45  1  0
 14 46  1  0
 15 47  1  0
 19 48  1  0
 20 49  1  0
 20 50  1  0
 21 51  1  0
 21 52  1  0
 23 53  1  0
 24 54  1  0
 27 55  1  0
 27 56  1  0
 27 57  1  0
 28 58  1  0
 29 59  1  0
M  CHG  1   9  -1
M  END
>  <UniqueID>  (13) 
12

>  <SMILES>  (13) 
CCN1CCC[C@H]1C[N-]C(=O)c1cccc(C(=O)NCCc2ccc(OC)cc2)n1

>  <Energy>  (13) 
63.821610154255794

>  <Genealogy>  (13) 
CCN1CCCC1C[N-]C(=O)c1cccc(C(=O)NCCc2ccc(OC)cc2)n1 (protonated)
CCN1CCC[C@H]1C[N-]C(=O)c1cccc(C(=O)NCCc2ccc(OC)cc2)n1 (chirality)
CCN1CCC[C@H]1C[N-]C(=O)c1cccc(C(=O)NCCc2ccc(OC)cc2)n1 (3D coordinates assigned)
CCN1CCC[C@H]1C[N-]C(=O)c1cccc(C(=O)NCCc2ccc(OC)cc2)n1 (nonaromatic ring conformer: 63.821610154255794 kcal/mol)

>  <smiles>  (13) 
CCN1CCCC1CNC(=O)c1cccc(C(=O)NCCc2ccc(OC)cc2)n1

>  <score_type>  (13) 
oracle

>  <origin>  (13) 
adg

>  <m_score__min__energy>  (13) 
-11.449999999999999

>  <m_primary>  (13) 
energy

$$$$
13:0
     RDKit          3D

 59 63  0  0  0  0  0  0  0  0999 V2000
   54.9980   25.7100   45.9210 O   0  0  0  0  0  0  0  0  0  0  0  0
   54.9140   24.4720   45.6960 C   0  0  0  0  0  0  0  0  0  0  0  0
   53.8250   23.6940   46.2170 N   0  0  0  0  0  0  0  0  0  0  0  0
   52.5160   23.5060   45.6550 C   0  0  0  0  0  0  0  0  0  0  0  0
   52.2290   24.1220   44.4270 C   0  0  0  0  0  0  0  0  0  0  0  0
   50.9670   23.9890   43.8420 C   0  0  0  0  0  0  0  0  0  0  0  0
   49.9740   23.2470   44.4870 C   0  0  0  0  0  0  0  0  0  0  0  0
   50.2420   22.6410   45.7170 C   0  0  0  0  0  0  0  0  0  0  0  0
   51.5030   22.7740   46.3090 C   0  0  0  0  0  0  0  0  0  0  0  0
   55.9940   23.7830   44.9720 C   0  0  0  0  0  0  0  0  0  0  0  0
   55.6920   22.9410   44.0840 O   0  0  0  0  0  0  0  0  0  0  0  0
   57.4200   24.0450   45.2500 C   0  0  0  0  0  0  0  0  0  0  0  0
   58.3950   23.1270   45.6170 C   0  0  0  0  0  0  0  0  0  0  0  0
   58.2150   21.7510   45.6560 O   0  0  0  0  0  0  0  0  0  0  0  0
   59.5490   23.7280   45.9910 N   0  0  0  0  0  0  0  0  0  0  0  0
   59.2940   25.0430   45.8580 C   0  0  0  0  0  0  0  0  0  0  0  0
   60.1580   26.0920   46.1540 C   0  0  0  0  0  0  0  0  0  0  0  0
   59.6930   27.4060   45.9730 C   0  0  0  0  0  0  0  0  0  0  0  0
   58.3810   27.6590   45.4890 C   0  0  0  0  0  0  0  0  0  0  0  0
   57.9330   29.0620   45.2690 C   0  0  0  0  0  0  0  0  0  0  0  0
   57.6820   29.4490   44.0950 O   0  0  0  0  0  0  0  0  0  0  0  0
   57.7180   29.9860   46.3450 N   0  0  0  0  0  0  0  0  0  0  0  0
   58.0670   31.3790   46.3800 C   0  0  0  0  0  0  0  0  0  0  0  0
   58.9200   31.8250   47.3990 C   0  0  0  0  0  0  0  0  0  0  0  0
   59.3120   33.1690   47.4650 C   0  0  0  0  0  0  0  0  0  0  0  0
   60.4350   33.7210   48.7070 S   0  0  0  0  0  0  0  0  0  0  0  0
   60.6130   32.6480   49.7470 O   0  0  0  0  0  0  0  0  0  0  0  0
   59.8440   34.9320   49.3720 O   0  0  0  0  0  0  0  0  0  0  0  0
   61.9790   34.1460   48.0000 N   0  0  0  0  0  0  0  0  0  0  0  0
   62.2810   33.3250   46.8120 C   0  0  0  0  0  0  0  0  0  0  0  0
   62.6780   31.8760   47.1860 C   0  0  0  0  0  0  0  0  0  0  0  0
   63.1120   31.7290   48.5300 O   0  0  0  0  0  0  0  0  0  0  0  0
   63.9190   32.8230   48.9060 C   0  0  0  0  0  0  0  0  0  0  0  0
   63.0710   34.1070   48.9990 C   0  0  0  0  0  0  0  0  0  0  0  0
   58.8340   34.0740   46.5100 C   0  0  0  0  0  0  0  0  0  0  0  0
   57.9590   33.6440   45.5080 C   0  0  0  0  0  0  0  0  0  0  0  0
   57.5610   32.3050   45.4450 C   0  0  0  0  0  0  0  0  0  0  0  0
   56.6520   31.9140   44.4680 O   0  0  0  0  0  0  0  0  0  0  0  0
   57.5400   26.5640   45.1870 C   0  0  0  0  0  0  0  0  0  0  0  0
   58.0210   25.2750   45.4110 C   0  0  0  0  0  0  0  0  0  0  0  0
   53.0047   24.7150   43.9204 H   0  0  0  0  0  0  0  0  0  0  0  0
   50.7554   24.4680   42.8746 H   0  0  0  0  0  0  0  0  0  0  0  0
   48.9809   23.1400   44.0262 H   0  0  0  0  0  0  0  0  0  0  0  0
   49.4586   22.0570   46.2221 H   0  0  0  0  0  0  0  0  0  0  0  0
   51.7043   22.3076   47.2847 H   0  0  0  0  0  0  0  0  0  0  0  0
   61.1772   25.8986   46.5197 H   0  0  0  0  0  0  0  0  0  0  0  0
   60.3551   28.2519   46.2097 H   0  0  0  0  0  0  0  0  0  0  0  0
   59.2852   31.1133   48.1541 H   0  0  0  0  0  0  0  0  0  0  0  0
   61.3897   33.2928   46.1681 H   0  0  0  0  0  0  0  0  0  0  0  0
   63.1347   33.7849   46.2927 H   0  0  0  0  0  0  0  0  0  0  0  0
   61.8042   31.2261   47.0308 H   0  0  0  0  0  0  0  0  0  0  0  0
   63.5273   31.6007   46.5434 H   0  0  0  0  0  0  0  0  0  0  0  0
   64.3750   32.6176   49.8857 H   0  0  0  0  0  0  0  0  0  0  0  0
   64.7030   32.9663   48.1478 H   0  0  0  0  0  0  0  0  0  0  0  0
   62.6296   34.1647   50.0049 H   0  0  0  0  0  0  0  0  0  0  0  0
   63.7364   34.9592   48.7963 H   0  0  0  0  0  0  0  0  0  0  0  0
   59.1481   35.1275   46.5481 H   0  0  0  0  0  0  0  0  0  0  0  0
   57.5818   34.3626   44.7655 H   0  0  0  0  0  0  0  0  0  0  0  0
   56.5291   26.7252   44.7844 H   0  0  0  0  0  0  0  0  0  0  0  0
  1  2  2  0
  2  3  1  0
  3  4  1  0
  4  5  2  0
  5  6  1  0
  6  7  2  0
  7  8  1  0
  8  9  2  0
  2 10  1  0
 10 11  2  0
 10 12  1  0
 12 13  2  0
 13 14  1  0
 13 15  1  0
 15 16  1  0
 16 17  2  0
 17 18  1  0
 18 19  2  0
 19 20  1  0
 20 21  2  0
 20 22  1  0
 22 23  1  0
 23 24  2  0
 24 25  1  0
 25 26  1  0
 26 27  2  0
 26 28  2  0
 26 29  1  0
 29 30  1  0
 30 31  1  0
 31 32  1  0
 32 33  1  0
 33 34  1  0
 25 35  2  0
 35 36  1  0
 36 37  2  0
 37 38  1  0
 19 39  1  0
 39 40  2  0
  9  4  1  0
 40 12  1  0
 40 16  1  0
 37 23  1  0
 34 29  1  0
  5 41  1  0
  6 42  1  0
  7 43  1  0
  8 44  1  0
  9 45  1  0
 17 46  1  0
 18 47  1  0
 24 48  1  0
 30 49  1  0
 30 50  1  0
 31 51  1  0
 31 52  1  0
 33 53  1  0
 33 54  1  0
 34 55  1  0
 34 56  1  0
 35 57  1  0
 36 58  1  0
 39 59  1  0
M  CHG  5   3  -1  14  -1  15  -1  22  -1  38  -1
M  END
>  <UniqueID>  (14) 
13

>  <SMILES>  (14) 
O=C([N-]c1ccccc1)C(=O)c1c([O-])[n-]c2ccc(C(=O)[N-]c3cc(S(=O)(=O)N4CCOCC4)ccc3[O-])cc12

>  <Energy>  (14) 
122.1153092493703

>  <Genealogy>  (14) 
O=C([N-]c1ccccc1)C(=O)c1c([O-])[n-]c2ccc(C(=O)[N-]c3cc(S(=O)(=O)N4CCOCC4)ccc3[O-])cc12 (protonated)
O=C([N-]c1ccccc1)C(=O)c1c([O-])[n-]c2ccc(C(=O)[N-]c3cc(S(=O)(=O)N4CCOCC4)ccc3[O-])cc12 (3D coordinates assigned)
O=C([N-]c1ccccc1)C(=O)c1c([O-])[n-]c2ccc(C(=O)[N-]c3cc(S(=O)(=O)N4CCOCC4)ccc3[O-])cc12 (nonaromatic ring conformer: 122.1153092493703 kcal/mol)

>  <smiles>  (14) 
O=C(Nc1ccccc1)C(=O)c1c(O)[nH]c2ccc(C(=O)Nc3cc(S(=O)(=O)N4CCOCC4)ccc3O)cc12

>  <score_type>  (14) 
oracle

>  <origin>  (14) 
adg

>  <m_score__min__energy>  (14) 
-16.399999999999999

>  <m_primary>  (14) 
energy

$$$$
14:0
     RDKit          3D

 46 49  0  0  0  0  0  0  0  0999 V2000
   61.4260   31.8530   49.4600 H   0  0  0  0  0  0  0  0  0  0  0  0
   61.2380   32.7510   49.0350 O   0  0  0  0  0  0  0  0  0  0  0  0
   60.0870   33.0200   48.2950 C   0  0  0  0  0  0  0  0  0  0  0  0
   59.9280   34.3210   47.8080 C   0  0  0  0  0  0  0  0  0  0  0  0
   60.6113   35.1159   48.1414 H   0  0  0  0  0  0  0  0  0  0  0  0
   58.9110   34.6180   46.9040 C   0  0  0  0  0  0  0  0  0  0  0  0
   58.7887   35.6414   46.5196 H   0  0  0  0  0  0  0  0  0  0  0  0
   58.0510   33.6030   46.4930 C   0  0  0  0  0  0  0  0  0  0  0  0
   57.2752   33.8102   45.7412 H   0  0  0  0  0  0  0  0  0  0  0  0
   58.1700   32.3580   47.0200 N   0  0  0  0  0  0  0  0  0  0  0  0
   59.1210   32.0340   47.9390 C   0  0  0  0  0  0  0  0  0  0  0  0
   59.0590   30.8390   48.4640 N   0  0  0  0  0  0  0  0  0  0  0  0
   59.4240   30.4060   49.7830 C   0  0  0  0  0  0  0  0  0  0  0  0
   60.5750   29.9260   49.9610 O   0  0  0  0  0  0  0  0  0  0  0  0
   58.4480   30.4200   50.9030 C   0  0  0  0  0  0  0  0  0  0  0  0
   57.3910   31.3480   50.9090 C   0  0  0  0  0  0  0  0  0  0  0  0
   57.2800   32.0528   50.0718 H   0  0  0  0  0  0  0  0  0  0  0  0
   56.4810   31.3830   51.9680 C   0  0  0  0  0  0  0  0  0  0  0  0
   55.6628   32.1182   51.9623 H   0  0  0  0  0  0  0  0  0  0  0  0
   56.6050   30.4860   53.0380 C   0  0  0  0  0  0  0  0  0  0  0  0
   55.6560   30.5520   54.2050 C   0  0  0  0  0  0  0  0  0  0  0  0
   56.2350   30.5801   55.1399 H   0  0  0  0  0  0  0  0  0  0  0  0
   55.0408   31.4588   54.1091 H   0  0  0  0  0  0  0  0  0  0  0  0
   54.7620   29.3700   54.2220 N   0  0  0  0  0  0  0  0  0  0  0  0
   54.5230   28.8410   52.8620 C   0  0  0  0  0  0  0  0  0  0  0  0
   55.4887   28.7427   52.3445 H   0  0  0  0  0  0  0  0  0  0  0  0
   54.0227   27.8662   52.9599 H   0  0  0  0  0  0  0  0  0  0  0  0
   53.6280   29.7440   52.0540 C   0  0  0  0  0  0  0  0  0  0  0  0
   53.7080   29.7370   50.7970 O   0  0  0  0  0  0  0  0  0  0  0  0
   52.6340   30.5890   52.7450 C   0  0  0  0  0  0  0  0  0  0  0  0
   51.7660   31.4320   52.0310 C   0  0  0  0  0  0  0  0  0  0  0  0
   51.8108   31.4621   50.9323 H   0  0  0  0  0  0  0  0  0  0  0  0
   50.8450   32.2330   52.7140 C   0  0  0  0  0  0  0  0  0  0  0  0
   49.9890   33.0650   52.0040 O   0  0  0  0  0  0  0  0  0  0  0  0
   50.7840   32.1960   54.1090 C   0  0  0  0  0  0  0  0  0  0  0  0
   50.0577   32.8260   54.6434 H   0  0  0  0  0  0  0  0  0  0  0  0
   51.6430   31.3610   54.8270 C   0  0  0  0  0  0  0  0  0  0  0  0
   51.5848   31.3281   55.9250 H   0  0  0  0  0  0  0  0  0  0  0  0
   52.5800   30.5640   54.1520 C   0  0  0  0  0  0  0  0  0  0  0  0
   53.4820   29.6280   54.9250 C   0  0  0  0  0  0  0  0  0  0  0  0
   53.7011   30.0772   55.9049 H   0  0  0  0  0  0  0  0  0  0  0  0
   52.9573   28.6671   55.0312 H   0  0  0  0  0  0  0  0  0  0  0  0
   57.6500   29.5510   53.0330 C   0  0  0  0  0  0  0  0  0  0  0  0
   57.7531   28.8434   53.8689 H   0  0  0  0  0  0  0  0  0  0  0  0
   58.5620   29.5110   51.9740 C   0  0  0  0  0  0  0  0  0  0  0  0
   59.5750   28.6080   52.0180 F   0  0  0  0  0  0  0  0  0  0  0  0
  1  2  1  0
  2  3  1  0
  3  4  2  0
  4  5  1  0
  4  6  1  0
  6  7  1  0
  6  8  2  0
  8  9  1  0
  8 10  1  0
 10 11  1  0
 11 12  2  0
 12 13  1  0
 13 14  2  0
 13 15  1  0
 15 16  2  0
 16 17  1  0
 16 18  1  0
 18 19  1  0
 18 20  2  0
 20 21  1  0
 21 22  1  0
 21 23  1  0
 21 24  1  0
 24 25  1  0
 25 26  1  0
 25 27  1  0
 25 28  1  0
 28 29  2  0
 28 30  1  0
 30 31  2  0
 31 32  1  0
 31 33  1  0
 33 34  1  0
 33 35  2  0
 35 36  1  0
 35 37  1  0
 37 38  1  0
 37 39  2  0
 39 40  1  0
 40 41  1  0
 40 42  1  0
 20 43  1  0
 43 44  1  0
 43 45  2  0
 45 46  1  0
 11  3  1  0
 45 15  1  0
 40 24  1  0
 39 30  1  0
M  CHG  2  10  -1  34  -1
M  END
>  <UniqueID>  (15) 
14

>  <SMILES>  (15) 
O=C(/N=c1/[n-]cccc1O)c1ccc(CN2CC(=O)c3cc([O-])ccc3C2)cc1F

>  <Energy>  (15) 
76.27484529888994

>  <Genealogy>  (15) 
O=C(N=c1[n-]cccc1O)c1ccc(CN2CC(=O)c3cc([O-])ccc3C2)cc1F (protonated)
O=C(/N=c1/[n-]cccc1O)c1ccc(CN2CC(=O)c3cc([O-])ccc3C2)cc1F (cis-trans isomerization)
O=C(/N=c1/[n-]cccc1O)c1ccc(CN2CC(=O)c3cc([O-])ccc3C2)cc1F (3D coordinates assigned)
O=C(/N=c1/[n-]cccc1O)c1ccc(CN2CC(=O)c3cc([O-])ccc3C2)cc1F (nonaromatic ring conformer: 76.27484529888994 kcal/mol)

>  <smiles>  (15) 
O=C(N=c1[nH]cccc1O)c1ccc(CN2CC(=O)c3cc(O)ccc3C2)cc1F

>  <score_type>  (15) 
oracle

>  <origin>  (15) 
adg

>  <m_score__min__energy>  (15) 
-12.140000000000001

>  <m_primary>  (15) 
energy

$$$$
15:0
     RDKit          3D

 36 38  0  0  0  0  0  0  0  0999 V2000
   57.0700   33.1870   44.9030 N   0  0  0  0  0  0  0  0  0  0  0  0
   58.1530   32.7680   45.7020 N   0  0  0  0  0  0  0  0  0  0  0  0
   58.3460   31.4360   46.0130 C   0  0  0  0  0  0  0  0  0  0  0  0
   57.3990   30.5370   45.9290 N   0  0  0  0  0  0  0  0  0  0  0  0
   56.7030   30.0450   44.7750 C   0  0  0  0  0  0  0  0  0  0  0  0
   55.5600   30.4870   44.4790 O   0  0  0  0  0  0  0  0  0  0  0  0
   57.3130   28.9530   43.9570 C   0  0  0  0  0  0  0  0  0  0  0  0
   58.3960   28.2700   44.7450 C   0  0  0  0  0  0  0  0  0  0  0  0
   59.7420   28.6250   44.5520 C   0  0  0  0  0  0  0  0  0  0  0  0
   60.7440   28.0240   45.3210 C   0  0  0  0  0  0  0  0  0  0  0  0
   60.4100   27.0760   46.2910 C   0  0  0  0  0  0  0  0  0  0  0  0
   59.0720   26.7280   46.4970 C   0  0  0  0  0  0  0  0  0  0  0  0
   58.0660   27.3260   45.7320 C   0  0  0  0  0  0  0  0  0  0  0  0
   59.5650   31.0200   46.4610 N   0  0  0  0  0  0  0  0  0  0  0  0
   60.5570   31.9010   46.7500 C   0  0  0  0  0  0  0  0  0  0  0  0
   61.7860   31.4490   47.2600 C   0  0  0  0  0  0  0  0  0  0  0  0
   62.7930   32.3630   47.5810 C   0  0  0  0  0  0  0  0  0  0  0  0
   62.5830   33.7320   47.3970 C   0  0  0  0  0  0  0  0  0  0  0  0
   61.3650   34.1920   46.8870 C   0  0  0  0  0  0  0  0  0  0  0  0
   60.3440   33.2790   46.5610 C   0  0  0  0  0  0  0  0  0  0  0  0
   59.1180   33.6910   46.0160 C   0  0  0  0  0  0  0  0  0  0  0  0
   58.9200   34.9160   45.7800 O   0  0  0  0  0  0  0  0  0  0  0  0
   56.2880   32.5360   44.6630 H   0  0  0  0  0  0  0  0  0  0  0  0
   56.9220   34.1980   44.6940 H   0  0  0  0  0  0  0  0  0  0  0  0
   56.5376   28.2197   43.6906 H   0  0  0  0  0  0  0  0  0  0  0  0
   57.7463   29.3835   43.0422 H   0  0  0  0  0  0  0  0  0  0  0  0
   60.0081   29.3770   43.7946 H   0  0  0  0  0  0  0  0  0  0  0  0
   61.7972   28.2985   45.1615 H   0  0  0  0  0  0  0  0  0  0  0  0
   61.2001   26.6032   46.8929 H   0  0  0  0  0  0  0  0  0  0  0  0
   58.8101   25.9825   47.2622 H   0  0  0  0  0  0  0  0  0  0  0  0
   57.0133   27.0567   45.9033 H   0  0  0  0  0  0  0  0  0  0  0  0
   59.7160   30.0000   46.6440 H   0  0  0  0  0  0  0  0  0  0  0  0
   61.9558   30.3722   47.4070 H   0  0  0  0  0  0  0  0  0  0  0  0
   63.7533   32.0039   47.9795 H   0  0  0  0  0  0  0  0  0  0  0  0
   63.3769   34.4489   47.6537 H   0  0  0  0  0  0  0  0  0  0  0  0
   61.2041   35.2702   46.7401 H   0  0  0  0  0  0  0  0  0  0  0  0
  1  2  1  0
  2  3  1  0
  3  4  2  3
  4  5  1  0
  5  6  2  0
  5  7  1  0
  7  8  1  0
  8  9  2  0
  9 10  1  0
 10 11  2  0
 11 12  1  0
 12 13  2  0
  3 14  1  0
 14 15  1  0
 15 16  2  0
 16 17  1  0
 17 18  2  0
 18 19  1  0
 19 20  2  0
 20 21  1  0
 21 22  2  0
 21  2  1  0
 13  8  1  0
 20 15  1  0
  1 23  1  0
  1 24  1  0
  7 25  1  0
  7 26  1  0
  9 27  1  0
 10 28  1  0
 11 29  1  0
 12 30  1  0
 13 31  1  0
 14 32  1  0
 16 33  1  0
 17 34  1  0
 18 35  1  0
 19 36  1  0
M  END
>  <UniqueID>  (16) 
15

>  <SMILES>  (16) 
Nn1c(=NC(=O)Cc2ccccc2)[nH]c2ccccc2c1=O

>  <Energy>  (16) 
59.69063941350236

>  <Genealogy>  (16) 
Nn1c(=NC(=O)Cc2ccccc2)[nH]c2ccccc2c1=O (3D coordinates assigned)
Nn1c(=NC(=O)Cc2ccccc2)[nH]c2ccccc2c1=O (optimized conformer: 59.69063941350236 kcal/mol)

>  <smiles>  (16) 
Nn1c(=NC(=O)Cc2ccccc2)[nH]c2ccccc2c1=O

>  <score_type>  (16) 
oracle

>  <origin>  (16) 
adg

>  <m_score__min__energy>  (16) 
-7.8600000000000003

>  <m_primary>  (16) 
energy

$$$$
16:0
     RDKit          3D

 57 60  0  0  0  0  0  0  0  0999 V2000
   59.4882   30.1768   44.8247 H   0  0  0  0  0  0  0  0  0  0  0  0
   59.9120   29.2020   45.1080 C   0  0  0  0  0  0  0  0  0  0  0  0
   60.9900   29.1073   45.3051 H   0  0  0  0  0  0  0  0  0  0  0  0
   59.1150   28.1300   45.2130 C   0  0  0  0  0  0  0  0  0  0  0  0
   59.7080   26.9640   45.5660 N   0  0  0  0  0  0  0  0  0  0  0  0
   59.0060   25.8620   45.9090 C   0  0  0  0  0  0  0  0  0  0  0  0
   59.6350   24.8120   46.2070 O   0  0  0  0  0  0  0  0  0  0  0  0
   57.6390   25.9000   45.9610 N   0  0  0  0  0  0  0  0  0  0  0  0
   56.8840   24.6910   46.3480 C   0  0  0  0  0  0  0  0  0  0  0  0
   57.3409   24.2511   47.2467 H   0  0  0  0  0  0  0  0  0  0  0  0
   55.8407   24.9733   46.5526 H   0  0  0  0  0  0  0  0  0  0  0  0
   56.9050   23.6760   45.2330 C   0  0  0  0  0  0  0  0  0  0  0  0
   57.4880   22.4130   45.4340 C   0  0  0  0  0  0  0  0  0  0  0  0
   57.9589   22.1757   46.3993 H   0  0  0  0  0  0  0  0  0  0  0  0
   57.4730   21.4570   44.4150 C   0  0  0  0  0  0  0  0  0  0  0  0
   57.9347   20.4721   44.5787 H   0  0  0  0  0  0  0  0  0  0  0  0
   56.8720   21.7510   43.1880 C   0  0  0  0  0  0  0  0  0  0  0  0
   56.8594   20.9972   42.3870 H   0  0  0  0  0  0  0  0  0  0  0  0
   56.2870   23.0030   42.9790 C   0  0  0  0  0  0  0  0  0  0  0  0
   55.8142   23.2340   42.0130 H   0  0  0  0  0  0  0  0  0  0  0  0
   56.3020   23.9630   43.9970 C   0  0  0  0  0  0  0  0  0  0  0  0
   55.8396   24.9468   43.8287 H   0  0  0  0  0  0  0  0  0  0  0  0
   56.9790   27.0440   45.5850 C   0  0  0  0  0  0  0  0  0  0  0  0
   55.7140   27.0710   45.6220 O   0  0  0  0  0  0  0  0  0  0  0  0
   57.6920   28.1790   45.1160 C   0  0  0  0  0  0  0  0  0  0  0  0
   56.9940   29.2210   44.5870 C   0  0  0  0  0  0  0  0  0  0  0  0
   56.0395   28.9870   44.0928 H   0  0  0  0  0  0  0  0  0  0  0  0
   57.4060   30.6340   44.6190 C   0  0  0  0  0  0  0  0  0  0  0  0
   57.5270   31.3370   45.7650 N   0  0  0  0  0  0  0  0  0  0  0  0
   57.8060   32.6480   45.5310 C   0  0  0  0  0  0  0  0  0  0  0  0
   58.1030   33.6030   46.6480 C   0  0  0  0  0  0  0  0  0  0  0  0
   58.7741   34.3933   46.2806 H   0  0  0  0  0  0  0  0  0  0  0  0
   57.1592   34.0435   47.0018 H   0  0  0  0  0  0  0  0  0  0  0  0
   58.7750   32.8710   47.8090 C   0  0  0  0  0  0  0  0  0  0  0  0
   58.1721   32.9953   48.7206 H   0  0  0  0  0  0  0  0  0  0  0  0
   58.8586   31.8001   47.5719 H   0  0  0  0  0  0  0  0  0  0  0  0
   60.0650   33.4140   48.0170 O   0  0  0  0  0  0  0  0  0  0  0  0
   60.9380   33.0790   46.9540 C   0  0  0  0  0  0  0  0  0  0  0  0
   60.4160   33.1327   45.9872 H   0  0  0  0  0  0  0  0  0  0  0  0
   62.1130   34.0900   46.9100 C   0  0  0  0  0  0  0  0  0  0  0  0
   61.8504   34.9145   46.2308 H   0  0  0  0  0  0  0  0  0  0  0  0
   62.2859   34.4641   47.9299 H   0  0  0  0  0  0  0  0  0  0  0  0
   63.4040   33.4270   46.4140 C   0  0  0  0  0  0  0  0  0  0  0  0
   63.2316   33.0284   45.4033 H   0  0  0  0  0  0  0  0  0  0  0  0
   64.1965   34.1898   46.4143 H   0  0  0  0  0  0  0  0  0  0  0  0
   63.8390   32.3210   47.2940 N   0  0  0  0  0  0  0  0  0  0  0  0
   64.4900   32.7020   48.0210 H   0  0  0  0  0  0  0  0  0  0  0  0
   64.3820   31.6330   46.7190 H   0  0  0  0  0  0  0  0  0  0  0  0
   62.7370   31.6090   47.9790 C   0  0  0  0  0  0  0  0  0  0  0  0
   63.0362   30.5624   48.1376 H   0  0  0  0  0  0  0  0  0  0  0  0
   62.5471   32.1206   48.9341 H   0  0  0  0  0  0  0  0  0  0  0  0
   61.4370   31.6330   47.1660 C   0  0  0  0  0  0  0  0  0  0  0  0
   61.6183   31.1685   46.1855 H   0  0  0  0  0  0  0  0  0  0  0  0
   60.6679   31.0769   47.7221 H   0  0  0  0  0  0  0  0  0  0  0  0
   57.8970   33.0020   44.1860 C   0  0  0  0  0  0  0  0  0  0  0  0
   58.1226   34.0046   43.7938 H   0  0  0  0  0  0  0  0  0  0  0  0
   57.6010   31.6260   43.2710 S   0  0  0  0  0  0  0  0  0  0  0  0
  1  2  1  0
  2  3  1  0
  2  4  2  0
  4  5  1  0
  5  6  1  0
  6  7  2  0
  6  8  1  0
  8  9  1  0
  9 10  1  0
  9 11  1  0
  9 12  1  0
 12 13  2  0
 13 14  1  0
 13 15  1  0
 15 16  1  0
 15 17  2  0
 17 18  1  0
 17 19  1  0
 19 20  1  0
 19 21  2  0
 21 22  1  0
  8 23  1  0
 23 24  2  0
 23 25  1  0
 25 26  2  0
 26 27  1  0
 26 28  1  0
 28 29  2  0
 29 30  1  0
 30 31  1  0
 31 32  1  0
 31 33  1  0
 31 34  1  0
 34 35  1  0
 34 36  1  0
 34 37  1  0
 37 38  1  0
 38 39  1  0
 38 40  1  0
 40 41  1  0
 40 42  1  0
 40 43  1  0
 43 44  1  0
 43 45  1  0
 43 46  1  0
 46 47  1  0
 46 48  1  0
 46 49  1  0
 49 50  1  0
 49 51  1  0
 49 52  1  0
 52 53  1  0
 52 54  1  0
 30 55  2  0
 55 56  1  0
 55 57  1  0
 25  4  1  0
 57 28  1  0
 21 12  1  0
 52 38  1  0
M  CHG  2   5  -1  46   1
M  END
>  <UniqueID>  (17) 
16

>  <SMILES>  (17) 
C=c1[n-]c(=O)n(Cc2ccccc2)c(=O)/c1=C/c1nc(CCOC2CC[NH2+]CC2)cs1

>  <Energy>  (17) 
117.76506269118353

>  <Genealogy>  (17) 
C=c1[n-]c(=O)n(Cc2ccccc2)c(=O)c1=Cc1nc(CCOC2CC[NH2+]CC2)cs1 (protonated)
C=c1[n-]c(=O)n(Cc2ccccc2)c(=O)/c1=C/c1nc(CCOC2CC[NH2+]CC2)cs1 (cis-trans isomerization)
C=c1[n-]c(=O)n(Cc2ccccc2)c(=O)/c1=C/c1nc(CCOC2CC[NH2+]CC2)cs1 (3D coordinates assigned)
C=c1[n-]c(=O)n(Cc2ccccc2)c(=O)/c1=C/c1nc(CCOC2CC[NH2+]CC2)cs1 (nonaromatic ring conformer: 117.76506269118353 kcal/mol)

>  <smiles>  (17) 
C=c1[nH]c(=O)n(Cc2ccccc2)c(=O)c1=Cc1nc(CCOC2CCNCC2)cs1

>  <score_type>  (17) 
oracle

>  <origin>  (17) 
adg

>  <m_score__min__energy>  (17) 
-10.52

>  <m_primary>  (17) 
energy

$$$$
17:0
     RDKit          3D

 48 49  0  0  0  0  0  0  0  0999 V2000
   59.8230   35.5480   45.9950 C   0  0  0  0  0  0  0  0  0  0  0  0
   59.2110   34.5520   45.3500 C   0  0  0  0  0  0  0  0  0  0  0  0
   57.9450   33.9240   45.8770 C   0  0  0  0  0  0  0  0  0  0  0  0
   57.0080   33.5710   44.8000 N   0  0  0  0  0  0  0  0  0  0  0  0
   57.4680   32.0960   44.0010 S   0  0  0  0  0  0  0  0  0  0  0  0
   58.7950   31.6220   44.5260 O   0  0  0  0  0  0  0  0  0  0  0  0
   57.5820   32.3630   42.5260 O   0  0  0  0  0  0  0  0  0  0  0  0
   56.2630   30.8800   44.2710 N   0  0  0  0  0  0  0  0  0  0  0  0
   56.4930   29.6830   45.0180 C   0  0  0  0  0  0  0  0  0  0  0  0
   55.5660   28.8340   45.1060 O   0  0  0  0  0  0  0  0  0  0  0  0
   57.7450   29.4520   45.6830 N   0  0  0  0  0  0  0  0  0  0  0  0
   58.1590   28.1560   46.1430 C   0  0  0  0  0  0  0  0  0  0  0  0
   57.4210   27.0290   45.7540 C   0  0  0  0  0  0  0  0  0  0  0  0
   57.7840   25.7480   46.1940 C   0  0  0  0  0  0  0  0  0  0  0  0
   56.9740   24.5480   45.7850 C   0  0  0  0  0  0  0  0  0  0  0  0
   55.5560   24.9090   45.6920 C   0  0  0  0  0  0  0  0  0  0  0  0
   54.4370   25.1940   45.6200 N   0  0  0  0  0  0  0  0  0  0  0  0
   58.8750   25.6030   47.0600 C   0  0  0  0  0  0  0  0  0  0  0  0
   59.6010   26.7200   47.4750 C   0  0  0  0  0  0  0  0  0  0  0  0
   59.2440   28.0090   47.0350 C   0  0  0  0  0  0  0  0  0  0  0  0
   59.9190   29.1600   47.4780 O   0  0  0  0  0  0  0  0  0  0  0  0
   60.6780   30.0450   46.6550 C   0  0  0  0  0  0  0  0  0  0  0  0
   60.8470   31.3810   47.3280 C   0  0  0  0  0  0  0  0  0  0  0  0
   59.7750   31.9540   48.0320 C   0  0  0  0  0  0  0  0  0  0  0  0
   59.9240   33.1960   48.6540 C   0  0  0  0  0  0  0  0  0  0  0  0
   61.1410   33.8790   48.5730 C   0  0  0  0  0  0  0  0  0  0  0  0
   62.2100   33.3200   47.8660 C   0  0  0  0  0  0  0  0  0  0  0  0
   62.0640   32.0770   47.2410 C   0  0  0  0  0  0  0  0  0  0  0  0
   60.7452   35.9847   45.5841 H   0  0  0  0  0  0  0  0  0  0  0  0
   59.4050   35.9319   46.9373 H   0  0  0  0  0  0  0  0  0  0  0  0
   59.6417   34.1794   44.4089 H   0  0  0  0  0  0  0  0  0  0  0  0
   58.2071   33.0109   46.4315 H   0  0  0  0  0  0  0  0  0  0  0  0
   57.4492   34.6598   46.5272 H   0  0  0  0  0  0  0  0  0  0  0  0
   56.0600   33.4250   45.2180 H   0  0  0  0  0  0  0  0  0  0  0  0
   56.9430   34.3400   44.0950 H   0  0  0  0  0  0  0  0  0  0  0  0
   58.3110   30.2770   45.9790 H   0  0  0  0  0  0  0  0  0  0  0  0
   56.5477   27.1511   45.0964 H   0  0  0  0  0  0  0  0  0  0  0  0
   57.3236   24.1889   44.8058 H   0  0  0  0  0  0  0  0  0  0  0  0
   57.0965   23.7556   46.5380 H   0  0  0  0  0  0  0  0  0  0  0  0
   59.1614   24.6022   47.4153 H   0  0  0  0  0  0  0  0  0  0  0  0
   60.4591   26.5925   48.1513 H   0  0  0  0  0  0  0  0  0  0  0  0
   61.6693   29.6056   46.4699 H   0  0  0  0  0  0  0  0  0  0  0  0
   60.1432   30.1918   45.7050 H   0  0  0  0  0  0  0  0  0  0  0  0
   58.8140   31.4224   48.0938 H   0  0  0  0  0  0  0  0  0  0  0  0
   59.0825   33.6371   49.2083 H   0  0  0  0  0  0  0  0  0  0  0  0
   61.2576   34.8558   49.0652 H   0  0  0  0  0  0  0  0  0  0  0  0
   63.1671   33.8583   47.8012 H   0  0  0  0  0  0  0  0  0  0  0  0
   62.9048   31.6433   46.6797 H   0  0  0  0  0  0  0  0  0  0  0  0
  1  2  2  0
  2  3  1  0
  3  4  1  0
  4  5  1  0
  5  6  2  0
  5  7  2  0
  5  8  1  0
  8  9  1  0
  9 10  2  0
  9 11  1  0
 11 12  1  0
 12 13  2  0
 13 14  1  0
 14 15  1  0
 15 16  1  0
 16 17  3  0
 14 18  2  0
 18 19  1  0
 19 20  2  0
 20 21  1  0
 21 22  1  0
 22 23  1  0
 23 24  2  0
 24 25  1  0
 25 26  2  0
 26 27  1  0
 27 28  2  0
 20 12  1  0
 28 23  1  0
  1 29  1  0
  1 30  1  0
  2 31  1  0
  3 32  1  0
  3 33  1  0
  4 34  1  0
  4 35  1  0
 11 36  1  0
 13 37  1  0
 15 38  1  0
 15 39  1  0
 18 40  1  0
 19 41  1  0
 22 42  1  0
 22 43  1  0
 24 44  1  0
 25 45  1  0
 26 46  1  0
 27 47  1  0
 28 48  1  0
M  CHG  2   4   1   8  -1
M  END
>  <UniqueID>  (18) 
17

>  <SMILES>  (18) 
C=CC[NH2+]S(=O)(=O)[N-]C(=O)Nc1cc(CC#N)ccc1OCc1ccccc1

>  <Energy>  (18) 
46.893425903659

>  <Genealogy>  (18) 
C=CC[NH2+]S(=O)(=O)[N-]C(=O)Nc1cc(CC#N)ccc1OCc1ccccc1 (protonated)
C=CC[NH2+]S(=O)(=O)[N-]C(=O)Nc1cc(CC#N)ccc1OCc1ccccc1 (3D coordinates assigned)
C=CC[NH2+]S(=O)(=O)[N-]C(=O)Nc1cc(CC#N)ccc1OCc1ccccc1 (optimized conformer: 46.893425903659 kcal/mol)

>  <smiles>  (18) 
C=CCNS(=O)(=O)NC(=O)Nc1cc(CC#N)ccc1OCc1ccccc1

>  <score_type>  (18) 
oracle

>  <origin>  (18) 
adg

>  <m_score__min__energy>  (18) 
-8.4900000000000002

>  <m_primary>  (18) 
energy

$$$$
18:0
     RDKit          3D

 53 56  0  0  0  0  0  0  0  0999 V2000
   65.7630   32.6960   49.7490 C   0  0  0  0  0  0  0  0  0  0  0  0
   64.3580   33.0960   49.4380 C   0  0  0  0  0  0  0  0  0  0  0  0
   63.3420   33.2430   50.3790 C   0  0  0  0  0  0  0  0  0  0  0  0
   62.2200   33.5450   49.6360 C   0  0  0  0  0  0  0  0  0  0  0  0
   60.9080   33.7990   50.0070 C   0  0  0  0  0  0  0  0  0  0  0  0
   60.5600   33.7890   51.2170 O   0  0  0  0  0  0  0  0  0  0  0  0
   60.0010   34.0640   49.0190 N   0  0  0  0  0  0  0  0  0  0  0  0
   60.3460   34.0730   47.7140 N   0  0  0  0  0  0  0  0  0  0  0  0
   59.3140   34.3490   46.7010 C   0  0  0  0  0  0  0  0  0  0  0  0
   59.3100   33.2810   45.5820 C   0  0  0  0  0  0  0  0  0  0  0  0
   57.9640   33.3160   44.8210 C   0  0  0  0  0  0  0  0  0  0  0  0
   57.6400   31.9460   44.2170 C   0  0  0  0  0  0  0  0  0  0  0  0
   57.4210   30.9190   45.2720 N   0  0  0  0  0  0  0  0  0  0  0  0
   57.4360   29.5150   44.7580 C   0  0  0  0  0  0  0  0  0  0  0  0
   57.0230   28.4620   45.8320 C   0  0  0  0  0  0  0  0  0  0  0  0
   57.4140   27.0450   45.4010 C   0  0  0  0  0  0  0  0  0  0  0  0
   58.9410   26.8880   45.2640 C   0  0  0  0  0  0  0  0  0  0  0  0
   59.6670   28.2230   45.0250 C   0  0  0  0  0  0  0  0  0  0  0  0
   58.8360   29.1710   44.1500 C   0  0  0  0  0  0  0  0  0  0  0  0
   58.3280   31.0910   46.4480 C   0  0  0  0  0  0  0  0  0  0  0  0
   59.6150   31.8610   46.1190 C   0  0  0  0  0  0  0  0  0  0  0  0
   61.6460   33.8250   47.3320 C   0  0  0  0  0  0  0  0  0  0  0  0
   61.9910   33.8410   46.1190 O   0  0  0  0  0  0  0  0  0  0  0  0
   62.5820   33.5580   48.3250 C   0  0  0  0  0  0  0  0  0  0  0  0
   63.8900   33.2780   48.1820 N   0  0  0  0  0  0  0  0  0  0  0  0
   65.9002   32.6569   50.8397 H   0  0  0  0  0  0  0  0  0  0  0  0
   65.9658   31.7044   49.3182 H   0  0  0  0  0  0  0  0  0  0  0  0
   66.4577   33.4321   49.3182 H   0  0  0  0  0  0  0  0  0  0  0  0
   63.4175   33.1410   51.4717 H   0  0  0  0  0  0  0  0  0  0  0  0
   59.0120   34.2570   49.3000 H   0  0  0  0  0  0  0  0  0  0  0  0
   58.3284   34.3572   47.1894 H   0  0  0  0  0  0  0  0  0  0  0  0
   59.5354   35.3243   46.2431 H   0  0  0  0  0  0  0  0  0  0  0  0
   60.1219   33.5279   44.8821 H   0  0  0  0  0  0  0  0  0  0  0  0
   57.1630   33.5999   45.5194 H   0  0  0  0  0  0  0  0  0  0  0  0
   58.0413   34.0497   44.0051 H   0  0  0  0  0  0  0  0  0  0  0  0
   56.7283   32.0314   43.6074 H   0  0  0  0  0  0  0  0  0  0  0  0
   58.4959   31.6303   43.6024 H   0  0  0  0  0  0  0  0  0  0  0  0
   56.6739   29.4609   43.9667 H   0  0  0  0  0  0  0  0  0  0  0  0
   57.5274   28.7003   46.7800 H   0  0  0  0  0  0  0  0  0  0  0  0
   55.9303   28.4992   45.9527 H   0  0  0  0  0  0  0  0  0  0  0  0
   57.0490   26.3307   46.1536 H   0  0  0  0  0  0  0  0  0  0  0  0
   56.9612   26.8501   44.4177 H   0  0  0  0  0  0  0  0  0  0  0  0
   59.3309   26.4384   46.1891 H   0  0  0  0  0  0  0  0  0  0  0  0
   59.1274   26.2521   44.3860 H   0  0  0  0  0  0  0  0  0  0  0  0
   59.8546   28.7057   45.9955 H   0  0  0  0  0  0  0  0  0  0  0  0
   60.6111   28.0116   44.5015 H   0  0  0  0  0  0  0  0  0  0  0  0
   59.3985   30.1072   44.0195 H   0  0  0  0  0  0  0  0  0  0  0  0
   58.6563   28.6557   43.1949 H   0  0  0  0  0  0  0  0  0  0  0  0
   57.7838   31.6400   47.2305 H   0  0  0  0  0  0  0  0  0  0  0  0
   58.6271   30.0848   46.7769 H   0  0  0  0  0  0  0  0  0  0  0  0
   60.2221   31.9478   47.0322 H   0  0  0  0  0  0  0  0  0  0  0  0
   60.1562   31.3073   45.3377 H   0  0  0  0  0  0  0  0  0  0  0  0
   64.4290   33.2060   47.2900 H   0  0  0  0  0  0  0  0  0  0  0  0
  1  2  1  0
  2  3  2  0
  3  4  1  0
  4  5  1  0
  5  6  2  0
  5  7  1  0
  7  8  1  0
  8  9  1  0
  9 10  1  0
 10 11  1  0
 11 12  1  0
 12 13  1  0
 13 14  1  0
 14 15  1  0
 15 16  1  0
 16 17  1  0
 17 18  1  0
 18 19  1  0
 13 20  1  0
 20 21  1  0
  8 22  1  0
 22 23  2  0
 22 24  1  0
 24 25  1  0
 25  2  1  0
 24  4  2  0
 21 10  1  0
 19 14  1  0
  1 26  1  0
  1 27  1  0
  1 28  1  0
  3 29  1  0
  7 30  1  0
  9 31  1  0
  9 32  1  0
 10 33  1  0
 11 34  1  0
 11 35  1  0
 12 36  1  0
 12 37  1  0
 14 38  1  0
 15 39  1  0
 15 40  1  0
 16 41  1  0
 16 42  1  0
 17 43  1  0
 17 44  1  0
 18 45  1  0
 18 46  1  0
 19 47  1  0
 19 48  1  0
 20 49  1  0
 20 50  1  0
 21 51  1  0
 21 52  1  0
 25 53  1  0
M  END
>  <UniqueID>  (19) 
18

>  <SMILES>  (19) 
Cc1cc2c(=O)[nH]n(CC3CCN(C4CCCCC4)CC3)c(=O)c2[nH]1

>  <Energy>  (19) 
105.57574245335252

>  <Genealogy>  (19) 
Cc1cc2c(=O)[nH]n(CC3CCN(C4CCCCC4)CC3)c(=O)c2[nH]1 (3D coordinates assigned)
Cc1cc2c(=O)[nH]n(CC3CCN(C4CCCCC4)CC3)c(=O)c2[nH]1 (nonaromatic ring conformer: 105.57574245335252 kcal/mol)

>  <smiles>  (19) 
Cc1cc2c(=O)[nH]n(CC3CCN(C4CCCCC4)CC3)c(=O)c2[nH]1

>  <score_type>  (19) 
oracle

>  <origin>  (19) 
adg

>  <m_score__min__energy>  (19) 
-9.5800000000000001

>  <m_primary>  (19) 
energy

$$$$
19:0
     RDKit          3D

 33 34  0  0  0  0  0  0  0  0999 V2000
   60.6000   30.1540   46.4590 C   0  0  0  0  0  0  0  0  0  0  0  0
   59.3400   29.9230   46.0400 C   0  0  0  0  0  0  0  0  0  0  0  0
   59.0500   28.6510   45.5110 C   0  0  0  0  0  0  0  0  0  0  0  0
   57.7700   28.3300   45.0440 C   0  0  0  0  0  0  0  0  0  0  0  0
   57.4930   26.9450   44.5050 C   0  0  0  0  0  0  0  0  0  0  0  0
   57.3080   25.9540   45.6350 C   0  0  0  0  0  0  0  0  0  0  0  0
   56.0850   25.8650   46.3230 C   0  0  0  0  0  0  0  0  0  0  0  0
   55.0070   26.6650   45.9560 O   0  0  0  0  0  0  0  0  0  0  0  0
   55.9490   24.9910   47.3550 N   0  0  0  0  0  0  0  0  0  0  0  0
   56.9760   24.1950   47.7430 C   0  0  0  0  0  0  0  0  0  0  0  0
   56.8230   23.3950   48.7010 O   0  0  0  0  0  0  0  0  0  0  0  0
   58.1670   24.2620   47.0980 N   0  0  0  0  0  0  0  0  0  0  0  0
   58.3590   25.1170   46.0600 C   0  0  0  0  0  0  0  0  0  0  0  0
   59.4810   25.1470   45.4890 O   0  0  0  0  0  0  0  0  0  0  0  0
   56.7710   29.3110   45.1120 C   0  0  0  0  0  0  0  0  0  0  0  0
   55.6050   29.0790   44.6970 O   0  0  0  0  0  0  0  0  0  0  0  0
   57.0560   30.5330   45.6260 N   0  0  0  0  0  0  0  0  0  0  0  0
   58.2870   30.8870   46.0950 C   0  0  0  0  0  0  0  0  0  0  0  0
   58.4400   32.1350   46.5950 C   0  0  0  0  0  0  0  0  0  0  0  0
   58.0860   33.3800   45.8210 C   0  0  0  0  0  0  0  0  0  0  0  0
   58.0830   33.1170   44.3180 C   0  0  0  0  0  0  0  0  0  0  0  0
   60.8689   31.1345   46.8789 H   0  0  0  0  0  0  0  0  0  0  0  0
   61.3594   29.3620   46.3811 H   0  0  0  0  0  0  0  0  0  0  0  0
   59.8461   27.8933   45.4636 H   0  0  0  0  0  0  0  0  0  0  0  0
   56.5776   26.9718   43.8956 H   0  0  0  0  0  0  0  0  0  0  0  0
   58.3509   26.6267   43.8945 H   0  0  0  0  0  0  0  0  0  0  0  0
   55.1470   27.5170   45.4250 H   0  0  0  0  0  0  0  0  0  0  0  0
   58.8411   32.2466   47.6131 H   0  0  0  0  0  0  0  0  0  0  0  0
   57.0856   33.7198   46.1272 H   0  0  0  0  0  0  0  0  0  0  0  0
   58.8418   34.1495   46.0371 H   0  0  0  0  0  0  0  0  0  0  0  0
   58.0706   32.0323   44.1356 H   0  0  0  0  0  0  0  0  0  0  0  0
   57.1900   33.5748   43.8674 H   0  0  0  0  0  0  0  0  0  0  0  0
   58.9862   33.5543   43.8674 H   0  0  0  0  0  0  0  0  0  0  0  0
  1  2  2  0
  2  3  1  0
  3  4  2  0
  4  5  1  0
  5  6  1  0
  6  7  2  0
  7  8  1  0
  7  9  1  0
  9 10  1  0
 10 11  2  0
 10 12  1  0
 12 13  1  0
 13 14  2  0
  4 15  1  0
 15 16  2  0
 15 17  1  0
 17 18  1  0
 18 19  2  3
 19 20  1  0
 20 21  1  0
 18  2  1  0
 13  6  1  0
  1 22  1  0
  1 23  1  0
  3 24  1  0
  5 25  1  0
  5 26  1  0
  8 27  1  0
 19 28  1  0
 20 29  1  0
 20 30  1  0
 21 31  1  0
 21 32  1  0
 21 33  1  0
M  CHG  3   9  -1  12  -1  17  -1
M  END
>  <UniqueID>  (20) 
19

>  <SMILES>  (20) 
C=c1cc(Cc2c(O)[n-]c(=O)[n-]c2=O)c(=O)[n-]c1=CCC

>  <Energy>  (20) 
40.038375683740036

>  <Genealogy>  (20) 
C=c1cc(Cc2c(O)[n-]c(=O)[n-]c2=O)c(=O)[n-]c1=CCC (protonated)
C=c1cc(Cc2c(O)[n-]c(=O)[n-]c2=O)c(=O)[n-]c1=CCC (3D coordinates assigned)
C=c1cc(Cc2c(O)[n-]c(=O)[n-]c2=O)c(=O)[n-]c1=CCC (optimized conformer: 40.038375683740036 kcal/mol)

>  <smiles>  (20) 
C=c1cc(Cc2c(O)[nH]c(=O)[nH]c2=O)c(=O)[nH]c1=CCC

>  <score_type>  (20) 
oracle

>  <origin>  (20) 
adg

>  <m_score__min__energy>  (20) 
-13.210000000000001

>  <m_primary>  (20) 
energy

$$$$
20:0
     RDKit          3D

 52 55  0  0  0  0  0  0  0  0999 V2000
   58.5760   32.5520   49.9930 O   0  0  0  0  0  0  0  0  0  0  0  0
   58.9540   31.4800   49.4450 C   0  0  0  0  0  0  0  0  0  0  0  0
   59.1560   30.2370   50.2590 C   0  0  0  0  0  0  0  0  0  0  0  0
   59.0540   29.0370   49.4300 N   0  0  0  0  0  0  0  0  0  0  0  0
   60.1860   28.2030   49.1500 C   0  0  0  0  0  0  0  0  0  0  0  0
   61.2520   28.3300   49.8140 O   0  0  0  0  0  0  0  0  0  0  0  0
   60.1370   27.2370   48.0080 C   0  0  0  0  0  0  0  0  0  0  0  0
   59.6390   27.9420   46.7760 C   0  0  0  0  0  0  0  0  0  0  0  0
   60.5080   28.7450   46.0040 C   0  0  0  0  0  0  0  0  0  0  0  0
   60.0550   29.3650   44.8210 C   0  0  0  0  0  0  0  0  0  0  0  0
   58.7360   29.1820   44.3820 C   0  0  0  0  0  0  0  0  0  0  0  0
   57.8980   28.3720   45.1440 C   0  0  0  0  0  0  0  0  0  0  0  0
   56.6170   28.0650   44.8690 N   0  0  0  0  0  0  0  0  0  0  0  0
   56.2520   27.2460   45.8840 C   0  0  0  0  0  0  0  0  0  0  0  0
   54.9870   26.6920   45.9940 O   0  0  0  0  0  0  0  0  0  0  0  0
   57.2780   27.0340   46.7920 C   0  0  0  0  0  0  0  0  0  0  0  0
   58.3330   27.7680   46.2990 C   0  0  0  0  0  0  0  0  0  0  0  0
   59.2670   31.4490   48.0490 N   0  0  0  0  0  0  0  0  0  0  0  0
   58.8170   32.3910   47.0610 C   0  0  0  0  0  0  0  0  0  0  0  0
   57.8540   32.0300   46.1010 C   0  0  0  0  0  0  0  0  0  0  0  0
   57.4480   32.9480   45.1280 C   0  0  0  0  0  0  0  0  0  0  0  0
   58.0020   34.2280   45.0970 C   0  0  0  0  0  0  0  0  0  0  0  0
   58.9760   34.5900   46.0280 C   0  0  0  0  0  0  0  0  0  0  0  0
   59.4040   33.6740   47.0030 C   0  0  0  0  0  0  0  0  0  0  0  0
   60.4180   34.0890   47.9980 C   0  0  0  0  0  0  0  0  0  0  0  0
   60.0860   34.8960   48.9080 O   0  0  0  0  0  0  0  0  0  0  0  0
   61.7670   33.5910   47.9460 N   0  0  0  0  0  0  0  0  0  0  0  0
   62.8280   34.1190   48.7860 C   0  0  0  0  0  0  0  0  0  0  0  0
   64.0670   33.3100   48.4300 C   0  0  0  0  0  0  0  0  0  0  0  0
   63.5540   32.0460   47.7470 C   0  0  0  0  0  0  0  0  0  0  0  0
   62.1700   32.3970   47.2200 C   0  0  0  0  0  0  0  0  0  0  0  0
   60.1536   30.2695   50.7212 H   0  0  0  0  0  0  0  0  0  0  0  0
   58.3716   30.1948   51.0291 H   0  0  0  0  0  0  0  0  0  0  0  0
   58.1460   28.8400   48.9510 H   0  0  0  0  0  0  0  0  0  0  0  0
   61.1453   26.8393   47.8206 H   0  0  0  0  0  0  0  0  0  0  0  0
   59.4568   26.4091   48.2569 H   0  0  0  0  0  0  0  0  0  0  0  0
   61.5491   28.8882   46.3291 H   0  0  0  0  0  0  0  0  0  0  0  0
   60.7416   29.9968   44.2384 H   0  0  0  0  0  0  0  0  0  0  0  0
   58.3737   29.6644   43.4622 H   0  0  0  0  0  0  0  0  0  0  0  0
   57.2543   26.4173   47.7026 H   0  0  0  0  0  0  0  0  0  0  0  0
   57.4182   31.0201   46.1161 H   0  0  0  0  0  0  0  0  0  0  0  0
   56.6897   32.6603   44.3849 H   0  0  0  0  0  0  0  0  0  0  0  0
   57.6707   34.9522   44.3382 H   0  0  0  0  0  0  0  0  0  0  0  0
   59.4117   35.5996   45.9983 H   0  0  0  0  0  0  0  0  0  0  0  0
   62.9913   35.1860   48.5743 H   0  0  0  0  0  0  0  0  0  0  0  0
   62.5810   34.0392   49.8549 H   0  0  0  0  0  0  0  0  0  0  0  0
   64.7134   33.8798   47.7463 H   0  0  0  0  0  0  0  0  0  0  0  0
   64.6673   33.0743   49.3211 H   0  0  0  0  0  0  0  0  0  0  0  0
   64.2190   31.7605   46.9186 H   0  0  0  0  0  0  0  0  0  0  0  0
   63.5204   31.1937   48.4416 H   0  0  0  0  0  0  0  0  0  0  0  0
   62.2104   32.5997   46.1396 H   0  0  0  0  0  0  0  0  0  0  0  0
   61.4574   31.5718   47.3656 H   0  0  0  0  0  0  0  0  0  0  0  0
  1  2  2  0
  2  3  1  0
  3  4  1  0
  4  5  1  0
  5  6  2  0
  5  7  1  0
  7  8  1  0
  8  9  2  0
  9 10  1  0
 10 11  2  0
 11 12  1  0
 12 13  1  0
 13 14  1  0
 14 15  1  0
 14 16  2  0
 16 17  1  0
  2 18  1  0
 18 19  1  0
 19 20  2  0
 20 21  1  0
 21 22  2  0
 22 23  1  0
 23 24  2  0
 24 25  1  0
 25 26  2  0
 25 27  1  0
 27 28  1  0
 28 29  1  0
 29 30  1  0
 30 31  1  0
 17  8  1  0
 24 19  1  0
 31 27  1  0
 17 12  2  0
  3 32  1  0
  3 33  1  0
  4 34  1  0
  7 35  1  0
  7 36  1  0
  9 37  1  0
 10 38  1  0
 11 39  1  0
 16 40  1  0
 20 41  1  0
 21 42  1  0
 22 43  1  0
 23 44  1  0
 28 45  1  0
 28 46  1  0
 29 47  1  0
 29 48  1  0
 30 49  1  0
 30 50  1  0
 31 51  1  0
 31 52  1  0
M  CHG  3  13  -1  15  -1  18  -1
M  END
>  <UniqueID>  (21) 
20

>  <SMILES>  (21) 
O=C(CNC(=O)Cc1cccc2[n-]c([O-])cc12)[N-]c1ccccc1C(=O)N1CCCC1

>  <Energy>  (21) 
90.90885231020371

>  <Genealogy>  (21) 
O=C(CNC(=O)Cc1cccc2[n-]c([O-])cc12)[N-]c1ccccc1C(=O)N1CCCC1 (protonated)
O=C(CNC(=O)Cc1cccc2[n-]c([O-])cc12)[N-]c1ccccc1C(=O)N1CCCC1 (3D coordinates assigned)
O=C(CNC(=O)Cc1cccc2[n-]c([O-])cc12)[N-]c1ccccc1C(=O)N1CCCC1 (nonaromatic ring conformer: 90.90885231020371 kcal/mol)

>  <smiles>  (21) 
O=C(Cc1cccc2[nH]c(O)cc12)NCC(=O)Nc1ccccc1C(=O)N1CCCC1

>  <score_type>  (21) 
oracle

>  <origin>  (21) 
adg

>  <m_score__min__energy>  (21) 
-17.48

>  <m_primary>  (21) 
energy

$$$$
21:0
     RDKit          3D

 39 41  0  0  0  0  0  0  0  0999 V2000
   57.4651   33.2281   42.9173 H   0  0  0  0  0  0  0  0  0  0  0  0
   57.7530   32.6250   43.7910 C   0  0  0  0  0  0  0  0  0  0  0  0
   57.7280   33.1740   45.0290 N   0  0  0  0  0  0  0  0  0  0  0  0
   58.1250   32.4840   46.1290 C   0  0  0  0  0  0  0  0  0  0  0  0
   58.1360   33.1320   47.3680 C   0  0  0  0  0  0  0  0  0  0  0  0
   57.7397   34.1545   47.4540 H   0  0  0  0  0  0  0  0  0  0  0  0
   58.6460   32.4900   48.4940 C   0  0  0  0  0  0  0  0  0  0  0  0
   58.6174   32.9926   49.4720 H   0  0  0  0  0  0  0  0  0  0  0  0
   59.1970   31.2020   48.3840 C   0  0  0  0  0  0  0  0  0  0  0  0
   59.7830   30.5410   49.4740 O   0  0  0  0  0  0  0  0  0  0  0  0
   60.0100   29.1370   49.5360 C   0  0  0  0  0  0  0  0  0  0  0  0
   60.0613   28.8200   50.5881 H   0  0  0  0  0  0  0  0  0  0  0  0
   59.1854   28.6097   49.0339 H   0  0  0  0  0  0  0  0  0  0  0  0
   60.9587   28.8964   49.0339 H   0  0  0  0  0  0  0  0  0  0  0  0
   59.1760   30.5500   47.1460 C   0  0  0  0  0  0  0  0  0  0  0  0
   59.6408   29.5574   47.0523 H   0  0  0  0  0  0  0  0  0  0  0  0
   58.5700   31.1400   46.0130 C   0  0  0  0  0  0  0  0  0  0  0  0
   58.4760   30.5100   44.7310 C   0  0  0  0  0  0  0  0  0  0  0  0
   58.6340   29.2300   44.5040 N   0  0  0  0  0  0  0  0  0  0  0  0
   58.0990   28.0960   45.2000 C   0  0  0  0  0  0  0  0  0  0  0  0
   58.9370   27.2380   45.9250 C   0  0  0  0  0  0  0  0  0  0  0  0
   60.0235   27.4094   45.9325 H   0  0  0  0  0  0  0  0  0  0  0  0
   58.3960   26.1660   46.6380 C   0  0  0  0  0  0  0  0  0  0  0  0
   59.0640   25.4869   47.1882 H   0  0  0  0  0  0  0  0  0  0  0  0
   57.0120   25.9450   46.6610 C   0  0  0  0  0  0  0  0  0  0  0  0
   56.5360   24.8140   47.4100 N   0  0  0  0  0  0  0  0  0  0  0  0
   56.8440   23.1340   47.1100 S   0  0  0  0  0  0  0  0  0  0  0  0
   57.0200   22.4020   48.4110 O   0  0  0  0  0  0  0  0  0  0  0  0
   58.0700   22.9780   46.2550 O   0  0  0  0  0  0  0  0  0  0  0  0
   55.4490   22.4450   46.2510 C   0  0  0  0  0  0  0  0  0  0  0  0
   54.7118   22.0809   46.9817 H   0  0  0  0  0  0  0  0  0  0  0  0
   54.9882   23.2191   45.6198 H   0  0  0  0  0  0  0  0  0  0  0  0
   55.7836   21.6086   45.6198 H   0  0  0  0  0  0  0  0  0  0  0  0
   56.1640   26.8460   45.9730 C   0  0  0  0  0  0  0  0  0  0  0  0
   54.7820   26.7140   45.9960 O   0  0  0  0  0  0  0  0  0  0  0  0
   56.7150   27.9160   45.2570 C   0  0  0  0  0  0  0  0  0  0  0  0
   56.0518   28.6212   44.7347 H   0  0  0  0  0  0  0  0  0  0  0  0
   58.1420   31.3000   43.6220 C   0  0  0  0  0  0  0  0  0  0  0  0
   58.1878   30.8691   42.6110 H   0  0  0  0  0  0  0  0  0  0  0  0
  1  2  1  0
  2  3  1  0
  3  4  1  0
  4  5  2  0
  5  6  1  0
  5  7  1  0
  7  8  1  0
  7  9  2  0
  9 10  1  0
 10 11  1  0
 11 12  1  0
 11 13  1  0
 11 14  1  0
  9 15  1  0
 15 16  1  0
 15 17  2  0
 17 18  1  0
 18 19  2  0
 19 20  1  0
 20 21  2  0
 21 22  1  0
 21 23  1  0
 23 24  1  0
 23 25  2  0
 25 26  1  0
 26 27  1  0
 27 28  2  0
 27 29  2  0
 27 30  1  0
 30 31  1  0
 30 32  1  0
 30 33  1  0
 25 34  1  0
 34 35  1  0
 34 36  2  0
 36 37  1  0
 18 38  1  0
 38 39  1  0
 38  2  2  0
 17  4  1  0
 36 20  1  0
M  CHG  3   3  -1  26  -1  35  -1
M  END
>  <UniqueID>  (22) 
21

>  <SMILES>  (22) 
COc1ccc2[n-]cc/c(=N/c3ccc([N-]S(C)(=O)=O)c([O-])c3)c2c1

>  <Energy>  (22) 
66.75689233451126

>  <Genealogy>  (22) 
COc1ccc2[n-]ccc(=Nc3ccc([N-]S(C)(=O)=O)c([O-])c3)c2c1 (protonated)
COc1ccc2[n-]cc/c(=N/c3ccc([N-]S(C)(=O)=O)c([O-])c3)c2c1 (cis-trans isomerization)
COc1ccc2[n-]cc/c(=N/c3ccc([N-]S(C)(=O)=O)c([O-])c3)c2c1 (3D coordinates assigned)
COc1ccc2[n-]cc/c(=N/c3ccc([N-]S(C)(=O)=O)c([O-])c3)c2c1 (optimized conformer: 66.75689233451126 kcal/mol)

>  <smiles>  (22) 
COc1ccc2[nH]ccc(=Nc3ccc(NS(C)(=O)=O)c(O)c3)c2c1

>  <score_type>  (22) 
oracle

>  <origin>  (22) 
adg

>  <m_score__min__energy>  (22) 
-13.699999999999999

>  <m_primary>  (22) 
energy

$$$$
22:0
     RDKit          3D

 61 65  0  0  0  0  0  0  0  0999 V2000
   58.8100   32.2830   50.2140 C   0  0  0  0  0  0  0  0  0  0  0  0
   59.1360   33.3810   49.3660 O   0  0  0  0  0  0  0  0  0  0  0  0
   58.9350   33.3950   47.9770 C   0  0  0  0  0  0  0  0  0  0  0  0
   59.2640   34.5080   47.1790 C   0  0  0  0  0  0  0  0  0  0  0  0
   59.0260   34.4860   45.8020 C   0  0  0  0  0  0  0  0  0  0  0  0
   58.4800   33.3470   45.1950 C   0  0  0  0  0  0  0  0  0  0  0  0
   58.1510   32.2270   45.9920 C   0  0  0  0  0  0  0  0  0  0  0  0
   58.3830   32.2580   47.3750 C   0  0  0  0  0  0  0  0  0  0  0  0
   57.5990   31.0310   45.3310 C   0  0  0  0  0  0  0  0  0  0  0  0
   57.1330   29.9330   45.9870 N   0  0  0  0  0  0  0  0  0  0  0  0
   56.7170   28.9810   45.1210 C   0  0  0  0  0  0  0  0  0  0  0  0
   56.2670   27.8310   45.5340 N   0  0  0  0  0  0  0  0  0  0  0  0
   57.0120   26.6320   45.8060 C   0  0  0  0  0  0  0  0  0  0  0  0
   57.0970   25.7610   44.9030 O   0  0  0  0  0  0  0  0  0  0  0  0
   57.7540   26.4060   47.0950 C   0  0  0  0  0  0  0  0  0  0  0  0
   58.2730   27.6680   47.6180 N   0  0  0  0  0  0  0  0  0  0  0  0
   59.5650   27.8790   48.2030 C   0  0  0  0  0  0  0  0  0  0  0  0
   60.0620   26.9570   48.9010 O   0  0  0  0  0  0  0  0  0  0  0  0
   60.3530   29.1100   47.9750 C   0  0  0  0  0  0  0  0  0  0  0  0
   61.0730   29.7130   49.0190 C   0  0  0  0  0  0  0  0  0  0  0  0
   61.8030   30.8830   48.7910 C   0  0  0  0  0  0  0  0  0  0  0  0
   61.8590   31.4440   47.5090 C   0  0  0  0  0  0  0  0  0  0  0  0
   62.8100   32.9040   47.2150 S   0  0  0  0  0  0  0  0  0  0  0  0
   64.0550   32.5350   46.4570 O   0  0  0  0  0  0  0  0  0  0  0  0
   62.0100   33.8510   46.3620 O   0  0  0  0  0  0  0  0  0  0  0  0
   63.2620   33.6930   48.7090 N   0  0  0  0  0  0  0  0  0  0  0  0
   62.1080   33.7590   49.6280 C   0  0  0  0  0  0  0  0  0  0  0  0
   62.5770   33.9340   51.0820 C   0  0  0  0  0  0  0  0  0  0  0  0
   63.4110   32.8830   51.5550 O   0  0  0  0  0  0  0  0  0  0  0  0
   64.0810   32.1740   50.5220 C   0  0  0  0  0  0  0  0  0  0  0  0
   64.4530   33.0610   49.3210 C   0  0  0  0  0  0  0  0  0  0  0  0
   61.1690   30.8250   46.4560 C   0  0  0  0  0  0  0  0  0  0  0  0
   60.4250   29.6640   46.6870 C   0  0  0  0  0  0  0  0  0  0  0  0
   56.9460   29.4540   43.5100 S   0  0  0  0  0  0  0  0  0  0  0  0
   57.5520   30.9550   43.9510 C   0  0  0  0  0  0  0  0  0  0  0  0
   58.1540   31.9910   43.0540 C   0  0  0  0  0  0  0  0  0  0  0  0
   58.1100   33.3800   43.7210 C   0  0  0  0  0  0  0  0  0  0  0  0
   58.9018   32.5921   51.2657 H   0  0  0  0  0  0  0  0  0  0  0  0
   57.7773   31.9603   50.0154 H   0  0  0  0  0  0  0  0  0  0  0  0
   59.4993   31.4491   50.0154 H   0  0  0  0  0  0  0  0  0  0  0  0
   59.7110   35.3999   47.6424 H   0  0  0  0  0  0  0  0  0  0  0  0
   59.2687   35.3679   45.1910 H   0  0  0  0  0  0  0  0  0  0  0  0
   58.1294   31.3826   47.9910 H   0  0  0  0  0  0  0  0  0  0  0  0
   57.0694   25.9630   47.8333 H   0  0  0  0  0  0  0  0  0  0  0  0
   58.5984   25.7274   46.9038 H   0  0  0  0  0  0  0  0  0  0  0  0
   61.0625   29.2619   50.0222 H   0  0  0  0  0  0  0  0  0  0  0  0
   62.3364   31.3658   49.6231 H   0  0  0  0  0  0  0  0  0  0  0  0
   61.4730   34.6127   49.3487 H   0  0  0  0  0  0  0  0  0  0  0  0
   61.5418   32.8191   49.5509 H   0  0  0  0  0  0  0  0  0  0  0  0
   63.1375   34.8779   51.1527 H   0  0  0  0  0  0  0  0  0  0  0  0
   61.6733   33.9277   51.7091 H   0  0  0  0  0  0  0  0  0  0  0  0
   65.0037   31.7416   50.9364 H   0  0  0  0  0  0  0  0  0  0  0  0
   63.3904   31.4002   50.1555 H   0  0  0  0  0  0  0  0  0  0  0  0
   65.1388   33.8508   49.6616 H   0  0  0  0  0  0  0  0  0  0  0  0
   64.9276   32.4229   48.5611 H   0  0  0  0  0  0  0  0  0  0  0  0
   61.2135   31.2548   45.4444 H   0  0  0  0  0  0  0  0  0  0  0  0
   59.8926   29.1815   45.8541 H   0  0  0  0  0  0  0  0  0  0  0  0
   59.2003   31.7237   42.8447 H   0  0  0  0  0  0  0  0  0  0  0  0
   57.5759   32.0288   42.1189 H   0  0  0  0  0  0  0  0  0  0  0  0
   58.8159   34.0418   43.1978 H   0  0  0  0  0  0  0  0  0  0  0  0
   57.0743   33.7440   43.6514 H   0  0  0  0  0  0  0  0  0  0  0  0
  1  2  1  0
  2  3  1  0
  3  4  2  0
  4  5  1  0
  5  6  2  0
  6  7  1  0
  7  8  2  0
  7  9  1  0
  9 10  1  0
 10 11  1  0
 11 12  2  3
 12 13  1  0
 13 14  2  0
 13 15  1  0
 15 16  1  0
 16 17  1  0
 17 18  2  0
 17 19  1  0
 19 20  2  0
 20 21  1  0
 21 22  2  0
 22 23  1  0
 23 24  2  0
 23 25  2  0
 23 26  1  0
 26 27  1  0
 27 28  1  0
 28 29  1  0
 29 30  1  0
 30 31  1  0
 22 32  1  0
 32 33  2  0
 11 34  1  0
 34 35  1  0
 35 36  1  0
 36 37  1  0
  8  3  1  0
 35  9  2  0
 37  6  1  0
 33 19  1  0
 31 26  1  0
  1 38  1  0
  1 39  1  0
  1 40  1  0
  4 41  1  0
  5 42  1  0
  8 43  1  0
 15 44  1  0
 15 45  1  0
 20 46  1  0
 21 47  1  0
 27 48  1  0
 27 49  1  0
 28 50  1  0
 28 51  1  0
 30 52  1  0
 30 53  1  0
 31 54  1  0
 31 55  1  0
 32 56  1  0
 33 57  1  0
 36 58  1  0
 36 59  1  0
 37 60  1  0
 37 61  1  0
M  CHG  2  10  -1  16  -1
M  END
>  <UniqueID>  (23) 
22

>  <SMILES>  (23) 
COc1ccc2c(c1)-c1[n-]c(=NC(=O)C[N-]C(=O)c3ccc(S(=O)(=O)N4CCOCC4)cc3)sc1CC2

>  <Energy>  (23) 
122.67773557571192

>  <Genealogy>  (23) 
COc1ccc2c(c1)-c1[n-]c(=NC(=O)C[N-]C(=O)c3ccc(S(=O)(=O)N4CCOCC4)cc3)sc1CC2 (protonated)
COc1ccc2c(c1)-c1[n-]c(=NC(=O)C[N-]C(=O)c3ccc(S(=O)(=O)N4CCOCC4)cc3)sc1CC2 (3D coordinates assigned)
COc1ccc2c(c1)-c1[n-]c(=NC(=O)C[N-]C(=O)c3ccc(S(=O)(=O)N4CCOCC4)cc3)sc1CC2 (nonaromatic ring conformer: 122.67773557571192 kcal/mol)

>  <smiles>  (23) 
COc1ccc2c(c1)-c1[nH]c(=NC(=O)CNC(=O)c3ccc(S(=O)(=O)N4CCOCC4)cc3)sc1CC2

>  <score_type>  (23) 
oracle

>  <origin>  (23) 
adg

>  <m_score__min__energy>  (23) 
-12.98

>  <m_primary>  (23) 
energy

$$$$
23:0
     RDKit          3D

 56 59  0  0  1  0  0  0  0  0999 V2000
   63.5670   29.6790   51.5480 C   0  0  0  0  0  0  0  0  0  0  0  0
   64.2200   30.8630   50.9060 C   0  0  0  0  0  0  0  0  0  0  0  0
   65.5650   31.0490   51.0500 N   0  0  0  0  0  0  0  0  0  0  0  0
   66.2070   32.0810   50.5040 C   0  0  0  0  0  0  0  0  0  0  0  0
   67.4560   32.2330   50.6520 O   0  0  0  0  0  0  0  0  0  0  0  0
   65.4490   32.9880   49.7650 C   0  0  0  0  0  0  0  0  0  0  0  0
   64.0900   32.8330   49.5970 C   0  0  0  0  0  0  0  0  0  0  0  0
   63.2480   33.7760   48.8170 C   0  0  0  0  0  0  0  0  0  0  0  0
   61.9400   33.2700   48.5050 N   0  0  0  0  0  0  0  0  0  0  0  0
   61.9610   32.8590   47.1230 C   0  0  0  0  0  0  0  0  0  0  0  0
   61.1220   33.8130   46.3000 C   0  0  0  0  0  0  0  0  0  0  0  0
   59.6790   33.5560   46.7050 C   0  0  0  0  0  0  0  0  0  0  0  0
   59.5690   33.8160   48.1800 C   0  0  0  0  0  0  0  0  0  0  0  0
   60.8920   34.2220   48.7910 C   0  0  0  0  0  0  0  0  0  0  0  0
   59.3500   32.2380   46.2850 N   0  0  0  0  0  0  0  0  0  0  0  0
   57.9680   32.1240   45.9700 C   0  0  2  0  0  0  0  0  0  0  0  0
   57.7760   30.8060   45.2960 C   0  0  0  0  0  0  0  0  0  0  0  0
   56.6490   30.4050   44.8950 O   0  0  0  0  0  0  0  0  0  0  0  0
   58.9600   30.0080   45.1240 N   0  0  0  0  0  0  0  0  0  0  0  0
   58.9340   28.7090   44.4890 C   0  0  0  0  0  0  0  0  0  0  0  0
   58.5240   27.6420   45.4090 C   0  0  0  0  0  0  0  0  0  0  0  0
   59.3820   26.9660   46.2530 C   0  0  0  0  0  0  0  0  0  0  0  0
   58.8780   25.9770   47.0750 C   0  0  0  0  0  0  0  0  0  0  0  0
   57.5380   25.6290   47.0940 C   0  0  0  0  0  0  0  0  0  0  0  0
   56.6840   26.3010   46.2540 C   0  0  0  0  0  0  0  0  0  0  0  0
   57.1850   27.2870   45.4340 C   0  0  0  0  0  0  0  0  0  0  0  0
   57.6170   33.2240   44.9580 C   0  0  0  0  0  0  0  0  0  0  0  0
   58.5380   34.5860   45.7390 S   0  0  0  0  0  0  0  0  0  0  0  0
   63.5280   31.7460   50.1940 N   0  0  0  0  0  0  0  0  0  0  0  0
   63.6219   29.7785   52.6421 H   0  0  0  0  0  0  0  0  0  0  0  0
   62.5132   29.6280   51.2368 H   0  0  0  0  0  0  0  0  0  0  0  0
   64.0861   28.7605   51.2368 H   0  0  0  0  0  0  0  0  0  0  0  0
   65.9497   33.8516   49.3030 H   0  0  0  0  0  0  0  0  0  0  0  0
   63.1310   34.7003   49.4019 H   0  0  0  0  0  0  0  0  0  0  0  0
   63.7615   33.9435   47.8588 H   0  0  0  0  0  0  0  0  0  0  0  0
   62.9969   32.8692   46.7531 H   0  0  0  0  0  0  0  0  0  0  0  0
   61.5508   31.8420   47.0367 H   0  0  0  0  0  0  0  0  0  0  0  0
   61.4011   34.8542   46.5190 H   0  0  0  0  0  0  0  0  0  0  0  0
   61.2726   33.6556   45.2218 H   0  0  0  0  0  0  0  0  0  0  0  0
   58.8409   34.6241   48.3435 H   0  0  0  0  0  0  0  0  0  0  0  0
   59.2472   32.8819   48.6636 H   0  0  0  0  0  0  0  0  0  0  0  0
   61.1835   35.2022   48.3857 H   0  0  0  0  0  0  0  0  0  0  0  0
   60.7615   34.2629   49.8825 H   0  0  0  0  0  0  0  0  0  0  0  0
   59.9050   31.9430   45.4660 H   0  0  0  0  0  0  0  0  0  0  0  0
   57.3445   32.2116   46.8720 H   0  0  0  0  0  0  0  0  0  0  0  0
   59.8810   30.3540   45.4590 H   0  0  0  0  0  0  0  0  0  0  0  0
   58.2254   28.7415   43.6482 H   0  0  0  0  0  0  0  0  0  0  0  0
   59.9553   28.4828   44.1487 H   0  0  0  0  0  0  0  0  0  0  0  0
   60.4540   27.2119   46.2707 H   0  0  0  0  0  0  0  0  0  0  0  0
   59.5704   25.4433   47.7427 H   0  0  0  0  0  0  0  0  0  0  0  0
   57.1682   24.8374   47.7623 H   0  0  0  0  0  0  0  0  0  0  0  0
   55.6122   26.0543   46.2366 H   0  0  0  0  0  0  0  0  0  0  0  0
   56.4895   27.8179   44.7674 H   0  0  0  0  0  0  0  0  0  0  0  0
   57.9877   32.9951   43.9480 H   0  0  0  0  0  0  0  0  0  0  0  0
   56.5446   33.4004   44.7879 H   0  0  0  0  0  0  0  0  0  0  0  0
   62.4970   31.5920   50.0910 H   0  0  0  0  0  0  0  0  0  0  0  0
  1  2  1  0
  2  3  2  0
  3  4  1  0
  4  5  2  0
  4  6  1  0
  6  7  2  0
  7  8  1  0
  8  9  1  0
  9 10  1  0
 10 11  1  0
 11 12  1  0
 12 13  1  0
 13 14  1  0
 12 15  1  0
 15 16  1  0
 16 17  1  0
 17 18  2  0
 17 19  1  0
 19 20  1  0
 20 21  1  0
 21 22  2  0
 22 23  1  0
 23 24  2  0
 24 25  1  0
 25 26  2  0
 16 27  1  0
 27 28  1  0
  7 29  1  0
 29  2  1  0
 14  9  1  0
 26 21  1  0
 28 12  1  0
  1 30  1  0
  1 31  1  0
  1 32  1  0
  6 33  1  0
  8 34  1  0
  8 35  1  0
 10 36  1  0
 10 37  1  0
 11 38  1  0
 11 39  1  0
 13 40  1  0
 13 41  1  0
 14 42  1  0
 14 43  1  0
 15 44  1  0
 16 45  1  1
 19 46  1  0
 20 47  1  0
 20 48  1  0
 22 49  1  0
 23 50  1  0
 24 51  1  0
 25 52  1  0
 26 53  1  0
 27 54  1  0
 27 55  1  0
 29 56  1  0
M  END
>  <smiles>  (24) 
Cc1nc(=O)cc(CN2CCC3(CC2)NC(C(=O)NCc2ccccc2)CS3)[nH]1

>  <score_type>  (24) 
oracle

>  <origin>  (24) 
adg

>  <m_score__min__energy>  (24) 
-9.5299999999999994

>  <m_primary>  (24) 
energy

$$$$
24:0
     RDKit          3D

 48 50  0  0  0  0  0  0  0  0999 V2000
   60.9860   34.3860   46.3830 N   0  0  0  0  0  0  0  0  0  0  0  0
   59.3030   34.3690   45.9940 S   0  0  0  0  0  0  0  0  0  0  0  0
   59.0680   35.1850   44.7530 O   0  0  0  0  0  0  0  0  0  0  0  0
   58.5180   34.9740   47.1230 O   0  0  0  0  0  0  0  0  0  0  0  0
   58.7770   32.7080   45.7320 C   0  0  0  0  0  0  0  0  0  0  0  0
   57.8920   32.3990   44.6900 C   0  0  0  0  0  0  0  0  0  0  0  0
   57.4890   31.0780   44.4780 C   0  0  0  0  0  0  0  0  0  0  0  0
   57.9770   30.0440   45.2960 C   0  0  0  0  0  0  0  0  0  0  0  0
   57.5550   28.6390   45.0780 C   0  0  0  0  0  0  0  0  0  0  0  0
   57.3960   28.2190   43.9010 O   0  0  0  0  0  0  0  0  0  0  0  0
   57.3710   27.7210   46.1650 N   0  0  0  0  0  0  0  0  0  0  0  0
   57.1530   26.3070   46.0510 C   0  0  0  0  0  0  0  0  0  0  0  0
   58.2170   25.3970   46.0680 C   0  0  0  0  0  0  0  0  0  0  0  0
   57.9610   24.0300   45.9640 C   0  0  0  0  0  0  0  0  0  0  0  0
   56.6790   23.5650   45.8510 N   0  0  0  0  0  0  0  0  0  0  0  0
   56.4540   22.1130   45.7660 C   0  0  0  0  0  0  0  0  0  0  0  0
   57.3690   21.3930   46.7050 C   0  0  0  0  0  0  0  0  0  0  0  0
   58.3420   20.7310   46.2540 O   0  0  0  0  0  0  0  0  0  0  0  0
   57.1200   21.4480   48.1120 N   0  0  0  0  0  0  0  0  0  0  0  0
   56.5440   22.6130   48.7680 C   0  0  0  0  0  0  0  0  0  0  0  0
   55.1370   22.3000   49.1850 C   0  0  0  0  0  0  0  0  0  0  0  0
   54.8720   21.8220   50.4790 C   0  0  0  0  0  0  0  0  0  0  0  0
   53.5670   21.4910   50.8540 C   0  0  0  0  0  0  0  0  0  0  0  0
   52.5190   21.6250   49.9380 C   0  0  0  0  0  0  0  0  0  0  0  0
   52.7770   22.0860   48.6440 C   0  0  0  0  0  0  0  0  0  0  0  0
   54.0810   22.4180   48.2650 C   0  0  0  0  0  0  0  0  0  0  0  0
   55.6200   24.4390   45.8760 C   0  0  0  0  0  0  0  0  0  0  0  0
   54.4350   24.0120   45.8120 O   0  0  0  0  0  0  0  0  0  0  0  0
   55.8450   25.8190   45.9760 C   0  0  0  0  0  0  0  0  0  0  0  0
   54.7690   26.7030   45.9960 O   0  0  0  0  0  0  0  0  0  0  0  0
   58.8560   30.3610   46.3450 C   0  0  0  0  0  0  0  0  0  0  0  0
   59.2570   31.6830   46.5570 C   0  0  0  0  0  0  0  0  0  0  0  0
   61.1170   33.7400   47.1940 H   0  0  0  0  0  0  0  0  0  0  0  0
   57.5134   33.1991   44.0369 H   0  0  0  0  0  0  0  0  0  0  0  0
   56.7850   30.8455   43.6654 H   0  0  0  0  0  0  0  0  0  0  0  0
   59.2513   25.7591   46.1631 H   0  0  0  0  0  0  0  0  0  0  0  0
   58.7991   23.3176   45.9729 H   0  0  0  0  0  0  0  0  0  0  0  0
   55.4104   21.8907   46.0335 H   0  0  0  0  0  0  0  0  0  0  0  0
   56.6577   21.7776   44.7384 H   0  0  0  0  0  0  0  0  0  0  0  0
   57.1422   22.8689   49.6550 H   0  0  0  0  0  0  0  0  0  0  0  0
   56.5421   23.4651   48.0724 H   0  0  0  0  0  0  0  0  0  0  0  0
   55.6949   21.7078   51.2000 H   0  0  0  0  0  0  0  0  0  0  0  0
   53.3640   21.1246   51.8711 H   0  0  0  0  0  0  0  0  0  0  0  0
   51.4918   21.3677   50.2357 H   0  0  0  0  0  0  0  0  0  0  0  0
   51.9527   22.1877   47.9227 H   0  0  0  0  0  0  0  0  0  0  0  0
   54.2813   22.7728   47.2432 H   0  0  0  0  0  0  0  0  0  0  0  0
   59.2310   29.5638   47.0036 H   0  0  0  0  0  0  0  0  0  0  0  0
   59.9528   31.9195   47.3755 H   0  0  0  0  0  0  0  0  0  0  0  0
  1  2  1  0
  2  3  2  0
  2  4  2  0
  2  5  1  0
  5  6  2  0
  6  7  1  0
  7  8  2  0
  8  9  1  0
  9 10  2  0
  9 11  1  0
 11 12  1  0
 12 13  1  0
 13 14  2  0
 14 15  1  0
 15 16  1  0
 16 17  1  0
 17 18  2  0
 17 19  1  0
 19 20  1  0
 20 21  1  0
 21 22  2  0
 22 23  1  0
 23 24  2  0
 24 25  1  0
 25 26  2  0
 15 27  1  0
 27 28  2  0
 27 29  1  0
 29 30  1  0
  8 31  1  0
 31 32  2  0
 32  5  1  0
 29 12  2  0
 26 21  1  0
  1 33  1  0
  6 34  1  0
  7 35  1  0
 13 36  1  0
 14 37  1  0
 16 38  1  0
 16 39  1  0
 20 40  1  0
 20 41  1  0
 22 42  1  0
 23 43  1  0
 24 44  1  0
 25 45  1  0
 26 46  1  0
 31 47  1  0
 32 48  1  0
M  CHG  4   1  -1  11  -1  19  -1  30  -1
M  END
>  <UniqueID>  (25) 
23

>  <SMILES>  (25) 
[NH-]S(=O)(=O)c1ccc(C(=O)[N-]c2ccn(CC(=O)[N-]Cc3ccccc3)c(=O)c2[O-])cc1

>  <Energy>  (25) 
55.78962835575375

>  <Genealogy>  (25) 
[NH-]S(=O)(=O)c1ccc(C(=O)[N-]c2ccn(CC(=O)[N-]Cc3ccccc3)c(=O)c2[O-])cc1 (protonated)
[NH-]S(=O)(=O)c1ccc(C(=O)[N-]c2ccn(CC(=O)[N-]Cc3ccccc3)c(=O)c2[O-])cc1 (3D coordinates assigned)
[NH-]S(=O)(=O)c1ccc(C(=O)[N-]c2ccn(CC(=O)[N-]Cc3ccccc3)c(=O)c2[O-])cc1 (optimized conformer: 55.78962835575375 kcal/mol)

>  <smiles>  (25) 
NS(=O)(=O)c1ccc(C(=O)Nc2ccn(CC(=O)NCc3ccccc3)c(=O)c2O)cc1

>  <score_type>  (25) 
oracle

>  <origin>  (25) 
adg

>  <m_score__min__energy>  (25) 
-16.079999999999998

>  <m_primary>  (25) 
energy

$$$$
25:0
     RDKit          3D

 49 51  0  0  0  0  0  0  0  0999 V2000
   57.7680   27.8760   43.7550 N   0  0  0  0  0  0  0  0  0  0  0  0
   56.9740   28.2900   45.2330 S   0  0  0  0  0  0  0  0  0  0  0  0
   56.5560   27.0320   45.9440 O   0  0  0  0  0  0  0  0  0  0  0  0
   57.9230   29.0680   46.1030 O   0  0  0  0  0  0  0  0  0  0  0  0
   55.5750   29.2540   44.8730 N   0  0  0  0  0  0  0  0  0  0  0  0
   55.6150   29.6830   43.4790 C   0  0  0  0  0  0  0  0  0  0  0  0
   56.5280   30.8690   43.3550 C   0  0  0  0  0  0  0  0  0  0  0  0
   56.9940   31.2740   42.0940 C   0  0  0  0  0  0  0  0  0  0  0  0
   57.8810   32.3470   41.9850 C   0  0  0  0  0  0  0  0  0  0  0  0
   58.3150   33.0190   43.1310 C   0  0  0  0  0  0  0  0  0  0  0  0
   57.8530   32.6270   44.4000 C   0  0  0  0  0  0  0  0  0  0  0  0
   58.2850   33.2580   45.5760 O   0  0  0  0  0  0  0  0  0  0  0  0
   59.5150   33.0380   46.2120 C   0  0  0  0  0  0  0  0  0  0  0  0
   59.8550   31.7340   46.5870 C   0  0  0  0  0  0  0  0  0  0  0  0
   61.0670   31.4740   47.2320 C   0  0  0  0  0  0  0  0  0  0  0  0
   61.9610   32.5200   47.5150 C   0  0  0  0  0  0  0  0  0  0  0  0
   63.2420   32.2520   48.2110 C   0  0  0  0  0  0  0  0  0  0  0  0
   64.1390   31.5930   47.6180 O   0  0  0  0  0  0  0  0  0  0  0  0
   63.4910   32.7450   49.5390 N   0  0  0  0  0  0  0  0  0  0  0  0
   64.8450   33.2110   49.8810 C   0  0  0  0  0  0  0  0  0  0  0  0
   64.9210   33.7230   51.3250 C   0  0  0  0  0  0  0  0  0  0  0  0
   63.6910   34.5780   51.6460 C   0  0  0  0  0  0  0  0  0  0  0  0
   62.3750   33.7900   51.4950 C   0  0  0  0  0  0  0  0  0  0  0  0
   62.5020   32.5400   50.6070 C   0  0  0  0  0  0  0  0  0  0  0  0
   61.6020   33.8350   47.1730 C   0  0  0  0  0  0  0  0  0  0  0  0
   60.3900   34.0920   46.5280 C   0  0  0  0  0  0  0  0  0  0  0  0
   56.9780   31.5380   44.5050 C   0  0  0  0  0  0  0  0  0  0  0  0
   58.0900   28.7710   43.3220 H   0  0  0  0  0  0  0  0  0  0  0  0
   57.0400   27.4830   43.1160 H   0  0  0  0  0  0  0  0  0  0  0  0
   55.9912   28.8615   42.8516 H   0  0  0  0  0  0  0  0  0  0  0  0
   54.6031   29.9585   43.1472 H   0  0  0  0  0  0  0  0  0  0  0  0
   56.6595   30.7447   41.1896 H   0  0  0  0  0  0  0  0  0  0  0  0
   58.2391   32.6642   40.9945 H   0  0  0  0  0  0  0  0  0  0  0  0
   59.0207   33.8578   43.0400 H   0  0  0  0  0  0  0  0  0  0  0  0
   59.1627   30.9066   46.3724 H   0  0  0  0  0  0  0  0  0  0  0  0
   61.3227   30.4436   47.5200 H   0  0  0  0  0  0  0  0  0  0  0  0
   65.5504   32.3754   49.7615 H   0  0  0  0  0  0  0  0  0  0  0  0
   65.1015   34.0427   49.2084 H   0  0  0  0  0  0  0  0  0  0  0  0
   64.9579   32.8659   52.0134 H   0  0  0  0  0  0  0  0  0  0  0  0
   65.8264   34.3366   51.4422 H   0  0  0  0  0  0  0  0  0  0  0  0
   63.7710   34.9377   52.6825 H   0  0  0  0  0  0  0  0  0  0  0  0
   63.6665   35.4139   50.9313 H   0  0  0  0  0  0  0  0  0  0  0  0
   62.0428   33.4736   52.4948 H   0  0  0  0  0  0  0  0  0  0  0  0
   61.6529   34.4603   51.0058 H   0  0  0  0  0  0  0  0  0  0  0  0
   62.8164   31.6887   51.2286 H   0  0  0  0  0  0  0  0  0  0  0  0
   61.5245   32.3414   50.1432 H   0  0  0  0  0  0  0  0  0  0  0  0
   62.2797   34.6670   47.4148 H   0  0  0  0  0  0  0  0  0  0  0  0
   60.1186   35.1252   46.2657 H   0  0  0  0  0  0  0  0  0  0  0  0
   56.6403   31.2039   45.4971 H   0  0  0  0  0  0  0  0  0  0  0  0
  1  2  1  0
  2  3  2  0
  2  4  2  0
  2  5  1  0
  5  6  1  0
  6  7  1  0
  7  8  2  0
  8  9  1  0
  9 10  2  0
 10 11  1  0
 11 12  1  0
 12 13  1  0
 13 14  2  0
 14 15  1  0
 15 16  2  0
 16 17  1  0
 17 18  2  0
 17 19  1  0
 19 20  1  0
 20 21  1  0
 21 22  1  0
 22 23  1  0
 23 24  1  0
 16 25  1  0
 25 26  2  0
 11 27  2  0
 27  7  1  0
 26 13  1  0
 24 19  1  0
  1 28  1  0
  1 29  1  0
  6 30  1  0
  6 31  1  0
  8 32  1  0
  9 33  1  0
 10 34  1  0
 14 35  1  0
 15 36  1  0
 20 37  1  0
 20 38  1  0
 21 39  1  0
 21 40  1  0
 22 41  1  0
 22 42  1  0
 23 43  1  0
 23 44  1  0
 24 45  1  0
 24 46  1  0
 25 47  1  0
 26 48  1  0
 27 49  1  0
M  CHG  1   5  -1
M  END
>  <UniqueID>  (26) 
24

>  <SMILES>  (26) 
NS(=O)(=O)[N-]Cc1cccc(Oc2ccc(C(=O)N3CCCCC3)cc2)c1

>  <Energy>  (26) 
56.282792110801545

>  <Genealogy>  (26) 
NS(=O)(=O)[N-]Cc1cccc(Oc2ccc(C(=O)N3CCCCC3)cc2)c1 (protonated)
NS(=O)(=O)[N-]Cc1cccc(Oc2ccc(C(=O)N3CCCCC3)cc2)c1 (3D coordinates assigned)
NS(=O)(=O)[N-]Cc1cccc(Oc2ccc(C(=O)N3CCCCC3)cc2)c1 (nonaromatic ring conformer: 56.282792110801545 kcal/mol)

>  <smiles>  (26) 
NS(=O)(=O)NCc1cccc(Oc2ccc(C(=O)N3CCCCC3)cc2)c1

>  <score_type>  (26) 
oracle

>  <origin>  (26) 
adg

>  <m_score__min__energy>  (26) 
-10.720000000000001

>  <m_primary>  (26) 
energy

$$$$
26:0
     RDKit          3D

 12 12  0  0  0  0  0  0  0  0999 V2000
   54.7180   26.0100   45.9810 O   0  0  0  0  0  0  0  0  0  0  0  0
   55.8750   26.3680   46.2780 N   0  0  0  0  0  0  0  0  0  0  0  0
   56.5630   27.3530   45.5050 C   0  0  0  0  0  0  0  0  0  0  0  0
   57.8390   27.0810   45.0100 C   0  0  0  0  0  0  0  0  0  0  0  0
   58.4850   28.0620   44.2580 C   0  0  0  0  0  0  0  0  0  0  0  0
   59.6380   27.8450   43.7980 O   0  0  0  0  0  0  0  0  0  0  0  0
   57.8700   29.2530   44.0220 N   0  0  0  0  0  0  0  0  0  0  0  0
   56.6240   29.5010   44.5130 C   0  0  0  0  0  0  0  0  0  0  0  0
   56.0630   30.6060   44.2890 O   0  0  0  0  0  0  0  0  0  0  0  0
   55.9810   28.5550   45.2470 N   0  0  0  0  0  0  0  0  0  0  0  0
   58.3247   26.1142   45.2085 H   0  0  0  0  0  0  0  0  0  0  0  0
   58.3580   29.9860   43.4580 H   0  0  0  0  0  0  0  0  0  0  0  0
  1  2  2  0
  2  3  1  0
  3  4  2  0
  4  5  1  0
  5  6  2  0
  5  7  1  0
  7  8  1  0
  8  9  2  0
  8 10  1  0
 10  3  1  0
  4 11  1  0
  7 12  1  0
M  CHG  1  10  -1
M  END
>  <UniqueID>  (27) 
25

>  <SMILES>  (27) 
O=Nc1cc(=O)[nH]c(=O)[n-]1

>  <Energy>  (27) 
11.544823130413688

>  <Genealogy>  (27) 
O=Nc1cc(=O)[nH]c(=O)[n-]1 (protonated)
O=Nc1cc(=O)[nH]c(=O)[n-]1 (3D coordinates assigned)
O=Nc1cc(=O)[nH]c(=O)[n-]1 (optimized conformer: 11.544823130413688 kcal/mol)

>  <smiles>  (27) 
O=Nc1cc(=O)[nH]c(=O)[nH]1

>  <score_type>  (27) 
oracle

>  <origin>  (27) 
adg

>  <m_score__min__energy>  (27) 
-7.0499999999999998

>  <m_primary>  (27) 
energy

$$$$
27:0
     RDKit          3D

 54 57  0  0  0  0  0  0  0  0999 V2000
   61.5100   28.3480   43.9360 H   0  0  0  0  0  0  0  0  0  0  0  0
   61.2770   28.6340   44.8560 O   0  0  0  0  0  0  0  0  0  0  0  0
   59.6640   29.0910   44.7560 S   0  0  0  0  0  0  0  0  0  0  0  0
   58.5810   27.8780   45.4020 C   0  0  0  0  0  0  0  0  0  0  0  0
   56.9080   27.8970   45.2390 S   0  0  0  0  0  0  0  0  0  0  0  0
   56.7350   26.4730   46.1140 C   0  0  0  0  0  0  0  0  0  0  0  0
   55.5840   25.9330   46.3830 N   0  0  0  0  0  0  0  0  0  0  0  0
   55.0640   24.7340   45.7880 C   0  0  0  0  0  0  0  0  0  0  0  0
   53.8460   24.4610   45.9500 O   0  0  0  0  0  0  0  0  0  0  0  0
   55.8980   23.8410   44.9470 C   0  0  0  0  0  0  0  0  0  0  0  0
   55.4120   23.3480   43.7220 C   0  0  0  0  0  0  0  0  0  0  0  0
   54.4076   23.6344   43.3769 H   0  0  0  0  0  0  0  0  0  0  0  0
   56.1990   22.4960   42.9410 C   0  0  0  0  0  0  0  0  0  0  0  0
   55.8155   22.1218   41.9803 H   0  0  0  0  0  0  0  0  0  0  0  0
   57.4710   22.1190   43.3780 C   0  0  0  0  0  0  0  0  0  0  0  0
   58.0892   21.4516   42.7595 H   0  0  0  0  0  0  0  0  0  0  0  0
   57.9600   22.5900   44.6030 C   0  0  0  0  0  0  0  0  0  0  0  0
   59.2690   22.1980   45.0530 C   0  0  0  0  0  0  0  0  0  0  0  0
   60.3230   21.8810   45.4160 N   0  0  0  0  0  0  0  0  0  0  0  0
   57.1730   23.4440   45.3880 C   0  0  0  0  0  0  0  0  0  0  0  0
   57.5548   23.8056   46.3542 H   0  0  0  0  0  0  0  0  0  0  0  0
   57.9220   25.9830   46.5440 N   0  0  0  0  0  0  0  0  0  0  0  0
   58.9570   26.7650   46.1420 C   0  0  0  0  0  0  0  0  0  0  0  0
   60.0056   26.5358   46.3826 H   0  0  0  0  0  0  0  0  0  0  0  0
   59.3740   30.6870   45.4210 C   0  0  0  0  0  0  0  0  0  0  0  0
   58.5140   31.5720   44.7710 C   0  0  0  0  0  0  0  0  0  0  0  0
   58.0011   31.2624   43.8484 H   0  0  0  0  0  0  0  0  0  0  0  0
   58.3040   32.8490   45.2900 C   0  0  0  0  0  0  0  0  0  0  0  0
   57.6345   33.5454   44.7640 H   0  0  0  0  0  0  0  0  0  0  0  0
   58.9370   33.2580   46.4770 C   0  0  0  0  0  0  0  0  0  0  0  0
   58.7100   34.6700   46.9490 C   0  0  0  0  0  0  0  0  0  0  0  0
   58.7063   34.6929   48.0488 H   0  0  0  0  0  0  0  0  0  0  0  0
   59.5157   35.3168   46.5715 H   0  0  0  0  0  0  0  0  0  0  0  0
   57.7422   35.0317   46.5715 H   0  0  0  0  0  0  0  0  0  0  0  0
   59.8220   32.3610   47.1340 C   0  0  0  0  0  0  0  0  0  0  0  0
   60.7120   32.8000   48.6100 S   0  0  0  0  0  0  0  0  0  0  0  0
   61.3640   31.5730   49.1870 O   0  0  0  0  0  0  0  0  0  0  0  0
   59.7430   33.3310   49.6300 O   0  0  0  0  0  0  0  0  0  0  0  0
   61.9400   34.0040   48.2750 N   0  0  0  0  0  0  0  0  0  0  0  0
   61.5150   34.9550   48.3540 H   0  0  0  0  0  0  0  0  0  0  0  0
   62.5210   33.8150   46.9400 C   0  0  0  0  0  0  0  0  0  0  0  0
   61.7885   33.3310   46.2773 H   0  0  0  0  0  0  0  0  0  0  0  0
   62.7978   34.7838   46.4986 H   0  0  0  0  0  0  0  0  0  0  0  0
   63.7460   32.9290   47.0930 C   0  0  0  0  0  0  0  0  0  0  0  0
   63.5070   31.8916   46.8161 H   0  0  0  0  0  0  0  0  0  0  0  0
   64.5687   33.2542   46.4392 H   0  0  0  0  0  0  0  0  0  0  0  0
   64.1270   33.0120   48.5610 C   0  0  0  0  0  0  0  0  0  0  0  0
   64.1334   32.0091   49.0127 H   0  0  0  0  0  0  0  0  0  0  0  0
   65.1341   33.4334   48.6956 H   0  0  0  0  0  0  0  0  0  0  0  0
   63.0610   33.8830   49.2160 C   0  0  0  0  0  0  0  0  0  0  0  0
   62.7168   33.4145   50.1498 H   0  0  0  0  0  0  0  0  0  0  0  0
   63.4699   34.8755   49.4563 H   0  0  0  0  0  0  0  0  0  0  0  0
   60.0220   31.0790   46.5950 C   0  0  0  0  0  0  0  0  0  0  0  0
   60.6972   30.3752   47.1037 H   0  0  0  0  0  0  0  0  0  0  0  0
  1  2  1  0
  3  2  1  1
  3  4  1  0
  4  5  1  0
  5  6  1  0
  6  7  2  0
  7  8  1  0
  8  9  2  0
  8 10  1  0
 10 11  2  0
 11 12  1  0
 11 13  1  0
 13 14  1  0
 13 15  2  0
 15 16  1  0
 15 17  1  0
 17 18  1  0
 18 19  3  0
 17 20  2  0
 20 21  1  0
  6 22  1  0
 22 23  1  0
 23 24  1  0
  3 25  1  0
 25 26  2  0
 26 27  1  0
 26 28  1  0
 28 29  1  0
 28 30  2  0
 30 31  1  0
 31 32  1  0
 31 33  1  0
 31 34  1  0
 30 35  1  0
 35 36  1  0
 36 37  2  0
 36 38  2  0
 36 39  1  0
 39 40  1  0
 39 41  1  0
 41 42  1  0
 41 43  1  0
 41 44  1  0
 44 45  1  0
 44 46  1  0
 44 47  1  0
 47 48  1  0
 47 49  1  0
 47 50  1  0
 50 51  1  0
 50 52  1  0
 35 53  2  0
 53 54  1  0
 23  4  2  0
 53 25  1  0
 20 10  1  0
 50 39  1  0
M  CHG  3   3   1  22  -1  39   1
M  END
>  <UniqueID>  (28) 
26

>  <SMILES>  (28) 
Cc1ccc([S@@+](O)c2c[n-]/c(=N\C(=O)c3cccc(C#N)c3)s2)cc1S(=O)(=O)[NH+]1CCCC1

>  <Energy>  (28) 
95.34565413327833

>  <Genealogy>  (28) 
Cc1ccc([S+](O)c2c[n-]c(=NC(=O)c3cccc(C#N)c3)s2)cc1S(=O)(=O)[NH+]1CCCC1 (protonated)
Cc1ccc([S@@+](O)c2c[n-]c(=NC(=O)c3cccc(C#N)c3)s2)cc1S(=O)(=O)[NH+]1CCCC1 (chirality)
Cc1ccc([S@@+](O)c2c[n-]/c(=N\C(=O)c3cccc(C#N)c3)s2)cc1S(=O)(=O)[NH+]1CCCC1 (cis-trans isomerization)
Cc1ccc([S@@+](O)c2c[n-]/c(=N\C(=O)c3cccc(C#N)c3)s2)cc1S(=O)(=O)[NH+]1CCCC1 (3D coordinates assigned)
Cc1ccc([S@@+](O)c2c[n-]/c(=N\C(=O)c3cccc(C#N)c3)s2)cc1S(=O)(=O)[NH+]1CCCC1 (nonaromatic ring conformer: 95.34565413327833 kcal/mol)

>  <smiles>  (28) 
Cc1ccc([S+]([O-])c2c[nH]c(=NC(=O)c3cccc(C#N)c3)s2)cc1S(=O)(=O)N1CCCC1

>  <score_type>  (28) 
oracle

>  <origin>  (28) 
adg

>  <m_score__min__energy>  (28) 
-9.3900000000000006

>  <m_primary>  (28) 
energy

$$$$
28:0
     RDKit          3D

 47 50  0  0  0  0  0  0  0  0999 V2000
   58.9630   29.9751   43.1386 H   0  0  0  0  0  0  0  0  0  0  0  0
   58.6310   29.7600   44.1650 C   0  0  0  0  0  0  0  0  0  0  0  0
   57.6950   30.7480   44.7650 C   0  0  0  0  0  0  0  0  0  0  0  0
   56.4650   30.4820   44.7160 O   0  0  0  0  0  0  0  0  0  0  0  0
   58.0950   32.0790   45.2730 C   0  0  0  0  0  0  0  0  0  0  0  0
   57.4110   33.2050   44.7820 C   0  0  0  0  0  0  0  0  0  0  0  0
   56.6301   33.0750   44.0182 H   0  0  0  0  0  0  0  0  0  0  0  0
   57.7090   34.4840   45.2500 C   0  0  0  0  0  0  0  0  0  0  0  0
   57.1900   35.3583   44.8303 H   0  0  0  0  0  0  0  0  0  0  0  0
   58.6630   34.6540   46.2480 C   0  0  0  0  0  0  0  0  0  0  0  0
   58.9006   35.6639   46.6137 H   0  0  0  0  0  0  0  0  0  0  0  0
   59.3190   33.5470   46.7860 C   0  0  0  0  0  0  0  0  0  0  0  0
   60.0524   33.6917   47.5930 H   0  0  0  0  0  0  0  0  0  0  0  0
   59.0570   32.2460   46.3120 C   0  0  0  0  0  0  0  0  0  0  0  0
   59.8070   31.0810   46.9480 C   0  0  0  0  0  0  0  0  0  0  0  0
   59.0840   30.2905   47.1977 H   0  0  0  0  0  0  0  0  0  0  0  0
   60.5560   30.7304   46.2227 H   0  0  0  0  0  0  0  0  0  0  0  0
   60.5480   31.4860   48.2200 C   0  0  0  0  0  0  0  0  0  0  0  0
   61.8230   32.0790   48.0750 C   0  0  0  0  0  0  0  0  0  0  0  0
   62.3200   32.3800   46.8100 O   0  0  0  0  0  0  0  0  0  0  0  0
   62.6120   32.3770   49.1890 C   0  0  0  0  0  0  0  0  0  0  0  0
   64.2050   33.0940   48.9690 Cl  0  0  0  0  0  0  0  0  0  0  0  0
   62.1520   32.0960   50.4740 C   0  0  0  0  0  0  0  0  0  0  0  0
   62.9730   32.3690   51.5650 O   0  0  0  0  0  0  0  0  0  0  0  0
   60.8700   31.5540   50.6620 C   0  0  0  0  0  0  0  0  0  0  0  0
   60.4040   31.2940   51.9660 C   0  0  0  0  0  0  0  0  0  0  0  0
   61.0610   31.4832   52.8277 H   0  0  0  0  0  0  0  0  0  0  0  0
   59.1200   30.8000   52.1730 C   0  0  0  0  0  0  0  0  0  0  0  0
   58.7733   30.5823   53.1940 H   0  0  0  0  0  0  0  0  0  0  0  0
   58.2740   30.5810   51.0910 C   0  0  0  0  0  0  0  0  0  0  0  0
   56.9800   30.1220   51.3080 O   0  0  0  0  0  0  0  0  0  0  0  0
   58.7170   30.8290   49.7900 C   0  0  0  0  0  0  0  0  0  0  0  0
   58.0298   30.6719   48.9455 H   0  0  0  0  0  0  0  0  0  0  0  0
   60.0350   31.2790   49.5400 C   0  0  0  0  0  0  0  0  0  0  0  0
   59.1230   28.6370   44.7180 C   0  0  0  0  0  0  0  0  0  0  0  0
   60.2100   28.4831   44.6489 H   0  0  0  0  0  0  0  0  0  0  0  0
   58.3450   27.5940   45.4070 C   0  0  0  0  0  0  0  0  0  0  0  0
   58.9850   26.5800   46.1320 C   0  0  0  0  0  0  0  0  0  0  0  0
   60.0831   26.5592   46.1929 H   0  0  0  0  0  0  0  0  0  0  0  0
   58.2330   25.5950   46.7780 C   0  0  0  0  0  0  0  0  0  0  0  0
   58.7409   24.7899   47.3292 H   0  0  0  0  0  0  0  0  0  0  0  0
   56.8370   25.6310   46.7250 C   0  0  0  0  0  0  0  0  0  0  0  0
   56.0940   24.6440   47.3620 O   0  0  0  0  0  0  0  0  0  0  0  0
   56.1910   26.6660   46.0390 C   0  0  0  0  0  0  0  0  0  0  0  0
   54.8020   26.7150   45.9930 O   0  0  0  0  0  0  0  0  0  0  0  0
   56.9440   27.6530   45.3930 C   0  0  0  0  0  0  0  0  0  0  0  0
   56.4352   28.4778   44.8725 H   0  0  0  0  0  0  0  0  0  0  0  0
  1  2  1  0
  2  3  1  0
  3  4  2  0
  3  5  1  0
  5  6  2  0
  6  7  1  0
  6  8  1  0
  8  9  1  0
  8 10  2  0
 10 11  1  0
 10 12  1  0
 12 13  1  0
 12 14  2  0
 14 15  1  0
 15 16  1  0
 15 17  1  0
 15 18  1  0
 18 19  2  0
 19 20  1  0
 19 21  1  0
 21 22  1  0
 21 23  2  0
 23 24  1  0
 23 25  1  0
 25 26  2  0
 26 27  1  0
 26 28  1  0
 28 29  1  0
 28 30  2  0
 30 31  1  0
 30 32  1  0
 32 33  1  0
 32 34  2  0
  2 35  2  0
 35 36  1  0
 35 37  1  0
 37 38  2  0
 38 39  1  0
 38 40  1  0
 40 41  1  0
 40 42  2  0
 42 43  1  0
 42 44  1  0
 44 45  1  0
 44 46  2  0
 46 47  1  0
 14  5  1  0
 34 18  1  0
 46 37  1  0
 34 25  1  0
M  CHG  5  20  -1  24  -1  31  -1  43  -1  45  -1
M  END
>  <UniqueID>  (29) 
27

>  <SMILES>  (29) 
O=C(/C=C\c1ccc([O-])c([O-])c1)c1ccccc1Cc1c([O-])c(Cl)c([O-])c2ccc([O-])cc12

>  <Energy>  (29) 
76.8023092983102

>  <Genealogy>  (29) 
O=C(C=Cc1ccc([O-])c([O-])c1)c1ccccc1Cc1c([O-])c(Cl)c([O-])c2ccc([O-])cc12 (protonated)
O=C(/C=C\c1ccc([O-])c([O-])c1)c1ccccc1Cc1c([O-])c(Cl)c([O-])c2ccc([O-])cc12 (cis-trans isomerization)
O=C(/C=C\c1ccc([O-])c([O-])c1)c1ccccc1Cc1c([O-])c(Cl)c([O-])c2ccc([O-])cc12 (3D coordinates assigned)
O=C(/C=C\c1ccc([O-])c([O-])c1)c1ccccc1Cc1c([O-])c(Cl)c([O-])c2ccc([O-])cc12 (optimized conformer: 76.8023092983102 kcal/mol)

>  <smiles>  (29) 
O=C(C=Cc1ccc(O)c(O)c1)c1ccccc1Cc1c(O)c(Cl)c(O)c2ccc(O)cc12

>  <score_type>  (29) 
oracle

>  <origin>  (29) 
adg

>  <m_score__min__energy>  (29) 
-20.59

>  <m_primary>  (29) 
energy

$$$$
29:0
     RDKit          3D

 21 22  0  0  0  0  0  0  0  0999 V2000
   55.2010   23.2520   47.3370 C   0  0  0  0  0  0  0  0  0  0  0  0
   55.7470   23.2320   46.1190 C   0  0  0  0  0  0  0  0  0  0  0  0
   55.3910   22.2970   45.2120 N   0  0  0  0  0  0  0  0  0  0  0  0
   56.0410   22.6250   44.0820 C   0  0  0  0  0  0  0  0  0  0  0  0
   55.9330   21.8990   42.9030 O   0  0  0  0  0  0  0  0  0  0  0  0
   56.8090   23.7540   44.2360 C   0  0  0  0  0  0  0  0  0  0  0  0
   56.6520   24.1460   45.5520 C   0  0  0  0  0  0  0  0  0  0  0  0
   57.2970   25.2030   46.0830 C   0  0  0  0  0  0  0  0  0  0  0  0
   57.1720   26.6010   45.6260 C   0  0  0  0  0  0  0  0  0  0  0  0
   55.9280   27.2540   45.6200 C   0  0  0  0  0  0  0  0  0  0  0  0
   54.7730   26.5850   46.0060 O   0  0  0  0  0  0  0  0  0  0  0  0
   55.8490   28.5540   45.2370 N   0  0  0  0  0  0  0  0  0  0  0  0
   56.9590   29.2460   44.8720 C   0  0  0  0  0  0  0  0  0  0  0  0
   56.8610   30.4490   44.5160 O   0  0  0  0  0  0  0  0  0  0  0  0
   58.1750   28.6430   44.8970 N   0  0  0  0  0  0  0  0  0  0  0  0
   58.3070   27.3440   45.2720 C   0  0  0  0  0  0  0  0  0  0  0  0
   59.4520   26.8180   45.2910 O   0  0  0  0  0  0  0  0  0  0  0  0
   55.5034   24.0213   48.0627 H   0  0  0  0  0  0  0  0  0  0  0  0
   54.4487   22.4992   47.6149 H   0  0  0  0  0  0  0  0  0  0  0  0
   57.4239   24.2459   43.4679 H   0  0  0  0  0  0  0  0  0  0  0  0
   57.9736   25.0078   46.9281 H   0  0  0  0  0  0  0  0  0  0  0  0
  1  2  2  0
  2  3  1  0
  3  4  1  0
  4  5  1  0
  4  6  2  0
  6  7  1  0
  7  8  2  3
  8  9  1  0
  9 10  2  0
 10 11  1  0
 10 12  1  0
 12 13  1  0
 13 14  2  0
 13 15  1  0
 15 16  1  0
 16 17  2  0
  7  2  1  0
 16  9  1  0
  1 18  1  0
  1 19  1  0
  6 20  1  0
  8 21  1  0
M  CHG  5   3  -1   5  -1  11  -1  12  -1  15  -1
M  END
>  <UniqueID>  (30) 
28

>  <SMILES>  (30) 
C=c1[n-]c([O-])cc1=Cc1c([O-])[n-]c(=O)[n-]c1=O

>  <Energy>  (30) 
62.97414548235577

>  <Genealogy>  (30) 
C=c1[n-]c([O-])cc1=Cc1c([O-])[n-]c(=O)[n-]c1=O (protonated)
C=c1[n-]c([O-])cc1=Cc1c([O-])[n-]c(=O)[n-]c1=O (3D coordinates assigned)
C=c1[n-]c([O-])cc1=Cc1c([O-])[n-]c(=O)[n-]c1=O (optimized conformer: 62.97414548235577 kcal/mol)

>  <smiles>  (30) 
C=c1[nH]c(O)cc1=Cc1c(O)[nH]c(=O)[nH]c1=O

>  <score_type>  (30) 
oracle

>  <origin>  (30) 
adg

>  <m_score__min__energy>  (30) 
-15.75

>  <m_primary>  (30) 
energy

$$$$
30:0
     RDKit          3D

 51 55  0  0  0  0  0  0  0  0999 V2000
   57.9950   27.7390   45.4200 C   0  0  0  0  0  0  0  0  0  0  0  0
   58.2270   29.1230   45.8240 N   0  0  0  0  0  0  0  0  0  0  0  0
   58.5660   29.5460   47.0630 C   0  0  0  0  0  0  0  0  0  0  0  0
   58.6600   30.9330   47.0900 C   0  0  0  0  0  0  0  0  0  0  0  0
   59.0240   31.7410   48.2670 C   0  0  0  0  0  0  0  0  0  0  0  0
   58.3390   32.7590   48.6560 N   0  0  0  0  0  0  0  0  0  0  0  0
   58.8940   33.2780   49.8060 O   0  0  0  0  0  0  0  0  0  0  0  0
   60.0440   32.5620   50.2610 C   0  0  1  0  0  0  0  0  0  0  0  0
   61.2600   33.5190   50.1800 C   0  0  0  0  0  0  0  0  0  0  0  0
   61.9930   33.4920   48.8560 C   0  0  0  0  0  0  0  0  0  0  0  0
   61.3370   33.8790   47.6730 C   0  0  0  0  0  0  0  0  0  0  0  0
   62.0130   33.8500   46.4500 C   0  0  0  0  0  0  0  0  0  0  0  0
   63.3520   33.4530   46.3980 C   0  0  0  0  0  0  0  0  0  0  0  0
   64.0200   33.0950   47.5720 C   0  0  0  0  0  0  0  0  0  0  0  0
   63.3470   33.1220   48.7990 C   0  0  0  0  0  0  0  0  0  0  0  0
   59.7590   32.0420   51.7080 C   0  0  0  0  0  0  0  0  0  0  0  0
   58.4320   31.4170   51.8630 N   0  0  0  0  0  0  0  0  0  0  0  0
   57.3640   32.1860   52.2350 C   0  0  0  0  0  0  0  0  0  0  0  0
   56.1040   31.6170   52.4060 C   0  0  0  0  0  0  0  0  0  0  0  0
   55.9570   30.2520   52.1860 C   0  0  0  0  0  0  0  0  0  0  0  0
   54.8310   29.7050   52.3280 O   0  0  0  0  0  0  0  0  0  0  0  0
   57.0290   29.5090   51.8160 N   0  0  0  0  0  0  0  0  0  0  0  0
   58.2550   30.0710   51.6530 C   0  0  0  0  0  0  0  0  0  0  0  0
   59.2240   29.3380   51.3160 O   0  0  0  0  0  0  0  0  0  0  0  0
   60.1030   31.4920   49.2050 C   0  0  0  0  0  0  0  0  0  0  0  0
   60.8750   30.4960   49.1910 O   0  0  0  0  0  0  0  0  0  0  0  0
   58.3260   31.3600   45.8130 C   0  0  0  0  0  0  0  0  0  0  0  0
   58.1520   32.6390   45.2770 C   0  0  0  0  0  0  0  0  0  0  0  0
   57.7550   32.7420   43.9320 C   0  0  0  0  0  0  0  0  0  0  0  0
   57.5210   31.5830   43.1640 C   0  0  0  0  0  0  0  0  0  0  0  0
   57.6690   30.3070   43.7350 C   0  0  0  0  0  0  0  0  0  0  0  0
   58.0730   30.2310   45.0710 C   0  0  0  0  0  0  0  0  0  0  0  0
   57.8893   27.1085   46.3152 H   0  0  0  0  0  0  0  0  0  0  0  0
   57.0747   27.6815   44.8203 H   0  0  0  0  0  0  0  0  0  0  0  0
   58.8462   27.3845   44.8203 H   0  0  0  0  0  0  0  0  0  0  0  0
   58.7422   28.8870   47.9260 H   0  0  0  0  0  0  0  0  0  0  0  0
   60.9022   34.5446   50.3538 H   0  0  0  0  0  0  0  0  0  0  0  0
   61.9771   33.1787   50.9416 H   0  0  0  0  0  0  0  0  0  0  0  0
   60.2874   34.2059   47.7108 H   0  0  0  0  0  0  0  0  0  0  0  0
   61.4902   34.1402   45.5267 H   0  0  0  0  0  0  0  0  0  0  0  0
   63.8798   33.4224   45.4334 H   0  0  0  0  0  0  0  0  0  0  0  0
   65.0765   32.7915   47.5318 H   0  0  0  0  0  0  0  0  0  0  0  0
   63.8805   32.8524   49.7224 H   0  0  0  0  0  0  0  0  0  0  0  0
   60.5260   31.2971   51.9667 H   0  0  0  0  0  0  0  0  0  0  0  0
   59.7819   32.9170   52.3743 H   0  0  0  0  0  0  0  0  0  0  0  0
   57.5013   33.2647   52.4009 H   0  0  0  0  0  0  0  0  0  0  0  0
   55.2447   32.2337   52.7083 H   0  0  0  0  0  0  0  0  0  0  0  0
   58.3205   33.5376   45.8886 H   0  0  0  0  0  0  0  0  0  0  0  0
   57.6260   33.7345   43.4755 H   0  0  0  0  0  0  0  0  0  0  0  0
   57.2204   31.6779   42.1101 H   0  0  0  0  0  0  0  0  0  0  0  0
   57.4731   29.3970   43.1489 H   0  0  0  0  0  0  0  0  0  0  0  0
  1  2  1  0
  2  3  1  0
  3  4  2  0
  4  5  1  0
  5  6  2  0
  6  7  1  0
  7  8  1  0
  8  9  1  1
  9 10  1  0
 10 11  2  0
 11 12  1  0
 12 13  2  0
 13 14  1  0
 14 15  2  0
  8 16  1  0
 16 17  1  0
 17 18  1  0
 18 19  2  0
 19 20  1  0
 20 21  2  0
 20 22  1  0
 22 23  1  0
 23 24  2  0
  8 25  1  0
 25 26  2  0
  4 27  1  0
 27 28  2  0
 28 29  1  0
 29 30  2  0
 30 31  1  0
 31 32  2  0
 32  2  1  0
 25  5  1  0
 32 27  1  0
 15 10  1  0
 23 17  1  0
  1 33  1  0
  1 34  1  0
  1 35  1  0
  3 36  1  0
  9 37  1  0
  9 38  1  0
 11 39  1  0
 12 40  1  0
 13 41  1  0
 14 42  1  0
 15 43  1  0
 16 44  1  0
 16 45  1  0
 18 46  1  0
 19 47  1  0
 28 48  1  0
 29 49  1  0
 30 50  1  0
 31 51  1  0
M  CHG  1  22  -1
M  END
>  <UniqueID>  (31) 
29

>  <SMILES>  (31) 
Cn1cc(C2=NO[C@@](Cc3ccccc3)(Cn3ccc(=O)[n-]c3=O)C2=O)c2ccccc21

>  <Energy>  (31) 
120.58208360082865

>  <Genealogy>  (31) 
Cn1cc(C2=NOC(Cc3ccccc3)(Cn3ccc(=O)[n-]c3=O)C2=O)c2ccccc21 (protonated)
Cn1cc(C2=NO[C@@](Cc3ccccc3)(Cn3ccc(=O)[n-]c3=O)C2=O)c2ccccc21 (chirality)
Cn1cc(C2=NO[C@@](Cc3ccccc3)(Cn3ccc(=O)[n-]c3=O)C2=O)c2ccccc21 (3D coordinates assigned)
Cn1cc(C2=NO[C@@](Cc3ccccc3)(Cn3ccc(=O)[n-]c3=O)C2=O)c2ccccc21 (nonaromatic ring conformer: 120.58208360082865 kcal/mol)

>  <smiles>  (31) 
Cn1cc(C2=NOC(Cc3ccccc3)(Cn3ccc(=O)[nH]c3=O)C2=O)c2ccccc21

>  <score_type>  (31) 
oracle

>  <origin>  (31) 
adg

>  <m_score__min__energy>  (31) 
-10.52

>  <m_primary>  (31) 
energy

$$$$
31:0
     RDKit          3D

 49 52  0  0  0  0  0  0  0  0999 V2000
   57.7428   26.7041   43.6860 H   0  0  0  0  0  0  0  0  0  0  0  0
   57.6670   26.9040   44.7650 C   0  0  0  0  0  0  0  0  0  0  0  0
   57.1500   25.8270   45.6320 C   0  0  0  0  0  0  0  0  0  0  0  0
   55.8960   25.7790   46.2000 C   0  0  0  0  0  0  0  0  0  0  0  0
   54.8720   26.6920   45.9820 O   0  0  0  0  0  0  0  0  0  0  0  0
   55.7870   24.7150   47.0180 N   0  0  0  0  0  0  0  0  0  0  0  0
   57.0090   24.1470   46.9340 C   0  0  0  0  0  0  0  0  0  0  0  0
   57.3280   23.1130   47.5780 O   0  0  0  0  0  0  0  0  0  0  0  0
   57.8630   24.7940   46.1150 N   0  0  0  0  0  0  0  0  0  0  0  0
   58.8690   24.5710   45.9520 H   0  0  0  0  0  0  0  0  0  0  0  0
   58.0520   28.1160   45.2100 C   0  0  0  0  0  0  0  0  0  0  0  0
   57.4270   29.3290   44.9510 C   0  0  0  0  0  0  0  0  0  0  0  0
   56.5406   29.4889   44.3196 H   0  0  0  0  0  0  0  0  0  0  0  0
   58.1330   30.2950   45.6390 C   0  0  0  0  0  0  0  0  0  0  0  0
   57.7810   31.7510   45.6600 C   0  0  0  0  0  0  0  0  0  0  0  0
   57.6983   32.0932   46.7021 H   0  0  0  0  0  0  0  0  0  0  0  0
   58.5661   32.3255   45.1466 H   0  0  0  0  0  0  0  0  0  0  0  0
   56.8201   31.9034   45.1466 H   0  0  0  0  0  0  0  0  0  0  0  0
   59.1530   29.7350   46.3240 N   0  0  0  0  0  0  0  0  0  0  0  0
   60.0960   30.4380   47.1530 C   0  0  0  0  0  0  0  0  0  0  0  0
   61.4200   30.6080   46.7300 C   0  0  0  0  0  0  0  0  0  0  0  0
   61.7372   30.2108   45.7545 H   0  0  0  0  0  0  0  0  0  0  0  0
   62.3410   31.2790   47.5390 C   0  0  0  0  0  0  0  0  0  0  0  0
   63.3779   31.4069   47.1949 H   0  0  0  0  0  0  0  0  0  0  0  0
   61.9520   31.7930   48.7920 C   0  0  0  0  0  0  0  0  0  0  0  0
   62.9110   32.5140   49.6690 C   0  0  0  0  0  0  0  0  0  0  0  0
   64.0990   31.9530   50.0270 N   0  0  0  0  0  0  0  0  0  0  0  0
   64.8270   32.7750   50.8140 C   0  0  0  0  0  0  0  0  0  0  0  0
   66.0000   32.4770   51.2870 N   0  0  0  0  0  0  0  0  0  0  0  0
   67.2270   32.4830   50.4920 C   0  0  0  0  0  0  0  0  0  0  0  0
   67.9046   31.7014   50.8662 H   0  0  0  0  0  0  0  0  0  0  0  0
   66.9702   32.2904   49.4399 H   0  0  0  0  0  0  0  0  0  0  0  0
   67.9110   33.8190   50.5890 C   0  0  0  0  0  0  0  0  0  0  0  0
   68.7690   34.1150   49.7710 O   0  0  0  0  0  0  0  0  0  0  0  0
   67.5650   34.7990   51.6720 C   0  0  0  0  0  0  0  0  0  0  0  0
   67.7296   34.3328   52.6546 H   0  0  0  0  0  0  0  0  0  0  0  0
   68.2028   35.6902   51.5775 H   0  0  0  0  0  0  0  0  0  0  0  0
   66.5090   35.0922   51.5775 H   0  0  0  0  0  0  0  0  0  0  0  0
   64.0470   34.2280   51.1040 S   0  0  0  0  0  0  0  0  0  0  0  0
   62.7040   33.8000   50.1820 C   0  0  0  0  0  0  0  0  0  0  0  0
   61.8150   34.4250   50.0118 H   0  0  0  0  0  0  0  0  0  0  0  0
   60.6180   31.6220   49.2070 C   0  0  0  0  0  0  0  0  0  0  0  0
   60.2945   32.0226   50.1790 H   0  0  0  0  0  0  0  0  0  0  0  0
   59.7000   30.9480   48.3960 C   0  0  0  0  0  0  0  0  0  0  0  0
   58.6619   30.8176   48.7357 H   0  0  0  0  0  0  0  0  0  0  0  0
   59.1150   28.4000   46.0740 C   0  0  0  0  0  0  0  0  0  0  0  0
   59.9670   27.5130   46.6110 C   0  0  0  0  0  0  0  0  0  0  0  0
   60.7689   27.8567   47.2809 H   0  0  0  0  0  0  0  0  0  0  0  0
   59.8634   26.4423   46.3813 H   0  0  0  0  0  0  0  0  0  0  0  0
  1  2  1  0
  2  3  1  0
  3  4  2  0
  4  5  1  0
  4  6  1  0
  6  7  1  0
  7  8  2  0
  7  9  1  0
  9 10  1  0
  2 11  2  3
 11 12  1  0
 12 13  1  0
 12 14  2  0
 14 15  1  0
 15 16  1  0
 15 17  1  0
 15 18  1  0
 14 19  1  0
 19 20  1  0
 20 21  2  0
 21 22  1  0
 21 23  1  0
 23 24  1  0
 23 25  2  0
 25 26  1  0
 26 27  1  0
 27 28  1  0
 28 29  2  0
 29 30  1  0
 30 31  1  0
 30 32  1  0
 30 33  1  0
 33 34  2  0
 33 35  1  0
 35 36  1  0
 35 37  1  0
 35 38  1  0
 28 39  1  0
 39 40  1  0
 40 41  1  0
 25 42  1  0
 42 43  1  0
 42 44  2  0
 44 45  1  0
 19 46  1  0
 46 47  2  0
 47 48  1  0
 47 49  1  0
  9  3  1  0
 46 11  1  0
 44 20  1  0
 40 26  2  0
M  CHG  3   5  -1   6  -1  27  -1
M  END
>  <UniqueID>  (32) 
30

>  <SMILES>  (32) 
C=c1c(=Cc2[nH]c(=O)[n-]c2[O-])cc(C)n1-c1ccc(-c2cs/c(=N/CC(C)=O)[n-]2)cc1

>  <Energy>  (32) 
151.37392918770118

>  <Genealogy>  (32) 
C=c1c(=Cc2[nH]c(=O)[n-]c2[O-])cc(C)n1-c1ccc(-c2csc(=NCC(C)=O)[n-]2)cc1 (protonated)
C=c1c(=Cc2[nH]c(=O)[n-]c2[O-])cc(C)n1-c1ccc(-c2cs/c(=N/CC(C)=O)[n-]2)cc1 (cis-trans isomerization)
C=c1c(=Cc2[nH]c(=O)[n-]c2[O-])cc(C)n1-c1ccc(-c2cs/c(=N/CC(C)=O)[n-]2)cc1 (3D coordinates assigned)
C=c1c(=Cc2[nH]c(=O)[n-]c2[O-])cc(C)n1-c1ccc(-c2cs/c(=N/CC(C)=O)[n-]2)cc1 (optimized conformer: 151.37392918770118 kcal/mol)

>  <smiles>  (32) 
C=c1c(=Cc2[nH]c(=O)[nH]c2O)cc(C)n1-c1ccc(-c2csc(=NCC(C)=O)[nH]2)cc1

>  <score_type>  (32) 
oracle

>  <origin>  (32) 
adg

>  <m_score__min__energy>  (32) 
-14.59

>  <m_primary>  (32) 
energy

$$$$
32:0
     RDKit          3D

 67 69  0  0  0  0  0  0  0  0999 V2000
   58.5300   30.0550   50.6240 H   0  0  0  0  0  0  0  0  0  0  0  0
   57.5960   30.2290   50.9160 O   0  0  0  0  0  0  0  0  0  0  0  0
   57.6210   31.2750   51.8600 C   0  0  0  0  0  0  0  0  0  0  0  0
   56.1880   31.4610   52.3830 C   0  0  0  0  0  0  0  0  0  0  0  0
   56.1961   31.4599   53.4830 H   0  0  0  0  0  0  0  0  0  0  0  0
   55.7867   32.4188   52.0202 H   0  0  0  0  0  0  0  0  0  0  0  0
   55.5555   30.6374   52.0202 H   0  0  0  0  0  0  0  0  0  0  0  0
   58.5470   30.8780   53.0280 C   0  0  0  0  0  0  0  0  0  0  0  0
   58.0454   31.0931   53.9830 H   0  0  0  0  0  0  0  0  0  0  0  0
   58.7741   29.8034   52.9669 H   0  0  0  0  0  0  0  0  0  0  0  0
   59.4819   31.4544   52.9669 H   0  0  0  0  0  0  0  0  0  0  0  0
   58.1180   32.5700   51.1680 C   0  0  0  0  0  0  0  0  0  0  0  0
   58.7890   33.1048   51.8563 H   0  0  0  0  0  0  0  0  0  0  0  0
   57.2371   33.1786   50.9158 H   0  0  0  0  0  0  0  0  0  0  0  0
   58.8410   32.2890   49.9280 N   0  0  0  0  0  0  0  0  0  0  0  0
   58.9760   31.2940   49.6490 H   0  0  0  0  0  0  0  0  0  0  0  0
   59.4210   33.3150   49.1060 C   0  0  0  0  0  0  0  0  0  0  0  0
   59.3810   34.5240   49.4680 O   0  0  0  0  0  0  0  0  0  0  0  0
   60.1110   32.9540   47.8250 C   0  0  0  0  0  0  0  0  0  0  0  0
   60.5359   31.9436   47.9176 H   0  0  0  0  0  0  0  0  0  0  0  0
   60.9059   33.6904   47.6354 H   0  0  0  0  0  0  0  0  0  0  0  0
   59.1470   32.9790   46.6670 C   0  0  0  0  0  0  0  0  0  0  0  0
   58.5270   34.1800   46.2840 C   0  0  0  0  0  0  0  0  0  0  0  0
   58.7313   35.1044   46.8442 H   0  0  0  0  0  0  0  0  0  0  0  0
   57.6530   34.2060   45.1960 C   0  0  0  0  0  0  0  0  0  0  0  0
   57.1660   35.1488   44.9062 H   0  0  0  0  0  0  0  0  0  0  0  0
   57.3950   33.0380   44.4740 C   0  0  0  0  0  0  0  0  0  0  0  0
   56.7016   33.0639   43.6205 H   0  0  0  0  0  0  0  0  0  0  0  0
   58.0170   31.8310   44.8330 C   0  0  0  0  0  0  0  0  0  0  0  0
   57.7530   30.5740   44.0500 C   0  0  0  0  0  0  0  0  0  0  0  0
   58.5497   29.8443   44.2566 H   0  0  0  0  0  0  0  0  0  0  0  0
   57.7335   30.8191   42.9778 H   0  0  0  0  0  0  0  0  0  0  0  0
   56.4340   29.9860   44.4370 C   0  0  0  0  0  0  0  0  0  0  0  0
   55.4200   30.7340   44.5220 O   0  0  0  0  0  0  0  0  0  0  0  0
   56.3670   28.5890   44.7650 N   0  0  0  0  0  0  0  0  0  0  0  0
   57.0910   27.9370   45.6250 C   0  0  0  0  0  0  0  0  0  0  0  0
   58.1580   28.5030   46.2240 N   0  0  0  0  0  0  0  0  0  0  0  0
   58.7710   27.6470   47.0870 C   0  0  0  0  0  0  0  0  0  0  0  0
   59.9500   28.0700   47.9080 C   0  0  0  0  0  0  0  0  0  0  0  0
   60.7954   28.2903   47.2395 H   0  0  0  0  0  0  0  0  0  0  0  0
   60.2121   27.2543   48.5978 H   0  0  0  0  0  0  0  0  0  0  0  0
   59.6230   29.2990   48.7130 C   0  0  0  0  0  0  0  0  0  0  0  0
   58.5410   29.9060   48.4880 O   0  0  0  0  0  0  0  0  0  0  0  0
   60.4320   29.7250   49.8200 N   0  0  0  0  0  0  0  0  0  0  0  0
   61.5550   30.6120   49.7500 C   0  0  0  0  0  0  0  0  0  0  0  0
   62.2010   30.8700   48.5300 C   0  0  0  0  0  0  0  0  0  0  0  0
   61.8473   30.3832   47.6092 H   0  0  0  0  0  0  0  0  0  0  0  0
   63.2930   31.7440   48.4810 C   0  0  0  0  0  0  0  0  0  0  0  0
   63.8073   31.9261   47.5258 H   0  0  0  0  0  0  0  0  0  0  0  0
   63.7360   32.3920   49.6530 C   0  0  0  0  0  0  0  0  0  0  0  0
   64.8180   33.2880   49.6640 O   0  0  0  0  0  0  0  0  0  0  0  0
   65.9970   33.1560   50.4600 C   0  0  0  0  0  0  0  0  0  0  0  0
   65.8010   33.5591   51.4645 H   0  0  0  0  0  0  0  0  0  0  0  0
   66.8131   33.7130   49.9766 H   0  0  0  0  0  0  0  0  0  0  0  0
   66.4080   31.6920   50.5800 C   0  0  0  0  0  0  0  0  0  0  0  0
   66.4847   31.4186   51.6427 H   0  0  0  0  0  0  0  0  0  0  0  0
   65.6531   31.0580   50.0919 H   0  0  0  0  0  0  0  0  0  0  0  0
   67.3825   31.5436   50.0919 H   0  0  0  0  0  0  0  0  0  0  0  0
   63.0630   32.1560   50.8580 C   0  0  0  0  0  0  0  0  0  0  0  0
   63.3948   32.6637   51.7757 H   0  0  0  0  0  0  0  0  0  0  0  0
   61.9730   31.2810   50.9060 C   0  0  0  0  0  0  0  0  0  0  0  0
   61.4424   31.1181   51.8557 H   0  0  0  0  0  0  0  0  0  0  0  0
   58.1770   26.3880   47.1910 C   0  0  0  0  0  0  0  0  0  0  0  0
   58.5145   25.5653   47.8385 H   0  0  0  0  0  0  0  0  0  0  0  0
   56.8530   26.3500   46.1510 S   0  0  0  0  0  0  0  0  0  0  0  0
   58.8850   31.8060   45.9380 C   0  0  0  0  0  0  0  0  0  0  0  0
   59.3632   30.8609   46.2348 H   0  0  0  0  0  0  0  0  0  0  0  0
  1  2  1  0
  2  3  1  0
  3  4  1  0
  4  5  1  0
  4  6  1  0
  4  7  1  0
  3  8  1  0
  8  9  1  0
  8 10  1  0
  8 11  1  0
  3 12  1  0
 12 13  1  0
 12 14  1  0
 12 15  1  0
 15 16  1  0
 15 17  1  0
 17 18  2  0
 17 19  1  0
 19 20  1  0
 19 21  1  0
 19 22  1  0
 22 23  2  0
 23 24  1  0
 23 25  1  0
 25 26  1  0
 25 27  2  0
 27 28  1  0
 27 29  1  0
 29 30  1  0
 30 31  1  0
 30 32  1  0
 30 33  1  0
 33 34  2  0
 33 35  1  0
 35 36  2  0
 36 37  1  0
 37 38  1  0
 38 39  1  0
 39 40  1  0
 39 41  1  0
 39 42  1  0
 42 43  2  0
 42 44  1  0
 44 45  1  0
 45 46  2  0
 46 47  1  0
 46 48  1  0
 48 49  1  0
 48 50  2  0
 50 51  1  0
 51 52  1  0
 52 53  1  0
 52 54  1  0
 52 55  1  0
 55 56  1  0
 55 57  1  0
 55 58  1  0
 50 59  1  0
 59 60  1  0
 59 61  2  0
 61 62  1  0
 38 63  2  0
 63 64  1  0
 63 65  1  0
 29 66  2  0
 66 67  1  0
 66 22  1  0
 65 36  1  0
 61 45  1  0
M  CHG  2  37  -1  44  -1
M  END
>  <UniqueID>  (33) 
31

>  <SMILES>  (33) 
CCOc1ccc([N-]C(=O)Cc2cs/c(=N\C(=O)Cc3cccc(CC(=O)NCC(C)(C)O)c3)[n-]2)cc1

>  <Energy>  (33) 
92.81561591405875

>  <Genealogy>  (33) 
CCOc1ccc([N-]C(=O)Cc2csc(=NC(=O)Cc3cccc(CC(=O)NCC(C)(C)O)c3)[n-]2)cc1 (protonated)
CCOc1ccc([N-]C(=O)Cc2cs/c(=N\C(=O)Cc3cccc(CC(=O)NCC(C)(C)O)c3)[n-]2)cc1 (cis-trans isomerization)
CCOc1ccc([N-]C(=O)Cc2cs/c(=N\C(=O)Cc3cccc(CC(=O)NCC(C)(C)O)c3)[n-]2)cc1 (3D coordinates assigned)
CCOc1ccc([N-]C(=O)Cc2cs/c(=N\C(=O)Cc3cccc(CC(=O)NCC(C)(C)O)c3)[n-]2)cc1 (optimized conformer: 92.81561591405875 kcal/mol)

>  <smiles>  (33) 
CCOc1ccc(NC(=O)Cc2csc(=NC(=O)Cc3cccc(CC(=O)NCC(C)(C)O)c3)[nH]2)cc1

>  <score_type>  (33) 
oracle

>  <origin>  (33) 
adg

>  <m_score__min__energy>  (33) 
-11.789999999999999

>  <m_primary>  (33) 
energy

$$$$
33:0
     RDKit          3D

 49 51  0  0  0  0  0  0  0  0999 V2000
   55.5310   29.7170   43.3750 C   0  0  0  0  0  0  0  0  0  0  0  0
   56.5500   30.7820   43.6290 C   0  0  0  0  0  0  0  0  0  0  0  0
   57.1670   31.4400   42.5590 C   0  0  0  0  0  0  0  0  0  0  0  0
   58.1400   32.4020   42.8220 C   0  0  0  0  0  0  0  0  0  0  0  0
   58.4890   32.7040   44.1400 C   0  0  0  0  0  0  0  0  0  0  0  0
   57.8500   32.0260   45.2010 C   0  0  0  0  0  0  0  0  0  0  0  0
   58.1420   32.2270   46.4570 N   0  0  0  0  0  0  0  0  0  0  0  0
   59.0130   33.2160   47.0340 C   0  0  0  0  0  0  0  0  0  0  0  0
   58.5520   34.3090   47.4610 O   0  0  0  0  0  0  0  0  0  0  0  0
   60.4470   32.9100   47.2270 C   0  0  0  0  0  0  0  0  0  0  0  0
   61.4080   33.8990   46.9630 C   0  0  0  0  0  0  0  0  0  0  0  0
   62.7710   33.5990   47.0330 C   0  0  0  0  0  0  0  0  0  0  0  0
   63.1880   32.3070   47.3610 C   0  0  0  0  0  0  0  0  0  0  0  0
   62.2440   31.3180   47.6460 C   0  0  0  0  0  0  0  0  0  0  0  0
   60.8760   31.6150   47.6100 C   0  0  0  0  0  0  0  0  0  0  0  0
   59.9380   30.6080   48.0060 N   0  0  0  0  0  0  0  0  0  0  0  0
   59.7890   29.3850   47.2760 C   0  0  0  0  0  0  0  0  0  0  0  0
   60.6690   28.4880   47.3790 O   0  0  0  0  0  0  0  0  0  0  0  0
   58.6590   29.2160   46.4080 N   0  0  0  0  0  0  0  0  0  0  0  0
   58.1960   27.9590   45.8710 C   0  0  0  0  0  0  0  0  0  0  0  0
   58.5760   27.6000   44.5700 C   0  0  0  0  0  0  0  0  0  0  0  0
   58.1100   26.4180   43.9940 C   0  0  0  0  0  0  0  0  0  0  0  0
   57.2580   25.5730   44.7090 C   0  0  0  0  0  0  0  0  0  0  0  0
   56.7000   24.0860   43.9560 Cl  0  0  0  0  0  0  0  0  0  0  0  0
   56.8680   25.9070   46.0160 C   0  0  0  0  0  0  0  0  0  0  0  0
   56.0100   25.0120   46.7380 N   0  0  0  0  0  0  0  0  0  0  0  0
   56.5310   23.6110   47.6190 S   0  0  0  0  0  0  0  0  0  0  0  0
   55.1210   22.7290   48.2520 C   0  0  0  0  0  0  0  0  0  0  0  0
   57.3770   24.0550   48.7770 O   0  0  0  0  0  0  0  0  0  0  0  0
   57.3480   22.7130   46.7350 O   0  0  0  0  0  0  0  0  0  0  0  0
   57.3190   27.1150   46.5810 C   0  0  0  0  0  0  0  0  0  0  0  0
   56.9130   31.0830   44.9050 N   0  0  0  0  0  0  0  0  0  0  0  0
   55.1594   29.3287   44.3348 H   0  0  0  0  0  0  0  0  0  0  0  0
   54.6931   30.1405   42.8017 H   0  0  0  0  0  0  0  0  0  0  0  0
   55.9910   28.8986   42.8017 H   0  0  0  0  0  0  0  0  0  0  0  0
   56.8871   31.2005   41.5225 H   0  0  0  0  0  0  0  0  0  0  0  0
   58.6342   32.9246   41.9898 H   0  0  0  0  0  0  0  0  0  0  0  0
   59.2558   33.4642   44.3500 H   0  0  0  0  0  0  0  0  0  0  0  0
   61.0857   34.9171   46.6992 H   0  0  0  0  0  0  0  0  0  0  0  0
   63.5167   34.3816   46.8295 H   0  0  0  0  0  0  0  0  0  0  0  0
   64.2612   32.0681   47.3949 H   0  0  0  0  0  0  0  0  0  0  0  0
   62.5767   30.3008   47.9000 H   0  0  0  0  0  0  0  0  0  0  0  0
   58.1290   30.0810   46.1570 H   0  0  0  0  0  0  0  0  0  0  0  0
   59.2480   28.2567   43.9980 H   0  0  0  0  0  0  0  0  0  0  0  0
   58.4150   26.1501   42.9717 H   0  0  0  0  0  0  0  0  0  0  0  0
   55.1432   22.7429   49.3517 H   0  0  0  0  0  0  0  0  0  0  0  0
   54.1978   23.2109   47.8978 H   0  0  0  0  0  0  0  0  0  0  0  0
   55.1504   21.6880   47.8978 H   0  0  0  0  0  0  0  0  0  0  0  0
   56.9830   27.4032   47.5880 H   0  0  0  0  0  0  0  0  0  0  0  0
  1  2  1  0
  2  3  2  0
  3  4  1  0
  4  5  2  0
  5  6  1  0
  6  7  2  3
  7  8  1  0
  8  9  2  0
  8 10  1  0
 10 11  2  0
 11 12  1  0
 12 13  2  0
 13 14  1  0
 14 15  2  0
 15 16  1  0
 16 17  1  0
 17 18  2  0
 17 19  1  0
 19 20  1  0
 20 21  2  0
 21 22  1  0
 22 23  2  0
 23 24  1  0
 23 25  1  0
 25 26  1  0
 26 27  1  0
 27 28  1  0
 27 29  2  0
 27 30  2  0
 25 31  2  0
  6 32  1  0
 32  2  1  0
 15 10  1  0
 31 20  1  0
  1 33  1  0
  1 34  1  0
  1 35  1  0
  3 36  1  0
  4 37  1  0
  5 38  1  0
 11 39  1  0
 12 40  1  0
 13 41  1  0
 14 42  1  0
 19 43  1  0
 21 44  1  0
 22 45  1  0
 28 46  1  0
 28 47  1  0
 28 48  1  0
 31 49  1  0
M  CHG  3  16  -1  26  -1  32  -1
M  END
>  <UniqueID>  (34) 
32

>  <SMILES>  (34) 
Cc1cccc(=NC(=O)c2ccccc2[N-]C(=O)Nc2ccc(Cl)c([N-]S(C)(=O)=O)c2)[n-]1

>  <Energy>  (34) 
68.66887256413504

>  <Genealogy>  (34) 
Cc1cccc(=NC(=O)c2ccccc2[N-]C(=O)Nc2ccc(Cl)c([N-]S(C)(=O)=O)c2)[n-]1 (protonated)
Cc1cccc(=NC(=O)c2ccccc2[N-]C(=O)Nc2ccc(Cl)c([N-]S(C)(=O)=O)c2)[n-]1 (3D coordinates assigned)
Cc1cccc(=NC(=O)c2ccccc2[N-]C(=O)Nc2ccc(Cl)c([N-]S(C)(=O)=O)c2)[n-]1 (optimized conformer: 68.66887256413504 kcal/mol)

>  <smiles>  (34) 
Cc1cccc(=NC(=O)c2ccccc2NC(=O)Nc2ccc(Cl)c(NS(C)(=O)=O)c2)[nH]1

>  <score_type>  (34) 
oracle

>  <origin>  (34) 
adg

>  <m_score__min__energy>  (34) 
-13.92

>  <m_primary>  (34) 
energy

$$$$
34:0
     RDKit          3D

 41 43  0  0  0  0  0  0  0  0999 V2000
   52.2372   28.0763   53.0441 H   0  0  0  0  0  0  0  0  0  0  0  0
   52.6430   29.0180   52.6460 C   0  0  0  0  0  0  0  0  0  0  0  0
   51.7750   30.0140   52.1970 C   0  0  0  0  0  0  0  0  0  0  0  0
   50.6877   29.8563   52.2502 H   0  0  0  0  0  0  0  0  0  0  0  0
   52.2820   31.2180   51.6770 C   0  0  0  0  0  0  0  0  0  0  0  0
   51.3660   32.2750   51.1950 C   0  0  0  0  0  0  0  0  0  0  0  0
   50.8590   33.1000   52.0010 O   0  0  0  0  0  0  0  0  0  0  0  0
   51.0520   32.3730   49.8450 O   0  0  0  0  0  0  0  0  0  0  0  0
   53.6760   31.4070   51.6240 C   0  0  0  0  0  0  0  0  0  0  0  0
   54.0830   32.3414   51.2102 H   0  0  0  0  0  0  0  0  0  0  0  0
   54.5530   30.4150   52.0940 C   0  0  0  0  0  0  0  0  0  0  0  0
   56.0190   30.6360   52.0520 C   0  0  0  0  0  0  0  0  0  0  0  0
   56.7950   29.6460   51.9950 O   0  0  0  0  0  0  0  0  0  0  0  0
   56.5860   31.9530   52.1160 N   0  0  0  0  0  0  0  0  0  0  0  0
   57.7960   32.3560   51.4630 C   0  0  0  0  0  0  0  0  0  0  0  0
   58.7140   33.2130   52.0930 C   0  0  0  0  0  0  0  0  0  0  0  0
   58.4794   33.6366   53.0807 H   0  0  0  0  0  0  0  0  0  0  0  0
   59.9230   33.5290   51.4700 C   0  0  0  0  0  0  0  0  0  0  0  0
   60.6373   34.2017   51.9672 H   0  0  0  0  0  0  0  0  0  0  0  0
   60.2280   32.9910   50.2130 C   0  0  0  0  0  0  0  0  0  0  0  0
   61.8120   33.2530   49.4890 S   0  0  0  0  0  0  0  0  0  0  0  0
   62.3480   34.5790   49.9510 O   0  0  0  0  0  0  0  0  0  0  0  0
   62.7760   32.1760   49.9020 O   0  0  0  0  0  0  0  0  0  0  0  0
   61.6630   33.2680   47.7600 N   0  0  0  0  0  0  0  0  0  0  0  0
   60.5820   33.5950   47.1190 C   0  0  0  0  0  0  0  0  0  0  0  0
   59.6850   32.5890   46.1000 S   0  0  0  0  0  0  0  0  0  0  0  0
   58.5430   33.7830   45.7740 C   0  0  0  0  0  0  0  0  0  0  0  0
   57.3790   33.6390   44.8530 C   0  0  0  0  0  0  0  0  0  0  0  0
   56.4571   33.5250   45.4422 H   0  0  0  0  0  0  0  0  0  0  0  0
   57.3004   34.5343   44.2187 H   0  0  0  0  0  0  0  0  0  0  0  0
   57.5209   32.7516   44.2187 H   0  0  0  0  0  0  0  0  0  0  0  0
   58.9010   34.9410   46.4580 C   0  0  0  0  0  0  0  0  0  0  0  0
   58.3178   35.8718   46.3996 H   0  0  0  0  0  0  0  0  0  0  0  0
   60.0310   34.8260   47.2040 N   0  0  0  0  0  0  0  0  0  0  0  0
   60.4260   35.6060   47.7760 H   0  0  0  0  0  0  0  0  0  0  0  0
   59.2930   32.1760   49.5620 C   0  0  0  0  0  0  0  0  0  0  0  0
   59.5165   31.7750   48.5624 H   0  0  0  0  0  0  0  0  0  0  0  0
   58.0760   31.8710   50.1800 C   0  0  0  0  0  0  0  0  0  0  0  0
   57.3363   31.2479   49.6561 H   0  0  0  0  0  0  0  0  0  0  0  0
   54.0240   29.2120   52.5920 C   0  0  0  0  0  0  0  0  0  0  0  0
   54.7019   28.4192   52.9410 H   0  0  0  0  0  0  0  0  0  0  0  0
  1  2  1  0
  2  3  2  0
  3  4  1  0
  3  5  1  0
  5  6  1  0
  6  7  2  0
  6  8  1  0
  5  9  2  0
  9 10  1  0
  9 11  1  0
 11 12  1  0
 12 13  2  0
 12 14  1  0
 14 15  1  0
 15 16  2  0
 16 17  1  0
 16 18  1  0
 18 19  1  0
 18 20  2  0
 20 21  1  0
 21 22  2  0
 21 23  2  0
 21 24  1  0
 24 25  2  0
 25 26  1  0
 26 27  1  0
 27 28  1  0
 28 29  1  0
 28 30  1  0
 28 31  1  0
 27 32  2  0
 32 33  1  0
 32 34  1  0
 34 35  1  0
 20 36  1  0
 36 37  1  0
 36 38  2  0
 38 39  1  0
 11 40  2  0
 40 41  1  0
 40  2  1  0
 38 15  1  0
 34 25  1  0
M  CHG  2   8  -1  14  -1
M  END
>  <UniqueID>  (35) 
33

>  <SMILES>  (35) 
Cc1c[nH]/c(=N/S(=O)(=O)c2ccc([N-]C(=O)c3cccc(C(=O)[O-])c3)cc2)s1

>  <Energy>  (35) 
81.80768917467509

>  <Genealogy>  (35) 
Cc1c[nH]c(=NS(=O)(=O)c2ccc([N-]C(=O)c3cccc(C(=O)[O-])c3)cc2)s1 (protonated)
Cc1c[nH]/c(=N/S(=O)(=O)c2ccc([N-]C(=O)c3cccc(C(=O)[O-])c3)cc2)s1 (cis-trans isomerization)
Cc1c[nH]/c(=N/S(=O)(=O)c2ccc([N-]C(=O)c3cccc(C(=O)[O-])c3)cc2)s1 (3D coordinates assigned)
Cc1c[nH]/c(=N/S(=O)(=O)c2ccc([N-]C(=O)c3cccc(C(=O)[O-])c3)cc2)s1 (optimized conformer: 81.80768917467509 kcal/mol)

>  <smiles>  (35) 
Cc1c[nH]c(=NS(=O)(=O)c2ccc(NC(=O)c3cccc(C(=O)O)c3)cc2)s1

>  <score_type>  (35) 
oracle

>  <origin>  (35) 
adg

>  <m_score__min__energy>  (35) 
-13.529999999999999

>  <m_primary>  (35) 
energy

$$$$
35:0
     RDKit          3D

 56 60  0  0  0  0  0  0  0  0999 V2000
   59.3010   34.2950   44.5020 O   0  0  0  0  0  0  0  0  0  0  0  0
   59.2000   33.7340   45.6300 C   0  0  0  0  0  0  0  0  0  0  0  0
   59.9660   34.3030   46.8000 C   0  0  0  0  0  0  0  0  0  0  0  0
   61.2680   33.6000   47.0340 C   0  0  0  0  0  0  0  0  0  0  0  0
   62.4650   33.8640   46.3790 C   0  0  0  0  0  0  0  0  0  0  0  0
   63.5010   32.9990   46.7570 C   0  0  0  0  0  0  0  0  0  0  0  0
   63.1210   32.0490   47.6970 C   0  0  0  0  0  0  0  0  0  0  0  0
   61.4930   32.2800   48.0560 S   0  0  0  0  0  0  0  0  0  0  0  0
   58.3310   32.5830   45.7820 N   0  0  0  0  0  0  0  0  0  0  0  0
   58.1520   31.8950   47.0630 C   0  0  0  0  0  0  0  0  0  0  0  0
   58.9450   30.5880   47.0370 C   0  0  0  0  0  0  0  0  0  0  0  0
   58.6110   29.8230   45.8260 N   0  0  0  0  0  0  0  0  0  0  0  0
   58.4890   28.3880   45.8900 C   0  0  0  0  0  0  0  0  0  0  0  0
   59.5840   27.6090   46.2950 C   0  0  0  0  0  0  0  0  0  0  0  0
   59.4800   26.2170   46.3680 C   0  0  0  0  0  0  0  0  0  0  0  0
   58.2700   25.5770   46.0570 C   0  0  0  0  0  0  0  0  0  0  0  0
   58.1450   24.1450   46.1540 N   0  0  0  0  0  0  0  0  0  0  0  0
   58.7600   23.1780   45.2500 C   0  0  0  0  0  0  0  0  0  0  0  0
   58.1530   21.8030   45.6560 C   0  0  2  0  0  0  0  0  0  0  0  0
   57.2660   21.1930   44.5580 C   0  0  0  0  0  0  0  0  0  0  0  0
   56.2970   22.1610   44.0510 N   0  0  0  0  0  0  0  0  0  0  0  0
   55.4830   22.9490   44.7750 C   0  0  0  0  0  0  0  0  0  0  0  0
   54.7370   23.6730   43.8710 C   0  0  0  0  0  0  0  0  0  0  0  0
   55.1160   23.3060   42.6300 N   0  0  0  0  0  0  0  0  0  0  0  0
   56.0610   22.3850   42.7690 N   0  0  0  0  0  0  0  0  0  0  0  0
   57.3860   22.0600   46.8300 O   0  0  0  0  0  0  0  0  0  0  0  0
   57.3770   23.4100   47.0890 C   0  0  0  0  0  0  0  0  0  0  0  0
   56.7850   23.9200   48.0760 O   0  0  0  0  0  0  0  0  0  0  0  0
   57.1660   26.3580   45.6720 C   0  0  0  0  0  0  0  0  0  0  0  0
   57.2750   27.7480   45.5740 C   0  0  0  0  0  0  0  0  0  0  0  0
   56.2000   28.4640   45.1540 F   0  0  0  0  0  0  0  0  0  0  0  0
   58.6420   30.5110   44.5250 C   0  0  0  0  0  0  0  0  0  0  0  0
   57.8740   31.8330   44.6060 C   0  0  0  0  0  0  0  0  0  0  0  0
   60.1700   35.3660   46.6039 H   0  0  0  0  0  0  0  0  0  0  0  0
   59.3481   34.1673   47.6999 H   0  0  0  0  0  0  0  0  0  0  0  0
   62.5868   34.6693   45.6397 H   0  0  0  0  0  0  0  0  0  0  0  0
   64.5198   33.0660   46.3477 H   0  0  0  0  0  0  0  0  0  0  0  0
   63.7730   31.2774   48.1323 H   0  0  0  0  0  0  0  0  0  0  0  0
   58.5191   32.5337   47.8799 H   0  0  0  0  0  0  0  0  0  0  0  0
   57.0854   31.6811   47.2258 H   0  0  0  0  0  0  0  0  0  0  0  0
   60.0214   30.8145   47.0398 H   0  0  0  0  0  0  0  0  0  0  0  0
   58.6879   29.9911   47.9245 H   0  0  0  0  0  0  0  0  0  0  0  0
   60.5333   28.0987   46.5575 H   0  0  0  0  0  0  0  0  0  0  0  0
   60.3521   25.6191   46.6712 H   0  0  0  0  0  0  0  0  0  0  0  0
   58.5140   23.4155   44.2045 H   0  0  0  0  0  0  0  0  0  0  0  0
   59.8575   23.1830   45.3246 H   0  0  0  0  0  0  0  0  0  0  0  0
   58.9532   21.0670   45.8231 H   0  0  0  0  0  0  0  0  0  0  0  0
   57.9050   20.8588   43.7273 H   0  0  0  0  0  0  0  0  0  0  0  0
   56.7128   20.3473   44.9925 H   0  0  0  0  0  0  0  0  0  0  0  0
   55.4243   23.0046   45.8720 H   0  0  0  0  0  0  0  0  0  0  0  0
   53.9675   24.4192   44.1181 H   0  0  0  0  0  0  0  0  0  0  0  0
   56.2065   25.8700   45.4456 H   0  0  0  0  0  0  0  0  0  0  0  0
   59.6866   30.7144   44.2466 H   0  0  0  0  0  0  0  0  0  0  0  0
   58.1693   29.8678   43.7681 H   0  0  0  0  0  0  0  0  0  0  0  0
   58.0607   32.4237   43.6970 H   0  0  0  0  0  0  0  0  0  0  0  0
   56.7962   31.6306   44.6916 H   0  0  0  0  0  0  0  0  0  0  0  0
  1  2  2  0
  2  3  1  0
  3  4  1  0
  4  5  2  0
  5  6  1  0
  6  7  2  0
  7  8  1  0
  2  9  1  0
  9 10  1  0
 10 11  1  0
 11 12  1  0
 12 13  1  0
 13 14  2  0
 14 15  1  0
 15 16  2  0
 16 17  1  0
 17 18  1  0
 18 19  1  0
 19 20  1  0
 20 21  1  0
 21 22  1  0
 22 23  2  0
 23 24  1  0
 24 25  2  0
 19 26  1  0
 26 27  1  0
 27 28  2  0
 16 29  1  0
 29 30  2  0
 30 31  1  0
 12 32  1  0
 32 33  1  0
  8  4  1  0
 33  9  1  0
 30 13  1  0
 27 17  1  0
 25 21  1  0
  3 34  1  0
  3 35  1  0
  5 36  1  0
  6 37  1  0
  7 38  1  0
 10 39  1  0
 10 40  1  0
 11 41  1  0
 11 42  1  0
 14 43  1  0
 15 44  1  0
 18 45  1  0
 18 46  1  0
 19 47  1  1
 20 48  1  0
 20 49  1  0
 22 50  1  0
 23 51  1  0
 29 52  1  0
 32 53  1  0
 32 54  1  0
 33 55  1  0
 33 56  1  0
M  END
>  <UniqueID>  (36) 
34

>  <SMILES>  (36) 
O=C(Cc1cccs1)N1CCN(c2ccc(N3C[C@H](Cn4ccnn4)OC3=O)cc2F)CC1

>  <Energy>  (36) 
142.62910902191413

>  <Genealogy>  (36) 
O=C(Cc1cccs1)N1CCN(c2ccc(N3C[C@H](Cn4ccnn4)OC3=O)cc2F)CC1 (chirality)
O=C(Cc1cccs1)N1CCN(c2ccc(N3C[C@H](Cn4ccnn4)OC3=O)cc2F)CC1 (3D coordinates assigned)
O=C(Cc1cccs1)N1CCN(c2ccc(N3C[C@H](Cn4ccnn4)OC3=O)cc2F)CC1 (nonaromatic ring conformer: 142.62910902191413 kcal/mol)

>  <smiles>  (36) 
O=C(Cc1cccs1)N1CCN(c2ccc(N3CC(Cn4ccnn4)OC3=O)cc2F)CC1

>  <score_type>  (36) 
oracle

>  <origin>  (36) 
adg

>  <m_score__min__energy>  (36) 
-9.4800000000000004

>  <m_primary>  (36) 
energy

$$$$
36:0
     RDKit          3D

 31 32  0  0  0  0  0  0  0  0999 V2000
   60.2850   29.1410   46.7070 C   0  0  0  0  0  0  0  0  0  0  0  0
   60.4120   28.8590   45.4070 C   0  0  0  0  0  0  0  0  0  0  0  0
   59.2250   28.8350   44.4840 C   0  0  0  0  0  0  0  0  0  0  0  0
   58.1580   27.9070   45.0090 C   0  0  0  0  0  0  0  0  0  0  0  0
   58.4590   26.5680   45.2880 C   0  0  0  0  0  0  0  0  0  0  0  0
   57.4960   25.7100   45.7450 N   0  0  0  0  0  0  0  0  0  0  0  0
   57.8660   24.3050   46.0110 C   0  0  2  0  0  0  0  0  0  0  0  0
   59.3450   24.0200   45.6630 C   0  0  0  0  0  0  0  0  0  0  0  0
   59.3420   22.7050   44.8640 C   0  0  1  0  0  0  0  0  0  0  0  0
   59.8810   21.6400   45.6090 O   0  0  0  0  0  0  0  0  0  0  0  0
   57.8980   22.4880   44.5800 C   0  0  0  0  0  0  0  0  0  0  0  0
   57.4110   21.5260   43.8040 C   0  0  0  0  0  0  0  0  0  0  0  0
   57.0990   23.4140   45.2160 O   0  0  0  0  0  0  0  0  0  0  0  0
   56.2080   26.1630   45.9010 C   0  0  0  0  0  0  0  0  0  0  0  0
   55.2930   25.3900   46.2900 O   0  0  0  0  0  0  0  0  0  0  0  0
   55.8990   27.4560   45.6240 N   0  0  0  0  0  0  0  0  0  0  0  0
   56.8350   28.3320   45.1860 C   0  0  0  0  0  0  0  0  0  0  0  0
   56.5010   29.5210   44.9350 O   0  0  0  0  0  0  0  0  0  0  0  0
   61.1724   29.1508   47.3569 H   0  0  0  0  0  0  0  0  0  0  0  0
   59.2930   29.3634   47.1272 H   0  0  0  0  0  0  0  0  0  0  0  0
   61.4105   28.6387   45.0016 H   0  0  0  0  0  0  0  0  0  0  0  0
   58.8111   29.8509   44.4020 H   0  0  0  0  0  0  0  0  0  0  0  0
   59.5522   28.4745   43.4976 H   0  0  0  0  0  0  0  0  0  0  0  0
   59.4848   26.2006   45.1375 H   0  0  0  0  0  0  0  0  0  0  0  0
   57.6817   24.1504   47.0844 H   0  0  0  0  0  0  0  0  0  0  0  0
   59.7596   24.8371   45.0543 H   0  0  0  0  0  0  0  0  0  0  0  0
   59.9660   23.9426   46.5676 H   0  0  0  0  0  0  0  0  0  0  0  0
   59.9616   22.7560   43.9565 H   0  0  0  0  0  0  0  0  0  0  0  0
   59.5460   20.7910   45.2160 H   0  0  0  0  0  0  0  0  0  0  0  0
   56.3252   21.4405   43.6499 H   0  0  0  0  0  0  0  0  0  0  0  0
   58.0935   20.8150   43.3156 H   0  0  0  0  0  0  0  0  0  0  0  0
  1  2  2  0
  2  3  1  0
  3  4  1  0
  4  5  2  0
  5  6  1  0
  6  7  1  0
  7  8  1  0
  8  9  1  0
  9 10  1  0
  9 11  1  0
 11 12  2  0
 11 13  1  0
  6 14  1  0
 14 15  2  0
 14 16  1  0
 16 17  1  0
 17 18  2  0
 17  4  1  0
 13  7  1  0
  1 19  1  0
  1 20  1  0
  2 21  1  0
  3 22  1  0
  3 23  1  0
  5 24  1  0
  7 25  1  1
  8 26  1  0
  8 27  1  0
  9 28  1  6
 10 29  1  0
 12 30  1  0
 12 31  1  0
M  CHG  1  16  -1
M  END
>  <UniqueID>  (37) 
35

>  <SMILES>  (37) 
C=CCc1cn([C@@H]2C[C@@H](O)C(=C)O2)c(=O)[n-]c1=O

>  <Energy>  (37) 
39.17606701360093

>  <Genealogy>  (37) 
C=CCc1cn(C2CC(O)C(=C)O2)c(=O)[n-]c1=O (protonated)
C=CCc1cn([C@@H]2C[C@@H](O)C(=C)O2)c(=O)[n-]c1=O (chirality)
C=CCc1cn([C@@H]2C[C@@H](O)C(=C)O2)c(=O)[n-]c1=O (3D coordinates assigned)
C=CCc1cn([C@@H]2C[C@@H](O)C(=C)O2)c(=O)[n-]c1=O (nonaromatic ring conformer: 39.17606701360093 kcal/mol)

>  <smiles>  (37) 
C=CCc1cn(C2CC(O)C(=C)O2)c(=O)[nH]c1=O

>  <score_type>  (37) 
oracle

>  <origin>  (37) 
adg

>  <m_score__min__energy>  (37) 
-8.1600000000000001

>  <m_primary>  (37) 
energy

$$$$
37:0
     RDKit          3D

 36 37  0  0  0  0  0  0  0  0999 V2000
   58.9391   26.3330   47.2546 H   0  0  0  0  0  0  0  0  0  0  0  0
   58.0700   26.7870   46.7560 C   0  0  0  0  0  0  0  0  0  0  0  0
   56.9240   26.0740   46.6100 N   0  0  0  0  0  0  0  0  0  0  0  0
   55.8340   26.6100   45.9940 C   0  0  0  0  0  0  0  0  0  0  0  0
   54.7380   25.9260   45.8580 N   0  0  0  0  0  0  0  0  0  0  0  0
   54.6740   24.4850   45.6160 C   0  0  0  0  0  0  0  0  0  0  0  0
   53.6533   24.2161   45.3065 H   0  0  0  0  0  0  0  0  0  0  0  0
   54.9433   23.9589   46.5437 H   0  0  0  0  0  0  0  0  0  0  0  0
   55.6530   24.0770   44.5200 C   0  0  0  0  0  0  0  0  0  0  0  0
   56.5763   23.6922   44.9777 H   0  0  0  0  0  0  0  0  0  0  0  0
   55.1989   23.2932   43.8959 H   0  0  0  0  0  0  0  0  0  0  0  0
   55.8899   24.9513   43.8959 H   0  0  0  0  0  0  0  0  0  0  0  0
   55.8950   27.8760   45.5060 N   0  0  0  0  0  0  0  0  0  0  0  0
   57.0200   28.6280   45.6280 C   0  0  0  0  0  0  0  0  0  0  0  0
   57.0370   29.7930   45.1520 O   0  0  0  0  0  0  0  0  0  0  0  0
   58.1480   28.0970   46.2740 C   0  0  0  0  0  0  0  0  0  0  0  0
   59.6380   29.0240   46.4700 S   0  0  0  0  0  0  0  0  0  0  0  0
   60.5790   28.7850   45.3220 O   0  0  0  0  0  0  0  0  0  0  0  0
   60.3050   28.5960   47.7470 O   0  0  0  0  0  0  0  0  0  0  0  0
   59.2800   30.7210   46.5570 N   0  0  0  0  0  0  0  0  0  0  0  0
   58.2910   30.9950   46.3680 H   0  0  0  0  0  0  0  0  0  0  0  0
   60.2750   31.7430   46.7720 C   0  0  0  0  0  0  0  0  0  0  0  0
   61.5930   31.4110   47.1430 C   0  0  0  0  0  0  0  0  0  0  0  0
   61.8726   30.3552   47.2739 H   0  0  0  0  0  0  0  0  0  0  0  0
   62.5470   32.4090   47.3460 C   0  0  0  0  0  0  0  0  0  0  0  0
   63.5738   32.1371   47.6320 H   0  0  0  0  0  0  0  0  0  0  0  0
   62.2010   33.7500   47.1870 C   0  0  0  0  0  0  0  0  0  0  0  0
   62.9553   34.5346   47.3463 H   0  0  0  0  0  0  0  0  0  0  0  0
   60.8990   34.0980   46.8260 C   0  0  0  0  0  0  0  0  0  0  0  0
   60.6309   35.1580   46.7052 H   0  0  0  0  0  0  0  0  0  0  0  0
   59.9250   33.1020   46.6150 C   0  0  0  0  0  0  0  0  0  0  0  0
   58.6100   33.4260   46.2440 O   0  0  0  0  0  0  0  0  0  0  0  0
   58.1490   33.5280   44.9000 C   0  0  0  0  0  0  0  0  0  0  0  0
   57.0750   33.7656   44.8978 H   0  0  0  0  0  0  0  0  0  0  0  0
   58.7020   34.3255   44.3822 H   0  0  0  0  0  0  0  0  0  0  0  0
   58.3140   32.5716   44.3822 H   0  0  0  0  0  0  0  0  0  0  0  0
  1  2  1  0
  2  3  1  0
  3  4  1  0
  4  5  2  0
  5  6  1  0
  6  7  1  0
  6  8  1  0
  6  9  1  0
  9 10  1  0
  9 11  1  0
  9 12  1  0
  4 13  1  0
 13 14  1  0
 14 15  2  0
 14 16  1  0
 16 17  1  0
 17 18  2  0
 17 19  2  0
 17 20  1  0
 20 21  1  0
 20 22  1  0
 22 23  2  0
 23 24  1  0
 23 25  1  0
 25 26  1  0
 25 27  2  0
 27 28  1  0
 27 29  1  0
 29 30  1  0
 29 31  2  0
 31 32  1  0
 32 33  1  0
 33 34  1  0
 33 35  1  0
 33 36  1  0
 16  2  2  0
 31 22  1  0
M  CHG  2   3  -1  13  -1
M  END
>  <UniqueID>  (38) 
36

>  <SMILES>  (38) 
CC/N=c1\[n-]cc(S(=O)(=O)Nc2ccccc2OC)c(=O)[n-]1

>  <Energy>  (38) 
38.62928118648982

>  <Genealogy>  (38) 
CCN=c1[n-]cc(S(=O)(=O)Nc2ccccc2OC)c(=O)[n-]1 (protonated)
CC/N=c1\[n-]cc(S(=O)(=O)Nc2ccccc2OC)c(=O)[n-]1 (cis-trans isomerization)
CC/N=c1\[n-]cc(S(=O)(=O)Nc2ccccc2OC)c(=O)[n-]1 (3D coordinates assigned)
CC/N=c1\[n-]cc(S(=O)(=O)Nc2ccccc2OC)c(=O)[n-]1 (optimized conformer: 38.62928118648982 kcal/mol)

>  <smiles>  (38) 
CCN=c1[nH]cc(S(=O)(=O)Nc2ccccc2OC)c(=O)[nH]1

>  <score_type>  (38) 
oracle

>  <origin>  (38) 
adg

>  <m_score__min__energy>  (38) 
-10.18

>  <m_primary>  (38) 
energy

$$$$
38:0
     RDKit          3D

 78 83  0  0  0  0  0  0  0  0999 V2000
   54.3980   30.3010   44.1930 H   0  0  0  0  0  0  0  0  0  0  0  0
   54.8050   29.3440   44.1170 N   0  0  0  0  0  0  0  0  0  0  0  0
   55.9810   29.0270   44.5610 C   0  0  0  0  0  0  0  0  0  0  0  0
   56.1870   27.9280   45.3180 N   0  0  0  0  0  0  0  0  0  0  0  0
   57.5130   27.9470   45.5650 C   0  0  0  0  0  0  0  0  0  0  0  0
   58.2180   26.9370   46.4160 C   0  0  0  0  0  0  0  0  0  0  0  0
   57.4780   26.2502   46.8527 H   0  0  0  0  0  0  0  0  0  0  0  0
   58.9292   26.3763   45.7917 H   0  0  0  0  0  0  0  0  0  0  0  0
   58.9720   27.6230   47.5220 C   0  0  0  0  0  0  0  0  0  0  0  0
   58.5900   28.9000   47.9600 C   0  0  0  0  0  0  0  0  0  0  0  0
   57.7332   29.4056   47.4907 H   0  0  0  0  0  0  0  0  0  0  0  0
   59.2920   29.5330   48.9890 C   0  0  0  0  0  0  0  0  0  0  0  0
   58.9946   30.5408   49.3145 H   0  0  0  0  0  0  0  0  0  0  0  0
   60.3750   28.8900   49.6100 C   0  0  0  0  0  0  0  0  0  0  0  0
   61.1150   29.5450   50.6590 N   0  0  0  0  0  0  0  0  0  0  0  0
   62.3380   28.9420   51.1900 C   0  0  0  0  0  0  0  0  0  0  0  0
   62.1051   28.4038   52.1207 H   0  0  0  0  0  0  0  0  0  0  0  0
   62.7481   28.2410   50.4481 H   0  0  0  0  0  0  0  0  0  0  0  0
   63.3750   30.0350   51.4800 C   0  0  0  0  0  0  0  0  0  0  0  0
   64.2194   29.5837   52.0216 H   0  0  0  0  0  0  0  0  0  0  0  0
   63.6894   30.4583   50.5146 H   0  0  0  0  0  0  0  0  0  0  0  0
   62.8270   31.1430   52.2960 N   0  0  0  0  0  0  0  0  0  0  0  0
   63.5500   31.9020   52.3010 H   0  0  0  0  0  0  0  0  0  0  0  0
   62.6220   30.7520   53.7030 C   0  0  0  0  0  0  0  0  0  0  0  0
   63.0305   31.5312   54.3633 H   0  0  0  0  0  0  0  0  0  0  0  0
   61.5458   30.6336   53.8976 H   0  0  0  0  0  0  0  0  0  0  0  0
   63.1367   29.7995   53.8976 H   0  0  0  0  0  0  0  0  0  0  0  0
   61.6030   31.7200   51.6930 C   0  0  0  0  0  0  0  0  0  0  0  0
   61.1851   32.4626   52.3886 H   0  0  0  0  0  0  0  0  0  0  0  0
   61.8897   32.1752   50.7335 H   0  0  0  0  0  0  0  0  0  0  0  0
   60.5280   30.6630   51.4000 C   0  0  0  0  0  0  0  0  0  0  0  0
   60.1124   30.2931   52.3489 H   0  0  0  0  0  0  0  0  0  0  0  0
   59.7294   31.1177   50.7955 H   0  0  0  0  0  0  0  0  0  0  0  0
   60.7440   27.6050   49.1860 C   0  0  0  0  0  0  0  0  0  0  0  0
   61.5863   27.0901   49.6711 H   0  0  0  0  0  0  0  0  0  0  0  0
   60.0480   26.9750   48.1510 C   0  0  0  0  0  0  0  0  0  0  0  0
   60.3442   25.9664   47.8271 H   0  0  0  0  0  0  0  0  0  0  0  0
   58.0720   29.0540   44.9640 C   0  0  0  0  0  0  0  0  0  0  0  0
   59.4150   29.4160   44.9980 O   0  0  0  0  0  0  0  0  0  0  0  0
   57.1110   29.7450   44.3280 N   0  0  0  0  0  0  0  0  0  0  0  0
   57.3020   30.9600   43.5290 C   0  0  0  0  0  0  0  0  0  0  0  0
   57.9563   30.7313   42.6749 H   0  0  0  0  0  0  0  0  0  0  0  0
   56.3205   31.3086   43.1753 H   0  0  0  0  0  0  0  0  0  0  0  0
   57.9330   32.0490   44.3580 C   0  0  0  0  0  0  0  0  0  0  0  0
   58.5130   33.1680   43.7380 C   0  0  0  0  0  0  0  0  0  0  0  0
   58.5135   33.2460   42.6408 H   0  0  0  0  0  0  0  0  0  0  0  0
   59.0890   34.1820   44.5060 C   0  0  0  0  0  0  0  0  0  0  0  0
   59.5578   35.0441   44.0090 H   0  0  0  0  0  0  0  0  0  0  0  0
   59.0740   34.1090   45.9090 C   0  0  0  0  0  0  0  0  0  0  0  0
   59.6880   35.1860   46.7160 C   0  0  0  0  0  0  0  0  0  0  0  0
   59.6590   36.3680   46.2830 O   0  0  0  0  0  0  0  0  0  0  0  0
   60.3610   34.9250   47.9590 N   0  0  0  0  0  0  0  0  0  0  0  0
   61.4580   34.2380   48.1060 C   0  0  0  0  0  0  0  0  0  0  0  0
   61.9220   33.4310   47.1110 N   0  0  0  0  0  0  0  0  0  0  0  0
   63.0400   32.6730   47.2620 C   0  0  0  0  0  0  0  0  0  0  0  0
   63.3871   32.0352   46.4357 H   0  0  0  0  0  0  0  0  0  0  0  0
   63.7480   32.7030   48.4640 C   0  0  0  0  0  0  0  0  0  0  0  0
   64.6557   32.0937   48.5852 H   0  0  0  0  0  0  0  0  0  0  0  0
   63.2970   33.5150   49.5200 C   0  0  0  0  0  0  0  0  0  0  0  0
   64.0270   33.5430   50.8110 C   0  0  0  0  0  0  0  0  0  0  0  0
   63.4660   34.0240   51.8330 O   0  0  0  0  0  0  0  0  0  0  0  0
   65.3990   33.1120   50.8670 N   0  0  0  0  0  0  0  0  0  0  0  0
   65.8990   32.0130   51.3600 C   0  0  0  0  0  0  0  0  0  0  0  0
   65.6550   31.7300   52.6700 N   0  0  0  0  0  0  0  0  0  0  0  0
   66.1390   30.6150   53.2790 C   0  0  0  0  0  0  0  0  0  0  0  0
   65.9095   30.4236   54.3376 H   0  0  0  0  0  0  0  0  0  0  0  0
   66.9260   29.7140   52.5630 C   0  0  0  0  0  0  0  0  0  0  0  0
   67.3155   28.8069   53.0482 H   0  0  0  0  0  0  0  0  0  0  0  0
   67.2130   29.9770   51.2250 C   0  0  0  0  0  0  0  0  0  0  0  0
   67.8376   29.2777   50.6497 H   0  0  0  0  0  0  0  0  0  0  0  0
   66.7090   31.1270   50.6130 C   0  0  0  0  0  0  0  0  0  0  0  0
   66.9402   31.3414   49.5592 H   0  0  0  0  0  0  0  0  0  0  0  0
   62.1390   34.2890   49.3300 C   0  0  0  0  0  0  0  0  0  0  0  0
   61.7680   34.9335   50.1405 H   0  0  0  0  0  0  0  0  0  0  0  0
   58.4980   32.9880   46.5290 C   0  0  0  0  0  0  0  0  0  0  0  0
   58.4909   32.9135   47.6265 H   0  0  0  0  0  0  0  0  0  0  0  0
   57.9340   31.9670   45.7600 C   0  0  0  0  0  0  0  0  0  0  0  0
   57.4875   31.0927   46.2562 H   0  0  0  0  0  0  0  0  0  0  0  0
  1  2  1  0
  2  3  2  0
  3  4  1  0
  4  5  1  0
  5  6  1  0
  6  7  1  0
  6  8  1  0
  6  9  1  0
  9 10  2  0
 10 11  1  0
 10 12  1  0
 12 13  1  0
 12 14  2  0
 14 15  1  0
 15 16  1  0
 16 17  1  0
 16 18  1  0
 16 19  1  0
 19 20  1  0
 19 21  1  0
 19 22  1  0
 22 23  1  0
 22 24  1  0
 24 25  1  0
 24 26  1  0
 24 27  1  0
 22 28  1  0
 28 29  1  0
 28 30  1  0
 28 31  1  0
 31 32  1  0
 31 33  1  0
 14 34  1  0
 34 35  1  0
 34 36  2  0
 36 37  1  0
  5 38  2  0
 38 39  1  0
 38 40  1  0
 40 41  1  0
 41 42  1  0
 41 43  1  0
 41 44  1  0
 44 45  2  0
 45 46  1  0
 45 47  1  0
 47 48  1  0
 47 49  2  0
 49 50  1  0
 50 51  2  0
 50 52  1  0
 52 53  2  3
 53 54  1  0
 54 55  1  0
 55 56  1  0
 55 57  2  0
 57 58  1  0
 57 59  1  0
 59 60  1  0
 60 61  2  0
 60 62  1  0
 62 63  2  3
 63 64  1  0
 64 65  1  0
 65 66  1  0
 65 67  2  0
 67 68  1  0
 67 69  1  0
 69 70  1  0
 69 71  2  0
 71 72  1  0
 59 73  2  0
 73 74  1  0
 49 75  1  0
 75 76  1  0
 75 77  2  0
 77 78  1  0
 40  3  1  0
 77 44  1  0
 36  9  1  0
 73 53  1  0
 31 15  1  0
 71 63  1  0
M  CHG  5   4  -1  22   1  39  -1  54  -1  64  -1
M  END
>  <UniqueID>  (39) 
37

>  <SMILES>  (39) 
[H]/N=c1/[n-]c(Cc2ccc(N3CC[NH+](C)CC3)cc2)c([O-])n1Cc1ccc(C(=O)N=c2cc(C(=O)N=c3cccc[n-]3)cc[n-]2)cc1

>  <Energy>  (39) 
140.6086596707765

>  <Genealogy>  (39) 
C[NH+]1CCN(c2ccc(Cc3[n-]c(=N)n(Cc4ccc(C(=O)N=c5cc(C(=O)N=c6cccc[n-]6)cc[n-]5)cc4)c3[O-])cc2)CC1 (protonated)
[H]/N=c1/[n-]c(Cc2ccc(N3CC[NH+](C)CC3)cc2)c([O-])n1Cc1ccc(C(=O)N=c2cc(C(=O)N=c3cccc[n-]3)cc[n-]2)cc1 (cis-trans isomerization)
[H]/N=c1/[n-]c(Cc2ccc(N3CC[NH+](C)CC3)cc2)c([O-])n1Cc1ccc(C(=O)N=c2cc(C(=O)N=c3cccc[n-]3)cc[n-]2)cc1 (3D coordinates assigned)
[H]/N=c1/[n-]c(Cc2ccc(N3CC[NH+](C)CC3)cc2)c([O-])n1Cc1ccc(C(=O)N=c2cc(C(=O)N=c3cccc[n-]3)cc[n-]2)cc1 (nonaromatic ring conformer: 140.6086596707765 kcal/mol)

>  <smiles>  (39) 
CN1CCN(c2ccc(Cc3[nH]c(=N)n(Cc4ccc(C(=O)N=c5cc(C(=O)N=c6cccc[nH]6)cc[nH]5)cc4)c3O)cc2)CC1

>  <score_type>  (39) 
oracle

>  <origin>  (39) 
adg

>  <m_score__min__energy>  (39) 
-13.69

>  <m_primary>  (39) 
energy

$$$$
39:0
     RDKit          3D

 41 43  0  0  0  0  0  0  0  0999 V2000
   55.5410   20.4090   45.4750 C   0  0  0  0  0  0  0  0  0  0  0  0
   55.3300   21.7070   45.7220 C   0  0  0  0  0  0  0  0  0  0  0  0
   54.1570   22.2620   45.3210 N   0  0  0  0  0  0  0  0  0  0  0  0
   53.8880   23.5730   45.5340 C   0  0  0  0  0  0  0  0  0  0  0  0
   52.7960   24.0610   45.1440 O   0  0  0  0  0  0  0  0  0  0  0  0
   54.7910   24.3580   46.1700 N   0  0  0  0  0  0  0  0  0  0  0  0
   55.9830   23.8740   46.6150 C   0  0  0  0  0  0  0  0  0  0  0  0
   56.8060   24.7420   47.2410 C   0  0  0  0  0  0  0  0  0  0  0  0
   57.3810   25.9670   46.6500 C   0  0  0  0  0  0  0  0  0  0  0  0
   58.7670   26.1810   46.7230 C   0  0  0  0  0  0  0  0  0  0  0  0
   59.3290   27.3500   46.2120 C   0  0  0  0  0  0  0  0  0  0  0  0
   58.5120   28.3320   45.6520 C   0  0  0  0  0  0  0  0  0  0  0  0
   57.1220   28.1560   45.6090 C   0  0  0  0  0  0  0  0  0  0  0  0
   56.2790   29.2380   45.0700 C   0  0  0  0  0  0  0  0  0  0  0  0
   55.1970   28.9440   44.4980 O   0  0  0  0  0  0  0  0  0  0  0  0
   56.6820   30.6130   45.1360 N   0  0  0  0  0  0  0  0  0  0  0  0
   57.8170   31.2000   44.4270 C   0  0  0  0  0  0  0  0  0  0  0  0
   58.3410   32.4110   45.1550 C   0  0  0  0  0  0  0  0  0  0  0  0
   58.5890   32.3520   46.5360 C   0  0  0  0  0  0  0  0  0  0  0  0
   59.0440   33.4830   47.2200 C   0  0  0  0  0  0  0  0  0  0  0  0
   59.2580   34.6790   46.5290 C   0  0  0  0  0  0  0  0  0  0  0  0
   59.0220   34.7440   45.1540 C   0  0  0  0  0  0  0  0  0  0  0  0
   58.5700   33.6140   44.4660 C   0  0  0  0  0  0  0  0  0  0  0  0
   56.5500   26.9640   46.0940 C   0  0  0  0  0  0  0  0  0  0  0  0
   55.1670   26.7840   45.9970 O   0  0  0  0  0  0  0  0  0  0  0  0
   56.2910   22.5090   46.3770 C   0  0  0  0  0  0  0  0  0  0  0  0
   57.4040   22.0150   46.7120 O   0  0  0  0  0  0  0  0  0  0  0  0
   56.4827   19.9353   45.7894 H   0  0  0  0  0  0  0  0  0  0  0  0
   54.7728   19.8156   44.9575 H   0  0  0  0  0  0  0  0  0  0  0  0
   57.0719   24.5166   48.2843 H   0  0  0  0  0  0  0  0  0  0  0  0
   59.4135   25.4212   47.1864 H   0  0  0  0  0  0  0  0  0  0  0  0
   60.4183   27.4981   46.2505 H   0  0  0  0  0  0  0  0  0  0  0  0
   58.9606   29.2489   45.2421 H   0  0  0  0  0  0  0  0  0  0  0  0
   58.6193   30.4514   44.3502 H   0  0  0  0  0  0  0  0  0  0  0  0
   57.4824   31.5104   43.4262 H   0  0  0  0  0  0  0  0  0  0  0  0
   58.4244   31.4114   47.0820 H   0  0  0  0  0  0  0  0  0  0  0  0
   59.2337   33.4318   48.3023 H   0  0  0  0  0  0  0  0  0  0  0  0
   59.6125   35.5696   47.0685 H   0  0  0  0  0  0  0  0  0  0  0  0
   59.1920   35.6857   44.6115 H   0  0  0  0  0  0  0  0  0  0  0  0
   58.3930   33.6669   43.3816 H   0  0  0  0  0  0  0  0  0  0  0  0
   54.6910   25.9720   46.3700 H   0  0  0  0  0  0  0  0  0  0  0  0
  1  2  2  0
  2  3  1  0
  3  4  1  0
  4  5  2  0
  4  6  1  0
  6  7  1  0
  7  8  2  3
  8  9  1  0
  9 10  2  0
 10 11  1  0
 11 12  2  0
 12 13  1  0
 13 14  1  0
 14 15  2  0
 14 16  1  0
 16 17  1  0
 17 18  1  0
 18 19  2  0
 19 20  1  0
 20 21  2  0
 21 22  1  0
 22 23  2  0
 13 24  2  0
 24 25  1  0
  7 26  1  0
 26 27  2  0
 26  2  1  0
 24  9  1  0
 23 18  1  0
  1 28  1  0
  1 29  1  0
  8 30  1  0
 10 31  1  0
 11 32  1  0
 12 33  1  0
 17 34  1  0
 17 35  1  0
 19 36  1  0
 20 37  1  0
 21 38  1  0
 22 39  1  0
 23 40  1  0
 25 41  1  0
M  CHG  3   3  -1   6  -1  16  -1
M  END
>  <UniqueID>  (40) 
38

>  <SMILES>  (40) 
C=c1[n-]c(=O)[n-]c(=Cc2cccc(C(=O)[N-]Cc3ccccc3)c2O)c1=O

>  <Energy>  (40) 
62.18976254754767

>  <Genealogy>  (40) 
C=c1[n-]c(=O)[n-]c(=Cc2cccc(C(=O)[N-]Cc3ccccc3)c2O)c1=O (protonated)
C=c1[n-]c(=O)[n-]c(=Cc2cccc(C(=O)[N-]Cc3ccccc3)c2O)c1=O (3D coordinates assigned)
C=c1[n-]c(=O)[n-]c(=Cc2cccc(C(=O)[N-]Cc3ccccc3)c2O)c1=O (optimized conformer: 62.18976254754767 kcal/mol)

>  <smiles>  (40) 
C=c1[nH]c(=O)[nH]c(=Cc2cccc(C(=O)NCc3ccccc3)c2O)c1=O

>  <score_type>  (40) 
oracle

>  <origin>  (40) 
adg

>  <m_score__min__energy>  (40) 
-15.1

>  <m_primary>  (40) 
energy

$$$$
40:0
     RDKit          3D

 53 56  0  0  0  0  0  0  0  0999 V2000
   59.8910   27.9390   46.9300 C   0  0  0  0  0  0  0  0  0  0  0  0
   59.0940   28.6420   46.1110 C   0  0  0  0  0  0  0  0  0  0  0  0
   58.2220   28.1370   45.1300 C   0  0  0  0  0  0  0  0  0  0  0  0
   57.8410   26.8770   44.8460 C   0  0  0  0  0  0  0  0  0  0  0  0
   57.3110   25.9010   45.8080 C   0  0  0  0  0  0  0  0  0  0  0  0
   57.9960   24.8250   46.2310 N   0  0  0  0  0  0  0  0  0  0  0  0
   57.0950   24.1570   46.9830 C   0  0  0  0  0  0  0  0  0  0  0  0
   57.3720   23.0810   47.5760 O   0  0  0  0  0  0  0  0  0  0  0  0
   55.8710   24.7220   47.0390 N   0  0  0  0  0  0  0  0  0  0  0  0
   56.0180   25.8190   46.2770 C   0  0  0  0  0  0  0  0  0  0  0  0
   54.9910   26.7130   45.9940 O   0  0  0  0  0  0  0  0  0  0  0  0
   57.7430   29.2370   44.4350 C   0  0  0  0  0  0  0  0  0  0  0  0
   58.2850   30.3560   45.0320 C   0  0  0  0  0  0  0  0  0  0  0  0
   58.0050   31.7680   44.6170 C   0  0  0  0  0  0  0  0  0  0  0  0
   59.0940   29.9980   46.0540 N   0  0  0  0  0  0  0  0  0  0  0  0
   59.8590   30.9060   46.8640 C   0  0  0  0  0  0  0  0  0  0  0  0
   59.2100   31.7790   47.7470 C   0  0  0  0  0  0  0  0  0  0  0  0
   59.9500   32.6750   48.5250 C   0  0  0  0  0  0  0  0  0  0  0  0
   61.3520   32.7070   48.4330 C   0  0  0  0  0  0  0  0  0  0  0  0
   62.1510   33.6470   49.2490 C   0  0  0  0  0  0  0  0  0  0  0  0
   62.0610   34.8850   49.0340 O   0  0  0  0  0  0  0  0  0  0  0  0
   63.0660   33.1830   50.2470 N   0  0  0  0  0  0  0  0  0  0  0  0
   63.6420   31.9100   50.7270 C   0  0  0  0  0  0  0  0  0  0  0  0
   64.6660   32.5340   51.6330 C   0  0  0  0  0  0  0  0  0  0  0  0
   66.0950   32.3230   51.2620 N   0  0  0  0  0  0  0  0  0  0  0  0
   66.3810   30.8840   51.1570 C   0  0  0  0  0  0  0  0  0  0  0  0
   66.5930   33.0420   50.0690 C   0  0  0  0  0  0  0  0  0  0  0  0
   64.0340   33.8150   51.1660 C   0  0  0  0  0  0  0  0  0  0  0  0
   61.9960   31.8460   47.5280 C   0  0  0  0  0  0  0  0  0  0  0  0
   61.2550   30.9510   46.7510 C   0  0  0  0  0  0  0  0  0  0  0  0
   60.5292   28.4611   47.6581 H   0  0  0  0  0  0  0  0  0  0  0  0
   59.9062   26.8406   46.8733 H   0  0  0  0  0  0  0  0  0  0  0  0
   57.9350   26.5491   43.8002 H   0  0  0  0  0  0  0  0  0  0  0  0
   55.1440   27.4910   45.3640 H   0  0  0  0  0  0  0  0  0  0  0  0
   57.0609   29.2204   43.5722 H   0  0  0  0  0  0  0  0  0  0  0  0
   57.8806   32.3954   45.5119 H   0  0  0  0  0  0  0  0  0  0  0  0
   58.8454   32.1474   44.0172 H   0  0  0  0  0  0  0  0  0  0  0  0
   57.0834   31.7980   44.0172 H   0  0  0  0  0  0  0  0  0  0  0  0
   58.1132   31.7595   47.8287 H   0  0  0  0  0  0  0  0  0  0  0  0
   59.4316   33.3589   49.2131 H   0  0  0  0  0  0  0  0  0  0  0  0
   62.9129   31.2920   51.2715 H   0  0  0  0  0  0  0  0  0  0  0  0
   64.0079   31.2055   49.9655 H   0  0  0  0  0  0  0  0  0  0  0  0
   64.7969   32.2647   52.6915 H   0  0  0  0  0  0  0  0  0  0  0  0
   66.4667   30.4527   52.1653 H   0  0  0  0  0  0  0  0  0  0  0  0
   65.5642   30.3865   50.6136 H   0  0  0  0  0  0  0  0  0  0  0  0
   67.3260   30.7367   50.6136 H   0  0  0  0  0  0  0  0  0  0  0  0
   67.1927   33.9078   50.3865 H   0  0  0  0  0  0  0  0  0  0  0  0
   67.2167   32.3650   49.4667 H   0  0  0  0  0  0  0  0  0  0  0  0
   65.7400   33.3878   49.4667 H   0  0  0  0  0  0  0  0  0  0  0  0
   63.5464   34.3701   51.9809 H   0  0  0  0  0  0  0  0  0  0  0  0
   64.7024   34.5794   50.7430 H   0  0  0  0  0  0  0  0  0  0  0  0
   63.0912   31.8766   47.4304 H   0  0  0  0  0  0  0  0  0  0  0  0
   61.7697   30.2794   46.0481 H   0  0  0  0  0  0  0  0  0  0  0  0
  1  2  2  0
  2  3  1  0
  3  4  2  3
  4  5  1  0
  5  6  1  0
  6  7  1  0
  7  8  2  0
  7  9  1  0
  9 10  1  0
 10 11  1  0
  3 12  1  0
 12 13  2  0
 13 14  1  0
 13 15  1  0
 15 16  1  0
 16 17  2  0
 17 18  1  0
 18 19  2  0
 19 20  1  0
 20 21  2  0
 20 22  1  0
 22 23  1  0
 23 24  1  0
 24 25  1  0
 25 26  1  0
 25 27  1  0
 24 28  1  0
 19 29  1  0
 29 30  2  0
 15  2  1  0
 30 16  1  0
 10  5  2  0
 28 22  1  0
  1 31  1  0
  1 32  1  0
  4 33  1  0
 11 34  1  0
 12 35  1  0
 14 36  1  0
 14 37  1  0
 14 38  1  0
 17 39  1  0
 18 40  1  0
 23 41  1  0
 23 42  1  0
 24 43  1  0
 26 44  1  0
 26 45  1  0
 26 46  1  0
 27 47  1  0
 27 48  1  0
 27 49  1  0
 28 50  1  0
 28 51  1  0
 29 52  1  0
 30 53  1  0
M  CHG  2   6  -1   9  -1
M  END
>  <UniqueID>  (41) 
39

>  <SMILES>  (41) 
C=c1c(=Cc2[n-]c(=O)[n-]c2O)cc(C)n1-c1ccc(C(=O)N2CC(N(C)C)C2)cc1

>  <Energy>  (41) 
188.08286324195723

>  <Genealogy>  (41) 
C=c1c(=Cc2[n-]c(=O)[n-]c2O)cc(C)n1-c1ccc(C(=O)N2CC(N(C)C)C2)cc1 (protonated)
C=c1c(=Cc2[n-]c(=O)[n-]c2O)cc(C)n1-c1ccc(C(=O)N2CC(N(C)C)C2)cc1 (3D coordinates assigned)
C=c1c(=Cc2[n-]c(=O)[n-]c2O)cc(C)n1-c1ccc(C(=O)N2CC(N(C)C)C2)cc1 (nonaromatic ring conformer: 188.08286324195723 kcal/mol)

>  <smiles>  (41) 
C=c1c(=Cc2[nH]c(=O)[nH]c2O)cc(C)n1-c1ccc(C(=O)N2CC(N(C)C)C2)cc1

>  <score_type>  (41) 
oracle

>  <origin>  (41) 
adg

>  <m_score__min__energy>  (41) 
-13.050000000000001

>  <m_primary>  (41) 
energy

$$$$
41:0
     RDKit          3D

 23 24  0  0  0  0  0  0  0  0999 V2000
   59.6430   25.3640   45.7820 C   0  0  0  0  0  0  0  0  0  0  0  0
   58.2200   25.1940   46.2260 C   0  0  0  0  0  0  0  0  0  0  0  0
   57.9560   24.3240   47.2380 N   0  0  0  0  0  0  0  0  0  0  0  0
   56.6940   24.1190   47.6870 C   0  0  0  0  0  0  0  0  0  0  0  0
   56.4850   23.3070   48.6240 O   0  0  0  0  0  0  0  0  0  0  0  0
   55.6570   24.7850   47.1240 N   0  0  0  0  0  0  0  0  0  0  0  0
   55.8540   25.6710   46.1140 C   0  0  0  0  0  0  0  0  0  0  0  0
   54.8610   26.2590   45.6120 O   0  0  0  0  0  0  0  0  0  0  0  0
   57.1580   25.9200   45.6390 C   0  0  0  0  0  0  0  0  0  0  0  0
   57.3900   26.8860   44.4940 C   0  0  0  0  0  0  0  0  0  0  0  0
   57.5210   28.2990   44.9900 C   0  0  0  0  0  0  0  0  0  0  0  0
   58.6930   28.8950   45.2800 N   0  0  0  0  0  0  0  0  0  0  0  0
   58.3340   30.1530   45.6100 C   0  0  0  0  0  0  0  0  0  0  0  0
   59.1700   31.0270   45.9570 O   0  0  0  0  0  0  0  0  0  0  0  0
   57.0100   30.4030   45.5320 N   0  0  0  0  0  0  0  0  0  0  0  0
   56.5070   29.2250   45.1300 C   0  0  0  0  0  0  0  0  0  0  0  0
   55.1510   29.0170   44.8880 O   0  0  0  0  0  0  0  0  0  0  0  0
   60.2955   25.4420   46.6641 H   0  0  0  0  0  0  0  0  0  0  0  0
   59.9449   24.4955   45.1782 H   0  0  0  0  0  0  0  0  0  0  0  0
   59.7319   26.2791   45.1782 H   0  0  0  0  0  0  0  0  0  0  0  0
   58.3141   26.6035   43.9684 H   0  0  0  0  0  0  0  0  0  0  0  0
   56.5255   26.8347   43.8157 H   0  0  0  0  0  0  0  0  0  0  0  0
   54.8060   28.1480   44.5010 H   0  0  0  0  0  0  0  0  0  0  0  0
  1  2  1  0
  2  3  1  0
  3  4  1  0
  4  5  2  0
  4  6  1  0
  6  7  1  0
  7  8  2  0
  7  9  1  0
  9 10  1  0
 10 11  1  0
 11 12  1  0
 12 13  1  0
 13 14  2  0
 13 15  1  0
 15 16  1  0
 16 17  1  0
  9  2  2  0
 16 11  2  0
  1 18  1  0
  1 19  1  0
  1 20  1  0
 10 21  1  0
 10 22  1  0
 17 23  1  0
M  CHG  4   3  -1   6  -1  12  -1  15  -1
M  END
>  <UniqueID>  (42) 
40

>  <SMILES>  (42) 
Cc1[n-]c(=O)[n-]c(=O)c1Cc1[n-]c(=O)[n-]c1O

>  <Energy>  (42) 
54.05402672647222

>  <Genealogy>  (42) 
Cc1[n-]c(=O)[n-]c(=O)c1Cc1[n-]c(=O)[n-]c1O (protonated)
Cc1[n-]c(=O)[n-]c(=O)c1Cc1[n-]c(=O)[n-]c1O (3D coordinates assigned)
Cc1[n-]c(=O)[n-]c(=O)c1Cc1[n-]c(=O)[n-]c1O (optimized conformer: 54.05402672647222 kcal/mol)

>  <smiles>  (42) 
Cc1[nH]c(=O)[nH]c(=O)c1Cc1[nH]c(=O)[nH]c1O

>  <score_type>  (42) 
oracle

>  <origin>  (42) 
adg

>  <m_score__min__energy>  (42) 
-12.5

>  <m_primary>  (42) 
energy

$$$$
42:0
     RDKit          3D

 49 52  0  0  0  0  0  0  0  0999 V2000
   60.3510   29.3770   47.3000 C   0  0  0  0  0  0  0  0  0  0  0  0
   59.3490   30.0500   46.7120 C   0  0  0  0  0  0  0  0  0  0  0  0
   58.5240   29.6060   45.6630 C   0  0  0  0  0  0  0  0  0  0  0  0
   58.3890   28.3910   45.0970 C   0  0  0  0  0  0  0  0  0  0  0  0
   57.5140   27.3070   45.5850 C   0  0  0  0  0  0  0  0  0  0  0  0
   56.1180   27.4600   45.6270 C   0  0  0  0  0  0  0  0  0  0  0  0
   55.5210   28.6560   45.2400 O   0  0  0  0  0  0  0  0  0  0  0  0
   55.3360   26.4310   46.0420 N   0  0  0  0  0  0  0  0  0  0  0  0
   55.8790   25.2400   46.4040 C   0  0  0  0  0  0  0  0  0  0  0  0
   55.1350   24.3010   46.7880 O   0  0  0  0  0  0  0  0  0  0  0  0
   57.2230   25.0590   46.3450 N   0  0  0  0  0  0  0  0  0  0  0  0
   58.0490   26.0580   45.9370 C   0  0  0  0  0  0  0  0  0  0  0  0
   59.2910   25.8540   45.8880 O   0  0  0  0  0  0  0  0  0  0  0  0
   57.7800   30.7050   45.2630 C   0  0  0  0  0  0  0  0  0  0  0  0
   58.1220   31.7460   46.1000 C   0  0  0  0  0  0  0  0  0  0  0  0
   57.5340   33.1230   46.0290 C   0  0  0  0  0  0  0  0  0  0  0  0
   59.0730   31.3530   46.9770 N   0  0  0  0  0  0  0  0  0  0  0  0
   59.6710   32.1810   47.9910 C   0  0  0  0  0  0  0  0  0  0  0  0
   60.9020   32.8070   47.7590 C   0  0  0  0  0  0  0  0  0  0  0  0
   61.4800   33.6070   48.7470 C   0  0  0  0  0  0  0  0  0  0  0  0
   60.8290   33.7930   49.9700 C   0  0  0  0  0  0  0  0  0  0  0  0
   59.5840   33.1870   50.2110 C   0  0  0  0  0  0  0  0  0  0  0  0
   58.9000   33.3830   51.5100 C   0  0  0  0  0  0  0  0  0  0  0  0
   58.8040   34.5480   51.9840 O   0  0  0  0  0  0  0  0  0  0  0  0
   58.3360   32.2750   52.2400 N   0  0  0  0  0  0  0  0  0  0  0  0
   56.9010   32.2400   52.5420 C   0  0  0  0  0  0  0  0  0  0  0  0
   56.2590   31.1060   51.7510 C   0  0  0  0  0  0  0  0  0  0  0  0
   56.9770   29.8580   51.9850 N   0  0  0  0  0  0  0  0  0  0  0  0
   58.3860   29.8240   52.2350 C   0  0  0  0  0  0  0  0  0  0  0  0
   58.9840   28.7160   52.2610 O   0  0  0  0  0  0  0  0  0  0  0  0
   59.1440   31.0850   52.5480 C   0  0  0  0  0  0  0  0  0  0  0  0
   59.0180   32.3690   49.2180 C   0  0  0  0  0  0  0  0  0  0  0  0
   60.9222   29.8433   48.1162 H   0  0  0  0  0  0  0  0  0  0  0  0
   60.6007   28.3593   46.9655 H   0  0  0  0  0  0  0  0  0  0  0  0
   58.9822   28.1892   44.1929 H   0  0  0  0  0  0  0  0  0  0  0  0
   57.0554   30.7400   44.4361 H   0  0  0  0  0  0  0  0  0  0  0  0
   57.3709   33.5050   47.0476 H   0  0  0  0  0  0  0  0  0  0  0  0
   58.2258   33.7900   45.4937 H   0  0  0  0  0  0  0  0  0  0  0  0
   56.5738   33.0845   45.4937 H   0  0  0  0  0  0  0  0  0  0  0  0
   61.4151   32.6682   46.7959 H   0  0  0  0  0  0  0  0  0  0  0  0
   62.4499   34.0920   48.5624 H   0  0  0  0  0  0  0  0  0  0  0  0
   61.2935   34.4169   50.7478 H   0  0  0  0  0  0  0  0  0  0  0  0
   56.7540   32.0690   53.6186 H   0  0  0  0  0  0  0  0  0  0  0  0
   56.4375   33.1981   52.2641 H   0  0  0  0  0  0  0  0  0  0  0  0
   55.2126   30.9882   52.0692 H   0  0  0  0  0  0  0  0  0  0  0  0
   56.3009   31.3482   50.6788 H   0  0  0  0  0  0  0  0  0  0  0  0
   59.4035   31.0930   53.6169 H   0  0  0  0  0  0  0  0  0  0  0  0
   60.0542   31.1096   51.9307 H   0  0  0  0  0  0  0  0  0  0  0  0
   58.0546   31.8720   49.4047 H   0  0  0  0  0  0  0  0  0  0  0  0
  1  2  2  0
  2  3  1  0
  3  4  2  3
  4  5  1  0
  5  6  2  0
  6  7  1  0
  6  8  1  0
  8  9  1  0
  9 10  2  0
  9 11  1  0
 11 12  1  0
 12 13  2  0
  3 14  1  0
 14 15  2  0
 15 16  1  0
 15 17  1  0
 17 18  1  0
 18 19  2  0
 19 20  1  0
 20 21  2  0
 21 22  1  0
 22 23  1  0
 23 24  2  0
 23 25  1  0
 25 26  1  0
 26 27  1  0
 27 28  1  0
 28 29  1  0
 29 30  2  0
 29 31  1  0
 22 32  2  0
 17  2  1  0
 32 18  1  0
 12  5  1  0
 31 25  1  0
  1 33  1  0
  1 34  1  0
  4 35  1  0
 14 36  1  0
 16 37  1  0
 16 38  1  0
 16 39  1  0
 19 40  1  0
 20 41  1  0
 21 42  1  0
 26 43  1  0
 26 44  1  0
 27 45  1  0
 27 46  1  0
 31 47  1  0
 31 48  1  0
 32 49  1  0
M  CHG  4   7  -1   8  -1  11  -1  28  -1
M  END
>  <UniqueID>  (43) 
41

>  <SMILES>  (43) 
C=c1c(=Cc2c([O-])[n-]c(=O)[n-]c2=O)cc(C)n1-c1cccc(C(=O)N2CC[N-]C(=O)C2)c1

>  <Energy>  (43) 
106.30655154168818

>  <Genealogy>  (43) 
C=c1c(=Cc2c([O-])[n-]c(=O)[n-]c2=O)cc(C)n1-c1cccc(C(=O)N2CC[N-]C(=O)C2)c1 (protonated)
C=c1c(=Cc2c([O-])[n-]c(=O)[n-]c2=O)cc(C)n1-c1cccc(C(=O)N2CC[N-]C(=O)C2)c1 (3D coordinates assigned)
C=c1c(=Cc2c([O-])[n-]c(=O)[n-]c2=O)cc(C)n1-c1cccc(C(=O)N2CC[N-]C(=O)C2)c1 (nonaromatic ring conformer: 106.30655154168818 kcal/mol)

>  <smiles>  (43) 
C=c1c(=Cc2c(O)[nH]c(=O)[nH]c2=O)cc(C)n1-c1cccc(C(=O)N2CCNC(=O)C2)c1

>  <score_type>  (43) 
oracle

>  <origin>  (43) 
adg

>  <m_score__min__energy>  (43) 
-17.530000000000001

>  <m_primary>  (43) 
energy

$$$$
43:0
     RDKit          3D

 46 48  0  0  1  0  0  0  0  0999 V2000
   65.4190   32.4120   49.7610 C   0  0  0  0  0  0  0  0  0  0  0  0
   64.1080   32.7330   49.1330 C   0  0  0  0  0  0  0  0  0  0  0  0
   63.2060   33.3790   49.7590 O   0  0  0  0  0  0  0  0  0  0  0  0
   63.7770   32.3400   47.8030 N   0  0  0  0  0  0  0  0  0  0  0  0
   62.5040   32.6950   47.3010 C   0  0  0  0  0  0  0  0  0  0  0  0
   62.1690   33.9590   46.8700 C   0  0  0  0  0  0  0  0  0  0  0  0
   60.8910   34.2460   46.3830 C   0  0  0  0  0  0  0  0  0  0  0  0
   59.9340   33.2580   46.3260 C   0  0  0  0  0  0  0  0  0  0  0  0
   58.3210   33.4810   45.7480 S   0  0  0  0  0  0  0  0  0  0  0  0
   57.3710   33.1450   46.8830 O   0  0  0  0  0  0  0  0  0  0  0  0
   58.0300   34.9010   45.3590 O   0  0  0  0  0  0  0  0  0  0  0  0
   57.9920   32.4330   44.4160 N   0  0  0  0  0  0  0  0  0  0  0  0
   57.5580   31.2250   44.5360 C   0  0  0  0  0  0  0  0  0  0  0  0
   58.4260   30.2590   44.9740 C   0  0  0  0  0  0  0  0  0  0  0  0
   57.9380   28.9740   45.0940 C   0  0  0  0  0  0  0  0  0  0  0  0
   58.9450   27.6080   45.6520 S   0  0  0  0  0  0  0  0  0  0  0  0
   58.5440   27.1270   47.3400 C   0  0  0  0  0  0  0  0  0  0  0  0
   59.2800   28.0400   48.2530 C   0  0  0  0  0  0  0  0  0  0  0  0
   60.4650   27.7030   48.8690 C   0  0  0  0  0  0  0  0  0  0  0  0
   61.0800   28.6210   49.7050 C   0  0  0  0  0  0  0  0  0  0  0  0
   60.5090   29.8690   49.9200 C   0  0  0  0  0  0  0  0  0  0  0  0
   61.2760   31.0430   50.9770 Cl  0  0  0  0  0  0  0  0  0  0  0  0
   59.3130   30.2150   49.3010 C   0  0  0  0  0  0  0  0  0  0  0  0
   58.5740   31.8010   49.5680 Cl  0  0  0  0  0  0  0  0  0  0  0  0
   58.7020   29.2890   48.4650 C   0  0  0  0  0  0  0  0  0  0  0  0
   56.6560   28.7040   44.7870 N   0  0  0  0  0  0  0  0  0  0  0  0
   55.8510   29.6960   44.3610 C   0  0  0  0  0  0  0  0  0  0  0  0
   56.2830   30.9740   44.2260 N   0  0  0  0  0  0  0  0  0  0  0  0
   60.2900   31.9810   46.7660 C   0  0  0  0  0  0  0  0  0  0  0  0
   61.5490   31.6940   47.2470 C   0  0  0  0  0  0  0  0  0  0  0  0
   65.3170   32.4370   50.8560 H   0  0  0  0  0  0  0  0  0  0  0  0
   65.7408   31.4085   49.4455 H   0  0  0  0  0  0  0  0  0  0  0  0
   66.1680   33.1533   49.4455 H   0  0  0  0  0  0  0  0  0  0  0  0
   64.4870   31.8070   47.2500 H   0  0  0  0  0  0  0  0  0  0  0  0
   62.9227   34.7592   46.9098 H   0  0  0  0  0  0  0  0  0  0  0  0
   60.6490   35.2642   46.0443 H   0  0  0  0  0  0  0  0  0  0  0  0
   59.4709   30.4988   45.2203 H   0  0  0  0  0  0  0  0  0  0  0  0
   57.4611   27.2196   47.5094 H   0  0  0  0  0  0  0  0  0  0  0  0
   58.8326   26.0815   47.5232 H   0  0  0  0  0  0  0  0  0  0  0  0
   60.9184   26.7153   48.6990 H   0  0  0  0  0  0  0  0  0  0  0  0
   62.0262   28.3600   50.2015 H   0  0  0  0  0  0  0  0  0  0  0  0
   57.7550   29.5442   47.9670 H   0  0  0  0  0  0  0  0  0  0  0  0
   56.2630   27.7260   44.8720 H   0  0  0  0  0  0  0  0  0  0  0  0
   54.8053   29.4609   44.1136 H   0  0  0  0  0  0  0  0  0  0  0  0
   59.5400   31.1773   46.7272 H   0  0  0  0  0  0  0  0  0  0  0  0
   61.7936   30.6765   47.5858 H   0  0  0  0  0  0  0  0  0  0  0  0
  1  2  1  0
  2  3  2  0
  2  4  1  0
  4  5  1  0
  5  6  2  0
  6  7  1  0
  7  8  2  0
  8  9  1  0
  9 10  2  0
  9 11  2  0
  9 12  1  0
 12 13  2  0
 13 14  1  0
 14 15  2  0
 15 16  1  0
 16 17  1  0
 17 18  1  0
 18 19  2  0
 19 20  1  0
 20 21  2  0
 21 22  1  0
 21 23  1  0
 23 24  1  0
 23 25  2  0
 15 26  1  0
 26 27  1  0
 27 28  2  0
  8 29  1  0
 29 30  2  0
 30  5  1  0
 28 13  1  0
 25 18  1  0
  1 31  1  0
  1 32  1  0
  1 33  1  0
  4 34  1  0
  6 35  1  0
  7 36  1  0
 14 37  1  0
 17 38  1  0
 17 39  1  0
 19 40  1  0
 20 41  1  0
 25 42  1  0
 26 43  1  0
 27 44  1  0
 29 45  1  0
 30 46  1  0
M  END
>  <smiles>  (44) 
CC(=O)Nc1ccc(S(=O)(=O)N=c2cc(SCc3ccc(Cl)c(Cl)c3)[nH]cn2)cc1

>  <score_type>  (44) 
oracle

>  <origin>  (44) 
adg

>  <m_score__min__energy>  (44) 
-9.9399999999999995

>  <m_primary>  (44) 
energy

$$$$
44:0
     RDKit          3D

 55 58  0  0  0  0  0  0  0  0999 V2000
   58.0960   21.1610   43.5680 N   0  0  0  0  0  0  0  0  0  0  0  0
   57.0270   22.4390   44.0360 S   0  0  0  0  0  0  0  0  0  0  0  0
   55.6810   21.8610   44.3780 O   0  0  0  0  0  0  0  0  0  0  0  0
   56.8800   23.4060   42.8950 O   0  0  0  0  0  0  0  0  0  0  0  0
   57.7050   23.2860   45.4570 C   0  0  0  0  0  0  0  0  0  0  0  0
   57.0700   24.6300   45.6340 C   0  0  0  0  0  0  0  0  0  0  0  0
   55.8910   24.8990   46.3240 C   0  0  0  0  0  0  0  0  0  0  0  0
   55.5140   26.2030   46.3200 N   0  0  0  0  0  0  0  0  0  0  0  0
   56.3840   26.9680   45.6210 C   0  0  0  0  0  0  0  0  0  0  0  0
   56.2580   28.2510   45.4470 N   0  0  0  0  0  0  0  0  0  0  0  0
   57.0670   29.0760   44.5960 C   0  0  0  0  0  0  0  0  0  0  0  0
   56.7000   29.3310   43.4170 O   0  0  0  0  0  0  0  0  0  0  0  0
   58.3330   29.5700   45.0570 N   0  0  0  0  0  0  0  0  0  0  0  0
   59.5160   28.7110   45.1540 C   0  0  0  0  0  0  0  0  0  0  0  0
   60.5150   29.4480   46.0730 C   0  0  0  0  0  0  0  0  0  0  0  0
   59.8210   30.7270   46.3760 C   0  0  0  0  0  0  0  0  0  0  0  0
   60.3120   31.8000   47.1210 C   0  0  0  0  0  0  0  0  0  0  0  0
   59.5370   32.9650   47.2350 C   0  0  0  0  0  0  0  0  0  0  0  0
   60.0510   34.0190   48.0060 O   0  0  0  0  0  0  0  0  0  0  0  0
   59.8380   34.2090   49.4060 C   0  0  0  0  0  0  0  0  0  0  0  0
   59.8620   32.8690   50.1590 C   0  0  0  0  0  0  0  0  0  0  0  0
   58.5330   32.2190   50.1790 N   0  0  0  0  0  0  0  0  0  0  0  0
   58.6160   30.8060   49.7290 C   0  0  0  0  0  0  0  0  0  0  0  0
   58.5330   29.8180   50.9080 C   0  0  0  0  0  0  0  0  0  0  0  0
   57.3320   29.9350   51.6590 O   0  0  0  0  0  0  0  0  0  0  0  0
   56.8130   31.2590   51.7010 C   0  0  0  0  0  0  0  0  0  0  0  0
   57.8750   32.3530   51.5000 C   0  0  0  0  0  0  0  0  0  0  0  0
   58.2850   33.0310   46.5730 C   0  0  0  0  0  0  0  0  0  0  0  0
   57.8160   31.9410   45.8210 C   0  0  0  0  0  0  0  0  0  0  0  0
   56.6690   32.0690   45.1140 F   0  0  0  0  0  0  0  0  0  0  0  0
   58.5920   30.7720   45.7750 C   0  0  0  0  0  0  0  0  0  0  0  0
   57.6500   26.0700   44.9800 S   0  0  0  0  0  0  0  0  0  0  0  0
   58.7820   21.0340   44.3460 H   0  0  0  0  0  0  0  0  0  0  0  0
   57.5250   20.2870   43.5160 H   0  0  0  0  0  0  0  0  0  0  0  0
   57.5228   22.6807   46.3573 H   0  0  0  0  0  0  0  0  0  0  0  0
   58.7845   23.4266   45.2990 H   0  0  0  0  0  0  0  0  0  0  0  0
   55.3101   24.1156   46.8329 H   0  0  0  0  0  0  0  0  0  0  0  0
   59.2450   27.7379   45.5894 H   0  0  0  0  0  0  0  0  0  0  0  0
   59.9524   28.5193   44.1626 H   0  0  0  0  0  0  0  0  0  0  0  0
   60.7022   28.8738   46.9924 H   0  0  0  0  0  0  0  0  0  0  0  0
   61.5014   29.5930   45.6082 H   0  0  0  0  0  0  0  0  0  0  0  0
   61.2938   31.7338   47.6127 H   0  0  0  0  0  0  0  0  0  0  0  0
   60.6310   34.8588   49.8046 H   0  0  0  0  0  0  0  0  0  0  0  0
   58.8499   34.6709   49.5484 H   0  0  0  0  0  0  0  0  0  0  0  0
   60.5784   32.1967   49.6643 H   0  0  0  0  0  0  0  0  0  0  0  0
   60.1570   33.0699   51.1995 H   0  0  0  0  0  0  0  0  0  0  0  0
   57.7846   30.6042   49.0376 H   0  0  0  0  0  0  0  0  0  0  0  0
   59.5885   30.6638   49.2349 H   0  0  0  0  0  0  0  0  0  0  0  0
   58.5973   28.7944   50.5103 H   0  0  0  0  0  0  0  0  0  0  0  0
   59.3653   30.0530   51.5878 H   0  0  0  0  0  0  0  0  0  0  0  0
   56.0578   31.3600   50.9076 H   0  0  0  0  0  0  0  0  0  0  0  0
   56.3922   31.4045   52.7069 H   0  0  0  0  0  0  0  0  0  0  0  0
   57.3917   33.3392   51.5626 H   0  0  0  0  0  0  0  0  0  0  0  0
   58.6392   32.2475   52.2842 H   0  0  0  0  0  0  0  0  0  0  0  0
   57.6756   33.9436   46.6489 H   0  0  0  0  0  0  0  0  0  0  0  0
  1  2  1  0
  2  3  2  0
  2  4  2  0
  2  5  1  0
  5  6  1  0
  6  7  2  0
  7  8  1  0
  8  9  1  0
  9 10  2  3
 10 11  1  0
 11 12  2  0
 11 13  1  0
 13 14  1  0
 14 15  1  0
 15 16  1  0
 16 17  2  0
 17 18  1  0
 18 19  1  0
 19 20  1  0
 20 21  1  0
 21 22  1  0
 22 23  1  0
 23 24  1  0
 24 25  1  0
 25 26  1  0
 26 27  1  0
 18 28  2  0
 28 29  1  0
 29 30  1  0
 29 31  2  0
  9 32  1  0
 32  6  1  0
 31 13  1  0
 31 16  1  0
 27 22  1  0
  1 33  1  0
  1 34  1  0
  5 35  1  0
  5 36  1  0
  7 37  1  0
 14 38  1  0
 14 39  1  0
 15 40  1  0
 15 41  1  0
 17 42  1  0
 20 43  1  0
 20 44  1  0
 21 45  1  0
 21 46  1  0
 23 47  1  0
 23 48  1  0
 24 49  1  0
 24 50  1  0
 26 51  1  0
 26 52  1  0
 27 53  1  0
 27 54  1  0
 28 55  1  0
M  CHG  1   8  -1
M  END
>  <UniqueID>  (45) 
42

>  <SMILES>  (45) 
NS(=O)(=O)Cc1c[n-]c(=NC(=O)N2CCc3cc(OCCN4CCOCC4)cc(F)c32)s1

>  <Energy>  (45) 
115.29355073698311

>  <Genealogy>  (45) 
NS(=O)(=O)Cc1c[n-]c(=NC(=O)N2CCc3cc(OCCN4CCOCC4)cc(F)c32)s1 (protonated)
NS(=O)(=O)Cc1c[n-]c(=NC(=O)N2CCc3cc(OCCN4CCOCC4)cc(F)c32)s1 (3D coordinates assigned)
NS(=O)(=O)Cc1c[n-]c(=NC(=O)N2CCc3cc(OCCN4CCOCC4)cc(F)c32)s1 (nonaromatic ring conformer: 115.29355073698311 kcal/mol)

>  <smiles>  (45) 
NS(=O)(=O)Cc1c[nH]c(=NC(=O)N2CCc3cc(OCCN4CCOCC4)cc(F)c32)s1

>  <score_type>  (45) 
oracle

>  <origin>  (45) 
adg

>  <m_score__min__energy>  (45) 
-11.74

>  <m_primary>  (45) 
energy

$$$$
45:0
     RDKit          3D

 53 56  0  0  0  0  0  0  0  0999 V2000
   59.7240   29.2550   46.4650 N   0  0  0  0  0  0  0  0  0  0  0  0
   59.1290   28.5840   45.5290 C   0  0  0  0  0  0  0  0  0  0  0  0
   59.0540   27.2160   45.3800 C   0  0  0  0  0  0  0  0  0  0  0  0
   59.4290   26.1640   46.3390 C   0  0  0  0  0  0  0  0  0  0  0  0
   60.6160   25.7460   46.3810 O   0  0  0  0  0  0  0  0  0  0  0  0
   58.4340   25.5810   47.1770 N   0  0  0  0  0  0  0  0  0  0  0  0
   57.0180   25.9010   47.1080 C   0  0  0  0  0  0  0  0  0  0  0  0
   56.3320   24.8970   46.2270 C   0  0  0  0  0  0  0  0  0  0  0  0
   56.9880   23.7080   45.8750 C   0  0  0  0  0  0  0  0  0  0  0  0
   56.3730   22.7870   45.0290 C   0  0  0  0  0  0  0  0  0  0  0  0
   55.1060   23.0490   44.5180 C   0  0  0  0  0  0  0  0  0  0  0  0
   54.4570   24.2360   44.8400 C   0  0  0  0  0  0  0  0  0  0  0  0
   55.0630   25.1610   45.6910 C   0  0  0  0  0  0  0  0  0  0  0  0
   54.3950   26.3410   45.9940 O   0  0  0  0  0  0  0  0  0  0  0  0
   58.3880   26.9800   44.2260 N   0  0  0  0  0  0  0  0  0  0  0  0
   58.0650   28.1570   43.7060 N   0  0  0  0  0  0  0  0  0  0  0  0
   58.4880   29.1390   44.4870 N   0  0  0  0  0  0  0  0  0  0  0  0
   58.2450   30.5550   44.2420 C   0  0  0  0  0  0  0  0  0  0  0  0
   56.8910   30.9910   44.7370 C   0  0  0  0  0  0  0  0  0  0  0  0
   55.8890   30.2270   44.5390 O   0  0  0  0  0  0  0  0  0  0  0  0
   56.6830   32.3130   45.2670 N   0  0  0  0  0  0  0  0  0  0  0  0
   57.7270   33.2460   45.5580 C   0  0  0  0  0  0  0  0  0  0  0  0
   58.0800   34.2330   44.6230 C   0  0  0  0  0  0  0  0  0  0  0  0
   59.0900   35.1580   44.9180 C   0  0  0  0  0  0  0  0  0  0  0  0
   59.7550   35.0980   46.1470 C   0  0  0  0  0  0  0  0  0  0  0  0
   59.4270   34.0990   47.0900 C   0  0  0  0  0  0  0  0  0  0  0  0
   60.1500   34.0560   48.3890 C   0  0  0  0  0  0  0  0  0  0  0  0
   59.4750   34.2220   49.4590 O   0  0  0  0  0  0  0  0  0  0  0  0
   61.6050   33.7560   48.4950 C   0  0  0  0  0  0  0  0  0  0  0  0
   62.3600   33.3460   47.3790 C   0  0  0  0  0  0  0  0  0  0  0  0
   63.7120   33.0180   47.5110 C   0  0  0  0  0  0  0  0  0  0  0  0
   64.3310   33.0680   48.7660 C   0  0  0  0  0  0  0  0  0  0  0  0
   63.5850   33.4360   49.8860 C   0  0  0  0  0  0  0  0  0  0  0  0
   62.2390   33.7900   49.7560 C   0  0  0  0  0  0  0  0  0  0  0  0
   58.4370   33.1480   46.7650 C   0  0  0  0  0  0  0  0  0  0  0  0
   59.7250   28.9710   47.4690 H   0  0  0  0  0  0  0  0  0  0  0  0
   56.5821   25.8647   48.1173 H   0  0  0  0  0  0  0  0  0  0  0  0
   56.8852   26.9112   46.6934 H   0  0  0  0  0  0  0  0  0  0  0  0
   57.9940   23.5014   46.2692 H   0  0  0  0  0  0  0  0  0  0  0  0
   56.8897   21.8524   44.7652 H   0  0  0  0  0  0  0  0  0  0  0  0
   54.6171   22.3167   43.8587 H   0  0  0  0  0  0  0  0  0  0  0  0
   53.4616   24.4467   44.4220 H   0  0  0  0  0  0  0  0  0  0  0  0
   59.0179   31.1423   44.7594 H   0  0  0  0  0  0  0  0  0  0  0  0
   58.2783   30.7215   43.1552 H   0  0  0  0  0  0  0  0  0  0  0  0
   57.5608   34.2799   43.6544 H   0  0  0  0  0  0  0  0  0  0  0  0
   59.3599   35.9311   44.1835 H   0  0  0  0  0  0  0  0  0  0  0  0
   60.5386   35.8337   46.3807 H   0  0  0  0  0  0  0  0  0  0  0  0
   61.8796   33.2832   46.3914 H   0  0  0  0  0  0  0  0  0  0  0  0
   64.2922   32.7194   46.6255 H   0  0  0  0  0  0  0  0  0  0  0  0
   65.3976   32.8190   48.8681 H   0  0  0  0  0  0  0  0  0  0  0  0
   64.0594   33.4477   50.8784 H   0  0  0  0  0  0  0  0  0  0  0  0
   61.6684   34.0980   50.6446 H   0  0  0  0  0  0  0  0  0  0  0  0
   58.2201   32.3247   47.4616 H   0  0  0  0  0  0  0  0  0  0  0  0
  1  2  2  3
  2  3  1  0
  3  4  1  0
  4  5  2  0
  4  6  1  0
  6  7  1  0
  7  8  1  0
  8  9  2  0
  9 10  1  0
 10 11  2  0
 11 12  1  0
 12 13  2  0
 13 14  1  0
  3 15  2  0
 15 16  1  0
 16 17  1  0
 17 18  1  0
 18 19  1  0
 19 20  2  0
 19 21  1  0
 21 22  1  0
 22 23  2  0
 23 24  1  0
 24 25  2  0
 25 26  1  0
 26 27  1  0
 27 28  2  0
 27 29  1  0
 29 30  2  0
 30 31  1  0
 31 32  2  0
 32 33  1  0
 33 34  2  0
 26 35  2  0
 17  2  1  0
 35 22  1  0
 13  8  1  0
 34 29  1  0
  1 36  1  0
  7 37  1  0
  7 38  1  0
  9 39  1  0
 10 40  1  0
 11 41  1  0
 12 42  1  0
 18 43  1  0
 18 44  1  0
 23 45  1  0
 24 46  1  0
 25 47  1  0
 30 48  1  0
 31 49  1  0
 32 50  1  0
 33 51  1  0
 34 52  1  0
 35 53  1  0
M  CHG  4   6  -1  14  -1  16  -1  21  -1
M  END
>  <UniqueID>  (46) 
43

>  <SMILES>  (46) 
N=c1c(C(=O)[N-]Cc2ccccc2[O-])n[n-]n1CC(=O)[N-]c1cccc(C(=O)c2ccccc2)c1

>  <Energy>  (46) 
101.93729250875631

>  <Genealogy>  (46) 
N=c1c(C(=O)[N-]Cc2ccccc2[O-])n[n-]n1CC(=O)[N-]c1cccc(C(=O)c2ccccc2)c1 (protonated)
N=c1c(C(=O)[N-]Cc2ccccc2[O-])n[n-]n1CC(=O)[N-]c1cccc(C(=O)c2ccccc2)c1 (3D coordinates assigned)
N=c1c(C(=O)[N-]Cc2ccccc2[O-])n[n-]n1CC(=O)[N-]c1cccc(C(=O)c2ccccc2)c1 (optimized conformer: 101.93729250875631 kcal/mol)

>  <smiles>  (46) 
N=c1c(C(=O)NCc2ccccc2O)n[nH]n1CC(=O)Nc1cccc(C(=O)c2ccccc2)c1

>  <score_type>  (46) 
oracle

>  <origin>  (46) 
adg

>  <m_score__min__energy>  (46) 
-17.100000000000001

>  <m_primary>  (46) 
energy

$$$$
46:0
     RDKit          3D

 46 48  0  0  0  0  0  0  0  0999 V2000
   62.1120   30.9410   50.0360 C   0  0  0  0  0  0  0  0  0  0  0  0
   61.2470   30.1630   49.1310 N   0  0  0  0  0  0  0  0  0  0  0  0
   61.0690   28.7940   49.6460 C   0  0  0  0  0  0  0  0  0  0  0  0
   60.2960   27.9270   48.6290 C   0  0  0  0  0  0  0  0  0  0  0  0
   59.2410   28.6700   47.8940 N   0  0  0  0  0  0  0  0  0  0  0  0
   59.6000   28.9420   46.4820 C   0  0  0  0  0  0  0  0  0  0  0  0
   58.4720   29.6400   45.7690 C   0  0  0  0  0  0  0  0  0  0  0  0
   58.6140   30.9560   45.4600 N   0  0  0  0  0  0  0  0  0  0  0  0
   57.6180   31.6520   44.8570 C   0  0  0  0  0  0  0  0  0  0  0  0
   57.8260   33.3970   44.5160 S   0  0  0  0  0  0  0  0  0  0  0  0
   57.8020   33.8970   46.2750 C   0  0  0  0  0  0  0  0  0  0  0  0
   59.1900   33.9160   46.8530 C   0  0  0  0  0  0  0  0  0  0  0  0
   60.2980   33.5740   46.0590 C   0  0  0  0  0  0  0  0  0  0  0  0
   61.5810   33.5530   46.6110 C   0  0  0  0  0  0  0  0  0  0  0  0
   61.7700   33.8720   47.9600 C   0  0  0  0  0  0  0  0  0  0  0  0
   63.3810   33.8410   48.6520 Cl  0  0  0  0  0  0  0  0  0  0  0  0
   60.6710   34.2120   48.7570 C   0  0  0  0  0  0  0  0  0  0  0  0
   59.3860   34.2310   48.2080 C   0  0  0  0  0  0  0  0  0  0  0  0
   56.4490   31.0360   44.5450 N   0  0  0  0  0  0  0  0  0  0  0  0
   56.2500   29.7250   44.8320 C   0  0  0  0  0  0  0  0  0  0  0  0
   55.1500   29.1870   44.5330 O   0  0  0  0  0  0  0  0  0  0  0  0
   57.2620   28.9850   45.4620 C   0  0  0  0  0  0  0  0  0  0  0  0
   57.0570   27.5910   45.7880 C   0  0  0  0  0  0  0  0  0  0  0  0
   56.8910   26.4760   46.0490 N   0  0  0  0  0  0  0  0  0  0  0  0
   58.7880   29.8760   48.6180 C   0  0  0  0  0  0  0  0  0  0  0  0
   59.9440   30.8490   48.9380 C   0  0  0  0  0  0  0  0  0  0  0  0
   61.8537   30.7087   51.0797 H   0  0  0  0  0  0  0  0  0  0  0  0
   63.1645   30.6797   49.8518 H   0  0  0  0  0  0  0  0  0  0  0  0
   61.9633   32.0152   49.8518 H   0  0  0  0  0  0  0  0  0  0  0  0
   61.7450   30.1060   48.2110 H   0  0  0  0  0  0  0  0  0  0  0  0
   62.0566   28.3447   49.8272 H   0  0  0  0  0  0  0  0  0  0  0  0
   60.4940   28.8395   50.5826 H   0  0  0  0  0  0  0  0  0  0  0  0
   61.0132   27.5268   47.8973 H   0  0  0  0  0  0  0  0  0  0  0  0
   59.7927   27.1326   49.1996 H   0  0  0  0  0  0  0  0  0  0  0  0
   60.4948   29.5811   46.4540 H   0  0  0  0  0  0  0  0  0  0  0  0
   59.7976   27.9847   45.9775 H   0  0  0  0  0  0  0  0  0  0  0  0
   57.3655   34.9034   46.3562 H   0  0  0  0  0  0  0  0  0  0  0  0
   57.2003   33.1673   46.8367 H   0  0  0  0  0  0  0  0  0  0  0  0
   60.1543   33.3217   44.9980 H   0  0  0  0  0  0  0  0  0  0  0  0
   62.4442   33.2852   45.9840 H   0  0  0  0  0  0  0  0  0  0  0  0
   60.8189   34.4647   49.8173 H   0  0  0  0  0  0  0  0  0  0  0  0
   58.5244   34.4937   48.8394 H   0  0  0  0  0  0  0  0  0  0  0  0
   58.0474   30.4016   47.9973 H   0  0  0  0  0  0  0  0  0  0  0  0
   58.3568   29.5465   49.5748 H   0  0  0  0  0  0  0  0  0  0  0  0
   60.0431   31.5607   48.1051 H   0  0  0  0  0  0  0  0  0  0  0  0
   59.6958   31.3532   49.8836 H   0  0  0  0  0  0  0  0  0  0  0  0
  1  2  1  0
  2  3  1  0
  3  4  1  0
  4  5  1  0
  5  6  1  0
  6  7  1  0
  7  8  1  0
  8  9  1  0
  9 10  1  0
 10 11  1  0
 11 12  1  0
 12 13  2  0
 13 14  1  0
 14 15  2  0
 15 16  1  0
 15 17  1  0
 17 18  2  0
  9 19  2  0
 19 20  1  0
 20 21  2  0
 20 22  1  0
 22 23  1  0
 23 24  3  0
  5 25  1  0
 25 26  1  0
 26  2  1  0
 22  7  2  0
 18 12  1  0
  1 27  1  0
  1 28  1  0
  1 29  1  0
  2 30  1  0
  3 31  1  0
  3 32  1  0
  4 33  1  0
  4 34  1  0
  6 35  1  0
  6 36  1  0
 11 37  1  0
 11 38  1  0
 13 39  1  0
 14 40  1  0
 17 41  1  0
 18 42  1  0
 25 43  1  0
 25 44  1  0
 26 45  1  0
 26 46  1  0
M  CHG  2   2   1   8  -1
M  END
>  <UniqueID>  (47) 
44

>  <SMILES>  (47) 
C[NH+]1CCN(Cc2[n-]c(SCc3ccc(Cl)cc3)nc(=O)c2C#N)CC1

>  <Energy>  (47) 
55.2767455254435

>  <Genealogy>  (47) 
C[NH+]1CCN(Cc2[n-]c(SCc3ccc(Cl)cc3)nc(=O)c2C#N)CC1 (protonated)
C[NH+]1CCN(Cc2[n-]c(SCc3ccc(Cl)cc3)nc(=O)c2C#N)CC1 (3D coordinates assigned)
C[NH+]1CCN(Cc2[n-]c(SCc3ccc(Cl)cc3)nc(=O)c2C#N)CC1 (nonaromatic ring conformer: 55.2767455254435 kcal/mol)

>  <smiles>  (47) 
CN1CCN(Cc2[nH]c(SCc3ccc(Cl)cc3)nc(=O)c2C#N)CC1

>  <score_type>  (47) 
oracle

>  <origin>  (47) 
adg

>  <m_score__min__energy>  (47) 
-8.1400000000000006

>  <m_primary>  (47) 
energy

$$$$
47:0
     RDKit          3D

 36 38  0  0  0  0  0  0  0  0999 V2000
   57.6428   26.2085   47.7631 H   0  0  0  0  0  0  0  0  0  0  0  0
   57.8290   26.3130   46.6840 C   0  0  0  0  0  0  0  0  0  0  0  0
   58.4980   25.3380   46.0520 C   0  0  0  0  0  0  0  0  0  0  0  0
   59.5941   25.3123   46.1406 H   0  0  0  0  0  0  0  0  0  0  0  0
   57.8320   24.2950   45.2410 C   0  0  0  0  0  0  0  0  0  0  0  0
   57.4910   24.6030   43.9130 C   0  0  0  0  0  0  0  0  0  0  0  0
   57.7241   25.5983   43.5068 H   0  0  0  0  0  0  0  0  0  0  0  0
   56.8580   23.6550   43.1040 C   0  0  0  0  0  0  0  0  0  0  0  0
   56.6069   23.9024   42.0620 H   0  0  0  0  0  0  0  0  0  0  0  0
   56.5440   22.3950   43.6160 C   0  0  0  0  0  0  0  0  0  0  0  0
   55.9190   21.4530   42.8090 O   0  0  0  0  0  0  0  0  0  0  0  0
   56.8530   22.0840   44.9430 C   0  0  0  0  0  0  0  0  0  0  0  0
   56.6021   21.0913   45.3450 H   0  0  0  0  0  0  0  0  0  0  0  0
   57.4800   23.0290   45.7630 C   0  0  0  0  0  0  0  0  0  0  0  0
   57.7160   22.7090   47.0960 O   0  0  0  0  0  0  0  0  0  0  0  0
   57.3290   27.5260   45.9930 C   0  0  0  0  0  0  0  0  0  0  0  0
   55.9780   27.6160   45.6180 C   0  0  0  0  0  0  0  0  0  0  0  0
   55.0950   26.5760   45.8860 O   0  0  0  0  0  0  0  0  0  0  0  0
   55.5210   28.7230   44.9740 N   0  0  0  0  0  0  0  0  0  0  0  0
   56.3310   29.7690   44.6710 C   0  0  0  0  0  0  0  0  0  0  0  0
   55.8560   30.7650   44.0620 O   0  0  0  0  0  0  0  0  0  0  0  0
   57.6840   29.7400   45.0330 C   0  0  0  0  0  0  0  0  0  0  0  0
   58.5290   30.8500   44.6890 N   0  0  0  0  0  0  0  0  0  0  0  0
   58.2160   32.5070   45.1000 S   0  0  0  0  0  0  0  0  0  0  0  0
   58.3900   33.3610   43.8770 O   0  0  0  0  0  0  0  0  0  0  0  0
   56.8020   32.6340   45.5940 O   0  0  0  0  0  0  0  0  0  0  0  0
   59.3380   33.0440   46.3360 C   0  0  0  0  0  0  0  0  0  0  0  0
   59.2090   34.4770   47.2030 S   0  0  0  0  0  0  0  0  0  0  0  0
   60.5400   34.2000   48.1940 C   0  0  0  0  0  0  0  0  0  0  0  0
   60.9106   34.8770   48.9778 H   0  0  0  0  0  0  0  0  0  0  0  0
   61.0920   32.9700   47.8540 C   0  0  0  0  0  0  0  0  0  0  0  0
   61.9753   32.5476   48.3553 H   0  0  0  0  0  0  0  0  0  0  0  0
   60.4180   32.3200   46.8140 C   0  0  0  0  0  0  0  0  0  0  0  0
   60.7146   31.3376   46.4178 H   0  0  0  0  0  0  0  0  0  0  0  0
   58.1700   28.6170   45.7190 C   0  0  0  0  0  0  0  0  0  0  0  0
   59.2201   28.5906   46.0455 H   0  0  0  0  0  0  0  0  0  0  0  0
  1  2  1  0
  2  3  2  0
  3  4  1  0
  3  5  1  0
  5  6  2  0
  6  7  1  0
  6  8  1  0
  8  9  1  0
  8 10  2  0
 10 11  1  0
 10 12  1  0
 12 13  1  0
 12 14  2  0
 14 15  1  0
  2 16  1  0
 16 17  2  0
 17 18  1  0
 17 19  1  0
 19 20  1  0
 20 21  2  0
 20 22  1  0
 22 23  1  0
 23 24  1  0
 24 25  2  0
 24 26  2  0
 24 27  1  0
 27 28  1  0
 28 29  1  0
 29 30  1  0
 29 31  2  0
 31 32  1  0
 31 33  1  0
 33 34  1  0
 22 35  2  0
 35 36  1  0
 14  5  1  0
 35 16  1  0
 33 27  2  0
M  CHG  5  11  -1  15  -1  18  -1  19  -1  23  -1
M  END
>  <UniqueID>  (48) 
45

>  <SMILES>  (48) 
O=c1[n-]c([O-])c(/C=C/c2ccc([O-])cc2[O-])cc1[N-]S(=O)(=O)c1cccs1

>  <Energy>  (48) 
76.37272015591351

>  <Genealogy>  (48) 
O=c1[n-]c([O-])c(C=Cc2ccc([O-])cc2[O-])cc1[N-]S(=O)(=O)c1cccs1 (protonated)
O=c1[n-]c([O-])c(/C=C/c2ccc([O-])cc2[O-])cc1[N-]S(=O)(=O)c1cccs1 (cis-trans isomerization)
O=c1[n-]c([O-])c(/C=C/c2ccc([O-])cc2[O-])cc1[N-]S(=O)(=O)c1cccs1 (3D coordinates assigned)
O=c1[n-]c([O-])c(/C=C/c2ccc([O-])cc2[O-])cc1[N-]S(=O)(=O)c1cccs1 (optimized conformer: 76.37272015591351 kcal/mol)

>  <smiles>  (48) 
O=c1[nH]c(O)c(C=Cc2ccc(O)cc2O)cc1NS(=O)(=O)c1cccs1

>  <score_type>  (48) 
oracle

>  <origin>  (48) 
adg

>  <m_score__min__energy>  (48) 
-20.16

>  <m_primary>  (48) 
energy

$$$$
48:0
     RDKit          3D

 54 57  0  0  0  0  0  0  0  0999 V2000
   57.3350   25.5190   47.4720 C   0  0  0  0  0  0  0  0  0  0  0  0
   57.7900   25.9010   46.2680 C   0  0  0  0  0  0  0  0  0  0  0  0
   57.4270   25.3750   45.0150 C   0  0  0  0  0  0  0  0  0  0  0  0
   56.7020   24.2890   44.6860 C   0  0  0  0  0  0  0  0  0  0  0  0
   55.3150   24.0260   45.1040 C   0  0  0  0  0  0  0  0  0  0  0  0
   54.6680   22.8630   44.9000 N   0  0  0  0  0  0  0  0  0  0  0  0
   53.4090   23.1320   45.3070 C   0  0  0  0  0  0  0  0  0  0  0  0
   52.4910   22.2710   45.2840 O   0  0  0  0  0  0  0  0  0  0  0  0
   53.2070   24.3980   45.7290 N   0  0  0  0  0  0  0  0  0  0  0  0
   54.4200   24.9560   45.5810 C   0  0  0  0  0  0  0  0  0  0  0  0
   54.6920   26.2880   45.8790 O   0  0  0  0  0  0  0  0  0  0  0  0
   58.0060   26.2040   44.0670 C   0  0  0  0  0  0  0  0  0  0  0  0
   58.7330   27.1530   44.7530 C   0  0  0  0  0  0  0  0  0  0  0  0
   59.5490   28.2340   44.1110 C   0  0  0  0  0  0  0  0  0  0  0  0
   58.6130   26.9650   46.0850 N   0  0  0  0  0  0  0  0  0  0  0  0
   59.1910   27.8080   47.0970 C   0  0  0  0  0  0  0  0  0  0  0  0
   58.8970   29.1780   47.1310 C   0  0  0  0  0  0  0  0  0  0  0  0
   59.4760   29.9980   48.1030 C   0  0  0  0  0  0  0  0  0  0  0  0
   60.3710   29.4610   49.0420 C   0  0  0  0  0  0  0  0  0  0  0  0
   60.9810   30.3180   50.0800 C   0  0  0  0  0  0  0  0  0  0  0  0
   61.3030   29.8010   51.1840 O   0  0  0  0  0  0  0  0  0  0  0  0
   61.2340   31.7170   49.8510 N   0  0  0  0  0  0  0  0  0  0  0  0
   62.5630   32.2340   49.5780 C   0  0  0  0  0  0  0  0  0  0  0  0
   62.3760   33.7200   49.3050 C   0  0  0  0  0  0  0  0  0  0  0  0
   60.8930   33.8970   48.9630 C   0  0  1  0  0  0  0  0  0  0  0  0
   60.6990   33.8630   47.5140 N   0  0  0  0  0  0  0  0  0  0  0  0
   59.4540   34.1120   46.8490 C   0  0  0  0  0  0  0  0  0  0  0  0
   58.6490   33.0030   46.2450 C   0  0  0  0  0  0  0  0  0  0  0  0
   59.0440   35.2980   46.7490 O   0  0  0  0  0  0  0  0  0  0  0  0
   60.1910   32.7020   49.6050 C   0  0  0  0  0  0  0  0  0  0  0  0
   60.6520   28.0860   49.0150 C   0  0  0  0  0  0  0  0  0  0  0  0
   60.0720   27.2670   48.0420 C   0  0  0  0  0  0  0  0  0  0  0  0
   57.7027   26.0159   48.3819 H   0  0  0  0  0  0  0  0  0  0  0  0
   56.5945   24.7092   47.5485 H   0  0  0  0  0  0  0  0  0  0  0  0
   57.1876   23.5337   44.0506 H   0  0  0  0  0  0  0  0  0  0  0  0
   54.3880   26.7060   46.7500 H   0  0  0  0  0  0  0  0  0  0  0  0
   57.9046   26.1204   42.9749 H   0  0  0  0  0  0  0  0  0  0  0  0
   60.0162   28.8530   44.8911 H   0  0  0  0  0  0  0  0  0  0  0  0
   60.3316   27.7801   43.4854 H   0  0  0  0  0  0  0  0  0  0  0  0
   58.8980   28.8623   43.4854 H   0  0  0  0  0  0  0  0  0  0  0  0
   58.2080   29.6092   46.3898 H   0  0  0  0  0  0  0  0  0  0  0  0
   59.2294   31.0696   48.1326 H   0  0  0  0  0  0  0  0  0  0  0  0
   63.2198   32.0830   50.4473 H   0  0  0  0  0  0  0  0  0  0  0  0
   63.0329   31.7197   48.7267 H   0  0  0  0  0  0  0  0  0  0  0  0
   62.6367   34.3092   50.1965 H   0  0  0  0  0  0  0  0  0  0  0  0
   63.0248   34.0666   48.4871 H   0  0  0  0  0  0  0  0  0  0  0  0
   60.5009   34.8586   49.3256 H   0  0  0  0  0  0  0  0  0  0  0  0
   58.2062   32.3930   47.0461 H   0  0  0  0  0  0  0  0  0  0  0  0
   57.8479   33.4283   45.6226 H   0  0  0  0  0  0  0  0  0  0  0  0
   59.3016   32.3731   45.6226 H   0  0  0  0  0  0  0  0  0  0  0  0
   59.7143   33.0000   50.5505 H   0  0  0  0  0  0  0  0  0  0  0  0
   59.3987   32.3004   48.9562 H   0  0  0  0  0  0  0  0  0  0  0  0
   61.3315   27.6511   49.7627 H   0  0  0  0  0  0  0  0  0  0  0  0
   60.3085   26.1930   48.0184 H   0  0  0  0  0  0  0  0  0  0  0  0
  1  2  2  0
  2  3  1  0
  3  4  2  3
  4  5  1  0
  5  6  1  0
  6  7  1  0
  7  8  2  0
  7  9  1  0
  9 10  1  0
 10 11  1  0
  3 12  1  0
 12 13  2  0
 13 14  1  0
 13 15  1  0
 15 16  1  0
 16 17  2  0
 17 18  1  0
 18 19  2  0
 19 20  1  0
 20 21  2  0
 20 22  1  0
 22 23  1  0
 23 24  1  0
 24 25  1  0
 25 26  1  0
 26 27  1  0
 27 28  1  0
 27 29  2  0
 25 30  1  0
 19 31  1  0
 31 32  2  0
 15  2  1  0
 32 16  1  0
 10  5  2  0
 30 22  1  0
  1 33  1  0
  1 34  1  0
  4 35  1  0
 11 36  1  0
 12 37  1  0
 14 38  1  0
 14 39  1  0
 14 40  1  0
 17 41  1  0
 18 42  1  0
 23 43  1  0
 23 44  1  0
 24 45  1  0
 24 46  1  0
 25 47  1  1
 28 48  1  0
 28 49  1  0
 28 50  1  0
 30 51  1  0
 30 52  1  0
 31 53  1  0
 32 54  1  0
M  CHG  3   6  -1   9  -1  26  -1
M  END
>  <UniqueID>  (49) 
46

>  <SMILES>  (49) 
C=c1c(=Cc2[n-]c(=O)[n-]c2O)cc(C)n1-c1ccc(C(=O)N2CC[C@@H]([N-]C(C)=O)C2)cc1

>  <Energy>  (49) 
133.58117401108436

>  <Genealogy>  (49) 
C=c1c(=Cc2[n-]c(=O)[n-]c2O)cc(C)n1-c1ccc(C(=O)N2CCC([N-]C(C)=O)C2)cc1 (protonated)
C=c1c(=Cc2[n-]c(=O)[n-]c2O)cc(C)n1-c1ccc(C(=O)N2CC[C@@H]([N-]C(C)=O)C2)cc1 (chirality)
C=c1c(=Cc2[n-]c(=O)[n-]c2O)cc(C)n1-c1ccc(C(=O)N2CC[C@@H]([N-]C(C)=O)C2)cc1 (3D coordinates assigned)
C=c1c(=Cc2[n-]c(=O)[n-]c2O)cc(C)n1-c1ccc(C(=O)N2CC[C@@H]([N-]C(C)=O)C2)cc1 (nonaromatic ring conformer: 133.58117401108436 kcal/mol)

>  <smiles>  (49) 
C=c1c(=Cc2[nH]c(=O)[nH]c2O)cc(C)n1-c1ccc(C(=O)N2CCC(NC(C)=O)C2)cc1

>  <score_type>  (49) 
oracle

>  <origin>  (49) 
adg

>  <m_score__min__energy>  (49) 
-14.039999999999999

>  <m_primary>  (49) 
energy

$$$$
49:0
     RDKit          3D

 62 65  0  0  0  0  0  0  0  0999 V2000
   61.3970   32.6770   52.3300 N   0  0  0  0  0  0  0  0  0  0  0  0
   60.0210   32.2860   52.3630 C   0  0  0  0  0  0  0  0  0  0  0  0
   59.6560   31.1470   53.0990 C   0  0  0  0  0  0  0  0  0  0  0  0
   58.3110   30.8040   53.2510 C   0  0  0  0  0  0  0  0  0  0  0  0
   57.3180   31.6010   52.6820 C   0  0  0  0  0  0  0  0  0  0  0  0
   57.6670   32.7310   51.9380 C   0  0  0  0  0  0  0  0  0  0  0  0
   59.0140   33.0630   51.7420 C   0  0  0  0  0  0  0  0  0  0  0  0
   59.3170   34.2050   50.9280 N   0  0  0  0  0  0  0  0  0  0  0  0
   60.0850   34.1640   49.7180 C   0  0  0  0  0  0  0  0  0  0  0  0
   61.3390   34.3030   49.7680 O   0  0  0  0  0  0  0  0  0  0  0  0
   59.4150   33.9290   48.4160 C   0  0  0  0  0  0  0  0  0  0  0  0
   59.6530   34.7800   47.3240 C   0  0  0  0  0  0  0  0  0  0  0  0
   59.0060   34.5650   46.1050 C   0  0  0  0  0  0  0  0  0  0  0  0
   58.1190   33.4890   45.9500 C   0  0  0  0  0  0  0  0  0  0  0  0
   57.4050   33.2840   44.6420 C   0  0  0  0  0  0  0  0  0  0  0  0
   57.8560   32.0480   44.0060 N   0  0  0  0  0  0  0  0  0  0  0  0
   57.0700   30.8530   43.9910 C   0  0  0  0  0  0  0  0  0  0  0  0
   55.9130   30.8450   44.4940 O   0  0  0  0  0  0  0  0  0  0  0  0
   57.6060   29.6690   43.3900 N   0  0  0  0  0  0  0  0  0  0  0  0
   57.4040   28.3270   43.9260 C   0  0  0  0  0  0  0  0  0  0  0  0
   58.1830   28.1590   45.2010 C   0  0  0  0  0  0  0  0  0  0  0  0
   57.7970   28.8580   46.3530 C   0  0  0  0  0  0  0  0  0  0  0  0
   58.5240   28.7200   47.5360 C   0  0  0  0  0  0  0  0  0  0  0  0
   59.6440   27.8820   47.5970 C   0  0  0  0  0  0  0  0  0  0  0  0
   60.3300   27.7770   48.8530 N   0  0  0  0  0  0  0  0  0  0  0  0
   60.6930   29.0610   49.9620 S   0  0  0  0  0  0  0  0  0  0  0  0
   61.6360   28.5640   51.0240 O   0  0  0  0  0  0  0  0  0  0  0  0
   59.4160   29.5550   50.5850 O   0  0  0  0  0  0  0  0  0  0  0  0
   61.4530   30.3980   49.0950 C   0  0  0  0  0  0  0  0  0  0  0  0
   61.0180   30.7460   47.8060 C   0  0  0  0  0  0  0  0  0  0  0  0
   61.6260   31.8030   47.1180 C   0  0  0  0  0  0  0  0  0  0  0  0
   62.6740   32.5150   47.7090 C   0  0  0  0  0  0  0  0  0  0  0  0
   63.4400   33.8300   46.8420 Cl  0  0  0  0  0  0  0  0  0  0  0  0
   63.1160   32.1680   48.9900 C   0  0  0  0  0  0  0  0  0  0  0  0
   62.5100   31.1130   49.6830 C   0  0  0  0  0  0  0  0  0  0  0  0
   62.9580   30.7880   50.9220 F   0  0  0  0  0  0  0  0  0  0  0  0
   60.0520   27.1970   46.4320 C   0  0  0  0  0  0  0  0  0  0  0  0
   61.1610   26.4190   46.4130 F   0  0  0  0  0  0  0  0  0  0  0  0
   59.3200   27.3380   45.2460 C   0  0  0  0  0  0  0  0  0  0  0  0
   57.8860   32.6300   47.0340 C   0  0  0  0  0  0  0  0  0  0  0  0
   58.5250   32.8500   48.2580 C   0  0  0  0  0  0  0  0  0  0  0  0
   62.1350   32.1320   52.8280 H   0  0  0  0  0  0  0  0  0  0  0  0
   61.7090   33.4630   51.7200 H   0  0  0  0  0  0  0  0  0  0  0  0
   60.4348   30.5209   53.5588 H   0  0  0  0  0  0  0  0  0  0  0  0
   58.0344   29.9042   53.8201 H   0  0  0  0  0  0  0  0  0  0  0  0
   56.2584   31.3396   52.8192 H   0  0  0  0  0  0  0  0  0  0  0  0
   56.8793   33.3639   51.5034 H   0  0  0  0  0  0  0  0  0  0  0  0
   60.3536   35.6214   47.4297 H   0  0  0  0  0  0  0  0  0  0  0  0
   59.1932   35.2442   45.2603 H   0  0  0  0  0  0  0  0  0  0  0  0
   56.3221   33.2235   44.8254 H   0  0  0  0  0  0  0  0  0  0  0  0
   57.6279   34.1308   43.9762 H   0  0  0  0  0  0  0  0  0  0  0  0
   58.7990   32.0330   43.5530 H   0  0  0  0  0  0  0  0  0  0  0  0
   56.3340   28.1737   44.1301 H   0  0  0  0  0  0  0  0  0  0  0  0
   57.7534   27.5881   43.1898 H   0  0  0  0  0  0  0  0  0  0  0  0
   56.9175   29.5180   46.3244 H   0  0  0  0  0  0  0  0  0  0  0  0
   58.2132   29.2768   48.4323 H   0  0  0  0  0  0  0  0  0  0  0  0
   60.1966   30.1861   47.3351 H   0  0  0  0  0  0  0  0  0  0  0  0
   61.2783   32.0739   46.1102 H   0  0  0  0  0  0  0  0  0  0  0  0
   63.9425   32.7258   49.4545 H   0  0  0  0  0  0  0  0  0  0  0  0
   59.6396   26.8000   44.3413 H   0  0  0  0  0  0  0  0  0  0  0  0
   57.1976   31.7796   46.9207 H   0  0  0  0  0  0  0  0  0  0  0  0
   58.3307   32.1745   49.1042 H   0  0  0  0  0  0  0  0  0  0  0  0
  1  2  1  0
  2  3  2  0
  3  4  1  0
  4  5  2  0
  5  6  1  0
  6  7  2  0
  7  8  1  0
  8  9  1  0
  9 10  2  0
  9 11  1  0
 11 12  2  0
 12 13  1  0
 13 14  2  0
 14 15  1  0
 15 16  1  0
 16 17  1  0
 17 18  2  0
 17 19  1  0
 19 20  1  0
 20 21  1  0
 21 22  2  0
 22 23  1  0
 23 24  2  0
 24 25  1  0
 25 26  1  0
 26 27  2  0
 26 28  2  0
 26 29  1  0
 29 30  2  0
 30 31  1  0
 31 32  2  0
 32 33  1  0
 32 34  1  0
 34 35  2  0
 35 36  1  0
 24 37  1  0
 37 38  1  0
 37 39  2  0
 14 40  1  0
 40 41  2  0
  7  2  1  0
 41 11  1  0
 39 21  1  0
 35 29  1  0
  1 42  1  0
  1 43  1  0
  3 44  1  0
  4 45  1  0
  5 46  1  0
  6 47  1  0
 12 48  1  0
 13 49  1  0
 15 50  1  0
 15 51  1  0
 16 52  1  0
 20 53  1  0
 20 54  1  0
 22 55  1  0
 23 56  1  0
 30 57  1  0
 31 58  1  0
 34 59  1  0
 39 60  1  0
 40 61  1  0
 41 62  1  0
M  CHG  3   8  -1  19  -1  25  -1
M  END
>  <UniqueID>  (50) 
47

>  <SMILES>  (50) 
Nc1ccccc1[N-]C(=O)c1ccc(CNC(=O)[N-]Cc2ccc([N-]S(=O)(=O)c3ccc(Cl)cc3F)c(F)c2)cc1

>  <Energy>  (50) 
76.86813974645356

>  <Genealogy>  (50) 
Nc1ccccc1[N-]C(=O)c1ccc(CNC(=O)[N-]Cc2ccc([N-]S(=O)(=O)c3ccc(Cl)cc3F)c(F)c2)cc1 (protonated)
Nc1ccccc1[N-]C(=O)c1ccc(CNC(=O)[N-]Cc2ccc([N-]S(=O)(=O)c3ccc(Cl)cc3F)c(F)c2)cc1 (3D coordinates assigned)
Nc1ccccc1[N-]C(=O)c1ccc(CNC(=O)[N-]Cc2ccc([N-]S(=O)(=O)c3ccc(Cl)cc3F)c(F)c2)cc1 (optimized conformer: 76.86813974645356 kcal/mol)

>  <smiles>  (50) 
Nc1ccccc1NC(=O)c1ccc(CNC(=O)NCc2ccc(NS(=O)(=O)c3ccc(Cl)cc3F)c(F)c2)cc1

>  <score_type>  (50) 
oracle

>  <origin>  (50) 
adg

>  <m_score__min__energy>  (50) 
-13.23

>  <m_primary>  (50) 
energy

$$$$
50:0
     RDKit          3D

 65 68  0  0  0  0  0  0  0  0999 V2000
   56.4010   23.1210   48.0610 C   0  0  0  0  0  0  0  0  0  0  0  0
   55.2510   22.8990   47.4200 C   0  0  0  0  0  0  0  0  0  0  0  0
   54.7680   23.7740   46.3290 C   0  0  0  0  0  0  0  0  0  0  0  0
   54.0890   23.2910   45.3840 O   0  0  0  0  0  0  0  0  0  0  0  0
   55.1230   25.1610   46.2800 N   0  0  0  0  0  0  0  0  0  0  0  0
   56.3800   25.6960   45.8410 C   0  0  0  0  0  0  0  0  0  0  0  0
   57.0350   26.7060   46.5670 C   0  0  0  0  0  0  0  0  0  0  0  0
   58.2450   27.2430   46.1020 C   0  0  0  0  0  0  0  0  0  0  0  0
   58.8910   28.3280   46.7980 N   0  0  0  0  0  0  0  0  0  0  0  0
   58.7500   29.6290   46.3670 C   0  0  0  0  0  0  0  0  0  0  0  0
   58.2310   29.9760   44.9680 C   0  0  0  0  0  0  0  0  0  0  0  0
   56.9110   30.6660   44.9720 N   0  0  0  0  0  0  0  0  0  0  0  0
   57.0370   32.1400   44.8910 C   0  0  0  0  0  0  0  0  0  0  0  0
   58.2640   32.5720   44.0730 C   0  0  0  0  0  0  0  0  0  0  0  0
   58.3370   32.0520   42.6300 C   0  0  0  0  0  0  0  0  0  0  0  0
   56.9950   31.5780   42.0540 C   0  0  0  0  0  0  0  0  0  0  0  0
   56.6400   30.1660   42.5330 C   0  0  0  0  0  0  0  0  0  0  0  0
   56.0070   30.1310   43.9250 C   0  0  0  0  0  0  0  0  0  0  0  0
   59.1480   30.6780   47.2090 C   0  0  0  0  0  0  0  0  0  0  0  0
   59.7940   30.4190   48.4200 C   0  0  0  0  0  0  0  0  0  0  0  0
   60.2900   31.5900   49.2390 C   0  0  0  0  0  0  0  0  0  0  0  0
   61.3870   32.3110   48.5010 C   0  0  0  0  0  0  0  0  0  0  0  0
   61.0700   33.2420   47.4950 C   0  0  0  0  0  0  0  0  0  0  0  0
   62.0880   33.8580   46.7590 C   0  0  0  0  0  0  0  0  0  0  0  0
   63.4270   33.5450   47.0140 C   0  0  0  0  0  0  0  0  0  0  0  0
   63.7490   32.6190   48.0090 C   0  0  0  0  0  0  0  0  0  0  0  0
   62.7350   32.0040   48.7520 C   0  0  0  0  0  0  0  0  0  0  0  0
   60.0260   29.0820   48.7920 C   0  0  0  0  0  0  0  0  0  0  0  0
   60.7250   28.7550   50.0170 C   0  0  0  0  0  0  0  0  0  0  0  0
   61.2830   28.4910   50.9950 N   0  0  0  0  0  0  0  0  0  0  0  0
   59.5400   28.0470   47.9760 C   0  0  0  0  0  0  0  0  0  0  0  0
   59.6910   26.8470   48.3440 O   0  0  0  0  0  0  0  0  0  0  0  0
   58.7840   26.7850   44.8930 C   0  0  0  0  0  0  0  0  0  0  0  0
   58.1180   25.8110   44.1500 C   0  0  0  0  0  0  0  0  0  0  0  0
   56.9110   25.2710   44.6140 C   0  0  0  0  0  0  0  0  0  0  0  0
   56.2350   24.3160   43.8580 O   0  0  0  0  0  0  0  0  0  0  0  0
   56.7212   22.4439   48.8666 H   0  0  0  0  0  0  0  0  0  0  0  0
   57.0282   23.9810   47.7835 H   0  0  0  0  0  0  0  0  0  0  0  0
   54.6397   22.0331   47.7140 H   0  0  0  0  0  0  0  0  0  0  0  0
   56.5964   27.0774   47.5049 H   0  0  0  0  0  0  0  0  0  0  0  0
   58.9648   30.6334   44.4788 H   0  0  0  0  0  0  0  0  0  0  0  0
   58.0947   29.0255   44.4313 H   0  0  0  0  0  0  0  0  0  0  0  0
   56.1326   32.5476   44.4156 H   0  0  0  0  0  0  0  0  0  0  0  0
   57.1592   32.5259   45.9138 H   0  0  0  0  0  0  0  0  0  0  0  0
   58.2706   33.6713   44.0339 H   0  0  0  0  0  0  0  0  0  0  0  0
   59.1301   32.1307   44.5880 H   0  0  0  0  0  0  0  0  0  0  0  0
   58.7173   32.8631   41.9916 H   0  0  0  0  0  0  0  0  0  0  0  0
   58.9972   31.1723   42.6481 H   0  0  0  0  0  0  0  0  0  0  0  0
   56.2043   32.2725   42.3742 H   0  0  0  0  0  0  0  0  0  0  0  0
   57.0805   31.5569   40.9575 H   0  0  0  0  0  0  0  0  0  0  0  0
   55.9307   29.7245   41.8175 H   0  0  0  0  0  0  0  0  0  0  0  0
   57.5815   29.6003   42.5932 H   0  0  0  0  0  0  0  0  0  0  0  0
   55.0877   30.7349   43.9101 H   0  0  0  0  0  0  0  0  0  0  0  0
   55.7955   29.0798   44.1704 H   0  0  0  0  0  0  0  0  0  0  0  0
   58.9487   31.7181   46.9117 H   0  0  0  0  0  0  0  0  0  0  0  0
   59.4570   32.2848   49.4217 H   0  0  0  0  0  0  0  0  0  0  0  0
   60.6845   31.2181   50.1961 H   0  0  0  0  0  0  0  0  0  0  0  0
   60.0180   33.4865   47.2863 H   0  0  0  0  0  0  0  0  0  0  0  0
   61.8347   34.5901   45.9781 H   0  0  0  0  0  0  0  0  0  0  0  0
   64.2258   34.0275   46.4316 H   0  0  0  0  0  0  0  0  0  0  0  0
   64.8022   32.3726   48.2090 H   0  0  0  0  0  0  0  0  0  0  0  0
   62.9944   31.2772   49.5359 H   0  0  0  0  0  0  0  0  0  0  0  0
   59.7370   27.1956   44.5280 H   0  0  0  0  0  0  0  0  0  0  0  0
   58.5418   25.4651   43.1957 H   0  0  0  0  0  0  0  0  0  0  0  0
   55.3180   23.9830   44.1270 H   0  0  0  0  0  0  0  0  0  0  0  0
  1  2  2  0
  2  3  1  0
  3  4  2  0
  3  5  1  0
  5  6  1  0
  6  7  2  0
  7  8  1  0
  8  9  1  0
  9 10  1  0
 10 11  1  0
 11 12  1  0
 12 13  1  0
 13 14  1  0
 14 15  1  0
 15 16  1  0
 16 17  1  0
 17 18  1  0
 10 19  2  0
 19 20  1  0
 20 21  1  0
 21 22  1  0
 22 23  2  0
 23 24  1  0
 24 25  2  0
 25 26  1  0
 26 27  2  0
 20 28  2  0
 28 29  1  0
 29 30  3  0
 28 31  1  0
 31 32  2  0
  8 33  2  0
 33 34  1  0
 34 35  2  0
 35 36  1  0
 35  6  1  0
 31  9  1  0
 18 12  1  0
 27 22  1  0
  1 37  1  0
  1 38  1  0
  2 39  1  0
  7 40  1  0
 11 41  1  0
 11 42  1  0
 13 43  1  0
 13 44  1  0
 14 45  1  0
 14 46  1  0
 15 47  1  0
 15 48  1  0
 16 49  1  0
 16 50  1  0
 17 51  1  0
 17 52  1  0
 18 53  1  0
 18 54  1  0
 19 55  1  0
 21 56  1  0
 21 57  1  0
 23 58  1  0
 24 59  1  0
 25 60  1  0
 26 61  1  0
 27 62  1  0
 33 63  1  0
 34 64  1  0
 36 65  1  0
M  CHG  1   5  -1
M  END
>  <UniqueID>  (51) 
48

>  <SMILES>  (51) 
C=CC(=O)[N-]c1cc(-n2c(CN3CCCCCC3)cc(Cc3ccccc3)c(C#N)c2=O)ccc1O

>  <Energy>  (51) 
89.55599436663134

>  <Genealogy>  (51) 
C=CC(=O)[N-]c1cc(-n2c(CN3CCCCCC3)cc(Cc3ccccc3)c(C#N)c2=O)ccc1O (protonated)
C=CC(=O)[N-]c1cc(-n2c(CN3CCCCCC3)cc(Cc3ccccc3)c(C#N)c2=O)ccc1O (3D coordinates assigned)
C=CC(=O)[N-]c1cc(-n2c(CN3CCCCCC3)cc(Cc3ccccc3)c(C#N)c2=O)ccc1O (nonaromatic ring conformer: 89.55599436663134 kcal/mol)

>  <smiles>  (51) 
C=CC(=O)Nc1cc(-n2c(CN3CCCCCC3)cc(Cc3ccccc3)c(C#N)c2=O)ccc1O

>  <score_type>  (51) 
oracle

>  <origin>  (51) 
adg

>  <m_score__min__energy>  (51) 
-9.0600000000000005

>  <m_primary>  (51) 
energy

$$$$
51:0
     RDKit          3D

 44 46  0  0  0  0  0  0  0  0999 V2000
   56.8070   19.9880   43.3050 H   0  0  0  0  0  0  0  0  0  0  0  0
   56.2510   20.8250   43.0190 N   0  0  0  0  0  0  0  0  0  0  0  0
   56.3630   21.9560   43.6370 C   0  0  0  0  0  0  0  0  0  0  0  0
   55.2550   22.5940   44.1000 N   0  0  0  0  0  0  0  0  0  0  0  0
   55.3200   23.7860   44.7560 C   0  0  0  0  0  0  0  0  0  0  0  0
   54.0420   24.4130   45.2320 C   0  0  0  0  0  0  0  0  0  0  0  0
   54.0251   24.4213   46.3318 H   0  0  0  0  0  0  0  0  0  0  0  0
   53.9778   25.4449   44.8565 H   0  0  0  0  0  0  0  0  0  0  0  0
   53.1866   23.8323   44.8565 H   0  0  0  0  0  0  0  0  0  0  0  0
   56.5770   24.4050   44.9540 C   0  0  0  0  0  0  0  0  0  0  0  0
   56.7180   25.7140   45.6960 C   0  0  0  0  0  0  0  0  0  0  0  0
   55.7174   26.1046   45.9330 H   0  0  0  0  0  0  0  0  0  0  0  0
   57.2870   25.5375   46.6207 H   0  0  0  0  0  0  0  0  0  0  0  0
   57.4350   26.6930   44.8820 N   0  0  0  0  0  0  0  0  0  0  0  0
   57.0480   26.9810   43.9540 H   0  0  0  0  0  0  0  0  0  0  0  0
   58.6700   27.2720   45.3210 C   0  0  0  0  0  0  0  0  0  0  0  0
   59.1640   26.9430   46.4330 O   0  0  0  0  0  0  0  0  0  0  0  0
   59.3600   28.3080   44.4870 C   0  0  0  0  0  0  0  0  0  0  0  0
   60.3352   28.5476   44.9360 H   0  0  0  0  0  0  0  0  0  0  0  0
   59.5056   27.9160   43.4696 H   0  0  0  0  0  0  0  0  0  0  0  0
   58.5420   29.5230   44.4240 N   0  0  0  0  0  0  0  0  0  0  0  0
   58.9220   30.5780   45.1520 N   0  0  0  0  0  0  0  0  0  0  0  0
   58.2160   31.7420   45.1860 C   0  0  0  0  0  0  0  0  0  0  0  0
   58.7070   32.8690   46.0210 C   0  0  0  0  0  0  0  0  0  0  0  0
   58.7870   32.7200   47.4200 C   0  0  0  0  0  0  0  0  0  0  0  0
   58.4779   31.7726   47.8857 H   0  0  0  0  0  0  0  0  0  0  0  0
   59.2560   33.7660   48.2220 C   0  0  0  0  0  0  0  0  0  0  0  0
   59.3079   33.6409   49.3136 H   0  0  0  0  0  0  0  0  0  0  0  0
   59.6580   34.9680   47.6380 C   0  0  0  0  0  0  0  0  0  0  0  0
   60.0239   35.7908   48.2698 H   0  0  0  0  0  0  0  0  0  0  0  0
   59.5960   35.1270   46.2510 C   0  0  0  0  0  0  0  0  0  0  0  0
   59.9990   36.2920   45.6860 F   0  0  0  0  0  0  0  0  0  0  0  0
   59.1260   34.0860   45.4450 C   0  0  0  0  0  0  0  0  0  0  0  0
   59.0827   34.2171   44.3537 H   0  0  0  0  0  0  0  0  0  0  0  0
   57.0320   31.8280   44.4420 C   0  0  0  0  0  0  0  0  0  0  0  0
   56.4331   32.7505   44.4557 H   0  0  0  0  0  0  0  0  0  0  0  0
   56.6210   30.7340   43.6850 C   0  0  0  0  0  0  0  0  0  0  0  0
   55.6960   30.7867   43.0921 H   0  0  0  0  0  0  0  0  0  0  0  0
   57.3900   29.5720   43.6840 C   0  0  0  0  0  0  0  0  0  0  0  0
   57.0130   28.5800   43.0040 O   0  0  0  0  0  0  0  0  0  0  0  0
   57.7280   23.7450   44.4970 C   0  0  0  0  0  0  0  0  0  0  0  0
   58.7182   24.1942   44.6635 H   0  0  0  0  0  0  0  0  0  0  0  0
   57.6240   22.5230   43.8330 C   0  0  0  0  0  0  0  0  0  0  0  0
   58.5263   22.0109   43.4673 H   0  0  0  0  0  0  0  0  0  0  0  0
  1  2  1  0
  2  3  2  0
  3  4  1  0
  4  5  1  0
  5  6  1  0
  6  7  1  0
  6  8  1  0
  6  9  1  0
  5 10  2  0
 10 11  1  0
 11 12  1  0
 11 13  1  0
 11 14  1  0
 14 15  1  0
 14 16  1  0
 16 17  2  0
 16 18  1  0
 18 19  1  0
 18 20  1  0
 18 21  1  0
 21 22  1  0
 22 23  2  0
 23 24  1  0
 24 25  2  0
 25 26  1  0
 25 27  1  0
 27 28  1  0
 27 29  2  0
 29 30  1  0
 29 31  1  0
 31 32  1  0
 31 33  2  0
 33 34  1  0
 23 35  1  0
 35 36  1  0
 35 37  2  0
 37 38  1  0
 37 39  1  0
 39 40  2  0
 10 41  1  0
 41 42  1  0
 41 43  2  0
 43 44  1  0
 43  3  1  0
 39 21  1  0
 33 24  1  0
M  CHG  1   4  -1
M  END
>  <UniqueID>  (52) 
49

>  <SMILES>  (52) 
[H]/N=c1/ccc(CNC(=O)Cn2nc(-c3cccc(F)c3)ccc2=O)c(C)[n-]1

>  <Energy>  (52) 
48.55385512969699

>  <Genealogy>  (52) 
Cc1[n-]c(=N)ccc1CNC(=O)Cn1nc(-c2cccc(F)c2)ccc1=O (protonated)
[H]/N=c1/ccc(CNC(=O)Cn2nc(-c3cccc(F)c3)ccc2=O)c(C)[n-]1 (cis-trans isomerization)
[H]/N=c1/ccc(CNC(=O)Cn2nc(-c3cccc(F)c3)ccc2=O)c(C)[n-]1 (3D coordinates assigned)
[H]/N=c1/ccc(CNC(=O)Cn2nc(-c3cccc(F)c3)ccc2=O)c(C)[n-]1 (optimized conformer: 48.55385512969699 kcal/mol)

>  <smiles>  (52) 
Cc1[nH]c(=N)ccc1CNC(=O)Cn1nc(-c2cccc(F)c2)ccc1=O

>  <score_type>  (52) 
oracle

>  <origin>  (52) 
adg

>  <m_score__min__energy>  (52) 
-10.24

>  <m_primary>  (52) 
energy

$$$$
52:0
     RDKit          3D

 43 45  0  0  0  0  0  0  0  0999 V2000
   55.1790   29.3970   44.8480 O   0  0  0  0  0  0  0  0  0  0  0  0
   56.1220   30.0690   44.3520 C   0  0  0  0  0  0  0  0  0  0  0  0
   57.0280   29.4180   43.3400 C   0  0  0  0  0  0  0  0  0  0  0  0
   58.1230   28.5890   44.0170 C   0  0  0  0  0  0  0  0  0  0  0  0
   58.6660   29.2940   45.1830 N   0  0  0  0  0  0  0  0  0  0  0  0
   58.9720   28.2000   46.5000 S   0  0  0  0  0  0  0  0  0  0  0  0
   60.3790   27.6800   46.3910 O   0  0  0  0  0  0  0  0  0  0  0  0
   58.8260   28.9320   47.8060 O   0  0  0  0  0  0  0  0  0  0  0  0
   57.8610   26.8350   46.4300 C   0  0  0  0  0  0  0  0  0  0  0  0
   58.3000   25.5250   46.7530 C   0  0  0  0  0  0  0  0  0  0  0  0
   57.4080   24.4390   46.6900 C   0  0  0  0  0  0  0  0  0  0  0  0
   56.0960   24.7000   46.3050 C   0  0  0  0  0  0  0  0  0  0  0  0
   55.0900   23.8230   46.1760 N   0  0  0  0  0  0  0  0  0  0  0  0
   54.0690   24.6200   45.7760 C   0  0  0  0  0  0  0  0  0  0  0  0
   52.9190   24.1720   45.5400 O   0  0  0  0  0  0  0  0  0  0  0  0
   54.3780   25.9360   45.6500 N   0  0  0  0  0  0  0  0  0  0  0  0
   55.6730   25.9550   45.9930 C   0  0  0  0  0  0  0  0  0  0  0  0
   56.5240   27.0550   46.0430 C   0  0  0  0  0  0  0  0  0  0  0  0
   56.2930   31.4270   44.7780 N   0  0  0  0  0  0  0  0  0  0  0  0
   57.3980   32.2960   44.3880 C   0  0  0  0  0  0  0  0  0  0  0  0
   57.3260   33.6150   45.1540 C   0  0  0  0  0  0  0  0  0  0  0  0
   58.2720   33.6190   46.3280 C   0  0  0  0  0  0  0  0  0  0  0  0
   59.3030   34.5700   46.4060 C   0  0  0  0  0  0  0  0  0  0  0  0
   60.1540   34.5940   47.5150 C   0  0  0  0  0  0  0  0  0  0  0  0
   59.9780   33.6780   48.5560 C   0  0  0  0  0  0  0  0  0  0  0  0
   58.9510   32.7320   48.4880 C   0  0  0  0  0  0  0  0  0  0  0  0
   58.0980   32.7030   47.3790 C   0  0  0  0  0  0  0  0  0  0  0  0
   56.4281   28.7589   42.6952 H   0  0  0  0  0  0  0  0  0  0  0  0
   57.5110   30.2105   42.7495 H   0  0  0  0  0  0  0  0  0  0  0  0
   57.6981   27.6280   44.3426 H   0  0  0  0  0  0  0  0  0  0  0  0
   58.9365   28.4239   43.2952 H   0  0  0  0  0  0  0  0  0  0  0  0
   59.3445   25.3575   47.0546 H   0  0  0  0  0  0  0  0  0  0  0  0
   57.7361   23.4184   46.9366 H   0  0  0  0  0  0  0  0  0  0  0  0
   56.1648   28.0631   45.7888 H   0  0  0  0  0  0  0  0  0  0  0  0
   58.3512   31.7958   44.6143 H   0  0  0  0  0  0  0  0  0  0  0  0
   57.3295   32.5025   43.3097 H   0  0  0  0  0  0  0  0  0  0  0  0
   57.5935   34.4385   44.4755 H   0  0  0  0  0  0  0  0  0  0  0  0
   56.3012   33.7407   45.5334 H   0  0  0  0  0  0  0  0  0  0  0  0
   59.4411   35.2975   45.5926 H   0  0  0  0  0  0  0  0  0  0  0  0
   60.9644   35.3359   47.5685 H   0  0  0  0  0  0  0  0  0  0  0  0
   60.6474   33.7015   49.4285 H   0  0  0  0  0  0  0  0  0  0  0  0
   58.8133   32.0101   49.3065 H   0  0  0  0  0  0  0  0  0  0  0  0
   57.2882   31.9602   47.3300 H   0  0  0  0  0  0  0  0  0  0  0  0
  1  2  2  0
  2  3  1  0
  3  4  1  0
  4  5  1  0
  5  6  1  0
  6  7  2  0
  6  8  2  0
  6  9  1  0
  9 10  2  0
 10 11  1  0
 11 12  2  0
 12 13  1  0
 13 14  1  0
 14 15  2  0
 14 16  1  0
 16 17  1  0
 17 18  2  0
  2 19  1  0
 19 20  1  0
 20 21  1  0
 21 22  1  0
 22 23  2  0
 23 24  1  0
 24 25  2  0
 25 26  1  0
 26 27  2  0
 18  9  1  0
 27 22  1  0
 17 12  1  0
  3 28  1  0
  3 29  1  0
  4 30  1  0
  4 31  1  0
 10 32  1  0
 11 33  1  0
 18 34  1  0
 20 35  1  0
 20 36  1  0
 21 37  1  0
 21 38  1  0
 23 39  1  0
 24 40  1  0
 25 41  1  0
 26 42  1  0
 27 43  1  0
M  CHG  4   5  -1  13  -1  16  -1  19  -1
M  END
>  <UniqueID>  (53) 
50

>  <SMILES>  (53) 
O=C(CC[N-]S(=O)(=O)c1ccc2[n-]c(=O)[n-]c2c1)[N-]CCc1ccccc1

>  <Energy>  (53) 
73.66096955136048

>  <Genealogy>  (53) 
O=C(CC[N-]S(=O)(=O)c1ccc2[n-]c(=O)[n-]c2c1)[N-]CCc1ccccc1 (protonated)
O=C(CC[N-]S(=O)(=O)c1ccc2[n-]c(=O)[n-]c2c1)[N-]CCc1ccccc1 (3D coordinates assigned)
O=C(CC[N-]S(=O)(=O)c1ccc2[n-]c(=O)[n-]c2c1)[N-]CCc1ccccc1 (optimized conformer: 73.66096955136048 kcal/mol)

>  <smiles>  (53) 
O=C(CCNS(=O)(=O)c1ccc2[nH]c(=O)[nH]c2c1)NCCc1ccccc1

>  <score_type>  (53) 
oracle

>  <origin>  (53) 
adg

>  <m_score__min__energy>  (53) 
-15.26

>  <m_primary>  (53) 
energy

$$$$
53:0
     RDKit          3D

 59 62  0  0  0  0  0  0  0  0999 V2000
   57.7710   22.0300   47.4920 H   0  0  0  0  0  0  0  0  0  0  0  0
   57.2320   22.1160   48.3220 O   0  0  0  0  0  0  0  0  0  0  0  0
   56.7800   23.4420   48.3570 C   0  0  0  0  0  0  0  0  0  0  0  0
   56.8350   23.8191   49.3889 H   0  0  0  0  0  0  0  0  0  0  0  0
   55.7393   23.4797   48.0028 H   0  0  0  0  0  0  0  0  0  0  0  0
   57.6520   24.3120   47.4520 C   0  0  0  0  0  0  0  0  0  0  0  0
   58.7109   24.0821   47.6413 H   0  0  0  0  0  0  0  0  0  0  0  0
   57.4460   25.3698   47.6727 H   0  0  0  0  0  0  0  0  0  0  0  0
   57.3490   24.0570   46.0410 N   0  0  0  0  0  0  0  0  0  0  0  0
   57.0960   22.8300   45.6110 N   0  0  0  0  0  0  0  0  0  0  0  0
   56.9570   22.8650   44.2720 C   0  0  0  0  0  0  0  0  0  0  0  0
   56.6730   21.6720   43.4550 C   0  0  0  0  0  0  0  0  0  0  0  0
   56.1880   21.8170   42.3020 O   0  0  0  0  0  0  0  0  0  0  0  0
   56.9350   20.3540   43.9420 N   0  0  0  0  0  0  0  0  0  0  0  0
   57.3350   20.1890   44.8910 H   0  0  0  0  0  0  0  0  0  0  0  0
   56.7250   19.5240   43.3440 H   0  0  0  0  0  0  0  0  0  0  0  0
   57.1370   24.1590   43.8170 C   0  0  0  0  0  0  0  0  0  0  0  0
   57.1073   24.5211   42.7787 H   0  0  0  0  0  0  0  0  0  0  0  0
   57.3620   24.8900   44.9630 C   0  0  0  0  0  0  0  0  0  0  0  0
   57.6010   26.1730   44.9410 N   0  0  0  0  0  0  0  0  0  0  0  0
   56.7790   27.2580   45.3820 C   0  0  0  0  0  0  0  0  0  0  0  0
   55.7020   27.0070   45.9850 O   0  0  0  0  0  0  0  0  0  0  0  0
   57.1180   28.6640   45.0320 C   0  0  0  0  0  0  0  0  0  0  0  0
   58.4700   29.0380   44.9030 C   0  0  0  0  0  0  0  0  0  0  0  0
   59.2585   28.2866   45.0568 H   0  0  0  0  0  0  0  0  0  0  0  0
   58.8220   30.3520   44.5820 C   0  0  0  0  0  0  0  0  0  0  0  0
   59.8828   30.6249   44.4814 H   0  0  0  0  0  0  0  0  0  0  0  0
   57.8330   31.3220   44.3880 C   0  0  0  0  0  0  0  0  0  0  0  0
   58.2130   32.7280   44.0150 C   0  0  0  0  0  0  0  0  0  0  0  0
   58.5176   32.7560   42.9584 H   0  0  0  0  0  0  0  0  0  0  0  0
   57.3490   33.3911   44.1690 H   0  0  0  0  0  0  0  0  0  0  0  0
   59.3240   33.1790   44.8530 N   0  0  0  0  0  0  0  0  0  0  0  0
   60.1120   33.6660   44.3680 H   0  0  0  0  0  0  0  0  0  0  0  0
   59.2740   33.2340   46.2890 C   0  0  0  0  0  0  0  0  0  0  0  0
   59.6310   34.4240   46.9420 C   0  0  0  0  0  0  0  0  0  0  0  0
   59.9331   35.3010   46.3507 H   0  0  0  0  0  0  0  0  0  0  0  0
   59.6060   34.5040   48.3350 C   0  0  0  0  0  0  0  0  0  0  0  0
   59.8831   35.4434   48.8357 H   0  0  0  0  0  0  0  0  0  0  0  0
   59.2300   33.3940   49.0950 C   0  0  0  0  0  0  0  0  0  0  0  0
   59.2083   33.4620   50.1927 H   0  0  0  0  0  0  0  0  0  0  0  0
   58.8790   32.1890   48.4590 C   0  0  0  0  0  0  0  0  0  0  0  0
   58.5320   31.0430   49.1900 O   0  0  0  0  0  0  0  0  0  0  0  0
   59.0850   29.7690   49.0050 C   0  0  0  0  0  0  0  0  0  0  0  0
   58.5840   28.8770   48.0370 C   0  0  0  0  0  0  0  0  0  0  0  0
   57.7334   29.1733   47.4056 H   0  0  0  0  0  0  0  0  0  0  0  0
   59.1660   27.6150   47.8770 C   0  0  0  0  0  0  0  0  0  0  0  0
   58.7688   26.9184   47.1240 H   0  0  0  0  0  0  0  0  0  0  0  0
   60.2520   27.2380   48.6730 C   0  0  0  0  0  0  0  0  0  0  0  0
   60.7009   26.2407   48.5548 H   0  0  0  0  0  0  0  0  0  0  0  0
   60.7670   28.1290   49.6190 C   0  0  0  0  0  0  0  0  0  0  0  0
   61.6268   27.8355   50.2392 H   0  0  0  0  0  0  0  0  0  0  0  0
   60.1900   29.3940   49.7780 C   0  0  0  0  0  0  0  0  0  0  0  0
   60.6069   30.0971   50.5141 H   0  0  0  0  0  0  0  0  0  0  0  0
   58.9230   32.1100   47.0610 C   0  0  0  0  0  0  0  0  0  0  0  0
   58.6809   31.1604   46.5614 H   0  0  0  0  0  0  0  0  0  0  0  0
   56.4830   30.9560   44.4860 C   0  0  0  0  0  0  0  0  0  0  0  0
   55.7003   31.7085   44.3098 H   0  0  0  0  0  0  0  0  0  0  0  0
   56.1220   29.6420   44.8060 C   0  0  0  0  0  0  0  0  0  0  0  0
   54.7690   29.3300   44.8850 O   0  0  0  0  0  0  0  0  0  0  0  0
  1  2  1  0
  2  3  1  0
  3  4  1  0
  3  5  1  0
  3  6  1  0
  6  7  1  0
  6  8  1  0
  6  9  1  0
  9 10  1  0
 10 11  1  0
 11 12  1  0
 12 13  2  0
 12 14  1  0
 14 15  1  0
 14 16  1  0
 11 17  2  0
 17 18  1  0
 17 19  1  0
 19 20  2  0
 20 21  1  0
 21 22  2  0
 21 23  1  0
 23 24  2  0
 24 25  1  0
 24 26  1  0
 26 27  1  0
 26 28  2  0
 28 29  1  0
 29 30  1  0
 29 31  1  0
 29 32  1  0
 32 33  1  0
 32 34  1  0
 34 35  2  0
 35 36  1  0
 35 37  1  0
 37 38  1  0
 37 39  2  0
 39 40  1  0
 39 41  1  0
 41 42  1  0
 42 43  1  0
 43 44  2  0
 44 45  1  0
 44 46  1  0
 46 47  1  0
 46 48  2  0
 48 49  1  0
 48 50  1  0
 50 51  1  0
 50 52  2  0
 52 53  1  0
 41 54  2  0
 54 55  1  0
 28 56  1  0
 56 57  1  0
 56 58  2  0
 58 59  1  0
 19  9  1  0
 58 23  1  0
 54 34  1  0
 52 43  1  0
M  CHG  2  10  -1  59  -1
M  END
>  <UniqueID>  (54) 
51

>  <SMILES>  (54) 
NC(=O)c1c/c(=N/C(=O)c2ccc(CNc3cccc(Oc4ccccc4)c3)cc2[O-])n(CCO)[n-]1

>  <Energy>  (54) 
114.41851129776033

>  <Genealogy>  (54) 
NC(=O)c1cc(=NC(=O)c2ccc(CNc3cccc(Oc4ccccc4)c3)cc2[O-])n(CCO)[n-]1 (protonated)
NC(=O)c1c/c(=N/C(=O)c2ccc(CNc3cccc(Oc4ccccc4)c3)cc2[O-])n(CCO)[n-]1 (cis-trans isomerization)
NC(=O)c1c/c(=N/C(=O)c2ccc(CNc3cccc(Oc4ccccc4)c3)cc2[O-])n(CCO)[n-]1 (3D coordinates assigned)
NC(=O)c1c/c(=N/C(=O)c2ccc(CNc3cccc(Oc4ccccc4)c3)cc2[O-])n(CCO)[n-]1 (optimized conformer: 114.41851129776033 kcal/mol)

>  <smiles>  (54) 
NC(=O)c1cc(=NC(=O)c2ccc(CNc3cccc(Oc4ccccc4)c3)cc2O)n(CCO)[nH]1

>  <score_type>  (54) 
oracle

>  <origin>  (54) 
adg

>  <m_score__min__energy>  (54) 
-15.25

>  <m_primary>  (54) 
energy

$$$$
54:0
     RDKit          3D

 60 62  0  0  0  0  0  0  0  0999 V2000
   59.3290   34.6130   47.1250 C   0  0  0  0  0  0  0  0  0  0  0  0
   58.4000   33.4130   47.0530 C   0  0  0  0  0  0  0  0  0  0  0  0
   58.4950   32.6710   48.2650 O   0  0  0  0  0  0  0  0  0  0  0  0
   58.8980   31.3300   48.3540 C   0  0  0  0  0  0  0  0  0  0  0  0
   59.1550   30.5500   47.2090 C   0  0  0  0  0  0  0  0  0  0  0  0
   59.5190   29.2040   47.3270 C   0  0  0  0  0  0  0  0  0  0  0  0
   59.7940   28.4570   46.1340 N   0  0  0  0  0  0  0  0  0  0  0  0
   58.9280   28.3160   44.9990 C   0  0  0  0  0  0  0  0  0  0  0  0
   58.9040   29.2100   44.1090 O   0  0  0  0  0  0  0  0  0  0  0  0
   58.1070   27.0920   44.8410 C   0  0  0  0  0  0  0  0  0  0  0  0
   58.1410   26.3630   43.6420 C   0  0  0  0  0  0  0  0  0  0  0  0
   57.3680   25.2110   43.4890 C   0  0  0  0  0  0  0  0  0  0  0  0
   56.5420   24.7700   44.5310 C   0  0  0  0  0  0  0  0  0  0  0  0
   55.7530   23.5870   44.3570 N   0  0  0  0  0  0  0  0  0  0  0  0
   54.3100   23.6490   44.5600 C   0  0  0  0  0  0  0  0  0  0  0  0
   56.5140   22.1400   43.7660 S   0  0  0  0  0  0  0  0  0  0  0  0
   58.2530   22.2000   44.1320 C   0  0  0  0  0  0  0  0  0  0  0  0
   55.9060   20.9350   44.4320 O   0  0  0  0  0  0  0  0  0  0  0  0
   56.3160   22.0190   42.2810 O   0  0  0  0  0  0  0  0  0  0  0  0
   56.4850   25.4900   45.7340 C   0  0  0  0  0  0  0  0  0  0  0  0
   55.6230   25.0400   46.7450 O   0  0  0  0  0  0  0  0  0  0  0  0
   55.8970   23.9450   47.6130 C   0  0  0  0  0  0  0  0  0  0  0  0
   57.2820   26.6430   45.8890 C   0  0  0  0  0  0  0  0  0  0  0  0
   59.6590   28.6370   48.6050 C   0  0  0  0  0  0  0  0  0  0  0  0
   59.4120   29.4050   49.7440 C   0  0  0  0  0  0  0  0  0  0  0  0
   59.0340   30.7500   49.6290 C   0  0  0  0  0  0  0  0  0  0  0  0
   58.8010   31.5350   50.8090 N   0  0  0  0  0  0  0  0  0  0  0  0
   59.7880   32.5300   51.2440 C   0  0  0  0  0  0  0  0  0  0  0  0
   59.0950   33.7750   51.8470 C   0  0  0  0  0  0  0  0  0  0  0  0
   57.7110   33.5970   52.1200 O   0  0  0  0  0  0  0  0  0  0  0  0
   57.4820   32.3390   52.7170 C   0  0  0  0  0  0  0  0  0  0  0  0
   57.6460   31.2430   51.6620 C   0  0  0  0  0  0  0  0  0  0  0  0
   59.5231   34.8637   48.1783 H   0  0  0  0  0  0  0  0  0  0  0  0
   60.2784   34.3722   46.6244 H   0  0  0  0  0  0  0  0  0  0  0  0
   58.8581   35.4718   46.6244 H   0  0  0  0  0  0  0  0  0  0  0  0
   57.3648   33.7576   46.9133 H   0  0  0  0  0  0  0  0  0  0  0  0
   58.6888   32.7736   46.2058 H   0  0  0  0  0  0  0  0  0  0  0  0
   59.0685   31.0044   46.2110 H   0  0  0  0  0  0  0  0  0  0  0  0
   58.7826   26.7027   42.8156 H   0  0  0  0  0  0  0  0  0  0  0  0
   57.4076   24.6466   42.5456 H   0  0  0  0  0  0  0  0  0  0  0  0
   54.0915   23.6584   45.6380 H   0  0  0  0  0  0  0  0  0  0  0  0
   53.9137   24.5650   44.0975 H   0  0  0  0  0  0  0  0  0  0  0  0
   53.8366   22.7704   44.0975 H   0  0  0  0  0  0  0  0  0  0  0  0
   58.3983   22.2050   45.2224 H   0  0  0  0  0  0  0  0  0  0  0  0
   58.7492   21.3184   43.7000 H   0  0  0  0  0  0  0  0  0  0  0  0
   58.6873   23.1137   43.7000 H   0  0  0  0  0  0  0  0  0  0  0  0
   55.8141   24.2763   48.6586 H   0  0  0  0  0  0  0  0  0  0  0  0
   55.1730   23.1384   47.4255 H   0  0  0  0  0  0  0  0  0  0  0  0
   56.9156   23.5744   47.4255 H   0  0  0  0  0  0  0  0  0  0  0  0
   57.2586   27.1972   46.8389 H   0  0  0  0  0  0  0  0  0  0  0  0
   59.9640   27.5852   48.7081 H   0  0  0  0  0  0  0  0  0  0  0  0
   59.5148   28.9509   50.7406 H   0  0  0  0  0  0  0  0  0  0  0  0
   60.4417   32.0788   52.0050 H   0  0  0  0  0  0  0  0  0  0  0  0
   60.3746   32.8461   50.3688 H   0  0  0  0  0  0  0  0  0  0  0  0
   59.6024   34.0298   52.7891 H   0  0  0  0  0  0  0  0  0  0  0  0
   59.1684   34.5733   51.0938 H   0  0  0  0  0  0  0  0  0  0  0  0
   58.2072   32.1796   53.5286 H   0  0  0  0  0  0  0  0  0  0  0  0
   56.4624   32.3058   53.1284 H   0  0  0  0  0  0  0  0  0  0  0  0
   57.7987   30.2756   52.1629 H   0  0  0  0  0  0  0  0  0  0  0  0
   56.7396   31.2030   51.0400 H   0  0  0  0  0  0  0  0  0  0  0  0
  1  2  1  0
  2  3  1  0
  3  4  1  0
  4  5  2  0
  5  6  1  0
  6  7  1  0
  7  8  1  0
  8  9  2  0
  8 10  1  0
 10 11  2  0
 11 12  1  0
 12 13  2  0
 13 14  1  0
 14 15  1  0
 14 16  1  0
 16 17  1  0
 16 18  2  0
 16 19  2  0
 13 20  1  0
 20 21  1  0
 21 22  1  0
 20 23  2  0
  6 24  2  0
 24 25  1  0
 25 26  2  0
 26 27  1  0
 27 28  1  0
 28 29  1  0
 29 30  1  0
 30 31  1  0
 31 32  1  0
 26  4  1  0
 32 27  1  0
 23 10  1  0
  1 33  1  0
  1 34  1  0
  1 35  1  0
  2 36  1  0
  2 37  1  0
  5 38  1  0
 11 39  1  0
 12 40  1  0
 15 41  1  0
 15 42  1  0
 15 43  1  0
 17 44  1  0
 17 45  1  0
 17 46  1  0
 22 47  1  0
 22 48  1  0
 22 49  1  0
 23 50  1  0
 24 51  1  0
 25 52  1  0
 28 53  1  0
 28 54  1  0
 29 55  1  0
 29 56  1  0
 31 57  1  0
 31 58  1  0
 32 59  1  0
 32 60  1  0
M  CHG  1   7  -1
M  END
>  <UniqueID>  (55) 
52

>  <SMILES>  (55) 
CCOc1cc([N-]C(=O)c2ccc(N(C)S(C)(=O)=O)c(OC)c2)ccc1N1CCOCC1

>  <Energy>  (55) 
73.6660188323897

>  <Genealogy>  (55) 
CCOc1cc([N-]C(=O)c2ccc(N(C)S(C)(=O)=O)c(OC)c2)ccc1N1CCOCC1 (protonated)
CCOc1cc([N-]C(=O)c2ccc(N(C)S(C)(=O)=O)c(OC)c2)ccc1N1CCOCC1 (3D coordinates assigned)
CCOc1cc([N-]C(=O)c2ccc(N(C)S(C)(=O)=O)c(OC)c2)ccc1N1CCOCC1 (nonaromatic ring conformer: 73.6660188323897 kcal/mol)

>  <smiles>  (55) 
CCOc1cc(NC(=O)c2ccc(N(C)S(C)(=O)=O)c(OC)c2)ccc1N1CCOCC1

>  <score_type>  (55) 
oracle

>  <origin>  (55) 
adg

>  <m_score__min__energy>  (55) 
-9.3000000000000007

>  <m_primary>  (55) 
energy

$$$$
55:0
     RDKit          3D

 54 57  0  0  0  0  0  0  0  0999 V2000
   59.6780   36.1780   46.0720 O   0  0  0  0  0  0  0  0  0  0  0  0
   59.6600   34.9650   46.4090 C   0  0  0  0  0  0  0  0  0  0  0  0
   60.3440   34.5830   47.6100 N   0  0  0  0  0  0  0  0  0  0  0  0
   61.4470   33.6710   47.7220 C   0  0  0  0  0  0  0  0  0  0  0  0
   62.5470   33.8740   46.8790 C   0  0  0  0  0  0  0  0  0  0  0  0
   63.6650   33.0420   46.9530 C   0  0  0  0  0  0  0  0  0  0  0  0
   63.6860   31.9820   47.8580 C   0  0  0  0  0  0  0  0  0  0  0  0
   62.5840   31.7430   48.6810 C   0  0  0  0  0  0  0  0  0  0  0  0
   61.4490   32.5720   48.6200 C   0  0  0  0  0  0  0  0  0  0  0  0
   60.2960   32.2370   49.4170 N   0  0  0  0  0  0  0  0  0  0  0  0
   59.6740   30.9160   49.2320 C   0  0  0  0  0  0  0  0  0  0  0  0
   58.5000   30.6990   50.1850 C   0  0  0  0  0  0  0  0  0  0  0  0
   57.7980   31.9060   50.3730 O   0  0  0  0  0  0  0  0  0  0  0  0
   58.5760   32.7640   51.1770 C   0  0  0  0  0  0  0  0  0  0  0  0
   59.8980   33.1610   50.4960 C   0  0  0  0  0  0  0  0  0  0  0  0
   58.8990   33.9970   45.5850 C   0  0  0  0  0  0  0  0  0  0  0  0
   59.1610   33.8930   44.2080 C   0  0  0  0  0  0  0  0  0  0  0  0
   58.4620   32.9770   43.4200 C   0  0  0  0  0  0  0  0  0  0  0  0
   57.4730   32.1560   43.9930 C   0  0  0  0  0  0  0  0  0  0  0  0
   56.7500   31.2140   43.2470 O   0  0  0  0  0  0  0  0  0  0  0  0
   55.9570   30.1730   43.8160 C   0  0  0  0  0  0  0  0  0  0  0  0
   56.8300   29.1380   44.4670 C   0  0  0  0  0  0  0  0  0  0  0  0
   56.3370   28.3240   45.2400 O   0  0  0  0  0  0  0  0  0  0  0  0
   58.2530   29.1260   44.1860 N   0  0  0  0  0  0  0  0  0  0  0  0
   58.8290   27.7760   44.1150 C   0  0  0  0  0  0  0  0  0  0  0  0
   59.7110   28.0130   45.3310 C   0  0  0  0  0  0  0  0  0  0  0  0
   59.0910   29.4000   45.3610 C   0  0  0  0  0  0  0  0  0  0  0  0
   57.1920   32.2790   45.3580 C   0  0  0  0  0  0  0  0  0  0  0  0
   57.8920   33.1950   46.1490 C   0  0  0  0  0  0  0  0  0  0  0  0
   62.5295   34.6982   46.1507 H   0  0  0  0  0  0  0  0  0  0  0  0
   64.5295   33.2227   46.2973 H   0  0  0  0  0  0  0  0  0  0  0  0
   64.5718   31.3332   47.9237 H   0  0  0  0  0  0  0  0  0  0  0  0
   62.6033   30.8976   49.3846 H   0  0  0  0  0  0  0  0  0  0  0  0
   59.3108   30.8361   48.1968 H   0  0  0  0  0  0  0  0  0  0  0  0
   60.4330   30.1494   49.4471 H   0  0  0  0  0  0  0  0  0  0  0  0
   57.8207   29.9458   49.7594 H   0  0  0  0  0  0  0  0  0  0  0  0
   58.8842   30.3517   51.1554 H   0  0  0  0  0  0  0  0  0  0  0  0
   57.9970   33.6759   51.3848 H   0  0  0  0  0  0  0  0  0  0  0  0
   58.8227   32.2256   52.1040 H   0  0  0  0  0  0  0  0  0  0  0  0
   59.7827   34.1682   50.0690 H   0  0  0  0  0  0  0  0  0  0  0  0
   60.6849   33.1254   51.2638 H   0  0  0  0  0  0  0  0  0  0  0  0
   59.9232   34.5388   43.7475 H   0  0  0  0  0  0  0  0  0  0  0  0
   58.6853   32.8965   42.3459 H   0  0  0  0  0  0  0  0  0  0  0  0
   55.2829   30.6038   44.5710 H   0  0  0  0  0  0  0  0  0  0  0  0
   55.3751   29.6930   43.0154 H   0  0  0  0  0  0  0  0  0  0  0  0
   58.5240   29.7150   43.3620 H   0  0  0  0  0  0  0  0  0  0  0  0
   58.0889   26.9751   44.2592 H   0  0  0  0  0  0  0  0  0  0  0  0
   59.2943   27.4435   43.1754 H   0  0  0  0  0  0  0  0  0  0  0  0
   59.4834   27.3815   46.2024 H   0  0  0  0  0  0  0  0  0  0  0  0
   60.7983   27.8467   45.3198 H   0  0  0  0  0  0  0  0  0  0  0  0
   58.5126   29.6021   46.2746 H   0  0  0  0  0  0  0  0  0  0  0  0
   59.7519   30.2792   45.3505 H   0  0  0  0  0  0  0  0  0  0  0  0
   56.4133   31.6493   45.8130 H   0  0  0  0  0  0  0  0  0  0  0  0
   57.6533   33.2885   47.2187 H   0  0  0  0  0  0  0  0  0  0  0  0
  1  2  2  0
  2  3  1  0
  3  4  1  0
  4  5  2  0
  5  6  1  0
  6  7  2  0
  7  8  1  0
  8  9  2  0
  9 10  1  0
 10 11  1  0
 11 12  1  0
 12 13  1  0
 13 14  1  0
 14 15  1  0
  2 16  1  0
 16 17  2  0
 17 18  1  0
 18 19  2  0
 19 20  1  0
 20 21  1  0
 21 22  1  0
 22 23  2  0
 22 24  1  0
 24 25  1  0
 25 26  1  0
 26 27  1  0
 19 28  1  0
 28 29  2  0
  9  4  1  0
 15 10  1  0
 29 16  1  0
 27 24  1  0
  5 30  1  0
  6 31  1  0
  7 32  1  0
  8 33  1  0
 11 34  1  0
 11 35  1  0
 12 36  1  0
 12 37  1  0
 14 38  1  0
 14 39  1  0
 15 40  1  0
 15 41  1  0
 17 42  1  0
 18 43  1  0
 21 44  1  0
 21 45  1  0
 24 46  1  0
 25 47  1  0
 25 48  1  0
 26 49  1  0
 26 50  1  0
 27 51  1  0
 27 52  1  0
 28 53  1  0
 29 54  1  0
M  CHG  2   3  -1  24   1
M  END
>  <UniqueID>  (56) 
53

>  <SMILES>  (56) 
O=C([N-]c1ccccc1N1CCOCC1)c1ccc(OCC(=O)[NH+]2CCC2)cc1

>  <Energy>  (56) 
144.9803804652962

>  <Genealogy>  (56) 
O=C([N-]c1ccccc1N1CCOCC1)c1ccc(OCC(=O)[NH+]2CCC2)cc1 (protonated)
O=C([N-]c1ccccc1N1CCOCC1)c1ccc(OCC(=O)[NH+]2CCC2)cc1 (3D coordinates assigned)
O=C([N-]c1ccccc1N1CCOCC1)c1ccc(OCC(=O)[NH+]2CCC2)cc1 (nonaromatic ring conformer: 144.9803804652962 kcal/mol)

>  <smiles>  (56) 
O=C(Nc1ccccc1N1CCOCC1)c1ccc(OCC(=O)N2CCC2)cc1

>  <score_type>  (56) 
oracle

>  <origin>  (56) 
adg

>  <m_score__min__energy>  (56) 
-8.3000000000000007

>  <m_primary>  (56) 
energy

$$$$
56:0
     RDKit          3D

 53 56  0  0  0  0  0  0  0  0999 V2000
   64.1330   34.2040   51.2590 C   0  0  0  0  0  0  0  0  0  0  0  0
   63.4400   34.5660   50.0700 O   0  0  0  0  0  0  0  0  0  0  0  0
   62.6020   33.7050   49.3450 C   0  0  0  0  0  0  0  0  0  0  0  0
   61.5570   32.9830   49.9550 C   0  0  0  0  0  0  0  0  0  0  0  0
   60.7450   32.1300   49.1920 C   0  0  0  0  0  0  0  0  0  0  0  0
   59.6990   31.4130   49.7900 C   0  0  0  0  0  0  0  0  0  0  0  0
   58.8940   30.5690   49.0230 C   0  0  0  0  0  0  0  0  0  0  0  0
   59.1270   30.4120   47.6460 C   0  0  0  0  0  0  0  0  0  0  0  0
   58.2340   29.5360   46.8420 C   0  0  0  0  0  0  0  0  0  0  0  0
   57.2210   30.0570   46.3020 O   0  0  0  0  0  0  0  0  0  0  0  0
   58.5070   28.0760   46.6340 C   0  0  0  0  0  0  0  0  0  0  0  0
   59.4260   27.4910   47.4350 C   0  0  0  0  0  0  0  0  0  0  0  0
   59.8030   26.0400   47.3680 C   0  0  0  0  0  0  0  0  0  0  0  0
   59.4940   25.4340   46.0080 C   0  0  0  0  0  0  0  0  0  0  0  0
   58.0480   25.7480   45.6350 C   0  0  0  0  0  0  0  0  0  0  0  0
   57.7730   27.2820   45.5180 C   0  0  2  0  0  0  0  0  0  0  0  0
   58.2590   27.7520   44.1010 C   0  0  0  0  0  0  0  0  0  0  0  0
   57.9420   29.1810   43.7330 C   0  0  0  0  0  0  0  0  0  0  0  0
   56.8600   29.5040   42.8980 C   0  0  0  0  0  0  0  0  0  0  0  0
   56.6040   30.8420   42.5920 C   0  0  0  0  0  0  0  0  0  0  0  0
   57.4290   31.8430   43.1060 C   0  0  0  0  0  0  0  0  0  0  0  0
   58.5090   31.4880   43.9130 C   0  0  0  0  0  0  0  0  0  0  0  0
   58.7410   30.1800   44.2020 N   0  0  0  0  0  0  0  0  0  0  0  0
   56.2610   27.4160   45.6530 C   0  0  0  0  0  0  0  0  0  0  0  0
   55.5940   28.5870   45.1810 N   0  0  0  0  0  0  0  0  0  0  0  0
   55.5650   26.4330   46.0280 O   0  0  0  0  0  0  0  0  0  0  0  0
   60.1690   31.1390   47.0420 C   0  0  0  0  0  0  0  0  0  0  0  0
   60.9800   31.9930   47.8040 C   0  0  0  0  0  0  0  0  0  0  0  0
   62.0180   32.7170   47.2020 C   0  0  0  0  0  0  0  0  0  0  0  0
   62.8220   33.5650   47.9690 C   0  0  0  0  0  0  0  0  0  0  0  0
   63.8240   34.2560   47.3710 F   0  0  0  0  0  0  0  0  0  0  0  0
   63.5435   34.5119   52.1352 H   0  0  0  0  0  0  0  0  0  0  0  0
   64.2798   33.1140   51.2805 H   0  0  0  0  0  0  0  0  0  0  0  0
   65.1114   34.7062   51.2805 H   0  0  0  0  0  0  0  0  0  0  0  0
   61.3768   33.0886   51.0350 H   0  0  0  0  0  0  0  0  0  0  0  0
   59.5117   31.5161   50.8690 H   0  0  0  0  0  0  0  0  0  0  0  0
   58.0688   30.0211   49.5013 H   0  0  0  0  0  0  0  0  0  0  0  0
   59.9299   28.1193   48.1842 H   0  0  0  0  0  0  0  0  0  0  0  0
   60.8813   25.9437   47.5631 H   0  0  0  0  0  0  0  0  0  0  0  0
   59.2126   25.5001   48.1229 H   0  0  0  0  0  0  0  0  0  0  0  0
   60.1698   25.8615   45.2527 H   0  0  0  0  0  0  0  0  0  0  0  0
   59.6367   24.3440   46.0483 H   0  0  0  0  0  0  0  0  0  0  0  0
   57.8241   25.2758   44.6670 H   0  0  0  0  0  0  0  0  0  0  0  0
   57.4060   25.3564   46.4378 H   0  0  0  0  0  0  0  0  0  0  0  0
   59.3514   27.6289   44.0620 H   0  0  0  0  0  0  0  0  0  0  0  0
   57.7098   27.1309   43.3781 H   0  0  0  0  0  0  0  0  0  0  0  0
   56.2193   28.7092   42.4883 H   0  0  0  0  0  0  0  0  0  0  0  0
   55.7533   31.1065   41.9468 H   0  0  0  0  0  0  0  0  0  0  0  0
   57.2295   32.9003   42.8771 H   0  0  0  0  0  0  0  0  0  0  0  0
   59.1736   32.2664   44.3160 H   0  0  0  0  0  0  0  0  0  0  0  0
   55.2280   29.3010   45.8480 H   0  0  0  0  0  0  0  0  0  0  0  0
   60.3495   31.0368   45.9617 H   0  0  0  0  0  0  0  0  0  0  0  0
   62.2007   32.6176   46.1218 H   0  0  0  0  0  0  0  0  0  0  0  0
  1  2  1  0
  2  3  1  0
  3  4  2  0
  4  5  1  0
  5  6  2  0
  6  7  1  0
  7  8  2  0
  8  9  1  0
  9 10  2  0
  9 11  1  0
 11 12  2  0
 12 13  1  0
 13 14  1  0
 14 15  1  0
 15 16  1  0
 16 17  1  6
 17 18  1  0
 18 19  2  0
 19 20  1  0
 20 21  2  0
 21 22  1  0
 22 23  2  0
 16 24  1  0
 24 25  1  0
 24 26  2  0
  8 27  1  0
 27 28  2  0
 28 29  1  0
 29 30  2  0
 30 31  1  0
 30  3  1  0
 28  5  1  0
 16 11  1  0
 23 18  1  0
  1 32  1  0
  1 33  1  0
  1 34  1  0
  4 35  1  0
  6 36  1  0
  7 37  1  0
 12 38  1  0
 13 39  1  0
 13 40  1  0
 14 41  1  0
 14 42  1  0
 15 43  1  0
 15 44  1  0
 17 45  1  0
 17 46  1  0
 19 47  1  0
 20 48  1  0
 21 49  1  0
 22 50  1  0
 25 51  1  0
 27 52  1  0
 29 53  1  0
M  CHG  1  25  -1
M  END
>  <UniqueID>  (57) 
54

>  <SMILES>  (57) 
COc1cc2ccc(C(=O)C3=CCCC[C@@]3(Cc3ccccn3)C([NH-])=O)cc2cc1F

>  <Energy>  (57) 
71.6983682238042

>  <Genealogy>  (57) 
COc1cc2ccc(C(=O)C3=CCCCC3(Cc3ccccn3)C([NH-])=O)cc2cc1F (protonated)
COc1cc2ccc(C(=O)C3=CCCC[C@@]3(Cc3ccccn3)C([NH-])=O)cc2cc1F (chirality)
COc1cc2ccc(C(=O)C3=CCCC[C@@]3(Cc3ccccn3)C([NH-])=O)cc2cc1F (3D coordinates assigned)
COc1cc2ccc(C(=O)C3=CCCC[C@@]3(Cc3ccccn3)C([NH-])=O)cc2cc1F (nonaromatic ring conformer: 71.6983682238042 kcal/mol)

>  <smiles>  (57) 
COc1cc2ccc(C(=O)C3=CCCCC3(Cc3ccccn3)C(N)=O)cc2cc1F

>  <score_type>  (57) 
oracle

>  <origin>  (57) 
adg

>  <m_score__min__energy>  (57) 
-11.539999999999999

>  <m_primary>  (57) 
energy

$$$$
57:0
     RDKit          3D

 69 72  0  0  0  0  0  0  0  0999 V2000
   49.9020   34.0930   52.0040 H   0  0  0  0  0  0  0  0  0  0  0  0
   49.9120   33.1010   52.3290 N   0  0  0  0  0  0  0  0  0  0  0  0
   50.9750   32.2220   51.9710 C   0  0  0  0  0  0  0  0  0  0  0  0
   51.3600   32.1810   50.7700 O   0  0  0  0  0  0  0  0  0  0  0  0
   51.6210   31.3630   52.9920 C   0  0  0  0  0  0  0  0  0  0  0  0
   50.9740   31.0910   54.2110 C   0  0  0  0  0  0  0  0  0  0  0  0
   49.9814   31.5213   54.4102 H   0  0  0  0  0  0  0  0  0  0  0  0
   51.5830   30.2780   55.1710 C   0  0  0  0  0  0  0  0  0  0  0  0
   51.0692   30.0733   56.1219 H   0  0  0  0  0  0  0  0  0  0  0  0
   52.8410   29.7250   54.9270 C   0  0  0  0  0  0  0  0  0  0  0  0
   53.3143   29.0839   55.6852 H   0  0  0  0  0  0  0  0  0  0  0  0
   53.5040   29.9840   53.7180 C   0  0  0  0  0  0  0  0  0  0  0  0
   54.8700   29.4090   53.4520 C   0  0  0  0  0  0  0  0  0  0  0  0
   54.8375   28.8056   52.5328 H   0  0  0  0  0  0  0  0  0  0  0  0
   55.1666   28.7799   54.3042 H   0  0  0  0  0  0  0  0  0  0  0  0
   55.8580   30.4950   53.2880 N   0  0  0  0  0  0  0  0  0  0  0  0
   55.6870   31.1630   51.9740 C   0  0  0  0  0  0  0  0  0  0  0  0
   54.8123   31.8282   52.0229 H   0  0  0  0  0  0  0  0  0  0  0  0
   55.5471   30.3856   51.2085 H   0  0  0  0  0  0  0  0  0  0  0  0
   56.9200   31.9900   51.5970 C   0  0  0  0  0  0  0  0  0  0  0  0
   57.1097   32.7318   52.3868 H   0  0  0  0  0  0  0  0  0  0  0  0
   56.7247   32.4880   50.6358 H   0  0  0  0  0  0  0  0  0  0  0  0
   58.1700   31.0910   51.4380 C   0  0  0  0  0  0  0  0  0  0  0  0
   58.2356   30.8130   50.3757 H   0  0  0  0  0  0  0  0  0  0  0  0
   59.6030   34.7270   48.2700 N   0  0  0  0  0  0  0  0  0  0  0  0
   60.1910   34.1170   49.2560 C   0  0  0  0  0  0  0  0  0  0  0  0
   61.5240   34.2660   49.4880 N   0  0  0  0  0  0  0  0  0  0  0  0
   62.1240   33.6050   50.5090 C   0  0  0  0  0  0  0  0  0  0  0  0
   63.3960   33.7700   50.7170 N   0  0  0  0  0  0  0  0  0  0  0  0
   64.4580   33.1030   49.9630 C   0  0  0  0  0  0  0  0  0  0  0  0
   65.4118   33.6198   50.1451 H   0  0  0  0  0  0  0  0  0  0  0  0
   64.2103   33.1351   48.8917 H   0  0  0  0  0  0  0  0  0  0  0  0
   64.5850   31.6290   50.4050 C   0  0  0  0  0  0  0  0  0  0  0  0
   65.6060   31.4703   50.7824 H   0  0  0  0  0  0  0  0  0  0  0  0
   64.3529   31.0164   49.5213 H   0  0  0  0  0  0  0  0  0  0  0  0
   63.6310   31.2200   51.4640 N   0  0  0  0  0  0  0  0  0  0  0  0
   62.8760   31.9450   51.4820 H   0  0  0  0  0  0  0  0  0  0  0  0
   62.9830   29.9280   51.1760 C   0  0  0  0  0  0  0  0  0  0  0  0
   62.7309   29.4254   52.1214 H   0  0  0  0  0  0  0  0  0  0  0  0
   62.0644   30.0998   50.5958 H   0  0  0  0  0  0  0  0  0  0  0  0
   63.6700   29.2945   50.5958 H   0  0  0  0  0  0  0  0  0  0  0  0
   64.2440   31.2120   52.8040 C   0  0  0  0  0  0  0  0  0  0  0  0
   63.4535   31.2223   53.5689 H   0  0  0  0  0  0  0  0  0  0  0  0
   64.8563   30.3058   52.9217 H   0  0  0  0  0  0  0  0  0  0  0  0
   64.8798   32.1019   52.9217 H   0  0  0  0  0  0  0  0  0  0  0  0
   61.3850   32.7840   51.3020 N   0  0  0  0  0  0  0  0  0  0  0  0
   60.0600   32.6170   51.0730 C   0  0  0  0  0  0  0  0  0  0  0  0
   59.3760   31.8190   51.8390 N   0  0  0  0  0  0  0  0  0  0  0  0
   59.1160   34.1320   47.0540 C   0  0  0  0  0  0  0  0  0  0  0  0
   59.4940   34.7010   45.8300 C   0  0  0  0  0  0  0  0  0  0  0  0
   60.1367   35.5937   45.8181 H   0  0  0  0  0  0  0  0  0  0  0  0
   59.0600   34.1420   44.6240 C   0  0  0  0  0  0  0  0  0  0  0  0
   59.3465   34.6061   43.6688 H   0  0  0  0  0  0  0  0  0  0  0  0
   58.2610   32.9920   44.6310 C   0  0  0  0  0  0  0  0  0  0  0  0
   57.8140   32.4160   43.3900 C   0  0  0  0  0  0  0  0  0  0  0  0
   57.4550   31.9500   42.3940 N   0  0  0  0  0  0  0  0  0  0  0  0
   57.9080   32.3960   45.8480 C   0  0  0  0  0  0  0  0  0  0  0  0
   57.2886   31.4870   45.8553 H   0  0  0  0  0  0  0  0  0  0  0  0
   58.3420   32.9550   47.0540 C   0  0  0  0  0  0  0  0  0  0  0  0
   58.0778   32.4735   48.0071 H   0  0  0  0  0  0  0  0  0  0  0  0
   59.4670   33.2820   50.0440 N   0  0  0  0  0  0  0  0  0  0  0  0
   58.0580   29.7980   52.2740 C   0  0  0  0  0  0  0  0  0  0  0  0
   59.0683   29.4574   52.5448 H   0  0  0  0  0  0  0  0  0  0  0  0
   57.5404   29.0375   51.6709 H   0  0  0  0  0  0  0  0  0  0  0  0
   57.2480   30.0340   53.5580 C   0  0  0  0  0  0  0  0  0  0  0  0
   57.7605   30.7979   54.1612 H   0  0  0  0  0  0  0  0  0  0  0  0
   57.1805   29.0724   54.0879 H   0  0  0  0  0  0  0  0  0  0  0  0
   52.8920   30.8050   52.7570 C   0  0  0  0  0  0  0  0  0  0  0  0
   53.4114   31.0144   51.8102 H   0  0  0  0  0  0  0  0  0  0  0  0
  1  2  1  0
  2  3  1  0
  3  4  2  0
  3  5  1  0
  5  6  2  0
  6  7  1  0
  6  8  1  0
  8  9  1  0
  8 10  2  0
 10 11  1  0
 10 12  1  0
 12 13  1  0
 13 14  1  0
 13 15  1  0
 13 16  1  0
 16 17  1  0
 17 18  1  0
 17 19  1  0
 17 20  1  0
 20 21  1  0
 20 22  1  0
 20 23  1  0
 23 24  1  0
 23 25  1  0
 25 26  2  0
 26 27  1  0
 27 28  1  0
 28 29  2  3
 29 30  1  0
 30 31  1  0
 30 32  1  0
 30 33  1  0
 33 34  1  0
 33 35  1  0
 33 36  1  0
 36 37  1  0
 36 38  1  0
 38 39  1  0
 38 40  1  0
 38 41  1  0
 36 42  1  0
 42 43  1  0
 42 44  1  0
 42 45  1  0
 28 46  1  0
 46 47  1  0
 47 48  2  0
 48 49  1  0
 49 50  2  0
 50 51  1  0
 50 52  1  0
 52 53  1  0
 52 54  2  0
 54 55  1  0
 55 56  3  0
 54 57  1  0
 57 58  1  0
 57 59  2  0
 59 60  1  0
 47 61  1  0
 23 62  1  0
 62 63  1  0
 62 64  1  0
 62 65  1  0
 65 66  1  0
 65 67  1  0
 12 68  2  0
 68 69  1  0
 68  5  1  0
 65 16  1  0
 61 26  1  0
 59 49  1  0
M  CHG  5   2  -1  27  -1  36   1  46  -1  61  -1
M  END
>  <UniqueID>  (58) 
55

>  <SMILES>  (58) 
C[NH+](C)CCN=c1[n-]/c(=N/C2CCN(Cc3cccc(C([NH-])=O)c3)CC2)[n-]/c(=N/c2ccc(C#N)cc2)[n-]1

>  <Energy>  (58) 
86.8244999511504

>  <Genealogy>  (58) 
C[NH+](C)CCN=c1[n-]c(=Nc2ccc(C#N)cc2)[n-]c(=NC2CCN(Cc3cccc(C([NH-])=O)c3)CC2)[n-]1 (protonated)
C[NH+](C)CCN=c1[n-]/c(=N/C2CCN(Cc3cccc(C([NH-])=O)c3)CC2)[n-]/c(=N/c2ccc(C#N)cc2)[n-]1 (cis-trans isomerization)
C[NH+](C)CCN=c1[n-]/c(=N/C2CCN(Cc3cccc(C([NH-])=O)c3)CC2)[n-]/c(=N/c2ccc(C#N)cc2)[n-]1 (3D coordinates assigned)
C[NH+](C)CCN=c1[n-]/c(=N/C2CCN(Cc3cccc(C([NH-])=O)c3)CC2)[n-]/c(=N/c2ccc(C#N)cc2)[n-]1 (nonaromatic ring conformer: 86.8244999511504 kcal/mol)

>  <smiles>  (58) 
CN(C)CCN=c1[nH]c(=Nc2ccc(C#N)cc2)[nH]c(=NC2CCN(Cc3cccc(C(N)=O)c3)CC2)[nH]1

>  <score_type>  (58) 
oracle

>  <origin>  (58) 
adg

>  <m_score__min__energy>  (58) 
-14.52

>  <m_primary>  (58) 
energy

$$$$
58:0
     RDKit          3D

 55 58  0  0  1  0  0  0  0  0999 V2000
   61.9760   30.9190   47.0880 C   0  0  0  0  0  0  0  0  0  0  0  0
   62.8770   32.0010   47.1430 O   0  0  0  0  0  0  0  0  0  0  0  0
   62.9050   32.8110   48.2420 C   0  0  0  0  0  0  0  0  0  0  0  0
   63.9830   32.7430   49.1220 C   0  0  0  0  0  0  0  0  0  0  0  0
   64.0790   33.5280   50.2460 C   0  0  0  0  0  0  0  0  0  0  0  0
   63.0500   34.4110   50.4880 C   0  0  0  0  0  0  0  0  0  0  0  0
   61.9650   34.4910   49.6170 C   0  0  0  0  0  0  0  0  0  0  0  0
   61.8600   33.7100   48.4900 C   0  0  0  0  0  0  0  0  0  0  0  0
   60.7340   33.8100   47.6330 N   0  0  0  0  0  0  0  0  0  0  0  0
   59.3850   33.4480   48.0100 C   0  0  0  0  0  0  0  0  0  0  0  0
   58.9570   32.3230   47.0810 C   0  0  0  0  0  0  0  0  0  0  0  0
   59.1340   32.7380   45.7270 N   0  0  0  0  0  0  0  0  0  0  0  0
   57.7600   32.3220   44.8120 S   0  0  0  0  0  0  0  0  0  0  0  0
   56.6200   33.2230   45.2370 O   0  0  0  0  0  0  0  0  0  0  0  0
   57.9950   32.6800   43.3480 O   0  0  0  0  0  0  0  0  0  0  0  0
   57.2540   30.7090   44.9380 C   0  0  0  0  0  0  0  0  0  0  0  0
   56.1870   29.9980   44.8320 N   0  0  0  0  0  0  0  0  0  0  0  0
   56.0650   28.7510   44.9750 N   0  0  0  0  0  0  0  0  0  0  0  0
   57.1830   28.0350   45.2790 C   0  0  0  0  0  0  0  0  0  0  0  0
   57.3820   26.7590   45.4820 N   0  0  0  0  0  0  0  0  0  0  0  0
   56.3380   25.9850   46.0620 C   0  0  0  0  0  0  0  0  0  0  0  0
   55.1340   26.3340   45.9850 O   0  0  0  0  0  0  0  0  0  0  0  0
   56.7180   24.7460   46.7660 C   0  0  0  0  0  0  0  0  0  0  0  0
   57.1240   23.7590   45.7340 C   0  0  0  0  0  0  0  0  0  0  0  0
   58.3100   23.2160   45.4310 C   0  0  0  0  0  0  0  0  0  0  0  0
   58.4120   22.3290   44.4340 C   0  0  0  0  0  0  0  0  0  0  0  0
   57.2020   22.0300   43.7620 C   0  0  0  0  0  0  0  0  0  0  0  0
   56.9630   21.1090   42.6330 C   0  0  0  0  0  0  0  0  0  0  0  0
   55.9390   23.0460   44.5910 S   0  0  0  0  0  0  0  0  0  0  0  0
   58.5150   29.3070   45.3600 S   0  0  0  0  0  0  0  0  0  0  0  0
   59.5580   34.0940   45.5730 C   0  0  0  0  0  0  0  0  0  0  0  0
   60.8970   34.2990   46.2550 C   0  0  0  0  0  0  0  0  0  0  0  0
   61.7156   30.6063   48.1100 H   0  0  0  0  0  0  0  0  0  0  0  0
   61.0643   31.2277   46.5555 H   0  0  0  0  0  0  0  0  0  0  0  0
   62.4447   30.0783   46.5555 H   0  0  0  0  0  0  0  0  0  0  0  0
   64.7927   32.0299   48.9078 H   0  0  0  0  0  0  0  0  0  0  0  0
   64.9419   33.4542   50.9242 H   0  0  0  0  0  0  0  0  0  0  0  0
   63.0849   35.0587   51.3764 H   0  0  0  0  0  0  0  0  0  0  0  0
   61.1606   35.2074   49.8399 H   0  0  0  0  0  0  0  0  0  0  0  0
   59.3627   33.1055   49.0551 H   0  0  0  0  0  0  0  0  0  0  0  0
   58.7065   34.3097   47.9256 H   0  0  0  0  0  0  0  0  0  0  0  0
   59.5714   31.4316   47.2757 H   0  0  0  0  0  0  0  0  0  0  0  0
   57.8985   32.0811   47.2575 H   0  0  0  0  0  0  0  0  0  0  0  0
   55.1430   28.2180   44.8730 H   0  0  0  0  0  0  0  0  0  0  0  0
   57.5573   24.9434   47.4490 H   0  0  0  0  0  0  0  0  0  0  0  0
   55.8765   24.3628   47.3619 H   0  0  0  0  0  0  0  0  0  0  0  0
   59.2047   23.5004   46.0043 H   0  0  0  0  0  0  0  0  0  0  0  0
   59.3695   21.8644   44.1558 H   0  0  0  0  0  0  0  0  0  0  0  0
   56.7045   20.1127   43.0210 H   0  0  0  0  0  0  0  0  0  0  0  0
   56.1339   21.4897   42.0185 H   0  0  0  0  0  0  0  0  0  0  0  0
   57.8726   21.0385   42.0185 H   0  0  0  0  0  0  0  0  0  0  0  0
   59.6552   34.3260   44.5021 H   0  0  0  0  0  0  0  0  0  0  0  0
   58.8128   34.7599   46.0326 H   0  0  0  0  0  0  0  0  0  0  0  0
   61.6805   33.7263   45.7372 H   0  0  0  0  0  0  0  0  0  0  0  0
   61.1983   35.3568   46.2377 H   0  0  0  0  0  0  0  0  0  0  0  0
  1  2  1  0
  2  3  1  0
  3  4  2  0
  4  5  1  0
  5  6  2  0
  6  7  1  0
  7  8  2  0
  8  9  1  0
  9 10  1  0
 10 11  1  0
 11 12  1  0
 12 13  1  0
 13 14  2  0
 13 15  2  0
 13 16  1  0
 16 17  2  0
 17 18  1  0
 18 19  1  0
 19 20  2  0
 20 21  1  0
 21 22  2  0
 21 23  1  0
 23 24  1  0
 24 25  2  0
 25 26  1  0
 26 27  2  0
 27 28  1  0
 27 29  1  0
 19 30  1  0
 12 31  1  0
 31 32  1  0
  8  3  1  0
 32  9  1  0
 30 16  1  0
 29 24  1  0
  1 33  1  0
  1 34  1  0
  1 35  1  0
  4 36  1  0
  5 37  1  0
  6 38  1  0
  7 39  1  0
 10 40  1  0
 10 41  1  0
 11 42  1  0
 11 43  1  0
 18 44  1  0
 23 45  1  0
 23 46  1  0
 25 47  1  0
 26 48  1  0
 28 49  1  0
 28 50  1  0
 28 51  1  0
 31 52  1  0
 31 53  1  0
 32 54  1  0
 32 55  1  0
M  END
>  <smiles>  (59) 
COc1ccccc1N1CCN(S(=O)(=O)c2n[nH]c(=NC(=O)Cc3ccc(C)s3)s2)CC1

>  <score_type>  (59) 
oracle

>  <origin>  (59) 
adg

>  <m_score__min__energy>  (59) 
-10.630000000000001

>  <m_primary>  (59) 
energy

$$$$
59:0
     RDKit          3D

 42 44  0  0  0  0  0  0  0  0999 V2000
   58.5250   34.6740   45.2400 C   0  0  0  0  0  0  0  0  0  0  0  0
   58.4640   33.1770   45.1630 C   0  0  0  0  0  0  0  0  0  0  0  0
   59.0890   32.3950   46.1430 C   0  0  0  0  0  0  0  0  0  0  0  0
   59.0010   31.0020   46.0930 C   0  0  0  0  0  0  0  0  0  0  0  0
   58.2790   30.3630   45.0700 C   0  0  0  0  0  0  0  0  0  0  0  0
   58.2320   28.8810   45.0420 C   0  0  0  0  0  0  0  0  0  0  0  0
   59.1240   28.2350   44.4260 O   0  0  0  0  0  0  0  0  0  0  0  0
   57.1690   28.1770   45.7060 N   0  0  0  0  0  0  0  0  0  0  0  0
   57.2020   26.7680   45.9980 C   0  0  0  0  0  0  0  0  0  0  0  0
   58.4250   26.0900   46.1440 C   0  0  0  0  0  0  0  0  0  0  0  0
   58.4460   24.7240   46.4260 C   0  0  0  0  0  0  0  0  0  0  0  0
   57.2500   24.0240   46.5940 C   0  0  0  0  0  0  0  0  0  0  0  0
   56.0240   24.6890   46.5080 C   0  0  0  0  0  0  0  0  0  0  0  0
   54.8190   23.9320   46.6870 N   0  0  0  0  0  0  0  0  0  0  0  0
   53.9330   23.5360   45.6340 C   0  0  0  0  0  0  0  0  0  0  0  0
   52.7720   23.1170   45.8960 O   0  0  0  0  0  0  0  0  0  0  0  0
   54.3860   23.6310   44.2130 C   0  0  0  0  0  0  0  0  0  0  0  0
   55.5470   22.7160   43.9950 C   0  0  0  0  0  0  0  0  0  0  0  0
   55.9040   21.6470   44.8070 C   0  0  0  0  0  0  0  0  0  0  0  0
   56.9790   20.9060   44.3010 C   0  0  0  0  0  0  0  0  0  0  0  0
   57.4580   21.3780   43.0850 C   0  0  0  0  0  0  0  0  0  0  0  0
   56.5420   22.7160   42.6390 S   0  0  0  0  0  0  0  0  0  0  0  0
   55.9980   26.0610   46.1820 C   0  0  0  0  0  0  0  0  0  0  0  0
   54.7850   26.7160   45.9960 O   0  0  0  0  0  0  0  0  0  0  0  0
   57.6300   31.1560   44.0930 C   0  0  0  0  0  0  0  0  0  0  0  0
   56.6310   30.4580   42.8210 Cl  0  0  0  0  0  0  0  0  0  0  0  0
   57.7230   32.5520   44.1520 C   0  0  0  0  0  0  0  0  0  0  0  0
   58.5377   34.9867   46.2945 H   0  0  0  0  0  0  0  0  0  0  0  0
   59.4384   35.0299   44.7410 H   0  0  0  0  0  0  0  0  0  0  0  0
   57.6436   35.1030   44.7410 H   0  0  0  0  0  0  0  0  0  0  0  0
   59.6511   32.8798   46.9548 H   0  0  0  0  0  0  0  0  0  0  0  0
   59.5026   30.3977   46.8632 H   0  0  0  0  0  0  0  0  0  0  0  0
   56.2870   28.7020   45.9060 H   0  0  0  0  0  0  0  0  0  0  0  0
   59.3713   26.6402   46.0352 H   0  0  0  0  0  0  0  0  0  0  0  0
   59.4074   24.1971   46.5162 H   0  0  0  0  0  0  0  0  0  0  0  0
   57.2728   22.9428   46.7952 H   0  0  0  0  0  0  0  0  0  0  0  0
   53.5611   23.3412   43.5456 H   0  0  0  0  0  0  0  0  0  0  0  0
   54.6900   24.6654   43.9948 H   0  0  0  0  0  0  0  0  0  0  0  0
   55.3940   21.4069   45.7516 H   0  0  0  0  0  0  0  0  0  0  0  0
   57.4042   20.0327   44.8174 H   0  0  0  0  0  0  0  0  0  0  0  0
   58.2936   20.9497   42.5120 H   0  0  0  0  0  0  0  0  0  0  0  0
   57.2087   33.1641   43.3965 H   0  0  0  0  0  0  0  0  0  0  0  0
  1  2  1  0
  2  3  2  0
  3  4  1  0
  4  5  2  0
  5  6  1  0
  6  7  2  0
  6  8  1  0
  8  9  1  0
  9 10  2  0
 10 11  1  0
 11 12  2  0
 12 13  1  0
 13 14  1  0
 14 15  1  0
 15 16  2  0
 15 17  1  0
 17 18  1  0
 18 19  2  0
 19 20  1  0
 20 21  2  0
 21 22  1  0
 13 23  2  0
 23 24  1  0
  5 25  1  0
 25 26  1  0
 25 27  2  0
 27  2  1  0
 23  9  1  0
 22 18  1  0
  1 28  1  0
  1 29  1  0
  1 30  1  0
  3 31  1  0
  4 32  1  0
  8 33  1  0
 10 34  1  0
 11 35  1  0
 12 36  1  0
 17 37  1  0
 17 38  1  0
 19 39  1  0
 20 40  1  0
 21 41  1  0
 27 42  1  0
M  CHG  2  14  -1  24  -1
M  END
>  <UniqueID>  (60) 
56

>  <SMILES>  (60) 
Cc1ccc(C(=O)Nc2cccc([N-]C(=O)Cc3cccs3)c2[O-])c(Cl)c1

>  <Energy>  (60) 
81.4117315340363

>  <Genealogy>  (60) 
Cc1ccc(C(=O)Nc2cccc([N-]C(=O)Cc3cccs3)c2[O-])c(Cl)c1 (protonated)
Cc1ccc(C(=O)Nc2cccc([N-]C(=O)Cc3cccs3)c2[O-])c(Cl)c1 (3D coordinates assigned)
Cc1ccc(C(=O)Nc2cccc([N-]C(=O)Cc3cccs3)c2[O-])c(Cl)c1 (optimized conformer: 81.4117315340363 kcal/mol)

>  <smiles>  (60) 
Cc1ccc(C(=O)Nc2cccc(NC(=O)Cc3cccs3)c2O)c(Cl)c1

>  <score_type>  (60) 
oracle

>  <origin>  (60) 
adg

>  <m_score__min__energy>  (60) 
-14.300000000000001

>  <m_primary>  (60) 
energy

$$$$
60:0
     RDKit          3D

 56 58  0  0  1  0  0  0  0  0999 V2000
   56.3330   25.9830   45.5750 C   0  0  0  0  0  0  0  0  0  0  0  0
   56.0490   27.3090   45.9920 O   0  0  0  0  0  0  0  0  0  0  0  0
   56.6910   28.3430   45.3300 C   0  0  0  0  0  0  0  0  0  0  0  0
   55.9990   29.3000   44.5940 C   0  0  0  0  0  0  0  0  0  0  0  0
   56.6410   30.3300   43.9360 C   0  0  0  0  0  0  0  0  0  0  0  0
   58.0270   30.3910   44.0270 C   0  0  0  0  0  0  0  0  0  0  0  0
   58.7540   29.4530   44.7540 C   0  0  0  0  0  0  0  0  0  0  0  0
   58.0650   28.4360   45.3980 C   0  0  0  0  0  0  0  0  0  0  0  0
   58.7970   27.3900   46.1990 C   0  0  0  0  0  0  0  0  0  0  0  0
   58.7360   27.8610   47.5680 N   0  0  0  0  0  0  0  0  0  0  0  0
   59.3470   28.9220   47.9150 C   0  0  0  0  0  0  0  0  0  0  0  0
   58.9100   29.7610   48.9320 C   0  0  0  0  0  0  0  0  0  0  0  0
   59.5700   30.9090   49.3060 C   0  0  0  0  0  0  0  0  0  0  0  0
   59.1310   31.8160   50.3520 C   0  0  0  0  0  0  0  0  0  0  0  0
   57.9120   31.5980   50.9890 C   0  0  0  0  0  0  0  0  0  0  0  0
   57.4320   32.4340   51.9820 C   0  0  0  0  0  0  0  0  0  0  0  0
   58.1330   33.5340   52.4010 C   0  0  0  0  0  0  0  0  0  0  0  0
   59.3480   33.7690   51.7820 C   0  0  0  0  0  0  0  0  0  0  0  0
   59.8330   32.9240   50.7760 C   0  0  0  0  0  0  0  0  0  0  0  0
   61.0460   33.2580   50.2380 O   0  0  0  0  0  0  0  0  0  0  0  0
   61.2620   34.2820   49.3340 C   0  0  0  0  0  0  0  0  0  0  0  0
   60.5430   34.0740   48.0520 C   0  0  0  0  0  0  0  0  0  0  0  0
   60.9340   33.3580   47.1150 O   0  0  0  0  0  0  0  0  0  0  0  0
   59.3040   34.7560   47.8870 N   0  0  0  0  0  0  0  0  0  0  0  0
   58.5820   34.5730   46.6510 C   0  0  0  0  0  0  0  0  0  0  0  0
   59.4740   34.9900   45.4900 C   0  0  0  0  0  0  0  0  0  0  0  0
   58.1900   33.1380   46.3870 C   0  0  0  0  0  0  0  0  0  0  0  0
   60.6970   31.1880   48.6160 N   0  0  0  0  0  0  0  0  0  0  0  0
   61.1480   30.3780   47.6100 C   0  0  0  0  0  0  0  0  0  0  0  0
   60.4720   29.2550   47.2710 N   0  0  0  0  0  0  0  0  0  0  0  0
   56.4702   25.3422   46.4585 H   0  0  0  0  0  0  0  0  0  0  0  0
   55.4963   25.6012   44.9716 H   0  0  0  0  0  0  0  0  0  0  0  0
   57.2527   25.9774   44.9716 H   0  0  0  0  0  0  0  0  0  0  0  0
   54.9026   29.2335   44.5344 H   0  0  0  0  0  0  0  0  0  0  0  0
   56.0753   31.0768   43.3595 H   0  0  0  0  0  0  0  0  0  0  0  0
   58.5627   31.2015   43.5111 H   0  0  0  0  0  0  0  0  0  0  0  0
   59.8504   29.5167   44.8165 H   0  0  0  0  0  0  0  0  0  0  0  0
   58.3021   26.4123   46.1033 H   0  0  0  0  0  0  0  0  0  0  0  0
   59.8322   27.2521   45.8535 H   0  0  0  0  0  0  0  0  0  0  0  0
   57.9869   29.4934   49.4671 H   0  0  0  0  0  0  0  0  0  0  0  0
   57.3077   30.7283   50.6916 H   0  0  0  0  0  0  0  0  0  0  0  0
   56.4611   32.2091   52.4476 H   0  0  0  0  0  0  0  0  0  0  0  0
   57.7491   34.1973   53.1901 H   0  0  0  0  0  0  0  0  0  0  0  0
   59.9469   34.6398   52.0872 H   0  0  0  0  0  0  0  0  0  0  0  0
   60.9174   35.2257   49.7819 H   0  0  0  0  0  0  0  0  0  0  0  0
   62.3389   34.3076   49.1112 H   0  0  0  0  0  0  0  0  0  0  0  0
   58.8830   35.3820   48.6060 H   0  0  0  0  0  0  0  0  0  0  0  0
   57.6687   35.1795   46.7403 H   0  0  0  0  0  0  0  0  0  0  0  0
   60.4054   35.4254   45.8812 H   0  0  0  0  0  0  0  0  0  0  0  0
   59.7110   34.1093   44.8750 H   0  0  0  0  0  0  0  0  0  0  0  0
   58.9502   35.7366   44.8750 H   0  0  0  0  0  0  0  0  0  0  0  0
   58.0471   32.6149   47.3441 H   0  0  0  0  0  0  0  0  0  0  0  0
   57.2523   33.1138   45.8124 H   0  0  0  0  0  0  0  0  0  0  0  0
   58.9851   32.6405   45.8124 H   0  0  0  0  0  0  0  0  0  0  0  0
   61.3050   32.0140   48.7830 H   0  0  0  0  0  0  0  0  0  0  0  0
   62.0697   30.6419   47.0708 H   0  0  0  0  0  0  0  0  0  0  0  0
  1  2  1  0
  2  3  1  0
  3  4  2  0
  4  5  1  0
  5  6  2  0
  6  7  1  0
  7  8  2  0
  8  9  1  0
  9 10  1  0
 10 11  2  0
 11 12  1  0
 12 13  2  0
 13 14  1  0
 14 15  2  0
 15 16  1  0
 16 17  2  0
 17 18  1  0
 18 19  2  0
 19 20  1  0
 20 21  1  0
 21 22  1  0
 22 23  2  0
 22 24  1  0
 24 25  1  0
 25 26  1  0
 25 27  1  0
 13 28  1  0
 28 29  1  0
 29 30  2  0
  8  3  1  0
 30 11  1  0
 19 14  1  0
  1 31  1  0
  1 32  1  0
  1 33  1  0
  4 34  1  0
  5 35  1  0
  6 36  1  0
  7 37  1  0
  9 38  1  0
  9 39  1  0
 12 40  1  0
 15 41  1  0
 16 42  1  0
 17 43  1  0
 18 44  1  0
 21 45  1  0
 21 46  1  0
 24 47  1  0
 25 48  1  0
 26 49  1  0
 26 50  1  0
 26 51  1  0
 27 52  1  0
 27 53  1  0
 27 54  1  0
 28 55  1  0
 29 56  1  0
M  END
>  <smiles>  (61) 
COc1ccccc1CN=c1cc(-c2ccccc2OCC(=O)NC(C)C)[nH]cn1

>  <score_type>  (61) 
oracle

>  <origin>  (61) 
adg

>  <m_score__min__energy>  (61) 
-7.9199999999999999

>  <m_primary>  (61) 
energy

$$$$
61:0
     RDKit          3D

 50 53  0  0  0  0  0  0  0  0999 V2000
   58.9850   29.1280   46.6910 C   0  0  0  0  0  0  0  0  0  0  0  0
   58.3300   29.1420   45.5190 C   0  0  0  0  0  0  0  0  0  0  0  0
   58.0440   28.0330   44.7090 C   0  0  0  0  0  0  0  0  0  0  0  0
   58.3280   26.7400   44.9800 C   0  0  0  0  0  0  0  0  0  0  0  0
   57.5550   25.8560   45.8800 C   0  0  0  0  0  0  0  0  0  0  0  0
   58.0210   24.7590   46.5050 N   0  0  0  0  0  0  0  0  0  0  0  0
   56.9630   24.3310   47.2270 C   0  0  0  0  0  0  0  0  0  0  0  0
   57.0100   23.3060   47.9560 O   0  0  0  0  0  0  0  0  0  0  0  0
   55.8530   25.0900   47.1100 N   0  0  0  0  0  0  0  0  0  0  0  0
   56.2460   26.0510   46.2580 C   0  0  0  0  0  0  0  0  0  0  0  0
   55.4240   27.0870   45.8350 O   0  0  0  0  0  0  0  0  0  0  0  0
   57.3990   28.5370   43.5840 C   0  0  0  0  0  0  0  0  0  0  0  0
   57.3110   29.9030   43.7530 C   0  0  0  0  0  0  0  0  0  0  0  0
   56.6900   30.8440   42.7630 C   0  0  0  0  0  0  0  0  0  0  0  0
   57.8810   30.2730   44.9200 N   0  0  0  0  0  0  0  0  0  0  0  0
   57.9680   31.6200   45.4210 C   0  0  0  0  0  0  0  0  0  0  0  0
   56.9360   32.5340   45.1670 C   0  0  0  0  0  0  0  0  0  0  0  0
   57.0360   33.8470   45.6290 C   0  0  0  0  0  0  0  0  0  0  0  0
   58.1630   34.2570   46.3440 C   0  0  0  0  0  0  0  0  0  0  0  0
   59.2070   33.3530   46.6170 C   0  0  0  0  0  0  0  0  0  0  0  0
   60.4040   33.8180   47.3690 C   0  0  0  0  0  0  0  0  0  0  0  0
   60.3900   34.9770   47.8710 O   0  0  0  0  0  0  0  0  0  0  0  0
   61.5900   32.9950   47.5130 N   0  0  0  0  0  0  0  0  0  0  0  0
   62.7470   33.7060   46.9090 C   0  0  0  0  0  0  0  0  0  0  0  0
   64.0920   33.1000   47.3320 C   0  0  0  0  0  0  0  0  0  0  0  0
   64.1910   33.0890   48.8290 C   0  0  0  0  0  0  0  0  0  0  0  0
   65.2730   32.9380   49.3730 O   0  0  0  0  0  0  0  0  0  0  0  0
   62.9480   33.2770   49.6450 C   0  0  0  0  0  0  0  0  0  0  0  0
   61.7770   32.5760   48.9380 C   0  0  0  0  0  0  0  0  0  0  0  0
   59.1000   32.0320   46.1400 C   0  0  0  0  0  0  0  0  0  0  0  0
   59.1508   30.0669   47.2397 H   0  0  0  0  0  0  0  0  0  0  0  0
   59.3558   28.1777   47.1025 H   0  0  0  0  0  0  0  0  0  0  0  0
   59.2114   26.3066   44.4883 H   0  0  0  0  0  0  0  0  0  0  0  0
   57.0301   27.9574   42.7249 H   0  0  0  0  0  0  0  0  0  0  0  0
   56.1613   31.6451   43.3004 H   0  0  0  0  0  0  0  0  0  0  0  0
   57.4763   31.2831   42.1314 H   0  0  0  0  0  0  0  0  0  0  0  0
   55.9771   30.2937   42.1314 H   0  0  0  0  0  0  0  0  0  0  0  0
   56.0467   32.2160   44.6031 H   0  0  0  0  0  0  0  0  0  0  0  0
   56.2239   34.5616   45.4291 H   0  0  0  0  0  0  0  0  0  0  0  0
   58.2358   35.2962   46.6973 H   0  0  0  0  0  0  0  0  0  0  0  0
   61.4510   32.1100   46.9720 H   0  0  0  0  0  0  0  0  0  0  0  0
   62.6633   33.6501   45.8136 H   0  0  0  0  0  0  0  0  0  0  0  0
   62.7224   34.7473   47.2626 H   0  0  0  0  0  0  0  0  0  0  0  0
   64.1648   32.0700   46.9528 H   0  0  0  0  0  0  0  0  0  0  0  0
   64.9117   33.7044   46.9163 H   0  0  0  0  0  0  0  0  0  0  0  0
   63.0921   32.8387   50.6435 H   0  0  0  0  0  0  0  0  0  0  0  0
   62.7306   34.3501   49.7508 H   0  0  0  0  0  0  0  0  0  0  0  0
   61.9591   31.4914   48.9590 H   0  0  0  0  0  0  0  0  0  0  0  0
   60.8617   32.8612   49.4773 H   0  0  0  0  0  0  0  0  0  0  0  0
   59.9124   31.3160   46.3332 H   0  0  0  0  0  0  0  0  0  0  0  0
  1  2  2  0
  2  3  1  0
  3  4  2  3
  4  5  1  0
  5  6  1  0
  6  7  1  0
  7  8  2  0
  7  9  1  0
  9 10  1  0
 10 11  1  0
  3 12  1  0
 12 13  2  0
 13 14  1  0
 13 15  1  0
 15 16  1  0
 16 17  2  0
 17 18  1  0
 18 19  2  0
 19 20  1  0
 20 21  1  0
 21 22  2  0
 21 23  1  0
 23 24  1  0
 24 25  1  0
 25 26  1  0
 26 27  2  0
 26 28  1  0
 28 29  1  0
 20 30  2  0
 15  2  1  0
 30 16  1  0
 10  5  2  0
 29 23  1  0
  1 31  1  0
  1 32  1  0
  4 33  1  0
 12 34  1  0
 14 35  1  0
 14 36  1  0
 14 37  1  0
 17 38  1  0
 18 39  1  0
 19 40  1  0
 23 41  1  0
 24 42  1  0
 24 43  1  0
 25 44  1  0
 25 45  1  0
 28 46  1  0
 28 47  1  0
 29 48  1  0
 29 49  1  0
 30 50  1  0
M  CHG  4   6  -1   9  -1  11  -1  23   1
M  END
>  <UniqueID>  (62) 
57

>  <SMILES>  (62) 
C=c1c(=Cc2[n-]c(=O)[n-]c2[O-])cc(C)n1-c1cccc(C(=O)[NH+]2CCC(=O)CC2)c1

>  <Energy>  (62) 
132.20024986987713

>  <Genealogy>  (62) 
C=c1c(=Cc2[n-]c(=O)[n-]c2[O-])cc(C)n1-c1cccc(C(=O)[NH+]2CCC(=O)CC2)c1 (protonated)
C=c1c(=Cc2[n-]c(=O)[n-]c2[O-])cc(C)n1-c1cccc(C(=O)[NH+]2CCC(=O)CC2)c1 (3D coordinates assigned)
C=c1c(=Cc2[n-]c(=O)[n-]c2[O-])cc(C)n1-c1cccc(C(=O)[NH+]2CCC(=O)CC2)c1 (nonaromatic ring conformer: 132.20024986987713 kcal/mol)

>  <smiles>  (62) 
C=c1c(=Cc2[nH]c(=O)[nH]c2O)cc(C)n1-c1cccc(C(=O)N2CCC(=O)CC2)c1

>  <score_type>  (62) 
oracle

>  <origin>  (62) 
adg

>  <m_score__min__energy>  (62) 
-16.059999999999999

>  <m_primary>  (62) 
energy

$$$$
62:0
     RDKit          3D

 43 45  0  0  0  0  0  0  0  0999 V2000
   63.9770   33.1630   48.0070 N   0  0  0  0  0  0  0  0  0  0  0  0
   63.1480   32.1730   47.3930 C   0  0  0  0  0  0  0  0  0  0  0  0
   63.6930   31.2220   46.7720 O   0  0  0  0  0  0  0  0  0  0  0  0
   61.6670   32.2500   47.4780 C   0  0  0  0  0  0  0  0  0  0  0  0
   60.8710   31.3520   46.7430 C   0  0  0  0  0  0  0  0  0  0  0  0
   59.4670   31.4000   46.8170 C   0  0  0  0  0  0  0  0  0  0  0  0
   58.6590   30.4690   46.0620 N   0  0  0  0  0  0  0  0  0  0  0  0
   58.3620   30.7240   44.6430 C   0  0  0  0  0  0  0  0  0  0  0  0
   57.0130   30.1080   44.2590 C   0  0  0  0  0  0  0  0  0  0  0  0
   56.9390   28.5990   44.5720 C   0  0  0  0  0  0  0  0  0  0  0  0
   57.9440   28.1350   45.6440 C   0  0  2  0  0  0  0  0  0  0  0  0
   57.4510   26.9100   46.2760 N   0  0  0  0  0  0  0  0  0  0  0  0
   56.2460   26.2120   45.9310 C   0  0  0  0  0  0  0  0  0  0  0  0
   55.1430   26.6850   46.3100 O   0  0  0  0  0  0  0  0  0  0  0  0
   56.2580   24.9520   45.1630 C   0  0  0  0  0  0  0  0  0  0  0  0
   57.4130   24.5210   44.4950 C   0  0  0  0  0  0  0  0  0  0  0  0
   57.3970   23.3290   43.7700 C   0  0  0  0  0  0  0  0  0  0  0  0
   56.2180   22.5810   43.7080 C   0  0  0  0  0  0  0  0  0  0  0  0
   56.1860   21.5020   43.0620 O   0  0  0  0  0  0  0  0  0  0  0  0
   55.1000   23.0220   44.3440 N   0  0  0  0  0  0  0  0  0  0  0  0
   55.0910   24.1810   45.0550 C   0  0  0  0  0  0  0  0  0  0  0  0
   58.1790   29.2310   46.6970 C   0  0  0  0  0  0  0  0  0  0  0  0
   58.8620   32.3570   47.6480 C   0  0  0  0  0  0  0  0  0  0  0  0
   59.6420   33.2460   48.3860 C   0  0  0  0  0  0  0  0  0  0  0  0
   61.0360   33.2010   48.3070 C   0  0  0  0  0  0  0  0  0  0  0  0
   61.7810   34.1150   49.0450 O   0  0  0  0  0  0  0  0  0  0  0  0
   65.0130   33.1210   47.8890 H   0  0  0  0  0  0  0  0  0  0  0  0
   63.5790   33.8920   48.6390 H   0  0  0  0  0  0  0  0  0  0  0  0
   61.3541   30.6009   46.1007 H   0  0  0  0  0  0  0  0  0  0  0  0
   58.3268   31.8097   44.4698 H   0  0  0  0  0  0  0  0  0  0  0  0
   59.1504   30.2675   44.0265 H   0  0  0  0  0  0  0  0  0  0  0  0
   56.2184   30.6232   44.8186 H   0  0  0  0  0  0  0  0  0  0  0  0
   56.8885   30.2294   43.1728 H   0  0  0  0  0  0  0  0  0  0  0  0
   55.9234   28.3678   44.9258 H   0  0  0  0  0  0  0  0  0  0  0  0
   57.1933   28.0669   43.6435 H   0  0  0  0  0  0  0  0  0  0  0  0
   58.9095   27.9307   45.1582 H   0  0  0  0  0  0  0  0  0  0  0  0
   58.3324   25.1231   44.5426 H   0  0  0  0  0  0  0  0  0  0  0  0
   58.3032   22.9814   43.2524 H   0  0  0  0  0  0  0  0  0  0  0  0
   54.1657   24.5151   45.5471 H   0  0  0  0  0  0  0  0  0  0  0  0
   57.2339   29.4369   47.2208 H   0  0  0  0  0  0  0  0  0  0  0  0
   58.9413   28.8801   47.4082 H   0  0  0  0  0  0  0  0  0  0  0  0
   57.7652   32.4054   47.7170 H   0  0  0  0  0  0  0  0  0  0  0  0
   59.1560   33.9888   49.0357 H   0  0  0  0  0  0  0  0  0  0  0  0
  1  2  1  0
  2  3  2  0
  2  4  1  0
  4  5  2  0
  5  6  1  0
  6  7  1  0
  7  8  1  0
  8  9  1  0
  9 10  1  0
 10 11  1  0
 11 12  1  0
 12 13  1  0
 13 14  2  0
 13 15  1  0
 15 16  1  0
 16 17  2  0
 17 18  1  0
 18 19  2  0
 18 20  1  0
 20 21  1  0
 11 22  1  0
  6 23  2  0
 23 24  1  0
 24 25  2  0
 25 26  1  0
 25  4  1  0
 22  7  1  0
 21 15  2  0
  1 27  1  0
  1 28  1  0
  5 29  1  0
  8 30  1  0
  8 31  1  0
  9 32  1  0
  9 33  1  0
 10 34  1  0
 10 35  1  0
 11 36  1  6
 16 37  1  0
 17 38  1  0
 21 39  1  0
 22 40  1  0
 22 41  1  0
 23 42  1  0
 24 43  1  0
M  CHG  3  12  -1  20  -1  26  -1
M  END
>  <UniqueID>  (63) 
58

>  <SMILES>  (63) 
NC(=O)c1cc(N2CCC[C@H]([N-]C(=O)c3ccc(=O)[n-]c3)C2)ccc1[O-]

>  <Energy>  (63) 
56.89142174170236

>  <Genealogy>  (63) 
NC(=O)c1cc(N2CCCC([N-]C(=O)c3ccc(=O)[n-]c3)C2)ccc1[O-] (protonated)
NC(=O)c1cc(N2CCC[C@H]([N-]C(=O)c3ccc(=O)[n-]c3)C2)ccc1[O-] (chirality)
NC(=O)c1cc(N2CCC[C@H]([N-]C(=O)c3ccc(=O)[n-]c3)C2)ccc1[O-] (3D coordinates assigned)
NC(=O)c1cc(N2CCC[C@H]([N-]C(=O)c3ccc(=O)[n-]c3)C2)ccc1[O-] (nonaromatic ring conformer: 56.89142174170236 kcal/mol)

>  <smiles>  (63) 
NC(=O)c1cc(N2CCCC(NC(=O)c3ccc(=O)[nH]c3)C2)ccc1O

>  <score_type>  (63) 
oracle

>  <origin>  (63) 
adg

>  <m_score__min__energy>  (63) 
-12.26

>  <m_primary>  (63) 
energy

$$$$
63:0
     RDKit          3D

 66 70  0  0  0  0  0  0  0  0999 V2000
   56.3060   30.6610   44.7980 O   0  0  0  0  0  0  0  0  0  0  0  0
   57.5530   30.8460   44.8180 C   0  0  0  0  0  0  0  0  0  0  0  0
   58.4570   29.7750   44.4930 N   0  0  0  0  0  0  0  0  0  0  0  0
   58.5630   28.4950   45.1350 C   0  0  0  0  0  0  0  0  0  0  0  0
   59.7410   28.0690   45.7780 C   0  0  0  0  0  0  0  0  0  0  0  0
   59.7870   26.8190   46.4050 C   0  0  0  0  0  0  0  0  0  0  0  0
   58.6670   25.9890   46.4030 C   0  0  0  0  0  0  0  0  0  0  0  0
   57.4760   26.4120   45.7940 C   0  0  0  0  0  0  0  0  0  0  0  0
   56.3060   25.5150   45.7670 C   0  0  0  0  0  0  0  0  0  0  0  0
   55.2570   25.8950   46.3500 O   0  0  0  0  0  0  0  0  0  0  0  0
   56.3430   24.2240   45.1170 N   0  0  0  0  0  0  0  0  0  0  0  0
   57.2620   23.9860   43.9940 C   0  0  0  0  0  0  0  0  0  0  0  0
   57.5010   22.4850   43.8200 C   0  0  0  0  0  0  0  0  0  0  0  0
   56.2660   21.8130   43.6690 O   0  0  0  0  0  0  0  0  0  0  0  0
   55.5390   21.8880   44.8820 C   0  0  0  0  0  0  0  0  0  0  0  0
   55.1710   23.3390   45.2280 C   0  0  0  0  0  0  0  0  0  0  0  0
   57.4330   27.6670   45.1590 C   0  0  0  0  0  0  0  0  0  0  0  0
   58.1070   32.1660   45.2000 C   0  0  0  0  0  0  0  0  0  0  0  0
   57.5520   33.3230   44.6170 C   0  0  0  0  0  0  0  0  0  0  0  0
   58.0020   34.5930   44.9770 C   0  0  0  0  0  0  0  0  0  0  0  0
   59.0170   34.7320   45.9190 C   0  0  0  0  0  0  0  0  0  0  0  0
   59.5880   33.5990   46.5030 C   0  0  0  0  0  0  0  0  0  0  0  0
   59.1530   32.3050   46.1510 C   0  0  0  0  0  0  0  0  0  0  0  0
   59.8080   31.1460   46.7090 N   0  0  0  0  0  0  0  0  0  0  0  0
   60.8240   31.2290   47.7630 C   0  0  0  0  0  0  0  0  0  0  0  0
   60.3170   30.5930   49.0370 C   0  0  0  0  0  0  0  0  0  0  0  0
   61.1410   29.7140   49.7590 C   0  0  0  0  0  0  0  0  0  0  0  0
   60.6440   29.0500   50.8790 C   0  0  0  0  0  0  0  0  0  0  0  0
   59.3360   29.2900   51.3120 C   0  0  0  0  0  0  0  0  0  0  0  0
   58.5140   30.1950   50.6310 C   0  0  0  0  0  0  0  0  0  0  0  0
   57.2360   30.4580   51.1490 O   0  0  0  0  0  0  0  0  0  0  0  0
   56.8990   30.3450   52.5040 C   0  0  0  0  0  0  0  0  0  0  0  0
   55.9430   29.3940   52.8980 C   0  0  0  0  0  0  0  0  0  0  0  0
   55.6040   29.2620   54.2480 C   0  0  0  0  0  0  0  0  0  0  0  0
   56.1870   30.1030   55.2030 C   0  0  0  0  0  0  0  0  0  0  0  0
   57.1200   31.0750   54.8120 C   0  0  0  0  0  0  0  0  0  0  0  0
   57.4830   31.1900   53.4630 C   0  0  0  0  0  0  0  0  0  0  0  0
   59.0040   30.8320   49.4760 C   0  0  0  0  0  0  0  0  0  0  0  0
   60.6273   28.7205   45.7874 H   0  0  0  0  0  0  0  0  0  0  0  0
   60.7114   26.4896   46.9019 H   0  0  0  0  0  0  0  0  0  0  0  0
   58.7172   24.9993   46.8804 H   0  0  0  0  0  0  0  0  0  0  0  0
   56.8228   24.3939   43.0716 H   0  0  0  0  0  0  0  0  0  0  0  0
   58.2216   24.4818   44.2024 H   0  0  0  0  0  0  0  0  0  0  0  0
   58.1195   22.3158   42.9262 H   0  0  0  0  0  0  0  0  0  0  0  0
   58.0173   22.0960   44.7100 H   0  0  0  0  0  0  0  0  0  0  0  0
   54.6154   21.2989   44.7824 H   0  0  0  0  0  0  0  0  0  0  0  0
   56.1716   21.4901   45.6891 H   0  0  0  0  0  0  0  0  0  0  0  0
   54.3911   23.6870   44.5347 H   0  0  0  0  0  0  0  0  0  0  0  0
   54.8073   23.3693   46.2657 H   0  0  0  0  0  0  0  0  0  0  0  0
   56.5027   28.0014   44.6765 H   0  0  0  0  0  0  0  0  0  0  0  0
   56.7529   33.2229   43.8677 H   0  0  0  0  0  0  0  0  0  0  0  0
   57.5542   35.4857   44.5159 H   0  0  0  0  0  0  0  0  0  0  0  0
   59.3696   35.7343   46.2036 H   0  0  0  0  0  0  0  0  0  0  0  0
   60.3884   33.7180   47.2481 H   0  0  0  0  0  0  0  0  0  0  0  0
   59.6650   30.2250   46.2430 H   0  0  0  0  0  0  0  0  0  0  0  0
   61.7323   30.7038   47.4326 H   0  0  0  0  0  0  0  0  0  0  0  0
   61.0487   32.2879   47.9585 H   0  0  0  0  0  0  0  0  0  0  0  0
   62.1807   29.5494   49.4398 H   0  0  0  0  0  0  0  0  0  0  0  0
   61.2809   28.3367   51.4227 H   0  0  0  0  0  0  0  0  0  0  0  0
   58.9496   28.7623   52.1964 H   0  0  0  0  0  0  0  0  0  0  0  0
   55.4613   28.7534   52.1446 H   0  0  0  0  0  0  0  0  0  0  0  0
   54.8784   28.4964   54.5599 H   0  0  0  0  0  0  0  0  0  0  0  0
   55.9128   30.0015   56.2634 H   0  0  0  0  0  0  0  0  0  0  0  0
   57.5655   31.7451   55.5620 H   0  0  0  0  0  0  0  0  0  0  0  0
   58.2249   31.9415   53.1551 H   0  0  0  0  0  0  0  0  0  0  0  0
   58.3558   31.5205   48.9140 H   0  0  0  0  0  0  0  0  0  0  0  0
  1  2  2  0
  2  3  1  0
  3  4  1  0
  4  5  2  0
  5  6  1  0
  6  7  2  0
  7  8  1  0
  8  9  1  0
  9 10  2  0
  9 11  1  0
 11 12  1  0
 12 13  1  0
 13 14  1  0
 14 15  1  0
 15 16  1  0
  8 17  2  0
  2 18  1  0
 18 19  2  0
 19 20  1  0
 20 21  2  0
 21 22  1  0
 22 23  2  0
 23 24  1  0
 24 25  1  0
 25 26  1  0
 26 27  2  0
 27 28  1  0
 28 29  2  0
 29 30  1  0
 30 31  1  0
 31 32  1  0
 32 33  2  0
 33 34  1  0
 34 35  2  0
 35 36  1  0
 36 37  2  0
 30 38  2  0
 17  4  1  0
 23 18  1  0
 38 26  1  0
 16 11  1  0
 37 32  1  0
  5 39  1  0
  6 40  1  0
  7 41  1  0
 12 42  1  0
 12 43  1  0
 13 44  1  0
 13 45  1  0
 15 46  1  0
 15 47  1  0
 16 48  1  0
 16 49  1  0
 17 50  1  0
 19 51  1  0
 20 52  1  0
 21 53  1  0
 22 54  1  0
 24 55  1  0
 25 56  1  0
 25 57  1  0
 27 58  1  0
 28 59  1  0
 29 60  1  0
 33 61  1  0
 34 62  1  0
 35 63  1  0
 36 64  1  0
 37 65  1  0
 38 66  1  0
M  CHG  1   3  -1
M  END
>  <UniqueID>  (64) 
59

>  <SMILES>  (64) 
O=C([N-]c1cccc(C(=O)N2CCOCC2)c1)c1ccccc1NCc1cccc(Oc2ccccc2)c1

>  <Energy>  (64) 
97.99507715100103

>  <Genealogy>  (64) 
O=C([N-]c1cccc(C(=O)N2CCOCC2)c1)c1ccccc1NCc1cccc(Oc2ccccc2)c1 (protonated)
O=C([N-]c1cccc(C(=O)N2CCOCC2)c1)c1ccccc1NCc1cccc(Oc2ccccc2)c1 (3D coordinates assigned)
O=C([N-]c1cccc(C(=O)N2CCOCC2)c1)c1ccccc1NCc1cccc(Oc2ccccc2)c1 (nonaromatic ring conformer: 97.99507715100103 kcal/mol)

>  <smiles>  (64) 
O=C(Nc1cccc(C(=O)N2CCOCC2)c1)c1ccccc1NCc1cccc(Oc2ccccc2)c1

>  <score_type>  (64) 
oracle

>  <origin>  (64) 
adg

>  <m_score__min__energy>  (64) 
-12.19

>  <m_primary>  (64) 
energy

$$$$
64:0
     RDKit          3D

 67 71  0  0  1  0  0  0  0  0999 V2000
   60.0570   29.6120   50.3990 C   0  0  0  0  0  0  0  0  0  0  0  0
   58.9600   29.3860   51.0560 C   0  0  0  0  0  0  0  0  0  0  0  0
   58.1350   30.2910   51.8080 C   0  0  0  0  0  0  0  0  0  0  0  0
   56.9210   29.8880   52.0110 O   0  0  0  0  0  0  0  0  0  0  0  0
   58.4450   31.5400   52.3520 N   0  0  0  0  0  0  0  0  0  0  0  0
   57.5090   32.5960   52.6680 C   0  0  0  0  0  0  0  0  0  0  0  0
   58.2110   33.8410   53.2000 C   0  0  0  0  0  0  0  0  0  0  0  0
   59.3460   34.2410   52.2840 C   0  0  0  0  0  0  0  0  0  0  0  0
   60.3170   33.1010   52.0850 C   0  0  2  0  0  0  0  0  0  0  0  0
   60.6770   32.9800   50.6860 N   0  0  0  0  0  0  0  0  0  0  0  0
   59.8160   32.7030   49.7260 N   0  0  0  0  0  0  0  0  0  0  0  0
   60.4260   32.6500   48.5040 C   0  0  0  0  0  0  0  0  0  0  0  0
   59.6700   32.3560   47.3070 C   0  0  0  0  0  0  0  0  0  0  0  0
   58.9900   31.1250   47.3020 C   0  0  0  0  0  0  0  0  0  0  0  0
   58.1950   30.7320   46.2690 C   0  0  0  0  0  0  0  0  0  0  0  0
   58.0330   31.5490   45.1780 C   0  0  0  0  0  0  0  0  0  0  0  0
   57.2370   31.2420   44.0490 N   0  0  0  0  0  0  0  0  0  0  0  0
   56.4550   29.7410   43.7880 S   0  0  0  0  0  0  0  0  0  0  0  0
   56.1100   29.7620   42.2680 O   0  0  0  0  0  0  0  0  0  0  0  0
   55.1710   29.5600   44.5220 O   0  0  0  0  0  0  0  0  0  0  0  0
   57.5890   28.4460   43.9350 C   0  0  0  0  0  0  0  0  0  0  0  0
   57.8990   27.7680   44.9870 C   0  0  0  0  0  0  0  0  0  0  0  0
   57.5290   26.4450   45.3930 C   0  0  0  0  0  0  0  0  0  0  0  0
   58.5710   25.5060   45.4250 C   0  0  0  0  0  0  0  0  0  0  0  0
   58.3920   24.2210   45.8630 C   0  0  0  0  0  0  0  0  0  0  0  0
   57.1790   23.7750   46.3000 C   0  0  0  0  0  0  0  0  0  0  0  0
   56.1360   24.6770   46.2820 C   0  0  0  0  0  0  0  0  0  0  0  0
   54.9060   24.2310   46.7240 O   0  0  0  0  0  0  0  0  0  0  0  0
   56.3250   25.9930   45.8340 C   0  0  0  0  0  0  0  0  0  0  0  0
   55.1930   26.7800   45.8910 O   0  0  0  0  0  0  0  0  0  0  0  0
   58.6950   32.7780   45.1550 C   0  0  0  0  0  0  0  0  0  0  0  0
   59.4960   33.1440   46.2230 C   0  0  0  0  0  0  0  0  0  0  0  0
   61.7450   32.9080   48.7320 C   0  0  0  0  0  0  0  0  0  0  0  0
   62.8190   32.9760   47.8840 C   0  0  0  0  0  0  0  0  0  0  0  0
   62.8440   32.7750   46.6500 N   0  0  0  0  0  0  0  0  0  0  0  0
   64.0210   33.2630   48.4840 N   0  0  0  0  0  0  0  0  0  0  0  0
   64.1360   33.4590   49.7990 C   0  0  0  0  0  0  0  0  0  0  0  0
   63.0620   33.3820   50.5950 N   0  0  0  0  0  0  0  0  0  0  0  0
   61.8640   33.1090   50.0920 C   0  0  0  0  0  0  0  0  0  0  0  0
   59.8460   31.8200   52.6540 C   0  0  0  0  0  0  0  0  0  0  0  0
   60.5629   28.7887   49.8735 H   0  0  0  0  0  0  0  0  0  0  0  0
   60.4804   30.6268   50.3680 H   0  0  0  0  0  0  0  0  0  0  0  0
   58.6090   28.3438   51.0335 H   0  0  0  0  0  0  0  0  0  0  0  0
   56.9541   32.8633   51.7566 H   0  0  0  0  0  0  0  0  0  0  0  0
   56.8317   32.2265   53.4521 H   0  0  0  0  0  0  0  0  0  0  0  0
   57.4868   34.6667   53.2610 H   0  0  0  0  0  0  0  0  0  0  0  0
   58.6194   33.6205   54.1973 H   0  0  0  0  0  0  0  0  0  0  0  0
   58.9325   34.5343   51.3078 H   0  0  0  0  0  0  0  0  0  0  0  0
   59.8858   35.0810   52.7456 H   0  0  0  0  0  0  0  0  0  0  0  0
   61.2240   33.3492   52.6556 H   0  0  0  0  0  0  0  0  0  0  0  0
   59.1049   30.4539   48.1659 H   0  0  0  0  0  0  0  0  0  0  0  0
   57.6824   29.7595   46.3087 H   0  0  0  0  0  0  0  0  0  0  0  0
   57.1470   32.0190   43.3330 H   0  0  0  0  0  0  0  0  0  0  0  0
   58.1149   28.1631   43.0112 H   0  0  0  0  0  0  0  0  0  0  0  0
   58.5592   28.2945   45.6919 H   0  0  0  0  0  0  0  0  0  0  0  0
   59.5707   25.8141   45.0850 H   0  0  0  0  0  0  0  0  0  0  0  0
   59.2483   23.5306   45.8625 H   0  0  0  0  0  0  0  0  0  0  0  0
   57.0392   22.7419   46.6511 H   0  0  0  0  0  0  0  0  0  0  0  0
   54.0920   24.8350   46.7560 H   0  0  0  0  0  0  0  0  0  0  0  0
   55.1400   27.5960   45.3040 H   0  0  0  0  0  0  0  0  0  0  0  0
   58.5807   33.4517   44.2930 H   0  0  0  0  0  0  0  0  0  0  0  0
   60.0115   34.1151   46.1879 H   0  0  0  0  0  0  0  0  0  0  0  0
   63.4430   33.0070   45.8940 H   0  0  0  0  0  0  0  0  0  0  0  0
   64.8850   33.3330   47.9040 H   0  0  0  0  0  0  0  0  0  0  0  0
   65.1212   33.6857   50.2326 H   0  0  0  0  0  0  0  0  0  0  0  0
   60.4621   31.0067   52.2429 H   0  0  0  0  0  0  0  0  0  0  0  0
   59.9375   31.8934   53.7477 H   0  0  0  0  0  0  0  0  0  0  0  0
  1  2  2  0
  2  3  1  0
  3  4  2  0
  3  5  1  0
  5  6  1  0
  6  7  1  0
  7  8  1  0
  8  9  1  0
  9 10  1  0
 10 11  1  0
 11 12  2  0
 12 13  1  0
 13 14  2  0
 14 15  1  0
 15 16  2  0
 16 17  1  0
 17 18  1  0
 18 19  2  0
 18 20  2  0
 18 21  1  0
 21 22  2  0
 22 23  1  0
 23 24  2  0
 24 25  1  0
 25 26  2  0
 26 27  1  0
 27 28  1  0
 27 29  2  0
 29 30  1  0
 16 31  1  0
 31 32  2  0
 12 33  1  0
 33 34  1  0
 34 35  2  3
 34 36  1  0
 36 37  1  0
 37 38  2  0
 38 39  1  0
  9 40  1  0
 40  5  1  0
 39 10  1  0
 32 13  1  0
 39 33  2  0
 29 23  1  0
  1 41  1  0
  1 42  1  0
  2 43  1  0
  6 44  1  0
  6 45  1  0
  7 46  1  0
  7 47  1  0
  8 48  1  0
  8 49  1  0
  9 50  1  1
 14 51  1  0
 15 52  1  0
 17 53  1  0
 21 54  1  0
 22 55  1  0
 24 56  1  0
 25 57  1  0
 26 58  1  0
 28 59  1  0
 30 60  1  0
 31 61  1  0
 32 62  1  0
 35 63  1  0
 36 64  1  0
 37 65  1  0
 40 66  1  0
 40 67  1  0
M  END
>  <smiles>  (65) 
C=CC(=O)N1CCCC(n2nc(-c3ccc(NS(=O)(=O)C=Cc4cccc(O)c4O)cc3)c3c(=N)[nH]cnc32)C1

>  <score_type>  (65) 
oracle

>  <origin>  (65) 
adg

>  <m_score__min__energy>  (65) 
-11.609999999999999

>  <m_primary>  (65) 
energy

$$$$
65:0
     RDKit          3D

 27 28  0  0  0  0  0  0  0  0999 V2000
   58.1970   27.7580   46.9510 O   0  0  0  0  0  0  0  0  0  0  0  0
   57.0960   27.5770   46.3680 C   0  0  0  0  0  0  0  0  0  0  0  0
   56.5280   28.6530   45.6090 N   0  0  0  0  0  0  0  0  0  0  0  0
   56.7030   28.8720   44.1740 C   0  0  0  0  0  0  0  0  0  0  0  0
   57.1200   30.2960   43.8940 C   0  0  0  0  0  0  0  0  0  0  0  0
   57.0280   30.7900   42.5810 C   0  0  0  0  0  0  0  0  0  0  0  0
   57.4610   32.0810   42.2750 C   0  0  0  0  0  0  0  0  0  0  0  0
   57.3620   32.7180   40.4770 Br  0  0  0  0  0  0  0  0  0  0  0  0
   57.9750   32.9020   43.2790 C   0  0  0  0  0  0  0  0  0  0  0  0
   58.0590   32.4350   44.5930 C   0  0  0  0  0  0  0  0  0  0  0  0
   58.7680   33.5890   45.9460 Br  0  0  0  0  0  0  0  0  0  0  0  0
   57.6360   31.1350   44.9130 C   0  0  0  0  0  0  0  0  0  0  0  0
   57.7390   30.7060   46.2380 O   0  0  0  0  0  0  0  0  0  0  0  0
   56.4590   26.2540   46.4510 C   0  0  0  0  0  0  0  0  0  0  0  0
   57.1050   25.1740   47.0650 C   0  0  0  0  0  0  0  0  0  0  0  0
   56.4440   23.9460   47.1220 C   0  0  0  0  0  0  0  0  0  0  0  0
   56.9910   22.9580   47.6760 O   0  0  0  0  0  0  0  0  0  0  0  0
   55.2070   23.8170   46.5750 N   0  0  0  0  0  0  0  0  0  0  0  0
   54.6010   24.8670   45.9650 C   0  0  0  0  0  0  0  0  0  0  0  0
   53.4590   24.7270   45.4580 O   0  0  0  0  0  0  0  0  0  0  0  0
   55.2280   26.0720   45.9010 N   0  0  0  0  0  0  0  0  0  0  0  0
   57.4784   28.1888   43.7972 H   0  0  0  0  0  0  0  0  0  0  0  0
   55.7445   28.6804   43.6694 H   0  0  0  0  0  0  0  0  0  0  0  0
   56.6108   30.1529   41.7873 H   0  0  0  0  0  0  0  0  0  0  0  0
   58.3149   33.9194   43.0355 H   0  0  0  0  0  0  0  0  0  0  0  0
   57.5290   29.7620   46.5360 H   0  0  0  0  0  0  0  0  0  0  0  0
   58.1115   25.2908   47.4931 H   0  0  0  0  0  0  0  0  0  0  0  0
  1  2  2  0
  2  3  1  0
  3  4  1  0
  4  5  1  0
  5  6  2  0
  6  7  1  0
  7  8  1  0
  7  9  2  0
  9 10  1  0
 10 11  1  0
 10 12  2  0
 12 13  1  0
  2 14  1  0
 14 15  2  0
 15 16  1  0
 16 17  2  0
 16 18  1  0
 18 19  1  0
 19 20  2  0
 19 21  1  0
 12  5  1  0
 21 14  1  0
  4 22  1  0
  4 23  1  0
  6 24  1  0
  9 25  1  0
 13 26  1  0
 15 27  1  0
M  CHG  3   3  -1  18  -1  21  -1
M  END
>  <UniqueID>  (66) 
60

>  <SMILES>  (66) 
O=C([N-]Cc1cc(Br)cc(Br)c1O)c1cc(=O)[n-]c(=O)[n-]1

>  <Energy>  (66) 
32.31681788620056

>  <Genealogy>  (66) 
O=C([N-]Cc1cc(Br)cc(Br)c1O)c1cc(=O)[n-]c(=O)[n-]1 (protonated)
O=C([N-]Cc1cc(Br)cc(Br)c1O)c1cc(=O)[n-]c(=O)[n-]1 (3D coordinates assigned)
O=C([N-]Cc1cc(Br)cc(Br)c1O)c1cc(=O)[n-]c(=O)[n-]1 (optimized conformer: 32.31681788620056 kcal/mol)

>  <smiles>  (66) 
O=C(NCc1cc(Br)cc(Br)c1O)c1cc(=O)[nH]c(=O)[nH]1

>  <score_type>  (66) 
oracle

>  <origin>  (66) 
adg

>  <m_score__min__energy>  (66) 
-12.81

>  <m_primary>  (66) 
energy

$$$$
66:0
     RDKit          3D

 39 41  0  0  0  0  0  0  0  0999 V2000
   59.6640   30.1820   45.3190 O   0  0  0  0  0  0  0  0  0  0  0  0
   58.4480   30.1700   45.6580 C   0  0  0  0  0  0  0  0  0  0  0  0
   57.7190   31.4050   45.7520 N   0  0  0  0  0  0  0  0  0  0  0  0
   58.3380   32.6960   45.8850 C   0  0  0  0  0  0  0  0  0  0  0  0
   58.6580   33.4740   44.7600 C   0  0  0  0  0  0  0  0  0  0  0  0
   59.2800   34.7150   44.9160 C   0  0  0  0  0  0  0  0  0  0  0  0
   59.6020   35.1850   46.1910 C   0  0  0  0  0  0  0  0  0  0  0  0
   59.3130   34.4050   47.3270 C   0  0  0  0  0  0  0  0  0  0  0  0
   59.6270   34.8200   48.6310 O   0  0  0  0  0  0  0  0  0  0  0  0
   60.5620   34.1790   49.4990 C   0  0  0  0  0  0  0  0  0  0  0  0
   61.5650   33.3800   48.7100 C   0  0  0  0  0  0  0  0  0  0  0  0
   62.7160   34.0030   48.1980 C   0  0  0  0  0  0  0  0  0  0  0  0
   63.6440   33.2660   47.4560 C   0  0  0  0  0  0  0  0  0  0  0  0
   63.4280   31.9070   47.2130 C   0  0  0  0  0  0  0  0  0  0  0  0
   62.2800   31.2830   47.7090 C   0  0  0  0  0  0  0  0  0  0  0  0
   61.3490   32.0160   48.4510 C   0  0  0  0  0  0  0  0  0  0  0  0
   58.6850   33.1650   47.1610 C   0  0  0  0  0  0  0  0  0  0  0  0
   57.7810   28.9090   45.8770 N   0  0  0  0  0  0  0  0  0  0  0  0
   58.4260   27.9300   46.5820 C   0  0  0  0  0  0  0  0  0  0  0  0
   57.8170   26.6960   46.8040 C   0  0  0  0  0  0  0  0  0  0  0  0
   56.5370   26.4870   46.3010 C   0  0  0  0  0  0  0  0  0  0  0  0
   55.9580   25.3830   46.4790 O   0  0  0  0  0  0  0  0  0  0  0  0
   55.9110   27.4780   45.6200 N   0  0  0  0  0  0  0  0  0  0  0  0
   56.5110   28.6790   45.4090 C   0  0  0  0  0  0  0  0  0  0  0  0
   55.8730   29.5780   44.7980 O   0  0  0  0  0  0  0  0  0  0  0  0
   56.6840   31.3670   45.6160 H   0  0  0  0  0  0  0  0  0  0  0  0
   58.4178   33.1045   43.7521 H   0  0  0  0  0  0  0  0  0  0  0  0
   59.5170   35.3242   44.0313 H   0  0  0  0  0  0  0  0  0  0  0  0
   60.0828   36.1674   46.3081 H   0  0  0  0  0  0  0  0  0  0  0  0
   61.0918   34.9438   50.0858 H   0  0  0  0  0  0  0  0  0  0  0  0
   60.0136   33.4964   50.1648 H   0  0  0  0  0  0  0  0  0  0  0  0
   62.8874   35.0739   48.3816 H   0  0  0  0  0  0  0  0  0  0  0  0
   64.5462   33.7571   47.0626 H   0  0  0  0  0  0  0  0  0  0  0  0
   64.1611   31.3286   46.6316 H   0  0  0  0  0  0  0  0  0  0  0  0
   62.1087   30.2138   47.5153 H   0  0  0  0  0  0  0  0  0  0  0  0
   60.4434   31.5227   48.8337 H   0  0  0  0  0  0  0  0  0  0  0  0
   58.4602   32.5491   48.0442 H   0  0  0  0  0  0  0  0  0  0  0  0
   59.4350   28.1185   46.9775 H   0  0  0  0  0  0  0  0  0  0  0  0
   58.3370   25.9051   47.3644 H   0  0  0  0  0  0  0  0  0  0  0  0
  1  2  2  0
  2  3  1  0
  3  4  1  0
  4  5  2  0
  5  6  1  0
  6  7  2  0
  7  8  1  0
  8  9  1  0
  9 10  1  0
 10 11  1  0
 11 12  2  0
 12 13  1  0
 13 14  2  0
 14 15  1  0
 15 16  2  0
  8 17  2  0
  2 18  1  0
 18 19  1  0
 19 20  2  0
 20 21  1  0
 21 22  2  0
 21 23  1  0
 23 24  1  0
 24 25  2  0
 17  4  1  0
 24 18  1  0
 16 11  1  0
  3 26  1  0
  5 27  1  0
  6 28  1  0
  7 29  1  0
 10 30  1  0
 10 31  1  0
 12 32  1  0
 13 33  1  0
 14 34  1  0
 15 35  1  0
 16 36  1  0
 17 37  1  0
 19 38  1  0
 20 39  1  0
M  CHG  1  23  -1
M  END
>  <UniqueID>  (67) 
61

>  <SMILES>  (67) 
O=C(Nc1cccc(OCc2ccccc2)c1)n1ccc(=O)[n-]c1=O

>  <Energy>  (67) 
51.87623021319416

>  <Genealogy>  (67) 
O=C(Nc1cccc(OCc2ccccc2)c1)n1ccc(=O)[n-]c1=O (protonated)
O=C(Nc1cccc(OCc2ccccc2)c1)n1ccc(=O)[n-]c1=O (3D coordinates assigned)
O=C(Nc1cccc(OCc2ccccc2)c1)n1ccc(=O)[n-]c1=O (optimized conformer: 51.87623021319416 kcal/mol)

>  <smiles>  (67) 
O=C(Nc1cccc(OCc2ccccc2)c1)n1ccc(=O)[nH]c1=O

>  <score_type>  (67) 
oracle

>  <origin>  (67) 
adg

>  <m_score__min__energy>  (67) 
-10.52

>  <m_primary>  (67) 
energy

$$$$
67:0
     RDKit          3D

 39 42  0  0  1  0  0  0  0  0999 V2000
   59.6200   26.7620   46.6260 O   0  0  0  0  0  0  0  0  0  0  0  0
   58.8150   27.4360   45.9020 C   0  0  0  0  0  0  0  0  0  0  0  0
   58.6300   27.0450   44.6250 N   0  0  0  0  0  0  0  0  0  0  0  0
   57.7920   27.7390   43.8600 N   0  0  0  0  0  0  0  0  0  0  0  0
   57.1340   28.8220   44.3580 C   0  0  0  0  0  0  0  0  0  0  0  0
   56.0120   29.7260   43.2720 S   0  0  0  0  0  0  0  0  0  0  0  0
   56.9960   31.0900   42.5440 C   0  0  0  0  0  0  0  0  0  0  0  0
   57.5170   31.9810   43.6120 C   0  0  0  0  0  0  0  0  0  0  0  0
   57.1470   31.8750   44.8980 N   0  0  0  0  0  0  0  0  0  0  0  0
   57.7820   32.8200   45.6420 C   0  0  0  0  0  0  0  0  0  0  0  0
   57.7340   33.1150   47.0030 C   0  0  0  0  0  0  0  0  0  0  0  0
   58.5280   34.1710   47.4630 C   0  0  0  0  0  0  0  0  0  0  0  0
   59.3180   34.8770   46.5800 C   0  0  0  0  0  0  0  0  0  0  0  0
   59.3430   34.5570   45.2230 C   0  0  0  0  0  0  0  0  0  0  0  0
   58.5570   33.5080   44.7530 C   0  0  0  0  0  0  0  0  0  0  0  0
   58.4080   33.0060   43.5000 N   0  0  0  0  0  0  0  0  0  0  0  0
   57.3030   29.2300   45.6320 N   0  0  0  0  0  0  0  0  0  0  0  0
   58.1550   28.5400   46.4390 C   0  0  0  0  0  0  0  0  0  0  0  0
   58.3490   28.8920   47.6640 N   0  0  0  0  0  0  0  0  0  0  0  0
   59.2760   29.9690   47.8740 C   0  0  0  0  0  0  0  0  0  0  0  0
   60.0750   30.2740   46.7710 C   0  0  0  0  0  0  0  0  0  0  0  0
   61.0160   31.2870   46.8200 C   0  0  0  0  0  0  0  0  0  0  0  0
   61.1240   31.9760   48.0100 C   0  0  0  0  0  0  0  0  0  0  0  0
   62.3260   33.2730   48.0710 Cl  0  0  0  0  0  0  0  0  0  0  0  0
   60.3360   31.6820   49.1090 C   0  0  0  0  0  0  0  0  0  0  0  0
   59.3900   30.6540   49.0390 C   0  0  0  0  0  0  0  0  0  0  0  0
   59.1450   26.2250   44.2900 H   0  0  0  0  0  0  0  0  0  0  0  0
   57.8410   30.6668   41.9811 H   0  0  0  0  0  0  0  0  0  0  0  0
   56.3507   31.6767   41.8737 H   0  0  0  0  0  0  0  0  0  0  0  0
   57.0960   32.5394   47.6897 H   0  0  0  0  0  0  0  0  0  0  0  0
   58.5222   34.4385   48.5300 H   0  0  0  0  0  0  0  0  0  0  0  0
   59.9383   35.7057   46.9522 H   0  0  0  0  0  0  0  0  0  0  0  0
   59.9781   35.1282   44.5299 H   0  0  0  0  0  0  0  0  0  0  0  0
   58.8660   33.3170   42.6110 H   0  0  0  0  0  0  0  0  0  0  0  0
   56.8050   30.0650   46.0370 H   0  0  0  0  0  0  0  0  0  0  0  0
   59.9539   29.6965   45.8427 H   0  0  0  0  0  0  0  0  0  0  0  0
   61.6470   31.5309   45.9526 H   0  0  0  0  0  0  0  0  0  0  0  0
   60.4538   32.2576   50.0390 H   0  0  0  0  0  0  0  0  0  0  0  0
   58.7566   30.4082   49.9041 H   0  0  0  0  0  0  0  0  0  0  0  0
  1  2  2  0
  2  3  1  0
  3  4  1  0
  4  5  2  0
  5  6  1  0
  6  7  1  0
  7  8  1  0
  8  9  2  0
  9 10  1  0
 10 11  2  0
 11 12  1  0
 12 13  2  0
 13 14  1  0
 14 15  2  0
 15 16  1  0
  5 17  1  0
 17 18  1  0
 18 19  2  0
 19 20  1  0
 20 21  2  0
 21 22  1  0
 22 23  2  0
 23 24  1  0
 23 25  1  0
 25 26  2  0
 18  2  1  0
 26 20  1  0
 16  8  1  0
 15 10  1  0
  3 27  1  0
  7 28  1  0
  7 29  1  0
 11 30  1  0
 12 31  1  0
 13 32  1  0
 14 33  1  0
 16 34  1  0
 17 35  1  0
 21 36  1  0
 22 37  1  0
 25 38  1  0
 26 39  1  0
M  END
>  <smiles>  (68) 
O=c1[nH]nc(SCc2nc3ccccc3[nH]2)[nH]c1=Nc1ccc(Cl)cc1

>  <score_type>  (68) 
oracle

>  <origin>  (68) 
adg

>  <m_score__min__energy>  (68) 
-8.9600000000000009

>  <m_primary>  (68) 
energy

$$$$
68:0
     RDKit          3D

 46 47  0  0  0  0  0  0  0  0999 V2000
   56.3660   30.0970   42.8530 C   0  0  0  0  0  0  0  0  0  0  0  0
   56.8250   30.8050   44.0900 C   0  0  0  0  0  0  0  0  0  0  0  0
   56.6820   30.2430   45.2070 O   0  0  0  0  0  0  0  0  0  0  0  0
   57.4280   32.1020   44.0360 N   0  0  0  0  0  0  0  0  0  0  0  0
   57.8230   33.0530   45.4300 S   0  0  0  0  0  0  0  0  0  0  0  0
   56.8340   34.1790   45.5500 O   0  0  0  0  0  0  0  0  0  0  0  0
   59.1960   33.6370   45.2610 O   0  0  0  0  0  0  0  0  0  0  0  0
   57.7810   32.0580   46.8590 N   0  0  0  0  0  0  0  0  0  0  0  0
   58.6750   32.5800   47.8990 C   0  0  0  0  0  0  0  0  0  0  0  0
   58.5650   31.7810   49.1710 C   0  0  0  0  0  0  0  0  0  0  0  0
   58.0740   32.3740   50.3430 C   0  0  0  0  0  0  0  0  0  0  0  0
   57.9660   31.6290   51.5210 C   0  0  0  0  0  0  0  0  0  0  0  0
   58.3300   30.2720   51.5400 C   0  0  0  0  0  0  0  0  0  0  0  0
   58.2200   29.4570   52.7160 N   0  0  0  0  0  0  0  0  0  0  0  0
   56.9170   29.4450   53.8670 S   0  0  0  0  0  0  0  0  0  0  0  0
   57.3850   28.7180   55.0960 O   0  0  0  0  0  0  0  0  0  0  0  0
   56.5520   30.8480   54.2650 O   0  0  0  0  0  0  0  0  0  0  0  0
   55.4920   28.5830   53.2180 C   0  0  0  0  0  0  0  0  0  0  0  0
   54.4190   29.5440   52.7940 C   0  0  0  0  0  0  0  0  0  0  0  0
   53.1670   29.5320   53.4260 C   0  0  0  0  0  0  0  0  0  0  0  0
   52.1560   30.4010   53.0050 C   0  0  0  0  0  0  0  0  0  0  0  0
   52.3690   31.2800   51.9290 C   0  0  0  0  0  0  0  0  0  0  0  0
   51.2850   32.1730   51.4590 C   0  0  0  0  0  0  0  0  0  0  0  0
   51.0180   32.3180   50.0650 N   0  0  0  0  0  0  0  0  0  0  0  0
   50.5890   32.8200   52.2880 O   0  0  0  0  0  0  0  0  0  0  0  0
   53.6280   31.2920   51.3020 C   0  0  0  0  0  0  0  0  0  0  0  0
   54.6450   30.4360   51.7350 C   0  0  0  0  0  0  0  0  0  0  0  0
   58.8170   29.6820   50.3670 C   0  0  0  0  0  0  0  0  0  0  0  0
   58.9460   30.4310   49.1940 C   0  0  0  0  0  0  0  0  0  0  0  0
   55.7875   29.2047   43.1345 H   0  0  0  0  0  0  0  0  0  0  0  0
   55.7330   30.7717   42.2579 H   0  0  0  0  0  0  0  0  0  0  0  0
   57.2403   29.7945   42.2579 H   0  0  0  0  0  0  0  0  0  0  0  0
   58.1370   31.1160   46.5820 H   0  0  0  0  0  0  0  0  0  0  0  0
   59.7122   32.5332   47.5357 H   0  0  0  0  0  0  0  0  0  0  0  0
   58.3836   33.6182   48.1164 H   0  0  0  0  0  0  0  0  0  0  0  0
   57.7720   33.4317   50.3354 H   0  0  0  0  0  0  0  0  0  0  0  0
   57.5938   32.1080   52.4386 H   0  0  0  0  0  0  0  0  0  0  0  0
   55.8008   27.9844   52.3484 H   0  0  0  0  0  0  0  0  0  0  0  0
   55.0862   27.9374   54.0108 H   0  0  0  0  0  0  0  0  0  0  0  0
   52.9797   28.8357   54.2567 H   0  0  0  0  0  0  0  0  0  0  0  0
   51.1844   30.3968   53.5208 H   0  0  0  0  0  0  0  0  0  0  0  0
   50.0380   32.3280   49.7040 H   0  0  0  0  0  0  0  0  0  0  0  0
   53.8139   31.9803   50.4643 H   0  0  0  0  0  0  0  0  0  0  0  0
   55.6282   30.4620   51.2424 H   0  0  0  0  0  0  0  0  0  0  0  0
   59.1006   28.6192   50.3688 H   0  0  0  0  0  0  0  0  0  0  0  0
   59.3480   29.9599   48.2849 H   0  0  0  0  0  0  0  0  0  0  0  0
  1  2  1  0
  2  3  2  0
  2  4  1  0
  4  5  1  0
  5  6  2  0
  5  7  2  0
  5  8  1  0
  8  9  1  0
  9 10  1  0
 10 11  2  0
 11 12  1  0
 12 13  2  0
 13 14  1  0
 14 15  1  0
 15 16  2  0
 15 17  2  0
 15 18  1  0
 18 19  1  0
 19 20  2  0
 20 21  1  0
 21 22  2  0
 22 23  1  0
 23 24  1  0
 23 25  2  0
 22 26  1  0
 26 27  2  0
 13 28  1  0
 28 29  2  0
 29 10  1  0
 27 19  1  0
  1 30  1  0
  1 31  1  0
  1 32  1  0
  8 33  1  0
  9 34  1  0
  9 35  1  0
 11 36  1  0
 12 37  1  0
 18 38  1  0
 18 39  1  0
 20 40  1  0
 21 41  1  0
 24 42  1  0
 26 43  1  0
 27 44  1  0
 28 45  1  0
 29 46  1  0
M  CHG  3   4  -1  14  -1  24  -1
M  END
>  <UniqueID>  (69) 
62

>  <SMILES>  (69) 
CC(=O)[N-]S(=O)(=O)NCc1ccc([N-]S(=O)(=O)Cc2ccc(C([NH-])=O)cc2)cc1

>  <Energy>  (69) 
36.67464548013434

>  <Genealogy>  (69) 
CC(=O)[N-]S(=O)(=O)NCc1ccc([N-]S(=O)(=O)Cc2ccc(C([NH-])=O)cc2)cc1 (protonated)
CC(=O)[N-]S(=O)(=O)NCc1ccc([N-]S(=O)(=O)Cc2ccc(C([NH-])=O)cc2)cc1 (3D coordinates assigned)
CC(=O)[N-]S(=O)(=O)NCc1ccc([N-]S(=O)(=O)Cc2ccc(C([NH-])=O)cc2)cc1 (optimized conformer: 36.67464548013434 kcal/mol)

>  <smiles>  (69) 
CC(=O)NS(=O)(=O)NCc1ccc(NS(=O)(=O)Cc2ccc(C(N)=O)cc2)cc1

>  <score_type>  (69) 
oracle

>  <origin>  (69) 
adg

>  <m_score__min__energy>  (69) 
-15.02

>  <m_primary>  (69) 
energy

$$$$
69:0
     RDKit          3D

 52 54  0  0  0  0  0  0  0  0999 V2000
   55.5500   29.7440   45.9880 H   0  0  0  0  0  0  0  0  0  0  0  0
   55.4920   29.0600   45.2440 O   0  0  0  0  0  0  0  0  0  0  0  0
   56.5450   28.8870   44.3710 N   0  0  0  0  0  0  0  0  0  0  0  0
   56.3810   28.2930   43.5300 H   0  0  0  0  0  0  0  0  0  0  0  0
   57.6800   29.5100   44.5370 C   0  0  0  0  0  0  0  0  0  0  0  0
   57.7540   30.9870   44.4810 C   0  0  0  0  0  0  0  0  0  0  0  0
   57.8090   31.6970   45.6420 N   0  0  0  0  0  0  0  0  0  0  0  0
   57.8450   33.0570   45.6650 C   0  0  0  0  0  0  0  0  0  0  0  0
   57.9380   33.7100   46.9020 O   0  0  0  0  0  0  0  0  0  0  0  0
   59.0030   33.5820   47.8060 C   0  0  0  0  0  0  0  0  0  0  0  0
   59.9690   34.5930   47.8590 C   0  0  0  0  0  0  0  0  0  0  0  0
   59.8740   35.4737   47.2068 H   0  0  0  0  0  0  0  0  0  0  0  0
   61.0530   34.4920   48.7340 C   0  0  0  0  0  0  0  0  0  0  0  0
   61.7930   35.3043   48.7845 H   0  0  0  0  0  0  0  0  0  0  0  0
   61.2030   33.3580   49.5500 C   0  0  0  0  0  0  0  0  0  0  0  0
   62.3410   33.2420   50.4840 C   0  0  0  0  0  0  0  0  0  0  0  0
   62.1120   33.2780   51.7250 O   0  0  0  0  0  0  0  0  0  0  0  0
   63.6970   33.0690   50.0160 N   0  0  0  0  0  0  0  0  0  0  0  0
   64.8070   33.3850   50.9190 C   0  0  0  0  0  0  0  0  0  0  0  0
   64.4701   33.2891   51.9617 H   0  0  0  0  0  0  0  0  0  0  0  0
   65.6380   32.6877   50.7366 H   0  0  0  0  0  0  0  0  0  0  0  0
   65.1462   34.4154   50.7366 H   0  0  0  0  0  0  0  0  0  0  0  0
   63.9640   32.4370   48.7180 C   0  0  0  0  0  0  0  0  0  0  0  0
   64.3875   31.4346   48.8785 H   0  0  0  0  0  0  0  0  0  0  0  0
   63.0249   32.3519   48.1515 H   0  0  0  0  0  0  0  0  0  0  0  0
   64.6796   33.0510   48.1515 H   0  0  0  0  0  0  0  0  0  0  0  0
   60.2320   32.3450   49.5000 C   0  0  0  0  0  0  0  0  0  0  0  0
   60.3268   31.4643   50.1522 H   0  0  0  0  0  0  0  0  0  0  0  0
   59.1450   32.4490   48.6260 C   0  0  0  0  0  0  0  0  0  0  0  0
   58.3990   31.6419   48.5801 H   0  0  0  0  0  0  0  0  0  0  0  0
   57.8380   33.7680   44.4520 C   0  0  0  0  0  0  0  0  0  0  0  0
   57.8888   34.8668   44.4520 H   0  0  0  0  0  0  0  0  0  0  0  0
   57.7660   33.0660   43.2480 C   0  0  0  0  0  0  0  0  0  0  0  0
   57.7471   33.6118   42.2931 H   0  0  0  0  0  0  0  0  0  0  0  0
   57.7180   31.6720   43.2560 C   0  0  0  0  0  0  0  0  0  0  0  0
   57.6525   31.1140   42.3103 H   0  0  0  0  0  0  0  0  0  0  0  0
   58.9050   28.7710   44.6980 N   0  0  0  0  0  0  0  0  0  0  0  0
   59.8050   29.2430   44.4520 H   0  0  0  0  0  0  0  0  0  0  0  0
   59.0010   27.4840   45.3870 C   0  0  0  0  0  0  0  0  0  0  0  0
   58.0080   27.0118   45.4174 H   0  0  0  0  0  0  0  0  0  0  0  0
   59.7053   26.8354   44.8454 H   0  0  0  0  0  0  0  0  0  0  0  0
   59.4980   27.6900   46.7910 C   0  0  0  0  0  0  0  0  0  0  0  0
   60.2800   26.7030   47.4140 C   0  0  0  0  0  0  0  0  0  0  0  0
   60.5442   25.7868   46.8656 H   0  0  0  0  0  0  0  0  0  0  0  0
   60.7240   26.8800   48.7280 C   0  0  0  0  0  0  0  0  0  0  0  0
   61.3419   26.1066   49.2077 H   0  0  0  0  0  0  0  0  0  0  0  0
   60.3840   28.0380   49.4330 C   0  0  0  0  0  0  0  0  0  0  0  0
   60.7362   28.1769   50.4658 H   0  0  0  0  0  0  0  0  0  0  0  0
   59.5950   29.0210   48.8240 C   0  0  0  0  0  0  0  0  0  0  0  0
   59.3247   29.9310   49.3798 H   0  0  0  0  0  0  0  0  0  0  0  0
   59.1500   28.8470   47.5090 C   0  0  0  0  0  0  0  0  0  0  0  0
   58.5254   29.6187   47.0353 H   0  0  0  0  0  0  0  0  0  0  0  0
  1  2  1  0
  2  3  1  0
  3  4  1  0
  3  5  2  0
  5  6  1  0
  6  7  2  0
  7  8  1  0
  8  9  1  0
  9 10  1  0
 10 11  2  0
 11 12  1  0
 11 13  1  0
 13 14  1  0
 13 15  2  0
 15 16  1  0
 16 17  2  0
 16 18  1  0
 18 19  1  0
 19 20  1  0
 19 21  1  0
 19 22  1  0
 18 23  1  0
 23 24  1  0
 23 25  1  0
 23 26  1  0
 15 27  1  0
 27 28  1  0
 27 29  2  0
 29 30  1  0
  8 31  2  0
 31 32  1  0
 31 33  1  0
 33 34  1  0
 33 35  2  0
 35 36  1  0
  5 37  1  0
 37 38  1  0
 37 39  1  0
 39 40  1  0
 39 41  1  0
 39 42  1  0
 42 43  2  0
 43 44  1  0
 43 45  1  0
 45 46  1  0
 45 47  2  0
 47 48  1  0
 47 49  1  0
 49 50  1  0
 49 51  2  0
 51 52  1  0
 35  6  1  0
 51 42  1  0
 29 10  1  0
M  CHG  1   3   1
M  END
>  <UniqueID>  (70) 
63

>  <SMILES>  (70) 
CN(C)C(=O)c1ccc(Oc2cccc(/C(NCc3ccccc3)=[NH+]\O)n2)cc1

>  <Energy>  (70) 
70.00267653636958

>  <Genealogy>  (70) 
CN(C)C(=O)c1ccc(Oc2cccc(C(NCc3ccccc3)=[NH+]O)n2)cc1 (protonated)
CN(C)C(=O)c1ccc(Oc2cccc(/C(NCc3ccccc3)=[NH+]\O)n2)cc1 (cis-trans isomerization)
CN(C)C(=O)c1ccc(Oc2cccc(/C(NCc3ccccc3)=[NH+]\O)n2)cc1 (3D coordinates assigned)
CN(C)C(=O)c1ccc(Oc2cccc(/C(NCc3ccccc3)=[NH+]\O)n2)cc1 (optimized conformer: 70.00267653636958 kcal/mol)

>  <smiles>  (70) 
CN(C)C(=O)c1ccc(Oc2cccc(C(=NO)NCc3ccccc3)n2)cc1

>  <score_type>  (70) 
oracle

>  <origin>  (70) 
adg

>  <m_score__min__energy>  (70) 
-8.1300000000000008

>  <m_primary>  (70) 
energy

$$$$
70:0
     RDKit          3D

 32 34  0  0  0  0  0  0  0  0999 V2000
   58.4679   33.3216   41.7603 H   0  0  0  0  0  0  0  0  0  0  0  0
   57.9700   32.5850   42.4080 C   0  0  0  0  0  0  0  0  0  0  0  0
   57.2800   31.5530   41.8560 N   0  0  0  0  0  0  0  0  0  0  0  0
   56.6650   30.6130   42.6230 C   0  0  0  0  0  0  0  0  0  0  0  0
   56.1086   29.7931   42.1453 H   0  0  0  0  0  0  0  0  0  0  0  0
   56.7390   30.6870   44.0260 C   0  0  0  0  0  0  0  0  0  0  0  0
   56.1300   29.7380   44.8610 O   0  0  0  0  0  0  0  0  0  0  0  0
   56.6830   28.4920   45.1840 C   0  0  0  0  0  0  0  0  0  0  0  0
   55.8960   27.4710   45.6210 N   0  0  0  0  0  0  0  0  0  0  0  0
   56.3860   26.2320   45.8960 C   0  0  0  0  0  0  0  0  0  0  0  0
   55.6080   25.2850   46.3330 N   0  0  0  0  0  0  0  0  0  0  0  0
   54.7640   24.4490   45.5240 C   0  0  0  0  0  0  0  0  0  0  0  0
   53.5180   24.6280   45.5690 O   0  0  0  0  0  0  0  0  0  0  0  0
   55.3050   23.3570   44.6880 C   0  0  0  0  0  0  0  0  0  0  0  0
   55.5570   23.3890   43.0370 S   0  0  0  0  0  0  0  0  0  0  0  0
   56.2080   21.8730   42.8690 N   0  0  0  0  0  0  0  0  0  0  0  0
   56.2520   21.3170   44.0760 N   0  0  0  0  0  0  0  0  0  0  0  0
   55.7700   22.0990   45.0900 C   0  0  0  0  0  0  0  0  0  0  0  0
   55.7470   21.6120   46.5040 C   0  0  0  0  0  0  0  0  0  0  0  0
   55.7876   22.4720   47.1887 H   0  0  0  0  0  0  0  0  0  0  0  0
   54.8211   21.0453   46.6816 H   0  0  0  0  0  0  0  0  0  0  0  0
   56.6154   20.9606   46.6816 H   0  0  0  0  0  0  0  0  0  0  0  0
   57.7560   25.9880   45.7410 C   0  0  0  0  0  0  0  0  0  0  0  0
   58.1723   24.9951   45.9666 H   0  0  0  0  0  0  0  0  0  0  0  0
   58.5890   27.0180   45.2970 C   0  0  0  0  0  0  0  0  0  0  0  0
   59.6668   26.8380   45.1710 H   0  0  0  0  0  0  0  0  0  0  0  0
   58.0530   28.2770   45.0130 C   0  0  0  0  0  0  0  0  0  0  0  0
   58.7030   29.0905   44.6584 H   0  0  0  0  0  0  0  0  0  0  0  0
   57.4200   31.7620   44.6040 C   0  0  0  0  0  0  0  0  0  0  0  0
   57.4614   31.8600   45.6988 H   0  0  0  0  0  0  0  0  0  0  0  0
   58.0480   32.7120   43.7960 C   0  0  0  0  0  0  0  0  0  0  0  0
   58.5978   33.5507   44.2479 H   0  0  0  0  0  0  0  0  0  0  0  0
  1  2  1  0
  2  3  2  0
  3  4  1  0
  4  5  1  0
  4  6  2  0
  6  7  1  0
  7  8  1  0
  8  9  1  0
  9 10  1  0
 10 11  2  0
 11 12  1  0
 12 13  2  0
 12 14  1  0
 14 15  1  0
 15 16  1  0
 16 17  2  0
 17 18  1  0
 18 19  1  0
 19 20  1  0
 19 21  1  0
 19 22  1  0
 10 23  1  0
 23 24  1  0
 23 25  2  0
 25 26  1  0
 25 27  1  0
 27 28  1  0
  6 29  1  0
 29 30  1  0
 29 31  2  0
 31 32  1  0
 31  2  1  0
 27  8  2  0
 18 14  2  0
M  CHG  1   9  -1
M  END
>  <UniqueID>  (71) 
64

>  <SMILES>  (71) 
Cc1nnsc1C(=O)/N=c1/cccc(Oc2cccnc2)[n-]1

>  <Energy>  (71) 
81.4290644911001

>  <Genealogy>  (71) 
Cc1nnsc1C(=O)N=c1cccc(Oc2cccnc2)[n-]1 (protonated)
Cc1nnsc1C(=O)/N=c1/cccc(Oc2cccnc2)[n-]1 (cis-trans isomerization)
Cc1nnsc1C(=O)/N=c1/cccc(Oc2cccnc2)[n-]1 (3D coordinates assigned)
Cc1nnsc1C(=O)/N=c1/cccc(Oc2cccnc2)[n-]1 (optimized conformer: 81.4290644911001 kcal/mol)

>  <smiles>  (71) 
Cc1nnsc1C(=O)N=c1cccc(Oc2cccnc2)[nH]1

>  <score_type>  (71) 
oracle

>  <origin>  (71) 
adg

>  <m_score__min__energy>  (71) 
-10.359999999999999

>  <m_primary>  (71) 
energy

$$$$
71:0
     RDKit          3D

 39 41  0  0  0  0  0  0  0  0999 V2000
   60.6670   29.8780   46.1260 C   0  0  0  0  0  0  0  0  0  0  0  0
   59.6270   30.7270   46.1050 C   0  0  0  0  0  0  0  0  0  0  0  0
   58.4460   30.6200   45.3480 C   0  0  0  0  0  0  0  0  0  0  0  0
   57.9640   29.6070   44.6000 C   0  0  0  0  0  0  0  0  0  0  0  0
   57.4120   28.3430   45.1240 C   0  0  0  0  0  0  0  0  0  0  0  0
   56.0270   28.1830   45.2680 C   0  0  0  0  0  0  0  0  0  0  0  0
   55.1530   29.1900   44.8730 O   0  0  0  0  0  0  0  0  0  0  0  0
   55.5270   27.0330   45.7900 N   0  0  0  0  0  0  0  0  0  0  0  0
   56.3490   26.0310   46.1950 C   0  0  0  0  0  0  0  0  0  0  0  0
   55.8630   24.9730   46.6700 O   0  0  0  0  0  0  0  0  0  0  0  0
   57.6950   26.1720   46.0920 N   0  0  0  0  0  0  0  0  0  0  0  0
   58.2450   27.3020   45.5770 C   0  0  0  0  0  0  0  0  0  0  0  0
   59.4990   27.4090   45.5170 O   0  0  0  0  0  0  0  0  0  0  0  0
   57.7690   31.8200   45.5090 C   0  0  0  0  0  0  0  0  0  0  0  0
   58.5170   32.5760   46.3800 C   0  0  0  0  0  0  0  0  0  0  0  0
   58.1610   33.8480   46.8230 O   0  0  0  0  0  0  0  0  0  0  0  0
   59.6340   31.9190   46.7550 N   0  0  0  0  0  0  0  0  0  0  0  0
   60.6520   32.4320   47.6290 C   0  0  0  0  0  0  0  0  0  0  0  0
   61.7990   33.0140   47.0770 C   0  0  0  0  0  0  0  0  0  0  0  0
   62.8140   33.5020   47.9030 C   0  0  0  0  0  0  0  0  0  0  0  0
   62.7000   33.4130   49.3000 C   0  0  0  0  0  0  0  0  0  0  0  0
   63.7800   33.9210   50.1780 C   0  0  0  0  0  0  0  0  0  0  0  0
   63.5020   34.9000   51.1780 N   0  0  0  0  0  0  0  0  0  0  0  0
   64.9600   33.4930   50.0510 O   0  0  0  0  0  0  0  0  0  0  0  0
   61.5430   32.8350   49.8550 C   0  0  0  0  0  0  0  0  0  0  0  0
   60.5100   32.3580   49.0310 C   0  0  0  0  0  0  0  0  0  0  0  0
   59.2870   31.7400   49.6540 C   0  0  0  0  0  0  0  0  0  0  0  0
   61.5339   30.0861   46.7703 H   0  0  0  0  0  0  0  0  0  0  0  0
   60.6521   28.9744   45.4989 H   0  0  0  0  0  0  0  0  0  0  0  0
   57.9840   29.7335   43.5075 H   0  0  0  0  0  0  0  0  0  0  0  0
   56.8204   32.1096   45.0333 H   0  0  0  0  0  0  0  0  0  0  0  0
   57.2090   34.0710   47.0830 H   0  0  0  0  0  0  0  0  0  0  0  0
   61.9018   33.0876   45.9843 H   0  0  0  0  0  0  0  0  0  0  0  0
   63.7091   33.9593   47.4562 H   0  0  0  0  0  0  0  0  0  0  0  0
   63.4220   35.9110   50.9310 H   0  0  0  0  0  0  0  0  0  0  0  0
   61.4463   32.7557   50.9479 H   0  0  0  0  0  0  0  0  0  0  0  0
   59.3722   31.7830   50.7499 H   0  0  0  0  0  0  0  0  0  0  0  0
   58.3925   32.2943   49.3337 H   0  0  0  0  0  0  0  0  0  0  0  0
   59.2026   30.6911   49.3337 H   0  0  0  0  0  0  0  0  0  0  0  0
  1  2  2  0
  2  3  1  0
  3  4  2  3
  4  5  1  0
  5  6  2  0
  6  7  1  0
  6  8  1  0
  8  9  1  0
  9 10  2  0
  9 11  1  0
 11 12  1  0
 12 13  2  0
  3 14  1  0
 14 15  2  0
 15 16  1  0
 15 17  1  0
 17 18  1  0
 18 19  2  0
 19 20  1  0
 20 21  2  0
 21 22  1  0
 22 23  1  0
 22 24  2  0
 21 25  1  0
 25 26  2  0
 26 27  1  0
 17  2  1  0
 26 18  1  0
 12  5  1  0
  1 28  1  0
  1 29  1  0
  4 30  1  0
 14 31  1  0
 16 32  1  0
 19 33  1  0
 20 34  1  0
 23 35  1  0
 25 36  1  0
 27 37  1  0
 27 38  1  0
 27 39  1  0
M  CHG  4   7  -1   8  -1  11  -1  23  -1
M  END
>  <UniqueID>  (72) 
65

>  <SMILES>  (72) 
C=c1c(=Cc2c([O-])[n-]c(=O)[n-]c2=O)cc(O)n1-c1ccc(C([NH-])=O)cc1C

>  <Energy>  (72) 
92.19894589616327

>  <Genealogy>  (72) 
C=c1c(=Cc2c([O-])[n-]c(=O)[n-]c2=O)cc(O)n1-c1ccc(C([NH-])=O)cc1C (protonated)
C=c1c(=Cc2c([O-])[n-]c(=O)[n-]c2=O)cc(O)n1-c1ccc(C([NH-])=O)cc1C (3D coordinates assigned)
C=c1c(=Cc2c([O-])[n-]c(=O)[n-]c2=O)cc(O)n1-c1ccc(C([NH-])=O)cc1C (optimized conformer: 92.19894589616327 kcal/mol)

>  <smiles>  (72) 
C=c1c(=Cc2c(O)[nH]c(=O)[nH]c2=O)cc(O)n1-c1ccc(C(N)=O)cc1C

>  <score_type>  (72) 
oracle

>  <origin>  (72) 
adg

>  <m_score__min__energy>  (72) 
-15.390000000000001

>  <m_primary>  (72) 
energy

$$$$
72:0
     RDKit          3D

 54 57  0  0  0  0  0  0  0  0999 V2000
   54.6443   30.5418   54.4888 H   0  0  0  0  0  0  0  0  0  0  0  0
   54.9140   30.2760   53.4560 C   0  0  0  0  0  0  0  0  0  0  0  0
   56.2490   30.6370   52.9590 C   0  0  0  0  0  0  0  0  0  0  0  0
   57.1190   31.1190   53.7400 O   0  0  0  0  0  0  0  0  0  0  0  0
   56.5620   30.3960   51.6200 O   0  0  0  0  0  0  0  0  0  0  0  0
   57.4270   31.2360   50.8620 C   0  0  0  0  0  0  0  0  0  0  0  0
   57.9845   31.8939   51.5449 H   0  0  0  0  0  0  0  0  0  0  0  0
   56.8234   31.8393   50.1679 H   0  0  0  0  0  0  0  0  0  0  0  0
   58.3970   30.4050   50.0720 C   0  0  0  0  0  0  0  0  0  0  0  0
   58.9680   29.4300   50.6370 O   0  0  0  0  0  0  0  0  0  0  0  0
   58.6580   30.6640   48.6400 C   0  0  0  0  0  0  0  0  0  0  0  0
   58.4940   29.7280   47.6220 C   0  0  0  0  0  0  0  0  0  0  0  0
   58.2877   28.6591   47.7800 H   0  0  0  0  0  0  0  0  0  0  0  0
   58.6240   30.3180   46.4110 N   0  0  0  0  0  0  0  0  0  0  0  0
   58.3300   29.6910   45.1240 C   0  0  0  0  0  0  0  0  0  0  0  0
   58.7901   28.6923   45.0934 H   0  0  0  0  0  0  0  0  0  0  0  0
   58.7384   30.3189   44.3185 H   0  0  0  0  0  0  0  0  0  0  0  0
   56.8490   29.5590   44.9360 C   0  0  0  0  0  0  0  0  0  0  0  0
   56.1920   30.5310   44.4860 O   0  0  0  0  0  0  0  0  0  0  0  0
   56.2120   28.3160   45.2520 N   0  0  0  0  0  0  0  0  0  0  0  0
   56.8180   27.0540   45.5570 C   0  0  0  0  0  0  0  0  0  0  0  0
   56.2820   26.3050   46.6160 C   0  0  0  0  0  0  0  0  0  0  0  0
   55.4055   26.6826   47.1630 H   0  0  0  0  0  0  0  0  0  0  0  0
   56.8540   25.0820   46.9810 C   0  0  0  0  0  0  0  0  0  0  0  0
   56.4390   24.5119   47.8253 H   0  0  0  0  0  0  0  0  0  0  0  0
   57.9500   24.5840   46.2760 C   0  0  0  0  0  0  0  0  0  0  0  0
   58.4102   23.6303   46.5738 H   0  0  0  0  0  0  0  0  0  0  0  0
   58.4610   25.2990   45.1920 C   0  0  0  0  0  0  0  0  0  0  0  0
   59.3057   24.8912   44.6174 H   0  0  0  0  0  0  0  0  0  0  0  0
   57.9060   26.5300   44.8320 C   0  0  0  0  0  0  0  0  0  0  0  0
   58.3196   27.0908   43.9808 H   0  0  0  0  0  0  0  0  0  0  0  0
   58.8660   31.6260   46.6480 C   0  0  0  0  0  0  0  0  0  0  0  0
   59.0160   32.6540   45.7130 C   0  0  0  0  0  0  0  0  0  0  0  0
   58.9643   32.4499   44.6333 H   0  0  0  0  0  0  0  0  0  0  0  0
   59.2350   33.9570   46.1940 C   0  0  0  0  0  0  0  0  0  0  0  0
   59.3590   34.7873   45.4832 H   0  0  0  0  0  0  0  0  0  0  0  0
   59.2970   34.2080   47.5810 C   0  0  0  0  0  0  0  0  0  0  0  0
   59.4788   35.2304   47.9438 H   0  0  0  0  0  0  0  0  0  0  0  0
   59.1280   33.1600   48.5020 C   0  0  0  0  0  0  0  0  0  0  0  0
   59.1730   33.3460   49.5852 H   0  0  0  0  0  0  0  0  0  0  0  0
   58.9010   31.8740   48.0020 C   0  0  0  0  0  0  0  0  0  0  0  0
   54.0150   29.6370   52.7010 C   0  0  0  0  0  0  0  0  0  0  0  0
   53.9658   28.5398   52.7624 H   0  0  0  0  0  0  0  0  0  0  0  0
   53.0810   30.3340   51.7850 C   0  0  0  0  0  0  0  0  0  0  0  0
   52.7120   29.7890   50.5370 C   0  0  0  0  0  0  0  0  0  0  0  0
   53.1483   28.8358   50.2038 H   0  0  0  0  0  0  0  0  0  0  0  0
   51.7930   30.4580   49.7230 C   0  0  0  0  0  0  0  0  0  0  0  0
   51.5213   30.0353   48.7445 H   0  0  0  0  0  0  0  0  0  0  0  0
   51.2180   31.6580   50.1430 C   0  0  0  0  0  0  0  0  0  0  0  0
   50.2800   32.2980   49.3410 O   0  0  0  0  0  0  0  0  0  0  0  0
   51.5790   32.2070   51.3750 C   0  0  0  0  0  0  0  0  0  0  0  0
   51.0210   33.4110   51.7880 O   0  0  0  0  0  0  0  0  0  0  0  0
   52.5020   31.5470   52.1990 C   0  0  0  0  0  0  0  0  0  0  0  0
   52.7742   31.9797   53.1730 H   0  0  0  0  0  0  0  0  0  0  0  0
  1  2  1  0
  2  3  1  0
  3  4  2  0
  3  5  1  0
  5  6  1  0
  6  7  1  0
  6  8  1  0
  6  9  1  0
  9 10  2  0
  9 11  1  0
 11 12  2  0
 12 13  1  0
 12 14  1  0
 14 15  1  0
 15 16  1  0
 15 17  1  0
 15 18  1  0
 18 19  2  0
 18 20  1  0
 20 21  1  0
 21 22  2  0
 22 23  1  0
 22 24  1  0
 24 25  1  0
 24 26  2  0
 26 27  1  0
 26 28  1  0
 28 29  1  0
 28 30  2  0
 30 31  1  0
 14 32  1  0
 32 33  2  0
 33 34  1  0
 33 35  1  0
 35 36  1  0
 35 37  2  0
 37 38  1  0
 37 39  1  0
 39 40  1  0
 39 41  2  0
  2 42  2  0
 42 43  1  0
 42 44  1  0
 44 45  2  0
 45 46  1  0
 45 47  1  0
 47 48  1  0
 47 49  2  0
 49 50  1  0
 49 51  1  0
 51 52  1  0
 51 53  2  0
 53 54  1  0
 41 11  1  0
 53 44  1  0
 30 21  1  0
 41 32  1  0
M  CHG  3  20  -1  50  -1  52  -1
M  END
>  <UniqueID>  (73) 
66

>  <SMILES>  (73) 
O=C(Cn1cc(C(=O)COC(=O)/C=C/c2ccc([O-])c([O-])c2)c2ccccc21)[N-]c1ccccc1

>  <Energy>  (73) 
94.56549244433894

>  <Genealogy>  (73) 
O=C(Cn1cc(C(=O)COC(=O)C=Cc2ccc([O-])c([O-])c2)c2ccccc21)[N-]c1ccccc1 (protonated)
O=C(Cn1cc(C(=O)COC(=O)/C=C/c2ccc([O-])c([O-])c2)c2ccccc21)[N-]c1ccccc1 (cis-trans isomerization)
O=C(Cn1cc(C(=O)COC(=O)/C=C/c2ccc([O-])c([O-])c2)c2ccccc21)[N-]c1ccccc1 (3D coordinates assigned)
O=C(Cn1cc(C(=O)COC(=O)/C=C/c2ccc([O-])c([O-])c2)c2ccccc21)[N-]c1ccccc1 (optimized conformer: 94.56549244433894 kcal/mol)

>  <smiles>  (73) 
O=C(Cn1cc(C(=O)COC(=O)C=Cc2ccc(O)c(O)c2)c2ccccc21)Nc1ccccc1

>  <score_type>  (73) 
oracle

>  <origin>  (73) 
adg

>  <m_score__min__energy>  (73) 
-20.120000000000001

>  <m_primary>  (73) 
energy

$$$$
73:0
     RDKit          3D

 56 59  0  0  0  0  0  0  0  0999 V2000
   57.5800   22.8190   48.9210 H   0  0  0  0  0  0  0  0  0  0  0  0
   57.1090   22.1060   48.3210 N   0  0  0  0  0  0  0  0  0  0  0  0
   56.4790   22.9420   46.9460 S   0  0  0  0  0  0  0  0  0  0  0  0
   56.5180   22.0390   45.7430 O   0  0  0  0  0  0  0  0  0  0  0  0
   55.0530   23.3280   47.2300 O   0  0  0  0  0  0  0  0  0  0  0  0
   57.4470   24.3770   46.6350 C   0  0  0  0  0  0  0  0  0  0  0  0
   57.0150   25.6340   47.0750 C   0  0  0  0  0  0  0  0  0  0  0  0
   56.0551   25.7309   47.6034 H   0  0  0  0  0  0  0  0  0  0  0  0
   57.8010   26.7650   46.8440 C   0  0  0  0  0  0  0  0  0  0  0  0
   57.4442   27.7531   47.1700 H   0  0  0  0  0  0  0  0  0  0  0  0
   59.0450   26.6510   46.1980 C   0  0  0  0  0  0  0  0  0  0  0  0
   59.9060   27.8790   46.0120 C   0  0  0  0  0  0  0  0  0  0  0  0
   60.1071   28.0067   44.9381 H   0  0  0  0  0  0  0  0  0  0  0  0
   60.8306   27.7229   46.5871 H   0  0  0  0  0  0  0  0  0  0  0  0
   59.2760   29.1020   46.5180 N   0  0  0  0  0  0  0  0  0  0  0  0
   58.4540   29.9920   46.0160 C   0  0  0  0  0  0  0  0  0  0  0  0
   57.4170   29.4710   45.2260 C   0  0  0  0  0  0  0  0  0  0  0  0
   57.2621   28.3828   45.1842 H   0  0  0  0  0  0  0  0  0  0  0  0
   56.5810   30.3120   44.4940 C   0  0  0  0  0  0  0  0  0  0  0  0
   55.5200   29.7440   43.6070 C   0  0  0  0  0  0  0  0  0  0  0  0
   54.7173   29.3143   44.2243 H   0  0  0  0  0  0  0  0  0  0  0  0
   55.1071   30.5417   42.9720 H   0  0  0  0  0  0  0  0  0  0  0  0
   55.9549   28.9581   42.9720 H   0  0  0  0  0  0  0  0  0  0  0  0
   56.7800   31.6550   44.5250 N   0  0  0  0  0  0  0  0  0  0  0  0
   57.7370   32.2250   45.3000 C   0  0  0  0  0  0  0  0  0  0  0  0
   57.8700   33.6170   45.2900 C   0  0  0  0  0  0  0  0  0  0  0  0
   57.2027   34.2255   44.6620 H   0  0  0  0  0  0  0  0  0  0  0  0
   58.8430   34.2380   46.0710 C   0  0  0  0  0  0  0  0  0  0  0  0
   58.9588   35.3313   46.0365 H   0  0  0  0  0  0  0  0  0  0  0  0
   59.6730   33.4740   46.8990 C   0  0  0  0  0  0  0  0  0  0  0  0
   60.7420   34.0650   47.6630 N   0  0  0  0  0  0  0  0  0  0  0  0
   60.5180   34.3180   48.6490 H   0  0  0  0  0  0  0  0  0  0  0  0
   62.1340   33.9240   47.3210 C   0  0  0  0  0  0  0  0  0  0  0  0
   62.4730   33.5460   46.1720 O   0  0  0  0  0  0  0  0  0  0  0  0
   63.1630   34.0940   48.3070 N   0  0  0  0  0  0  0  0  0  0  0  0
   63.6580   33.0900   49.2020 C   0  0  0  0  0  0  0  0  0  0  0  0
   64.9990   33.0750   49.6200 C   0  0  0  0  0  0  0  0  0  0  0  0
   65.6965   33.8432   49.2548 H   0  0  0  0  0  0  0  0  0  0  0  0
   65.4480   32.0870   50.4980 C   0  0  0  0  0  0  0  0  0  0  0  0
   66.4925   32.0921   50.8429 H   0  0  0  0  0  0  0  0  0  0  0  0
   64.5710   31.0900   50.9400 C   0  0  0  0  0  0  0  0  0  0  0  0
   64.9245   30.3272   51.6494 H   0  0  0  0  0  0  0  0  0  0  0  0
   63.2410   31.0560   50.4840 C   0  0  0  0  0  0  0  0  0  0  0  0
   62.2830   30.0030   50.9910 C   0  0  0  0  0  0  0  0  0  0  0  0
   61.4650   29.5500   49.9650 F   0  0  0  0  0  0  0  0  0  0  0  0
   63.0010   28.9360   51.5010 F   0  0  0  0  0  0  0  0  0  0  0  0
   61.4810   30.5180   51.9930 F   0  0  0  0  0  0  0  0  0  0  0  0
   62.7920   32.0700   49.6190 C   0  0  0  0  0  0  0  0  0  0  0  0
   61.7502   32.0624   49.2660 H   0  0  0  0  0  0  0  0  0  0  0  0
   59.4580   32.0900   46.9930 C   0  0  0  0  0  0  0  0  0  0  0  0
   59.9898   31.5157   47.7659 H   0  0  0  0  0  0  0  0  0  0  0  0
   58.5770   31.4180   46.1210 C   0  0  0  0  0  0  0  0  0  0  0  0
   59.4470   25.3970   45.7100 C   0  0  0  0  0  0  0  0  0  0  0  0
   60.3882   25.3043   45.1482 H   0  0  0  0  0  0  0  0  0  0  0  0
   58.6560   24.2650   45.9350 C   0  0  0  0  0  0  0  0  0  0  0  0
   58.9841   23.2839   45.5612 H   0  0  0  0  0  0  0  0  0  0  0  0
  1  2  1  0
  2  3  1  0
  3  4  2  0
  3  5  2  0
  3  6  1  0
  6  7  2  0
  7  8  1  0
  7  9  1  0
  9 10  1  0
  9 11  2  0
 11 12  1  0
 12 13  1  0
 12 14  1  0
 12 15  1  0
 15 16  2  0
 16 17  1  0
 17 18  1  0
 17 19  2  0
 19 20  1  0
 20 21  1  0
 20 22  1  0
 20 23  1  0
 19 24  1  0
 24 25  1  0
 25 26  2  0
 26 27  1  0
 26 28  1  0
 28 29  1  0
 28 30  2  0
 30 31  1  0
 31 32  1  0
 31 33  1  0
 33 34  2  0
 33 35  1  0
 35 36  1  0
 36 37  2  0
 37 38  1  0
 37 39  1  0
 39 40  1  0
 39 41  2  0
 41 42  1  0
 41 43  1  0
 43 44  1  0
 44 45  1  0
 44 46  1  0
 44 47  1  0
 43 48  2  0
 48 49  1  0
 30 50  1  0
 50 51  1  0
 50 52  2  0
 11 53  1  0
 53 54  1  0
 53 55  2  0
 55 56  1  0
 55  6  1  0
 52 16  1  0
 52 25  1  0
 48 36  1  0
M  CHG  3   2  -1  24  -1  35  -1
M  END
>  <UniqueID>  (74) 
67

>  <SMILES>  (74) 
Cc1c/c(=N/Cc2ccc(S([NH-])(=O)=O)cc2)c2cc(NC(=O)[N-]c3cccc(C(F)(F)F)c3)ccc2[n-]1

>  <Energy>  (74) 
86.3663058114464

>  <Genealogy>  (74) 
Cc1cc(=NCc2ccc(S([NH-])(=O)=O)cc2)c2cc(NC(=O)[N-]c3cccc(C(F)(F)F)c3)ccc2[n-]1 (protonated)
Cc1c/c(=N/Cc2ccc(S([NH-])(=O)=O)cc2)c2cc(NC(=O)[N-]c3cccc(C(F)(F)F)c3)ccc2[n-]1 (cis-trans isomerization)
Cc1c/c(=N/Cc2ccc(S([NH-])(=O)=O)cc2)c2cc(NC(=O)[N-]c3cccc(C(F)(F)F)c3)ccc2[n-]1 (3D coordinates assigned)
Cc1c/c(=N/Cc2ccc(S([NH-])(=O)=O)cc2)c2cc(NC(=O)[N-]c3cccc(C(F)(F)F)c3)ccc2[n-]1 (optimized conformer: 86.3663058114464 kcal/mol)

>  <smiles>  (74) 
Cc1cc(=NCc2ccc(S(N)(=O)=O)cc2)c2cc(NC(=O)Nc3cccc(C(F)(F)F)c3)ccc2[nH]1

>  <score_type>  (74) 
oracle

>  <origin>  (74) 
adg

>  <m_score__min__energy>  (74) 
-14.18

>  <m_primary>  (74) 
energy

$$$$
74:0
     RDKit          3D

 42 44  0  0  0  0  0  0  0  0999 V2000
   61.4160   30.5330   47.1860 O   0  0  0  0  0  0  0  0  0  0  0  0
   60.4510   30.5480   46.3730 C   0  0  0  0  0  0  0  0  0  0  0  0
   60.2230   29.3330   45.5070 C   0  0  0  0  0  0  0  0  0  0  0  0
   60.3940   27.7730   46.4490 S   0  0  0  0  0  0  0  0  0  0  0  0
   58.6520   27.3350   46.3430 C   0  0  0  0  0  0  0  0  0  0  0  0
   57.7940   28.0640   45.5150 C   0  0  0  0  0  0  0  0  0  0  0  0
   56.4850   27.7090   45.4080 N   0  0  0  0  0  0  0  0  0  0  0  0
   55.9920   26.6530   46.1100 C   0  0  0  0  0  0  0  0  0  0  0  0
   54.7810   26.3270   45.9960 O   0  0  0  0  0  0  0  0  0  0  0  0
   56.8040   25.9490   46.9400 N   0  0  0  0  0  0  0  0  0  0  0  0
   58.1170   26.2690   47.0740 C   0  0  0  0  0  0  0  0  0  0  0  0
   58.8410   25.6070   47.8630 O   0  0  0  0  0  0  0  0  0  0  0  0
   59.5620   31.6930   46.3490 N   0  0  0  0  0  0  0  0  0  0  0  0
   60.0580   33.0700   46.1810 C   0  0  0  0  0  0  0  0  0  0  0  0
   61.0090   33.4500   47.2910 C   0  0  0  0  0  0  0  0  0  0  0  0
   60.5060   33.8270   48.5480 C   0  0  0  0  0  0  0  0  0  0  0  0
   61.3790   34.1970   49.5760 C   0  0  0  0  0  0  0  0  0  0  0  0
   62.7590   34.2020   49.3570 C   0  0  0  0  0  0  0  0  0  0  0  0
   63.6030   34.5580   50.3570 F   0  0  0  0  0  0  0  0  0  0  0  0
   63.2670   33.8460   48.1060 C   0  0  0  0  0  0  0  0  0  0  0  0
   62.3980   33.4790   47.0750 C   0  0  0  0  0  0  0  0  0  0  0  0
   58.1070   31.4800   46.4210 C   0  0  0  0  0  0  0  0  0  0  0  0
   57.5520   31.1890   45.0620 C   0  0  0  0  0  0  0  0  0  0  0  0
   58.0440   31.6770   43.8660 C   0  0  0  0  0  0  0  0  0  0  0  0
   57.2080   31.1770   42.8920 C   0  0  0  0  0  0  0  0  0  0  0  0
   56.2630   30.4160   43.5500 C   0  0  0  0  0  0  0  0  0  0  0  0
   56.4940   30.4440   44.8430 O   0  0  0  0  0  0  0  0  0  0  0  0
   59.2081   29.3833   45.0857 H   0  0  0  0  0  0  0  0  0  0  0  0
   60.9853   29.3348   44.7140 H   0  0  0  0  0  0  0  0  0  0  0  0
   58.1775   28.9258   44.9491 H   0  0  0  0  0  0  0  0  0  0  0  0
   55.8590   28.2520   44.7710 H   0  0  0  0  0  0  0  0  0  0  0  0
   60.5830   33.1467   45.2174 H   0  0  0  0  0  0  0  0  0  0  0  0
   59.1978   33.7550   46.2111 H   0  0  0  0  0  0  0  0  0  0  0  0
   59.4202   33.8311   48.7241 H   0  0  0  0  0  0  0  0  0  0  0  0
   60.9784   34.4847   50.5592 H   0  0  0  0  0  0  0  0  0  0  0  0
   64.3531   33.8545   47.9318 H   0  0  0  0  0  0  0  0  0  0  0  0
   62.8033   33.2111   46.0881 H   0  0  0  0  0  0  0  0  0  0  0  0
   57.8981   30.6298   47.0870 H   0  0  0  0  0  0  0  0  0  0  0  0
   57.6327   32.3927   46.8110 H   0  0  0  0  0  0  0  0  0  0  0  0
   58.9191   32.3278   43.7222 H   0  0  0  0  0  0  0  0  0  0  0  0
   57.2792   31.3495   41.8079 H   0  0  0  0  0  0  0  0  0  0  0  0
   55.4410   29.8689   43.0652 H   0  0  0  0  0  0  0  0  0  0  0  0
  1  2  2  0
  2  3  1  0
  3  4  1  0
  4  5  1  0
  5  6  2  0
  6  7  1  0
  7  8  1  0
  8  9  2  0
  8 10  1  0
 10 11  1  0
 11 12  2  0
  2 13  1  0
 13 14  1  0
 14 15  1  0
 15 16  2  0
 16 17  1  0
 17 18  2  0
 18 19  1  0
 18 20  1  0
 20 21  2  0
 13 22  1  0
 22 23  1  0
 23 24  2  0
 24 25  1  0
 25 26  2  0
 26 27  1  0
 11  5  1  0
 21 15  1  0
 27 23  1  0
  3 28  1  0
  3 29  1  0
  6 30  1  0
  7 31  1  0
 14 32  1  0
 14 33  1  0
 16 34  1  0
 17 35  1  0
 20 36  1  0
 21 37  1  0
 22 38  1  0
 22 39  1  0
 24 40  1  0
 25 41  1  0
 26 42  1  0
M  CHG  1  10  -1
M  END
>  <UniqueID>  (75) 
68

>  <SMILES>  (75) 
O=C(CSc1c[nH]c(=O)[n-]c1=O)N(Cc1ccc(F)cc1)Cc1ccco1

>  <Energy>  (75) 
62.017912840112544

>  <Genealogy>  (75) 
O=C(CSc1c[nH]c(=O)[n-]c1=O)N(Cc1ccc(F)cc1)Cc1ccco1 (protonated)
O=C(CSc1c[nH]c(=O)[n-]c1=O)N(Cc1ccc(F)cc1)Cc1ccco1 (3D coordinates assigned)
O=C(CSc1c[nH]c(=O)[n-]c1=O)N(Cc1ccc(F)cc1)Cc1ccco1 (optimized conformer: 62.017912840112544 kcal/mol)

>  <smiles>  (75) 
O=C(CSc1c[nH]c(=O)[nH]c1=O)N(Cc1ccc(F)cc1)Cc1ccco1

>  <score_type>  (75) 
oracle

>  <origin>  (75) 
adg

>  <m_score__min__energy>  (75) 
-10.09

>  <m_primary>  (75) 
energy

$$$$
75:0
     RDKit          3D

 22 23  0  0  0  0  0  0  0  0999 V2000
   57.6340   26.4190   43.3630 O   0  0  0  0  0  0  0  0  0  0  0  0
   57.5340   26.8000   44.5600 C   0  0  0  0  0  0  0  0  0  0  0  0
   57.8940   28.1910   44.9060 C   0  0  0  0  0  0  0  0  0  0  0  0
   59.2440   28.5130   45.1280 C   0  0  0  0  0  0  0  0  0  0  0  0
   59.6230   29.8280   45.4080 C   0  0  0  0  0  0  0  0  0  0  0  0
   58.6610   30.8370   45.4620 C   0  0  0  0  0  0  0  0  0  0  0  0
   57.3150   30.5310   45.2420 C   0  0  0  0  0  0  0  0  0  0  0  0
   56.9190   29.2160   44.9710 C   0  0  0  0  0  0  0  0  0  0  0  0
   55.5580   28.9590   44.7980 O   0  0  0  0  0  0  0  0  0  0  0  0
   57.0800   25.8430   45.5910 C   0  0  0  0  0  0  0  0  0  0  0  0
   57.8060   24.8040   46.1390 C   0  0  0  0  0  0  0  0  0  0  0  0
   56.9720   24.2220   47.0700 C   0  0  0  0  0  0  0  0  0  0  0  0
   57.3130   23.1310   47.8580 O   0  0  0  0  0  0  0  0  0  0  0  0
   55.7740   24.8350   47.1390 N   0  0  0  0  0  0  0  0  0  0  0  0
   55.8540   25.8280   46.2320 C   0  0  0  0  0  0  0  0  0  0  0  0
   54.8120   26.7140   45.9880 O   0  0  0  0  0  0  0  0  0  0  0  0
   60.0082   27.7232   45.0809 H   0  0  0  0  0  0  0  0  0  0  0  0
   60.6815   30.0683   45.5862 H   0  0  0  0  0  0  0  0  0  0  0  0
   58.9616   31.8729   45.6776 H   0  0  0  0  0  0  0  0  0  0  0  0
   56.5604   31.3304   45.2822 H   0  0  0  0  0  0  0  0  0  0  0  0
   55.1440   28.0490   44.9500 H   0  0  0  0  0  0  0  0  0  0  0  0
   58.8336   24.5038   45.8860 H   0  0  0  0  0  0  0  0  0  0  0  0
  1  2  2  0
  2  3  1  0
  3  4  2  0
  4  5  1  0
  5  6  2  0
  6  7  1  0
  7  8  2  0
  8  9  1  0
  2 10  1  0
 10 11  1  0
 11 12  2  0
 12 13  1  0
 12 14  1  0
 14 15  1  0
 15 16  1  0
  8  3  1  0
 15 10  2  0
  4 17  1  0
  5 18  1  0
  6 19  1  0
  7 20  1  0
  9 21  1  0
 11 22  1  0
M  CHG  3  13  -1  14  -1  16  -1
M  END
>  <UniqueID>  (76) 
69

>  <SMILES>  (76) 
O=C(c1ccccc1O)c1cc([O-])[n-]c1[O-]

>  <Energy>  (76) 
56.13870191689114

>  <Genealogy>  (76) 
O=C(c1ccccc1O)c1cc([O-])[n-]c1[O-] (protonated)
O=C(c1ccccc1O)c1cc([O-])[n-]c1[O-] (3D coordinates assigned)
O=C(c1ccccc1O)c1cc([O-])[n-]c1[O-] (optimized conformer: 56.13870191689114 kcal/mol)

>  <smiles>  (76) 
O=C(c1ccccc1O)c1cc(O)[nH]c1O

>  <score_type>  (76) 
oracle

>  <origin>  (76) 
adg

>  <m_score__min__energy>  (76) 
-14.57

>  <m_primary>  (76) 
energy

$$$$
76:0
     RDKit          3D

 52 56  0  0  0  0  0  0  0  0999 V2000
   57.4573   25.6800   48.3218 H   0  0  0  0  0  0  0  0  0  0  0  0
   57.0530   25.3180   47.3650 C   0  0  0  0  0  0  0  0  0  0  0  0
   56.2476   24.5689   47.3564 H   0  0  0  0  0  0  0  0  0  0  0  0
   57.5420   25.7900   46.2090 C   0  0  0  0  0  0  0  0  0  0  0  0
   57.1440   25.4390   44.9070 C   0  0  0  0  0  0  0  0  0  0  0  0
   56.3400   24.4530   44.4630 C   0  0  0  0  0  0  0  0  0  0  0  0
   56.7173   23.8303   43.6384 H   0  0  0  0  0  0  0  0  0  0  0  0
   55.0020   24.1370   44.9850 C   0  0  0  0  0  0  0  0  0  0  0  0
   54.3570   22.9720   44.7830 N   0  0  0  0  0  0  0  0  0  0  0  0
   53.1420   23.1920   45.3310 C   0  0  0  0  0  0  0  0  0  0  0  0
   52.2400   22.3150   45.3550 O   0  0  0  0  0  0  0  0  0  0  0  0
   52.9650   24.4300   45.8420 N   0  0  0  0  0  0  0  0  0  0  0  0
   54.1470   25.0190   45.6000 C   0  0  0  0  0  0  0  0  0  0  0  0
   54.4390   26.3350   45.9330 O   0  0  0  0  0  0  0  0  0  0  0  0
   57.7770   26.3280   44.0540 C   0  0  0  0  0  0  0  0  0  0  0  0
   57.6671   26.3786   42.9607 H   0  0  0  0  0  0  0  0  0  0  0  0
   58.5720   27.1380   44.8390 C   0  0  0  0  0  0  0  0  0  0  0  0
   59.4500   28.2380   44.3250 C   0  0  0  0  0  0  0  0  0  0  0  0
   59.8868   28.7852   45.1734 H   0  0  0  0  0  0  0  0  0  0  0  0
   60.2558   27.8079   43.7121 H   0  0  0  0  0  0  0  0  0  0  0  0
   58.8519   28.9284   43.7121 H   0  0  0  0  0  0  0  0  0  0  0  0
   58.4410   26.8040   46.1410 N   0  0  0  0  0  0  0  0  0  0  0  0
   59.0610   27.4950   47.2370 C   0  0  0  0  0  0  0  0  0  0  0  0
   58.5140   28.6940   47.7110 C   0  0  0  0  0  0  0  0  0  0  0  0
   57.6271   29.1226   47.2214 H   0  0  0  0  0  0  0  0  0  0  0  0
   59.0900   29.3480   48.8030 C   0  0  0  0  0  0  0  0  0  0  0  0
   58.6549   30.2899   49.1683 H   0  0  0  0  0  0  0  0  0  0  0  0
   60.2220   28.8090   49.4370 C   0  0  0  0  0  0  0  0  0  0  0  0
   60.8050   29.4700   50.6240 C   0  0  0  0  0  0  0  0  0  0  0  0
   60.5640   29.0110   51.7730 O   0  0  0  0  0  0  0  0  0  0  0  0
   61.6290   30.6410   50.4940 N   0  0  0  0  0  0  0  0  0  0  0  0
   61.2400   31.7170   49.5670 C   0  0  0  0  0  0  0  0  0  0  0  0
   60.5491   32.4040   50.0775 H   0  0  0  0  0  0  0  0  0  0  0  0
   60.7485   31.2732   48.6887 H   0  0  0  0  0  0  0  0  0  0  0  0
   62.4510   32.4770   49.1170 C   0  0  0  0  0  0  0  0  0  0  0  0
   62.4960   33.4650   48.1550 C   0  0  0  0  0  0  0  0  0  0  0  0
   61.6509   33.8617   47.5733 H   0  0  0  0  0  0  0  0  0  0  0  0
   63.8240   33.8560   48.0710 C   0  0  0  0  0  0  0  0  0  0  0  0
   64.2388   34.6255   47.4033 H   0  0  0  0  0  0  0  0  0  0  0  0
   64.5280   33.0940   48.9870 C   0  0  0  0  0  0  0  0  0  0  0  0
   65.6119   33.1539   49.1645 H   0  0  0  0  0  0  0  0  0  0  0  0
   63.6790   32.2680   49.6270 N   0  0  0  0  0  0  0  0  0  0  0  0
   64.0230   31.2230   50.5870 C   0  0  0  0  0  0  0  0  0  0  0  0
   64.7959   31.5990   51.2735 H   0  0  0  0  0  0  0  0  0  0  0  0
   64.4019   30.3443   50.0444 H   0  0  0  0  0  0  0  0  0  0  0  0
   62.7800   30.8210   51.3920 C   0  0  0  0  0  0  0  0  0  0  0  0
   62.5502   31.6097   52.1235 H   0  0  0  0  0  0  0  0  0  0  0  0
   62.9808   29.8729   51.9123 H   0  0  0  0  0  0  0  0  0  0  0  0
   60.7600   27.5990   48.9660 C   0  0  0  0  0  0  0  0  0  0  0  0
   61.6370   27.1600   49.4641 H   0  0  0  0  0  0  0  0  0  0  0  0
   60.1870   26.9500   47.8680 C   0  0  0  0  0  0  0  0  0  0  0  0
   60.6213   26.0093   47.4987 H   0  0  0  0  0  0  0  0  0  0  0  0
  1  2  1  0
  2  3  1  0
  2  4  2  0
  4  5  1  0
  5  6  2  0
  6  7  1  0
  6  8  1  0
  8  9  1  0
  9 10  1  0
 10 11  2  0
 10 12  1  0
 12 13  1  0
 13 14  1  0
  5 15  1  0
 15 16  1  0
 15 17  2  0
 17 18  1  0
 18 19  1  0
 18 20  1  0
 18 21  1  0
 17 22  1  0
 22 23  1  0
 23 24  2  0
 24 25  1  0
 24 26  1  0
 26 27  1  0
 26 28  2  0
 28 29  1  0
 29 30  2  0
 29 31  1  0
 31 32  1  0
 32 33  1  0
 32 34  1  0
 32 35  1  0
 35 36  2  0
 36 37  1  0
 36 38  1  0
 38 39  1  0
 38 40  2  0
 40 41  1  0
 40 42  1  0
 42 43  1  0
 43 44  1  0
 43 45  1  0
 43 46  1  0
 46 47  1  0
 46 48  1  0
 28 49  1  0
 49 50  1  0
 49 51  2  0
 51 52  1  0
 22  4  1  0
 51 23  1  0
 13  8  2  0
 46 31  1  0
 42 35  1  0
M  CHG  3   9  -1  12  -1  14  -1
M  END
>  <UniqueID>  (77) 
70

>  <SMILES>  (77) 
C=c1/c(=C\c2[n-]c(=O)[n-]c2[O-])cc(C)n1-c1ccc(C(=O)N2CCn3cccc3C2)cc1

>  <Energy>  (77) 
165.43772144750244

>  <Genealogy>  (77) 
C=c1c(=Cc2[n-]c(=O)[n-]c2[O-])cc(C)n1-c1ccc(C(=O)N2CCn3cccc3C2)cc1 (protonated)
C=c1/c(=C\c2[n-]c(=O)[n-]c2[O-])cc(C)n1-c1ccc(C(=O)N2CCn3cccc3C2)cc1 (cis-trans isomerization)
C=c1/c(=C\c2[n-]c(=O)[n-]c2[O-])cc(C)n1-c1ccc(C(=O)N2CCn3cccc3C2)cc1 (3D coordinates assigned)
C=c1/c(=C\c2[n-]c(=O)[n-]c2[O-])cc(C)n1-c1ccc(C(=O)N2CCn3cccc3C2)cc1 (nonaromatic ring conformer: 165.43772144750244 kcal/mol)

>  <smiles>  (77) 
C=c1c(=Cc2[nH]c(=O)[nH]c2O)cc(C)n1-c1ccc(C(=O)N2CCn3cccc3C2)cc1

>  <score_type>  (77) 
oracle

>  <origin>  (77) 
adg

>  <m_score__min__energy>  (77) 
-16.050000000000001

>  <m_primary>  (77) 
energy

$$$$
77:0
     RDKit          3D

 57 60  0  0  0  0  0  0  0  0999 V2000
   57.7750   24.9600   44.5410 C   0  0  0  0  0  0  0  0  0  0  0  0
   57.5370   26.3940   44.7310 N   0  0  0  0  0  0  0  0  0  0  0  0
   56.9120   26.8590   45.9740 C   0  0  0  0  0  0  0  0  0  0  0  0
   57.7840   27.2960   43.6300 C   0  0  0  0  0  0  0  0  0  0  0  0
   57.9940   26.8270   42.4790 O   0  0  0  0  0  0  0  0  0  0  0  0
   57.7990   28.7680   43.8060 C   0  0  0  0  0  0  0  0  0  0  0  0
   56.6910   29.5240   43.3870 C   0  0  0  0  0  0  0  0  0  0  0  0
   56.6410   30.9010   43.6180 C   0  0  0  0  0  0  0  0  0  0  0  0
   57.6850   31.5370   44.2950 C   0  0  0  0  0  0  0  0  0  0  0  0
   57.6080   33.4170   44.6200 Br  0  0  0  0  0  0  0  0  0  0  0  0
   58.7810   30.7940   44.7400 C   0  0  0  0  0  0  0  0  0  0  0  0
   58.8580   29.4170   44.4910 C   0  0  0  0  0  0  0  0  0  0  0  0
   60.0040   28.6940   44.9660 N   0  0  0  0  0  0  0  0  0  0  0  0
   60.2110   28.3550   46.3470 C   0  0  0  0  0  0  0  0  0  0  0  0
   60.6590   27.0780   46.7230 C   0  0  0  0  0  0  0  0  0  0  0  0
   60.8380   26.7640   48.0700 C   0  0  0  0  0  0  0  0  0  0  0  0
   60.5890   27.7230   49.0540 C   0  0  0  0  0  0  0  0  0  0  0  0
   60.1690   29.0160   48.6980 C   0  0  0  0  0  0  0  0  0  0  0  0
   59.8850   30.0310   49.7400 C   0  0  0  0  0  0  0  0  0  0  0  0
   59.5830   29.6640   50.9070 O   0  0  0  0  0  0  0  0  0  0  0  0
   59.9790   31.4340   49.4540 N   0  0  0  0  0  0  0  0  0  0  0  0
   59.0030   32.3300   50.1050 C   0  0  0  0  0  0  0  0  0  0  0  0
   59.5750   33.7230   50.4170 C   0  0  0  0  0  0  0  0  0  0  0  0
   59.5850   34.6560   49.1910 C   0  0  0  0  0  0  0  0  0  0  0  0
   59.7930   33.9270   47.8550 C   0  0  0  0  0  0  0  0  0  0  0  0
   61.0280   33.0730   47.8750 C   0  0  0  0  0  0  0  0  0  0  0  0
   62.1010   33.4530   47.1270 N   0  0  0  0  0  0  0  0  0  0  0  0
   63.2580   32.7400   47.1110 C   0  0  0  0  0  0  0  0  0  0  0  0
   63.3760   31.5830   47.8760 C   0  0  0  0  0  0  0  0  0  0  0  0
   62.2970   31.1640   48.6520 C   0  0  0  0  0  0  0  0  0  0  0  0
   61.0980   31.8990   48.6620 C   0  0  0  0  0  0  0  0  0  0  0  0
   59.9840   29.3220   47.3370 C   0  0  0  0  0  0  0  0  0  0  0  0
   57.8565   24.4687   45.5218 H   0  0  0  0  0  0  0  0  0  0  0  0
   56.9375   24.5206   43.9793 H   0  0  0  0  0  0  0  0  0  0  0  0
   58.7096   24.8147   43.9793 H   0  0  0  0  0  0  0  0  0  0  0  0
   57.4608   26.4507   46.8354 H   0  0  0  0  0  0  0  0  0  0  0  0
   56.9394   27.9581   46.0093 H   0  0  0  0  0  0  0  0  0  0  0  0
   55.8671   26.5169   46.0093 H   0  0  0  0  0  0  0  0  0  0  0  0
   55.8554   29.0271   42.8724 H   0  0  0  0  0  0  0  0  0  0  0  0
   55.7782   31.4856   43.2663 H   0  0  0  0  0  0  0  0  0  0  0  0
   59.5910   31.2943   45.2909 H   0  0  0  0  0  0  0  0  0  0  0  0
   60.7060   28.3720   44.2590 H   0  0  0  0  0  0  0  0  0  0  0  0
   60.8696   26.3224   45.9518 H   0  0  0  0  0  0  0  0  0  0  0  0
   61.1764   25.7578   48.3582 H   0  0  0  0  0  0  0  0  0  0  0  0
   60.7225   27.4646   50.1149 H   0  0  0  0  0  0  0  0  0  0  0  0
   58.1374   32.4490   49.4367 H   0  0  0  0  0  0  0  0  0  0  0  0
   58.7239   31.8686   51.0637 H   0  0  0  0  0  0  0  0  0  0  0  0
   58.9623   34.1855   51.2049 H   0  0  0  0  0  0  0  0  0  0  0  0
   60.6187   33.5870   50.7365 H   0  0  0  0  0  0  0  0  0  0  0  0
   58.6213   35.1848   49.1505 H   0  0  0  0  0  0  0  0  0  0  0  0
   60.4373   35.3398   49.3174 H   0  0  0  0  0  0  0  0  0  0  0  0
   58.9202   33.2871   47.6584 H   0  0  0  0  0  0  0  0  0  0  0  0
   59.9123   34.6842   47.0660 H   0  0  0  0  0  0  0  0  0  0  0  0
   64.1026   33.0778   46.4925 H   0  0  0  0  0  0  0  0  0  0  0  0
   64.3119   31.0051   47.8680 H   0  0  0  0  0  0  0  0  0  0  0  0
   62.3837   30.2520   49.2610 H   0  0  0  0  0  0  0  0  0  0  0  0
   59.6575   30.3314   47.0463 H   0  0  0  0  0  0  0  0  0  0  0  0
  1  2  1  0
  2  3  1  0
  2  4  1  0
  4  5  2  0
  4  6  1  0
  6  7  2  0
  7  8  1  0
  8  9  2  0
  9 10  1  0
  9 11  1  0
 11 12  2  0
 12 13  1  0
 13 14  1  0
 14 15  2  0
 15 16  1  0
 16 17  2  0
 17 18  1  0
 18 19  1  0
 19 20  2  0
 19 21  1  0
 21 22  1  0
 22 23  1  0
 23 24  1  0
 24 25  1  0
 25 26  1  0
 26 27  2  0
 27 28  1  0
 28 29  2  0
 29 30  1  0
 30 31  2  0
 18 32  2  0
 12  6  1  0
 32 14  1  0
 31 21  1  0
 31 26  1  0
  1 33  1  0
  1 34  1  0
  1 35  1  0
  3 36  1  0
  3 37  1  0
  3 38  1  0
  7 39  1  0
  8 40  1  0
 11 41  1  0
 13 42  1  0
 15 43  1  0
 16 44  1  0
 17 45  1  0
 22 46  1  0
 22 47  1  0
 23 48  1  0
 23 49  1  0
 24 50  1  0
 24 51  1  0
 25 52  1  0
 25 53  1  0
 28 54  1  0
 29 55  1  0
 30 56  1  0
 32 57  1  0
M  END
>  <UniqueID>  (78) 
71

>  <SMILES>  (78) 
CN(C)C(=O)c1ccc(Br)cc1Nc1cccc(C(=O)N2CCCCc3ncccc32)c1

>  <Energy>  (78) 
85.03048003720706

>  <Genealogy>  (78) 
CN(C)C(=O)c1ccc(Br)cc1Nc1cccc(C(=O)N2CCCCc3ncccc32)c1 (3D coordinates assigned)
CN(C)C(=O)c1ccc(Br)cc1Nc1cccc(C(=O)N2CCCCc3ncccc32)c1 (nonaromatic ring conformer: 85.03048003720706 kcal/mol)

>  <smiles>  (78) 
CN(C)C(=O)c1ccc(Br)cc1Nc1cccc(C(=O)N2CCCCc3ncccc32)c1

>  <score_type>  (78) 
oracle

>  <origin>  (78) 
adg

>  <m_score__min__energy>  (78) 
-7.3099999999999996

>  <m_primary>  (78) 
energy

$$$$
78:0
     RDKit          3D

 60 63  0  0  0  0  0  0  0  0999 V2000
   60.6080   33.5350   51.8790 C   0  0  0  0  0  0  0  0  0  0  0  0
   61.6030   33.3370   50.8160 N   0  0  0  0  0  0  0  0  0  0  0  0
   62.9660   33.5920   51.3280 C   0  0  0  0  0  0  0  0  0  0  0  0
   63.9870   33.8140   50.1890 C   0  0  0  0  0  0  0  0  0  0  0  0
   63.5240   33.2540   48.9040 N   0  0  0  0  0  0  0  0  0  0  0  0
   63.5050   31.7750   48.9090 C   0  0  0  0  0  0  0  0  0  0  0  0
   62.1600   31.2760   48.4510 C   0  0  0  0  0  0  0  0  0  0  0  0
   61.2020   30.8420   49.3810 C   0  0  0  0  0  0  0  0  0  0  0  0
   59.9470   30.4040   48.9480 C   0  0  0  0  0  0  0  0  0  0  0  0
   59.6320   30.3970   47.5790 C   0  0  0  0  0  0  0  0  0  0  0  0
   58.2790   29.9150   47.1170 C   0  0  0  0  0  0  0  0  0  0  0  0
   58.3470   28.6080   46.3440 C   0  0  0  0  0  0  0  0  0  0  0  0
   59.2200   27.5890   46.7810 C   0  0  0  0  0  0  0  0  0  0  0  0
   59.3090   26.3770   46.0950 C   0  0  0  0  0  0  0  0  0  0  0  0
   58.5460   26.1680   44.9490 C   0  0  0  0  0  0  0  0  0  0  0  0
   57.7100   27.1770   44.4710 C   0  0  0  0  0  0  0  0  0  0  0  0
   57.6190   28.4100   45.1370 C   0  0  0  0  0  0  0  0  0  0  0  0
   56.5920   29.6700   44.4270 S   0  0  0  0  0  0  0  0  0  0  0  0
   56.9040   29.7920   42.9630 O   0  0  0  0  0  0  0  0  0  0  0  0
   55.1400   29.3250   44.5990 O   0  0  0  0  0  0  0  0  0  0  0  0
   56.8800   31.2020   45.1850 N   0  0  0  0  0  0  0  0  0  0  0  0
   57.6580   32.2320   44.5670 C   0  0  0  0  0  0  0  0  0  0  0  0
   57.7830   32.2540   43.3130 O   0  0  0  0  0  0  0  0  0  0  0  0
   58.3090   33.2710   45.3970 C   0  0  0  0  0  0  0  0  0  0  0  0
   59.0520   34.3060   44.8010 C   0  0  0  0  0  0  0  0  0  0  0  0
   59.6530   35.2770   45.6040 C   0  0  0  0  0  0  0  0  0  0  0  0
   59.5230   35.2210   46.9560 N   0  0  0  0  0  0  0  0  0  0  0  0
   58.8110   34.2350   47.5630 C   0  0  0  0  0  0  0  0  0  0  0  0
   58.1910   33.2450   46.7970 C   0  0  0  0  0  0  0  0  0  0  0  0
   60.5920   30.8280   46.6500 C   0  0  0  0  0  0  0  0  0  0  0  0
   61.8470   31.2650   47.0840 C   0  0  0  0  0  0  0  0  0  0  0  0
   62.2300   33.8430   48.4810 C   0  0  0  0  0  0  0  0  0  0  0  0
   61.3080   34.2030   49.6640 C   0  0  0  0  0  0  0  0  0  0  0  0
   61.0955   33.4380   52.8603 H   0  0  0  0  0  0  0  0  0  0  0  0
   60.1671   34.5385   51.7862 H   0  0  0  0  0  0  0  0  0  0  0  0
   59.8165   32.7767   51.7862 H   0  0  0  0  0  0  0  0  0  0  0  0
   62.9434   34.4899   51.9631 H   0  0  0  0  0  0  0  0  0  0  0  0
   63.2835   32.7060   51.8973 H   0  0  0  0  0  0  0  0  0  0  0  0
   64.1497   34.8949   50.0656 H   0  0  0  0  0  0  0  0  0  0  0  0
   64.9174   33.2965   50.4657 H   0  0  0  0  0  0  0  0  0  0  0  0
   64.2840   31.3983   48.2298 H   0  0  0  0  0  0  0  0  0  0  0  0
   63.6952   31.4147   49.9308 H   0  0  0  0  0  0  0  0  0  0  0  0
   61.4399   30.8466   50.4550 H   0  0  0  0  0  0  0  0  0  0  0  0
   59.2027   30.0632   49.6827 H   0  0  0  0  0  0  0  0  0  0  0  0
   57.6392   29.7676   47.9995 H   0  0  0  0  0  0  0  0  0  0  0  0
   57.8717   30.6785   46.4379 H   0  0  0  0  0  0  0  0  0  0  0  0
   59.8393   27.7524   47.6753 H   0  0  0  0  0  0  0  0  0  0  0  0
   59.9818   25.5868   46.4595 H   0  0  0  0  0  0  0  0  0  0  0  0
   58.6027   25.2054   44.4197 H   0  0  0  0  0  0  0  0  0  0  0  0
   57.1151   27.0050   43.5619 H   0  0  0  0  0  0  0  0  0  0  0  0
   59.1590   34.3501   43.7071 H   0  0  0  0  0  0  0  0  0  0  0  0
   60.2331   36.0893   45.1417 H   0  0  0  0  0  0  0  0  0  0  0  0
   58.7229   34.2166   48.6593 H   0  0  0  0  0  0  0  0  0  0  0  0
   57.6127   32.4483   47.2877 H   0  0  0  0  0  0  0  0  0  0  0  0
   60.3557   30.8219   45.5757 H   0  0  0  0  0  0  0  0  0  0  0  0
   62.5930   31.6021   46.3493 H   0  0  0  0  0  0  0  0  0  0  0  0
   62.4343   34.7584   47.9063 H   0  0  0  0  0  0  0  0  0  0  0  0
   61.7076   33.0843   47.8798 H   0  0  0  0  0  0  0  0  0  0  0  0
   61.4721   35.2533   49.9468 H   0  0  0  0  0  0  0  0  0  0  0  0
   60.2605   34.0563   49.3619 H   0  0  0  0  0  0  0  0  0  0  0  0
  1  2  1  0
  2  3  1  0
  3  4  1  0
  4  5  1  0
  5  6  1  0
  6  7  1  0
  7  8  2  0
  8  9  1  0
  9 10  2  0
 10 11  1  0
 11 12  1  0
 12 13  2  0
 13 14  1  0
 14 15  2  0
 15 16  1  0
 16 17  2  0
 17 18  1  0
 18 19  2  0
 18 20  2  0
 18 21  1  0
 21 22  1  0
 22 23  2  0
 22 24  1  0
 24 25  2  0
 25 26  1  0
 26 27  2  0
 27 28  1  0
 28 29  2  0
 10 30  1  0
 30 31  2  0
  5 32  1  0
 32 33  1  0
 33  2  1  0
 31  7  1  0
 17 12  1  0
 29 24  1  0
  1 34  1  0
  1 35  1  0
  1 36  1  0
  3 37  1  0
  3 38  1  0
  4 39  1  0
  4 40  1  0
  6 41  1  0
  6 42  1  0
  8 43  1  0
  9 44  1  0
 11 45  1  0
 11 46  1  0
 13 47  1  0
 14 48  1  0
 15 49  1  0
 16 50  1  0
 25 51  1  0
 26 52  1  0
 28 53  1  0
 29 54  1  0
 30 55  1  0
 31 56  1  0
 32 57  1  0
 32 58  1  0
 33 59  1  0
 33 60  1  0
M  CHG  1  21  -1
M  END
>  <UniqueID>  (79) 
72

>  <SMILES>  (79) 
CN1CCN(Cc2ccc(Cc3ccccc3S(=O)(=O)[N-]C(=O)c3ccncc3)cc2)CC1

>  <Energy>  (79) 
81.03151681318982

>  <Genealogy>  (79) 
CN1CCN(Cc2ccc(Cc3ccccc3S(=O)(=O)[N-]C(=O)c3ccncc3)cc2)CC1 (protonated)
CN1CCN(Cc2ccc(Cc3ccccc3S(=O)(=O)[N-]C(=O)c3ccncc3)cc2)CC1 (3D coordinates assigned)
CN1CCN(Cc2ccc(Cc3ccccc3S(=O)(=O)[N-]C(=O)c3ccncc3)cc2)CC1 (nonaromatic ring conformer: 81.03151681318982 kcal/mol)

>  <smiles>  (79) 
CN1CCN(Cc2ccc(Cc3ccccc3S(=O)(=O)NC(=O)c3ccncc3)cc2)CC1

>  <score_type>  (79) 
oracle

>  <origin>  (79) 
adg

>  <m_score__min__energy>  (79) 
-11.15

>  <m_primary>  (79) 
energy

$$$$
79:0
     RDKit          3D

 35 37  0  0  0  0  0  0  0  0999 V2000
   58.8230   28.6970   47.5230 O   0  0  0  0  0  0  0  0  0  0  0  0
   58.7990   29.7350   46.8080 C   0  0  0  0  0  0  0  0  0  0  0  0
   59.8920   30.6640   46.8550 N   0  0  0  0  0  0  0  0  0  0  0  0
   61.1540   30.3410   47.5150 C   0  0  0  0  0  0  0  0  0  0  0  0
   62.0330   31.5550   47.5710 C   0  0  0  0  0  0  0  0  0  0  0  0
   63.1350   31.5980   48.4370 C   0  0  0  0  0  0  0  0  0  0  0  0
   63.9020   32.7640   48.5120 C   0  0  0  0  0  0  0  0  0  0  0  0
   63.5620   33.8700   47.7320 C   0  0  0  0  0  0  0  0  0  0  0  0
   62.4530   33.7950   46.8850 C   0  0  0  0  0  0  0  0  0  0  0  0
   61.7180   32.6520   46.8260 N   0  0  0  0  0  0  0  0  0  0  0  0
   57.6420   29.9940   45.9330 C   0  0  0  0  0  0  0  0  0  0  0  0
   56.7260   29.0470   45.6420 N   0  0  0  0  0  0  0  0  0  0  0  0
   55.8840   29.6280   44.7670 C   0  0  0  0  0  0  0  0  0  0  0  0
   54.7860   28.9780   44.2220 O   0  0  0  0  0  0  0  0  0  0  0  0
   56.2390   30.9280   44.4880 C   0  0  0  0  0  0  0  0  0  0  0  0
   57.3660   31.1750   45.2470 C   0  0  0  0  0  0  0  0  0  0  0  0
   58.0520   32.4820   45.3550 C   0  0  0  0  0  0  0  0  0  0  0  0
   58.6100   33.0810   44.2140 C   0  0  0  0  0  0  0  0  0  0  0  0
   59.2430   34.3240   44.3080 C   0  0  0  0  0  0  0  0  0  0  0  0
   59.3150   34.9830   45.5380 C   0  0  0  0  0  0  0  0  0  0  0  0
   58.7460   34.4040   46.6740 C   0  0  0  0  0  0  0  0  0  0  0  0
   58.1100   33.1620   46.5860 C   0  0  0  0  0  0  0  0  0  0  0  0
   59.8180   31.5690   46.3390 H   0  0  0  0  0  0  0  0  0  0  0  0
   60.9504   29.9920   48.5381 H   0  0  0  0  0  0  0  0  0  0  0  0
   61.6664   29.5521   46.9449 H   0  0  0  0  0  0  0  0  0  0  0  0
   63.3933   30.7228   49.0512 H   0  0  0  0  0  0  0  0  0  0  0  0
   64.7715   32.8097   49.1842 H   0  0  0  0  0  0  0  0  0  0  0  0
   64.1607   34.7914   47.7833 H   0  0  0  0  0  0  0  0  0  0  0  0
   62.1744   34.6605   46.2659 H   0  0  0  0  0  0  0  0  0  0  0  0
   55.7316   31.6242   43.8040 H   0  0  0  0  0  0  0  0  0  0  0  0
   58.5488   32.5699   43.2419 H   0  0  0  0  0  0  0  0  0  0  0  0
   59.6852   34.7840   43.4120 H   0  0  0  0  0  0  0  0  0  0  0  0
   59.8198   35.9576   45.6113 H   0  0  0  0  0  0  0  0  0  0  0  0
   58.7982   34.9263   47.6407 H   0  0  0  0  0  0  0  0  0  0  0  0
   57.6536   32.7150   47.4815 H   0  0  0  0  0  0  0  0  0  0  0  0
  1  2  2  0
  2  3  1  0
  3  4  1  0
  4  5  1  0
  5  6  2  0
  6  7  1  0
  7  8  2  0
  8  9  1  0
  9 10  2  0
  2 11  1  0
 11 12  1  0
 12 13  1  0
 13 14  1  0
 13 15  2  0
 15 16  1  0
 16 17  1  0
 17 18  2  0
 18 19  1  0
 19 20  2  0
 20 21  1  0
 21 22  2  0
 10  5  1  0
 16 11  2  0
 22 17  1  0
  3 23  1  0
  4 24  1  0
  4 25  1  0
  6 26  1  0
  7 27  1  0
  8 28  1  0
  9 29  1  0
 15 30  1  0
 18 31  1  0
 19 32  1  0
 20 33  1  0
 21 34  1  0
 22 35  1  0
M  CHG  2  12  -1  14  -1
M  END
>  <UniqueID>  (80) 
73

>  <SMILES>  (80) 
O=C(NCc1ccccn1)c1[n-]c([O-])cc1-c1ccccc1

>  <Energy>  (80) 
66.57654007741937

>  <Genealogy>  (80) 
O=C(NCc1ccccn1)c1[n-]c([O-])cc1-c1ccccc1 (protonated)
O=C(NCc1ccccn1)c1[n-]c([O-])cc1-c1ccccc1 (3D coordinates assigned)
O=C(NCc1ccccn1)c1[n-]c([O-])cc1-c1ccccc1 (optimized conformer: 66.57654007741937 kcal/mol)

>  <smiles>  (80) 
O=C(NCc1ccccn1)c1[nH]c(O)cc1-c1ccccc1

>  <score_type>  (80) 
oracle

>  <origin>  (80) 
adg

>  <m_score__min__energy>  (80) 
-11.890000000000001

>  <m_primary>  (80) 
energy

$$$$
80:0
     RDKit          3D

 42 44  0  0  0  0  0  0  0  0999 V2000
   58.1230   31.4580   44.2900 C   0  0  0  0  0  0  0  0  0  0  0  0
   58.2810   31.0440   45.5590 C   0  0  0  0  0  0  0  0  0  0  0  0
   58.4560   29.7200   46.0010 C   0  0  0  0  0  0  0  0  0  0  0  0
   58.4060   28.5450   45.3400 C   0  0  0  0  0  0  0  0  0  0  0  0
   57.5510   27.3980   45.6930 C   0  0  0  0  0  0  0  0  0  0  0  0
   56.1530   27.4850   45.6050 C   0  0  0  0  0  0  0  0  0  0  0  0
   55.5420   28.6510   45.1600 O   0  0  0  0  0  0  0  0  0  0  0  0
   55.3840   26.4240   45.9630 N   0  0  0  0  0  0  0  0  0  0  0  0
   55.9460   25.2770   46.4250 C   0  0  0  0  0  0  0  0  0  0  0  0
   55.2150   24.3050   46.7480 O   0  0  0  0  0  0  0  0  0  0  0  0
   57.2950   25.1800   46.5450 N   0  0  0  0  0  0  0  0  0  0  0  0
   58.1070   26.2130   46.1990 C   0  0  0  0  0  0  0  0  0  0  0  0
   59.3540   26.0920   46.3270 O   0  0  0  0  0  0  0  0  0  0  0  0
   58.7050   29.7940   47.3590 C   0  0  0  0  0  0  0  0  0  0  0  0
   58.6300   31.1230   47.7110 C   0  0  0  0  0  0  0  0  0  0  0  0
   58.8620   31.6430   49.0980 C   0  0  0  0  0  0  0  0  0  0  0  0
   58.3800   31.8900   46.6230 N   0  0  0  0  0  0  0  0  0  0  0  0
   58.2450   33.3580   46.6360 C   0  0  0  0  0  0  0  0  0  0  0  0
   59.4850   34.0420   46.0420 C   0  0  0  0  0  0  0  0  0  0  0  0
   60.6830   33.9350   46.9530 C   0  0  0  0  0  0  0  0  0  0  0  0
   61.9160   33.5120   46.4260 C   0  0  0  0  0  0  0  0  0  0  0  0
   63.0460   33.4360   47.2440 C   0  0  0  0  0  0  0  0  0  0  0  0
   62.9570   33.7800   48.5940 C   0  0  0  0  0  0  0  0  0  0  0  0
   61.7390   34.2040   49.1290 C   0  0  0  0  0  0  0  0  0  0  0  0
   60.5990   34.2900   48.3160 C   0  0  0  0  0  0  0  0  0  0  0  0
   59.3930   34.7350   48.8540 O   0  0  0  0  0  0  0  0  0  0  0  0
   57.9943   32.5286   44.0727 H   0  0  0  0  0  0  0  0  0  0  0  0
   58.1224   30.7262   43.4688 H   0  0  0  0  0  0  0  0  0  0  0  0
   59.0596   28.4336   44.4622 H   0  0  0  0  0  0  0  0  0  0  0  0
   58.9220   28.9506   48.0311 H   0  0  0  0  0  0  0  0  0  0  0  0
   58.5278   30.8940   49.8311 H   0  0  0  0  0  0  0  0  0  0  0  0
   59.9344   31.8423   49.2403 H   0  0  0  0  0  0  0  0  0  0  0  0
   58.2940   32.5742   49.2403 H   0  0  0  0  0  0  0  0  0  0  0  0
   57.3623   33.6411   46.0438 H   0  0  0  0  0  0  0  0  0  0  0  0
   58.1369   33.6856   47.6805 H   0  0  0  0  0  0  0  0  0  0  0  0
   59.7267   33.5653   45.0806 H   0  0  0  0  0  0  0  0  0  0  0  0
   59.2532   35.1093   45.9110 H   0  0  0  0  0  0  0  0  0  0  0  0
   61.9914   33.2392   45.3630 H   0  0  0  0  0  0  0  0  0  0  0  0
   64.0071   33.1047   46.8238 H   0  0  0  0  0  0  0  0  0  0  0  0
   63.8473   33.7170   49.2369 H   0  0  0  0  0  0  0  0  0  0  0  0
   61.6730   34.4721   50.1938 H   0  0  0  0  0  0  0  0  0  0  0  0
   59.3030   35.6550   49.2700 H   0  0  0  0  0  0  0  0  0  0  0  0
  1  2  2  0
  2  3  1  0
  3  4  2  3
  4  5  1  0
  5  6  2  0
  6  7  1  0
  6  8  1  0
  8  9  1  0
  9 10  2  0
  9 11  1  0
 11 12  1  0
 12 13  2  0
  3 14  1  0
 14 15  2  0
 15 16  1  0
 15 17  1  0
 17 18  1  0
 18 19  1  0
 19 20  1  0
 20 21  2  0
 21 22  1  0
 22 23  2  0
 23 24  1  0
 24 25  2  0
 25 26  1  0
 17  2  1  0
 25 20  1  0
 12  5  1  0
  1 27  1  0
  1 28  1  0
  4 29  1  0
 14 30  1  0
 16 31  1  0
 16 32  1  0
 16 33  1  0
 18 34  1  0
 18 35  1  0
 19 36  1  0
 19 37  1  0
 21 38  1  0
 22 39  1  0
 23 40  1  0
 24 41  1  0
 26 42  1  0
M  CHG  3   7  -1   8  -1  11  -1
M  END
>  <UniqueID>  (81) 
74

>  <SMILES>  (81) 
C=c1c(=Cc2c([O-])[n-]c(=O)[n-]c2=O)cc(C)n1CCc1ccccc1O

>  <Energy>  (81) 
82.7327556926275

>  <Genealogy>  (81) 
C=c1c(=Cc2c([O-])[n-]c(=O)[n-]c2=O)cc(C)n1CCc1ccccc1O (protonated)
C=c1c(=Cc2c([O-])[n-]c(=O)[n-]c2=O)cc(C)n1CCc1ccccc1O (3D coordinates assigned)
C=c1c(=Cc2c([O-])[n-]c(=O)[n-]c2=O)cc(C)n1CCc1ccccc1O (optimized conformer: 82.7327556926275 kcal/mol)

>  <smiles>  (81) 
C=c1c(=Cc2c(O)[nH]c(=O)[nH]c2=O)cc(C)n1CCc1ccccc1O

>  <score_type>  (81) 
oracle

>  <origin>  (81) 
adg

>  <m_score__min__energy>  (81) 
-15.83

>  <m_primary>  (81) 
energy

$$$$
81:0
     RDKit          3D

 93 99  0  0  0  0  0  0  0  0999 V2000
   63.8932   30.3484   51.6102 H   0  0  0  0  0  0  0  0  0  0  0  0
   62.8830   30.2550   51.1850 C   0  0  0  0  0  0  0  0  0  0  0  0
   62.2380   29.0810   51.3690 C   0  0  0  0  0  0  0  0  0  0  0  0
   60.8110   28.8480   50.8260 C   0  0  1  0  0  0  0  0  0  0  0  0
   60.7390   27.4600   50.1010 C   0  0  0  0  0  0  0  0  0  0  0  0
   60.6973   26.6563   50.8509 H   0  0  0  0  0  0  0  0  0  0  0  0
   59.8376   27.4214   49.4717 H   0  0  0  0  0  0  0  0  0  0  0  0
   61.6315   27.3283   49.4717 H   0  0  0  0  0  0  0  0  0  0  0  0
   59.8930   28.8150   52.0990 C   0  0  0  0  0  0  0  0  0  0  0  0
   58.8854   28.5048   51.7850 H   0  0  0  0  0  0  0  0  0  0  0  0
   59.9250   29.8278   52.5271 H   0  0  0  0  0  0  0  0  0  0  0  0
   60.3620   27.8580   53.2190 C   0  0  0  0  0  0  0  0  0  0  0  0
   60.2782   26.8267   52.8458 H   0  0  0  0  0  0  0  0  0  0  0  0
   59.7178   28.0576   54.0880 H   0  0  0  0  0  0  0  0  0  0  0  0
   61.8310   28.0840   53.6980 C   0  0  1  0  0  0  0  0  0  0  0  0
   61.9100   29.4120   54.4980 C   0  0  0  0  0  0  0  0  0  0  0  0
   61.8969   29.1922   55.5757 H   0  0  0  0  0  0  0  0  0  0  0  0
   62.8411   29.9391   54.2426 H   0  0  0  0  0  0  0  0  0  0  0  0
   61.0480   30.0458   54.2426 H   0  0  0  0  0  0  0  0  0  0  0  0
   62.2330   26.9030   54.6560 C   0  0  0  0  0  0  0  0  0  0  0  0
   61.6170   26.0258   54.4091 H   0  0  0  0  0  0  0  0  0  0  0  0
   62.0653   27.2441   55.6882 H   0  0  0  0  0  0  0  0  0  0  0  0
   63.7160   26.5110   54.5350 C   0  0  0  0  0  0  0  0  0  0  0  0
   63.9439   25.7366   55.2823 H   0  0  0  0  0  0  0  0  0  0  0  0
   64.3273   27.4094   54.7060 H   0  0  0  0  0  0  0  0  0  0  0  0
   64.0420   25.9580   53.1160 C   0  0  2  0  0  0  0  0  0  0  0  0
   63.6590   24.4750   53.0820 C   0  0  0  0  0  0  0  0  0  0  0  0
   64.0450   23.6690   53.9800 O   0  0  0  0  0  0  0  0  0  0  0  0
   62.9600   23.9570   51.9920 O   0  0  0  0  0  0  0  0  0  0  0  0
   65.5670   26.0660   52.8840 C   0  0  0  0  0  0  0  0  0  0  0  0
   66.0838   26.1026   53.8543 H   0  0  0  0  0  0  0  0  0  0  0  0
   65.9145   25.1902   52.3163 H   0  0  0  0  0  0  0  0  0  0  0  0
   65.7876   26.9820   52.3163 H   0  0  0  0  0  0  0  0  0  0  0  0
   63.2870   26.7750   51.9960 C   0  0  0  0  0  0  0  0  0  0  0  0
   62.4087   26.1967   51.6733 H   0  0  0  0  0  0  0  0  0  0  0  0
   63.9991   26.9377   51.1736 H   0  0  0  0  0  0  0  0  0  0  0  0
   62.8090   28.1720   52.4760 C   0  0  1  0  0  0  0  0  0  0  0  0
   63.7337   28.6657   52.8095 H   0  0  0  0  0  0  0  0  0  0  0  0
   60.3380   29.9960   49.7880 C   0  0  2  0  0  0  0  0  0  0  0  0
   58.7800   29.9330   49.6350 C   0  0  0  0  0  0  0  0  0  0  0  0
   58.3142   29.9142   50.6313 H   0  0  0  0  0  0  0  0  0  0  0  0
   58.4297   30.8177   49.0831 H   0  0  0  0  0  0  0  0  0  0  0  0
   58.5023   29.0229   49.0831 H   0  0  0  0  0  0  0  0  0  0  0  0
   60.9640   29.7990   48.3710 C   0  0  0  0  0  0  0  0  0  0  0  0
   60.5665   28.8693   47.9378 H   0  0  0  0  0  0  0  0  0  0  0  0
   62.0562   29.7583   48.4953 H   0  0  0  0  0  0  0  0  0  0  0  0
   60.6580   30.9360   47.4320 C   0  0  0  0  0  0  0  0  0  0  0  0
   60.7102   30.7352   46.3517 H   0  0  0  0  0  0  0  0  0  0  0  0
   60.3240   32.1850   47.8230 C   0  0  0  0  0  0  0  0  0  0  0  0
   59.7800   33.0760   46.7560 C   0  0  0  0  0  0  0  0  0  0  0  0
   60.4030   34.3210   46.5570 C   0  0  0  0  0  0  0  0  0  0  0  0
   61.2939   34.5818   47.1471 H   0  0  0  0  0  0  0  0  0  0  0  0
   59.9080   35.2290   45.6230 C   0  0  0  0  0  0  0  0  0  0  0  0
   60.4236   36.1869   45.4601 H   0  0  0  0  0  0  0  0  0  0  0  0
   58.7590   34.9230   44.8950 C   0  0  0  0  0  0  0  0  0  0  0  0
   58.3747   35.6378   44.1525 H   0  0  0  0  0  0  0  0  0  0  0  0
   58.0950   33.7150   45.1040 C   0  0  0  0  0  0  0  0  0  0  0  0
   57.1824   33.4901   44.5326 H   0  0  0  0  0  0  0  0  0  0  0  0
   58.5830   32.7730   46.0450 C   0  0  0  0  0  0  0  0  0  0  0  0
   57.8950   31.4320   46.2380 C   0  0  0  0  0  0  0  0  0  0  0  0
   58.5966   30.7581   46.7515 H   0  0  0  0  0  0  0  0  0  0  0  0
   56.9826   31.6326   46.8187 H   0  0  0  0  0  0  0  0  0  0  0  0
   57.4480   30.7610   44.9620 C   0  0  0  0  0  0  0  0  0  0  0  0
   56.3070   31.0430   44.5100 O   0  0  0  0  0  0  0  0  0  0  0  0
   58.2190   29.7660   44.2640 N   0  0  0  0  0  0  0  0  0  0  0  0
   58.3530   28.4820   44.4700 C   0  0  0  0  0  0  0  0  0  0  0  0
   59.3170   27.8600   45.7120 S   0  0  0  0  0  0  0  0  0  0  0  0
   58.8600   26.2750   45.3820 C   0  0  0  0  0  0  0  0  0  0  0  0
   59.2200   25.1060   46.0490 C   0  0  0  0  0  0  0  0  0  0  0  0
   59.9205   25.1338   46.8967 H   0  0  0  0  0  0  0  0  0  0  0  0
   58.6660   23.8900   45.6120 C   0  0  0  0  0  0  0  0  0  0  0  0
   58.9382   22.9490   46.1124 H   0  0  0  0  0  0  0  0  0  0  0  0
   57.7600   23.8790   44.5300 C   0  0  0  0  0  0  0  0  0  0  0  0
   57.3219   22.9260   44.1987 H   0  0  0  0  0  0  0  0  0  0  0  0
   57.4100   25.0700   43.8700 C   0  0  0  0  0  0  0  0  0  0  0  0
   56.7105   25.0589   43.0211 H   0  0  0  0  0  0  0  0  0  0  0  0
   57.9730   26.2700   44.3190 C   0  0  0  0  0  0  0  0  0  0  0  0
   57.6800   27.4980   43.8130 N   0  0  0  0  0  0  0  0  0  0  0  0
   56.9980   27.6210   43.0420 H   0  0  0  0  0  0  0  0  0  0  0  0
   60.3170   32.6180   49.3100 C   0  0  0  0  0  0  0  0  0  0  0  0
   58.9030   33.1070   49.7460 C   0  0  0  0  0  0  0  0  0  0  0  0
   58.8445   33.1272   50.8443 H   0  0  0  0  0  0  0  0  0  0  0  0
   58.7267   34.1183   49.3507 H   0  0  0  0  0  0  0  0  0  0  0  0
   58.1397   32.4206   49.3507 H   0  0  0  0  0  0  0  0  0  0  0  0
   61.2180   33.8780   49.4650 C   0  0  0  0  0  0  0  0  0  0  0  0
   61.3702   34.0908   50.5334 H   0  0  0  0  0  0  0  0  0  0  0  0
   62.1908   33.6944   48.9855 H   0  0  0  0  0  0  0  0  0  0  0  0
   60.7297   34.7392   48.9855 H   0  0  0  0  0  0  0  0  0  0  0  0
   60.7980   31.4250   50.2690 C   0  0  2  0  0  0  0  0  0  0  0  0
   60.3047   31.6190   51.2329 H   0  0  0  0  0  0  0  0  0  0  0  0
   62.3370   31.4330   50.4530 C   0  0  0  0  0  0  0  0  0  0  0  0
   62.8011   31.4622   49.4561 H   0  0  0  0  0  0  0  0  0  0  0  0
   62.5720   32.3157   51.0658 H   0  0  0  0  0  0  0  0  0  0  0  0
  1  2  1  0
  2  3  2  0
  3  4  1  0
  4  5  1  6
  5  6  1  0
  5  7  1  0
  5  8  1  0
  4  9  1  0
  9 10  1  0
  9 11  1  0
  9 12  1  0
 12 13  1  0
 12 14  1  0
 12 15  1  0
 15 16  1  1
 16 17  1  0
 16 18  1  0
 16 19  1  0
 15 20  1  0
 20 21  1  0
 20 22  1  0
 20 23  1  0
 23 24  1  0
 23 25  1  0
 23 26  1  0
 26 27  1  0
 27 28  2  0
 27 29  1  0
 26 30  1  6
 30 31  1  0
 30 32  1  0
 30 33  1  0
 26 34  1  0
 34 35  1  0
 34 36  1  0
 34 37  1  0
 37 38  1  1
  4 39  1  0
 39 40  1  6
 40 41  1  0
 40 42  1  0
 40 43  1  0
 39 44  1  0
 44 45  1  0
 44 46  1  0
 44 47  1  0
 47 48  1  0
 47 49  2  0
 49 50  1  0
 50 51  2  0
 51 52  1  0
 51 53  1  0
 53 54  1  0
 53 55  2  0
 55 56  1  0
 55 57  1  0
 57 58  1  0
 57 59  2  0
 59 60  1  0
 60 61  1  0
 60 62  1  0
 60 63  1  0
 63 64  2  0
 63 65  1  0
 65 66  2  0
 66 67  1  0
 67 68  1  0
 68 69  2  0
 69 70  1  0
 69 71  1  0
 71 72  1  0
 71 73  2  0
 73 74  1  0
 73 75  1  0
 75 76  1  0
 75 77  2  0
 77 78  1  0
 78 79  1  0
 49 80  1  0
 80 81  1  0
 81 82  1  0
 81 83  1  0
 81 84  1  0
 80 85  1  0
 85 86  1  0
 85 87  1  0
 85 88  1  0
 80 89  1  0
 89 90  1  1
 89 91  1  0
 91 92  1  0
 91 93  1  0
 91  2  1  0
 37  3  1  0
 89 39  1  0
 37 15  1  0
 59 50  1  0
 78 66  1  0
 77 68  1  0
M  CHG  1  29  -1
M  END
>  <UniqueID>  (82) 
75

>  <SMILES>  (82) 
CC1(C)C(c2ccccc2CC(=O)/N=c2\[nH]c3ccccc3s2)=CCC2(C)C1CC=C1C3C[C@](C)(C(=O)[O-])CC[C@]3(C)CCC12C

>  <Energy>  (82) 
203.67005627181535

>  <Genealogy>  (82) 
CC1(C(=O)[O-])CCC2(C)CCC3(C)C(=CCC4C(C)(C)C(c5ccccc5CC(=O)N=c5[nH]c6ccccc6s5)=CCC43C)C2C1 (protonated)
CC1(C)C(c2ccccc2CC(=O)N=c2[nH]c3ccccc3s2)=CCC2(C)C1CC=C1C3C[C@](C)(C(=O)[O-])CC[C@]3(C)CCC12C (chirality)
CC1(C)C(c2ccccc2CC(=O)/N=c2\[nH]c3ccccc3s2)=CCC2(C)C1CC=C1C3C[C@](C)(C(=O)[O-])CC[C@]3(C)CCC12C (cis-trans isomerization)
CC1(C)C(c2ccccc2CC(=O)/N=c2\[nH]c3ccccc3s2)=CCC2(C)C1CC=C1C3C[C@](C)(C(=O)[O-])CC[C@]3(C)CCC12C (3D coordinates assigned)
CC1(C)C(c2ccccc2CC(=O)/N=c2\[nH]c3ccccc3s2)=CCC2(C)C1CC=C1C3C[C@](C)(C(=O)[O-])CC[C@]3(C)CCC12C (nonaromatic ring conformer: 203.67005627181535 kcal/mol)

>  <smiles>  (82) 
CC1(C(=O)O)CCC2(C)CCC3(C)C(=CCC4C(C)(C)C(c5ccccc5CC(=O)N=c5[nH]c6ccccc6s5)=CCC43C)C2C1

>  <score_type>  (82) 
oracle

>  <origin>  (82) 
adg

>  <m_score__min__energy>  (82) 
-13.369999999999999

>  <m_primary>  (82) 
energy

$$$$
82:0
     RDKit          3D

 26 28  0  0  0  0  0  0  0  0999 V2000
   55.1390   27.9760   44.8780 H   0  0  0  0  0  0  0  0  0  0  0  0
   55.1580   28.9440   44.5800 O   0  0  0  0  0  0  0  0  0  0  0  0
   56.1930   29.7860   44.9730 C   0  0  0  0  0  0  0  0  0  0  0  0
   56.2430   31.0990   44.6450 N   0  0  0  0  0  0  0  0  0  0  0  0
   57.4110   31.5210   45.1670 C   0  0  0  0  0  0  0  0  0  0  0  0
   57.9420   32.8080   45.0820 C   0  0  0  0  0  0  0  0  0  0  0  0
   57.3952   33.6140   44.5707 H   0  0  0  0  0  0  0  0  0  0  0  0
   59.1980   33.0440   45.6700 C   0  0  0  0  0  0  0  0  0  0  0  0
   59.6431   34.0488   45.6216 H   0  0  0  0  0  0  0  0  0  0  0  0
   59.8920   32.0010   46.3220 C   0  0  0  0  0  0  0  0  0  0  0  0
   60.8735   32.1984   46.7776 H   0  0  0  0  0  0  0  0  0  0  0  0
   59.3350   30.7110   46.3920 C   0  0  0  0  0  0  0  0  0  0  0  0
   59.8666   29.8889   46.8937 H   0  0  0  0  0  0  0  0  0  0  0  0
   58.0860   30.5090   45.8040 C   0  0  0  0  0  0  0  0  0  0  0  0
   57.2990   29.3850   45.7160 C   0  0  0  0  0  0  0  0  0  0  0  0
   57.6610   28.0190   46.1240 C   0  0  0  0  0  0  0  0  0  0  0  0
   58.6434   27.8809   46.5991 H   0  0  0  0  0  0  0  0  0  0  0  0
   56.8960   26.9240   45.9670 C   0  0  0  0  0  0  0  0  0  0  0  0
   55.5530   26.9990   46.0340 N   0  0  0  0  0  0  0  0  0  0  0  0
   55.1440   25.7260   45.8780 C   0  0  0  0  0  0  0  0  0  0  0  0
   53.9290   25.3930   45.8970 O   0  0  0  0  0  0  0  0  0  0  0  0
   56.1380   24.8370   45.6930 N   0  0  0  0  0  0  0  0  0  0  0  0
   57.2530   25.5910   45.7310 C   0  0  0  0  0  0  0  0  0  0  0  0
   58.4540   25.0780   45.4550 C   0  0  0  0  0  0  0  0  0  0  0  0
   59.3477   25.7182   45.4940 H   0  0  0  0  0  0  0  0  0  0  0  0
   58.5500   24.0151   45.1885 H   0  0  0  0  0  0  0  0  0  0  0  0
  1  2  1  0
  2  3  1  0
  3  4  1  0
  4  5  1  0
  5  6  2  0
  6  7  1  0
  6  8  1  0
  8  9  1  0
  8 10  2  0
 10 11  1  0
 10 12  1  0
 12 13  1  0
 12 14  2  0
 14 15  1  0
 15 16  1  0
 16 17  1  0
 16 18  2  0
 18 19  1  0
 19 20  1  0
 20 21  2  0
 20 22  1  0
 22 23  1  0
 23 24  2  0
 24 25  1  0
 24 26  1  0
 15  3  2  0
 23 18  1  0
 14  5  1  0
M  CHG  3   4  -1  19  -1  22  -1
M  END
>  <UniqueID>  (83) 
76

>  <SMILES>  (83) 
C=c1[n-]c(=O)[n-]/c1=C/c1c(O)[n-]c2ccccc12

>  <Energy>  (83) 
101.40925921383025

>  <Genealogy>  (83) 
C=c1[n-]c(=O)[n-]c1=Cc1c(O)[n-]c2ccccc12 (protonated)
C=c1[n-]c(=O)[n-]/c1=C/c1c(O)[n-]c2ccccc12 (cis-trans isomerization)
C=c1[n-]c(=O)[n-]/c1=C/c1c(O)[n-]c2ccccc12 (3D coordinates assigned)
C=c1[n-]c(=O)[n-]/c1=C/c1c(O)[n-]c2ccccc12 (optimized conformer: 101.40925921383025 kcal/mol)

>  <smiles>  (83) 
C=c1[nH]c(=O)[nH]c1=Cc1c(O)[nH]c2ccccc12

>  <score_type>  (83) 
oracle

>  <origin>  (83) 
adg

>  <m_score__min__energy>  (83) 
-13.130000000000001

>  <m_primary>  (83) 
energy

$$$$
83:0
     RDKit          3D

 45 47  0  0  0  0  0  0  0  0999 V2000
   58.8380   29.6410   44.8510 O   0  0  0  0  0  0  0  0  0  0  0  0
   57.6000   29.7750   45.0510 C   0  0  0  0  0  0  0  0  0  0  0  0
   56.7400   28.6320   45.0290 N   0  0  0  0  0  0  0  0  0  0  0  0
   57.1140   27.3050   45.4280 C   0  0  0  0  0  0  0  0  0  0  0  0
   58.4490   26.9090   45.2660 C   0  0  0  0  0  0  0  0  0  0  0  0
   58.8560   25.6260   45.6390 C   0  0  0  0  0  0  0  0  0  0  0  0
   57.9300   24.7220   46.1630 C   0  0  0  0  0  0  0  0  0  0  0  0
   56.5880   25.0910   46.2990 C   0  0  0  0  0  0  0  0  0  0  0  0
   55.4340   23.9270   46.9290 Cl  0  0  0  0  0  0  0  0  0  0  0  0
   56.1710   26.3760   45.9180 C   0  0  0  0  0  0  0  0  0  0  0  0
   54.8220   26.7080   45.9970 O   0  0  0  0  0  0  0  0  0  0  0  0
   57.0280   31.0800   45.2150 N   0  0  0  0  0  0  0  0  0  0  0  0
   57.8000   32.2620   45.4870 C   0  0  0  0  0  0  0  0  0  0  0  0
   57.7510   33.3400   44.5920 C   0  0  0  0  0  0  0  0  0  0  0  0
   58.4970   34.4960   44.8360 C   0  0  0  0  0  0  0  0  0  0  0  0
   59.2870   34.5910   45.9860 C   0  0  0  0  0  0  0  0  0  0  0  0
   59.3180   33.5360   46.9060 C   0  0  0  0  0  0  0  0  0  0  0  0
   60.3230   33.6550   48.3490 S   0  0  0  0  0  0  0  0  0  0  0  0
   60.3850   32.3170   49.0340 O   0  0  0  0  0  0  0  0  0  0  0  0
   59.6860   34.6360   49.2950 O   0  0  0  0  0  0  0  0  0  0  0  0
   61.9340   34.2100   47.9430 N   0  0  0  0  0  0  0  0  0  0  0  0
   62.5010   33.4870   46.7860 C   0  0  0  0  0  0  0  0  0  0  0  0
   62.9310   32.0490   47.1310 C   0  0  0  0  0  0  0  0  0  0  0  0
   63.5910   31.9320   48.5180 C   0  0  0  0  0  0  0  0  0  0  0  0
   64.0210   33.2930   49.0620 C   0  0  0  0  0  0  0  0  0  0  0  0
   62.8210   34.2540   49.1340 C   0  0  0  0  0  0  0  0  0  0  0  0
   58.5690   32.3770   46.6590 C   0  0  0  0  0  0  0  0  0  0  0  0
   59.1805   27.6130   44.8425 H   0  0  0  0  0  0  0  0  0  0  0  0
   59.9079   25.3273   45.5197 H   0  0  0  0  0  0  0  0  0  0  0  0
   58.2567   23.7174   46.4695 H   0  0  0  0  0  0  0  0  0  0  0  0
   56.0000   31.1820   45.0570 H   0  0  0  0  0  0  0  0  0  0  0  0
   57.1215   33.2754   43.6923 H   0  0  0  0  0  0  0  0  0  0  0  0
   58.4628   35.3325   44.1225 H   0  0  0  0  0  0  0  0  0  0  0  0
   59.8850   35.4961   46.1681 H   0  0  0  0  0  0  0  0  0  0  0  0
   61.7414   33.4453   45.9915 H   0  0  0  0  0  0  0  0  0  0  0  0
   63.4003   34.0325   46.4639 H   0  0  0  0  0  0  0  0  0  0  0  0
   62.0408   31.4031   47.1113 H   0  0  0  0  0  0  0  0  0  0  0  0
   63.6789   31.7423   46.3849 H   0  0  0  0  0  0  0  0  0  0  0  0
   62.8714   31.4810   49.2171 H   0  0  0  0  0  0  0  0  0  0  0  0
   64.4902   31.3068   48.4155 H   0  0  0  0  0  0  0  0  0  0  0  0
   64.4402   33.1626   50.0706 H   0  0  0  0  0  0  0  0  0  0  0  0
   64.7767   33.7209   48.3869 H   0  0  0  0  0  0  0  0  0  0  0  0
   62.2228   33.9934   50.0196 H   0  0  0  0  0  0  0  0  0  0  0  0
   63.2338   35.2724   49.1836 H   0  0  0  0  0  0  0  0  0  0  0  0
   58.5828   31.5521   47.3866 H   0  0  0  0  0  0  0  0  0  0  0  0
  1  2  2  0
  2  3  1  0
  3  4  1  0
  4  5  2  0
  5  6  1  0
  6  7  2  0
  7  8  1  0
  8  9  1  0
  8 10  2  0
 10 11  1  0
  2 12  1  0
 12 13  1  0
 13 14  2  0
 14 15  1  0
 15 16  2  0
 16 17  1  0
 17 18  1  0
 18 19  2  0
 18 20  2  0
 18 21  1  0
 21 22  1  0
 22 23  1  0
 23 24  1  0
 24 25  1  0
 25 26  1  0
 17 27  2  0
 10  4  1  0
 27 13  1  0
 26 21  1  0
  5 28  1  0
  6 29  1  0
  7 30  1  0
 12 31  1  0
 14 32  1  0
 15 33  1  0
 16 34  1  0
 22 35  1  0
 22 36  1  0
 23 37  1  0
 23 38  1  0
 24 39  1  0
 24 40  1  0
 25 41  1  0
 25 42  1  0
 26 43  1  0
 26 44  1  0
 27 45  1  0
M  CHG  2   3  -1  11  -1
M  END
>  <UniqueID>  (84) 
77

>  <SMILES>  (84) 
O=C([N-]c1cccc(Cl)c1[O-])Nc1cccc(S(=O)(=O)N2CCCCC2)c1

>  <Energy>  (84) 
61.70933837906026

>  <Genealogy>  (84) 
O=C([N-]c1cccc(Cl)c1[O-])Nc1cccc(S(=O)(=O)N2CCCCC2)c1 (protonated)
O=C([N-]c1cccc(Cl)c1[O-])Nc1cccc(S(=O)(=O)N2CCCCC2)c1 (3D coordinates assigned)
O=C([N-]c1cccc(Cl)c1[O-])Nc1cccc(S(=O)(=O)N2CCCCC2)c1 (nonaromatic ring conformer: 61.70933837906026 kcal/mol)

>  <smiles>  (84) 
O=C(Nc1cccc(S(=O)(=O)N2CCCCC2)c1)Nc1cccc(Cl)c1O

>  <score_type>  (84) 
oracle

>  <origin>  (84) 
adg

>  <m_score__min__energy>  (84) 
-15.050000000000001

>  <m_primary>  (84) 
energy

$$$$
84:0
     RDKit          3D

 41 43  0  0  0  0  0  0  0  0999 V2000
   59.9620   29.1960   44.5880 N   0  0  0  0  0  0  0  0  0  0  0  0
   58.5770   28.9520   44.8790 C   0  0  0  0  0  0  0  0  0  0  0  0
   57.5990   29.7610   44.2610 C   0  0  0  0  0  0  0  0  0  0  0  0
   57.9480   30.9380   43.5090 N   0  0  0  0  0  0  0  0  0  0  0  0
   57.4510   32.2740   43.8530 C   0  0  0  0  0  0  0  0  0  0  0  0
   58.0960   32.7820   45.1160 C   0  0  0  0  0  0  0  0  0  0  0  0
   57.8930   32.1070   46.3310 C   0  0  0  0  0  0  0  0  0  0  0  0
   58.5420   32.5380   47.4930 C   0  0  0  0  0  0  0  0  0  0  0  0
   59.3970   33.6440   47.4500 C   0  0  0  0  0  0  0  0  0  0  0  0
   60.2910   34.2240   49.0330 Br  0  0  0  0  0  0  0  0  0  0  0  0
   59.6010   34.3210   46.2430 C   0  0  0  0  0  0  0  0  0  0  0  0
   58.9540   33.8930   45.0810 C   0  0  0  0  0  0  0  0  0  0  0  0
   56.2530   29.4430   44.4530 C   0  0  0  0  0  0  0  0  0  0  0  0
   55.3480   30.1320   43.9140 O   0  0  0  0  0  0  0  0  0  0  0  0
   55.9130   28.4030   45.2450 N   0  0  0  0  0  0  0  0  0  0  0  0
   56.8490   27.6460   45.8660 C   0  0  0  0  0  0  0  0  0  0  0  0
   56.4650   26.6960   46.6020 O   0  0  0  0  0  0  0  0  0  0  0  0
   58.1880   27.9050   45.6910 N   0  0  0  0  0  0  0  0  0  0  0  0
   59.1680   27.0400   46.3820 C   0  0  0  0  0  0  0  0  0  0  0  0
   59.6180   27.6750   47.6770 C   0  0  0  0  0  0  0  0  0  0  0  0
   59.2640   28.9990   47.9830 C   0  0  0  0  0  0  0  0  0  0  0  0
   59.6630   29.5770   49.1920 C   0  0  0  0  0  0  0  0  0  0  0  0
   60.4180   28.8380   50.1050 C   0  0  0  0  0  0  0  0  0  0  0  0
   60.7760   27.5200   49.8110 C   0  0  0  0  0  0  0  0  0  0  0  0
   60.3780   26.9390   48.6020 C   0  0  0  0  0  0  0  0  0  0  0  0
   60.4890   29.9980   44.9930 H   0  0  0  0  0  0  0  0  0  0  0  0
   60.4720   28.5910   43.9070 H   0  0  0  0  0  0  0  0  0  0  0  0
   58.3180   30.8060   42.5400 H   0  0  0  0  0  0  0  0  0  0  0  0
   57.6797   32.9659   43.0290 H   0  0  0  0  0  0  0  0  0  0  0  0
   56.3647   32.2125   44.0148 H   0  0  0  0  0  0  0  0  0  0  0  0
   57.2215   31.2366   46.3690 H   0  0  0  0  0  0  0  0  0  0  0  0
   58.3796   32.0061   48.4421 H   0  0  0  0  0  0  0  0  0  0  0  0
   60.2720   35.1919   46.2087 H   0  0  0  0  0  0  0  0  0  0  0  0
   59.1175   34.4288   44.1344 H   0  0  0  0  0  0  0  0  0  0  0  0
   58.7020   26.0675   46.5991 H   0  0  0  0  0  0  0  0  0  0  0  0
   60.0437   26.9054   45.7301 H   0  0  0  0  0  0  0  0  0  0  0  0
   58.6691   29.5851   47.2671 H   0  0  0  0  0  0  0  0  0  0  0  0
   59.3819   30.6148   49.4241 H   0  0  0  0  0  0  0  0  0  0  0  0
   60.7310   29.2937   51.0560 H   0  0  0  0  0  0  0  0  0  0  0  0
   61.3712   26.9386   50.5305 H   0  0  0  0  0  0  0  0  0  0  0  0
   60.6614   25.9008   48.3744 H   0  0  0  0  0  0  0  0  0  0  0  0
  1  2  1  0
  2  3  2  0
  3  4  1  0
  4  5  1  0
  5  6  1  0
  6  7  2  0
  7  8  1  0
  8  9  2  0
  9 10  1  0
  9 11  1  0
 11 12  2  0
  3 13  1  0
 13 14  2  0
 13 15  1  0
 15 16  1  0
 16 17  2  0
 16 18  1  0
 18 19  1  0
 19 20  1  0
 20 21  2  0
 21 22  1  0
 22 23  2  0
 23 24  1  0
 24 25  2  0
 18  2  1  0
 25 20  1  0
 12  6  1  0
  1 26  1  0
  1 27  1  0
  4 28  1  0
  5 29  1  0
  5 30  1  0
  7 31  1  0
  8 32  1  0
 11 33  1  0
 12 34  1  0
 19 35  1  0
 19 36  1  0
 21 37  1  0
 22 38  1  0
 23 39  1  0
 24 40  1  0
 25 41  1  0
M  CHG  1  15  -1
M  END
>  <UniqueID>  (85) 
78

>  <SMILES>  (85) 
Nc1c(NCc2ccc(Br)cc2)c(=O)[n-]c(=O)n1Cc1ccccc1

>  <Energy>  (85) 
53.79313887433235

>  <Genealogy>  (85) 
Nc1c(NCc2ccc(Br)cc2)c(=O)[n-]c(=O)n1Cc1ccccc1 (protonated)
Nc1c(NCc2ccc(Br)cc2)c(=O)[n-]c(=O)n1Cc1ccccc1 (3D coordinates assigned)
Nc1c(NCc2ccc(Br)cc2)c(=O)[n-]c(=O)n1Cc1ccccc1 (optimized conformer: 53.79313887433235 kcal/mol)

>  <smiles>  (85) 
Nc1c(NCc2ccc(Br)cc2)c(=O)[nH]c(=O)n1Cc1ccccc1

>  <score_type>  (85) 
oracle

>  <origin>  (85) 
adg

>  <m_score__min__energy>  (85) 
-9.9800000000000004

>  <m_primary>  (85) 
energy

$$$$
85:0
     RDKit          3D

 27 28  0  0  0  0  0  0  0  0999 V2000
   59.6370   34.1320   48.5390 C   0  0  0  0  0  0  0  0  0  0  0  0
   59.2150   34.0090   47.1100 C   0  0  0  0  0  0  0  0  0  0  0  0
   59.5050   35.0260   46.1950 C   0  0  0  0  0  0  0  0  0  0  0  0
   59.0940   34.8690   44.8720 C   0  0  0  0  0  0  0  0  0  0  0  0
   58.4300   33.7460   44.4970 N   0  0  0  0  0  0  0  0  0  0  0  0
   58.1570   32.7640   45.3960 C   0  0  0  0  0  0  0  0  0  0  0  0
   57.2820   31.2930   44.8760 S   0  0  0  0  0  0  0  0  0  0  0  0
   58.7560   30.2320   45.0080 C   0  0  0  0  0  0  0  0  0  0  0  0
   58.3700   28.9130   45.5930 C   0  0  0  0  0  0  0  0  0  0  0  0
   59.1960   28.1170   46.3020 N   0  0  0  0  0  0  0  0  0  0  0  0
   58.4820   27.0680   46.6960 N   0  0  0  0  0  0  0  0  0  0  0  0
   57.2300   27.1720   46.2730 N   0  0  0  0  0  0  0  0  0  0  0  0
   56.2060   26.2080   46.5390 C   0  0  0  0  0  0  0  0  0  0  0  0
   54.9350   26.3270   45.9040 N   0  0  0  0  0  0  0  0  0  0  0  0
   56.4170   25.2520   47.3320 O   0  0  0  0  0  0  0  0  0  0  0  0
   57.1270   28.3210   45.5850 C   0  0  0  0  0  0  0  0  0  0  0  0
   55.9610   28.8030   44.9940 O   0  0  0  0  0  0  0  0  0  0  0  0
   58.5470   32.9010   46.6910 N   0  0  0  0  0  0  0  0  0  0  0  0
   58.7888   33.8848   49.1944 H   0  0  0  0  0  0  0  0  0  0  0  0
   60.4677   33.4386   48.7370 H   0  0  0  0  0  0  0  0  0  0  0  0
   59.9650   35.1631   48.7370 H   0  0  0  0  0  0  0  0  0  0  0  0
   60.0455   35.9300   46.5121 H   0  0  0  0  0  0  0  0  0  0  0  0
   59.3077   35.6548   44.1325 H   0  0  0  0  0  0  0  0  0  0  0  0
   59.1871   30.0774   44.0079 H   0  0  0  0  0  0  0  0  0  0  0  0
   59.4998   30.7172   45.6572 H   0  0  0  0  0  0  0  0  0  0  0  0
   54.7990   26.9670   45.0910 H   0  0  0  0  0  0  0  0  0  0  0  0
   55.1390   28.2190   44.9020 H   0  0  0  0  0  0  0  0  0  0  0  0
  1  2  1  0
  2  3  2  0
  3  4  1  0
  4  5  2  0
  5  6  1  0
  6  7  1  0
  7  8  1  0
  8  9  1  0
  9 10  1  0
 10 11  2  0
 11 12  1  0
 12 13  1  0
 13 14  1  0
 13 15  2  0
 12 16  1  0
 16 17  1  0
  6 18  2  0
 18  2  1  0
 16  9  2  0
  1 19  1  0
  1 20  1  0
  1 21  1  0
  3 22  1  0
  4 23  1  0
  8 24  1  0
  8 25  1  0
 14 26  1  0
 17 27  1  0
M  CHG  1  14  -1
M  END
>  <UniqueID>  (86) 
79

>  <SMILES>  (86) 
Cc1ccnc(SCc2nnn(C([NH-])=O)c2O)n1

>  <Energy>  (86) 
57.825883321227074

>  <Genealogy>  (86) 
Cc1ccnc(SCc2nnn(C([NH-])=O)c2O)n1 (protonated)
Cc1ccnc(SCc2nnn(C([NH-])=O)c2O)n1 (3D coordinates assigned)
Cc1ccnc(SCc2nnn(C([NH-])=O)c2O)n1 (optimized conformer: 57.825883321227074 kcal/mol)

>  <smiles>  (86) 
Cc1ccnc(SCc2nnn(C(N)=O)c2O)n1

>  <score_type>  (86) 
oracle

>  <origin>  (86) 
adg

>  <m_score__min__energy>  (86) 
-9.4600000000000009

>  <m_primary>  (86) 
energy

$$$$
86:0
     RDKit          3D

 16 16  0  0  0  0  0  0  0  0999 V2000
   57.3150   25.9430   45.3140 C   0  0  0  0  0  0  0  0  0  0  0  0
   56.3160   25.0400   45.2170 C   0  0  0  0  0  0  0  0  0  0  0  0
   55.0160   25.4340   45.6250 C   0  0  0  0  0  0  0  0  0  0  0  0
   54.7700   26.7160   46.1130 O   0  0  0  0  0  0  0  0  0  0  0  0
   53.9450   24.5470   45.5490 C   0  0  0  0  0  0  0  0  0  0  0  0
   54.1310   23.2580   45.0710 C   0  0  0  0  0  0  0  0  0  0  0  0
   55.3920   22.8320   44.6590 C   0  0  0  0  0  0  0  0  0  0  0  0
   55.5220   21.5270   44.1880 O   0  0  0  0  0  0  0  0  0  0  0  0
   56.5090   23.7040   44.7210 C   0  0  0  0  0  0  0  0  0  0  0  0
   57.7070   23.2370   44.3100 C   0  0  0  0  0  0  0  0  0  0  0  0
   58.3351   25.6699   45.0061 H   0  0  0  0  0  0  0  0  0  0  0  0
   57.1088   26.9519   45.7009 H   0  0  0  0  0  0  0  0  0  0  0  0
   52.9441   24.8709   45.8704 H   0  0  0  0  0  0  0  0  0  0  0  0
   53.2767   22.5672   45.0169 H   0  0  0  0  0  0  0  0  0  0  0  0
   58.5928   23.8883   44.3455 H   0  0  0  0  0  0  0  0  0  0  0  0
   57.7975   22.2052   43.9396 H   0  0  0  0  0  0  0  0  0  0  0  0
  1  2  2  0
  2  3  1  0
  3  4  1  0
  3  5  2  0
  5  6  1  0
  6  7  2  0
  7  8  1  0
  7  9  1  0
  9 10  2  0
  9  2  1  0
  1 11  1  0
  1 12  1  0
  5 13  1  0
  6 14  1  0
 10 15  1  0
 10 16  1  0
M  CHG  2   4  -1   8  -1
M  END
>  <UniqueID>  (87) 
80

>  <SMILES>  (87) 
C=c1c([O-])ccc([O-])c1=C

>  <Energy>  (87) 
25.270469034572955

>  <Genealogy>  (87) 
C=c1c([O-])ccc([O-])c1=C (protonated)
C=c1c([O-])ccc([O-])c1=C (3D coordinates assigned)
C=c1c([O-])ccc([O-])c1=C (optimized conformer: 25.270469034572955 kcal/mol)

>  <smiles>  (87) 
C=c1c(O)ccc(O)c1=C

>  <score_type>  (87) 
oracle

>  <origin>  (87) 
adg

>  <m_score__min__energy>  (87) 
-9.5600000000000005

>  <m_primary>  (87) 
energy

$$$$
87:0
     RDKit          3D

 46 49  0  0  0  0  0  0  0  0999 V2000
   56.8916   31.6970   52.0832 H   0  0  0  0  0  0  0  0  0  0  0  0
   55.8090   31.5920   52.2470 C   0  0  0  0  0  0  0  0  0  0  0  0
   55.1470   32.4617   52.1228 H   0  0  0  0  0  0  0  0  0  0  0  0
   55.2950   30.4010   52.5990 C   0  0  0  0  0  0  0  0  0  0  0  0
   53.9430   30.1100   52.8420 C   0  0  0  0  0  0  0  0  0  0  0  0
   52.8250   30.8140   52.5770 C   0  0  0  0  0  0  0  0  0  0  0  0
   52.3401   31.3257   53.4214 H   0  0  0  0  0  0  0  0  0  0  0  0
   52.1980   30.9560   51.2530 C   0  0  0  0  0  0  0  0  0  0  0  0
   51.3420   31.9600   50.8610 C   0  0  0  0  0  0  0  0  0  0  0  0
   51.0150   33.0840   51.6100 O   0  0  0  0  0  0  0  0  0  0  0  0
   50.8440   31.7070   49.6360 N   0  0  0  0  0  0  0  0  0  0  0  0
   51.4070   30.5200   49.3250 C   0  0  0  0  0  0  0  0  0  0  0  0
   51.1800   29.9190   48.2410 O   0  0  0  0  0  0  0  0  0  0  0  0
   52.2180   30.0280   50.2800 N   0  0  0  0  0  0  0  0  0  0  0  0
   52.7200   29.1110   50.2790 H   0  0  0  0  0  0  0  0  0  0  0  0
   53.9160   28.8630   53.4440 C   0  0  0  0  0  0  0  0  0  0  0  0
   53.0277   28.3368   53.8235 H   0  0  0  0  0  0  0  0  0  0  0  0
   55.2180   28.4080   53.4760 C   0  0  0  0  0  0  0  0  0  0  0  0
   55.6320   27.0720   54.0160 C   0  0  0  0  0  0  0  0  0  0  0  0
   55.6227   27.1021   55.1155 H   0  0  0  0  0  0  0  0  0  0  0  0
   54.9306   26.3010   53.6643 H   0  0  0  0  0  0  0  0  0  0  0  0
   56.6464   26.8327   53.6643 H   0  0  0  0  0  0  0  0  0  0  0  0
   56.0570   29.3360   52.9620 N   0  0  0  0  0  0  0  0  0  0  0  0
   57.4850   29.2050   52.8390 C   0  0  0  0  0  0  0  0  0  0  0  0
   58.3600   28.8130   53.8340 C   0  0  0  0  0  0  0  0  0  0  0  0
   58.1074   28.5281   54.8660 H   0  0  0  0  0  0  0  0  0  0  0  0
   59.6180   28.8530   53.2640 C   0  0  0  0  0  0  0  0  0  0  0  0
   60.5551   28.6060   53.7844 H   0  0  0  0  0  0  0  0  0  0  0  0
   59.5270   29.2400   51.9740 N   0  0  0  0  0  0  0  0  0  0  0  0
   60.6470   29.4670   51.0640 C   0  0  0  0  0  0  0  0  0  0  0  0
   60.8844   30.5408   51.0396 H   0  0  0  0  0  0  0  0  0  0  0  0
   61.5200   28.8992   51.4182 H   0  0  0  0  0  0  0  0  0  0  0  0
   60.2860   29.0030   49.6720 C   0  0  0  0  0  0  0  0  0  0  0  0
   60.6710   27.7140   49.2620 C   0  0  0  0  0  0  0  0  0  0  0  0
   61.1991   27.0532   49.9652 H   0  0  0  0  0  0  0  0  0  0  0  0
   60.3890   27.2660   47.9710 C   0  0  0  0  0  0  0  0  0  0  0  0
   60.6878   26.2527   47.6644 H   0  0  0  0  0  0  0  0  0  0  0  0
   59.7290   28.1000   47.0680 C   0  0  0  0  0  0  0  0  0  0  0  0
   59.5046   27.7423   46.0523 H   0  0  0  0  0  0  0  0  0  0  0  0
   59.3530   29.3890   47.4530 C   0  0  0  0  0  0  0  0  0  0  0  0
   58.8367   30.0451   46.7368 H   0  0  0  0  0  0  0  0  0  0  0  0
   59.6300   29.8510   48.7470 C   0  0  0  0  0  0  0  0  0  0  0  0
   59.2340   31.1940   49.0990 C   0  0  0  0  0  0  0  0  0  0  0  0
   58.9160   32.2700   49.3780 N   0  0  0  0  0  0  0  0  0  0  0  0
   58.2260   29.4590   51.7040 C   0  0  0  0  0  0  0  0  0  0  0  0
   57.8203   29.7871   50.7356 H   0  0  0  0  0  0  0  0  0  0  0  0
  1  2  1  0
  2  3  1  0
  2  4  2  0
  4  5  1  0
  5  6  2  0
  6  7  1  0
  6  8  1  0
  8  9  2  0
  9 10  1  0
  9 11  1  0
 11 12  1  0
 12 13  2  0
 12 14  1  0
 14 15  1  0
  5 16  1  0
 16 17  1  0
 16 18  2  0
 18 19  1  0
 19 20  1  0
 19 21  1  0
 19 22  1  0
 18 23  1  0
 23 24  1  0
 24 25  1  0
 25 26  1  0
 25 27  2  0
 27 28  1  0
 27 29  1  0
 29 30  1  0
 30 31  1  0
 30 32  1  0
 30 33  1  0
 33 34  2  0
 34 35  1  0
 34 36  1  0
 36 37  1  0
 36 38  2  0
 38 39  1  0
 38 40  1  0
 40 41  1  0
 40 42  2  0
 42 43  1  0
 43 44  3  0
 29 45  1  0
 45 46  1  0
 23  4  1  0
 45 24  2  0
 14  8  1  0
 42 33  1  0
M  CHG  2  10  -1  11  -1
M  END
>  <UniqueID>  (88) 
81

>  <SMILES>  (88) 
C=c1/c(=C\c2[nH]c(=O)[n-]c2[O-])cc(C)n1-c1ccn(Cc2ccccc2C#N)c1

>  <Energy>  (88) 
150.48780937318574

>  <Genealogy>  (88) 
C=c1c(=Cc2[nH]c(=O)[n-]c2[O-])cc(C)n1-c1ccn(Cc2ccccc2C#N)c1 (protonated)
C=c1/c(=C\c2[nH]c(=O)[n-]c2[O-])cc(C)n1-c1ccn(Cc2ccccc2C#N)c1 (cis-trans isomerization)
C=c1/c(=C\c2[nH]c(=O)[n-]c2[O-])cc(C)n1-c1ccn(Cc2ccccc2C#N)c1 (3D coordinates assigned)
C=c1/c(=C\c2[nH]c(=O)[n-]c2[O-])cc(C)n1-c1ccn(Cc2ccccc2C#N)c1 (optimized conformer: 150.48780937318574 kcal/mol)

>  <smiles>  (88) 
C=c1c(=Cc2[nH]c(=O)[nH]c2O)cc(C)n1-c1ccn(Cc2ccccc2C#N)c1

>  <score_type>  (88) 
oracle

>  <origin>  (88) 
adg

>  <m_score__min__energy>  (88) 
-14.84

>  <m_primary>  (88) 
energy

$$$$
