0:0
     RDKit          3D

 48 51  0  0  0  0  0  0  0  0999 V2000
   59.5568   30.6993   48.3916 H   0  0  0  0  0  0  0  0  0  0  0  0
   59.1540   29.6980   48.1790 C   0  0  0  0  0  0  0  0  0  0  0  0
   59.2652   28.8919   48.9191 H   0  0  0  0  0  0  0  0  0  0  0  0
   58.5270   29.4600   47.0170 C   0  0  0  0  0  0  0  0  0  0  0  0
   57.9660   28.2450   46.6080 C   0  0  0  0  0  0  0  0  0  0  0  0
   57.9710   27.0760   47.2790 C   0  0  0  0  0  0  0  0  0  0  0  0
   58.6394   26.9823   48.1476 H   0  0  0  0  0  0  0  0  0  0  0  0
   57.1370   25.9170   46.9210 C   0  0  0  0  0  0  0  0  0  0  0  0
   57.4680   24.6480   47.2230 N   0  0  0  0  0  0  0  0  0  0  0  0
   56.4030   23.9350   46.7950 C   0  0  0  0  0  0  0  0  0  0  0  0
   56.3430   22.6820   46.8940 O   0  0  0  0  0  0  0  0  0  0  0  0
   55.4040   24.6710   46.2630 N   0  0  0  0  0  0  0  0  0  0  0  0
   55.8780   25.9240   46.3610 C   0  0  0  0  0  0  0  0  0  0  0  0
   55.1510   27.0490   45.9910 O   0  0  0  0  0  0  0  0  0  0  0  0
   57.4510   28.4630   45.3360 C   0  0  0  0  0  0  0  0  0  0  0  0
   56.9467   27.7239   44.6962 H   0  0  0  0  0  0  0  0  0  0  0  0
   57.6950   29.7870   45.0310 C   0  0  0  0  0  0  0  0  0  0  0  0
   57.3240   30.4470   43.7380 C   0  0  0  0  0  0  0  0  0  0  0  0
   56.7947   31.3887   43.9456 H   0  0  0  0  0  0  0  0  0  0  0  0
   58.2354   30.6585   43.1596 H   0  0  0  0  0  0  0  0  0  0  0  0
   56.6696   29.7783   43.1596 H   0  0  0  0  0  0  0  0  0  0  0  0
   58.3560   30.3890   46.0440 N   0  0  0  0  0  0  0  0  0  0  0  0
   58.7710   31.7640   46.0750 C   0  0  0  0  0  0  0  0  0  0  0  0
   60.0760   32.0920   46.4690 C   0  0  0  0  0  0  0  0  0  0  0  0
   60.7811   31.2918   46.7384 H   0  0  0  0  0  0  0  0  0  0  0  0
   60.4920   33.4340   46.5230 C   0  0  0  0  0  0  0  0  0  0  0  0
   61.8690   33.7830   46.9390 C   0  0  0  0  0  0  0  0  0  0  0  0
   62.6930   34.1820   46.0700 O   0  0  0  0  0  0  0  0  0  0  0  0
   62.2910   33.6750   48.3130 N   0  0  0  0  0  0  0  0  0  0  0  0
   63.7130   33.5650   48.6630 C   0  0  0  0  0  0  0  0  0  0  0  0
   64.0311   34.4837   49.1775 H   0  0  0  0  0  0  0  0  0  0  0  0
   64.2961   33.4249   47.7408 H   0  0  0  0  0  0  0  0  0  0  0  0
   63.9440   32.3870   49.5670 C   0  0  0  0  0  0  0  0  0  0  0  0
   65.1180   31.9710   49.7530 O   0  0  0  0  0  0  0  0  0  0  0  0
   62.8540   31.7740   50.2700 N   0  0  0  0  0  0  0  0  0  0  0  0
   63.0560   30.9790   50.9160 H   0  0  0  0  0  0  0  0  0  0  0  0
   61.4590   32.0520   49.9300 C   0  0  0  0  0  0  0  0  0  0  0  0
   60.8402   31.9482   50.8335 H   0  0  0  0  0  0  0  0  0  0  0  0
   61.1352   31.3371   49.1593 H   0  0  0  0  0  0  0  0  0  0  0  0
   61.3060   33.4670   49.3790 C   0  0  0  0  0  0  0  0  0  0  0  0
   61.4754   34.1965   50.1847 H   0  0  0  0  0  0  0  0  0  0  0  0
   60.2908   33.6009   48.9773 H   0  0  0  0  0  0  0  0  0  0  0  0
   59.5890   34.4430   46.1470 C   0  0  0  0  0  0  0  0  0  0  0  0
   59.9081   35.4956   46.1646 H   0  0  0  0  0  0  0  0  0  0  0  0
   58.2890   34.1190   45.7510 C   0  0  0  0  0  0  0  0  0  0  0  0
   57.5878   34.9169   45.4652 H   0  0  0  0  0  0  0  0  0  0  0  0
   57.8770   32.7840   45.7170 C   0  0  0  0  0  0  0  0  0  0  0  0
   56.6180   32.4810   45.3140 F   0  0  0  0  0  0  0  0  0  0  0  0
  1  2  1  0
  2  3  1  0
  2  4  2  0
  4  5  1  0
  5  6  2  0
  6  7  1  0
  6  8  1  0
  8  9  1  0
  9 10  1  0
 10 11  2  0
 10 12  1  0
 12 13  1  0
 13 14  1  0
  5 15  1  0
 15 16  1  0
 15 17  2  0
 17 18  1  0
 18 19  1  0
 18 20  1  0
 18 21  1  0
 17 22  1  0
 22 23  1  0
 23 24  2  0
 24 25  1  0
 24 26  1  0
 26 27  1  0
 27 28  2  0
 27 29  1  0
 29 30  1  0
 30 31  1  0
 30 32  1  0
 30 33  1  0
 33 34  2  0
 33 35  1  0
 35 36  1  0
 35 37  1  0
 37 38  1  0
 37 39  1  0
 37 40  1  0
 40 41  1  0
 40 42  1  0
 26 43  2  0
 43 44  1  0
 43 45  1  0
 45 46  1  0
 45 47  2  0
 47 48  1  0
 22  4  1  0
 47 23  1  0
 13  8  2  0
 40 29  1  0
M  CHG  3   9  -1  12  -1  14  -1
M  END
>  <UniqueID>  (1) 
1

>  <SMILES>  (1) 
C=c1/c(=C/c2[n-]c(=O)[n-]c2[O-])cc(C)n1-c1cc(C(=O)N2CCNC(=O)C2)ccc1F

>  <Energy>  (1) 
126.50287221491715

>  <Genealogy>  (1) 
C=c1c(=Cc2[n-]c(=O)[n-]c2[O-])cc(C)n1-c1cc(C(=O)N2CCNC(=O)C2)ccc1F (protonated)
C=c1/c(=C/c2[n-]c(=O)[n-]c2[O-])cc(C)n1-c1cc(C(=O)N2CCNC(=O)C2)ccc1F (cis-trans isomerization)
C=c1/c(=C/c2[n-]c(=O)[n-]c2[O-])cc(C)n1-c1cc(C(=O)N2CCNC(=O)C2)ccc1F (3D coordinates assigned)
C=c1/c(=C/c2[n-]c(=O)[n-]c2[O-])cc(C)n1-c1cc(C(=O)N2CCNC(=O)C2)ccc1F (nonaromatic ring conformer: 126.50287221491715 kcal/mol)

>  <smiles>  (1) 
C=c1c(=Cc2[nH]c(=O)[nH]c2O)cc(C)n1-c1cc(C(=O)N2CCNC(=O)C2)ccc1F

>  <score_type>  (1) 
oracle

>  <origin>  (1) 
adg

>  <m_score__min__energy>  (1) 
-16.289999999999999

>  <m_primary>  (1) 
energy

$$$$
1:0
     RDKit          3D

 38 40  0  0  0  0  0  0  0  0999 V2000
   60.4970   32.7170   50.9870 C   0  0  0  0  0  0  0  0  0  0  0  0
   59.6740   33.8590   49.8340 S   0  0  0  0  0  0  0  0  0  0  0  0
   61.0230   33.8070   48.6410 C   0  0  0  0  0  0  0  0  0  0  0  0
   62.3390   33.8250   49.1240 C   0  0  0  0  0  0  0  0  0  0  0  0
   63.4160   33.8120   48.2360 C   0  0  0  0  0  0  0  0  0  0  0  0
   63.1870   33.7760   46.8610 C   0  0  0  0  0  0  0  0  0  0  0  0
   61.8790   33.7540   46.3690 C   0  0  0  0  0  0  0  0  0  0  0  0
   60.7790   33.7720   47.2490 C   0  0  0  0  0  0  0  0  0  0  0  0
   59.4280   33.6840   46.7500 N   0  0  0  0  0  0  0  0  0  0  0  0
   58.9210   34.4370   45.6340 C   0  0  0  0  0  0  0  0  0  0  0  0
   59.5630   35.4230   45.1800 O   0  0  0  0  0  0  0  0  0  0  0  0
   57.5600   34.1370   45.0760 C   0  0  0  0  0  0  0  0  0  0  0  0
   57.0030   32.9090   45.6480 N   0  0  0  0  0  0  0  0  0  0  0  0
   57.2480   31.5380   44.6030 S   0  0  0  0  0  0  0  0  0  0  0  0
   57.6450   31.9980   43.2260 O   0  0  0  0  0  0  0  0  0  0  0  0
   55.9590   30.7710   44.4950 O   0  0  0  0  0  0  0  0  0  0  0  0
   58.4790   30.4650   45.2660 C   0  0  0  0  0  0  0  0  0  0  0  0
   59.0890   29.4580   44.4810 C   0  0  0  0  0  0  0  0  0  0  0  0
   60.0620   28.5970   45.0450 C   0  0  0  0  0  0  0  0  0  0  0  0
   60.4430   28.7360   46.3950 C   0  0  0  0  0  0  0  0  0  0  0  0
   59.8230   29.7410   47.1320 C   0  0  0  0  0  0  0  0  0  0  0  0
   60.0160   30.0910   48.4120 N   0  0  0  0  0  0  0  0  0  0  0  0
   59.1890   31.0910   48.6050 O   0  0  0  0  0  0  0  0  0  0  0  0
   58.4800   31.4170   47.5520 N   0  0  0  0  0  0  0  0  0  0  0  0
   58.8800   30.5580   46.6010 C   0  0  0  0  0  0  0  0  0  0  0  0
   60.2786   33.0200   52.0216 H   0  0  0  0  0  0  0  0  0  0  0  0
   60.1263   31.6952   50.8182 H   0  0  0  0  0  0  0  0  0  0  0  0
   61.5836   32.7454   50.8182 H   0  0  0  0  0  0  0  0  0  0  0  0
   62.5238   33.8495   50.2081 H   0  0  0  0  0  0  0  0  0  0  0  0
   64.4462   33.8302   48.6213 H   0  0  0  0  0  0  0  0  0  0  0  0
   64.0368   33.7649   46.1627 H   0  0  0  0  0  0  0  0  0  0  0  0
   61.7066   33.7223   45.2831 H   0  0  0  0  0  0  0  0  0  0  0  0
   58.7580   33.0510   47.2410 H   0  0  0  0  0  0  0  0  0  0  0  0
   56.8866   34.9758   45.3063 H   0  0  0  0  0  0  0  0  0  0  0  0
   57.6560   33.9983   43.9890 H   0  0  0  0  0  0  0  0  0  0  0  0
   58.8053   29.3430   43.4245 H   0  0  0  0  0  0  0  0  0  0  0  0
   60.5236   27.8143   44.4251 H   0  0  0  0  0  0  0  0  0  0  0  0
   61.1991   28.0775   46.8474 H   0  0  0  0  0  0  0  0  0  0  0  0
  1  2  1  0
  2  3  1  0
  3  4  2  0
  4  5  1  0
  5  6  2  0
  6  7  1  0
  7  8  2  0
  8  9  1  0
  9 10  1  0
 10 11  2  0
 10 12  1  0
 12 13  1  0
 13 14  1  0
 14 15  2  0
 14 16  2  0
 14 17  1  0
 17 18  2  0
 18 19  1  0
 19 20  2  0
 20 21  1  0
 21 22  2  0
 22 23  1  0
 23 24  1  0
 24 25  2  0
  8  3  1  0
 25 17  1  0
 25 21  1  0
  1 26  1  0
  1 27  1  0
  1 28  1  0
  4 29  1  0
  5 30  1  0
  6 31  1  0
  7 32  1  0
  9 33  1  0
 12 34  1  0
 12 35  1  0
 18 36  1  0
 19 37  1  0
 20 38  1  0
M  CHG  1  13  -1
M  END
>  <UniqueID>  (2) 
2

>  <SMILES>  (2) 
CSc1ccccc1NC(=O)C[N-]S(=O)(=O)c1cccc2nonc12

>  <Energy>  (2) 
77.94999313135894

>  <Genealogy>  (2) 
CSc1ccccc1NC(=O)C[N-]S(=O)(=O)c1cccc2nonc12 (protonated)
CSc1ccccc1NC(=O)C[N-]S(=O)(=O)c1cccc2nonc12 (3D coordinates assigned)
CSc1ccccc1NC(=O)C[N-]S(=O)(=O)c1cccc2nonc12 (optimized conformer: 77.94999313135894 kcal/mol)

>  <smiles>  (2) 
CSc1ccccc1NC(=O)CNS(=O)(=O)c1cccc2nonc12

>  <score_type>  (2) 
oracle

>  <origin>  (2) 
adg

>  <m_score__min__energy>  (2) 
-10.529999999999999

>  <m_primary>  (2) 
energy

$$$$
2:0
     RDKit          3D

 57 61  0  0  0  0  0  0  0  0999 V2000
   55.1360   27.4980   45.2820 H   0  0  0  0  0  0  0  0  0  0  0  0
   55.1410   26.7740   45.9920 O   0  0  0  0  0  0  0  0  0  0  0  0
   55.1670   25.4250   45.6560 C   0  0  0  0  0  0  0  0  0  0  0  0
   54.1220   24.5990   45.8350 N   0  0  0  0  0  0  0  0  0  0  0  0
   54.5580   23.4390   45.3000 C   0  0  0  0  0  0  0  0  0  0  0  0
   53.8490   22.4020   45.2590 O   0  0  0  0  0  0  0  0  0  0  0  0
   55.8100   23.4880   44.7960 N   0  0  0  0  0  0  0  0  0  0  0  0
   56.2090   24.7430   45.0550 C   0  0  0  0  0  0  0  0  0  0  0  0
   57.4730   25.2930   44.5440 C   0  0  0  0  0  0  0  0  0  0  0  0
   58.0402   24.6575   43.8480 H   0  0  0  0  0  0  0  0  0  0  0  0
   58.0100   26.4930   44.8380 C   0  0  0  0  0  0  0  0  0  0  0  0
   57.5890   27.6620   44.2230 C   0  0  0  0  0  0  0  0  0  0  0  0
   56.8417   27.7466   43.4203 H   0  0  0  0  0  0  0  0  0  0  0  0
   58.2830   28.6960   44.8070 C   0  0  0  0  0  0  0  0  0  0  0  0
   58.1220   30.1420   44.4320 C   0  0  0  0  0  0  0  0  0  0  0  0
   58.0541   30.7521   45.3448 H   0  0  0  0  0  0  0  0  0  0  0  0
   58.9897   30.4656   43.8383 H   0  0  0  0  0  0  0  0  0  0  0  0
   57.2044   30.2669   43.8383 H   0  0  0  0  0  0  0  0  0  0  0  0
   59.1460   28.2190   45.7320 N   0  0  0  0  0  0  0  0  0  0  0  0
   59.9950   29.0310   46.5660 C   0  0  0  0  0  0  0  0  0  0  0  0
   60.9660   29.8550   45.9900 C   0  0  0  0  0  0  0  0  0  0  0  0
   61.1499   29.8095   44.9064 H   0  0  0  0  0  0  0  0  0  0  0  0
   61.7040   30.7360   46.7840 C   0  0  0  0  0  0  0  0  0  0  0  0
   62.4703   31.3761   46.3224 H   0  0  0  0  0  0  0  0  0  0  0  0
   61.4750   30.8100   48.1640 C   0  0  0  0  0  0  0  0  0  0  0  0
   62.1500   31.7970   48.9590 N   0  0  0  0  0  0  0  0  0  0  0  0
   62.8810   32.8790   48.2810 C   0  0  0  0  0  0  0  0  0  0  0  0
   63.4980   32.4465   47.4796 H   0  0  0  0  0  0  0  0  0  0  0  0
   62.1470   33.5876   47.8697 H   0  0  0  0  0  0  0  0  0  0  0  0
   63.7880   33.6360   49.2540 C   0  0  0  0  0  0  0  0  0  0  0  0
   64.5450   34.1952   48.6846 H   0  0  0  0  0  0  0  0  0  0  0  0
   63.1759   34.3303   49.8484 H   0  0  0  0  0  0  0  0  0  0  0  0
   64.4580   32.6970   50.1570 N   0  0  0  0  0  0  0  0  0  0  0  0
   65.8730   32.7980   50.3640 C   0  0  0  0  0  0  0  0  0  0  0  0
   66.6550   32.7190   49.3800 O   0  0  0  0  0  0  0  0  0  0  0  0
   66.4350   32.9110   51.7460 C   0  0  0  0  0  0  0  0  0  0  0  0
   65.4701   32.9309   52.2738 H   0  0  0  0  0  0  0  0  0  0  0  0
   67.7280   33.7020   51.8200 C   0  0  0  0  0  0  0  0  0  0  0  0
   68.1330   34.1798   50.9157 H   0  0  0  0  0  0  0  0  0  0  0  0
   68.0910   34.5441   52.4275 H   0  0  0  0  0  0  0  0  0  0  0  0
   67.7540   32.1930   51.9560 C   0  0  0  0  0  0  0  0  0  0  0  0
   68.1782   31.5756   51.1505 H   0  0  0  0  0  0  0  0  0  0  0  0
   68.1441   31.4864   52.7034 H   0  0  0  0  0  0  0  0  0  0  0  0
   63.6860   31.6720   50.8750 C   0  0  0  0  0  0  0  0  0  0  0  0
   64.1319   30.6855   50.6800 H   0  0  0  0  0  0  0  0  0  0  0  0
   63.7134   31.9059   51.9495 H   0  0  0  0  0  0  0  0  0  0  0  0
   62.2210   31.6570   50.4200 C   0  0  0  0  0  0  0  0  0  0  0  0
   61.7561   30.7058   50.7183 H   0  0  0  0  0  0  0  0  0  0  0  0
   61.6868   32.4955   50.8907 H   0  0  0  0  0  0  0  0  0  0  0  0
   60.5260   29.9650   48.7460 C   0  0  0  0  0  0  0  0  0  0  0  0
   60.3554   29.9990   49.8322 H   0  0  0  0  0  0  0  0  0  0  0  0
   59.7920   29.0760   47.9530 C   0  0  0  0  0  0  0  0  0  0  0  0
   58.8480   28.2970   48.5240 F   0  0  0  0  0  0  0  0  0  0  0  0
   59.0160   26.8670   45.7470 C   0  0  0  0  0  0  0  0  0  0  0  0
   59.8370   26.0610   46.4340 C   0  0  0  0  0  0  0  0  0  0  0  0
   60.5847   26.4904   47.1171 H   0  0  0  0  0  0  0  0  0  0  0  0
   59.7633   24.9700   46.3149 H   0  0  0  0  0  0  0  0  0  0  0  0
  1  2  1  0
  2  3  1  0
  3  4  1  0
  4  5  1  0
  5  6  2  0
  5  7  1  0
  7  8  1  0
  8  9  1  0
  9 10  1  0
  9 11  2  0
 11 12  1  0
 12 13  1  0
 12 14  2  0
 14 15  1  0
 15 16  1  0
 15 17  1  0
 15 18  1  0
 14 19  1  0
 19 20  1  0
 20 21  2  0
 21 22  1  0
 21 23  1  0
 23 24  1  0
 23 25  2  0
 25 26  1  0
 26 27  1  0
 27 28  1  0
 27 29  1  0
 27 30  1  0
 30 31  1  0
 30 32  1  0
 30 33  1  0
 33 34  1  0
 34 35  2  0
 34 36  1  0
 36 37  1  0
 36 38  1  0
 38 39  1  0
 38 40  1  0
 38 41  1  0
 41 42  1  0
 41 43  1  0
 33 44  1  0
 44 45  1  0
 44 46  1  0
 44 47  1  0
 47 48  1  0
 47 49  1  0
 25 50  1  0
 50 51  1  0
 50 52  2  0
 52 53  1  0
 19 54  1  0
 54 55  2  0
 55 56  1  0
 55 57  1  0
  8  3  2  0
 54 11  1  0
 52 20  1  0
 47 26  1  0
 41 36  1  0
M  CHG  2   4  -1   7  -1
M  END
>  <UniqueID>  (3) 
3

>  <SMILES>  (3) 
C=c1/c(=C\c2[n-]c(=O)[n-]c2O)cc(C)n1-c1ccc(N2CCN(C(=O)C3CC3)CC2)cc1F

>  <Energy>  (3) 
408.3375661575577

>  <Genealogy>  (3) 
C=c1c(=Cc2[n-]c(=O)[n-]c2O)cc(C)n1-c1ccc(N2CCN(C(=O)C3CC3)CC2)cc1F (protonated)
C=c1/c(=C\c2[n-]c(=O)[n-]c2O)cc(C)n1-c1ccc(N2CCN(C(=O)C3CC3)CC2)cc1F (cis-trans isomerization)
C=c1/c(=C\c2[n-]c(=O)[n-]c2O)cc(C)n1-c1ccc(N2CCN(C(=O)C3CC3)CC2)cc1F (3D coordinates assigned)
C=c1/c(=C\c2[n-]c(=O)[n-]c2O)cc(C)n1-c1ccc(N2CCN(C(=O)C3CC3)CC2)cc1F (nonaromatic ring conformer: 408.3375661575577 kcal/mol)

>  <smiles>  (3) 
C=c1c(=Cc2[nH]c(=O)[nH]c2O)cc(C)n1-c1ccc(N2CCN(C(=O)C3CC3)CC2)cc1F

>  <score_type>  (3) 
oracle

>  <origin>  (3) 
adg

>  <m_score__min__energy>  (3) 
-12.880000000000001

>  <m_primary>  (3) 
energy

$$$$
3:0
     RDKit          3D

 43 45  0  0  0  0  0  0  0  0999 V2000
   59.2017   30.6818   48.6429 H   0  0  0  0  0  0  0  0  0  0  0  0
   58.9790   30.1950   47.6820 C   0  0  0  0  0  0  0  0  0  0  0  0
   59.1712   29.1197   47.5526 H   0  0  0  0  0  0  0  0  0  0  0  0
   58.4720   30.9140   46.6660 C   0  0  0  0  0  0  0  0  0  0  0  0
   58.1450   30.4220   45.3980 C   0  0  0  0  0  0  0  0  0  0  0  0
   58.2370   29.1490   44.9640 C   0  0  0  0  0  0  0  0  0  0  0  0
   59.0129   28.9113   44.2214 H   0  0  0  0  0  0  0  0  0  0  0  0
   57.3610   28.0560   45.4240 C   0  0  0  0  0  0  0  0  0  0  0  0
   57.8160   26.9760   46.0840 N   0  0  0  0  0  0  0  0  0  0  0  0
   56.6890   26.2940   46.3820 C   0  0  0  0  0  0  0  0  0  0  0  0
   56.7040   25.1980   47.0000 O   0  0  0  0  0  0  0  0  0  0  0  0
   55.5450   26.8840   45.9770 N   0  0  0  0  0  0  0  0  0  0  0  0
   55.9850   28.0050   45.3830 C   0  0  0  0  0  0  0  0  0  0  0  0
   55.1430   28.9780   44.8590 O   0  0  0  0  0  0  0  0  0  0  0  0
   57.7780   31.5210   44.6380 C   0  0  0  0  0  0  0  0  0  0  0  0
   57.4728   31.5152   43.5812 H   0  0  0  0  0  0  0  0  0  0  0  0
   57.8690   32.6240   45.4620 C   0  0  0  0  0  0  0  0  0  0  0  0
   57.6620   34.0350   44.9990 C   0  0  0  0  0  0  0  0  0  0  0  0
   57.5649   34.6969   45.8722 H   0  0  0  0  0  0  0  0  0  0  0  0
   58.5233   34.3520   44.3926 H   0  0  0  0  0  0  0  0  0  0  0  0
   56.7460   34.0913   44.3926 H   0  0  0  0  0  0  0  0  0  0  0  0
   58.2560   32.2570   46.7100 N   0  0  0  0  0  0  0  0  0  0  0  0
   58.4810   33.1670   47.8470 C   0  0  0  0  0  0  0  0  0  0  0  0
   57.5578   33.7389   48.0223 H   0  0  0  0  0  0  0  0  0  0  0  0
   58.7574   32.5424   48.7093 H   0  0  0  0  0  0  0  0  0  0  0  0
   59.6470   34.1730   47.6210 C   0  0  0  0  0  0  0  0  0  0  0  0
   59.5410   34.5777   46.6037 H   0  0  0  0  0  0  0  0  0  0  0  0
   59.5445   34.9090   48.4321 H   0  0  0  0  0  0  0  0  0  0  0  0
   61.0340   33.6540   47.7520 N   0  0  0  0  0  0  0  0  0  0  0  0
   60.9020   32.6240   47.9020 H   0  0  0  0  0  0  0  0  0  0  0  0
   61.7420   34.1650   48.9460 C   0  0  0  0  0  0  0  0  0  0  0  0
   62.1654   35.1534   48.7142 H   0  0  0  0  0  0  0  0  0  0  0  0
   61.0192   34.2313   49.7725 H   0  0  0  0  0  0  0  0  0  0  0  0
   62.8820   33.2210   49.3770 C   0  0  0  0  0  0  0  0  0  0  0  0
   63.6544   33.8195   49.8822 H   0  0  0  0  0  0  0  0  0  0  0  0
   62.4351   32.4626   50.0367 H   0  0  0  0  0  0  0  0  0  0  0  0
   63.6700   32.3170   47.9850 S   0  0  0  0  0  0  0  0  0  0  0  0
   63.3400   33.5850   46.7190 C   0  0  0  0  0  0  0  0  0  0  0  0
   63.7903   34.5357   47.0405 H   0  0  0  0  0  0  0  0  0  0  0  0
   63.7772   33.2438   45.7691 H   0  0  0  0  0  0  0  0  0  0  0  0
   61.8290   33.7950   46.5050 C   0  0  0  0  0  0  0  0  0  0  0  0
   61.6706   34.8063   46.1024 H   0  0  0  0  0  0  0  0  0  0  0  0
   61.4866   33.0140   45.8101 H   0  0  0  0  0  0  0  0  0  0  0  0
  1  2  1  0
  2  3  1  0
  2  4  2  0
  4  5  1  0
  5  6  2  0
  6  7  1  0
  6  8  1  0
  8  9  1  0
  9 10  1  0
 10 11  2  0
 10 12  1  0
 12 13  1  0
 13 14  1  0
  5 15  1  0
 15 16  1  0
 15 17  2  0
 17 18  1  0
 18 19  1  0
 18 20  1  0
 18 21  1  0
 17 22  1  0
 22 23  1  0
 23 24  1  0
 23 25  1  0
 23 26  1  0
 26 27  1  0
 26 28  1  0
 26 29  1  0
 29 30  1  0
 29 31  1  0
 31 32  1  0
 31 33  1  0
 31 34  1  0
 34 35  1  0
 34 36  1  0
 34 37  1  0
 37 38  1  0
 38 39  1  0
 38 40  1  0
 38 41  1  0
 41 42  1  0
 41 43  1  0
 22  4  1  0
 41 29  1  0
 13  8  2  0
M  CHG  4   9  -1  12  -1  14  -1  29   1
M  END
>  <UniqueID>  (4) 
4

>  <SMILES>  (4) 
C=c1/c(=C/c2[n-]c(=O)[n-]c2[O-])cc(C)n1CC[NH+]1CCSCC1

>  <Energy>  (4) 
119.47117728895894

>  <Genealogy>  (4) 
C=c1c(=Cc2[n-]c(=O)[n-]c2[O-])cc(C)n1CC[NH+]1CCSCC1 (protonated)
C=c1/c(=C/c2[n-]c(=O)[n-]c2[O-])cc(C)n1CC[NH+]1CCSCC1 (cis-trans isomerization)
C=c1/c(=C/c2[n-]c(=O)[n-]c2[O-])cc(C)n1CC[NH+]1CCSCC1 (3D coordinates assigned)
C=c1/c(=C/c2[n-]c(=O)[n-]c2[O-])cc(C)n1CC[NH+]1CCSCC1 (nonaromatic ring conformer: 119.47117728895894 kcal/mol)

>  <smiles>  (4) 
C=c1c(=Cc2[nH]c(=O)[nH]c2O)cc(C)n1CCN1CCSCC1

>  <score_type>  (4) 
oracle

>  <origin>  (4) 
adg

>  <m_score__min__energy>  (4) 
-14.34

>  <m_primary>  (4) 
energy

$$$$
4:0
     RDKit          3D

 27 28  0  0  0  0  0  0  0  0999 V2000
   57.8230   33.8570   47.1300 N   0  0  0  0  0  0  0  0  0  0  0  0
   58.7030   33.7830   45.6450 S   0  0  0  0  0  0  0  0  0  0  0  0
   58.5170   35.0670   44.8880 O   0  0  0  0  0  0  0  0  0  0  0  0
   60.1660   33.6040   45.9380 O   0  0  0  0  0  0  0  0  0  0  0  0
   58.1200   32.4310   44.6790 C   0  0  0  0  0  0  0  0  0  0  0  0
   57.7460   32.6280   43.3420 C   0  0  0  0  0  0  0  0  0  0  0  0
   57.2700   31.5570   42.5800 C   0  0  0  0  0  0  0  0  0  0  0  0
   57.1600   30.2850   43.1500 C   0  0  0  0  0  0  0  0  0  0  0  0
   57.5240   30.0830   44.4880 C   0  0  0  0  0  0  0  0  0  0  0  0
   57.4060   28.7740   45.0760 C   0  0  0  0  0  0  0  0  0  0  0  0
   57.3070   27.6790   45.5690 C   0  0  0  0  0  0  0  0  0  0  0  0
   57.1870   26.3710   46.1610 C   0  0  0  0  0  0  0  0  0  0  0  0
   58.3290   25.6760   46.5690 C   0  0  0  0  0  0  0  0  0  0  0  0
   58.2110   24.4430   47.1270 N   0  0  0  0  0  0  0  0  0  0  0  0
   56.9930   23.8680   47.2980 C   0  0  0  0  0  0  0  0  0  0  0  0
   56.9030   22.7260   47.8180 O   0  0  0  0  0  0  0  0  0  0  0  0
   55.8690   24.5250   46.9090 N   0  0  0  0  0  0  0  0  0  0  0  0
   55.9380   25.7600   46.3460 C   0  0  0  0  0  0  0  0  0  0  0  0
   54.8780   26.3430   45.9960 O   0  0  0  0  0  0  0  0  0  0  0  0
   58.0010   31.1560   45.2510 C   0  0  0  0  0  0  0  0  0  0  0  0
   56.8710   34.2230   46.9030 H   0  0  0  0  0  0  0  0  0  0  0  0
   58.2880   34.5790   47.7250 H   0  0  0  0  0  0  0  0  0  0  0  0
   57.8274   33.6282   42.8914 H   0  0  0  0  0  0  0  0  0  0  0  0
   56.9815   31.7152   41.5304 H   0  0  0  0  0  0  0  0  0  0  0  0
   56.7877   29.4429   42.5481 H   0  0  0  0  0  0  0  0  0  0  0  0
   59.3235   26.1275   46.4382 H   0  0  0  0  0  0  0  0  0  0  0  0
   58.2833   30.9983   46.3024 H   0  0  0  0  0  0  0  0  0  0  0  0
  1  2  1  0
  2  3  2  0
  2  4  2  0
  2  5  1  0
  5  6  2  0
  6  7  1  0
  7  8  2  0
  8  9  1  0
  9 10  1  0
 10 11  3  0
 11 12  1  0
 12 13  2  0
 13 14  1  0
 14 15  1  0
 15 16  2  0
 15 17  1  0
 17 18  1  0
 18 19  2  0
  9 20  2  0
 20  5  1  0
 18 12  1  0
  1 21  1  0
  1 22  1  0
  6 23  1  0
  7 24  1  0
  8 25  1  0
 13 26  1  0
 20 27  1  0
M  CHG  2  14  -1  17  -1
M  END
>  <UniqueID>  (5) 
5

>  <SMILES>  (5) 
NS(=O)(=O)c1cccc(C#Cc2c[n-]c(=O)[n-]c2=O)c1

>  <Energy>  (5) 
24.561625948577426

>  <Genealogy>  (5) 
NS(=O)(=O)c1cccc(C#Cc2c[n-]c(=O)[n-]c2=O)c1 (protonated)
NS(=O)(=O)c1cccc(C#Cc2c[n-]c(=O)[n-]c2=O)c1 (3D coordinates assigned)
NS(=O)(=O)c1cccc(C#Cc2c[n-]c(=O)[n-]c2=O)c1 (optimized conformer: 24.561625948577426 kcal/mol)

>  <smiles>  (5) 
NS(=O)(=O)c1cccc(C#Cc2c[nH]c(=O)[nH]c2=O)c1

>  <score_type>  (5) 
oracle

>  <origin>  (5) 
adg

>  <m_score__min__energy>  (5) 
-10.66

>  <m_primary>  (5) 
energy

$$$$
5:0
     RDKit          3D

 43 45  0  0  0  0  0  0  0  0999 V2000
   56.7890   31.0700   43.0700 O   0  0  0  0  0  0  0  0  0  0  0  0
   57.1770   31.0890   44.2680 C   0  0  0  0  0  0  0  0  0  0  0  0
   58.1780   30.0620   44.7230 C   0  0  0  0  0  0  0  0  0  0  0  0
   57.4910   28.8050   45.1590 C   0  0  0  0  0  0  0  0  0  0  0  0
   58.1320   27.6950   45.5710 N   0  0  0  0  0  0  0  0  0  0  0  0
   57.1250   26.8510   45.8820 C   0  0  0  0  0  0  0  0  0  0  0  0
   57.3270   25.6850   46.3110 O   0  0  0  0  0  0  0  0  0  0  0  0
   55.8850   27.3540   45.7000 N   0  0  0  0  0  0  0  0  0  0  0  0
   56.1340   28.5950   45.2470 C   0  0  0  0  0  0  0  0  0  0  0  0
   55.1460   29.5160   44.9170 O   0  0  0  0  0  0  0  0  0  0  0  0
   56.6210   32.0680   45.1570 N   0  0  0  0  0  0  0  0  0  0  0  0
   57.2590   33.3200   45.5650 C   0  0  2  0  0  0  0  0  0  0  0  0
   58.3380   33.6870   44.5360 C   0  0  0  0  0  0  0  0  0  0  0  0
   59.0890   34.9620   44.9540 C   0  0  0  0  0  0  0  0  0  0  0  0
   59.4280   34.9820   46.4600 C   0  0  0  0  0  0  0  0  0  0  0  0
   59.2640   33.6390   47.0490 N   0  0  0  0  0  0  0  0  0  0  0  0
   59.8600   33.5160   48.4000 C   0  0  0  0  0  0  0  0  0  0  0  0
   61.3740   33.3920   48.4000 C   0  0  0  0  0  0  0  0  0  0  0  0
   62.0500   33.1150   47.1970 C   0  0  0  0  0  0  0  0  0  0  0  0
   63.4410   32.9820   47.1800 C   0  0  0  0  0  0  0  0  0  0  0  0
   64.1740   33.1370   48.3560 C   0  0  0  0  0  0  0  0  0  0  0  0
   63.5190   33.4350   49.5520 C   0  0  0  0  0  0  0  0  0  0  0  0
   62.1260   33.5710   49.5810 C   0  0  0  0  0  0  0  0  0  0  0  0
   61.5020   33.8930   50.7810 O   0  0  0  0  0  0  0  0  0  0  0  0
   57.8520   33.2010   46.9940 C   0  0  0  0  0  0  0  0  0  0  0  0
   58.8599   29.8303   43.8916 H   0  0  0  0  0  0  0  0  0  0  0  0
   58.7389   30.4709   45.5764 H   0  0  0  0  0  0  0  0  0  0  0  0
   55.1860   30.4650   45.2690 H   0  0  0  0  0  0  0  0  0  0  0  0
   56.5077   34.1228   45.5975 H   0  0  0  0  0  0  0  0  0  0  0  0
   59.0555   32.8571   44.4560 H   0  0  0  0  0  0  0  0  0  0  0  0
   57.8499   33.8701   43.5674 H   0  0  0  0  0  0  0  0  0  0  0  0
   60.0258   35.0235   44.3808 H   0  0  0  0  0  0  0  0  0  0  0  0
   58.4316   35.8196   44.7481 H   0  0  0  0  0  0  0  0  0  0  0  0
   60.4700   35.3092   46.5913 H   0  0  0  0  0  0  0  0  0  0  0  0
   58.7431   35.6771   46.9677 H   0  0  0  0  0  0  0  0  0  0  0  0
   59.5864   34.4090   48.9811 H   0  0  0  0  0  0  0  0  0  0  0  0
   59.4653   32.5874   48.8379 H   0  0  0  0  0  0  0  0  0  0  0  0
   61.4793   33.0024   46.2634 H   0  0  0  0  0  0  0  0  0  0  0  0
   63.9589   32.7545   46.2366 H   0  0  0  0  0  0  0  0  0  0  0  0
   65.2681   33.0245   48.3412 H   0  0  0  0  0  0  0  0  0  0  0  0
   64.1005   33.5637   50.4768 H   0  0  0  0  0  0  0  0  0  0  0  0
   57.7937   32.1508   47.3159 H   0  0  0  0  0  0  0  0  0  0  0  0
   57.2684   33.8552   47.6584 H   0  0  0  0  0  0  0  0  0  0  0  0
  1  2  2  0
  2  3  1  0
  3  4  1  0
  4  5  1  0
  5  6  1  0
  6  7  2  0
  6  8  1  0
  8  9  1  0
  9 10  1  0
  2 11  1  0
 11 12  1  0
 12 13  1  0
 13 14  1  0
 14 15  1  0
 15 16  1  0
 16 17  1  0
 17 18  1  0
 18 19  2  0
 19 20  1  0
 20 21  2  0
 21 22  1  0
 22 23  2  0
 23 24  1  0
 16 25  1  0
  9  4  2  0
 25 12  1  0
 23 18  1  0
  3 26  1  0
  3 27  1  0
 10 28  1  0
 12 29  1  1
 13 30  1  0
 13 31  1  0
 14 32  1  0
 14 33  1  0
 15 34  1  0
 15 35  1  0
 17 36  1  0
 17 37  1  0
 19 38  1  0
 20 39  1  0
 21 40  1  0
 22 41  1  0
 25 42  1  0
 25 43  1  0
M  CHG  4   5  -1   8  -1  11  -1  24  -1
M  END
>  <UniqueID>  (6) 
6

>  <SMILES>  (6) 
O=C(Cc1[n-]c(=O)[n-]c1O)[N-][C@@H]1CCCN(Cc2ccccc2[O-])C1

>  <Energy>  (6) 
77.80342059622211

>  <Genealogy>  (6) 
O=C(Cc1[n-]c(=O)[n-]c1O)[N-]C1CCCN(Cc2ccccc2[O-])C1 (protonated)
O=C(Cc1[n-]c(=O)[n-]c1O)[N-][C@@H]1CCCN(Cc2ccccc2[O-])C1 (chirality)
O=C(Cc1[n-]c(=O)[n-]c1O)[N-][C@@H]1CCCN(Cc2ccccc2[O-])C1 (3D coordinates assigned)
O=C(Cc1[n-]c(=O)[n-]c1O)[N-][C@@H]1CCCN(Cc2ccccc2[O-])C1 (nonaromatic ring conformer: 77.80342059622211 kcal/mol)

>  <smiles>  (6) 
O=C(Cc1[nH]c(=O)[nH]c1O)NC1CCCN(Cc2ccccc2O)C1

>  <score_type>  (6) 
oracle

>  <origin>  (6) 
adg

>  <m_score__min__energy>  (6) 
-15.890000000000001

>  <m_primary>  (6) 
energy

$$$$
6:0
     RDKit          3D

 50 53  0  0  0  0  0  0  0  0999 V2000
   55.1770   29.3280   44.8620 N   0  0  0  0  0  0  0  0  0  0  0  0
   56.2970   29.4020   43.9830 C   0  0  0  0  0  0  0  0  0  0  0  0
   56.2590   30.1700   42.9840 O   0  0  0  0  0  0  0  0  0  0  0  0
   57.5000   28.5330   44.2330 C   0  0  1  0  0  0  0  0  0  0  0  0
   58.7580   29.3850   44.4150 C   0  0  0  0  0  0  0  0  0  0  0  0
   58.9470   29.4980   45.9320 C   0  0  1  0  0  0  0  0  0  0  0  0
   60.4150   29.7040   46.3740 C   0  0  0  0  0  0  0  0  0  0  0  0
   60.3440   31.0280   47.0700 C   0  0  0  0  0  0  0  0  0  0  0  0
   61.4920   31.7260   47.7000 C   0  0  0  0  0  0  0  0  0  0  0  0
   62.0270   32.8890   47.1220 C   0  0  0  0  0  0  0  0  0  0  0  0
   63.1060   33.5440   47.7160 C   0  0  0  0  0  0  0  0  0  0  0  0
   63.6720   33.0540   48.8960 C   0  0  0  0  0  0  0  0  0  0  0  0
   64.7500   33.7410   49.4570 O   0  0  0  0  0  0  0  0  0  0  0  0
   63.1540   31.8900   49.4940 C   0  0  0  0  0  0  0  0  0  0  0  0
   63.7500   31.4000   50.7070 N   0  0  0  0  0  0  0  0  0  0  0  0
   64.9970   31.1870   50.8560 C   0  0  0  0  0  0  0  0  0  0  0  0
   66.5750   30.9180   51.0450 S   0  0  0  0  0  0  0  0  0  0  0  0
   62.0620   31.2330   48.8880 C   0  0  0  0  0  0  0  0  0  0  0  0
   59.1510   31.5170   47.0650 N   0  0  0  0  0  0  0  0  0  0  0  0
   58.2980   30.6650   46.4170 O   0  0  0  0  0  0  0  0  0  0  0  0
   58.2800   28.2470   46.5120 C   0  0  0  0  0  0  0  0  0  0  0  0
   57.3540   27.7910   45.4840 N   0  0  0  0  0  0  0  0  0  0  0  0
   56.6280   26.5520   45.6100 C   0  0  0  0  0  0  0  0  0  0  0  0
   55.4270   26.5690   45.9930 O   0  0  0  0  0  0  0  0  0  0  0  0
   57.2640   25.2540   45.3400 C   0  0  0  0  0  0  0  0  0  0  0  0
   58.5120   24.9440   45.8960 C   0  0  0  0  0  0  0  0  0  0  0  0
   59.1040   23.7050   45.6450 C   0  0  0  0  0  0  0  0  0  0  0  0
   58.4640   22.7760   44.8210 C   0  0  0  0  0  0  0  0  0  0  0  0
   57.2340   23.0900   44.2160 C   0  0  0  0  0  0  0  0  0  0  0  0
   56.5230   22.0750   43.3560 C   0  0  0  0  0  0  0  0  0  0  0  0
   55.9080   21.1410   44.1690 F   0  0  0  0  0  0  0  0  0  0  0  0
   55.5650   22.6890   42.5680 F   0  0  0  0  0  0  0  0  0  0  0  0
   57.4180   21.4260   42.5220 F   0  0  0  0  0  0  0  0  0  0  0  0
   56.6320   24.3290   44.4960 C   0  0  0  0  0  0  0  0  0  0  0  0
   55.1460   28.6230   45.6300 H   0  0  0  0  0  0  0  0  0  0  0  0
   57.5827   27.8611   43.3660 H   0  0  0  0  0  0  0  0  0  0  0  0
   59.6272   28.8941   43.9529 H   0  0  0  0  0  0  0  0  0  0  0  0
   58.6611   30.3709   43.9369 H   0  0  0  0  0  0  0  0  0  0  0  0
   60.7420   28.9084   47.0596 H   0  0  0  0  0  0  0  0  0  0  0  0
   61.1374   29.6754   45.5450 H   0  0  0  0  0  0  0  0  0  0  0  0
   61.5916   33.2866   46.1934 H   0  0  0  0  0  0  0  0  0  0  0  0
   63.5146   34.4537   47.2517 H   0  0  0  0  0  0  0  0  0  0  0  0
   65.1730   33.4650   50.3350 H   0  0  0  0  0  0  0  0  0  0  0  0
   61.6511   30.3235   49.3505 H   0  0  0  0  0  0  0  0  0  0  0  0
   59.0321   27.4727   46.7235 H   0  0  0  0  0  0  0  0  0  0  0  0
   57.7657   28.4600   47.4608 H   0  0  0  0  0  0  0  0  0  0  0  0
   59.0268   25.6790   46.5321 H   0  0  0  0  0  0  0  0  0  0  0  0
   60.0764   23.4597   46.0969 H   0  0  0  0  0  0  0  0  0  0  0  0
   58.9250   21.7930   44.6444 H   0  0  0  0  0  0  0  0  0  0  0  0
   55.6573   24.5752   44.0495 H   0  0  0  0  0  0  0  0  0  0  0  0
  1  2  1  0
  2  3  2  0
  2  4  1  0
  4  5  1  0
  5  6  1  0
  6  7  1  0
  7  8  1  0
  8  9  1  0
  9 10  2  0
 10 11  1  0
 11 12  2  0
 12 13  1  0
 12 14  1  0
 14 15  1  0
 15 16  2  0
 16 17  2  0
 14 18  2  0
  8 19  2  0
 19 20  1  0
  6 21  1  0
 21 22  1  0
 22 23  1  0
 23 24  2  0
 23 25  1  0
 25 26  2  0
 26 27  1  0
 27 28  2  0
 28 29  1  0
 29 30  1  0
 30 31  1  0
 30 32  1  0
 30 33  1  0
 29 34  2  0
 22  4  1  0
 34 25  1  0
  6 20  1  1
 18  9  1  0
  1 35  1  0
  4 36  1  6
  5 37  1  0
  5 38  1  0
  7 39  1  0
  7 40  1  0
 10 41  1  0
 11 42  1  0
 13 43  1  0
 18 44  1  0
 21 45  1  0
 21 46  1  0
 26 47  1  0
 27 48  1  0
 28 49  1  0
 34 50  1  0
M  CHG  1   1  -1
M  END
>  <UniqueID>  (7) 
7

>  <SMILES>  (7) 
[NH-]C(=O)[C@H]1C[C@]2(CC(c3ccc(O)c(N=C=S)c3)=NO2)CN1C(=O)c1cccc(C(F)(F)F)c1

>  <Energy>  (7) 
77.09615250804642

>  <Genealogy>  (7) 
[NH-]C(=O)C1CC2(CC(c3ccc(O)c(N=C=S)c3)=NO2)CN1C(=O)c1cccc(C(F)(F)F)c1 (protonated)
[NH-]C(=O)[C@H]1C[C@]2(CC(c3ccc(O)c(N=C=S)c3)=NO2)CN1C(=O)c1cccc(C(F)(F)F)c1 (chirality)
[NH-]C(=O)[C@H]1C[C@]2(CC(c3ccc(O)c(N=C=S)c3)=NO2)CN1C(=O)c1cccc(C(F)(F)F)c1 (3D coordinates assigned)
[NH-]C(=O)[C@H]1C[C@]2(CC(c3ccc(O)c(N=C=S)c3)=NO2)CN1C(=O)c1cccc(C(F)(F)F)c1 (nonaromatic ring conformer: 77.09615250804642 kcal/mol)

>  <smiles>  (7) 
NC(=O)C1CC2(CC(c3ccc(O)c(N=C=S)c3)=NO2)CN1C(=O)c1cccc(C(F)(F)F)c1

>  <score_type>  (7) 
oracle

>  <origin>  (7) 
adg

>  <m_score__min__energy>  (7) 
-12.380000000000001

>  <m_primary>  (7) 
energy

$$$$
7:0
     RDKit          3D

 46 49  0  0  0  0  0  0  0  0999 V2000
   55.8290   30.0200   44.1100 C   0  0  0  0  0  0  0  0  0  0  0  0
   57.0620   30.0550   43.6000 C   0  0  0  0  0  0  0  0  0  0  0  0
   57.8140   31.3470   43.4440 C   0  0  0  0  0  0  0  0  0  0  0  0
   57.7890   32.1070   44.6950 N   0  0  0  0  0  0  0  0  0  0  0  0
   57.3760   33.3860   44.8670 C   0  0  0  0  0  0  0  0  0  0  0  0
   57.5580   33.8420   46.1340 N   0  0  0  0  0  0  0  0  0  0  0  0
   58.1170   32.7880   46.7590 C   0  0  0  0  0  0  0  0  0  0  0  0
   58.5300   32.7100   48.0850 C   0  0  0  0  0  0  0  0  0  0  0  0
   59.1110   31.5060   48.5230 C   0  0  0  0  0  0  0  0  0  0  0  0
   59.2750   30.4140   47.6290 C   0  0  0  0  0  0  0  0  0  0  0  0
   59.8610   29.1220   48.1200 C   0  0  0  0  0  0  0  0  0  0  0  0
   59.3950   27.9910   47.2580 C   0  0  0  0  0  0  0  0  0  0  0  0
   58.0950   27.6770   47.0640 N   0  0  0  0  0  0  0  0  0  0  0  0
   57.9290   26.6670   46.1660 C   0  0  0  0  0  0  0  0  0  0  0  0
   56.5980   26.1200   45.8500 C   0  0  0  0  0  0  0  0  0  0  0  0
   55.5800   26.6770   46.3430 O   0  0  0  0  0  0  0  0  0  0  0  0
   56.4330   24.9830   44.9840 N   0  0  0  0  0  0  0  0  0  0  0  0
   55.2710   24.1120   45.0490 C   0  0  0  0  0  0  0  0  0  0  0  0
   55.2500   23.3470   43.7310 C   0  0  0  0  0  0  0  0  0  0  0  0
   56.6330   23.5350   43.1150 C   0  0  0  0  0  0  0  0  0  0  0  0
   57.2200   24.7740   43.7790 C   0  0  0  0  0  0  0  0  0  0  0  0
   59.1160   26.1620   45.6360 C   0  0  0  0  0  0  0  0  0  0  0  0
   60.3930   27.0310   46.3060 S   0  0  0  0  0  0  0  0  0  0  0  0
   58.8360   30.5320   46.2900 C   0  0  0  0  0  0  0  0  0  0  0  0
   58.2620   31.7430   45.8980 C   0  0  0  0  0  0  0  0  0  0  0  0
   55.3031   29.0593   44.2121 H   0  0  0  0  0  0  0  0  0  0  0  0
   55.3388   30.9519   44.4282 H   0  0  0  0  0  0  0  0  0  0  0  0
   57.5396   29.1151   43.2861 H   0  0  0  0  0  0  0  0  0  0  0  0
   58.8576   31.1284   43.1736 H   0  0  0  0  0  0  0  0  0  0  0  0
   57.3358   31.9447   42.6541 H   0  0  0  0  0  0  0  0  0  0  0  0
   56.9375   33.9940   44.0620 H   0  0  0  0  0  0  0  0  0  0  0  0
   58.4063   33.5624   48.7692 H   0  0  0  0  0  0  0  0  0  0  0  0
   59.4415   31.4091   49.5677 H   0  0  0  0  0  0  0  0  0  0  0  0
   60.9587   29.1815   48.0816 H   0  0  0  0  0  0  0  0  0  0  0  0
   59.5340   28.9465   49.1555 H   0  0  0  0  0  0  0  0  0  0  0  0
   57.3070   28.1680   47.5430 H   0  0  0  0  0  0  0  0  0  0  0  0
   55.3619   23.4148   45.8950 H   0  0  0  0  0  0  0  0  0  0  0  0
   54.3440   24.6849   45.1990 H   0  0  0  0  0  0  0  0  0  0  0  0
   55.0535   22.2798   43.9113 H   0  0  0  0  0  0  0  0  0  0  0  0
   54.4575   23.7156   43.0632 H   0  0  0  0  0  0  0  0  0  0  0  0
   57.2644   22.6571   43.3167 H   0  0  0  0  0  0  0  0  0  0  0  0
   56.5766   23.6503   42.0225 H   0  0  0  0  0  0  0  0  0  0  0  0
   58.2769   24.6081   44.0348 H   0  0  0  0  0  0  0  0  0  0  0  0
   57.1834   25.6484   43.1126 H   0  0  0  0  0  0  0  0  0  0  0  0
   59.2026   25.3412   44.9089 H   0  0  0  0  0  0  0  0  0  0  0  0
   58.9431   29.6978   45.5810 H   0  0  0  0  0  0  0  0  0  0  0  0
  1  2  2  0
  2  3  1  0
  3  4  1  0
  4  5  1  0
  5  6  2  0
  6  7  1  0
  7  8  2  0
  8  9  1  0
  9 10  2  0
 10 11  1  0
 11 12  1  0
 12 13  2  0
 13 14  1  0
 14 15  1  0
 15 16  2  0
 15 17  1  0
 17 18  1  0
 18 19  1  0
 19 20  1  0
 20 21  1  0
 14 22  2  0
 22 23  1  0
 10 24  1  0
 24 25  2  0
 25  4  1  0
 25  7  1  0
 23 12  1  0
 21 17  1  0
  1 26  1  0
  1 27  1  0
  2 28  1  0
  3 29  1  0
  3 30  1  0
  5 31  1  0
  8 32  1  0
  9 33  1  0
 11 34  1  0
 11 35  1  0
 13 36  1  0
 18 37  1  0
 18 38  1  0
 19 39  1  0
 19 40  1  0
 20 41  1  0
 20 42  1  0
 21 43  1  0
 21 44  1  0
 22 45  1  0
 24 46  1  0
M  CHG  1  13   1
M  END
>  <UniqueID>  (8) 
8

>  <SMILES>  (8) 
C=CCn1cnc2ccc(Cc3[nH+]c(C(=O)N4CCCC4)cs3)cc21

>  <Energy>  (8) 
112.34090335654588

>  <Genealogy>  (8) 
C=CCn1cnc2ccc(Cc3[nH+]c(C(=O)N4CCCC4)cs3)cc21 (protonated)
C=CCn1cnc2ccc(Cc3[nH+]c(C(=O)N4CCCC4)cs3)cc21 (3D coordinates assigned)
C=CCn1cnc2ccc(Cc3[nH+]c(C(=O)N4CCCC4)cs3)cc21 (nonaromatic ring conformer: 112.34090335654588 kcal/mol)

>  <smiles>  (8) 
C=CCn1cnc2ccc(Cc3nc(C(=O)N4CCCC4)cs3)cc21

>  <score_type>  (8) 
oracle

>  <origin>  (8) 
adg

>  <m_score__min__energy>  (8) 
-6.8399999999999999

>  <m_primary>  (8) 
energy

$$$$
8:0
     RDKit          3D

 35 37  0  0  0  0  0  0  0  0999 V2000
   53.3190   26.6170   45.7340 H   0  0  0  0  0  0  0  0  0  0  0  0
   54.0320   25.8590   45.6390 N   0  0  0  0  0  0  0  0  0  0  0  0
   55.2630   26.0420   45.9900 C   0  0  0  0  0  0  0  0  0  0  0  0
   55.9110   27.1730   45.6130 N   0  0  0  0  0  0  0  0  0  0  0  0
   57.2080   27.4010   45.9530 C   0  0  0  0  0  0  0  0  0  0  0  0
   57.8350   28.6560   45.4870 C   0  0  0  0  0  0  0  0  0  0  0  0
   58.8530   28.7750   44.5550 C   0  0  0  0  0  0  0  0  0  0  0  0
   59.3946   27.9535   44.0632 H   0  0  0  0  0  0  0  0  0  0  0  0
   59.0540   30.1280   44.3650 C   0  0  0  0  0  0  0  0  0  0  0  0
   59.7932   30.5978   43.6995 H   0  0  0  0  0  0  0  0  0  0  0  0
   58.1420   30.7740   45.1770 C   0  0  0  0  0  0  0  0  0  0  0  0
   57.9740   32.2300   45.2860 C   0  0  0  0  0  0  0  0  0  0  0  0
   58.2920   32.9750   44.3190 O   0  0  0  0  0  0  0  0  0  0  0  0
   57.4490   32.7960   46.4910 N   0  0  0  0  0  0  0  0  0  0  0  0
   58.1460   32.7650   47.7720 C   0  0  0  0  0  0  0  0  0  0  0  0
   57.9273   33.6898   48.3260 H   0  0  0  0  0  0  0  0  0  0  0  0
   57.8018   31.8909   48.3443 H   0  0  0  0  0  0  0  0  0  0  0  0
   59.6370   32.6540   47.5580 C   0  0  0  0  0  0  0  0  0  0  0  0
   60.3150   31.4620   47.8840 C   0  0  0  0  0  0  0  0  0  0  0  0
   59.6480   30.4030   48.4090 F   0  0  0  0  0  0  0  0  0  0  0  0
   61.6920   31.3520   47.6700 C   0  0  0  0  0  0  0  0  0  0  0  0
   62.2142   30.4195   47.9301 H   0  0  0  0  0  0  0  0  0  0  0  0
   62.4060   32.4200   47.1280 C   0  0  0  0  0  0  0  0  0  0  0  0
   63.4893   32.3280   46.9610 H   0  0  0  0  0  0  0  0  0  0  0  0
   61.7480   33.6060   46.7970 C   0  0  0  0  0  0  0  0  0  0  0  0
   62.3156   34.4463   46.3708 H   0  0  0  0  0  0  0  0  0  0  0  0
   60.3690   33.7310   47.0050 C   0  0  0  0  0  0  0  0  0  0  0  0
   59.5930   35.2470   46.5620 Cl  0  0  0  0  0  0  0  0  0  0  0  0
   57.3960   29.8770   45.8490 N   0  0  0  0  0  0  0  0  0  0  0  0
   56.6200   30.0850   46.5180 H   0  0  0  0  0  0  0  0  0  0  0  0
   57.8890   26.4490   46.7420 C   0  0  0  0  0  0  0  0  0  0  0  0
   59.5240   26.7150   47.3510 Cl  0  0  0  0  0  0  0  0  0  0  0  0
   57.1990   25.2870   47.1170 C   0  0  0  0  0  0  0  0  0  0  0  0
   57.7640   24.4080   47.8190 O   0  0  0  0  0  0  0  0  0  0  0  0
   55.9110   25.1070   46.7320 N   0  0  0  0  0  0  0  0  0  0  0  0
  1  2  1  0
  2  3  2  0
  3  4  1  0
  4  5  1  0
  5  6  1  0
  6  7  2  0
  7  8  1  0
  7  9  1  0
  9 10  1  0
  9 11  2  0
 11 12  1  0
 12 13  2  0
 12 14  1  0
 14 15  1  0
 15 16  1  0
 15 17  1  0
 15 18  1  0
 18 19  2  0
 19 20  1  0
 19 21  1  0
 21 22  1  0
 21 23  2  0
 23 24  1  0
 23 25  1  0
 25 26  1  0
 25 27  2  0
 27 28  1  0
 11 29  1  0
 29 30  1  0
  5 31  2  0
 31 32  1  0
 31 33  1  0
 33 34  2  0
 33 35  1  0
 35  3  1  0
 29  6  1  0
 27 18  1  0
M  CHG  3   4  -1  14  -1  35  -1
M  END
>  <UniqueID>  (9) 
9

>  <SMILES>  (9) 
[H]/N=c1/[n-]c(-c2ccc(C(=O)[N-]Cc3c(F)cccc3Cl)[nH]2)c(Cl)c(=O)[n-]1

>  <Energy>  (9) 
68.39338271083152

>  <Genealogy>  (9) 
N=c1[n-]c(-c2ccc(C(=O)[N-]Cc3c(F)cccc3Cl)[nH]2)c(Cl)c(=O)[n-]1 (protonated)
[H]/N=c1/[n-]c(-c2ccc(C(=O)[N-]Cc3c(F)cccc3Cl)[nH]2)c(Cl)c(=O)[n-]1 (cis-trans isomerization)
[H]/N=c1/[n-]c(-c2ccc(C(=O)[N-]Cc3c(F)cccc3Cl)[nH]2)c(Cl)c(=O)[n-]1 (3D coordinates assigned)
[H]/N=c1/[n-]c(-c2ccc(C(=O)[N-]Cc3c(F)cccc3Cl)[nH]2)c(Cl)c(=O)[n-]1 (optimized conformer: 68.39338271083152 kcal/mol)

>  <smiles>  (9) 
N=c1[nH]c(-c2ccc(C(=O)NCc3c(F)cccc3Cl)[nH]2)c(Cl)c(=O)[nH]1

>  <score_type>  (9) 
oracle

>  <origin>  (9) 
adg

>  <m_score__min__energy>  (9) 
-13.91

>  <m_primary>  (9) 
energy

$$$$
9:0
     RDKit          3D

 47 50  0  0  0  0  0  0  0  0999 V2000
   56.2140   30.7262   44.6290 H   0  0  0  0  0  0  0  0  0  0  0  0
   56.5030   29.6680   44.5470 C   0  0  0  0  0  0  0  0  0  0  0  0
   55.8151   28.9442   44.0856 H   0  0  0  0  0  0  0  0  0  0  0  0
   57.6950   29.2600   45.0100 C   0  0  0  0  0  0  0  0  0  0  0  0
   58.2150   27.9560   44.9840 C   0  0  0  0  0  0  0  0  0  0  0  0
   57.6440   26.7750   44.6710 C   0  0  0  0  0  0  0  0  0  0  0  0
   57.5688   26.5280   43.6017 H   0  0  0  0  0  0  0  0  0  0  0  0
   57.1120   25.7850   45.6200 C   0  0  0  0  0  0  0  0  0  0  0  0
   57.8590   24.8100   46.1660 N   0  0  0  0  0  0  0  0  0  0  0  0
   57.0220   24.2340   47.0560 C   0  0  0  0  0  0  0  0  0  0  0  0
   57.3600   23.2520   47.7670 O   0  0  0  0  0  0  0  0  0  0  0  0
   55.7990   24.8010   47.1330 N   0  0  0  0  0  0  0  0  0  0  0  0
   55.8770   25.7910   46.2300 C   0  0  0  0  0  0  0  0  0  0  0  0
   54.8480   26.6910   45.9850 O   0  0  0  0  0  0  0  0  0  0  0  0
   59.5480   28.0670   45.3450 C   0  0  0  0  0  0  0  0  0  0  0  0
   60.2809   27.2485   45.3982 H   0  0  0  0  0  0  0  0  0  0  0  0
   59.7830   29.3960   45.6250 C   0  0  0  0  0  0  0  0  0  0  0  0
   61.1270   29.9460   46.0010 C   0  0  0  0  0  0  0  0  0  0  0  0
   61.2149   29.9820   47.0969 H   0  0  0  0  0  0  0  0  0  0  0  0
   61.9160   29.2984   45.5909 H   0  0  0  0  0  0  0  0  0  0  0  0
   61.2356   30.9609   45.5909 H   0  0  0  0  0  0  0  0  0  0  0  0
   58.6550   30.1190   45.4430 N   0  0  0  0  0  0  0  0  0  0  0  0
   58.5180   31.5430   45.6210 C   0  0  0  0  0  0  0  0  0  0  0  0
   58.0730   32.3410   44.5530 C   0  0  0  0  0  0  0  0  0  0  0  0
   57.8210   31.7830   43.3430 F   0  0  0  0  0  0  0  0  0  0  0  0
   57.8610   33.7090   44.7380 C   0  0  0  0  0  0  0  0  0  0  0  0
   57.5245   34.3307   43.8952 H   0  0  0  0  0  0  0  0  0  0  0  0
   58.0750   34.2900   45.9900 C   0  0  0  0  0  0  0  0  0  0  0  0
   57.8990   35.3664   46.1329 H   0  0  0  0  0  0  0  0  0  0  0  0
   58.5120   33.5070   47.0610 C   0  0  0  0  0  0  0  0  0  0  0  0
   58.6701   33.9671   48.0476 H   0  0  0  0  0  0  0  0  0  0  0  0
   58.7500   32.1360   46.8830 C   0  0  0  0  0  0  0  0  0  0  0  0
   59.2330   31.3310   48.0190 C   0  0  0  0  0  0  0  0  0  0  0  0
   58.4980   30.4200   48.4880 O   0  0  0  0  0  0  0  0  0  0  0  0
   60.5310   31.5650   48.5820 N   0  0  0  0  0  0  0  0  0  0  0  0
   61.1230   32.8830   48.7090 C   0  0  0  0  0  0  0  0  0  0  0  0
   61.1636   33.3825   47.7298 H   0  0  0  0  0  0  0  0  0  0  0  0
   60.5359   33.5324   49.3750 H   0  0  0  0  0  0  0  0  0  0  0  0
   62.5270   32.6460   49.2440 C   0  0  0  0  0  0  0  0  0  0  0  0
   63.2634   32.7078   48.4292 H   0  0  0  0  0  0  0  0  0  0  0  0
   62.8093   33.4014   49.9922 H   0  0  0  0  0  0  0  0  0  0  0  0
   62.5100   31.2400   49.8410 C   0  0  0  0  0  0  0  0  0  0  0  0
   63.4549   30.7204   49.6239 H   0  0  0  0  0  0  0  0  0  0  0  0
   62.3983   31.2663   50.9350 H   0  0  0  0  0  0  0  0  0  0  0  0
   61.3440   30.5200   49.1760 C   0  0  0  0  0  0  0  0  0  0  0  0
   61.7097   29.8302   48.4011 H   0  0  0  0  0  0  0  0  0  0  0  0
   60.7716   29.9178   49.8969 H   0  0  0  0  0  0  0  0  0  0  0  0
  1  2  1  0
  2  3  1  0
  2  4  2  0
  4  5  1  0
  5  6  2  0
  6  7  1  0
  6  8  1  0
  8  9  1  0
  9 10  1  0
 10 11  2  0
 10 12  1  0
 12 13  1  0
 13 14  1  0
  5 15  1  0
 15 16  1  0
 15 17  2  0
 17 18  1  0
 18 19  1  0
 18 20  1  0
 18 21  1  0
 17 22  1  0
 22 23  1  0
 23 24  2  0
 24 25  1  0
 24 26  1  0
 26 27  1  0
 26 28  2  0
 28 29  1  0
 28 30  1  0
 30 31  1  0
 30 32  2  0
 32 33  1  0
 33 34  2  0
 33 35  1  0
 35 36  1  0
 36 37  1  0
 36 38  1  0
 36 39  1  0
 39 40  1  0
 39 41  1  0
 39 42  1  0
 42 43  1  0
 42 44  1  0
 42 45  1  0
 45 46  1  0
 45 47  1  0
 22  4  1  0
 32 23  1  0
 45 35  1  0
 13  8  2  0
M  CHG  3   9  -1  12  -1  14  -1
M  END
>  <UniqueID>  (10) 
10

>  <SMILES>  (10) 
C=c1/c(=C\c2[n-]c(=O)[n-]c2[O-])cc(C)n1-c1c(F)cccc1C(=O)N1CCCC1

>  <Energy>  (10) 
129.98727658588248

>  <Genealogy>  (10) 
C=c1c(=Cc2[n-]c(=O)[n-]c2[O-])cc(C)n1-c1c(F)cccc1C(=O)N1CCCC1 (protonated)
C=c1/c(=C\c2[n-]c(=O)[n-]c2[O-])cc(C)n1-c1c(F)cccc1C(=O)N1CCCC1 (cis-trans isomerization)
C=c1/c(=C\c2[n-]c(=O)[n-]c2[O-])cc(C)n1-c1c(F)cccc1C(=O)N1CCCC1 (3D coordinates assigned)
C=c1/c(=C\c2[n-]c(=O)[n-]c2[O-])cc(C)n1-c1c(F)cccc1C(=O)N1CCCC1 (nonaromatic ring conformer: 129.98727658588248 kcal/mol)

>  <smiles>  (10) 
C=c1c(=Cc2[nH]c(=O)[nH]c2O)cc(C)n1-c1c(F)cccc1C(=O)N1CCCC1

>  <score_type>  (10) 
oracle

>  <origin>  (10) 
adg

>  <m_score__min__energy>  (10) 
-16.420000000000002

>  <m_primary>  (10) 
energy

$$$$
10:0
     RDKit          3D

 45 47  0  0  0  0  0  0  0  0999 V2000
   62.4500   33.8690   48.9200 H   0  0  0  0  0  0  0  0  0  0  0  0
   63.2110   34.1770   48.3610 O   0  0  0  0  0  0  0  0  0  0  0  0
   63.2800   33.3090   47.2620 C   0  0  0  0  0  0  0  0  0  0  0  0
   63.8310   32.4018   47.5509 H   0  0  0  0  0  0  0  0  0  0  0  0
   63.7978   33.8195   46.4366 H   0  0  0  0  0  0  0  0  0  0  0  0
   61.8990   32.9260   46.8080 C   0  0  0  0  0  0  0  0  0  0  0  0
   61.7946   32.0454   46.1572 H   0  0  0  0  0  0  0  0  0  0  0  0
   60.7820   33.5960   47.1500 C   0  0  0  0  0  0  0  0  0  0  0  0
   60.0900   33.2740   48.4190 C   0  0  0  0  0  0  0  0  0  0  0  0
   60.3890   34.0030   49.5300 N   0  0  0  0  0  0  0  0  0  0  0  0
   59.8040   33.7640   50.7330 C   0  0  0  0  0  0  0  0  0  0  0  0
   60.0752   34.3751   51.6065 H   0  0  0  0  0  0  0  0  0  0  0  0
   58.8610   32.7460   50.8620 C   0  0  0  0  0  0  0  0  0  0  0  0
   58.3934   32.5420   51.8365 H   0  0  0  0  0  0  0  0  0  0  0  0
   58.5160   31.9880   49.7420 C   0  0  0  0  0  0  0  0  0  0  0  0
   57.7705   31.1841   49.8315 H   0  0  0  0  0  0  0  0  0  0  0  0
   59.1170   32.2490   48.5050 C   0  0  0  0  0  0  0  0  0  0  0  0
   58.7130   31.4950   47.3450 N   0  0  0  0  0  0  0  0  0  0  0  0
   57.9640   31.9650   46.3230 C   0  0  0  0  0  0  0  0  0  0  0  0
   57.4780   33.3770   46.1970 C   0  0  0  0  0  0  0  0  0  0  0  0
   57.3307   33.8049   47.1996 H   0  0  0  0  0  0  0  0  0  0  0  0
   58.2225   33.9736   45.6495 H   0  0  0  0  0  0  0  0  0  0  0  0
   56.5240   33.3889   45.6495 H   0  0  0  0  0  0  0  0  0  0  0  0
   57.7300   30.9680   45.3990 C   0  0  0  0  0  0  0  0  0  0  0  0
   57.1588   31.0598   44.4634 H   0  0  0  0  0  0  0  0  0  0  0  0
   58.3560   29.8260   45.8800 C   0  0  0  0  0  0  0  0  0  0  0  0
   58.3860   28.6210   45.2770 C   0  0  0  0  0  0  0  0  0  0  0  0
   59.0711   28.4805   44.4280 H   0  0  0  0  0  0  0  0  0  0  0  0
   57.5470   27.4780   45.6960 C   0  0  0  0  0  0  0  0  0  0  0  0
   56.1490   27.5670   45.6210 C   0  0  0  0  0  0  0  0  0  0  0  0
   55.5370   28.7370   45.1880 O   0  0  0  0  0  0  0  0  0  0  0  0
   55.3790   26.5070   45.9830 N   0  0  0  0  0  0  0  0  0  0  0  0
   55.9410   25.3460   46.4070 C   0  0  0  0  0  0  0  0  0  0  0  0
   55.2080   24.3800   46.7420 O   0  0  0  0  0  0  0  0  0  0  0  0
   57.2920   25.2240   46.4640 N   0  0  0  0  0  0  0  0  0  0  0  0
   58.1050   26.2530   46.1100 C   0  0  0  0  0  0  0  0  0  0  0  0
   59.3540   26.0910   46.1420 O   0  0  0  0  0  0  0  0  0  0  0  0
   58.9700   30.1890   47.0820 C   0  0  0  0  0  0  0  0  0  0  0  0
   59.7200   29.3990   47.8660 C   0  0  0  0  0  0  0  0  0  0  0  0
   60.1539   29.7982   48.7946 H   0  0  0  0  0  0  0  0  0  0  0  0
   59.9008   28.3523   47.5799 H   0  0  0  0  0  0  0  0  0  0  0  0
   60.2460   34.7220   46.3050 C   0  0  0  0  0  0  0  0  0  0  0  0
   59.8655   35.5213   46.9579 H   0  0  0  0  0  0  0  0  0  0  0  0
   61.0515   35.1195   45.6700 H   0  0  0  0  0  0  0  0  0  0  0  0
   59.4296   34.3474   45.6700 H   0  0  0  0  0  0  0  0  0  0  0  0
  1  2  1  0
  2  3  1  0
  3  4  1  0
  3  5  1  0
  3  6  1  0
  6  7  1  0
  6  8  2  0
  8  9  1  0
  9 10  2  0
 10 11  1  0
 11 12  1  0
 11 13  2  0
 13 14  1  0
 13 15  1  0
 15 16  1  0
 15 17  2  0
 17 18  1  0
 18 19  1  0
 19 20  1  0
 20 21  1  0
 20 22  1  0
 20 23  1  0
 19 24  2  0
 24 25  1  0
 24 26  1  0
 26 27  2  3
 27 28  1  0
 27 29  1  0
 29 30  2  0
 30 31  1  0
 30 32  1  0
 32 33  1  0
 33 34  2  0
 33 35  1  0
 35 36  1  0
 36 37  2  0
 26 38  1  0
 38 39  2  0
 39 40  1  0
 39 41  1  0
  8 42  1  0
 42 43  1  0
 42 44  1  0
 42 45  1  0
 17  9  1  0
 38 18  1  0
 36 29  1  0
M  CHG  3  31  -1  32  -1  35  -1
M  END
>  <UniqueID>  (11) 
11

>  <SMILES>  (11) 
C=c1c(=Cc2c([O-])[n-]c(=O)[n-]c2=O)cc(C)n1-c1cccnc1/C(C)=C/CO

>  <Energy>  (11) 
94.15071626675586

>  <Genealogy>  (11) 
C=c1c(=Cc2c([O-])[n-]c(=O)[n-]c2=O)cc(C)n1-c1cccnc1C(C)=CCO (protonated)
C=c1c(=Cc2c([O-])[n-]c(=O)[n-]c2=O)cc(C)n1-c1cccnc1/C(C)=C/CO (cis-trans isomerization)
C=c1c(=Cc2c([O-])[n-]c(=O)[n-]c2=O)cc(C)n1-c1cccnc1/C(C)=C/CO (3D coordinates assigned)
C=c1c(=Cc2c([O-])[n-]c(=O)[n-]c2=O)cc(C)n1-c1cccnc1/C(C)=C/CO (optimized conformer: 94.15071626675586 kcal/mol)

>  <smiles>  (11) 
C=c1c(=Cc2c(O)[nH]c(=O)[nH]c2=O)cc(C)n1-c1cccnc1C(C)=CCO

>  <score_type>  (11) 
oracle

>  <origin>  (11) 
adg

>  <m_score__min__energy>  (11) 
-15.93

>  <m_primary>  (11) 
energy

$$$$
11:0
     RDKit          3D

 43 45  0  0  0  0  0  0  0  0999 V2000
   58.9840   33.7480   45.8770 C   0  0  0  0  0  0  0  0  0  0  0  0
   59.2730   32.7170   46.8150 O   0  0  0  0  0  0  0  0  0  0  0  0
   59.3890   32.8810   48.2080 C   0  0  0  0  0  0  0  0  0  0  0  0
   58.4440   32.2210   49.0060 C   0  0  0  0  0  0  0  0  0  0  0  0
   58.5000   32.3000   50.4000 C   0  0  0  0  0  0  0  0  0  0  0  0
   57.5780   31.6480   51.1530 N   0  0  0  0  0  0  0  0  0  0  0  0
   57.6060   31.7130   52.5120 C   0  0  0  0  0  0  0  0  0  0  0  0
   56.5650   31.0000   53.3160 C   0  0  0  0  0  0  0  0  0  0  0  0
   56.2870   29.6340   52.7550 C   0  0  0  0  0  0  0  0  0  0  0  0
   57.1480   28.7260   52.8980 O   0  0  0  0  0  0  0  0  0  0  0  0
   55.0730   29.3300   52.0580 N   0  0  0  0  0  0  0  0  0  0  0  0
   53.7450   29.3110   52.6600 C   0  0  0  0  0  0  0  0  0  0  0  0
   52.7960   30.0910   51.7950 C   0  0  0  0  0  0  0  0  0  0  0  0
   52.5930   29.7260   50.4550 C   0  0  0  0  0  0  0  0  0  0  0  0
   51.7370   30.4790   49.6420 C   0  0  0  0  0  0  0  0  0  0  0  0
   51.0910   31.6070   50.1560 C   0  0  0  0  0  0  0  0  0  0  0  0
   50.2450   32.3530   49.3430 O   0  0  0  0  0  0  0  0  0  0  0  0
   51.3030   31.9890   51.4880 C   0  0  0  0  0  0  0  0  0  0  0  0
   50.6730   33.1180   51.9990 O   0  0  0  0  0  0  0  0  0  0  0  0
   52.1550   31.2340   52.3050 C   0  0  0  0  0  0  0  0  0  0  0  0
   58.5820   32.4220   53.1360 N   0  0  0  0  0  0  0  0  0  0  0  0
   59.5290   33.0950   52.4310 C   0  0  0  0  0  0  0  0  0  0  0  0
   60.4100   33.7510   53.0510 O   0  0  0  0  0  0  0  0  0  0  0  0
   59.5110   33.0540   51.0230 C   0  0  0  0  0  0  0  0  0  0  0  0
   60.4530   33.7370   50.2350 C   0  0  0  0  0  0  0  0  0  0  0  0
   60.3930   33.6720   48.8260 C   0  0  0  0  0  0  0  0  0  0  0  0
   61.2970   34.3940   48.0260 O   0  0  0  0  0  0  0  0  0  0  0  0
   62.4360   33.8430   47.3710 C   0  0  0  0  0  0  0  0  0  0  0  0
   58.7251   34.6716   46.4155 H   0  0  0  0  0  0  0  0  0  0  0  0
   59.8666   33.9270   45.2453 H   0  0  0  0  0  0  0  0  0  0  0  0
   58.1370   33.4421   45.2453 H   0  0  0  0  0  0  0  0  0  0  0  0
   57.6470   31.6325   48.5279 H   0  0  0  0  0  0  0  0  0  0  0  0
   56.9199   30.8971   54.3521 H   0  0  0  0  0  0  0  0  0  0  0  0
   55.6353   31.5869   53.2812 H   0  0  0  0  0  0  0  0  0  0  0  0
   53.3950   28.2716   52.7449 H   0  0  0  0  0  0  0  0  0  0  0  0
   53.7880   29.7644   53.6613 H   0  0  0  0  0  0  0  0  0  0  0  0
   53.1078   28.8459   50.0423 H   0  0  0  0  0  0  0  0  0  0  0  0
   51.5724   30.1820   48.5957 H   0  0  0  0  0  0  0  0  0  0  0  0
   52.3230   31.5365   53.3491 H   0  0  0  0  0  0  0  0  0  0  0  0
   61.2441   34.3275   50.7203 H   0  0  0  0  0  0  0  0  0  0  0  0
   63.1583   33.4936   48.1234 H   0  0  0  0  0  0  0  0  0  0  0  0
   62.1234   32.9965   46.7419 H   0  0  0  0  0  0  0  0  0  0  0  0
   62.9057   34.6135   46.7419 H   0  0  0  0  0  0  0  0  0  0  0  0
  1  2  1  0
  2  3  1  0
  3  4  2  0
  4  5  1  0
  5  6  1  0
  6  7  1  0
  7  8  1  0
  8  9  1  0
  9 10  2  0
  9 11  1  0
 11 12  1  0
 12 13  1  0
 13 14  2  0
 14 15  1  0
 15 16  2  0
 16 17  1  0
 16 18  1  0
 18 19  1  0
 18 20  2  0
  7 21  2  0
 21 22  1  0
 22 23  2  0
 22 24  1  0
 24 25  1  0
 25 26  2  0
 26 27  1  0
 27 28  1  0
 26  3  1  0
 24  5  2  0
 20 13  1  0
  1 29  1  0
  1 30  1  0
  1 31  1  0
  4 32  1  0
  8 33  1  0
  8 34  1  0
 12 35  1  0
 12 36  1  0
 14 37  1  0
 15 38  1  0
 20 39  1  0
 25 40  1  0
 28 41  1  0
 28 42  1  0
 28 43  1  0
M  CHG  4   6  -1  11  -1  17  -1  19  -1
M  END
>  <UniqueID>  (12) 
12

>  <SMILES>  (12) 
COc1cc2[n-]c(CC(=O)[N-]Cc3ccc([O-])c([O-])c3)nc(=O)c2cc1OC

>  <Energy>  (12) 
48.23896698448703

>  <Genealogy>  (12) 
COc1cc2[n-]c(CC(=O)[N-]Cc3ccc([O-])c([O-])c3)nc(=O)c2cc1OC (protonated)
COc1cc2[n-]c(CC(=O)[N-]Cc3ccc([O-])c([O-])c3)nc(=O)c2cc1OC (3D coordinates assigned)
COc1cc2[n-]c(CC(=O)[N-]Cc3ccc([O-])c([O-])c3)nc(=O)c2cc1OC (optimized conformer: 48.23896698448703 kcal/mol)

>  <smiles>  (12) 
COc1cc2[nH]c(CC(=O)NCc3ccc(O)c(O)c3)nc(=O)c2cc1OC

>  <score_type>  (12) 
oracle

>  <origin>  (12) 
adg

>  <m_score__min__energy>  (12) 
-17.809999999999999

>  <m_primary>  (12) 
energy

$$$$
12:0
     RDKit          3D

 41 43  0  0  0  0  0  0  0  0999 V2000
   57.1370   25.5240   47.7160 O   0  0  0  0  0  0  0  0  0  0  0  0
   58.1560   26.1280   47.2850 C   0  0  0  0  0  0  0  0  0  0  0  0
   58.2440   26.5250   45.8310 C   0  0  0  0  0  0  0  0  0  0  0  0
   57.3470   27.6820   45.4950 C   0  0  0  0  0  0  0  0  0  0  0  0
   57.7960   28.8860   45.0980 N   0  0  0  0  0  0  0  0  0  0  0  0
   56.6640   29.6080   44.9510 C   0  0  0  0  0  0  0  0  0  0  0  0
   56.6710   30.8090   44.5760 O   0  0  0  0  0  0  0  0  0  0  0  0
   55.5260   28.9420   45.2410 N   0  0  0  0  0  0  0  0  0  0  0  0
   55.9730   27.7250   45.5910 C   0  0  0  0  0  0  0  0  0  0  0  0
   55.1370   26.6890   45.9980 O   0  0  0  0  0  0  0  0  0  0  0  0
   59.2390   26.3770   48.1920 N   0  0  0  0  0  0  0  0  0  0  0  0
   60.4240   27.1750   47.8910 C   0  0  0  0  0  0  0  0  0  0  0  0
   60.0480   28.6010   47.6420 C   0  0  0  0  0  0  0  0  0  0  0  0
   60.4150   29.3590   46.5350 C   0  0  0  0  0  0  0  0  0  0  0  0
   59.9360   30.6730   46.5840 C   0  0  0  0  0  0  0  0  0  0  0  0
   59.1920   30.9360   47.7250 C   0  0  0  0  0  0  0  0  0  0  0  0
   58.4900   32.4870   48.1550 S   0  0  0  0  0  0  0  0  0  0  0  0
   57.8070   32.3480   49.4880 O   0  0  0  0  0  0  0  0  0  0  0  0
   57.4460   32.8490   47.1350 O   0  0  0  0  0  0  0  0  0  0  0  0
   59.6870   33.7610   48.2520 N   0  0  0  0  0  0  0  0  0  0  0  0
   59.3000   34.9620   47.4880 C   0  0  0  0  0  0  0  0  0  0  0  0
   59.5960   34.8350   45.9750 C   0  0  0  0  0  0  0  0  0  0  0  0
   60.4280   33.7380   45.6520 O   0  0  0  0  0  0  0  0  0  0  0  0
   61.5230   33.6910   46.5360 C   0  0  0  0  0  0  0  0  0  0  0  0
   61.0530   33.2830   47.9420 C   0  0  0  0  0  0  0  0  0  0  0  0
   59.1060   29.5470   48.6680 S   0  0  0  0  0  0  0  0  0  0  0  0
   59.2829   26.8068   45.6046 H   0  0  0  0  0  0  0  0  0  0  0  0
   57.9180   25.6638   45.2292 H   0  0  0  0  0  0  0  0  0  0  0  0
   55.1490   26.3420   46.9490 H   0  0  0  0  0  0  0  0  0  0  0  0
   61.1180   27.1275   48.7431 H   0  0  0  0  0  0  0  0  0  0  0  0
   60.9036   26.7713   46.9871 H   0  0  0  0  0  0  0  0  0  0  0  0
   61.0204   28.9655   45.7051 H   0  0  0  0  0  0  0  0  0  0  0  0
   60.1293   31.4195   45.7995 H   0  0  0  0  0  0  0  0  0  0  0  0
   58.2212   35.1303   47.6215 H   0  0  0  0  0  0  0  0  0  0  0  0
   59.8964   35.8031   47.8713 H   0  0  0  0  0  0  0  0  0  0  0  0
   58.6409   34.7160   45.4424 H   0  0  0  0  0  0  0  0  0  0  0  0
   60.1320   35.7469   45.6730 H   0  0  0  0  0  0  0  0  0  0  0  0
   62.2544   32.9556   46.1697 H   0  0  0  0  0  0  0  0  0  0  0  0
   61.9860   34.6875   46.5873 H   0  0  0  0  0  0  0  0  0  0  0  0
   61.0654   32.1853   48.0118 H   0  0  0  0  0  0  0  0  0  0  0  0
   61.7382   33.7461   48.6673 H   0  0  0  0  0  0  0  0  0  0  0  0
  1  2  2  0
  2  3  1  0
  3  4  1  0
  4  5  1  0
  5  6  1  0
  6  7  2  0
  6  8  1  0
  8  9  1  0
  9 10  1  0
  2 11  1  0
 11 12  1  0
 12 13  1  0
 13 14  2  0
 14 15  1  0
 15 16  2  0
 16 17  1  0
 17 18  2  0
 17 19  2  0
 17 20  1  0
 20 21  1  0
 21 22  1  0
 22 23  1  0
 23 24  1  0
 24 25  1  0
 16 26  1  0
  9  4  2  0
 26 13  1  0
 25 20  1  0
  3 27  1  0
  3 28  1  0
 10 29  1  0
 12 30  1  0
 12 31  1  0
 14 32  1  0
 15 33  1  0
 21 34  1  0
 21 35  1  0
 22 36  1  0
 22 37  1  0
 24 38  1  0
 24 39  1  0
 25 40  1  0
 25 41  1  0
M  CHG  3   5  -1   8  -1  11  -1
M  END
>  <UniqueID>  (13) 
13

>  <SMILES>  (13) 
O=C(Cc1[n-]c(=O)[n-]c1O)[N-]Cc1ccc(S(=O)(=O)N2CCOCC2)s1

>  <Energy>  (13) 
102.23069158531676

>  <Genealogy>  (13) 
O=C(Cc1[n-]c(=O)[n-]c1O)[N-]Cc1ccc(S(=O)(=O)N2CCOCC2)s1 (protonated)
O=C(Cc1[n-]c(=O)[n-]c1O)[N-]Cc1ccc(S(=O)(=O)N2CCOCC2)s1 (3D coordinates assigned)
O=C(Cc1[n-]c(=O)[n-]c1O)[N-]Cc1ccc(S(=O)(=O)N2CCOCC2)s1 (nonaromatic ring conformer: 102.23069158531676 kcal/mol)

>  <smiles>  (13) 
O=C(Cc1[nH]c(=O)[nH]c1O)NCc1ccc(S(=O)(=O)N2CCOCC2)s1

>  <score_type>  (13) 
oracle

>  <origin>  (13) 
adg

>  <m_score__min__energy>  (13) 
-14.460000000000001

>  <m_primary>  (13) 
energy

$$$$
13:0
     RDKit          3D

 53 56  0  0  0  0  0  0  0  0999 V2000
   54.5610   23.3410   45.2480 C   0  0  0  0  0  0  0  0  0  0  0  0
   55.2060   24.6560   45.5230 C   0  0  0  0  0  0  0  0  0  0  0  0
   56.5010   24.9220   45.2580 N   0  0  0  0  0  0  0  0  0  0  0  0
   56.5890   26.2170   45.6220 C   0  0  0  0  0  0  0  0  0  0  0  0
   57.8450   27.0360   45.5030 C   0  0  2  0  0  0  0  0  0  0  0  0
   58.9470   26.5030   46.4200 C   0  0  0  0  0  0  0  0  0  0  0  0
   58.9620   27.4310   47.6340 C   0  0  0  0  0  0  0  0  0  0  0  0
   58.3100   28.7290   47.1750 C   0  0  0  0  0  0  0  0  0  0  0  0
   57.6030   28.4000   45.9500 N   0  0  0  0  0  0  0  0  0  0  0  0
   56.8130   29.3510   45.2200 C   0  0  0  0  0  0  0  0  0  0  0  0
   55.5810   29.1430   45.0430 O   0  0  0  0  0  0  0  0  0  0  0  0
   57.4260   30.5370   44.6980 N   0  0  0  0  0  0  0  0  0  0  0  0
   56.8280   31.8630   44.7990 C   0  0  0  0  0  0  0  0  0  0  0  0
   57.7650   32.7990   45.4930 C   0  0  0  0  0  0  0  0  0  0  0  0
   58.4060   32.5600   46.6930 C   0  0  0  0  0  0  0  0  0  0  0  0
   59.2000   33.6740   46.8840 C   0  0  0  0  0  0  0  0  0  0  0  0
   60.0720   33.9290   48.0550 C   0  0  0  0  0  0  0  0  0  0  0  0
   59.6140   34.5860   49.0270 O   0  0  0  0  0  0  0  0  0  0  0  0
   61.4240   33.4330   48.1140 N   0  0  0  0  0  0  0  0  0  0  0  0
   61.9770   32.9390   49.3800 C   0  0  0  0  0  0  0  0  0  0  0  0
   63.4400   33.3750   49.5050 C   0  0  0  0  0  0  0  0  0  0  0  0
   64.1770   33.0070   48.3540 O   0  0  0  0  0  0  0  0  0  0  0  0
   63.6890   33.7100   47.2270 C   0  0  0  0  0  0  0  0  0  0  0  0
   62.2500   33.2950   46.9100 C   0  0  0  0  0  0  0  0  0  0  0  0
   59.0180   34.5150   45.8400 N   0  0  0  0  0  0  0  0  0  0  0  0
   59.6530   35.8100   45.6260 C   0  0  0  0  0  0  0  0  0  0  0  0
   58.1530   33.9860   44.9890 N   0  0  0  0  0  0  0  0  0  0  0  0
   55.4170   26.7150   46.0550 N   0  0  0  0  0  0  0  0  0  0  0  0
   54.5420   25.7280   45.9910 N   0  0  0  0  0  0  0  0  0  0  0  0
   54.3180   22.8456   46.1996 H   0  0  0  0  0  0  0  0  0  0  0  0
   53.6381   23.4989   44.6707 H   0  0  0  0  0  0  0  0  0  0  0  0
   55.2508   22.7078   44.6707 H   0  0  0  0  0  0  0  0  0  0  0  0
   58.1461   26.9887   44.4461 H   0  0  0  0  0  0  0  0  0  0  0  0
   58.7228   25.4714   46.7290 H   0  0  0  0  0  0  0  0  0  0  0  0
   59.9227   26.4839   45.9124 H   0  0  0  0  0  0  0  0  0  0  0  0
   58.3897   26.9872   48.4620 H   0  0  0  0  0  0  0  0  0  0  0  0
   59.9853   27.6004   48.0004 H   0  0  0  0  0  0  0  0  0  0  0  0
   57.6069   29.0958   47.9373 H   0  0  0  0  0  0  0  0  0  0  0  0
   59.0540   29.5232   47.0144 H   0  0  0  0  0  0  0  0  0  0  0  0
   56.6153   32.2438   43.7892 H   0  0  0  0  0  0  0  0  0  0  0  0
   55.8951   31.7935   45.3777 H   0  0  0  0  0  0  0  0  0  0  0  0
   58.3067   31.6818   47.3479 H   0  0  0  0  0  0  0  0  0  0  0  0
   61.3984   33.3531   50.2189 H   0  0  0  0  0  0  0  0  0  0  0  0
   61.9195   31.8407   49.4005 H   0  0  0  0  0  0  0  0  0  0  0  0
   63.4811   34.4677   49.6248 H   0  0  0  0  0  0  0  0  0  0  0  0
   63.8820   32.8755   50.3798 H   0  0  0  0  0  0  0  0  0  0  0  0
   63.7155   34.7896   47.4359 H   0  0  0  0  0  0  0  0  0  0  0  0
   64.3239   33.4725   46.3607 H   0  0  0  0  0  0  0  0  0  0  0  0
   61.8492   33.9405   46.1146 H   0  0  0  0  0  0  0  0  0  0  0  0
   62.2363   32.2475   46.5745 H   0  0  0  0  0  0  0  0  0  0  0  0
   59.8797   36.2723   46.5980 H   0  0  0  0  0  0  0  0  0  0  0  0
   60.5856   35.6719   45.0593 H   0  0  0  0  0  0  0  0  0  0  0  0
   58.9728   36.4627   45.0593 H   0  0  0  0  0  0  0  0  0  0  0  0
  1  2  1  0
  2  3  2  0
  3  4  1  0
  4  5  1  0
  5  6  1  0
  6  7  1  0
  7  8  1  0
  8  9  1  0
  9 10  1  0
 10 11  2  0
 10 12  1  0
 12 13  1  0
 13 14  1  0
 14 15  1  0
 15 16  2  0
 16 17  1  0
 17 18  2  0
 17 19  1  0
 19 20  1  0
 20 21  1  0
 21 22  1  0
 22 23  1  0
 23 24  1  0
 16 25  1  0
 25 26  1  0
 25 27  1  0
  4 28  2  0
 28 29  1  0
 29  2  1  0
  9  5  1  0
 27 14  2  0
 24 19  1  0
  1 30  1  0
  1 31  1  0
  1 32  1  0
  5 33  1  6
  6 34  1  0
  6 35  1  0
  7 36  1  0
  7 37  1  0
  8 38  1  0
  8 39  1  0
 13 40  1  0
 13 41  1  0
 15 42  1  0
 20 43  1  0
 20 44  1  0
 21 45  1  0
 21 46  1  0
 23 47  1  0
 23 48  1  0
 24 49  1  0
 24 50  1  0
 26 51  1  0
 26 52  1  0
 26 53  1  0
M  CHG  2  12  -1  29  -1
M  END
>  <UniqueID>  (14) 
14

>  <SMILES>  (14) 
Cc1nc([C@@H]2CCCN2C(=O)[N-]Cc2cc(C(=O)N3CCOCC3)n(C)n2)n[n-]1

>  <Energy>  (14) 
114.87658388791567

>  <Genealogy>  (14) 
Cc1nc(C2CCCN2C(=O)[N-]Cc2cc(C(=O)N3CCOCC3)n(C)n2)n[n-]1 (protonated)
Cc1nc([C@@H]2CCCN2C(=O)[N-]Cc2cc(C(=O)N3CCOCC3)n(C)n2)n[n-]1 (chirality)
Cc1nc([C@@H]2CCCN2C(=O)[N-]Cc2cc(C(=O)N3CCOCC3)n(C)n2)n[n-]1 (3D coordinates assigned)
Cc1nc([C@@H]2CCCN2C(=O)[N-]Cc2cc(C(=O)N3CCOCC3)n(C)n2)n[n-]1 (nonaromatic ring conformer: 114.87658388791567 kcal/mol)

>  <smiles>  (14) 
Cc1nc(C2CCCN2C(=O)NCc2cc(C(=O)N3CCOCC3)n(C)n2)n[nH]1

>  <score_type>  (14) 
oracle

>  <origin>  (14) 
adg

>  <m_score__min__energy>  (14) 
-12.869999999999999

>  <m_primary>  (14) 
energy

$$$$
14:0
     RDKit          3D

 35 37  0  0  0  0  0  0  0  0999 V2000
   61.0430   34.6070   48.1880 O   0  0  0  0  0  0  0  0  0  0  0  0
   60.0660   34.2460   47.4810 C   0  0  0  0  0  0  0  0  0  0  0  0
   60.0300   34.5970   46.0530 C   0  0  0  0  0  0  0  0  0  0  0  0
   59.0030   34.2380   45.2740 C   0  0  0  0  0  0  0  0  0  0  0  0
   57.8240   33.4330   45.7830 C   0  0  1  0  0  0  0  0  0  0  0  0
   56.6770   33.9490   45.1440 O   0  0  0  0  0  0  0  0  0  0  0  0
   57.9960   31.9660   45.4100 C   0  0  0  0  0  0  0  0  0  0  0  0
   57.0110   31.3280   44.9460 O   0  0  0  0  0  0  0  0  0  0  0  0
   59.2550   31.2930   45.5930 N   0  0  0  0  0  0  0  0  0  0  0  0
   59.3950   29.8640   45.6470 C   0  0  0  0  0  0  0  0  0  0  0  0
   60.6490   29.2470   45.4960 C   0  0  0  0  0  0  0  0  0  0  0  0
   60.7570   27.8540   45.5260 C   0  0  0  0  0  0  0  0  0  0  0  0
   59.6170   27.0640   45.6910 C   0  0  0  0  0  0  0  0  0  0  0  0
   58.3520   27.6620   45.8190 C   0  0  0  0  0  0  0  0  0  0  0  0
   57.1430   26.8260   45.9820 C   0  0  0  0  0  0  0  0  0  0  0  0
   55.8910   27.2520   45.7040 N   0  0  0  0  0  0  0  0  0  0  0  0
   55.1230   26.2420   45.9740 O   0  0  0  0  0  0  0  0  0  0  0  0
   55.8560   25.2450   46.3930 C   0  0  0  0  0  0  0  0  0  0  0  0
   55.3920   24.1260   46.7310 O   0  0  0  0  0  0  0  0  0  0  0  0
   57.1660   25.5470   46.4250 N   0  0  0  0  0  0  0  0  0  0  0  0
   58.2510   29.0630   45.7880 C   0  0  0  0  0  0  0  0  0  0  0  0
   57.6620   33.5920   47.3220 C   0  0  0  0  0  0  0  0  0  0  0  0
   58.9790   33.4080   48.0860 C   0  0  0  0  0  0  0  0  0  0  0  0
   60.8642   35.1661   45.6167 H   0  0  0  0  0  0  0  0  0  0  0  0
   59.0149   34.5408   44.2166 H   0  0  0  0  0  0  0  0  0  0  0  0
   56.3370   33.2650   44.5100 H   0  0  0  0  0  0  0  0  0  0  0  0
   60.1300   31.8620   45.6250 H   0  0  0  0  0  0  0  0  0  0  0  0
   61.5490   29.8632   45.3536 H   0  0  0  0  0  0  0  0  0  0  0  0
   61.7430   27.3782   45.4193 H   0  0  0  0  0  0  0  0  0  0  0  0
   59.7100   25.9683   45.7209 H   0  0  0  0  0  0  0  0  0  0  0  0
   57.2628   29.5382   45.8753 H   0  0  0  0  0  0  0  0  0  0  0  0
   57.2734   34.5996   47.5312 H   0  0  0  0  0  0  0  0  0  0  0  0
   56.9717   32.8063   47.6628 H   0  0  0  0  0  0  0  0  0  0  0  0
   58.8331   33.7081   49.1342 H   0  0  0  0  0  0  0  0  0  0  0  0
   59.2755   32.3502   48.0289 H   0  0  0  0  0  0  0  0  0  0  0  0
  1  2  2  0
  2  3  1  0
  3  4  2  0
  4  5  1  0
  5  6  1  6
  5  7  1  0
  7  8  2  0
  7  9  1  0
  9 10  1  0
 10 11  2  0
 11 12  1  0
 12 13  2  0
 13 14  1  0
 14 15  1  0
 15 16  2  0
 16 17  1  0
 17 18  1  0
 18 19  2  0
 18 20  1  0
 14 21  2  0
  5 22  1  0
 22 23  1  0
 23  2  1  0
 21 10  1  0
 20 15  1  0
  3 24  1  0
  4 25  1  0
  6 26  1  0
  9 27  1  0
 11 28  1  0
 12 29  1  0
 13 30  1  0
 21 31  1  0
 22 32  1  0
 22 33  1  0
 23 34  1  0
 23 35  1  0
M  CHG  1  20  -1
M  END
>  <UniqueID>  (15) 
15

>  <SMILES>  (15) 
O=C1C=C[C@@](O)(C(=O)Nc2cccc(-c3noc(=O)[n-]3)c2)CC1

>  <Energy>  (15) 
76.09191819596455

>  <Genealogy>  (15) 
O=C1C=CC(O)(C(=O)Nc2cccc(-c3noc(=O)[n-]3)c2)CC1 (protonated)
O=C1C=C[C@@](O)(C(=O)Nc2cccc(-c3noc(=O)[n-]3)c2)CC1 (chirality)
O=C1C=C[C@@](O)(C(=O)Nc2cccc(-c3noc(=O)[n-]3)c2)CC1 (3D coordinates assigned)
O=C1C=C[C@@](O)(C(=O)Nc2cccc(-c3noc(=O)[n-]3)c2)CC1 (nonaromatic ring conformer: 76.09191819596455 kcal/mol)

>  <smiles>  (15) 
O=C1C=CC(O)(C(=O)Nc2cccc(-c3noc(=O)[nH]3)c2)CC1

>  <score_type>  (15) 
oracle

>  <origin>  (15) 
adg

>  <m_score__min__energy>  (15) 
-10.279999999999999

>  <m_primary>  (15) 
energy

$$$$
15:0
     RDKit          3D

 44 46  0  0  0  0  0  0  0  0999 V2000
   59.2980   26.2850   48.5590 O   0  0  0  0  0  0  0  0  0  0  0  0
   58.8290   26.4510   47.4010 C   0  0  0  0  0  0  0  0  0  0  0  0
   59.7670   26.7420   46.3010 C   0  0  0  0  0  0  0  0  0  0  0  0
   59.6550   27.7370   45.4090 C   0  0  0  0  0  0  0  0  0  0  0  0
   58.4010   28.2210   44.7930 C   0  0  0  0  0  0  0  0  0  0  0  0
   57.7560   27.4030   44.0810 O   0  0  0  0  0  0  0  0  0  0  0  0
   57.9180   29.6290   44.8990 C   0  0  0  0  0  0  0  0  0  0  0  0
   56.5600   29.9580   44.7460 C   0  0  0  0  0  0  0  0  0  0  0  0
   55.6010   28.9710   44.5320 O   0  0  0  0  0  0  0  0  0  0  0  0
   56.1640   31.2510   44.8290 N   0  0  0  0  0  0  0  0  0  0  0  0
   57.0400   32.2510   45.0870 C   0  0  0  0  0  0  0  0  0  0  0  0
   56.6070   33.4350   45.1440 O   0  0  0  0  0  0  0  0  0  0  0  0
   58.3690   31.9770   45.2880 N   0  0  0  0  0  0  0  0  0  0  0  0
   59.3090   33.0660   45.6270 C   0  0  0  0  0  0  0  0  0  0  0  0
   59.4300   33.2110   47.1220 C   0  0  0  0  0  0  0  0  0  0  0  0
   58.6630   32.4040   47.9800 C   0  0  0  0  0  0  0  0  0  0  0  0
   58.8020   32.5170   49.3670 C   0  0  0  0  0  0  0  0  0  0  0  0
   59.7100   33.4310   49.9070 C   0  0  0  0  0  0  0  0  0  0  0  0
   60.4760   34.2380   49.0610 C   0  0  0  0  0  0  0  0  0  0  0  0
   60.3400   34.1280   47.6730 C   0  0  0  0  0  0  0  0  0  0  0  0
   58.8120   30.6780   45.2090 C   0  0  0  0  0  0  0  0  0  0  0  0
   60.0330   30.4150   45.3970 O   0  0  0  0  0  0  0  0  0  0  0  0
   57.4200   26.3100   47.1600 N   0  0  0  0  0  0  0  0  0  0  0  0
   56.8020   25.2740   46.3760 C   0  0  0  0  0  0  0  0  0  0  0  0
   57.4620   24.0580   46.1060 C   0  0  0  0  0  0  0  0  0  0  0  0
   56.8410   23.0730   45.3320 C   0  0  0  0  0  0  0  0  0  0  0  0
   55.5670   23.2950   44.8040 C   0  0  0  0  0  0  0  0  0  0  0  0
   54.9190   24.5110   45.0350 C   0  0  0  0  0  0  0  0  0  0  0  0
   55.5380   25.5020   45.8060 C   0  0  0  0  0  0  0  0  0  0  0  0
   54.8920   26.7150   45.9970 O   0  0  0  0  0  0  0  0  0  0  0  0
   60.6406   26.0808   46.2029 H   0  0  0  0  0  0  0  0  0  0  0  0
   60.5847   28.2412   45.1067 H   0  0  0  0  0  0  0  0  0  0  0  0
   55.8540   27.9900   44.5250 H   0  0  0  0  0  0  0  0  0  0  0  0
   60.2980   32.8355   45.2042 H   0  0  0  0  0  0  0  0  0  0  0  0
   58.9282   34.0088   45.2073 H   0  0  0  0  0  0  0  0  0  0  0  0
   57.9500   31.6801   47.5585 H   0  0  0  0  0  0  0  0  0  0  0  0
   58.1958   31.8856   50.0333 H   0  0  0  0  0  0  0  0  0  0  0  0
   59.8222   33.5156   50.9980 H   0  0  0  0  0  0  0  0  0  0  0  0
   61.1871   34.9609   49.4874 H   0  0  0  0  0  0  0  0  0  0  0  0
   60.9479   34.7620   47.0108 H   0  0  0  0  0  0  0  0  0  0  0  0
   58.4714   23.8830   46.5066 H   0  0  0  0  0  0  0  0  0  0  0  0
   57.3569   22.1210   45.1384 H   0  0  0  0  0  0  0  0  0  0  0  0
   55.0745   22.5133   44.2070 H   0  0  0  0  0  0  0  0  0  0  0  0
   53.9203   24.6901   44.6101 H   0  0  0  0  0  0  0  0  0  0  0  0
  1  2  2  0
  2  3  1  0
  3  4  2  3
  4  5  1  0
  5  6  2  0
  5  7  1  0
  7  8  2  0
  8  9  1  0
  8 10  1  0
 10 11  1  0
 11 12  2  0
 11 13  1  0
 13 14  1  0
 14 15  1  0
 15 16  2  0
 16 17  1  0
 17 18  2  0
 18 19  1  0
 19 20  2  0
 13 21  1  0
 21 22  2  0
  2 23  1  0
 23 24  1  0
 24 25  2  0
 25 26  1  0
 26 27  2  0
 27 28  1  0
 28 29  2  0
 29 30  1  0
 21  7  1  0
 29 24  1  0
 20 15  1  0
  3 31  1  0
  4 32  1  0
  9 33  1  0
 14 34  1  0
 14 35  1  0
 16 36  1  0
 17 37  1  0
 18 38  1  0
 19 39  1  0
 20 40  1  0
 25 41  1  0
 26 42  1  0
 27 43  1  0
 28 44  1  0
M  CHG  3  10  -1  23  -1  30  -1
M  END
>  <UniqueID>  (16) 
16

>  <SMILES>  (16) 
O=C(C=CC(=O)c1c(O)[n-]c(=O)n(Cc2ccccc2)c1=O)[N-]c1ccccc1[O-]

>  <Energy>  (16) 
65.94105867733283

>  <Genealogy>  (16) 
O=C(C=CC(=O)c1c(O)[n-]c(=O)n(Cc2ccccc2)c1=O)[N-]c1ccccc1[O-] (protonated)
O=C(C=CC(=O)c1c(O)[n-]c(=O)n(Cc2ccccc2)c1=O)[N-]c1ccccc1[O-] (3D coordinates assigned)
O=C(C=CC(=O)c1c(O)[n-]c(=O)n(Cc2ccccc2)c1=O)[N-]c1ccccc1[O-] (optimized conformer: 65.94105867733283 kcal/mol)

>  <smiles>  (16) 
O=C(C=CC(=O)c1c(O)[nH]c(=O)n(Cc2ccccc2)c1=O)Nc1ccccc1O

>  <score_type>  (16) 
oracle

>  <origin>  (16) 
adg

>  <m_score__min__energy>  (16) 
-15.550000000000001

>  <m_primary>  (16) 
energy

$$$$
16:0
     RDKit          3D

 35 36  0  0  0  0  0  0  0  0999 V2000
   56.6370   23.3000   42.9900 C   0  0  0  0  0  0  0  0  0  0  0  0
   56.8900   24.4530   43.9290 C   0  0  0  0  0  0  0  0  0  0  0  0
   57.7380   25.6050   43.4590 C   0  0  0  0  0  0  0  0  0  0  0  0
   56.3780   24.5070   45.1750 C   0  0  0  0  0  0  0  0  0  0  0  0
   56.2010   25.7270   45.9950 C   0  0  0  0  0  0  0  0  0  0  0  0
   55.1280   26.3850   45.9960 O   0  0  0  0  0  0  0  0  0  0  0  0
   57.5550   26.2830   47.0260 S   0  0  0  0  0  0  0  0  0  0  0  0
   57.6510   27.8590   46.1820 C   0  0  0  0  0  0  0  0  0  0  0  0
   58.5740   28.7720   46.5720 N   0  0  0  0  0  0  0  0  0  0  0  0
   58.6800   29.9850   45.9660 C   0  0  0  0  0  0  0  0  0  0  0  0
   59.7160   30.9230   46.4550 C   0  0  0  0  0  0  0  0  0  0  0  0
   61.0320   30.4890   46.7000 C   0  0  0  0  0  0  0  0  0  0  0  0
   61.9910   31.3820   47.1860 C   0  0  0  0  0  0  0  0  0  0  0  0
   61.6440   32.7120   47.4450 C   0  0  0  0  0  0  0  0  0  0  0  0
   62.8500   33.8310   48.0560 Cl  0  0  0  0  0  0  0  0  0  0  0  0
   60.3340   33.1470   47.2240 C   0  0  0  0  0  0  0  0  0  0  0  0
   59.3730   32.2550   46.7380 C   0  0  0  0  0  0  0  0  0  0  0  0
   57.7880   30.3110   44.9210 C   0  0  0  0  0  0  0  0  0  0  0  0
   57.7860   31.6160   44.3000 C   0  0  0  0  0  0  0  0  0  0  0  0
   57.7840   32.6620   43.8030 N   0  0  0  0  0  0  0  0  0  0  0  0
   56.8430   29.3480   44.5320 C   0  0  0  0  0  0  0  0  0  0  0  0
   56.0250   29.5940   43.6030 O   0  0  0  0  0  0  0  0  0  0  0  0
   56.7980   28.1440   45.1630 N   0  0  0  0  0  0  0  0  0  0  0  0
   56.4371   22.3891   43.5734 H   0  0  0  0  0  0  0  0  0  0  0  0
   55.7674   23.5275   42.3559 H   0  0  0  0  0  0  0  0  0  0  0  0
   57.5220   23.1425   42.3559 H   0  0  0  0  0  0  0  0  0  0  0  0
   58.1364   26.1462   44.3298 H   0  0  0  0  0  0  0  0  0  0  0  0
   58.5719   25.2227   42.8519 H   0  0  0  0  0  0  0  0  0  0  0  0
   57.1252   26.2876   42.8519 H   0  0  0  0  0  0  0  0  0  0  0  0
   56.0618   23.5544   45.6251 H   0  0  0  0  0  0  0  0  0  0  0  0
   61.3073   29.4415   46.5080 H   0  0  0  0  0  0  0  0  0  0  0  0
   63.0205   31.0383   47.3651 H   0  0  0  0  0  0  0  0  0  0  0  0
   60.0590   34.1915   47.4325 H   0  0  0  0  0  0  0  0  0  0  0  0
   58.3408   32.5992   46.5762 H   0  0  0  0  0  0  0  0  0  0  0  0
   56.0890   27.4330   44.8710 H   0  0  0  0  0  0  0  0  0  0  0  0
  1  2  1  0
  2  3  1  0
  2  4  2  3
  4  5  1  0
  5  6  2  0
  5  7  1  0
  7  8  1  0
  8  9  2  0
  9 10  1  0
 10 11  1  0
 11 12  2  0
 12 13  1  0
 13 14  2  0
 14 15  1  0
 14 16  1  0
 16 17  2  0
 10 18  2  0
 18 19  1  0
 19 20  3  0
 18 21  1  0
 21 22  2  0
 21 23  1  0
 23  8  1  0
 17 11  1  0
  1 24  1  0
  1 25  1  0
  1 26  1  0
  3 27  1  0
  3 28  1  0
  3 29  1  0
  4 30  1  0
 12 31  1  0
 13 32  1  0
 16 33  1  0
 17 34  1  0
 23 35  1  0
M  END
>  <UniqueID>  (17) 
17

>  <SMILES>  (17) 
CC(C)=CC(=O)Sc1nc(-c2ccc(Cl)cc2)c(C#N)c(=O)[nH]1

>  <Energy>  (17) 
37.024093591860954

>  <Genealogy>  (17) 
CC(C)=CC(=O)Sc1nc(-c2ccc(Cl)cc2)c(C#N)c(=O)[nH]1 (3D coordinates assigned)
CC(C)=CC(=O)Sc1nc(-c2ccc(Cl)cc2)c(C#N)c(=O)[nH]1 (optimized conformer: 37.024093591860954 kcal/mol)

>  <smiles>  (17) 
CC(C)=CC(=O)Sc1nc(-c2ccc(Cl)cc2)c(C#N)c(=O)[nH]1

>  <score_type>  (17) 
oracle

>  <origin>  (17) 
adg

>  <m_score__min__energy>  (17) 
-7.7699999999999996

>  <m_primary>  (17) 
energy

$$$$
17:0
     RDKit          3D

 69 73  0  0  0  0  0  0  0  0999 V2000
   58.4719   32.0635   47.8313 H   0  0  0  0  0  0  0  0  0  0  0  0
   58.2850   32.3430   46.7840 C   0  0  0  0  0  0  0  0  0  0  0  0
   57.5830   31.5070   45.9730 N   0  0  0  0  0  0  0  0  0  0  0  0
   57.3300   31.8120   44.6670 C   0  0  0  0  0  0  0  0  0  0  0  0
   56.6380   31.0150   43.9060 N   0  0  0  0  0  0  0  0  0  0  0  0
   56.4120   29.6090   44.1040 C   0  0  0  0  0  0  0  0  0  0  0  0
   55.4670   29.1970   44.8310 O   0  0  0  0  0  0  0  0  0  0  0  0
   57.3370   28.6150   43.4690 C   0  0  0  0  0  0  0  0  0  0  0  0
   57.9792   29.1310   42.7401 H   0  0  0  0  0  0  0  0  0  0  0  0
   56.7394   27.8419   42.9638 H   0  0  0  0  0  0  0  0  0  0  0  0
   58.1800   27.9760   44.4920 N   0  0  0  0  0  0  0  0  0  0  0  0
   58.8780   28.7600   45.3740 C   0  0  0  0  0  0  0  0  0  0  0  0
   58.8417   29.8543   45.2678 H   0  0  0  0  0  0  0  0  0  0  0  0
   59.6440   28.1900   46.4180 C   0  0  0  0  0  0  0  0  0  0  0  0
   60.3420   29.0770   47.3780 C   0  0  0  0  0  0  0  0  0  0  0  0
   60.3890   28.7560   48.5980 O   0  0  0  0  0  0  0  0  0  0  0  0
   61.0390   30.2480   46.9170 N   0  0  0  0  0  0  0  0  0  0  0  0
   61.3730   30.2520   45.9280 H   0  0  0  0  0  0  0  0  0  0  0  0
   61.4530   31.3290   47.7730 C   0  0  0  0  0  0  0  0  0  0  0  0
   62.6150   32.0400   47.4640 C   0  0  0  0  0  0  0  0  0  0  0  0
   63.2017   31.7682   46.5741 H   0  0  0  0  0  0  0  0  0  0  0  0
   63.0350   33.0900   48.2750 C   0  0  0  0  0  0  0  0  0  0  0  0
   63.9565   33.6358   48.0242 H   0  0  0  0  0  0  0  0  0  0  0  0
   62.2950   33.4610   49.4110 C   0  0  0  0  0  0  0  0  0  0  0  0
   62.8190   34.5880   50.2630 C   0  0  0  0  0  0  0  0  0  0  0  0
   62.6993   34.3305   51.3257 H   0  0  0  0  0  0  0  0  0  0  0  0
   63.8845   34.7494   50.0426 H   0  0  0  0  0  0  0  0  0  0  0  0
   62.2557   35.5068   50.0426 H   0  0  0  0  0  0  0  0  0  0  0  0
   61.0740   32.7940   49.7010 C   0  0  0  0  0  0  0  0  0  0  0  0
   60.0900   33.2480   51.1230 S   0  0  0  0  0  0  0  0  0  0  0  0
   61.0280   33.5500   52.2610 O   0  0  0  0  0  0  0  0  0  0  0  0
   59.3150   34.4950   50.8030 O   0  0  0  0  0  0  0  0  0  0  0  0
   58.9270   32.0530   51.6550 N   0  0  0  0  0  0  0  0  0  0  0  0
   57.5980   32.2810   51.0630 C   0  0  0  0  0  0  0  0  0  0  0  0
   57.2445   33.2835   51.3460 H   0  0  0  0  0  0  0  0  0  0  0  0
   57.6808   32.1982   49.9693 H   0  0  0  0  0  0  0  0  0  0  0  0
   56.5840   31.2260   51.5640 C   0  0  0  0  0  0  0  0  0  0  0  0
   55.9662   31.6855   52.3496 H   0  0  0  0  0  0  0  0  0  0  0  0
   55.9934   30.9119   50.6908 H   0  0  0  0  0  0  0  0  0  0  0  0
   57.1850   30.0560   52.0960 O   0  0  0  0  0  0  0  0  0  0  0  0
   58.2930   29.6720   51.3110 C   0  0  0  0  0  0  0  0  0  0  0  0
   58.6253   28.6674   51.6115 H   0  0  0  0  0  0  0  0  0  0  0  0
   58.0048   29.6594   50.2495 H   0  0  0  0  0  0  0  0  0  0  0  0
   59.4360   30.6730   51.5200 C   0  0  0  0  0  0  0  0  0  0  0  0
   59.9851   30.4032   52.4342 H   0  0  0  0  0  0  0  0  0  0  0  0
   60.0963   30.6324   50.6412 H   0  0  0  0  0  0  0  0  0  0  0  0
   60.6810   31.7210   48.8780 C   0  0  0  0  0  0  0  0  0  0  0  0
   59.7509   31.1795   49.1054 H   0  0  0  0  0  0  0  0  0  0  0  0
   59.7080   26.7820   46.5300 C   0  0  0  0  0  0  0  0  0  0  0  0
   60.4180   26.2270   47.4130 O   0  0  0  0  0  0  0  0  0  0  0  0
   58.9760   26.0050   45.6310 C   0  0  0  0  0  0  0  0  0  0  0  0
   58.8830   24.6050   45.6170 C   0  0  0  0  0  0  0  0  0  0  0  0
   59.4212   23.9493   46.3173 H   0  0  0  0  0  0  0  0  0  0  0  0
   58.0320   24.1380   44.6160 C   0  0  0  0  0  0  0  0  0  0  0  0
   57.7440   22.7000   44.3230 C   0  0  0  0  0  0  0  0  0  0  0  0
   57.4067   22.2047   45.2455 H   0  0  0  0  0  0  0  0  0  0  0  0
   58.6630   22.2262   43.9475 H   0  0  0  0  0  0  0  0  0  0  0  0
   56.6590   22.5700   43.2610 C   0  0  0  0  0  0  0  0  0  0  0  0
   55.6803   22.4527   43.7492 H   0  0  0  0  0  0  0  0  0  0  0  0
   56.6499   23.4735   42.6336 H   0  0  0  0  0  0  0  0  0  0  0  0
   56.8636   21.6899   42.6336 H   0  0  0  0  0  0  0  0  0  0  0  0
   57.4250   25.4460   43.7320 S   0  0  0  0  0  0  0  0  0  0  0  0
   58.2270   26.6180   44.6400 C   0  0  0  0  0  0  0  0  0  0  0  0
   57.8110   33.0160   44.1360 C   0  0  0  0  0  0  0  0  0  0  0  0
   57.6248   33.2711   43.0823 H   0  0  0  0  0  0  0  0  0  0  0  0
   58.5300   33.8910   44.9570 C   0  0  0  0  0  0  0  0  0  0  0  0
   58.9063   34.8421   44.5522 H   0  0  0  0  0  0  0  0  0  0  0  0
   58.7690   33.5560   46.2890 C   0  0  0  0  0  0  0  0  0  0  0  0
   59.3320   34.2388   46.9423 H   0  0  0  0  0  0  0  0  0  0  0  0
  1  2  1  0
  2  3  1  0
  3  4  1  0
  4  5  2  0
  5  6  1  0
  6  7  2  0
  6  8  1  0
  8  9  1  0
  8 10  1  0
  8 11  1  0
 11 12  1  0
 12 13  1  0
 12 14  2  0
 14 15  1  0
 15 16  2  0
 15 17  1  0
 17 18  1  0
 17 19  1  0
 19 20  2  0
 20 21  1  0
 20 22  1  0
 22 23  1  0
 22 24  2  0
 24 25  1  0
 25 26  1  0
 25 27  1  0
 25 28  1  0
 24 29  1  0
 29 30  1  0
 30 31  2  0
 30 32  2  0
 30 33  1  0
 33 34  1  0
 34 35  1  0
 34 36  1  0
 34 37  1  0
 37 38  1  0
 37 39  1  0
 37 40  1  0
 40 41  1  0
 41 42  1  0
 41 43  1  0
 41 44  1  0
 44 45  1  0
 44 46  1  0
 29 47  2  0
 47 48  1  0
 14 49  1  0
 49 50  2  0
 49 51  1  0
 51 52  1  0
 52 53  1  0
 52 54  2  0
 54 55  1  0
 55 56  1  0
 55 57  1  0
 55 58  1  0
 58 59  1  0
 58 60  1  0
 58 61  1  0
 54 62  1  0
 62 63  1  0
  4 64  1  0
 64 65  1  0
 64 66  2  0
 66 67  1  0
 66 68  1  0
 68 69  1  0
 68  2  2  0
 63 11  1  0
 47 19  1  0
 63 51  2  0
 44 33  1  0
M  CHG  1   3  -1
M  END
>  <UniqueID>  (18) 
18

>  <SMILES>  (18) 
CCc1cc2c(=O)c(C(=O)Nc3ccc(C)c(S(=O)(=O)N4CCOCC4)c3)cn(CC(=O)/N=c3/cccc[n-]3)c2s1

>  <Energy>  (18) 
127.24990823495624

>  <Genealogy>  (18) 
CCc1cc2c(=O)c(C(=O)Nc3ccc(C)c(S(=O)(=O)N4CCOCC4)c3)cn(CC(=O)N=c3cccc[n-]3)c2s1 (protonated)
CCc1cc2c(=O)c(C(=O)Nc3ccc(C)c(S(=O)(=O)N4CCOCC4)c3)cn(CC(=O)/N=c3/cccc[n-]3)c2s1 (cis-trans isomerization)
CCc1cc2c(=O)c(C(=O)Nc3ccc(C)c(S(=O)(=O)N4CCOCC4)c3)cn(CC(=O)/N=c3/cccc[n-]3)c2s1 (3D coordinates assigned)
CCc1cc2c(=O)c(C(=O)Nc3ccc(C)c(S(=O)(=O)N4CCOCC4)c3)cn(CC(=O)/N=c3/cccc[n-]3)c2s1 (nonaromatic ring conformer: 127.24990823495624 kcal/mol)

>  <smiles>  (18) 
CCc1cc2c(=O)c(C(=O)Nc3ccc(C)c(S(=O)(=O)N4CCOCC4)c3)cn(CC(=O)N=c3cccc[nH]3)c2s1

>  <score_type>  (18) 
oracle

>  <origin>  (18) 
adg

>  <m_score__min__energy>  (18) 
-11.83

>  <m_primary>  (18) 
energy

$$$$
18:0
     RDKit          3D

 39 40  0  0  0  0  0  0  0  0999 V2000
   50.8547   31.8711   54.1672 H   0  0  0  0  0  0  0  0  0  0  0  0
   51.3960   31.6130   53.2450 C   0  0  0  0  0  0  0  0  0  0  0  0
   52.4550   30.7040   53.2900 C   0  0  0  0  0  0  0  0  0  0  0  0
   52.7433   30.2465   54.2479 H   0  0  0  0  0  0  0  0  0  0  0  0
   53.1540   30.3710   52.1180 C   0  0  0  0  0  0  0  0  0  0  0  0
   54.3240   29.4260   52.1790 C   0  0  0  0  0  0  0  0  0  0  0  0
   54.1001   28.6124   52.8847 H   0  0  0  0  0  0  0  0  0  0  0  0
   54.5063   29.0082   51.1779 H   0  0  0  0  0  0  0  0  0  0  0  0
   55.5440   30.1600   52.6380 C   0  0  0  0  0  0  0  0  0  0  0  0
   55.5660   30.6790   53.7860 O   0  0  0  0  0  0  0  0  0  0  0  0
   56.6500   30.3090   51.7340 N   0  0  0  0  0  0  0  0  0  0  0  0
   57.6260   31.1740   51.7810 C   0  0  0  0  0  0  0  0  0  0  0  0
   58.2180   31.7050   53.0710 C   0  0  0  0  0  0  0  0  0  0  0  0
   57.5587   31.4337   53.9087 H   0  0  0  0  0  0  0  0  0  0  0  0
   59.2154   31.2622   53.2091 H   0  0  0  0  0  0  0  0  0  0  0  0
   58.3620   33.2380   53.0180 C   0  0  0  0  0  0  0  0  0  0  0  0
   57.4008   33.6852   53.3113 H   0  0  0  0  0  0  0  0  0  0  0  0
   59.1814   33.5026   53.7025 H   0  0  0  0  0  0  0  0  0  0  0  0
   58.7500   33.7910   51.6240 C   0  0  0  0  0  0  0  0  0  0  0  0
   57.8544   34.2267   51.1570 H   0  0  0  0  0  0  0  0  0  0  0  0
   59.5388   34.5429   51.7738 H   0  0  0  0  0  0  0  0  0  0  0  0
   59.3130   32.7100   50.6910 C   0  0  0  0  0  0  0  0  0  0  0  0
   59.5567   33.1631   49.7188 H   0  0  0  0  0  0  0  0  0  0  0  0
   60.2168   32.2823   51.1496 H   0  0  0  0  0  0  0  0  0  0  0  0
   58.2820   31.5820   50.4800 C   0  0  1  0  0  0  0  0  0  0  0  0
   57.4891   31.9666   49.8217 H   0  0  0  0  0  0  0  0  0  0  0  0
   58.9330   30.4010   49.8150 C   0  0  0  0  0  0  0  0  0  0  0  0
   60.1800   30.2270   49.8940 O   0  0  0  0  0  0  0  0  0  0  0  0
   58.1620   29.5150   49.0690 O   0  0  0  0  0  0  0  0  0  0  0  0
   52.7910   30.9760   50.9040 C   0  0  0  0  0  0  0  0  0  0  0  0
   53.3513   30.7396   49.9874 H   0  0  0  0  0  0  0  0  0  0  0  0
   51.7140   31.8840   50.8510 C   0  0  0  0  0  0  0  0  0  0  0  0
   51.3040   32.4910   49.6520 O   0  0  0  0  0  0  0  0  0  0  0  0
   50.6050   31.8250   48.6040 C   0  0  0  0  0  0  0  0  0  0  0  0
   49.8729   31.1275   49.0370 H   0  0  0  0  0  0  0  0  0  0  0  0
   50.0817   32.5669   47.9830 H   0  0  0  0  0  0  0  0  0  0  0  0
   51.3208   31.2665   47.9830 H   0  0  0  0  0  0  0  0  0  0  0  0
   51.0220   32.1960   52.0300 C   0  0  0  0  0  0  0  0  0  0  0  0
   49.9590   33.0920   51.9980 O   0  0  0  0  0  0  0  0  0  0  0  0
  1  2  1  0
  2  3  2  0
  3  4  1  0
  3  5  1  0
  5  6  1  0
  6  7  1  0
  6  8  1  0
  6  9  1  0
  9 10  2  0
  9 11  1  0
 11 12  2  0
 12 13  1  0
 13 14  1  0
 13 15  1  0
 13 16  1  0
 16 17  1  0
 16 18  1  0
 16 19  1  0
 19 20  1  0
 19 21  1  0
 19 22  1  0
 22 23  1  0
 22 24  1  0
 22 25  1  0
 25 26  1  6
 25 27  1  0
 27 28  2  0
 27 29  1  0
  5 30  2  0
 30 31  1  0
 30 32  1  0
 32 33  1  0
 33 34  1  0
 34 35  1  0
 34 36  1  0
 34 37  1  0
 32 38  2  0
 38 39  1  0
 38  2  1  0
 25 12  1  0
M  CHG  2  29  -1  39  -1
M  END
>  <UniqueID>  (19) 
19

>  <SMILES>  (19) 
COc1cc(CC(=O)/N=C2\CCCC[C@H]2C(=O)[O-])ccc1[O-]

>  <Energy>  (19) 
43.36913116190413

>  <Genealogy>  (19) 
COc1cc(CC(=O)N=C2CCCCC2C(=O)[O-])ccc1[O-] (protonated)
COc1cc(CC(=O)N=C2CCCC[C@H]2C(=O)[O-])ccc1[O-] (chirality)
COc1cc(CC(=O)/N=C2\CCCC[C@H]2C(=O)[O-])ccc1[O-] (cis-trans isomerization)
COc1cc(CC(=O)/N=C2\CCCC[C@H]2C(=O)[O-])ccc1[O-] (3D coordinates assigned)
COc1cc(CC(=O)/N=C2\CCCC[C@H]2C(=O)[O-])ccc1[O-] (nonaromatic ring conformer: 43.36913116190413 kcal/mol)

>  <smiles>  (19) 
COc1cc(CC(=O)N=C2CCCCC2C(=O)O)ccc1O

>  <score_type>  (19) 
oracle

>  <origin>  (19) 
adg

>  <m_score__min__energy>  (19) 
-12.49

>  <m_primary>  (19) 
energy

$$$$
19:0
     RDKit          3D

 41 43  0  0  0  0  0  0  0  0999 V2000
   57.0180   23.4210   43.5280 C   0  0  0  0  0  0  0  0  0  0  0  0
   56.6090   24.4530   44.5050 C   0  0  0  0  0  0  0  0  0  0  0  0
   57.4520   25.4830   44.8760 C   0  0  0  0  0  0  0  0  0  0  0  0
   57.0450   26.4390   45.7920 C   0  0  0  0  0  0  0  0  0  0  0  0
   58.0210   27.5040   46.1270 C   0  0  0  0  0  0  0  0  0  0  0  0
   57.8200   28.7450   45.3180 C   0  0  0  0  0  0  0  0  0  0  0  0
   57.0510   28.7380   44.1670 C   0  0  0  0  0  0  0  0  0  0  0  0
   56.8860   29.8990   43.4440 C   0  0  0  0  0  0  0  0  0  0  0  0
   57.4850   31.0770   43.8590 C   0  0  0  0  0  0  0  0  0  0  0  0
   58.2560   31.0810   45.0130 C   0  0  0  0  0  0  0  0  0  0  0  0
   58.8760   32.2900   45.4460 N   0  0  0  0  0  0  0  0  0  0  0  0
   58.0910   33.4110   45.8820 C   0  0  0  0  0  0  0  0  0  0  0  0
   56.8330   33.3270   45.8830 O   0  0  0  0  0  0  0  0  0  0  0  0
   58.8240   34.6210   46.3130 C   0  0  0  0  0  0  0  0  0  0  0  0
   59.8750   34.2570   47.2300 C   0  0  0  0  0  0  0  0  0  0  0  0
   59.8720   34.1820   48.6190 C   0  0  0  0  0  0  0  0  0  0  0  0
   60.9730   33.8180   49.2490 C   0  0  0  0  0  0  0  0  0  0  0  0
   62.1120   33.5180   48.4960 C   0  0  0  0  0  0  0  0  0  0  0  0
   61.5420   33.7820   46.7630 S   0  0  0  0  0  0  0  0  0  0  0  0
   58.4330   29.9220   45.7530 C   0  0  0  0  0  0  0  0  0  0  0  0
   55.8130   26.3670   46.3290 N   0  0  0  0  0  0  0  0  0  0  0  0
   54.9990   25.3750   45.9740 N   0  0  0  0  0  0  0  0  0  0  0  0
   55.3600   24.4290   45.0860 C   0  0  0  0  0  0  0  0  0  0  0  0
   54.5950   23.4870   44.7440 O   0  0  0  0  0  0  0  0  0  0  0  0
   57.3719   22.5281   44.0643 H   0  0  0  0  0  0  0  0  0  0  0  0
   56.1582   23.1527   42.8965 H   0  0  0  0  0  0  0  0  0  0  0  0
   57.8282   23.8145   42.8965 H   0  0  0  0  0  0  0  0  0  0  0  0
   58.4593   25.5446   44.4383 H   0  0  0  0  0  0  0  0  0  0  0  0
   57.9142   27.7570   47.1922 H   0  0  0  0  0  0  0  0  0  0  0  0
   59.0256   27.1179   45.8997 H   0  0  0  0  0  0  0  0  0  0  0  0
   56.5723   27.8067   43.8301 H   0  0  0  0  0  0  0  0  0  0  0  0
   56.2739   29.8905   42.5301 H   0  0  0  0  0  0  0  0  0  0  0  0
   57.3507   32.0018   43.2787 H   0  0  0  0  0  0  0  0  0  0  0  0
   59.9350   32.3390   45.4370 H   0  0  0  0  0  0  0  0  0  0  0  0
   59.2623   35.1147   45.4332 H   0  0  0  0  0  0  0  0  0  0  0  0
   58.1265   35.3074   46.8154 H   0  0  0  0  0  0  0  0  0  0  0  0
   58.9612   34.4236   49.1865 H   0  0  0  0  0  0  0  0  0  0  0  0
   60.9941   33.7518   50.3468 H   0  0  0  0  0  0  0  0  0  0  0  0
   63.1043   33.2021   48.8505 H   0  0  0  0  0  0  0  0  0  0  0  0
   59.0455   29.9294   46.6667 H   0  0  0  0  0  0  0  0  0  0  0  0
   54.0380   25.2880   46.3700 H   0  0  0  0  0  0  0  0  0  0  0  0
  1  2  1  0
  2  3  2  0
  3  4  1  0
  4  5  1  0
  5  6  1  0
  6  7  2  0
  7  8  1  0
  8  9  2  0
  9 10  1  0
 10 11  1  0
 11 12  1  0
 12 13  2  0
 12 14  1  0
 14 15  1  0
 15 16  2  0
 16 17  1  0
 17 18  2  0
 18 19  1  0
 10 20  2  0
  4 21  2  0
 21 22  1  0
 22 23  1  0
 23 24  2  0
 23  2  1  0
 20  6  1  0
 19 15  1  0
  1 25  1  0
  1 26  1  0
  1 27  1  0
  3 28  1  0
  5 29  1  0
  5 30  1  0
  7 31  1  0
  8 32  1  0
  9 33  1  0
 11 34  1  0
 14 35  1  0
 14 36  1  0
 16 37  1  0
 17 38  1  0
 18 39  1  0
 20 40  1  0
 22 41  1  0
M  END
>  <smiles>  (20) 
Cc1cc(Cc2cccc(NC(=O)Cc3cccs3)c2)n[nH]c1=O

>  <score_type>  (20) 
oracle

>  <origin>  (20) 
adg

>  <m_score__min__energy>  (20) 
-8.7400000000000002

>  <m_primary>  (20) 
energy

$$$$
20:0
     RDKit          3D

 51 54  0  0  0  0  0  0  0  0999 V2000
   57.9600   29.5840   48.4070 H   0  0  0  0  0  0  0  0  0  0  0  0
   58.5500   30.2750   48.8550 O   0  0  0  0  0  0  0  0  0  0  0  0
   59.1530   31.3020   48.1280 C   0  0  0  0  0  0  0  0  0  0  0  0
   59.7650   32.3720   48.7930 C   0  0  0  0  0  0  0  0  0  0  0  0
   59.7670   32.4007   49.8926 H   0  0  0  0  0  0  0  0  0  0  0  0
   60.3770   33.4100   48.0680 C   0  0  0  0  0  0  0  0  0  0  0  0
   61.0130   34.5830   48.7900 C   0  0  0  0  0  0  0  0  0  0  0  0
   60.8529   35.4889   48.1869 H   0  0  0  0  0  0  0  0  0  0  0  0
   60.5369   34.6448   49.7797 H   0  0  0  0  0  0  0  0  0  0  0  0
   62.4690   34.4280   49.0220 N   0  0  0  0  0  0  0  0  0  0  0  0
   63.2260   33.8800   47.8730 C   0  0  0  0  0  0  0  0  0  0  0  0
   62.5841   33.9021   46.9800 H   0  0  0  0  0  0  0  0  0  0  0  0
   64.1244   34.4980   47.7281 H   0  0  0  0  0  0  0  0  0  0  0  0
   63.6760   32.4330   48.1270 C   0  0  0  0  0  0  0  0  0  0  0  0
   62.7861   31.8051   48.2818 H   0  0  0  0  0  0  0  0  0  0  0  0
   64.2507   32.0946   47.2522 H   0  0  0  0  0  0  0  0  0  0  0  0
   64.5460   32.3310   49.3160 N   0  0  0  0  0  0  0  0  0  0  0  0
   64.4110   31.3780   49.7320 H   0  0  0  0  0  0  0  0  0  0  0  0
   64.2590   33.3380   50.3590 C   0  0  0  0  0  0  0  0  0  0  0  0
   64.4683   32.8972   51.3449 H   0  0  0  0  0  0  0  0  0  0  0  0
   64.8976   34.2134   50.1698 H   0  0  0  0  0  0  0  0  0  0  0  0
   62.7970   33.8030   50.3250 C   0  0  0  0  0  0  0  0  0  0  0  0
   62.1397   32.9353   50.4834 H   0  0  0  0  0  0  0  0  0  0  0  0
   62.6479   34.5493   51.1192 H   0  0  0  0  0  0  0  0  0  0  0  0
   60.4230   33.3270   46.6670 C   0  0  0  0  0  0  0  0  0  0  0  0
   60.9454   34.1046   46.0904 H   0  0  0  0  0  0  0  0  0  0  0  0
   59.8100   32.2640   46.0010 C   0  0  0  0  0  0  0  0  0  0  0  0
   59.8392   32.2171   44.9024 H   0  0  0  0  0  0  0  0  0  0  0  0
   59.1580   31.2570   46.7240 C   0  0  0  0  0  0  0  0  0  0  0  0
   58.5000   30.1870   46.0240 N   0  0  0  0  0  0  0  0  0  0  0  0
   57.5150   30.3310   45.1090 C   0  0  0  0  0  0  0  0  0  0  0  0
   56.9480   31.6400   44.6530 C   0  0  0  0  0  0  0  0  0  0  0  0
   56.6837   32.2502   45.5292 H   0  0  0  0  0  0  0  0  0  0  0  0
   57.6961   32.1726   44.0474 H   0  0  0  0  0  0  0  0  0  0  0  0
   56.0478   31.4586   44.0474 H   0  0  0  0  0  0  0  0  0  0  0  0
   57.0870   29.0950   44.6690 C   0  0  0  0  0  0  0  0  0  0  0  0
   56.2735   28.8996   43.9549 H   0  0  0  0  0  0  0  0  0  0  0  0
   57.8770   28.1480   45.2980 C   0  0  0  0  0  0  0  0  0  0  0  0
   57.7860   26.8300   45.0310 C   0  0  0  0  0  0  0  0  0  0  0  0
   58.1967   26.4808   44.0721 H   0  0  0  0  0  0  0  0  0  0  0  0
   57.1830   25.8180   45.9150 C   0  0  0  0  0  0  0  0  0  0  0  0
   57.8010   24.6970   46.3330 N   0  0  0  0  0  0  0  0  0  0  0  0
   56.8270   24.0300   46.9890 C   0  0  0  0  0  0  0  0  0  0  0  0
   57.0230   22.9180   47.5460 O   0  0  0  0  0  0  0  0  0  0  0  0
   55.6230   24.6420   46.9910 N   0  0  0  0  0  0  0  0  0  0  0  0
   55.8640   25.7650   46.2930 C   0  0  0  0  0  0  0  0  0  0  0  0
   54.8960   26.7150   46.0000 O   0  0  0  0  0  0  0  0  0  0  0  0
   58.7170   28.8560   46.1740 C   0  0  0  0  0  0  0  0  0  0  0  0
   59.4990   28.3440   47.1390 C   0  0  0  0  0  0  0  0  0  0  0  0
   60.1136   29.0115   47.7608 H   0  0  0  0  0  0  0  0  0  0  0  0
   59.5247   27.2573   47.3073 H   0  0  0  0  0  0  0  0  0  0  0  0
  1  2  1  0
  2  3  1  0
  3  4  2  0
  4  5  1  0
  4  6  1  0
  6  7  1  0
  7  8  1  0
  7  9  1  0
  7 10  1  0
 10 11  1  0
 11 12  1  0
 11 13  1  0
 11 14  1  0
 14 15  1  0
 14 16  1  0
 14 17  1  0
 17 18  1  0
 17 19  1  0
 19 20  1  0
 19 21  1  0
 19 22  1  0
 22 23  1  0
 22 24  1  0
  6 25  2  0
 25 26  1  0
 25 27  1  0
 27 28  1  0
 27 29  2  0
 29 30  1  0
 30 31  1  0
 31 32  1  0
 32 33  1  0
 32 34  1  0
 32 35  1  0
 31 36  2  0
 36 37  1  0
 36 38  1  0
 38 39  2  0
 39 40  1  0
 39 41  1  0
 41 42  1  0
 42 43  1  0
 43 44  2  0
 43 45  1  0
 45 46  1  0
 46 47  1  0
 38 48  1  0
 48 49  2  0
 49 50  1  0
 49 51  1  0
 29  3  1  0
 48 30  1  0
 22 10  1  0
 46 41  2  0
M  CHG  3  42  -1  45  -1  47  -1
M  END
>  <UniqueID>  (21) 
20

>  <SMILES>  (21) 
C=c1/c(=C\c2[n-]c(=O)[n-]c2[O-])cc(C)n1-c1ccc(CN2CCNCC2)cc1O

>  <Energy>  (21) 
141.27584556121977

>  <Genealogy>  (21) 
C=c1c(=Cc2[n-]c(=O)[n-]c2[O-])cc(C)n1-c1ccc(CN2CCNCC2)cc1O (protonated)
C=c1/c(=C\c2[n-]c(=O)[n-]c2[O-])cc(C)n1-c1ccc(CN2CCNCC2)cc1O (cis-trans isomerization)
C=c1/c(=C\c2[n-]c(=O)[n-]c2[O-])cc(C)n1-c1ccc(CN2CCNCC2)cc1O (3D coordinates assigned)
C=c1/c(=C\c2[n-]c(=O)[n-]c2[O-])cc(C)n1-c1ccc(CN2CCNCC2)cc1O (nonaromatic ring conformer: 141.27584556121977 kcal/mol)

>  <smiles>  (21) 
C=c1c(=Cc2[nH]c(=O)[nH]c2O)cc(C)n1-c1ccc(CN2CCNCC2)cc1O

>  <score_type>  (21) 
oracle

>  <origin>  (21) 
adg

>  <m_score__min__energy>  (21) 
-15.619999999999999

>  <m_primary>  (21) 
energy

$$$$
21:0
     RDKit          3D

 85 90  0  0  1  0  0  0  0  0999 V2000
   62.4020   32.0070   47.8040 C   0  0  0  0  0  0  0  0  0  0  0  0
   61.8360   32.8190   46.7170 N   0  0  0  0  0  0  0  0  0  0  0  0
   62.8650   33.8100   46.3950 C   0  0  0  0  0  0  0  0  0  0  0  0
   60.7090   33.5270   47.3310 C   0  0  0  0  0  0  0  0  0  0  0  0
   59.4590   33.3490   46.5370 C   0  0  0  0  0  0  0  0  0  0  0  0
   58.4500   34.2980   46.5380 C   0  0  0  0  0  0  0  0  0  0  0  0
   57.2840   34.1340   45.7980 C   0  0  0  0  0  0  0  0  0  0  0  0
   57.0940   33.0110   45.0340 C   0  0  0  0  0  0  0  0  0  0  0  0
   58.0960   32.0380   45.0170 C   0  0  0  0  0  0  0  0  0  0  0  0
   57.9030   30.8120   44.1890 C   0  0  0  0  0  0  0  0  0  0  0  0
   56.8540   30.0340   44.8630 N   0  0  0  0  0  0  0  0  0  0  0  0
   57.1470   28.8360   45.2810 C   0  0  0  0  0  0  0  0  0  0  0  0
   58.4470   28.5130   45.3850 N   0  0  0  0  0  0  0  0  0  0  0  0
   58.8120   27.2890   45.8100 C   0  0  0  0  0  0  0  0  0  0  0  0
   60.0180   26.9070   45.9370 N   0  0  0  0  0  0  0  0  0  0  0  0
   60.7400   26.8190   47.1900 C   0  0  0  0  0  0  0  0  0  0  0  0
   60.3130   27.9890   48.0020 C   0  0  0  0  0  0  0  0  0  0  0  0
   60.0130   27.8410   49.3410 C   0  0  0  0  0  0  0  0  0  0  0  0
   59.6160   28.9150   50.1100 C   0  0  0  0  0  0  0  0  0  0  0  0
   59.4970   30.1940   49.5780 C   0  0  0  0  0  0  0  0  0  0  0  0
   59.0950   31.3170   50.3220 N   0  0  0  0  0  0  0  0  0  0  0  0
   58.6940   31.1670   51.7280 C   0  0  0  0  0  0  0  0  0  0  0  0
   57.8340   32.3560   52.0990 C   0  0  0  0  0  0  0  0  0  0  0  0
   58.4720   33.6220   51.9070 N   0  0  0  0  0  0  0  0  0  0  0  0
   58.9250   34.1940   53.1630 C   0  0  0  0  0  0  0  0  0  0  0  0
   59.5140   33.5970   50.9210 C   0  0  0  0  0  0  0  0  0  0  0  0
   59.0410   32.6680   49.7980 C   0  0  0  0  0  0  0  0  0  0  0  0
   59.7980   30.3270   48.2430 C   0  0  0  0  0  0  0  0  0  0  0  0
   60.2010   29.2500   47.4560 C   0  0  0  0  0  0  0  0  0  0  0  0
   57.8050   26.4100   46.1250 C   0  0  0  0  0  0  0  0  0  0  0  0
   57.8680   25.1530   46.5660 N   0  0  0  0  0  0  0  0  0  0  0  0
   56.6430   24.6330   46.7590 C   0  0  0  0  0  0  0  0  0  0  0  0
   56.4400   23.2580   47.1220 C   0  0  0  0  0  0  0  0  0  0  0  0
   55.3740   22.5370   46.9940 C   0  0  0  0  0  0  0  0  0  0  0  0
   54.1080   22.8880   46.4250 C   0  0  0  0  0  0  0  0  0  0  0  0
   53.8220   23.5690   45.2930 C   0  0  0  0  0  0  0  0  0  0  0  0
   52.5520   23.7650   44.7720 C   0  0  0  0  0  0  0  0  0  0  0  0
   51.4700   23.2360   45.4410 C   0  0  0  0  0  0  0  0  0  0  0  0
   51.7310   22.5410   46.5960 C   0  0  0  0  0  0  0  0  0  0  0  0
   52.9840   22.3550   47.0970 C   0  0  0  0  0  0  0  0  0  0  0  0
   55.8040   25.6290   46.4140 N   0  0  0  0  0  0  0  0  0  0  0  0
   56.4860   26.7270   46.0240 C   0  0  0  0  0  0  0  0  0  0  0  0
   56.1600   27.9600   45.5940 N   0  0  0  0  0  0  0  0  0  0  0  0
   59.2540   32.2290   45.7670 C   0  0  0  0  0  0  0  0  0  0  0  0
   62.1047   32.4336   48.7734 H   0  0  0  0  0  0  0  0  0  0  0  0
   62.0256   30.9763   47.7260 H   0  0  0  0  0  0  0  0  0  0  0  0
   63.4992   32.0035   47.7260 H   0  0  0  0  0  0  0  0  0  0  0  0
   63.2869   34.2163   47.3261 H   0  0  0  0  0  0  0  0  0  0  0  0
   63.6635   33.3321   45.8085 H   0  0  0  0  0  0  0  0  0  0  0  0
   62.4175   34.6260   45.8085 H   0  0  0  0  0  0  0  0  0  0  0  0
   60.5482   33.1330   48.3453 H   0  0  0  0  0  0  0  0  0  0  0  0
   60.9495   34.5999   47.3635 H   0  0  0  0  0  0  0  0  0  0  0  0
   58.5747   35.2087   47.1422 H   0  0  0  0  0  0  0  0  0  0  0  0
   56.5070   34.9121   45.8257 H   0  0  0  0  0  0  0  0  0  0  0  0
   56.1728   32.8794   44.4475 H   0  0  0  0  0  0  0  0  0  0  0  0
   57.5847   31.0832   43.1716 H   0  0  0  0  0  0  0  0  0  0  0  0
   58.8358   30.2367   44.0943 H   0  0  0  0  0  0  0  0  0  0  0  0
   59.2300   29.1680   45.1510 H   0  0  0  0  0  0  0  0  0  0  0  0
   60.4881   25.8827   47.7096 H   0  0  0  0  0  0  0  0  0  0  0  0
   61.8276   26.8227   47.0253 H   0  0  0  0  0  0  0  0  0  0  0  0
   60.0921   26.8464   49.8043 H   0  0  0  0  0  0  0  0  0  0  0  0
   59.3871   28.7551   51.1740 H   0  0  0  0  0  0  0  0  0  0  0  0
   58.1202   30.2372   51.8553 H   0  0  0  0  0  0  0  0  0  0  0  0
   59.5820   31.1210   52.3756 H   0  0  0  0  0  0  0  0  0  0  0  0
   56.9244   32.3305   51.4809 H   0  0  0  0  0  0  0  0  0  0  0  0
   57.6200   32.2689   53.1745 H   0  0  0  0  0  0  0  0  0  0  0  0
   58.4826   33.6354   54.0010 H   0  0  0  0  0  0  0  0  0  0  0  0
   60.0218   34.1323   53.2196 H   0  0  0  0  0  0  0  0  0  0  0  0
   58.6136   35.2475   53.2196 H   0  0  0  0  0  0  0  0  0  0  0  0
   59.6866   34.6094   50.5271 H   0  0  0  0  0  0  0  0  0  0  0  0
   60.4593   33.2401   51.3557 H   0  0  0  0  0  0  0  0  0  0  0  0
   58.0108   32.9203   49.5064 H   0  0  0  0  0  0  0  0  0  0  0  0
   59.6764   32.7713   48.9060 H   0  0  0  0  0  0  0  0  0  0  0  0
   59.7177   31.3210   47.7788 H   0  0  0  0  0  0  0  0  0  0  0  0
   60.4313   29.4070   46.3919 H   0  0  0  0  0  0  0  0  0  0  0  0
   57.3076   22.7503   47.5687 H   0  0  0  0  0  0  0  0  0  0  0  0
   55.4509   21.5085   47.3764 H   0  0  0  0  0  0  0  0  0  0  0  0
   54.6670   24.0039   44.7390 H   0  0  0  0  0  0  0  0  0  0  0  0
   52.4108   24.3330   43.8406 H   0  0  0  0  0  0  0  0  0  0  0  0
   50.4436   23.3646   45.0668 H   0  0  0  0  0  0  0  0  0  0  0  0
   50.8817   22.1108   47.1470 H   0  0  0  0  0  0  0  0  0  0  0  0
   53.1220   21.7873   48.0290 H   0  0  0  0  0  0  0  0  0  0  0  0
   54.7590   25.6320   46.3860 H   0  0  0  0  0  0  0  0  0  0  0  0
   55.1490   28.2120   45.5130 H   0  0  0  0  0  0  0  0  0  0  0  0
   60.0342   31.4540   45.7422 H   0  0  0  0  0  0  0  0  0  0  0  0
  1  2  1  0
  2  3  1  0
  2  4  1  0
  4  5  1  0
  5  6  2  0
  6  7  1  0
  7  8  2  0
  8  9  1  0
  9 10  1  0
 10 11  1  0
 11 12  2  0
 12 13  1  0
 13 14  1  0
 14 15  2  0
 15 16  1  0
 16 17  1  0
 17 18  2  0
 18 19  1  0
 19 20  2  0
 20 21  1  0
 21 22  1  0
 22 23  1  0
 23 24  1  0
 24 25  1  0
 24 26  1  0
 26 27  1  0
 20 28  1  0
 28 29  2  0
 14 30  1  0
 30 31  1  0
 31 32  2  0
 32 33  1  0
 33 34  2  0
 34 35  1  0
 35 36  2  0
 36 37  1  0
 37 38  2  0
 38 39  1  0
 39 40  2  0
 32 41  1  0
 41 42  1  0
 42 43  1  0
  9 44  2  0
 44  5  1  0
 43 12  1  0
 29 17  1  0
 42 30  2  0
 27 21  1  0
 40 35  1  0
  1 45  1  0
  1 46  1  0
  1 47  1  0
  3 48  1  0
  3 49  1  0
  3 50  1  0
  4 51  1  0
  4 52  1  0
  6 53  1  0
  7 54  1  0
  8 55  1  0
 10 56  1  0
 10 57  1  0
 13 58  1  0
 16 59  1  0
 16 60  1  0
 18 61  1  0
 19 62  1  0
 22 63  1  0
 22 64  1  0
 23 65  1  0
 23 66  1  0
 25 67  1  0
 25 68  1  0
 25 69  1  0
 26 70  1  0
 26 71  1  0
 27 72  1  0
 27 73  1  0
 28 74  1  0
 29 75  1  0
 33 76  1  0
 34 77  1  0
 36 78  1  0
 37 79  1  0
 38 80  1  0
 39 81  1  0
 40 82  1  0
 41 83  1  0
 43 84  1  0
 44 85  1  0
M  END
>  <smiles>  (22) 
CN(C)Cc1cccc(CN=c2[nH]c(=NCc3ccc(N4CCN(C)CC4)cc3)c3nc(C=Cc4ccccc4)[nH]c3[nH]2)c1

>  <score_type>  (22) 
oracle

>  <origin>  (22) 
adg

>  <m_score__min__energy>  (22) 
-11.130000000000001

>  <m_primary>  (22) 
energy

$$$$
22:0
     RDKit          3D

 47 50  0  0  0  0  0  0  0  0999 V2000
   58.0558   26.5915   42.8284 H   0  0  0  0  0  0  0  0  0  0  0  0
   57.7530   26.0260   43.7220 C   0  0  0  0  0  0  0  0  0  0  0  0
   57.3315   25.0154   43.6167 H   0  0  0  0  0  0  0  0  0  0  0  0
   57.8980   26.5700   44.9430 C   0  0  0  0  0  0  0  0  0  0  0  0
   57.5580   25.9700   46.1570 C   0  0  0  0  0  0  0  0  0  0  0  0
   57.0570   24.7330   46.3500 C   0  0  0  0  0  0  0  0  0  0  0  0
   57.6761   23.9956   46.8819 H   0  0  0  0  0  0  0  0  0  0  0  0
   55.7160   24.3180   45.8820 C   0  0  0  0  0  0  0  0  0  0  0  0
   54.6750   25.2500   45.7140 C   0  0  0  0  0  0  0  0  0  0  0  0
   54.8710   26.5990   45.9940 O   0  0  0  0  0  0  0  0  0  0  0  0
   53.4660   24.8380   45.2530 N   0  0  0  0  0  0  0  0  0  0  0  0
   53.2440   23.5370   44.9340 C   0  0  0  0  0  0  0  0  0  0  0  0
   52.1150   23.1790   44.5120 O   0  0  0  0  0  0  0  0  0  0  0  0
   54.2420   22.6230   45.0650 N   0  0  0  0  0  0  0  0  0  0  0  0
   55.4690   22.9840   45.5220 C   0  0  0  0  0  0  0  0  0  0  0  0
   56.3730   22.1090   45.6280 O   0  0  0  0  0  0  0  0  0  0  0  0
   57.8700   26.8900   47.1490 C   0  0  0  0  0  0  0  0  0  0  0  0
   57.7426   26.7550   48.2332 H   0  0  0  0  0  0  0  0  0  0  0  0
   58.3710   28.0070   46.5110 C   0  0  0  0  0  0  0  0  0  0  0  0
   58.8800   29.2280   47.2190 C   0  0  0  0  0  0  0  0  0  0  0  0
   58.8161   29.0747   48.3064 H   0  0  0  0  0  0  0  0  0  0  0  0
   59.9275   29.4067   46.9348 H   0  0  0  0  0  0  0  0  0  0  0  0
   58.2695   30.0978   46.9348 H   0  0  0  0  0  0  0  0  0  0  0  0
   58.3970   27.8160   45.1700 N   0  0  0  0  0  0  0  0  0  0  0  0
   58.7870   28.8140   44.1630 C   0  0  0  0  0  0  0  0  0  0  0  0
   59.8385   29.0974   44.3180 H   0  0  0  0  0  0  0  0  0  0  0  0
   58.6630   28.3834   43.1584 H   0  0  0  0  0  0  0  0  0  0  0  0
   57.9210   30.0290   44.2900 C   0  0  0  0  0  0  0  0  0  0  0  0
   56.6130   30.0090   44.6190 N   0  0  0  0  0  0  0  0  0  0  0  0
   56.2420   31.2720   44.7790 N   0  0  0  0  0  0  0  0  0  0  0  0
   57.2660   32.0820   44.5580 N   0  0  0  0  0  0  0  0  0  0  0  0
   57.2490   33.5210   44.7970 C   0  0  0  0  0  0  0  0  0  0  0  0
   57.5981   34.0456   43.8954 H   0  0  0  0  0  0  0  0  0  0  0  0
   56.2232   33.8387   45.0352 H   0  0  0  0  0  0  0  0  0  0  0  0
   58.1550   33.8540   45.9520 C   0  0  0  0  0  0  0  0  0  0  0  0
   58.0020   33.2020   47.1860 C   0  0  0  0  0  0  0  0  0  0  0  0
   57.1824   32.4819   47.3266 H   0  0  0  0  0  0  0  0  0  0  0  0
   58.8880   33.4640   48.2390 C   0  0  0  0  0  0  0  0  0  0  0  0
   58.7563   32.9575   49.2065 H   0  0  0  0  0  0  0  0  0  0  0  0
   59.9390   34.3680   48.0620 C   0  0  0  0  0  0  0  0  0  0  0  0
   60.6328   34.5751   48.8901 H   0  0  0  0  0  0  0  0  0  0  0  0
   60.1070   35.0080   46.8320 C   0  0  0  0  0  0  0  0  0  0  0  0
   60.9370   35.7160   46.6910 H   0  0  0  0  0  0  0  0  0  0  0  0
   59.2220   34.7510   45.7780 C   0  0  0  0  0  0  0  0  0  0  0  0
   59.3628   35.2535   44.8097 H   0  0  0  0  0  0  0  0  0  0  0  0
   58.3450   31.3390   44.2610 C   0  0  0  0  0  0  0  0  0  0  0  0
   59.3594   31.7024   44.0399 H   0  0  0  0  0  0  0  0  0  0  0  0
  1  2  1  0
  2  3  1  0
  2  4  2  0
  4  5  1  0
  5  6  2  0
  6  7  1  0
  6  8  1  0
  8  9  2  0
  9 10  1  0
  9 11  1  0
 11 12  1  0
 12 13  2  0
 12 14  1  0
 14 15  1  0
 15 16  2  0
  5 17  1  0
 17 18  1  0
 17 19  2  0
 19 20  1  0
 20 21  1  0
 20 22  1  0
 20 23  1  0
 19 24  1  0
 24 25  1  0
 25 26  1  0
 25 27  1  0
 25 28  1  0
 28 29  1  0
 29 30  2  0
 30 31  1  0
 31 32  1  0
 32 33  1  0
 32 34  1  0
 32 35  1  0
 35 36  2  0
 36 37  1  0
 36 38  1  0
 38 39  1  0
 38 40  2  0
 40 41  1  0
 40 42  1  0
 42 43  1  0
 42 44  2  0
 44 45  1  0
 31 46  1  0
 46 47  1  0
 24  4  1  0
 46 28  2  0
 15  8  1  0
 44 35  1  0
M  CHG  3  10  -1  11  -1  14  -1
M  END
>  <UniqueID>  (23) 
21

>  <SMILES>  (23) 
C=c1/c(=C/c2c([O-])[n-]c(=O)[n-]c2=O)cc(C)n1Cc1cn(Cc2ccccc2)nn1

>  <Energy>  (23) 
121.14636110982592

>  <Genealogy>  (23) 
C=c1c(=Cc2c([O-])[n-]c(=O)[n-]c2=O)cc(C)n1Cc1cn(Cc2ccccc2)nn1 (protonated)
C=c1/c(=C/c2c([O-])[n-]c(=O)[n-]c2=O)cc(C)n1Cc1cn(Cc2ccccc2)nn1 (cis-trans isomerization)
C=c1/c(=C/c2c([O-])[n-]c(=O)[n-]c2=O)cc(C)n1Cc1cn(Cc2ccccc2)nn1 (3D coordinates assigned)
C=c1/c(=C/c2c([O-])[n-]c(=O)[n-]c2=O)cc(C)n1Cc1cn(Cc2ccccc2)nn1 (optimized conformer: 121.14636110982592 kcal/mol)

>  <smiles>  (23) 
C=c1c(=Cc2c(O)[nH]c(=O)[nH]c2=O)cc(C)n1Cc1cn(Cc2ccccc2)nn1

>  <score_type>  (23) 
oracle

>  <origin>  (23) 
adg

>  <m_score__min__energy>  (23) 
-17.629999999999999

>  <m_primary>  (23) 
energy

$$$$
23:0
     RDKit          3D

 49 51  0  0  0  0  0  0  0  0999 V2000
   56.2600   29.9330   43.2110 C   0  0  0  0  0  0  0  0  0  0  0  0
   56.8790   29.6180   44.3510 C   0  0  0  0  0  0  0  0  0  0  0  0
   56.7950   28.4040   44.9300 N   0  0  0  0  0  0  0  0  0  0  0  0
   57.5700   28.4480   46.0360 C   0  0  0  0  0  0  0  0  0  0  0  0
   57.7880   27.4210   46.8720 C   0  0  0  0  0  0  0  0  0  0  0  0
   57.1810   26.0870   46.7180 C   0  0  0  0  0  0  0  0  0  0  0  0
   57.8230   24.9470   47.0240 N   0  0  0  0  0  0  0  0  0  0  0  0
   56.8860   23.9950   46.8200 C   0  0  0  0  0  0  0  0  0  0  0  0
   57.1160   22.7700   46.9890 O   0  0  0  0  0  0  0  0  0  0  0  0
   55.6810   24.4610   46.4280 N   0  0  0  0  0  0  0  0  0  0  0  0
   55.8790   25.7900   46.3830 C   0  0  0  0  0  0  0  0  0  0  0  0
   54.8810   26.7100   46.0820 O   0  0  0  0  0  0  0  0  0  0  0  0
   58.1630   29.6930   46.1610 C   0  0  0  0  0  0  0  0  0  0  0  0
   57.7070   30.4480   45.0970 C   0  0  0  0  0  0  0  0  0  0  0  0
   58.1340   31.8550   44.7820 C   0  0  0  0  0  0  0  0  0  0  0  0
   56.9770   32.8330   45.0070 C   0  0  0  0  0  0  0  0  0  0  0  0
   57.4000   33.9840   45.9290 C   0  0  0  0  0  0  0  0  0  0  0  0
   58.8600   34.3340   45.7800 C   0  0  0  0  0  0  0  0  0  0  0  0
   59.2360   35.0160   44.7870 O   0  0  0  0  0  0  0  0  0  0  0  0
   59.8310   33.9250   46.7640 N   0  0  0  0  0  0  0  0  0  0  0  0
   59.4800   33.7400   48.1760 C   0  0  0  0  0  0  0  0  0  0  0  0
   60.0410   32.4040   48.7000 C   0  0  0  0  0  0  0  0  0  0  0  0
   61.3370   32.0090   48.0890 N   0  0  0  0  0  0  0  0  0  0  0  0
   61.1790   30.8850   47.1480 C   0  0  0  0  0  0  0  0  0  0  0  0
   62.0680   33.1380   47.4770 C   0  0  0  0  0  0  0  0  0  0  0  0
   61.2420   33.8240   46.3760 C   0  0  0  0  0  0  0  0  0  0  0  0
   56.3674   30.9425   42.7876 H   0  0  0  0  0  0  0  0  0  0  0  0
   55.6425   29.1830   42.6950 H   0  0  0  0  0  0  0  0  0  0  0  0
   56.2760   27.5810   44.5480 H   0  0  0  0  0  0  0  0  0  0  0  0
   58.4620   27.5853   47.7257 H   0  0  0  0  0  0  0  0  0  0  0  0
   54.7690   27.0610   45.1380 H   0  0  0  0  0  0  0  0  0  0  0  0
   58.8582   30.0165   46.9497 H   0  0  0  0  0  0  0  0  0  0  0  0
   58.9742   32.1326   45.4355 H   0  0  0  0  0  0  0  0  0  0  0  0
   58.4400   31.9047   43.7266 H   0  0  0  0  0  0  0  0  0  0  0  0
   56.6618   33.2462   44.0375 H   0  0  0  0  0  0  0  0  0  0  0  0
   56.1473   32.2900   45.4831 H   0  0  0  0  0  0  0  0  0  0  0  0
   56.7974   34.8714   45.6853 H   0  0  0  0  0  0  0  0  0  0  0  0
   57.2375   33.6589   46.9672 H   0  0  0  0  0  0  0  0  0  0  0  0
   59.9031   34.5666   48.7657 H   0  0  0  0  0  0  0  0  0  0  0  0
   58.3843   33.7283   48.2720 H   0  0  0  0  0  0  0  0  0  0  0  0
   60.1841   32.4920   49.7871 H   0  0  0  0  0  0  0  0  0  0  0  0
   59.3122   31.6258   48.4292 H   0  0  0  0  0  0  0  0  0  0  0  0
   61.0476   29.9500   47.7124 H   0  0  0  0  0  0  0  0  0  0  0  0
   60.2964   31.0582   46.5148 H   0  0  0  0  0  0  0  0  0  0  0  0
   62.0752   30.8082   46.5148 H   0  0  0  0  0  0  0  0  0  0  0  0
   62.3021   33.8760   48.2584 H   0  0  0  0  0  0  0  0  0  0  0  0
   62.9864   32.7423   47.0188 H   0  0  0  0  0  0  0  0  0  0  0  0
   61.6410   34.8345   46.2037 H   0  0  0  0  0  0  0  0  0  0  0  0
   61.3111   33.2210   45.4586 H   0  0  0  0  0  0  0  0  0  0  0  0
  1  2  2  0
  2  3  1  0
  3  4  1  0
  4  5  2  3
  5  6  1  0
  6  7  1  0
  7  8  1  0
  8  9  2  0
  8 10  1  0
 10 11  1  0
 11 12  1  0
  4 13  1  0
 13 14  2  0
 14 15  1  0
 15 16  1  0
 16 17  1  0
 17 18  1  0
 18 19  2  0
 18 20  1  0
 20 21  1  0
 21 22  1  0
 22 23  1  0
 23 24  1  0
 23 25  1  0
 25 26  1  0
 14  2  1  0
 26 20  1  0
 11  6  2  0
  1 27  1  0
  1 28  1  0
  3 29  1  0
  5 30  1  0
 12 31  1  0
 13 32  1  0
 15 33  1  0
 15 34  1  0
 16 35  1  0
 16 36  1  0
 17 37  1  0
 17 38  1  0
 21 39  1  0
 21 40  1  0
 22 41  1  0
 22 42  1  0
 24 43  1  0
 24 44  1  0
 24 45  1  0
 25 46  1  0
 25 47  1  0
 26 48  1  0
 26 49  1  0
M  CHG  2   7  -1  10  -1
M  END
>  <UniqueID>  (24) 
22

>  <SMILES>  (24) 
C=c1[nH]c(=Cc2[n-]c(=O)[n-]c2O)cc1CCCC(=O)N1CCN(C)CC1

>  <Energy>  (24) 
113.87404125065834

>  <Genealogy>  (24) 
C=c1[nH]c(=Cc2[n-]c(=O)[n-]c2O)cc1CCCC(=O)N1CCN(C)CC1 (protonated)
C=c1[nH]c(=Cc2[n-]c(=O)[n-]c2O)cc1CCCC(=O)N1CCN(C)CC1 (3D coordinates assigned)
C=c1[nH]c(=Cc2[n-]c(=O)[n-]c2O)cc1CCCC(=O)N1CCN(C)CC1 (nonaromatic ring conformer: 113.87404125065834 kcal/mol)

>  <smiles>  (24) 
C=c1[nH]c(=Cc2[nH]c(=O)[nH]c2O)cc1CCCC(=O)N1CCN(C)CC1

>  <score_type>  (24) 
oracle

>  <origin>  (24) 
adg

>  <m_score__min__energy>  (24) 
-13.68

>  <m_primary>  (24) 
energy

$$$$
24:0
     RDKit          3D

 55 58  0  0  0  0  0  0  0  0999 V2000
   55.4839   31.8521   44.9180 H   0  0  0  0  0  0  0  0  0  0  0  0
   56.4430   31.5290   44.4870 C   0  0  0  0  0  0  0  0  0  0  0  0
   56.5720   30.1010   44.1410 C   0  0  0  0  0  0  0  0  0  0  0  0
   57.2060   29.8010   43.0990 O   0  0  0  0  0  0  0  0  0  0  0  0
   56.1190   29.0620   45.0210 N   0  0  0  0  0  0  0  0  0  0  0  0
   56.7880   28.0570   45.5140 C   0  0  0  0  0  0  0  0  0  0  0  0
   58.1400   28.1970   45.6310 N   0  0  0  0  0  0  0  0  0  0  0  0
   58.9390   27.2170   46.1290 C   0  0  0  0  0  0  0  0  0  0  0  0
   60.0259   27.3729   46.1946 H   0  0  0  0  0  0  0  0  0  0  0  0
   58.3790   26.0130   46.5570 C   0  0  0  0  0  0  0  0  0  0  0  0
   59.0213   25.2087   46.9451 H   0  0  0  0  0  0  0  0  0  0  0  0
   56.9970   25.8390   46.4880 C   0  0  0  0  0  0  0  0  0  0  0  0
   56.5456   24.8954   46.8284 H   0  0  0  0  0  0  0  0  0  0  0  0
   56.1840   26.8590   45.9880 C   0  0  0  0  0  0  0  0  0  0  0  0
   54.8030   26.6710   46.0150 O   0  0  0  0  0  0  0  0  0  0  0  0
   57.3840   32.4710   44.3260 C   0  0  0  0  0  0  0  0  0  0  0  0
   57.2922   33.1324   43.4519 H   0  0  0  0  0  0  0  0  0  0  0  0
   58.5290   32.6920   45.2230 C   0  0  0  0  0  0  0  0  0  0  0  0
   59.2520   33.8810   45.1280 C   0  0  0  0  0  0  0  0  0  0  0  0
   58.9432   34.6555   44.4105 H   0  0  0  0  0  0  0  0  0  0  0  0
   60.3670   34.0900   45.9420 C   0  0  0  0  0  0  0  0  0  0  0  0
   60.9397   35.0243   45.8471 H   0  0  0  0  0  0  0  0  0  0  0  0
   60.7680   33.1250   46.8800 C   0  0  0  0  0  0  0  0  0  0  0  0
   61.9930   33.3600   47.6880 C   0  0  0  0  0  0  0  0  0  0  0  0
   62.9120   34.0760   47.2140 O   0  0  0  0  0  0  0  0  0  0  0  0
   62.1610   32.7720   48.9870 N   0  0  0  0  0  0  0  0  0  0  0  0
   61.4040   32.1940   49.4040 H   0  0  0  0  0  0  0  0  0  0  0  0
   63.3490   32.9630   49.7710 C   0  0  0  0  0  0  0  0  0  0  0  0
   64.6100   32.8120   49.1610 C   0  0  0  0  0  0  0  0  0  0  0  0
   64.6719   32.4939   48.1098 H   0  0  0  0  0  0  0  0  0  0  0  0
   65.7810   33.0620   49.8770 C   0  0  0  0  0  0  0  0  0  0  0  0
   66.7602   32.9310   49.3932 H   0  0  0  0  0  0  0  0  0  0  0  0
   65.7100   33.4780   51.2060 C   0  0  0  0  0  0  0  0  0  0  0  0
   66.6338   33.6814   51.7675 H   0  0  0  0  0  0  0  0  0  0  0  0
   64.4680   33.6370   51.8260 C   0  0  0  0  0  0  0  0  0  0  0  0
   64.4222   33.9690   52.8737 H   0  0  0  0  0  0  0  0  0  0  0  0
   63.2730   33.3770   51.1250 C   0  0  0  0  0  0  0  0  0  0  0  0
   61.9770   33.5040   51.8410 C   0  0  0  0  0  0  0  0  0  0  0  0
   61.9450   33.7560   53.0780 O   0  0  0  0  0  0  0  0  0  0  0  0
   60.7500   33.3730   51.1150 N   0  0  0  0  0  0  0  0  0  0  0  0
   59.6860   32.4520   51.4920 C   0  0  0  0  0  0  0  0  0  0  0  0
   59.8413   32.1239   52.5304 H   0  0  0  0  0  0  0  0  0  0  0  0
   58.7183   32.9668   51.3997 H   0  0  0  0  0  0  0  0  0  0  0  0
   59.6890   31.2580   50.5920 C   0  0  0  0  0  0  0  0  0  0  0  0
   60.7760   30.6320   50.2010 O   0  0  0  0  0  0  0  0  0  0  0  0
   60.4230   29.6280   49.4280 C   0  0  0  0  0  0  0  0  0  0  0  0
   61.1184   28.9227   48.9494 H   0  0  0  0  0  0  0  0  0  0  0  0
   59.0490   29.5930   49.3080 C   0  0  0  0  0  0  0  0  0  0  0  0
   58.4548   28.8703   48.7295 H   0  0  0  0  0  0  0  0  0  0  0  0
   58.5700   30.6460   50.0590 C   0  0  0  0  0  0  0  0  0  0  0  0
   57.5192   30.9374   50.2034 H   0  0  0  0  0  0  0  0  0  0  0  0
   60.0060   31.9460   47.0010 C   0  0  0  0  0  0  0  0  0  0  0  0
   60.2958   31.1803   47.7356 H   0  0  0  0  0  0  0  0  0  0  0  0
   58.8830   31.7440   46.1920 C   0  0  0  0  0  0  0  0  0  0  0  0
   58.2746   30.8361   46.3172 H   0  0  0  0  0  0  0  0  0  0  0  0
  1  2  1  0
  2  3  1  0
  3  4  2  0
  3  5  1  0
  5  6  2  0
  6  7  1  0
  7  8  1  0
  8  9  1  0
  8 10  2  0
 10 11  1  0
 10 12  1  0
 12 13  1  0
 12 14  2  0
 14 15  1  0
  2 16  2  3
 16 17  1  0
 16 18  1  0
 18 19  2  0
 19 20  1  0
 19 21  1  0
 21 22  1  0
 21 23  2  0
 23 24  1  0
 24 25  2  0
 24 26  1  0
 26 27  1  0
 26 28  1  0
 28 29  2  0
 29 30  1  0
 29 31  1  0
 31 32  1  0
 31 33  2  0
 33 34  1  0
 33 35  1  0
 35 36  1  0
 35 37  2  0
 37 38  1  0
 38 39  2  0
 38 40  1  0
 40 41  1  0
 41 42  1  0
 41 43  1  0
 41 44  1  0
 44 45  1  0
 45 46  1  0
 46 47  1  0
 46 48  2  0
 48 49  1  0
 48 50  1  0
 50 51  1  0
 23 52  1  0
 52 53  1  0
 52 54  2  0
 54 55  1  0
 14  6  1  0
 54 18  1  0
 37 28  1  0
 50 44  2  0
M  CHG  3   7  -1  15  -1  40  -1
M  END
>  <UniqueID>  (25) 
23

>  <SMILES>  (25) 
O=C(C=Cc1ccc(C(=O)Nc2ccccc2C(=O)[N-]Cc2ccco2)cc1)/N=c1/[n-]cccc1[O-]

>  <Energy>  (25) 
111.5543391761117

>  <Genealogy>  (25) 
O=C(C=Cc1ccc(C(=O)Nc2ccccc2C(=O)[N-]Cc2ccco2)cc1)N=c1[n-]cccc1[O-] (protonated)
O=C(C=Cc1ccc(C(=O)Nc2ccccc2C(=O)[N-]Cc2ccco2)cc1)/N=c1/[n-]cccc1[O-] (cis-trans isomerization)
O=C(C=Cc1ccc(C(=O)Nc2ccccc2C(=O)[N-]Cc2ccco2)cc1)/N=c1/[n-]cccc1[O-] (3D coordinates assigned)
O=C(C=Cc1ccc(C(=O)Nc2ccccc2C(=O)[N-]Cc2ccco2)cc1)/N=c1/[n-]cccc1[O-] (optimized conformer: 111.5543391761117 kcal/mol)

>  <smiles>  (25) 
O=C(C=Cc1ccc(C(=O)Nc2ccccc2C(=O)NCc2ccco2)cc1)N=c1[nH]cccc1O

>  <score_type>  (25) 
oracle

>  <origin>  (25) 
adg

>  <m_score__min__energy>  (25) 
-14.75

>  <m_primary>  (25) 
energy

$$$$
25:0
     RDKit          3D

 41 43  0  0  0  0  0  0  0  0999 V2000
   57.0090   29.7050   51.7240 N   0  0  0  0  0  0  0  0  0  0  0  0
   58.3650   30.0910   51.5090 C   0  0  0  0  0  0  0  0  0  0  0  0
   59.0960   30.3480   52.5050 O   0  0  0  0  0  0  0  0  0  0  0  0
   58.9100   30.1900   50.1340 C   0  0  0  0  0  0  0  0  0  0  0  0
   59.8110   29.2220   49.6540 C   0  0  0  0  0  0  0  0  0  0  0  0
   60.3460   29.3280   48.3680 C   0  0  0  0  0  0  0  0  0  0  0  0
   59.9840   30.3940   47.5450 C   0  0  0  0  0  0  0  0  0  0  0  0
   59.0860   31.3660   48.0030 C   0  0  0  0  0  0  0  0  0  0  0  0
   58.6910   32.7340   46.9670 S   0  0  0  0  0  0  0  0  0  0  0  0
   59.5940   33.9020   47.2620 O   0  0  0  0  0  0  0  0  0  0  0  0
   57.2700   33.1470   47.2310 O   0  0  0  0  0  0  0  0  0  0  0  0
   58.8430   32.2430   45.3030 N   0  0  0  0  0  0  0  0  0  0  0  0
   57.5550   32.2520   44.6030 C   0  0  0  0  0  0  0  0  0  0  0  0
   57.2780   30.9500   43.8960 C   0  0  0  0  0  0  0  0  0  0  0  0
   56.8750   30.9960   42.7020 O   0  0  0  0  0  0  0  0  0  0  0  0
   57.4680   29.6700   44.5340 N   0  0  0  0  0  0  0  0  0  0  0  0
   56.5270   28.8140   45.0020 C   0  0  0  0  0  0  0  0  0  0  0  0
   55.1540   28.9940   44.8780 O   0  0  0  0  0  0  0  0  0  0  0  0
   57.1230   27.7280   45.6090 C   0  0  0  0  0  0  0  0  0  0  0  0
   58.4760   27.9100   45.5040 C   0  0  0  0  0  0  0  0  0  0  0  0
   58.6610   29.1070   44.8380 C   0  0  0  0  0  0  0  0  0  0  0  0
   59.8960   29.6760   44.5340 O   0  0  0  0  0  0  0  0  0  0  0  0
   59.4950   26.9670   46.0590 C   0  0  0  0  0  0  0  0  0  0  0  0
   58.8490   25.7800   46.7460 C   0  0  0  0  0  0  0  0  0  0  0  0
   57.5130   25.6020   46.8500 C   0  0  0  0  0  0  0  0  0  0  0  0
   56.4820   26.5740   46.3090 C   0  0  0  0  0  0  0  0  0  0  0  0
   58.5490   31.2620   49.2950 C   0  0  0  0  0  0  0  0  0  0  0  0
   56.2260   30.2150   51.2560 H   0  0  0  0  0  0  0  0  0  0  0  0
   60.0962   28.3756   50.2960 H   0  0  0  0  0  0  0  0  0  0  0  0
   61.0542   28.5692   48.0038 H   0  0  0  0  0  0  0  0  0  0  0  0
   60.4056   30.4716   46.5320 H   0  0  0  0  0  0  0  0  0  0  0  0
   56.7553   32.4332   45.3363 H   0  0  0  0  0  0  0  0  0  0  0  0
   57.5912   33.0462   43.8428 H   0  0  0  0  0  0  0  0  0  0  0  0
   60.1570   30.5860   44.8910 H   0  0  0  0  0  0  0  0  0  0  0  0
   60.1272   26.6015   45.2363 H   0  0  0  0  0  0  0  0  0  0  0  0
   60.0926   27.5104   46.8057 H   0  0  0  0  0  0  0  0  0  0  0  0
   59.5075   25.0171   47.1867 H   0  0  0  0  0  0  0  0  0  0  0  0
   57.1512   24.6961   47.3585 H   0  0  0  0  0  0  0  0  0  0  0  0
   55.8305   26.0437   45.5988 H   0  0  0  0  0  0  0  0  0  0  0  0
   55.9031   26.9669   47.1578 H   0  0  0  0  0  0  0  0  0  0  0  0
   57.8411   32.0230   49.6551 H   0  0  0  0  0  0  0  0  0  0  0  0
  1  2  1  0
  2  3  2  0
  2  4  1  0
  4  5  2  0
  5  6  1  0
  6  7  2  0
  7  8  1  0
  8  9  1  0
  9 10  2  0
  9 11  2  0
  9 12  1  0
 12 13  1  0
 13 14  1  0
 14 15  2  0
 14 16  1  0
 16 17  1  0
 17 18  1  0
 17 19  2  0
 19 20  1  0
 20 21  2  0
 21 22  1  0
 20 23  1  0
 23 24  1  0
 24 25  2  0
 25 26  1  0
  8 27  2  0
 27  4  1  0
 21 16  1  0
 26 19  1  0
  1 28  1  0
  5 29  1  0
  6 30  1  0
  7 31  1  0
 13 32  1  0
 13 33  1  0
 22 34  1  0
 23 35  1  0
 23 36  1  0
 24 37  1  0
 25 38  1  0
 26 39  1  0
 26 40  1  0
 27 41  1  0
M  CHG  3   1  -1  12  -1  18  -1
M  END
>  <UniqueID>  (26) 
24

>  <SMILES>  (26) 
[NH-]C(=O)c1cccc(S(=O)(=O)[N-]CC(=O)n2c([O-])c3c(c2O)CC=CC3)c1

>  <Energy>  (26) 
70.94815514861187

>  <Genealogy>  (26) 
[NH-]C(=O)c1cccc(S(=O)(=O)[N-]CC(=O)n2c([O-])c3c(c2O)CC=CC3)c1 (protonated)
[NH-]C(=O)c1cccc(S(=O)(=O)[N-]CC(=O)n2c([O-])c3c(c2O)CC=CC3)c1 (3D coordinates assigned)
[NH-]C(=O)c1cccc(S(=O)(=O)[N-]CC(=O)n2c([O-])c3c(c2O)CC=CC3)c1 (nonaromatic ring conformer: 70.94815514861187 kcal/mol)

>  <smiles>  (26) 
NC(=O)c1cccc(S(=O)(=O)NCC(=O)n2c(O)c3c(c2O)CC=CC3)c1

>  <score_type>  (26) 
oracle

>  <origin>  (26) 
adg

>  <m_score__min__energy>  (26) 
-13.789999999999999

>  <m_primary>  (26) 
energy

$$$$
26:0
     RDKit          3D

 34 36  0  0  0  0  0  0  0  0999 V2000
   59.7790   31.0300   49.9980 O   0  0  0  0  0  0  0  0  0  0  0  0
   59.5430   31.4310   48.8290 C   0  0  0  0  0  0  0  0  0  0  0  0
   59.8140   30.5910   47.6990 N   0  0  0  0  0  0  0  0  0  0  0  0
   58.9820   29.5390   47.1900 C   0  0  0  0  0  0  0  0  0  0  0  0
   58.1260   29.7250   46.0920 C   0  0  0  0  0  0  0  0  0  0  0  0
   57.3140   28.6790   45.6420 C   0  0  0  0  0  0  0  0  0  0  0  0
   57.3280   27.4310   46.2940 C   0  0  0  0  0  0  0  0  0  0  0  0
   56.4810   26.3030   45.8280 C   0  0  0  0  0  0  0  0  0  0  0  0
   57.0230   25.1860   45.1710 C   0  0  0  0  0  0  0  0  0  0  0  0
   56.1780   24.1600   44.7530 C   0  0  0  0  0  0  0  0  0  0  0  0
   54.8090   24.2680   44.9910 C   0  0  0  0  0  0  0  0  0  0  0  0
   54.0240   23.3560   44.6230 O   0  0  0  0  0  0  0  0  0  0  0  0
   54.3260   25.3690   45.6200 N   0  0  0  0  0  0  0  0  0  0  0  0
   55.1330   26.3520   46.0220 N   0  0  0  0  0  0  0  0  0  0  0  0
   58.1780   27.2570   47.4000 C   0  0  0  0  0  0  0  0  0  0  0  0
   58.9860   28.3050   47.8490 C   0  0  0  0  0  0  0  0  0  0  0  0
   59.0020   32.7430   48.6430 N   0  0  0  0  0  0  0  0  0  0  0  0
   58.8210   33.3930   47.3770 C   0  0  0  0  0  0  0  0  0  0  0  0
   57.6980   33.0660   46.6060 C   0  0  0  0  0  0  0  0  0  0  0  0
   57.4950   33.6680   45.3610 C   0  0  0  0  0  0  0  0  0  0  0  0
   58.4260   34.5860   44.8680 C   0  0  0  0  0  0  0  0  0  0  0  0
   59.5670   34.8930   45.6140 C   0  0  0  0  0  0  0  0  0  0  0  0
   59.7750   34.2940   46.8610 C   0  0  0  0  0  0  0  0  0  0  0  0
   60.9270   34.5510   47.5290 F   0  0  0  0  0  0  0  0  0  0  0  0
   58.0941   30.6995   45.5828 H   0  0  0  0  0  0  0  0  0  0  0  0
   56.6591   28.8325   44.7716 H   0  0  0  0  0  0  0  0  0  0  0  0
   58.1058   25.1218   44.9880 H   0  0  0  0  0  0  0  0  0  0  0  0
   56.5863   23.2758   44.2416 H   0  0  0  0  0  0  0  0  0  0  0  0
   58.2074   26.2865   47.9170 H   0  0  0  0  0  0  0  0  0  0  0  0
   59.6307   28.1584   48.7281 H   0  0  0  0  0  0  0  0  0  0  0  0
   56.9715   32.3310   46.9827 H   0  0  0  0  0  0  0  0  0  0  0  0
   56.6019   33.4190   44.7690 H   0  0  0  0  0  0  0  0  0  0  0  0
   58.2607   35.0670   43.8926 H   0  0  0  0  0  0  0  0  0  0  0  0
   60.3040   35.6080   45.2195 H   0  0  0  0  0  0  0  0  0  0  0  0
  1  2  2  0
  2  3  1  0
  3  4  1  0
  4  5  2  0
  5  6  1  0
  6  7  2  0
  7  8  1  0
  8  9  1  0
  9 10  2  0
 10 11  1  0
 11 12  2  0
 11 13  1  0
 13 14  1  0
  7 15  1  0
 15 16  2  0
  2 17  1  0
 17 18  1  0
 18 19  2  0
 19 20  1  0
 20 21  2  0
 21 22  1  0
 22 23  2  0
 23 24  1  0
 16  4  1  0
 23 18  1  0
 14  8  2  0
  5 25  1  0
  6 26  1  0
  9 27  1  0
 10 28  1  0
 15 29  1  0
 16 30  1  0
 19 31  1  0
 20 32  1  0
 21 33  1  0
 22 34  1  0
M  CHG  3   3  -1  13  -1  17  -1
M  END
>  <UniqueID>  (27) 
25

>  <SMILES>  (27) 
O=C([N-]c1ccc(-c2ccc(=O)[n-]n2)cc1)[N-]c1ccccc1F

>  <Energy>  (27) 
50.908886759270324

>  <Genealogy>  (27) 
O=C([N-]c1ccc(-c2ccc(=O)[n-]n2)cc1)[N-]c1ccccc1F (protonated)
O=C([N-]c1ccc(-c2ccc(=O)[n-]n2)cc1)[N-]c1ccccc1F (3D coordinates assigned)
O=C([N-]c1ccc(-c2ccc(=O)[n-]n2)cc1)[N-]c1ccccc1F (optimized conformer: 50.908886759270324 kcal/mol)

>  <smiles>  (27) 
O=C(Nc1ccc(-c2ccc(=O)[nH]n2)cc1)Nc1ccccc1F

>  <score_type>  (27) 
oracle

>  <origin>  (27) 
adg

>  <m_score__min__energy>  (27) 
-11.67

>  <m_primary>  (27) 
energy

$$$$
27:0
     RDKit          3D

 43 45  0  0  0  0  0  0  0  0999 V2000
   63.4010   30.5990   51.0930 N   0  0  0  0  0  0  0  0  0  0  0  0
   63.3040   31.2400   50.1350 C   0  0  0  0  0  0  0  0  0  0  0  0
   63.1850   32.0400   48.9400 C   0  0  0  0  0  0  0  0  0  0  0  0
   64.1810   32.9850   48.6520 C   0  0  0  0  0  0  0  0  0  0  0  0
   64.0830   33.7870   47.5140 C   0  0  0  0  0  0  0  0  0  0  0  0
   62.9930   33.6500   46.6530 C   0  0  0  0  0  0  0  0  0  0  0  0
   61.9930   32.7130   46.9310 C   0  0  0  0  0  0  0  0  0  0  0  0
   62.0720   31.9070   48.0820 C   0  0  0  0  0  0  0  0  0  0  0  0
   61.0550   30.9260   48.3530 N   0  0  0  0  0  0  0  0  0  0  0  0
   59.8280   31.2260   49.0330 C   0  0  0  0  0  0  0  0  0  0  0  0
   59.6200   32.3760   49.5070 O   0  0  0  0  0  0  0  0  0  0  0  0
   58.8060   30.1510   49.2430 C   0  0  0  0  0  0  0  0  0  0  0  0
   59.5530   28.4950   49.0500 S   0  0  0  0  0  0  0  0  0  0  0  0
   59.5930   28.5560   47.2610 C   0  0  0  0  0  0  0  0  0  0  0  0
   60.7820   28.4820   46.6080 N   0  0  0  0  0  0  0  0  0  0  0  0
   60.8340   28.5190   45.2530 C   0  0  0  0  0  0  0  0  0  0  0  0
   61.9450   28.4430   44.6660 O   0  0  0  0  0  0  0  0  0  0  0  0
   59.6560   28.6380   44.5120 C   0  0  0  0  0  0  0  0  0  0  0  0
   58.4360   28.7230   45.2010 C   0  0  0  0  0  0  0  0  0  0  0  0
   57.1830   28.8570   44.5190 N   0  0  0  0  0  0  0  0  0  0  0  0
   56.4880   30.3560   43.9910 S   0  0  0  0  0  0  0  0  0  0  0  0
   55.0870   30.4610   44.5230 O   0  0  0  0  0  0  0  0  0  0  0  0
   56.4450   30.3750   42.4890 O   0  0  0  0  0  0  0  0  0  0  0  0
   57.4330   31.7100   44.6030 C   0  0  0  0  0  0  0  0  0  0  0  0
   57.7850   31.7630   45.9590 C   0  0  0  0  0  0  0  0  0  0  0  0
   58.5440   32.8320   46.4460 C   0  0  0  0  0  0  0  0  0  0  0  0
   58.9510   33.8540   45.5820 C   0  0  0  0  0  0  0  0  0  0  0  0
   59.9050   35.1930   46.1940 Cl  0  0  0  0  0  0  0  0  0  0  0  0
   58.5960   33.8070   44.2300 C   0  0  0  0  0  0  0  0  0  0  0  0
   57.8370   32.7390   43.7410 C   0  0  0  0  0  0  0  0  0  0  0  0
   58.4370   28.6780   46.5590 N   0  0  0  0  0  0  0  0  0  0  0  0
   65.0432   33.0944   49.3262 H   0  0  0  0  0  0  0  0  0  0  0  0
   64.8659   34.5281   47.2953 H   0  0  0  0  0  0  0  0  0  0  0  0
   62.9205   34.2802   45.7543 H   0  0  0  0  0  0  0  0  0  0  0  0
   61.1393   32.6052   46.2458 H   0  0  0  0  0  0  0  0  0  0  0  0
   61.2580   29.9240   48.1340 H   0  0  0  0  0  0  0  0  0  0  0  0
   58.3901   30.2426   50.2572 H   0  0  0  0  0  0  0  0  0  0  0  0
   58.0124   30.2686   48.4904 H   0  0  0  0  0  0  0  0  0  0  0  0
   59.6837   28.6645   43.4127 H   0  0  0  0  0  0  0  0  0  0  0  0
   57.4636   30.9622   46.6413 H   0  0  0  0  0  0  0  0  0  0  0  0
   58.8213   32.8691   47.5098 H   0  0  0  0  0  0  0  0  0  0  0  0
   58.9142   34.6112   43.5503 H   0  0  0  0  0  0  0  0  0  0  0  0
   57.5565   32.7063   42.6779 H   0  0  0  0  0  0  0  0  0  0  0  0
  1  2  3  0
  2  3  1  0
  3  4  2  0
  4  5  1  0
  5  6  2  0
  6  7  1  0
  7  8  2  0
  8  9  1  0
  9 10  1  0
 10 11  2  0
 10 12  1  0
 12 13  1  0
 13 14  1  0
 14 15  2  0
 15 16  1  0
 16 17  2  0
 16 18  1  0
 18 19  2  0
 19 20  1  0
 20 21  1  0
 21 22  2  0
 21 23  2  0
 21 24  1  0
 24 25  2  0
 25 26  1  0
 26 27  2  0
 27 28  1  0
 27 29  1  0
 29 30  2  0
 19 31  1  0
  8  3  1  0
 31 14  1  0
 30 24  1  0
  4 32  1  0
  5 33  1  0
  6 34  1  0
  7 35  1  0
  9 36  1  0
 12 37  1  0
 12 38  1  0
 18 39  1  0
 25 40  1  0
 26 41  1  0
 29 42  1  0
 30 43  1  0
M  CHG  2  20  -1  31  -1
M  END
>  <UniqueID>  (28) 
26

>  <SMILES>  (28) 
N#Cc1ccccc1NC(=O)CSc1nc(=O)cc([N-]S(=O)(=O)c2ccc(Cl)cc2)[n-]1

>  <Energy>  (28) 
48.3584941999705

>  <Genealogy>  (28) 
N#Cc1ccccc1NC(=O)CSc1nc(=O)cc([N-]S(=O)(=O)c2ccc(Cl)cc2)[n-]1 (protonated)
N#Cc1ccccc1NC(=O)CSc1nc(=O)cc([N-]S(=O)(=O)c2ccc(Cl)cc2)[n-]1 (3D coordinates assigned)
N#Cc1ccccc1NC(=O)CSc1nc(=O)cc([N-]S(=O)(=O)c2ccc(Cl)cc2)[n-]1 (optimized conformer: 48.3584941999705 kcal/mol)

>  <smiles>  (28) 
N#Cc1ccccc1NC(=O)CSc1nc(=O)cc(NS(=O)(=O)c2ccc(Cl)cc2)[nH]1

>  <score_type>  (28) 
oracle

>  <origin>  (28) 
adg

>  <m_score__min__energy>  (28) 
-12.029999999999999

>  <m_primary>  (28) 
energy

$$$$
28:0
     RDKit          3D

 25 27  0  0  0  0  0  0  0  0999 V2000
   56.3447   21.8670   41.5386 H   0  0  0  0  0  0  0  0  0  0  0  0
   56.3170   22.0240   42.6270 C   0  0  0  0  0  0  0  0  0  0  0  0
   56.2750   20.9550   43.4660 N   0  0  0  0  0  0  0  0  0  0  0  0
   56.2380   21.1110   44.8150 C   0  0  0  0  0  0  0  0  0  0  0  0
   56.2032   20.2267   45.4683 H   0  0  0  0  0  0  0  0  0  0  0  0
   56.2440   22.3900   45.3750 C   0  0  0  0  0  0  0  0  0  0  0  0
   56.2152   22.5154   46.4674 H   0  0  0  0  0  0  0  0  0  0  0  0
   56.2870   23.5170   44.5350 C   0  0  0  0  0  0  0  0  0  0  0  0
   56.2940   24.8870   45.0970 C   0  0  0  0  0  0  0  0  0  0  0  0
   55.3680   25.3390   45.9770 N   0  0  0  0  0  0  0  0  0  0  0  0
   55.5620   26.6010   46.3560 N   0  0  0  0  0  0  0  0  0  0  0  0
   56.6440   27.1670   45.7780 C   0  0  0  0  0  0  0  0  0  0  0  0
   57.0500   28.3820   45.9920 N   0  0  0  0  0  0  0  0  0  0  0  0
   56.9940   29.4930   45.0840 C   0  0  0  0  0  0  0  0  0  0  0  0
   57.3810   30.6580   45.4730 N   0  0  0  0  0  0  0  0  0  0  0  0
   57.3680   31.6840   44.4470 C   0  0  0  0  0  0  0  0  0  0  0  0
   56.4596   32.2976   44.5380 H   0  0  0  0  0  0  0  0  0  0  0  0
   58.2372   32.3506   44.5476 H   0  0  0  0  0  0  0  0  0  0  0  0
   57.3840   30.9690   43.1010 C   0  0  0  0  0  0  0  0  0  0  0  0
   56.8355   31.5595   42.3524 H   0  0  0  0  0  0  0  0  0  0  0  0
   58.4137   30.8378   42.7369 H   0  0  0  0  0  0  0  0  0  0  0  0
   56.5700   29.3600   43.3480 S   0  0  0  0  0  0  0  0  0  0  0  0
   57.4280   26.0940   44.7510 S   0  0  0  0  0  0  0  0  0  0  0  0
   56.3250   23.3220   43.1450 C   0  0  0  0  0  0  0  0  0  0  0  0
   56.3609   24.1872   42.4667 H   0  0  0  0  0  0  0  0  0  0  0  0
  1  2  1  0
  2  3  2  0
  3  4  1  0
  4  5  1  0
  4  6  2  0
  6  7  1  0
  6  8  1  0
  8  9  1  0
  9 10  2  0
 10 11  1  0
 11 12  1  0
 12 13  2  0
 13 14  1  0
 14 15  2  0
 15 16  1  0
 16 17  1  0
 16 18  1  0
 16 19  1  0
 19 20  1  0
 19 21  1  0
 19 22  1  0
 12 23  1  0
  8 24  2  0
 24 25  1  0
 24  2  1  0
 23  9  1  0
 22 14  1  0
M  CHG  1  11  -1
M  END
>  <UniqueID>  (29) 
27

>  <SMILES>  (29) 
c1cc(-c2n[n-]/c(=N\C3=NCCS3)s2)ccn1

>  <Energy>  (29) 
72.07111844652037

>  <Genealogy>  (29) 
c1cc(-c2n[n-]c(=NC3=NCCS3)s2)ccn1 (protonated)
c1cc(-c2n[n-]/c(=N\C3=NCCS3)s2)ccn1 (cis-trans isomerization)
c1cc(-c2n[n-]/c(=N\C3=NCCS3)s2)ccn1 (3D coordinates assigned)
c1cc(-c2n[n-]/c(=N\C3=NCCS3)s2)ccn1 (nonaromatic ring conformer: 72.07111844652037 kcal/mol)

>  <smiles>  (29) 
c1cc(-c2n[nH]c(=NC3=NCCS3)s2)ccn1

>  <score_type>  (29) 
oracle

>  <origin>  (29) 
adg

>  <m_score__min__energy>  (29) 
-8.7400000000000002

>  <m_primary>  (29) 
energy

$$$$
29:0
     RDKit          3D

 27 28  0  0  0  0  0  0  0  0999 V2000
   54.4860   27.0800   46.7250 H   0  0  0  0  0  0  0  0  0  0  0  0
   55.1530   26.6850   46.0250 N   0  0  0  0  0  0  0  0  0  0  0  0
   56.3690   27.1140   45.9330 C   0  0  0  0  0  0  0  0  0  0  0  0
   56.6570   28.1480   45.1040 N   0  0  0  0  0  0  0  0  0  0  0  0
   57.9240   28.6300   44.9790 C   0  0  0  0  0  0  0  0  0  0  0  0
   58.1780   29.7060   44.0520 N   0  0  0  0  0  0  0  0  0  0  0  0
   58.1610   29.3410   43.0710 H   0  0  0  0  0  0  0  0  0  0  0  0
   59.1370   30.0940   44.2190 H   0  0  0  0  0  0  0  0  0  0  0  0
   57.1790   30.7790   44.1860 C   0  0  0  0  0  0  0  0  0  0  0  0
   56.8494   31.0856   43.1823 H   0  0  0  0  0  0  0  0  0  0  0  0
   56.3373   30.3897   44.7776 H   0  0  0  0  0  0  0  0  0  0  0  0
   57.7400   31.9830   44.9050 C   0  0  0  0  0  0  0  0  0  0  0  0
   58.1120   31.9020   46.2560 C   0  0  0  0  0  0  0  0  0  0  0  0
   57.9672   30.9624   46.8093 H   0  0  0  0  0  0  0  0  0  0  0  0
   58.6510   32.9820   46.8830 N   0  0  0  0  0  0  0  0  0  0  0  0
   58.8500   34.1600   46.2330 C   0  0  0  0  0  0  0  0  0  0  0  0
   59.2838   35.0171   46.7689 H   0  0  0  0  0  0  0  0  0  0  0  0
   58.5040   34.2820   44.8860 C   0  0  0  0  0  0  0  0  0  0  0  0
   58.6658   35.2318   44.3552 H   0  0  0  0  0  0  0  0  0  0  0  0
   57.9510   33.1880   44.2190 C   0  0  0  0  0  0  0  0  0  0  0  0
   57.6808   33.2707   43.1559 H   0  0  0  0  0  0  0  0  0  0  0  0
   58.9660   28.0390   45.7220 C   0  0  0  0  0  0  0  0  0  0  0  0
   60.3080   28.5340   45.5860 N   0  0  0  0  0  0  0  0  0  0  0  0
   60.7590   28.9760   44.5090 O   0  0  0  0  0  0  0  0  0  0  0  0
   58.6410   26.9660   46.5770 C   0  0  0  0  0  0  0  0  0  0  0  0
   59.5260   26.3970   47.2690 O   0  0  0  0  0  0  0  0  0  0  0  0
   57.3580   26.5330   46.6600 N   0  0  0  0  0  0  0  0  0  0  0  0
  1  2  1  0
  2  3  2  0
  3  4  1  0
  4  5  1  0
  5  6  1  0
  6  7  1  0
  6  8  1  0
  6  9  1  0
  9 10  1  0
  9 11  1  0
  9 12  1  0
 12 13  2  0
 13 14  1  0
 13 15  1  0
 15 16  2  0
 16 17  1  0
 16 18  1  0
 18 19  1  0
 18 20  2  0
 20 21  1  0
  5 22  2  0
 22 23  1  0
 23 24  2  0
 22 25  1  0
 25 26  2  0
 25 27  1  0
 27  3  1  0
 20 12  1  0
M  CHG  3   4  -1   6   1  27  -1
M  END
>  <UniqueID>  (30) 
28

>  <SMILES>  (30) 
[H]/N=c1/[n-]c([NH2+]Cc2cccnc2)c(N=O)c(=O)[n-]1

>  <Energy>  (30) 
32.13004465557877

>  <Genealogy>  (30) 
N=c1[n-]c([NH2+]Cc2cccnc2)c(N=O)c(=O)[n-]1 (protonated)
[H]/N=c1/[n-]c([NH2+]Cc2cccnc2)c(N=O)c(=O)[n-]1 (cis-trans isomerization)
[H]/N=c1/[n-]c([NH2+]Cc2cccnc2)c(N=O)c(=O)[n-]1 (3D coordinates assigned)
[H]/N=c1/[n-]c([NH2+]Cc2cccnc2)c(N=O)c(=O)[n-]1 (optimized conformer: 32.13004465557877 kcal/mol)

>  <smiles>  (30) 
N=c1[nH]c(NCc2cccnc2)c(N=O)c(=O)[nH]1

>  <score_type>  (30) 
oracle

>  <origin>  (30) 
adg

>  <m_score__min__energy>  (30) 
-8.8800000000000008

>  <m_primary>  (30) 
energy

$$$$
30:0
     RDKit          3D

 43 46  0  0  0  0  0  0  0  0999 V2000
   55.1420   28.0770   44.8770 H   0  0  0  0  0  0  0  0  0  0  0  0
   55.2450   29.0010   44.4750 O   0  0  0  0  0  0  0  0  0  0  0  0
   56.2580   29.8520   44.9030 C   0  0  0  0  0  0  0  0  0  0  0  0
   56.3140   31.1590   44.5560 N   0  0  0  0  0  0  0  0  0  0  0  0
   57.4580   31.6000   45.1110 C   0  0  0  0  0  0  0  0  0  0  0  0
   57.9780   32.8900   45.0270 C   0  0  0  0  0  0  0  0  0  0  0  0
   57.4446   33.6806   44.4788 H   0  0  0  0  0  0  0  0  0  0  0  0
   59.2040   33.1520   45.6630 C   0  0  0  0  0  0  0  0  0  0  0  0
   59.6411   34.1600   45.6101 H   0  0  0  0  0  0  0  0  0  0  0  0
   59.8810   32.1300   46.3710 C   0  0  0  0  0  0  0  0  0  0  0  0
   61.4300   32.4530   47.1450 S   0  0  0  0  0  0  0  0  0  0  0  0
   62.0560   33.6510   46.4880 O   0  0  0  0  0  0  0  0  0  0  0  0
   62.3470   31.2740   46.9700 O   0  0  0  0  0  0  0  0  0  0  0  0
   61.1880   32.7740   48.8450 N   0  0  0  0  0  0  0  0  0  0  0  0
   60.2650   33.9140   49.0180 C   0  0  0  0  0  0  0  0  0  0  0  0
   60.8212   34.8519   48.8731 H   0  0  0  0  0  0  0  0  0  0  0  0
   59.4572   33.8254   48.2767 H   0  0  0  0  0  0  0  0  0  0  0  0
   59.6430   33.9120   50.4190 C   0  0  0  0  0  0  0  0  0  0  0  0
   60.4491   33.9556   51.1662 H   0  0  0  0  0  0  0  0  0  0  0  0
   58.9805   34.7864   50.4997 H   0  0  0  0  0  0  0  0  0  0  0  0
   58.8350   32.7020   50.6590 N   0  0  0  0  0  0  0  0  0  0  0  0
   58.9110   32.4560   51.6750 H   0  0  0  0  0  0  0  0  0  0  0  0
   59.2540   31.5340   49.8620 C   0  0  0  0  0  0  0  0  0  0  0  0
   59.0113   30.6180   50.4206 H   0  0  0  0  0  0  0  0  0  0  0  0
   58.7187   31.5696   48.9017 H   0  0  0  0  0  0  0  0  0  0  0  0
   60.7620   31.5480   49.5640 C   0  0  0  0  0  0  0  0  0  0  0  0
   61.3102   31.4889   50.5158 H   0  0  0  0  0  0  0  0  0  0  0  0
   60.9825   30.6870   48.9159 H   0  0  0  0  0  0  0  0  0  0  0  0
   59.3320   30.8330   46.4330 C   0  0  0  0  0  0  0  0  0  0  0  0
   59.8476   30.0249   46.9726 H   0  0  0  0  0  0  0  0  0  0  0  0
   58.1160   30.6050   45.7900 C   0  0  0  0  0  0  0  0  0  0  0  0
   57.3470   29.4670   45.6860 C   0  0  0  0  0  0  0  0  0  0  0  0
   57.6910   28.1300   46.2100 C   0  0  0  0  0  0  0  0  0  0  0  0
   58.6038   28.0290   46.8154 H   0  0  0  0  0  0  0  0  0  0  0  0
   56.9520   27.0300   45.9890 C   0  0  0  0  0  0  0  0  0  0  0  0
   55.6050   27.0150   45.9890 N   0  0  0  0  0  0  0  0  0  0  0  0
   55.2980   25.7220   45.7660 C   0  0  0  0  0  0  0  0  0  0  0  0
   54.1110   25.3070   45.6940 O   0  0  0  0  0  0  0  0  0  0  0  0
   56.3620   24.9060   45.6300 N   0  0  0  0  0  0  0  0  0  0  0  0
   57.4120   25.7340   45.7740 C   0  0  0  0  0  0  0  0  0  0  0  0
   58.6780   25.3130   45.7060 C   0  0  0  0  0  0  0  0  0  0  0  0
   59.5033   26.0295   45.8304 H   0  0  0  0  0  0  0  0  0  0  0  0
   58.8951   24.2498   45.5256 H   0  0  0  0  0  0  0  0  0  0  0  0
  1  2  1  0
  2  3  1  0
  3  4  1  0
  4  5  1  0
  5  6  2  0
  6  7  1  0
  6  8  1  0
  8  9  1  0
  8 10  2  0
 10 11  1  0
 11 12  2  0
 11 13  2  0
 11 14  1  0
 14 15  1  0
 15 16  1  0
 15 17  1  0
 15 18  1  0
 18 19  1  0
 18 20  1  0
 18 21  1  0
 21 22  1  0
 21 23  1  0
 23 24  1  0
 23 25  1  0
 23 26  1  0
 26 27  1  0
 26 28  1  0
 10 29  1  0
 29 30  1  0
 29 31  2  0
 31 32  1  0
 32 33  1  0
 33 34  1  0
 33 35  2  0
 35 36  1  0
 36 37  1  0
 37 38  2  0
 37 39  1  0
 39 40  1  0
 40 41  2  0
 41 42  1  0
 41 43  1  0
 32  3  2  0
 40 35  1  0
 31  5  1  0
 26 14  1  0
M  CHG  3   4  -1  36  -1  39  -1
M  END
>  <UniqueID>  (31) 
29

>  <SMILES>  (31) 
C=c1[n-]c(=O)[n-]/c1=C\c1c(O)[n-]c2ccc(S(=O)(=O)N3CCNCC3)cc12

>  <Energy>  (31) 
121.0350528203989

>  <Genealogy>  (31) 
C=c1[n-]c(=O)[n-]c1=Cc1c(O)[n-]c2ccc(S(=O)(=O)N3CCNCC3)cc12 (protonated)
C=c1[n-]c(=O)[n-]/c1=C\c1c(O)[n-]c2ccc(S(=O)(=O)N3CCNCC3)cc12 (cis-trans isomerization)
C=c1[n-]c(=O)[n-]/c1=C\c1c(O)[n-]c2ccc(S(=O)(=O)N3CCNCC3)cc12 (3D coordinates assigned)
C=c1[n-]c(=O)[n-]/c1=C\c1c(O)[n-]c2ccc(S(=O)(=O)N3CCNCC3)cc12 (nonaromatic ring conformer: 121.0350528203989 kcal/mol)

>  <smiles>  (31) 
C=c1[nH]c(=O)[nH]c1=Cc1c(O)[nH]c2ccc(S(=O)(=O)N3CCNCC3)cc12

>  <score_type>  (31) 
oracle

>  <origin>  (31) 
adg

>  <m_score__min__energy>  (31) 
-14.74

>  <m_primary>  (31) 
energy

$$$$
31:0
     RDKit          3D

 53 55  0  0  0  0  0  0  0  0999 V2000
   55.1630   29.1680   44.7840 O   0  0  0  0  0  0  0  0  0  0  0  0
   56.3650   29.3550   45.1010 C   0  0  0  0  0  0  0  0  0  0  0  0
   57.1000   28.2910   45.7180 N   0  0  0  0  0  0  0  0  0  0  0  0
   57.3710   27.0090   45.0730 C   0  0  0  0  0  0  0  0  0  0  0  0
   57.3130   25.8780   46.1010 C   0  0  0  0  0  0  0  0  0  0  0  0
   58.0350   24.6570   45.5950 C   0  0  0  0  0  0  0  0  0  0  0  0
   59.2500   24.5090   45.8940 O   0  0  0  0  0  0  0  0  0  0  0  0
   57.3690   23.6420   44.8230 N   0  0  0  0  0  0  0  0  0  0  0  0
   57.5560   22.2340   45.1760 C   0  0  0  0  0  0  0  0  0  0  0  0
   57.4050   21.3560   43.9310 C   0  0  0  0  0  0  0  0  0  0  0  0
   56.1980   21.6480   43.2520 O   0  0  0  0  0  0  0  0  0  0  0  0
   56.2440   22.9700   42.7510 C   0  0  0  0  0  0  0  0  0  0  0  0
   56.2870   23.9860   43.8960 C   0  0  0  0  0  0  0  0  0  0  0  0
   56.9720   30.6230   44.8250 N   0  0  0  0  0  0  0  0  0  0  0  0
   57.7550   31.3700   45.7680 C   0  0  0  0  0  0  0  0  0  0  0  0
   58.5570   30.6860   46.6860 C   0  0  0  0  0  0  0  0  0  0  0  0
   59.2920   31.3910   47.6440 C   0  0  0  0  0  0  0  0  0  0  0  0
   59.2380   32.7930   47.6850 C   0  0  0  0  0  0  0  0  0  0  0  0
   60.0950   33.6820   48.9450 S   0  0  0  0  0  0  0  0  0  0  0  0
   60.1120   32.8640   50.2060 O   0  0  0  0  0  0  0  0  0  0  0  0
   59.3640   34.9640   49.2310 O   0  0  0  0  0  0  0  0  0  0  0  0
   61.7380   34.0500   48.4640 N   0  0  0  0  0  0  0  0  0  0  0  0
   62.6940   33.5500   49.4720 C   0  0  0  0  0  0  0  0  0  0  0  0
   64.0900   33.3590   48.8560 C   0  0  0  0  0  0  0  0  0  0  0  0
   64.1290   32.4450   47.7640 O   0  0  0  0  0  0  0  0  0  0  0  0
   62.8750   32.2810   47.1120 C   0  0  0  0  0  0  0  0  0  0  0  0
   62.0250   33.5630   47.0990 C   0  0  0  0  0  0  0  0  0  0  0  0
   58.4750   33.4810   46.7330 C   0  0  0  0  0  0  0  0  0  0  0  0
   57.7370   32.7750   45.7800 C   0  0  0  0  0  0  0  0  0  0  0  0
   56.6179   26.8289   44.2917 H   0  0  0  0  0  0  0  0  0  0  0  0
   58.3759   27.0371   44.6265 H   0  0  0  0  0  0  0  0  0  0  0  0
   57.7860   26.2152   47.0351 H   0  0  0  0  0  0  0  0  0  0  0  0
   56.2593   25.6163   46.2778 H   0  0  0  0  0  0  0  0  0  0  0  0
   58.5617   22.0954   45.5994 H   0  0  0  0  0  0  0  0  0  0  0  0
   56.7956   21.9439   45.9160 H   0  0  0  0  0  0  0  0  0  0  0  0
   58.2527   21.5407   43.2548 H   0  0  0  0  0  0  0  0  0  0  0  0
   57.3867   20.3016   44.2439 H   0  0  0  0  0  0  0  0  0  0  0  0
   57.1440   23.0888   42.1298 H   0  0  0  0  0  0  0  0  0  0  0  0
   55.3386   23.1515   42.1533 H   0  0  0  0  0  0  0  0  0  0  0  0
   56.4630   24.9914   43.4860 H   0  0  0  0  0  0  0  0  0  0  0  0
   55.3277   23.9685   44.4340 H   0  0  0  0  0  0  0  0  0  0  0  0
   58.6102   29.5877   46.6546 H   0  0  0  0  0  0  0  0  0  0  0  0
   59.9147   30.8451   48.3680 H   0  0  0  0  0  0  0  0  0  0  0  0
   62.7602   34.2750   50.2966 H   0  0  0  0  0  0  0  0  0  0  0  0
   62.3374   32.5779   49.8433 H   0  0  0  0  0  0  0  0  0  0  0  0
   64.4460   34.3369   48.4996 H   0  0  0  0  0  0  0  0  0  0  0  0
   64.7271   32.9338   49.6455 H   0  0  0  0  0  0  0  0  0  0  0  0
   63.0595   31.9736   46.0721 H   0  0  0  0  0  0  0  0  0  0  0  0
   62.3117   31.5217   47.6743 H   0  0  0  0  0  0  0  0  0  0  0  0
   62.5701   34.3451   46.5501 H   0  0  0  0  0  0  0  0  0  0  0  0
   61.0663   33.3304   46.6124 H   0  0  0  0  0  0  0  0  0  0  0  0
   58.4569   34.5808   46.7358 H   0  0  0  0  0  0  0  0  0  0  0  0
   57.1391   33.3213   45.0356 H   0  0  0  0  0  0  0  0  0  0  0  0
  1  2  2  0
  2  3  1  0
  3  4  1  0
  4  5  1  0
  5  6  1  0
  6  7  2  0
  6  8  1  0
  8  9  1  0
  9 10  1  0
 10 11  1  0
 11 12  1  0
 12 13  1  0
  2 14  1  0
 14 15  1  0
 15 16  2  0
 16 17  1  0
 17 18  2  0
 18 19  1  0
 19 20  2  0
 19 21  2  0
 19 22  1  0
 22 23  1  0
 23 24  1  0
 24 25  1  0
 25 26  1  0
 26 27  1  0
 18 28  1  0
 28 29  2  0
 13  8  1  0
 29 15  1  0
 27 22  1  0
  4 30  1  0
  4 31  1  0
  5 32  1  0
  5 33  1  0
  9 34  1  0
  9 35  1  0
 10 36  1  0
 10 37  1  0
 12 38  1  0
 12 39  1  0
 13 40  1  0
 13 41  1  0
 16 42  1  0
 17 43  1  0
 23 44  1  0
 23 45  1  0
 24 46  1  0
 24 47  1  0
 26 48  1  0
 26 49  1  0
 27 50  1  0
 27 51  1  0
 28 52  1  0
 29 53  1  0
M  CHG  2   3  -1  14  -1
M  END
>  <UniqueID>  (32) 
30

>  <SMILES>  (32) 
O=C([N-]CCC(=O)N1CCOCC1)[N-]c1ccc(S(=O)(=O)N2CCOCC2)cc1

>  <Energy>  (32) 
67.5768183019406

>  <Genealogy>  (32) 
O=C([N-]CCC(=O)N1CCOCC1)[N-]c1ccc(S(=O)(=O)N2CCOCC2)cc1 (protonated)
O=C([N-]CCC(=O)N1CCOCC1)[N-]c1ccc(S(=O)(=O)N2CCOCC2)cc1 (3D coordinates assigned)
O=C([N-]CCC(=O)N1CCOCC1)[N-]c1ccc(S(=O)(=O)N2CCOCC2)cc1 (nonaromatic ring conformer: 67.5768183019406 kcal/mol)

>  <smiles>  (32) 
O=C(NCCC(=O)N1CCOCC1)Nc1ccc(S(=O)(=O)N2CCOCC2)cc1

>  <score_type>  (32) 
oracle

>  <origin>  (32) 
adg

>  <m_score__min__energy>  (32) 
-12.6

>  <m_primary>  (32) 
energy

$$$$
32:0
     RDKit          3D

 57 60  0  0  0  0  0  0  0  0999 V2000
   56.9250   29.2220   42.9010 C   0  0  0  0  0  0  0  0  0  0  0  0
   56.5880   29.6210   44.6010 S   0  0  0  0  0  0  0  0  0  0  0  0
   55.1470   29.3410   44.9210 O   0  0  0  0  0  0  0  0  0  0  0  0
   56.8590   31.0840   44.8240 O   0  0  0  0  0  0  0  0  0  0  0  0
   57.6130   28.6780   45.6380 N   0  0  0  0  0  0  0  0  0  0  0  0
   58.8020   29.0750   46.1430 C   0  0  0  0  0  0  0  0  0  0  0  0
   59.3460   28.0670   46.9340 C   0  0  0  0  0  0  0  0  0  0  0  0
   60.6480   28.1270   47.6820 C   0  0  0  0  0  0  0  0  0  0  0  0
   60.4780   28.0340   49.2170 C   0  0  0  0  0  0  0  0  0  0  0  0
   60.2190   29.3440   49.8710 N   0  0  2  0  0  0  0  0  0  0  0  0
   59.2450   30.1430   49.0720 C   0  0  0  0  0  0  0  0  0  0  0  0
   59.9350   31.0420   48.0380 C   0  0  0  0  0  0  0  0  0  0  0  0
   60.8790   32.0660   48.7180 C   0  0  1  0  0  0  0  0  0  0  0  0
   60.3240   33.5140   48.7110 C   0  0  0  0  0  0  0  0  0  0  0  0
   59.5090   33.8720   47.4870 C   0  0  0  0  0  0  0  0  0  0  0  0
   58.1640   33.4750   47.3790 C   0  0  0  0  0  0  0  0  0  0  0  0
   57.4170   33.8100   46.2450 C   0  0  0  0  0  0  0  0  0  0  0  0
   58.0080   34.5330   45.2070 C   0  0  0  0  0  0  0  0  0  0  0  0
   59.3490   34.9160   45.2950 C   0  0  0  0  0  0  0  0  0  0  0  0
   60.0990   34.5830   46.4270 C   0  0  0  0  0  0  0  0  0  0  0  0
   61.3180   31.6020   50.1260 C   0  0  0  0  0  0  0  0  0  0  0  0
   61.4910   30.0770   50.1520 C   0  0  0  0  0  0  0  0  0  0  0  0
   58.4470   27.0150   46.8750 C   0  0  0  0  0  0  0  0  0  0  0  0
   58.4830   25.7420   47.4470 C   0  0  0  0  0  0  0  0  0  0  0  0
   57.3960   24.8830   47.2050 C   0  0  0  0  0  0  0  0  0  0  0  0
   56.3160   25.3040   46.4000 C   0  0  0  0  0  0  0  0  0  0  0  0
   56.3120   26.5880   45.8250 C   0  0  0  0  0  0  0  0  0  0  0  0
   57.4010   27.4240   46.0840 C   0  0  0  0  0  0  0  0  0  0  0  0
   57.6342   28.3824   42.8551 H   0  0  0  0  0  0  0  0  0  0  0  0
   55.9885   28.9389   42.3982 H   0  0  0  0  0  0  0  0  0  0  0  0
   57.3608   30.0980   42.3982 H   0  0  0  0  0  0  0  0  0  0  0  0
   59.2714   30.0521   45.9562 H   0  0  0  0  0  0  0  0  0  0  0  0
   61.2802   27.2905   47.3496 H   0  0  0  0  0  0  0  0  0  0  0  0
   61.1039   29.1040   47.4638 H   0  0  0  0  0  0  0  0  0  0  0  0
   59.6318   27.3651   49.4326 H   0  0  0  0  0  0  0  0  0  0  0  0
   61.4275   27.6547   49.6228 H   0  0  0  0  0  0  0  0  0  0  0  0
   59.7540   29.1500   50.7910 H   0  0  0  0  0  0  0  0  0  0  0  0
   58.5697   29.4527   48.5453 H   0  0  0  0  0  0  0  0  0  0  0  0
   58.6942   30.7933   49.7675 H   0  0  0  0  0  0  0  0  0  0  0  0
   60.5229   30.4134   47.3530 H   0  0  0  0  0  0  0  0  0  0  0  0
   59.1594   31.5973   47.4902 H   0  0  0  0  0  0  0  0  0  0  0  0
   61.7863   32.1019   48.0971 H   0  0  0  0  0  0  0  0  0  0  0  0
   59.6850   33.6405   49.5974 H   0  0  0  0  0  0  0  0  0  0  0  0
   61.1979   34.1821   48.7092 H   0  0  0  0  0  0  0  0  0  0  0  0
   57.6971   32.8979   48.1908 H   0  0  0  0  0  0  0  0  0  0  0  0
   56.3631   33.5036   46.1709 H   0  0  0  0  0  0  0  0  0  0  0  0
   57.4172   34.8015   44.3188 H   0  0  0  0  0  0  0  0  0  0  0  0
   59.8148   35.4798   44.4733 H   0  0  0  0  0  0  0  0  0  0  0  0
   61.1567   34.8789   46.4887 H   0  0  0  0  0  0  0  0  0  0  0  0
   62.2741   32.0805   50.3845 H   0  0  0  0  0  0  0  0  0  0  0  0
   60.5455   31.8879   50.8550 H   0  0  0  0  0  0  0  0  0  0  0  0
   62.2344   29.7948   49.3919 H   0  0  0  0  0  0  0  0  0  0  0  0
   61.8166   29.7982   51.1651 H   0  0  0  0  0  0  0  0  0  0  0  0
   59.3335   25.4214   48.0665 H   0  0  0  0  0  0  0  0  0  0  0  0
   57.3876   23.8755   47.6465 H   0  0  0  0  0  0  0  0  0  0  0  0
   55.4709   24.6230   46.2208 H   0  0  0  0  0  0  0  0  0  0  0  0
   55.4776   26.9232   45.1914 H   0  0  0  0  0  0  0  0  0  0  0  0
  1  2  1  0
  2  3  2  0
  2  4  2  0
  2  5  1  0
  5  6  1  0
  6  7  2  0
  7  8  1  0
  8  9  1  0
  9 10  1  0
 10 11  1  0
 11 12  1  0
 12 13  1  0
 13 14  1  0
 14 15  1  0
 15 16  2  0
 16 17  1  0
 17 18  2  0
 18 19  1  0
 19 20  2  0
 13 21  1  0
 21 22  1  0
  7 23  1  0
 23 24  2  0
 24 25  1  0
 25 26  2  0
 26 27  1  0
 27 28  2  0
 28  5  1  0
 22 10  1  0
 28 23  1  0
 20 15  1  0
  1 29  1  0
  1 30  1  0
  1 31  1  0
  6 32  1  0
  8 33  1  0
  8 34  1  0
  9 35  1  0
  9 36  1  0
 10 37  1  1
 11 38  1  0
 11 39  1  0
 12 40  1  0
 12 41  1  0
 13 42  1  6
 14 43  1  0
 14 44  1  0
 16 45  1  0
 17 46  1  0
 18 47  1  0
 19 48  1  0
 20 49  1  0
 21 50  1  0
 21 51  1  0
 22 52  1  0
 22 53  1  0
 24 54  1  0
 25 55  1  0
 26 56  1  0
 27 57  1  0
M  CHG  1  10   1
M  END
>  <UniqueID>  (33) 
31

>  <SMILES>  (33) 
CS(=O)(=O)n1cc(CC[NH+]2CCC(Cc3ccccc3)CC2)c2ccccc21

>  <Energy>  (33) 
99.38792260305817

>  <Genealogy>  (33) 
CS(=O)(=O)n1cc(CC[NH+]2CCC(Cc3ccccc3)CC2)c2ccccc21 (protonated)
CS(=O)(=O)n1cc(CC[NH+]2CCC(Cc3ccccc3)CC2)c2ccccc21 (3D coordinates assigned)
CS(=O)(=O)n1cc(CC[NH+]2CCC(Cc3ccccc3)CC2)c2ccccc21 (nonaromatic ring conformer: 99.38792260305817 kcal/mol)

>  <smiles>  (33) 
CS(=O)(=O)n1cc(CCN2CCC(Cc3ccccc3)CC2)c2ccccc21

>  <score_type>  (33) 
oracle

>  <origin>  (33) 
adg

>  <m_score__min__energy>  (33) 
-8.2899999999999991

>  <m_primary>  (33) 
energy

$$$$
33:0
     RDKit          3D

 60 65  0  0  0  0  0  0  0  0999 V2000
   58.6720   27.4080   47.1950 O   0  0  0  0  0  0  0  0  0  0  0  0
   57.9020   27.3520   46.1980 C   0  0  0  0  0  0  0  0  0  0  0  0
   57.6260   28.5360   45.4270 N   0  0  0  0  0  0  0  0  0  0  0  0
   58.2600   29.8070   45.6510 C   0  0  0  0  0  0  0  0  0  0  0  0
   57.6120   30.9800   45.2340 C   0  0  0  0  0  0  0  0  0  0  0  0
   58.2190   32.2270   45.4140 C   0  0  0  0  0  0  0  0  0  0  0  0
   59.4880   32.3120   45.9960 C   0  0  0  0  0  0  0  0  0  0  0  0
   60.2660   33.9100   46.2290 S   0  0  0  0  0  0  0  0  0  0  0  0
   60.6370   33.5680   47.9430 C   0  0  0  0  0  0  0  0  0  0  0  0
   59.6450   33.1910   48.7870 N   0  0  0  0  0  0  0  0  0  0  0  0
   59.8920   32.9330   50.1000 C   0  0  0  0  0  0  0  0  0  0  0  0
   58.7690   32.5230   50.9700 C   0  0  0  0  0  0  0  0  0  0  0  0
   57.9750   31.3820   50.8540 C   0  0  0  0  0  0  0  0  0  0  0  0
   56.9960   31.2820   51.8500 C   0  0  0  0  0  0  0  0  0  0  0  0
   57.0070   32.3350   52.7550 C   0  0  0  0  0  0  0  0  0  0  0  0
   58.2370   33.3890   52.3130 S   0  0  0  0  0  0  0  0  0  0  0  0
   61.2020   33.0630   50.5860 C   0  0  0  0  0  0  0  0  0  0  0  0
   62.2150   33.4690   49.7060 C   0  0  0  0  0  0  0  0  0  0  0  0
   63.5760   33.6060   50.1520 N   0  0  0  0  0  0  0  0  0  0  0  0
   64.6440   32.9720   49.3690 C   0  0  0  0  0  0  0  0  0  0  0  0
   65.9900   33.1220   50.0770 C   0  0  0  0  0  0  0  0  0  0  0  0
   65.8060   32.9630   51.4680 O   0  0  0  0  0  0  0  0  0  0  0  0
   65.1720   34.1110   52.0070 C   0  0  0  0  0  0  0  0  0  0  0  0
   63.9260   34.5690   51.2090 C   0  0  0  0  0  0  0  0  0  0  0  0
   61.9080   33.7000   48.4010 N   0  0  0  0  0  0  0  0  0  0  0  0
   60.1520   31.1450   46.3900 C   0  0  0  0  0  0  0  0  0  0  0  0
   59.5460   29.8980   46.2150 C   0  0  0  0  0  0  0  0  0  0  0  0
   57.3010   26.0500   45.8310 C   0  0  0  0  0  0  0  0  0  0  0  0
   58.1320   25.0080   45.3970 C   0  0  0  0  0  0  0  0  0  0  0  0
   57.5740   23.7790   45.0350 C   0  0  0  0  0  0  0  0  0  0  0  0
   58.3710   22.7180   44.5780 C   0  0  0  0  0  0  0  0  0  0  0  0
   57.7770   21.5020   44.2220 C   0  0  0  0  0  0  0  0  0  0  0  0
   56.3910   21.3400   44.3210 C   0  0  0  0  0  0  0  0  0  0  0  0
   55.5900   22.3950   44.7770 C   0  0  0  0  0  0  0  0  0  0  0  0
   54.2130   22.2230   44.8720 O   0  0  0  0  0  0  0  0  0  0  0  0
   56.1760   23.6170   45.1350 C   0  0  0  0  0  0  0  0  0  0  0  0
   55.4180   24.6190   45.5730 O   0  0  0  0  0  0  0  0  0  0  0  0
   55.9160   25.8030   45.9230 C   0  0  0  0  0  0  0  0  0  0  0  0
   55.1320   26.6840   46.3640 O   0  0  0  0  0  0  0  0  0  0  0  0
   56.9010   28.4900   44.6760 H   0  0  0  0  0  0  0  0  0  0  0  0
   56.6201   30.9181   44.7625 H   0  0  0  0  0  0  0  0  0  0  0  0
   57.6976   33.1424   45.0974 H   0  0  0  0  0  0  0  0  0  0  0  0
   58.1052   30.6340   50.0580 H   0  0  0  0  0  0  0  0  0  0  0  0
   56.2836   30.4460   51.9100 H   0  0  0  0  0  0  0  0  0  0  0  0
   56.3283   32.4573   53.6120 H   0  0  0  0  0  0  0  0  0  0  0  0
   61.4304   32.8497   51.6407 H   0  0  0  0  0  0  0  0  0  0  0  0
   64.4168   31.9027   49.2467 H   0  0  0  0  0  0  0  0  0  0  0  0
   64.7030   33.4627   48.3863 H   0  0  0  0  0  0  0  0  0  0  0  0
   66.6866   32.3546   49.7084 H   0  0  0  0  0  0  0  0  0  0  0  0
   66.4050   34.1199   49.8719 H   0  0  0  0  0  0  0  0  0  0  0  0
   64.8600   33.8835   53.0370 H   0  0  0  0  0  0  0  0  0  0  0  0
   65.9023   34.9322   51.9603 H   0  0  0  0  0  0  0  0  0  0  0  0
   63.0754   34.6659   51.8997 H   0  0  0  0  0  0  0  0  0  0  0  0
   64.1572   35.5335   50.7332 H   0  0  0  0  0  0  0  0  0  0  0  0
   61.1542   31.2094   46.8389 H   0  0  0  0  0  0  0  0  0  0  0  0
   60.0765   28.9837   46.5194 H   0  0  0  0  0  0  0  0  0  0  0  0
   59.2204   25.1573   45.3415 H   0  0  0  0  0  0  0  0  0  0  0  0
   59.4612   22.8421   44.4998 H   0  0  0  0  0  0  0  0  0  0  0  0
   58.4019   20.6709   43.8632 H   0  0  0  0  0  0  0  0  0  0  0  0
   55.9291   20.3820   44.0401 H   0  0  0  0  0  0  0  0  0  0  0  0
  1  2  2  0
  2  3  1  0
  3  4  1  0
  4  5  2  0
  5  6  1  0
  6  7  2  0
  7  8  1  0
  8  9  1  0
  9 10  2  0
 10 11  1  0
 11 12  1  0
 12 13  2  0
 13 14  1  0
 14 15  2  0
 15 16  1  0
 11 17  2  0
 17 18  1  0
 18 19  1  0
 19 20  1  0
 20 21  1  0
 21 22  1  0
 22 23  1  0
 23 24  1  0
 18 25  2  0
  7 26  1  0
 26 27  2  0
  2 28  1  0
 28 29  2  0
 29 30  1  0
 30 31  2  0
 31 32  1  0
 32 33  2  0
 33 34  1  0
 34 35  1  0
 34 36  2  0
 36 37  1  0
 37 38  1  0
 38 39  2  0
 27  4  1  0
 38 28  1  0
 25  9  1  0
 36 30  1  0
 16 12  1  0
 24 19  1  0
  3 40  1  0
  5 41  1  0
  6 42  1  0
 13 43  1  0
 14 44  1  0
 15 45  1  0
 17 46  1  0
 20 47  1  0
 20 48  1  0
 21 49  1  0
 21 50  1  0
 23 51  1  0
 23 52  1  0
 24 53  1  0
 24 54  1  0
 26 55  1  0
 27 56  1  0
 29 57  1  0
 31 58  1  0
 32 59  1  0
 33 60  1  0
M  CHG  1  35  -1
M  END
>  <UniqueID>  (34) 
32

>  <SMILES>  (34) 
O=C(Nc1ccc(Sc2nc(-c3cccs3)cc(N3CCOCC3)n2)cc1)c1cc2cccc([O-])c2oc1=O

>  <Energy>  (34) 
113.69597072101234

>  <Genealogy>  (34) 
O=C(Nc1ccc(Sc2nc(-c3cccs3)cc(N3CCOCC3)n2)cc1)c1cc2cccc([O-])c2oc1=O (protonated)
O=C(Nc1ccc(Sc2nc(-c3cccs3)cc(N3CCOCC3)n2)cc1)c1cc2cccc([O-])c2oc1=O (3D coordinates assigned)
O=C(Nc1ccc(Sc2nc(-c3cccs3)cc(N3CCOCC3)n2)cc1)c1cc2cccc([O-])c2oc1=O (nonaromatic ring conformer: 113.69597072101234 kcal/mol)

>  <smiles>  (34) 
O=C(Nc1ccc(Sc2nc(-c3cccs3)cc(N3CCOCC3)n2)cc1)c1cc2cccc(O)c2oc1=O

>  <score_type>  (34) 
oracle

>  <origin>  (34) 
adg

>  <m_score__min__energy>  (34) 
-11.56

>  <m_primary>  (34) 
energy

$$$$
34:0
     RDKit          3D

 69 72  0  0  0  0  0  0  0  0999 V2000
   61.0770   33.9540   46.5810 C   0  0  0  0  0  0  0  0  0  0  0  0
   60.2750   33.4660   47.7760 C   0  0  0  0  0  0  0  0  0  0  0  0
   59.1690   32.6010   47.5580 C   0  0  0  0  0  0  0  0  0  0  0  0
   58.8420   32.0330   46.2200 C   0  0  0  0  0  0  0  0  0  0  0  0
   59.6500   31.2420   45.6640 O   0  0  0  0  0  0  0  0  0  0  0  0
   57.5140   32.2840   45.5610 C   0  0  0  0  0  0  0  0  0  0  0  0
   57.5700   31.9070   44.1460 N   0  0  0  0  0  0  0  0  0  0  0  0
   56.7300   30.4070   43.8980 S   0  0  0  0  0  0  0  0  0  0  0  0
   56.5490   30.1680   42.4230 O   0  0  0  0  0  0  0  0  0  0  0  0
   55.3760   30.4800   44.5450 O   0  0  0  0  0  0  0  0  0  0  0  0
   57.6440   29.0860   44.6250 C   0  0  0  0  0  0  0  0  0  0  0  0
   57.0460   28.2880   45.6110 C   0  0  0  0  0  0  0  0  0  0  0  0
   57.7780   27.2690   46.2310 C   0  0  0  0  0  0  0  0  0  0  0  0
   59.1080   27.0410   45.8640 C   0  0  0  0  0  0  0  0  0  0  0  0
   59.7070   27.8310   44.8790 C   0  0  0  0  0  0  0  0  0  0  0  0
   58.9780   28.8520   44.2600 C   0  0  0  0  0  0  0  0  0  0  0  0
   58.3710   32.2420   48.6460 C   0  0  0  0  0  0  0  0  0  0  0  0
   58.6620   32.6950   49.9280 C   0  0  0  0  0  0  0  0  0  0  0  0
   57.7710   32.2840   51.0750 C   0  0  0  0  0  0  0  0  0  0  0  0
   58.1500   30.9240   51.5640 C   0  0  0  0  0  0  0  0  0  0  0  0
   57.6470   29.9000   51.0270 O   0  0  0  0  0  0  0  0  0  0  0  0
   59.0500   30.7970   52.6670 N   0  0  0  0  0  0  0  0  0  0  0  0
   60.2330   29.9500   52.6300 C   0  0  0  0  0  0  0  0  0  0  0  0
   61.2830   30.5790   51.7180 C   0  0  0  0  0  0  0  0  0  0  0  0
   61.0950   30.1270   50.2980 C   0  0  0  0  0  0  0  0  0  0  0  0
   60.3130   29.0010   50.0020 C   0  0  0  0  0  0  0  0  0  0  0  0
   60.1350   28.6230   48.6700 C   0  0  0  0  0  0  0  0  0  0  0  0
   60.7300   29.3680   47.6510 C   0  0  0  0  0  0  0  0  0  0  0  0
   61.4930   30.4900   47.9810 C   0  0  0  0  0  0  0  0  0  0  0  0
   61.6540   30.8450   49.2830 N   0  0  0  0  0  0  0  0  0  0  0  0
   59.8240   33.4570   50.1310 C   0  0  0  0  0  0  0  0  0  0  0  0
   60.1270   33.7980   51.3090 O   0  0  0  0  0  0  0  0  0  0  0  0
   60.6220   33.8270   49.0700 N   0  0  0  0  0  0  0  0  0  0  0  0
   61.8700   34.5870   49.3390 C   0  0  0  0  0  0  0  0  0  0  0  0
   62.9670   33.6800   49.8390 C   0  0  0  0  0  0  0  0  0  0  0  0
   63.8600   33.0800   48.9360 C   0  0  0  0  0  0  0  0  0  0  0  0
   64.8900   32.2580   49.4030 C   0  0  0  0  0  0  0  0  0  0  0  0
   65.0420   32.0380   50.7760 C   0  0  0  0  0  0  0  0  0  0  0  0
   64.1630   32.6350   51.6810 C   0  0  0  0  0  0  0  0  0  0  0  0
   63.1340   33.4620   51.2170 C   0  0  0  0  0  0  0  0  0  0  0  0
   61.9672   34.4957   46.9334 H   0  0  0  0  0  0  0  0  0  0  0  0
   61.3890   33.0925   45.9723 H   0  0  0  0  0  0  0  0  0  0  0  0
   60.4553   34.6271   45.9723 H   0  0  0  0  0  0  0  0  0  0  0  0
   56.7399   31.6871   46.0654 H   0  0  0  0  0  0  0  0  0  0  0  0
   57.2730   33.3546   45.6372 H   0  0  0  0  0  0  0  0  0  0  0  0
   58.5710   31.7480   43.8870 H   0  0  0  0  0  0  0  0  0  0  0  0
   55.9987   28.4635   45.8979 H   0  0  0  0  0  0  0  0  0  0  0  0
   57.3072   26.6475   47.0069 H   0  0  0  0  0  0  0  0  0  0  0  0
   59.6830   26.2395   46.3508 H   0  0  0  0  0  0  0  0  0  0  0  0
   60.7528   27.6498   44.5901 H   0  0  0  0  0  0  0  0  0  0  0  0
   59.4520   29.4727   43.4853 H   0  0  0  0  0  0  0  0  0  0  0  0
   57.4988   31.5909   48.4866 H   0  0  0  0  0  0  0  0  0  0  0  0
   57.8791   33.0081   51.8960 H   0  0  0  0  0  0  0  0  0  0  0  0
   56.7276   32.2615   50.7275 H   0  0  0  0  0  0  0  0  0  0  0  0
   60.6431   29.8490   53.6457 H   0  0  0  0  0  0  0  0  0  0  0  0
   59.9601   28.9570   52.2434 H   0  0  0  0  0  0  0  0  0  0  0  0
   61.1906   31.6742   51.7632 H   0  0  0  0  0  0  0  0  0  0  0  0
   62.2804   30.2648   52.0592 H   0  0  0  0  0  0  0  0  0  0  0  0
   59.8447   28.4216   50.8113 H   0  0  0  0  0  0  0  0  0  0  0  0
   59.5271   27.7398   48.4242 H   0  0  0  0  0  0  0  0  0  0  0  0
   60.5993   29.0745   46.5990 H   0  0  0  0  0  0  0  0  0  0  0  0
   61.9642   31.0871   47.1864 H   0  0  0  0  0  0  0  0  0  0  0  0
   62.2019   35.0718   48.4090 H   0  0  0  0  0  0  0  0  0  0  0  0
   61.6591   35.3374   50.1152 H   0  0  0  0  0  0  0  0  0  0  0  0
   63.7484   33.2577   47.8562 H   0  0  0  0  0  0  0  0  0  0  0  0
   65.5811   31.7841   48.6904 H   0  0  0  0  0  0  0  0  0  0  0  0
   65.8549   31.3940   51.1427 H   0  0  0  0  0  0  0  0  0  0  0  0
   64.2793   32.4552   52.7600 H   0  0  0  0  0  0  0  0  0  0  0  0
   62.4529   33.9435   51.9341 H   0  0  0  0  0  0  0  0  0  0  0  0
  1  2  1  0
  2  3  2  0
  3  4  1  0
  4  5  2  0
  4  6  1  0
  6  7  1  0
  7  8  1  0
  8  9  2  0
  8 10  2  0
  8 11  1  0
 11 12  2  0
 12 13  1  0
 13 14  2  0
 14 15  1  0
 15 16  2  0
  3 17  1  0
 17 18  2  0
 18 19  1  0
 19 20  1  0
 20 21  2  0
 20 22  1  0
 22 23  1  0
 23 24  1  0
 24 25  1  0
 25 26  2  0
 26 27  1  0
 27 28  2  0
 28 29  1  0
 29 30  2  0
 18 31  1  0
 31 32  2  0
 31 33  1  0
 33 34  1  0
 34 35  1  0
 35 36  2  0
 36 37  1  0
 37 38  2  0
 38 39  1  0
 39 40  2  0
 33  2  1  0
 40 35  1  0
 16 11  1  0
 30 25  1  0
  1 41  1  0
  1 42  1  0
  1 43  1  0
  6 44  1  0
  6 45  1  0
  7 46  1  0
 12 47  1  0
 13 48  1  0
 14 49  1  0
 15 50  1  0
 16 51  1  0
 17 52  1  0
 19 53  1  0
 19 54  1  0
 23 55  1  0
 23 56  1  0
 24 57  1  0
 24 58  1  0
 26 59  1  0
 27 60  1  0
 28 61  1  0
 29 62  1  0
 34 63  1  0
 34 64  1  0
 36 65  1  0
 37 66  1  0
 38 67  1  0
 39 68  1  0
 40 69  1  0
M  CHG  1  22  -1
M  END
>  <UniqueID>  (35) 
33

>  <SMILES>  (35) 
Cc1c(C(=O)CNS(=O)(=O)c2ccccc2)cc(CC(=O)[N-]CCc2ccccn2)c(=O)n1Cc1ccccc1

>  <Energy>  (35) 
73.92586548514609

>  <Genealogy>  (35) 
Cc1c(C(=O)CNS(=O)(=O)c2ccccc2)cc(CC(=O)[N-]CCc2ccccn2)c(=O)n1Cc1ccccc1 (protonated)
Cc1c(C(=O)CNS(=O)(=O)c2ccccc2)cc(CC(=O)[N-]CCc2ccccn2)c(=O)n1Cc1ccccc1 (3D coordinates assigned)
Cc1c(C(=O)CNS(=O)(=O)c2ccccc2)cc(CC(=O)[N-]CCc2ccccn2)c(=O)n1Cc1ccccc1 (optimized conformer: 73.92586548514609 kcal/mol)

>  <smiles>  (35) 
Cc1c(C(=O)CNS(=O)(=O)c2ccccc2)cc(CC(=O)NCCc2ccccn2)c(=O)n1Cc1ccccc1

>  <score_type>  (35) 
oracle

>  <origin>  (35) 
adg

>  <m_score__min__energy>  (35) 
-11.82

>  <m_primary>  (35) 
energy

$$$$
35:0
     RDKit          3D

 48 51  0  0  0  0  0  0  0  0999 V2000
   58.5900   29.0950   46.7740 C   0  0  0  0  0  0  0  0  0  0  0  0
   58.0630   29.4760   45.5990 C   0  0  0  0  0  0  0  0  0  0  0  0
   57.5960   28.6460   44.5640 C   0  0  0  0  0  0  0  0  0  0  0  0
   57.3910   27.3150   44.5190 C   0  0  0  0  0  0  0  0  0  0  0  0
   57.3710   26.4090   45.6840 C   0  0  0  0  0  0  0  0  0  0  0  0
   56.1740   26.1220   46.3630 C   0  0  0  0  0  0  0  0  0  0  0  0
   54.9770   26.7150   45.9770 O   0  0  0  0  0  0  0  0  0  0  0  0
   56.1790   25.2510   47.4060 N   0  0  0  0  0  0  0  0  0  0  0  0
   57.3240   24.6340   47.7980 C   0  0  0  0  0  0  0  0  0  0  0  0
   57.3050   23.8350   48.7690 O   0  0  0  0  0  0  0  0  0  0  0  0
   58.4860   24.8740   47.1390 N   0  0  0  0  0  0  0  0  0  0  0  0
   58.5340   25.7360   46.0910 C   0  0  0  0  0  0  0  0  0  0  0  0
   59.6290   25.9310   45.4980 O   0  0  0  0  0  0  0  0  0  0  0  0
   57.3370   29.4790   43.4880 C   0  0  0  0  0  0  0  0  0  0  0  0
   57.5910   30.7670   43.9070 C   0  0  0  0  0  0  0  0  0  0  0  0
   57.4400   31.9870   43.0480 C   0  0  0  0  0  0  0  0  0  0  0  0
   58.0310   30.7680   45.1850 N   0  0  0  0  0  0  0  0  0  0  0  0
   58.4250   31.9320   45.9330 C   0  0  0  0  0  0  0  0  0  0  0  0
   59.6820   31.9750   46.5540 C   0  0  0  0  0  0  0  0  0  0  0  0
   60.1010   33.1100   47.2880 C   0  0  0  0  0  0  0  0  0  0  0  0
   61.4120   33.1540   47.9320 N   0  0  0  0  0  0  0  0  0  0  0  0
   61.6710   34.1670   48.9780 C   0  0  0  0  0  0  0  0  0  0  0  0
   63.0560   34.0480   49.6170 C   0  0  0  0  0  0  0  0  0  0  0  0
   64.0280   33.7100   48.6570 O   0  0  0  0  0  0  0  0  0  0  0  0
   63.7940   32.3870   48.2350 C   0  0  0  0  0  0  0  0  0  0  0  0
   62.4990   32.2900   47.4230 C   0  0  0  0  0  0  0  0  0  0  0  0
   59.2060   34.2050   47.3670 C   0  0  0  0  0  0  0  0  0  0  0  0
   57.9560   34.1600   46.7490 C   0  0  0  0  0  0  0  0  0  0  0  0
   57.5640   33.0300   46.0330 C   0  0  0  0  0  0  0  0  0  0  0  0
   56.3510   33.0100   45.4240 F   0  0  0  0  0  0  0  0  0  0  0  0
   58.9184   29.8524   47.5009 H   0  0  0  0  0  0  0  0  0  0  0  0
   58.6933   28.0255   47.0095 H   0  0  0  0  0  0  0  0  0  0  0  0
   57.2243   26.8651   43.5292 H   0  0  0  0  0  0  0  0  0  0  0  0
   56.9939   29.1710   42.4893 H   0  0  0  0  0  0  0  0  0  0  0  0
   57.3301   32.8748   43.6881 H   0  0  0  0  0  0  0  0  0  0  0  0
   58.3309   32.1008   42.4129 H   0  0  0  0  0  0  0  0  0  0  0  0
   56.5482   31.8802   42.4129 H   0  0  0  0  0  0  0  0  0  0  0  0
   60.3553   31.1094   46.4688 H   0  0  0  0  0  0  0  0  0  0  0  0
   61.5818   35.1653   48.5248 H   0  0  0  0  0  0  0  0  0  0  0  0
   60.9324   34.0022   49.7763 H   0  0  0  0  0  0  0  0  0  0  0  0
   63.3240   35.0109   50.0764 H   0  0  0  0  0  0  0  0  0  0  0  0
   63.0237   33.2536   50.3771 H   0  0  0  0  0  0  0  0  0  0  0  0
   64.6360   32.0547   47.6101 H   0  0  0  0  0  0  0  0  0  0  0  0
   63.6981   31.7475   49.1248 H   0  0  0  0  0  0  0  0  0  0  0  0
   62.7173   32.5816   46.3851 H   0  0  0  0  0  0  0  0  0  0  0  0
   62.1472   31.2508   47.5018 H   0  0  0  0  0  0  0  0  0  0  0  0
   59.5014   35.1058   47.9249 H   0  0  0  0  0  0  0  0  0  0  0  0
   57.2759   35.0211   46.8272 H   0  0  0  0  0  0  0  0  0  0  0  0
  1  2  2  0
  2  3  1  0
  3  4  2  3
  4  5  1  0
  5  6  2  0
  6  7  1  0
  6  8  1  0
  8  9  1  0
  9 10  2  0
  9 11  1  0
 11 12  1  0
 12 13  2  0
  3 14  1  0
 14 15  2  0
 15 16  1  0
 15 17  1  0
 17 18  1  0
 18 19  2  0
 19 20  1  0
 20 21  1  0
 21 22  1  0
 22 23  1  0
 23 24  1  0
 24 25  1  0
 25 26  1  0
 20 27  2  0
 27 28  1  0
 28 29  2  0
 29 30  1  0
 17  2  1  0
 29 18  1  0
 12  5  1  0
 26 21  1  0
  1 31  1  0
  1 32  1  0
  4 33  1  0
 14 34  1  0
 16 35  1  0
 16 36  1  0
 16 37  1  0
 19 38  1  0
 22 39  1  0
 22 40  1  0
 23 41  1  0
 23 42  1  0
 25 43  1  0
 25 44  1  0
 26 45  1  0
 26 46  1  0
 27 47  1  0
 28 48  1  0
M  CHG  3   7  -1   8  -1  11  -1
M  END
>  <UniqueID>  (36) 
34

>  <SMILES>  (36) 
C=c1c(=Cc2c([O-])[n-]c(=O)[n-]c2=O)cc(C)n1-c1cc(N2CCOCC2)ccc1F

>  <Energy>  (36) 
108.46432328535984

>  <Genealogy>  (36) 
C=c1c(=Cc2c([O-])[n-]c(=O)[n-]c2=O)cc(C)n1-c1cc(N2CCOCC2)ccc1F (protonated)
C=c1c(=Cc2c([O-])[n-]c(=O)[n-]c2=O)cc(C)n1-c1cc(N2CCOCC2)ccc1F (3D coordinates assigned)
C=c1c(=Cc2c([O-])[n-]c(=O)[n-]c2=O)cc(C)n1-c1cc(N2CCOCC2)ccc1F (nonaromatic ring conformer: 108.46432328535984 kcal/mol)

>  <smiles>  (36) 
C=c1c(=Cc2c(O)[nH]c(=O)[nH]c2=O)cc(C)n1-c1cc(N2CCOCC2)ccc1F

>  <score_type>  (36) 
oracle

>  <origin>  (36) 
adg

>  <m_score__min__energy>  (36) 
-16.030000000000001

>  <m_primary>  (36) 
energy

$$$$
36:0
     RDKit          3D

 49 52  0  0  0  0  0  0  0  0999 V2000
   61.0210   29.5890   49.0250 C   0  0  0  0  0  0  0  0  0  0  0  0
   60.4370   28.3380   48.4510 C   0  0  0  0  0  0  0  0  0  0  0  0
   60.0260   27.3010   49.2060 N   0  0  0  0  0  0  0  0  0  0  0  0
   59.6510   26.3570   48.3900 O   0  0  0  0  0  0  0  0  0  0  0  0
   59.8020   26.7200   47.1370 C   0  0  0  0  0  0  0  0  0  0  0  0
   59.4920   25.8310   45.9760 C   0  0  0  0  0  0  0  0  0  0  0  0
   60.3200   28.0050   47.1100 C   0  0  0  0  0  0  0  0  0  0  0  0
   60.7390   28.8210   45.9160 C   0  0  0  0  0  0  0  0  0  0  0  0
   59.6670   29.7390   45.5270 N   0  0  0  0  0  0  0  0  0  0  0  0
   58.5950   29.3020   44.8770 N   0  0  0  0  0  0  0  0  0  0  0  0
   57.6330   30.2450   44.9460 C   0  0  0  0  0  0  0  0  0  0  0  0
   56.2990   30.0850   44.3480 C   0  0  0  0  0  0  0  0  0  0  0  0
   55.4100   29.0940   44.8590 N   0  0  0  0  0  0  0  0  0  0  0  0
   55.9370   30.8030   43.3790 O   0  0  0  0  0  0  0  0  0  0  0  0
   58.1050   31.3050   45.6990 C   0  0  0  0  0  0  0  0  0  0  0  0
   59.4030   30.9820   46.0040 C   0  0  0  0  0  0  0  0  0  0  0  0
   60.2210   31.8800   46.8490 C   0  0  0  0  0  0  0  0  0  0  0  0
   61.6160   31.9680   46.7450 C   0  0  0  0  0  0  0  0  0  0  0  0
   62.3260   32.8560   47.5560 C   0  0  0  0  0  0  0  0  0  0  0  0
   61.6580   33.7010   48.4520 C   0  0  0  0  0  0  0  0  0  0  0  0
   62.4270   34.5890   49.2840 N   0  0  0  0  0  0  0  0  0  0  0  0
   63.3670   34.0720   50.6490 S   0  0  0  0  0  0  0  0  0  0  0  0
   64.7660   33.1130   50.1060 C   0  0  0  0  0  0  0  0  0  0  0  0
   62.5120   33.2690   51.5890 O   0  0  0  0  0  0  0  0  0  0  0  0
   63.8750   35.2850   51.3750 O   0  0  0  0  0  0  0  0  0  0  0  0
   60.2520   33.6940   48.4750 C   0  0  0  0  0  0  0  0  0  0  0  0
   59.5290   32.8200   47.6490 C   0  0  0  0  0  0  0  0  0  0  0  0
   58.0080   32.8600   47.6420 C   0  0  0  0  0  0  0  0  0  0  0  0
   57.4160   32.5170   46.2560 C   0  0  0  0  0  0  0  0  0  0  0  0
   60.9958   29.5350   50.1234 H   0  0  0  0  0  0  0  0  0  0  0  0
   62.0623   29.6963   48.6870 H   0  0  0  0  0  0  0  0  0  0  0  0
   60.4346   30.4561   48.6870 H   0  0  0  0  0  0  0  0  0  0  0  0
   59.1507   24.8523   46.3444 H   0  0  0  0  0  0  0  0  0  0  0  0
   58.7005   26.2890   45.3646 H   0  0  0  0  0  0  0  0  0  0  0  0
   60.3966   25.6975   45.3646 H   0  0  0  0  0  0  0  0  0  0  0  0
   61.6387   29.4005   46.1701 H   0  0  0  0  0  0  0  0  0  0  0  0
   60.9523   28.1433   45.0762 H   0  0  0  0  0  0  0  0  0  0  0  0
   54.4410   29.3430   45.1550 H   0  0  0  0  0  0  0  0  0  0  0  0
   62.1531   31.3358   46.0226 H   0  0  0  0  0  0  0  0  0  0  0  0
   63.4234   32.8925   47.4905 H   0  0  0  0  0  0  0  0  0  0  0  0
   62.5320   35.5870   48.9930 H   0  0  0  0  0  0  0  0  0  0  0  0
   65.3148   32.7368   50.9819 H   0  0  0  0  0  0  0  0  0  0  0  0
   64.4158   32.2641   49.5003 H   0  0  0  0  0  0  0  0  0  0  0  0
   65.4314   33.7457   49.5003 H   0  0  0  0  0  0  0  0  0  0  0  0
   59.7143   34.3797   49.1464 H   0  0  0  0  0  0  0  0  0  0  0  0
   57.6321   32.1326   48.3765 H   0  0  0  0  0  0  0  0  0  0  0  0
   57.6982   33.8848   47.8948 H   0  0  0  0  0  0  0  0  0  0  0  0
   56.3402   32.3117   46.3583 H   0  0  0  0  0  0  0  0  0  0  0  0
   57.5659   33.3674   45.5746 H   0  0  0  0  0  0  0  0  0  0  0  0
  1  2  1  0
  2  3  2  0
  3  4  1  0
  4  5  1  0
  5  6  1  0
  5  7  2  0
  7  8  1  0
  8  9  1  0
  9 10  1  0
 10 11  2  0
 11 12  1  0
 12 13  1  0
 12 14  2  0
 11 15  1  0
 15 16  2  0
 16 17  1  0
 17 18  2  0
 18 19  1  0
 19 20  2  0
 20 21  1  0
 21 22  1  0
 22 23  1  0
 22 24  2  0
 22 25  2  0
 20 26  1  0
 26 27  2  0
 27 28  1  0
 28 29  1  0
  7  2  1  0
 16  9  1  0
 27 17  1  0
 29 15  1  0
  1 30  1  0
  1 31  1  0
  1 32  1  0
  6 33  1  0
  6 34  1  0
  6 35  1  0
  8 36  1  0
  8 37  1  0
 13 38  1  0
 18 39  1  0
 19 40  1  0
 21 41  1  0
 23 42  1  0
 23 43  1  0
 23 44  1  0
 26 45  1  0
 28 46  1  0
 28 47  1  0
 29 48  1  0
 29 49  1  0
M  CHG  1  13  -1
M  END
>  <UniqueID>  (37) 
35

>  <SMILES>  (37) 
Cc1noc(C)c1Cn1nc(C([NH-])=O)c2c1-c1ccc(NS(C)(=O)=O)cc1CC2

>  <Energy>  (37) 
119.90507743149686

>  <Genealogy>  (37) 
Cc1noc(C)c1Cn1nc(C([NH-])=O)c2c1-c1ccc(NS(C)(=O)=O)cc1CC2 (protonated)
Cc1noc(C)c1Cn1nc(C([NH-])=O)c2c1-c1ccc(NS(C)(=O)=O)cc1CC2 (3D coordinates assigned)
Cc1noc(C)c1Cn1nc(C([NH-])=O)c2c1-c1ccc(NS(C)(=O)=O)cc1CC2 (nonaromatic ring conformer: 119.90507743149686 kcal/mol)

>  <smiles>  (37) 
Cc1noc(C)c1Cn1nc(C(N)=O)c2c1-c1ccc(NS(C)(=O)=O)cc1CC2

>  <score_type>  (37) 
oracle

>  <origin>  (37) 
adg

>  <m_score__min__energy>  (37) 
-10.76

>  <m_primary>  (37) 
energy

$$$$
37:0
     RDKit          3D

 47 50  0  0  0  0  0  0  0  0999 V2000
   60.5415   28.6261   47.7402 H   0  0  0  0  0  0  0  0  0  0  0  0
   59.8140   28.2420   47.0100 C   0  0  0  0  0  0  0  0  0  0  0  0
   59.7586   27.1628   46.8044 H   0  0  0  0  0  0  0  0  0  0  0  0
   58.9940   29.0900   46.3700 C   0  0  0  0  0  0  0  0  0  0  0  0
   58.0150   28.7660   45.4150 C   0  0  0  0  0  0  0  0  0  0  0  0
   57.5100   27.5770   45.0340 C   0  0  0  0  0  0  0  0  0  0  0  0
   57.3102   27.4357   43.9616 H   0  0  0  0  0  0  0  0  0  0  0  0
   57.2030   26.4520   45.9290 C   0  0  0  0  0  0  0  0  0  0  0  0
   58.3290   25.3090   46.4410 S   0  0  0  0  0  0  0  0  0  0  0  0
   57.1580   24.3770   47.2080 C   0  0  0  0  0  0  0  0  0  0  0  0
   57.3980   23.3160   47.8380 O   0  0  0  0  0  0  0  0  0  0  0  0
   55.9150   24.8840   47.0670 N   0  0  0  0  0  0  0  0  0  0  0  0
   55.9370   26.0320   46.3400 C   0  0  0  0  0  0  0  0  0  0  0  0
   54.7690   26.7120   46.0180 O   0  0  0  0  0  0  0  0  0  0  0  0
   57.5960   29.9680   44.8680 C   0  0  0  0  0  0  0  0  0  0  0  0
   56.8689   30.0983   44.0529 H   0  0  0  0  0  0  0  0  0  0  0  0
   58.2640   30.9700   45.5400 C   0  0  0  0  0  0  0  0  0  0  0  0
   58.1020   32.4340   45.2680 C   0  0  0  0  0  0  0  0  0  0  0  0
   58.0416   32.9796   46.2213 H   0  0  0  0  0  0  0  0  0  0  0  0
   58.9654   32.7976   44.6915 H   0  0  0  0  0  0  0  0  0  0  0  0
   57.1800   32.6000   44.6915 H   0  0  0  0  0  0  0  0  0  0  0  0
   59.1110   30.4400   46.4510 N   0  0  0  0  0  0  0  0  0  0  0  0
   59.9970   31.1860   47.3040 C   0  0  0  0  0  0  0  0  0  0  0  0
   61.0400   31.9410   46.7490 C   0  0  0  0  0  0  0  0  0  0  0  0
   61.1818   31.9594   45.6583 H   0  0  0  0  0  0  0  0  0  0  0  0
   61.9000   32.6700   47.5740 C   0  0  0  0  0  0  0  0  0  0  0  0
   62.7236   33.2490   47.1308 H   0  0  0  0  0  0  0  0  0  0  0  0
   61.7180   32.6670   48.9660 C   0  0  0  0  0  0  0  0  0  0  0  0
   62.6410   33.4260   49.8330 C   0  0  0  0  0  0  0  0  0  0  0  0
   62.2410   34.5040   50.3500 O   0  0  0  0  0  0  0  0  0  0  0  0
   63.9750   32.9590   50.1060 N   0  0  0  0  0  0  0  0  0  0  0  0
   64.3530   31.5560   50.1210 C   0  0  0  0  0  0  0  0  0  0  0  0
   63.7355   31.0003   50.8420 H   0  0  0  0  0  0  0  0  0  0  0  0
   64.2044   31.0853   49.1379 H   0  0  0  0  0  0  0  0  0  0  0  0
   65.8160   31.5270   50.5420 C   0  0  0  0  0  0  0  0  0  0  0  0
   65.9856   30.7287   51.2796 H   0  0  0  0  0  0  0  0  0  0  0  0
   66.4773   31.3266   49.6862 H   0  0  0  0  0  0  0  0  0  0  0  0
   66.1030   32.8910   51.1620 C   0  0  0  0  0  0  0  0  0  0  0  0
   66.0706   32.8263   52.2596 H   0  0  0  0  0  0  0  0  0  0  0  0
   67.1032   33.2565   50.8862 H   0  0  0  0  0  0  0  0  0  0  0  0
   65.0090   33.8220   50.6540 C   0  0  0  0  0  0  0  0  0  0  0  0
   64.6056   34.4254   51.4806 H   0  0  0  0  0  0  0  0  0  0  0  0
   65.3933   34.5225   49.8980 H   0  0  0  0  0  0  0  0  0  0  0  0
   60.6850   31.8960   49.5220 C   0  0  0  0  0  0  0  0  0  0  0  0
   60.5517   31.8663   50.6135 H   0  0  0  0  0  0  0  0  0  0  0  0
   59.8250   31.1660   48.6970 C   0  0  0  0  0  0  0  0  0  0  0  0
   58.8210   30.4410   49.2520 F   0  0  0  0  0  0  0  0  0  0  0  0
  1  2  1  0
  2  3  1  0
  2  4  2  0
  4  5  1  0
  5  6  2  0
  6  7  1  0
  6  8  1  0
  8  9  1  0
  9 10  1  0
 10 11  2  0
 10 12  1  0
 12 13  1  0
 13 14  1  0
  5 15  1  0
 15 16  1  0
 15 17  2  0
 17 18  1  0
 18 19  1  0
 18 20  1  0
 18 21  1  0
 17 22  1  0
 22 23  1  0
 23 24  2  0
 24 25  1  0
 24 26  1  0
 26 27  1  0
 26 28  2  0
 28 29  1  0
 29 30  2  0
 29 31  1  0
 31 32  1  0
 32 33  1  0
 32 34  1  0
 32 35  1  0
 35 36  1  0
 35 37  1  0
 35 38  1  0
 38 39  1  0
 38 40  1  0
 38 41  1  0
 41 42  1  0
 41 43  1  0
 28 44  1  0
 44 45  1  0
 44 46  2  0
 46 47  1  0
 22  4  1  0
 46 23  1  0
 13  8  2  0
 41 31  1  0
M  CHG  2  12  -1  14  -1
M  END
>  <UniqueID>  (38) 
36

>  <SMILES>  (38) 
C=c1/c(=C\c2sc(=O)[n-]c2[O-])cc(C)n1-c1ccc(C(=O)N2CCCC2)cc1F

>  <Energy>  (38) 
131.96481894070502

>  <Genealogy>  (38) 
C=c1c(=Cc2sc(=O)[n-]c2[O-])cc(C)n1-c1ccc(C(=O)N2CCCC2)cc1F (protonated)
C=c1/c(=C\c2sc(=O)[n-]c2[O-])cc(C)n1-c1ccc(C(=O)N2CCCC2)cc1F (cis-trans isomerization)
C=c1/c(=C\c2sc(=O)[n-]c2[O-])cc(C)n1-c1ccc(C(=O)N2CCCC2)cc1F (3D coordinates assigned)
C=c1/c(=C\c2sc(=O)[n-]c2[O-])cc(C)n1-c1ccc(C(=O)N2CCCC2)cc1F (nonaromatic ring conformer: 131.96481894070502 kcal/mol)

>  <smiles>  (38) 
C=c1c(=Cc2sc(=O)[nH]c2O)cc(C)n1-c1ccc(C(=O)N2CCCC2)cc1F

>  <score_type>  (38) 
oracle

>  <origin>  (38) 
adg

>  <m_score__min__energy>  (38) 
-14.539999999999999

>  <m_primary>  (38) 
energy

$$$$
38:0
     RDKit          3D

 66 69  0  0  0  0  0  0  0  0999 V2000
   58.4970   27.0600   47.3670 C   0  0  0  0  0  0  0  0  0  0  0  0
   58.2080   26.4480   46.0240 C   0  0  0  0  0  0  0  0  0  0  0  0
   58.2090   25.0500   45.8790 C   0  0  0  0  0  0  0  0  0  0  0  0
   57.9520   24.4580   44.6300 C   0  0  0  0  0  0  0  0  0  0  0  0
   57.9290   23.0670   44.4520 O   0  0  0  0  0  0  0  0  0  0  0  0
   58.5030   22.1310   45.3260 C   0  0  0  0  0  0  0  0  0  0  0  0
   59.7270   22.1800   45.6170 O   0  0  0  0  0  0  0  0  0  0  0  0
   57.6370   21.0930   45.9640 C   0  0  0  0  0  0  0  0  0  0  0  0
   57.3670   21.4530   47.3510 N   0  0  0  0  0  0  0  0  0  0  0  0
   56.7080   22.6600   47.7430 C   0  0  0  0  0  0  0  0  0  0  0  0
   57.3070   23.5110   48.4550 O   0  0  0  0  0  0  0  0  0  0  0  0
   55.3880   22.8760   47.3330 O   0  0  0  0  0  0  0  0  0  0  0  0
   55.0380   23.7540   46.2650 C   0  0  0  0  0  0  0  0  0  0  0  0
   53.6160   23.5040   45.8420 C   0  0  0  0  0  0  0  0  0  0  0  0
   53.1130   24.0480   44.6480 C   0  0  0  0  0  0  0  0  0  0  0  0
   51.7750   23.8460   44.2900 C   0  0  0  0  0  0  0  0  0  0  0  0
   50.9300   23.1060   45.1220 C   0  0  0  0  0  0  0  0  0  0  0  0
   51.4230   22.5670   46.3150 C   0  0  0  0  0  0  0  0  0  0  0  0
   52.7590   22.7670   46.6760 C   0  0  0  0  0  0  0  0  0  0  0  0
   57.7580   25.2770   43.5160 C   0  0  0  0  0  0  0  0  0  0  0  0
   57.7660   26.6680   43.6450 C   0  0  0  0  0  0  0  0  0  0  0  0
   57.9620   27.2660   44.9020 C   0  0  0  0  0  0  0  0  0  0  0  0
   57.9760   28.6960   45.0620 N   0  0  0  0  0  0  0  0  0  0  0  0
   56.8910   29.6020   44.8380 C   0  0  0  0  0  0  0  0  0  0  0  0
   55.7310   29.3280   45.2490 O   0  0  0  0  0  0  0  0  0  0  0  0
   57.1680   30.8800   44.2540 N   0  0  0  0  0  0  0  0  0  0  0  0
   57.5500   32.0690   44.9590 C   0  0  0  0  0  0  0  0  0  0  0  0
   57.5030   33.3380   44.3560 C   0  0  0  0  0  0  0  0  0  0  0  0
   57.9060   34.4700   45.0680 C   0  0  0  0  0  0  0  0  0  0  0  0
   58.3590   34.3490   46.3840 C   0  0  0  0  0  0  0  0  0  0  0  0
   58.4150   33.0880   46.9970 C   0  0  0  0  0  0  0  0  0  0  0  0
   58.9260   32.9520   48.4060 C   0  0  0  0  0  0  0  0  0  0  0  0
   60.4270   33.0350   48.4310 C   0  0  0  0  0  0  0  0  0  0  0  0
   61.1980   32.1810   47.6240 C   0  0  0  0  0  0  0  0  0  0  0  0
   62.5940   32.2710   47.6350 C   0  0  0  0  0  0  0  0  0  0  0  0
   63.2310   33.2180   48.4440 C   0  0  0  0  0  0  0  0  0  0  0  0
   64.6220   33.2930   48.4480 O   0  0  0  0  0  0  0  0  0  0  0  0
   62.4660   34.0800   49.2410 C   0  0  0  0  0  0  0  0  0  0  0  0
   61.0710   33.9940   49.2300 C   0  0  0  0  0  0  0  0  0  0  0  0
   58.0320   31.9490   46.2680 C   0  0  0  0  0  0  0  0  0  0  0  0
   58.1720   26.3718   48.1612 H   0  0  0  0  0  0  0  0  0  0  0  0
   59.5773   27.2444   47.4611 H   0  0  0  0  0  0  0  0  0  0  0  0
   57.9531   28.0115   47.4611 H   0  0  0  0  0  0  0  0  0  0  0  0
   58.4130   24.4124   46.7519 H   0  0  0  0  0  0  0  0  0  0  0  0
   56.6868   21.0231   45.4142 H   0  0  0  0  0  0  0  0  0  0  0  0
   58.1558   20.1234   45.9369 H   0  0  0  0  0  0  0  0  0  0  0  0
   55.1407   24.7963   46.6011 H   0  0  0  0  0  0  0  0  0  0  0  0
   55.7073   23.5710   45.4115 H   0  0  0  0  0  0  0  0  0  0  0  0
   53.7731   24.6347   43.9923 H   0  0  0  0  0  0  0  0  0  0  0  0
   51.3877   24.2705   43.3520 H   0  0  0  0  0  0  0  0  0  0  0  0
   49.8789   22.9477   44.8390 H   0  0  0  0  0  0  0  0  0  0  0  0
   50.7585   21.9848   46.9703 H   0  0  0  0  0  0  0  0  0  0  0  0
   53.1407   22.3452   47.6175 H   0  0  0  0  0  0  0  0  0  0  0  0
   57.5973   24.8226   42.5272 H   0  0  0  0  0  0  0  0  0  0  0  0
   57.6179   27.2997   42.7568 H   0  0  0  0  0  0  0  0  0  0  0  0
   57.1477   33.4398   43.3200 H   0  0  0  0  0  0  0  0  0  0  0  0
   57.8666   35.4603   44.5909 H   0  0  0  0  0  0  0  0  0  0  0  0
   58.6725   35.2443   46.9409 H   0  0  0  0  0  0  0  0  0  0  0  0
   58.5082   33.7615   49.0225 H   0  0  0  0  0  0  0  0  0  0  0  0
   58.6166   31.9744   48.8043 H   0  0  0  0  0  0  0  0  0  0  0  0
   60.7019   31.4389   46.9812 H   0  0  0  0  0  0  0  0  0  0  0  0
   63.1923   31.5955   47.0060 H   0  0  0  0  0  0  0  0  0  0  0  0
   65.1770   32.8480   47.7270 H   0  0  0  0  0  0  0  0  0  0  0  0
   62.9646   34.8263   49.8770 H   0  0  0  0  0  0  0  0  0  0  0  0
   60.4750   34.6802   49.8496 H   0  0  0  0  0  0  0  0  0  0  0  0
   58.1117   30.9540   46.7302 H   0  0  0  0  0  0  0  0  0  0  0  0
  1  2  1  0
  2  3  2  0
  3  4  1  0
  4  5  1  0
  5  6  1  0
  6  7  2  0
  6  8  1  0
  8  9  1  0
  9 10  1  0
 10 11  2  0
 10 12  1  0
 12 13  1  0
 13 14  1  0
 14 15  2  0
 15 16  1  0
 16 17  2  0
 17 18  1  0
 18 19  2  0
  4 20  2  0
 20 21  1  0
 21 22  2  0
 22 23  1  0
 23 24  1  0
 24 25  2  0
 24 26  1  0
 26 27  1  0
 27 28  2  0
 28 29  1  0
 29 30  2  0
 30 31  1  0
 31 32  1  0
 32 33  1  0
 33 34  2  0
 34 35  1  0
 35 36  2  0
 36 37  1  0
 36 38  1  0
 38 39  2  0
 31 40  2  0
 22  2  1  0
 40 27  1  0
 19 14  1  0
 39 33  1  0
  1 41  1  0
  1 42  1  0
  1 43  1  0
  3 44  1  0
  8 45  1  0
  8 46  1  0
 13 47  1  0
 13 48  1  0
 15 49  1  0
 16 50  1  0
 17 51  1  0
 18 52  1  0
 19 53  1  0
 20 54  1  0
 21 55  1  0
 28 56  1  0
 29 57  1  0
 30 58  1  0
 32 59  1  0
 32 60  1  0
 34 61  1  0
 35 62  1  0
 37 63  1  0
 38 64  1  0
 39 65  1  0
 40 66  1  0
M  CHG  3   9  -1  23  -1  26  -1
M  END
>  <UniqueID>  (39) 
37

>  <SMILES>  (39) 
Cc1cc(OC(=O)C[N-]C(=O)OCc2ccccc2)ccc1[N-]C(=O)[N-]c1cccc(Cc2ccc(O)cc2)c1

>  <Energy>  (39) 
76.14043890452791

>  <Genealogy>  (39) 
Cc1cc(OC(=O)C[N-]C(=O)OCc2ccccc2)ccc1[N-]C(=O)[N-]c1cccc(Cc2ccc(O)cc2)c1 (protonated)
Cc1cc(OC(=O)C[N-]C(=O)OCc2ccccc2)ccc1[N-]C(=O)[N-]c1cccc(Cc2ccc(O)cc2)c1 (3D coordinates assigned)
Cc1cc(OC(=O)C[N-]C(=O)OCc2ccccc2)ccc1[N-]C(=O)[N-]c1cccc(Cc2ccc(O)cc2)c1 (optimized conformer: 76.14043890452791 kcal/mol)

>  <smiles>  (39) 
Cc1cc(OC(=O)CNC(=O)OCc2ccccc2)ccc1NC(=O)Nc1cccc(Cc2ccc(O)cc2)c1

>  <score_type>  (39) 
oracle

>  <origin>  (39) 
adg

>  <m_score__min__energy>  (39) 
-12.9

>  <m_primary>  (39) 
energy

$$$$
39:0
     RDKit          3D

 54 56  0  0  0  0  0  0  0  0999 V2000
   51.5180   23.9580   44.7590 C   0  0  0  0  0  0  0  0  0  0  0  0
   52.7240   23.1510   44.8630 N   0  0  0  0  0  0  0  0  0  0  0  0
   53.9170   23.6520   44.9040 C   0  0  0  0  0  0  0  0  0  0  0  0
   54.3680   24.4510   45.8980 N   0  0  0  0  0  0  0  0  0  0  0  0
   55.6620   24.8150   45.6930 C   0  0  0  0  0  0  0  0  0  0  0  0
   56.4050   25.6490   46.6890 C   0  0  0  0  0  0  0  0  0  0  0  0
   56.4160   27.0460   46.2650 N   0  0  0  0  0  0  0  0  0  0  0  0
   57.5730   27.8850   46.3510 C   0  0  0  0  0  0  0  0  0  0  0  0
   58.1320   28.0860   47.4630 O   0  0  0  0  0  0  0  0  0  0  0  0
   58.1460   28.4890   45.1080 C   0  0  0  0  0  0  0  0  0  0  0  0
   57.0840   28.7490   44.1500 N   0  0  0  0  0  0  0  0  0  0  0  0
   56.3700   29.9840   44.0940 C   0  0  0  0  0  0  0  0  0  0  0  0
   55.1670   30.0400   44.4770 O   0  0  0  0  0  0  0  0  0  0  0  0
   57.0460   31.1820   43.4890 C   0  0  0  0  0  0  0  0  0  0  0  0
   57.5780   32.1220   44.5360 C   0  0  0  0  0  0  0  0  0  0  0  0
   57.7670   31.6740   45.8520 C   0  0  0  0  0  0  0  0  0  0  0  0
   58.3000   32.5320   46.8170 C   0  0  0  0  0  0  0  0  0  0  0  0
   58.6650   33.8440   46.4740 C   0  0  0  0  0  0  0  0  0  0  0  0
   59.2550   34.7310   47.4350 N   0  0  0  0  0  0  0  0  0  0  0  0
   60.2450   34.3620   48.3950 C   0  0  0  0  0  0  0  0  0  0  0  0
   59.8930   34.1580   49.5840 O   0  0  0  0  0  0  0  0  0  0  0  0
   61.6260   34.2080   48.0400 N   0  0  0  0  0  0  0  0  0  0  0  0
   62.6690   33.7750   48.9270 C   0  0  0  0  0  0  0  0  0  0  0  0
   62.8530   34.4050   50.1710 C   0  0  0  0  0  0  0  0  0  0  0  0
   63.8910   34.0090   51.0170 C   0  0  0  0  0  0  0  0  0  0  0  0
   64.7510   32.9790   50.6360 C   0  0  0  0  0  0  0  0  0  0  0  0
   64.5590   32.3240   49.4200 C   0  0  0  0  0  0  0  0  0  0  0  0
   63.5110   32.6990   48.5640 C   0  0  0  0  0  0  0  0  0  0  0  0
   63.3730   31.9950   47.2410 C   0  0  0  0  0  0  0  0  0  0  0  0
   58.4500   34.3000   45.1680 C   0  0  0  0  0  0  0  0  0  0  0  0
   57.9260   33.4400   44.1980 C   0  0  0  0  0  0  0  0  0  0  0  0
   56.2440   24.3020   44.5360 C   0  0  0  0  0  0  0  0  0  0  0  0
   55.0920   23.3630   43.7450 S   0  0  0  0  0  0  0  0  0  0  0  0
   51.1524   24.2026   45.7672 H   0  0  0  0  0  0  0  0  0  0  0  0
   51.7443   24.8872   44.2156 H   0  0  0  0  0  0  0  0  0  0  0  0
   50.7454   23.3943   44.2156 H   0  0  0  0  0  0  0  0  0  0  0  0
   55.9122   25.5702   47.6693 H   0  0  0  0  0  0  0  0  0  0  0  0
   57.4410   25.2864   46.7607 H   0  0  0  0  0  0  0  0  0  0  0  0
   58.6493   29.4340   45.3601 H   0  0  0  0  0  0  0  0  0  0  0  0
   58.8700   27.7890   44.6654 H   0  0  0  0  0  0  0  0  0  0  0  0
   57.8828   30.8384   42.8631 H   0  0  0  0  0  0  0  0  0  0  0  0
   56.2988   31.7270   42.8935 H   0  0  0  0  0  0  0  0  0  0  0  0
   57.4946   30.6438   46.1248 H   0  0  0  0  0  0  0  0  0  0  0  0
   58.4344   32.1785   47.8499 H   0  0  0  0  0  0  0  0  0  0  0  0
   62.1751   35.2146   50.4794 H   0  0  0  0  0  0  0  0  0  0  0  0
   64.0308   34.5104   51.9860 H   0  0  0  0  0  0  0  0  0  0  0  0
   65.5808   32.6834   51.2949 H   0  0  0  0  0  0  0  0  0  0  0  0
   65.2346   31.5062   49.1288 H   0  0  0  0  0  0  0  0  0  0  0  0
   63.1640   30.9288   47.4130 H   0  0  0  0  0  0  0  0  0  0  0  0
   62.5457   32.4436   46.6715 H   0  0  0  0  0  0  0  0  0  0  0  0
   64.3084   32.0980   46.6715 H   0  0  0  0  0  0  0  0  0  0  0  0
   58.6944   35.3394   44.9037 H   0  0  0  0  0  0  0  0  0  0  0  0
   57.7859   33.7968   43.1670 H   0  0  0  0  0  0  0  0  0  0  0  0
   57.2757   24.4794   44.1983 H   0  0  0  0  0  0  0  0  0  0  0  0
  1  2  1  0
  2  3  2  3
  3  4  1  0
  4  5  1  0
  5  6  1  0
  6  7  1  0
  7  8  1  0
  8  9  2  0
  8 10  1  0
 10 11  1  0
 11 12  1  0
 12 13  2  0
 12 14  1  0
 14 15  1  0
 15 16  2  0
 16 17  1  0
 17 18  2  0
 18 19  1  0
 19 20  1  0
 20 21  2  0
 20 22  1  0
 22 23  1  0
 23 24  2  0
 24 25  1  0
 25 26  2  0
 26 27  1  0
 27 28  2  0
 28 29  1  0
 18 30  1  0
 30 31  2  0
  5 32  2  0
 32 33  1  0
 33  3  1  0
 31 15  1  0
 28 23  1  0
  1 34  1  0
  1 35  1  0
  1 36  1  0
  6 37  1  0
  6 38  1  0
 10 39  1  0
 10 40  1  0
 14 41  1  0
 14 42  1  0
 16 43  1  0
 17 44  1  0
 24 45  1  0
 25 46  1  0
 26 47  1  0
 27 48  1  0
 29 49  1  0
 29 50  1  0
 29 51  1  0
 30 52  1  0
 31 53  1  0
 32 54  1  0
M  CHG  5   4  -1   7  -1  11  -1  19  -1  22  -1
M  END
>  <UniqueID>  (40) 
38

>  <SMILES>  (40) 
CN=c1[n-]c(C[N-]C(=O)C[N-]C(=O)Cc2ccc([N-]C(=O)[N-]c3ccccc3C)cc2)cs1

>  <Energy>  (40) 
84.22289878240379

>  <Genealogy>  (40) 
CN=c1[n-]c(C[N-]C(=O)C[N-]C(=O)Cc2ccc([N-]C(=O)[N-]c3ccccc3C)cc2)cs1 (protonated)
CN=c1[n-]c(C[N-]C(=O)C[N-]C(=O)Cc2ccc([N-]C(=O)[N-]c3ccccc3C)cc2)cs1 (3D coordinates assigned)
CN=c1[n-]c(C[N-]C(=O)C[N-]C(=O)Cc2ccc([N-]C(=O)[N-]c3ccccc3C)cc2)cs1 (optimized conformer: 84.22289878240379 kcal/mol)

>  <smiles>  (40) 
CN=c1[nH]c(CNC(=O)CNC(=O)Cc2ccc(NC(=O)Nc3ccccc3C)cc2)cs1

>  <score_type>  (40) 
oracle

>  <origin>  (40) 
adg

>  <m_score__min__energy>  (40) 
-15.27

>  <m_primary>  (40) 
energy

$$$$
40:0
     RDKit          3D

 40 42  0  0  0  0  0  0  0  0999 V2000
   57.6770   28.5580   46.7290 O   0  0  0  0  0  0  0  0  0  0  0  0
   57.2740   28.3920   45.5460 C   0  0  0  0  0  0  0  0  0  0  0  0
   57.5580   27.1050   44.8460 C   0  0  0  0  0  0  0  0  0  0  0  0
   57.1270   25.9490   45.6950 C   0  0  0  0  0  0  0  0  0  0  0  0
   58.1400   24.7200   46.2520 S   0  0  0  0  0  0  0  0  0  0  0  0
   56.9080   23.9930   47.1380 C   0  0  0  0  0  0  0  0  0  0  0  0
   57.0500   22.9480   47.8250 O   0  0  0  0  0  0  0  0  0  0  0  0
   55.7380   24.6580   47.0420 N   0  0  0  0  0  0  0  0  0  0  0  0
   55.8620   25.7510   46.2440 C   0  0  0  0  0  0  0  0  0  0  0  0
   54.7900   26.6060   45.9980 O   0  0  0  0  0  0  0  0  0  0  0  0
   56.4810   29.3920   44.8970 N   0  0  0  0  0  0  0  0  0  0  0  0
   56.9760   30.4900   44.1180 C   0  0  0  0  0  0  0  0  0  0  0  0
   56.8850   30.5030   42.7140 C   0  0  0  0  0  0  0  0  0  0  0  0
   57.3380   31.6100   41.9920 C   0  0  0  0  0  0  0  0  0  0  0  0
   57.8790   32.7110   42.6600 C   0  0  0  0  0  0  0  0  0  0  0  0
   57.9670   32.7170   44.0630 C   0  0  0  0  0  0  0  0  0  0  0  0
   58.5040   33.8290   44.7940 N   0  0  0  0  0  0  0  0  0  0  0  0
   58.6040   33.9510   46.5190 S   0  0  0  0  0  0  0  0  0  0  0  0
   58.9160   35.3710   46.9120 O   0  0  0  0  0  0  0  0  0  0  0  0
   57.2750   33.5780   47.1150 O   0  0  0  0  0  0  0  0  0  0  0  0
   59.8320   32.8410   47.1300 C   0  0  0  0  0  0  0  0  0  0  0  0
   59.4670   31.5410   47.4910 C   0  0  0  0  0  0  0  0  0  0  0  0
   60.4290   30.6500   47.9680 C   0  0  0  0  0  0  0  0  0  0  0  0
   61.7610   31.0570   48.0850 C   0  0  0  0  0  0  0  0  0  0  0  0
   62.1460   32.3600   47.7290 C   0  0  0  0  0  0  0  0  0  0  0  0
   63.5560   32.7870   47.8510 C   0  0  0  0  0  0  0  0  0  0  0  0
   64.1040   33.4540   46.9350 O   0  0  0  0  0  0  0  0  0  0  0  0
   64.2980   32.4480   48.9790 O   0  0  0  0  0  0  0  0  0  0  0  0
   61.1700   33.2500   47.2550 C   0  0  0  0  0  0  0  0  0  0  0  0
   57.5040   31.6060   44.7810 C   0  0  0  0  0  0  0  0  0  0  0  0
   57.0090   27.0807   43.8931 H   0  0  0  0  0  0  0  0  0  0  0  0
   58.6392   27.0293   44.6582 H   0  0  0  0  0  0  0  0  0  0  0  0
   56.4563   29.6398   42.1837 H   0  0  0  0  0  0  0  0  0  0  0  0
   57.2684   31.6146   40.8942 H   0  0  0  0  0  0  0  0  0  0  0  0
   58.2379   33.5776   42.0854 H   0  0  0  0  0  0  0  0  0  0  0  0
   58.4190   31.2196   47.3989 H   0  0  0  0  0  0  0  0  0  0  0  0
   60.1392   29.6275   48.2519 H   0  0  0  0  0  0  0  0  0  0  0  0
   62.5155   30.3496   48.4597 H   0  0  0  0  0  0  0  0  0  0  0  0
   61.4550   34.2760   46.9792 H   0  0  0  0  0  0  0  0  0  0  0  0
   57.5558   31.6101   45.8798 H   0  0  0  0  0  0  0  0  0  0  0  0
  1  2  2  0
  2  3  1  0
  3  4  1  0
  4  5  1  0
  5  6  1  0
  6  7  2  0
  6  8  1  0
  8  9  1  0
  9 10  1  0
  2 11  1  0
 11 12  1  0
 12 13  2  0
 13 14  1  0
 14 15  2  0
 15 16  1  0
 16 17  1  0
 17 18  1  0
 18 19  2  0
 18 20  2  0
 18 21  1  0
 21 22  2  0
 22 23  1  0
 23 24  2  0
 24 25  1  0
 25 26  1  0
 26 27  2  0
 26 28  1  0
 25 29  2  0
 16 30  2  0
  9  4  2  0
 30 12  1  0
 29 21  1  0
  3 31  1  0
  3 32  1  0
 13 33  1  0
 14 34  1  0
 15 35  1  0
 22 36  1  0
 23 37  1  0
 24 38  1  0
 29 39  1  0
 30 40  1  0
M  CHG  5   8  -1  10  -1  11  -1  17  -1  28  -1
M  END
>  <UniqueID>  (41) 
39

>  <SMILES>  (41) 
O=C(Cc1sc(=O)[n-]c1[O-])[N-]c1cccc([N-]S(=O)(=O)c2cccc(C(=O)[O-])c2)c1

>  <Energy>  (41) 
79.10260275386985

>  <Genealogy>  (41) 
O=C(Cc1sc(=O)[n-]c1[O-])[N-]c1cccc([N-]S(=O)(=O)c2cccc(C(=O)[O-])c2)c1 (protonated)
O=C(Cc1sc(=O)[n-]c1[O-])[N-]c1cccc([N-]S(=O)(=O)c2cccc(C(=O)[O-])c2)c1 (3D coordinates assigned)
O=C(Cc1sc(=O)[n-]c1[O-])[N-]c1cccc([N-]S(=O)(=O)c2cccc(C(=O)[O-])c2)c1 (optimized conformer: 79.10260275386985 kcal/mol)

>  <smiles>  (41) 
O=C(Cc1sc(=O)[nH]c1O)Nc1cccc(NS(=O)(=O)c2cccc(C(=O)O)c2)c1

>  <score_type>  (41) 
oracle

>  <origin>  (41) 
adg

>  <m_score__min__energy>  (41) 
-20.640000000000001

>  <m_primary>  (41) 
energy

$$$$
41:0
     RDKit          3D

 56 60  0  0  0  0  0  0  0  0999 V2000
   60.6160   29.6320   49.7050 O   0  0  0  0  0  0  0  0  0  0  0  0
   60.8140   29.9130   48.4900 C   0  0  0  0  0  0  0  0  0  0  0  0
   61.8310   30.8680   48.1390 N   0  0  0  0  0  0  0  0  0  0  0  0
   62.5230   31.6760   49.1530 C   0  0  1  0  0  0  0  0  0  0  0  0
   63.5660   32.6090   48.5090 C   0  0  0  0  0  0  0  0  0  0  0  0
   63.7540   32.3060   47.1530 O   0  0  0  0  0  0  0  0  0  0  0  0
   61.5370   32.4730   49.9880 C   0  0  0  0  0  0  0  0  0  0  0  0
   61.5250   32.3730   51.3950 C   0  0  0  0  0  0  0  0  0  0  0  0
   60.5890   33.0920   52.1470 C   0  0  0  0  0  0  0  0  0  0  0  0
   59.6500   33.9070   51.5060 C   0  0  0  0  0  0  0  0  0  0  0  0
   59.6430   34.0000   50.1120 C   0  0  0  0  0  0  0  0  0  0  0  0
   60.5760   33.2820   49.3550 C   0  0  0  0  0  0  0  0  0  0  0  0
   60.0080   29.2320   47.4480 C   0  0  0  0  0  0  0  0  0  0  0  0
   59.8100   27.8340   47.4820 C   0  0  0  0  0  0  0  0  0  0  0  0
   59.0430   27.2390   46.4830 C   0  0  0  0  0  0  0  0  0  0  0  0
   58.4960   27.9720   45.4700 C   0  0  0  0  0  0  0  0  0  0  0  0
   58.6780   29.3580   45.3780 C   0  0  0  0  0  0  0  0  0  0  0  0
   58.0930   30.1420   44.2650 C   0  0  0  0  0  0  0  0  0  0  0  0
   58.5060   31.4670   44.0350 C   0  0  0  0  0  0  0  0  0  0  0  0
   57.9590   32.2040   42.9810 C   0  0  0  0  0  0  0  0  0  0  0  0
   57.0020   31.6270   42.1440 C   0  0  0  0  0  0  0  0  0  0  0  0
   56.5890   30.3110   42.3620 C   0  0  0  0  0  0  0  0  0  0  0  0
   57.1300   29.5700   43.4150 C   0  0  0  0  0  0  0  0  0  0  0  0
   59.4410   29.9830   46.3870 C   0  0  0  0  0  0  0  0  0  0  0  0
   57.7610   27.1730   44.6170 O   0  0  0  0  0  0  0  0  0  0  0  0
   57.8070   25.8110   45.0470 C   0  0  2  0  0  0  0  0  0  0  0  0
   56.4250   25.2640   45.2900 C   0  0  0  0  0  0  0  0  0  0  0  0
   56.0840   23.9420   44.9640 C   0  0  0  0  0  0  0  0  0  0  0  0
   54.7740   23.5100   45.1590 C   0  0  0  0  0  0  0  0  0  0  0  0
   53.8290   24.4070   45.6530 C   0  0  0  0  0  0  0  0  0  0  0  0
   52.6360   24.0440   45.8280 O   0  0  0  0  0  0  0  0  0  0  0  0
   54.2000   25.6810   45.9400 N   0  0  0  0  0  0  0  0  0  0  0  0
   55.4560   26.0960   45.7610 N   0  0  0  0  0  0  0  0  0  0  0  0
   58.6620   25.8110   46.3450 C   0  0  0  0  0  0  0  0  0  0  0  0
   62.1560   30.9130   47.1480 H   0  0  0  0  0  0  0  0  0  0  0  0
   63.0534   30.9810   49.8206 H   0  0  0  0  0  0  0  0  0  0  0  0
   63.2198   33.6492   48.5988 H   0  0  0  0  0  0  0  0  0  0  0  0
   64.5242   32.4706   49.0312 H   0  0  0  0  0  0  0  0  0  0  0  0
   64.7240   32.1460   47.0250 H   0  0  0  0  0  0  0  0  0  0  0  0
   62.2552   31.7265   51.9038 H   0  0  0  0  0  0  0  0  0  0  0  0
   60.5917   33.0161   53.2444 H   0  0  0  0  0  0  0  0  0  0  0  0
   58.9176   34.4743   52.0991 H   0  0  0  0  0  0  0  0  0  0  0  0
   58.9026   34.6389   49.6083 H   0  0  0  0  0  0  0  0  0  0  0  0
   60.5576   33.3508   48.2573 H   0  0  0  0  0  0  0  0  0  0  0  0
   60.2539   27.2255   48.2837 H   0  0  0  0  0  0  0  0  0  0  0  0
   59.2633   31.9253   44.6880 H   0  0  0  0  0  0  0  0  0  0  0  0
   58.2833   33.2412   42.8105 H   0  0  0  0  0  0  0  0  0  0  0  0
   56.5739   32.2083   41.3140 H   0  0  0  0  0  0  0  0  0  0  0  0
   55.8352   29.8565   41.7023 H   0  0  0  0  0  0  0  0  0  0  0  0
   56.8010   28.5334   43.5803 H   0  0  0  0  0  0  0  0  0  0  0  0
   59.5987   31.0710   46.3500 H   0  0  0  0  0  0  0  0  0  0  0  0
   58.2486   25.1593   44.2787 H   0  0  0  0  0  0  0  0  0  0  0  0
   56.8421   23.2553   44.5594 H   0  0  0  0  0  0  0  0  0  0  0  0
   54.4891   22.4734   44.9258 H   0  0  0  0  0  0  0  0  0  0  0  0
   58.0716   25.4724   47.2092 H   0  0  0  0  0  0  0  0  0  0  0  0
   59.5252   25.1307   46.2998 H   0  0  0  0  0  0  0  0  0  0  0  0
  1  2  2  0
  2  3  1  0
  3  4  1  0
  4  5  1  0
  5  6  1  0
  4  7  1  0
  7  8  2  0
  8  9  1  0
  9 10  2  0
 10 11  1  0
 11 12  2  0
  2 13  1  0
 13 14  2  0
 14 15  1  0
 15 16  2  0
 16 17  1  0
 17 18  1  0
 18 19  2  0
 19 20  1  0
 20 21  2  0
 21 22  1  0
 22 23  2  0
 17 24  2  0
 16 25  1  0
 25 26  1  0
 26 27  1  0
 27 28  1  0
 28 29  2  0
 29 30  1  0
 30 31  2  0
 30 32  1  0
 32 33  1  0
 26 34  1  0
 12  7  1  0
 24 13  1  0
 33 27  2  0
 34 15  1  0
 23 18  1  0
  3 35  1  0
  4 36  1  1
  5 37  1  0
  5 38  1  0
  6 39  1  0
  8 40  1  0
  9 41  1  0
 10 42  1  0
 11 43  1  0
 12 44  1  0
 14 45  1  0
 19 46  1  0
 20 47  1  0
 21 48  1  0
 22 49  1  0
 23 50  1  0
 24 51  1  0
 26 52  1  6
 28 53  1  0
 29 54  1  0
 34 55  1  0
 34 56  1  0
M  CHG  1  32  -1
M  END
>  <UniqueID>  (42) 
40

>  <SMILES>  (42) 
O=C(N[C@@H](CO)c1ccccc1)c1cc2c(c(-c3ccccc3)c1)O[C@H](c1ccc(=O)[n-]n1)C2

>  <Energy>  (42) 
85.3776808658152

>  <Genealogy>  (42) 
O=C(NC(CO)c1ccccc1)c1cc2c(c(-c3ccccc3)c1)OC(c1ccc(=O)[n-]n1)C2 (protonated)
O=C(N[C@@H](CO)c1ccccc1)c1cc2c(c(-c3ccccc3)c1)O[C@H](c1ccc(=O)[n-]n1)C2 (chirality)
O=C(N[C@@H](CO)c1ccccc1)c1cc2c(c(-c3ccccc3)c1)O[C@H](c1ccc(=O)[n-]n1)C2 (3D coordinates assigned)
O=C(N[C@@H](CO)c1ccccc1)c1cc2c(c(-c3ccccc3)c1)O[C@H](c1ccc(=O)[n-]n1)C2 (nonaromatic ring conformer: 85.3776808658152 kcal/mol)

>  <smiles>  (42) 
O=C(NC(CO)c1ccccc1)c1cc2c(c(-c3ccccc3)c1)OC(c1ccc(=O)[nH]n1)C2

>  <score_type>  (42) 
oracle

>  <origin>  (42) 
adg

>  <m_score__min__energy>  (42) 
-11.18

>  <m_primary>  (42) 
energy

$$$$
42:0
     RDKit          3D

 41 43  0  0  0  0  0  0  0  0999 V2000
   54.1110   30.1670   44.1210 H   0  0  0  0  0  0  0  0  0  0  0  0
   54.7690   29.3560   44.1580 N   0  0  0  0  0  0  0  0  0  0  0  0
   56.0060   29.5030   44.5130 C   0  0  0  0  0  0  0  0  0  0  0  0
   56.5740   30.7310   44.4970 N   0  0  0  0  0  0  0  0  0  0  0  0
   57.8620   30.9380   44.8750 C   0  0  0  0  0  0  0  0  0  0  0  0
   58.4060   32.3360   44.6990 C   0  0  0  0  0  0  0  0  0  0  0  0
   59.2935   32.2956   44.0504 H   0  0  0  0  0  0  0  0  0  0  0  0
   57.6201   32.9588   44.2469 H   0  0  0  0  0  0  0  0  0  0  0  0
   58.7930   32.9470   46.0230 C   0  0  0  0  0  0  0  0  0  0  0  0
   59.7900   33.9370   46.0900 C   0  0  0  0  0  0  0  0  0  0  0  0
   60.2875   34.2754   45.1692 H   0  0  0  0  0  0  0  0  0  0  0  0
   60.1520   34.4930   47.3200 C   0  0  0  0  0  0  0  0  0  0  0  0
   60.9268   35.2726   47.3635 H   0  0  0  0  0  0  0  0  0  0  0  0
   59.5310   34.0600   48.4950 C   0  0  0  0  0  0  0  0  0  0  0  0
   59.8139   34.5018   49.4618 H   0  0  0  0  0  0  0  0  0  0  0  0
   58.5510   33.0660   48.4410 C   0  0  0  0  0  0  0  0  0  0  0  0
   58.0649   32.7235   49.3665 H   0  0  0  0  0  0  0  0  0  0  0  0
   58.1870   32.5060   47.2140 C   0  0  0  0  0  0  0  0  0  0  0  0
   57.4224   31.7159   47.1787 H   0  0  0  0  0  0  0  0  0  0  0  0
   58.6420   29.8370   45.3290 C   0  0  0  0  0  0  0  0  0  0  0  0
   60.0800   30.0240   45.8090 C   0  0  0  0  0  0  0  0  0  0  0  0
   60.6810   29.1802   45.4391 H   0  0  0  0  0  0  0  0  0  0  0  0
   60.4241   30.9922   45.4163 H   0  0  0  0  0  0  0  0  0  0  0  0
   60.2220   30.0860   47.3220 C   0  0  0  0  0  0  0  0  0  0  0  0
   59.3100   29.3570   48.1100 C   0  0  0  0  0  0  0  0  0  0  0  0
   58.5244   28.7628   47.6204 H   0  0  0  0  0  0  0  0  0  0  0  0
   59.3890   29.3780   49.5020 C   0  0  0  0  0  0  0  0  0  0  0  0
   58.6610   28.8122   50.1019 H   0  0  0  0  0  0  0  0  0  0  0  0
   60.3880   30.1140   50.1340 C   0  0  0  0  0  0  0  0  0  0  0  0
   60.4418   30.1374   51.2324 H   0  0  0  0  0  0  0  0  0  0  0  0
   61.3210   30.8220   49.3750 C   0  0  0  0  0  0  0  0  0  0  0  0
   62.1086   31.3995   49.8812 H   0  0  0  0  0  0  0  0  0  0  0  0
   61.2650   30.8050   47.9700 C   0  0  0  0  0  0  0  0  0  0  0  0
   62.3150   31.5580   47.1980 C   0  0  0  0  0  0  0  0  0  0  0  0
   63.0030   32.0514   47.9002 H   0  0  0  0  0  0  0  0  0  0  0  0
   62.8781   30.8566   46.5648 H   0  0  0  0  0  0  0  0  0  0  0  0
   61.8312   32.3163   46.5648 H   0  0  0  0  0  0  0  0  0  0  0  0
   58.0430   28.5490   45.2580 C   0  0  0  0  0  0  0  0  0  0  0  0
   58.8910   27.1740   45.5690 S   0  0  0  0  0  0  0  0  0  0  0  0
   56.7410   28.4230   44.8760 N   0  0  0  0  0  0  0  0  0  0  0  0
   56.2990   27.4750   44.8460 H   0  0  0  0  0  0  0  0  0  0  0  0
  1  2  1  0
  2  3  2  0
  3  4  1  0
  4  5  1  0
  5  6  1  0
  6  7  1  0
  6  8  1  0
  6  9  1  0
  9 10  2  0
 10 11  1  0
 10 12  1  0
 12 13  1  0
 12 14  2  0
 14 15  1  0
 14 16  1  0
 16 17  1  0
 16 18  2  0
 18 19  1  0
  5 20  2  0
 20 21  1  0
 21 22  1  0
 21 23  1  0
 21 24  1  0
 24 25  2  0
 25 26  1  0
 25 27  1  0
 27 28  1  0
 27 29  2  0
 29 30  1  0
 29 31  1  0
 31 32  1  0
 31 33  2  0
 33 34  1  0
 34 35  1  0
 34 36  1  0
 34 37  1  0
 20 38  1  0
 38 39  2  0
 38 40  1  0
 40 41  1  0
 40  3  1  0
 18  9  1  0
 33 24  1  0
M  CHG  1   4  -1
M  END
>  <UniqueID>  (43) 
41

>  <SMILES>  (43) 
[H]/N=c1\[n-]c(Cc2ccccc2)c(Cc2ccccc2C)c(=S)[nH]1

>  <Energy>  (43) 
51.076314178293444

>  <Genealogy>  (43) 
Cc1ccccc1Cc1c(Cc2ccccc2)[n-]c(=N)[nH]c1=S (protonated)
[H]/N=c1\[n-]c(Cc2ccccc2)c(Cc2ccccc2C)c(=S)[nH]1 (cis-trans isomerization)
[H]/N=c1\[n-]c(Cc2ccccc2)c(Cc2ccccc2C)c(=S)[nH]1 (3D coordinates assigned)
[H]/N=c1\[n-]c(Cc2ccccc2)c(Cc2ccccc2C)c(=S)[nH]1 (optimized conformer: 51.076314178293444 kcal/mol)

>  <smiles>  (43) 
Cc1ccccc1Cc1c(Cc2ccccc2)[nH]c(=N)[nH]c1=S

>  <score_type>  (43) 
oracle

>  <origin>  (43) 
adg

>  <m_score__min__energy>  (43) 
-9.8200000000000003

>  <m_primary>  (43) 
energy

$$$$
43:0
     RDKit          3D

 29 30  0  0  0  0  0  0  0  0999 V2000
   57.3470   33.8020   46.2340 N   0  0  0  0  0  0  0  0  0  0  0  0
   57.7420   32.5920   46.0560 C   0  0  0  0  0  0  0  0  0  0  0  0
   58.5250   31.9340   46.9470 N   0  0  0  0  0  0  0  0  0  0  0  0
   58.9130   30.6680   46.7020 C   0  0  0  0  0  0  0  0  0  0  0  0
   58.5380   29.9840   45.5440 C   0  0  0  0  0  0  0  0  0  0  0  0
   59.0280   28.6040   45.2900 C   0  0  0  0  0  0  0  0  0  0  0  0
   58.1540   27.5530   45.8400 C   0  0  0  0  0  0  0  0  0  0  0  0
   56.8080   27.4330   45.5990 C   0  0  0  0  0  0  0  0  0  0  0  0
   56.0260   26.4120   46.1350 C   0  0  0  0  0  0  0  0  0  0  0  0
   54.6490   26.3340   45.8530 O   0  0  0  0  0  0  0  0  0  0  0  0
   56.6070   25.4450   46.9640 C   0  0  0  0  0  0  0  0  0  0  0  0
   55.8100   24.4360   47.4860 O   0  0  0  0  0  0  0  0  0  0  0  0
   57.9550   25.5600   47.2120 C   0  0  0  0  0  0  0  0  0  0  0  0
   58.7210   26.5900   46.6660 C   0  0  0  0  0  0  0  0  0  0  0  0
   60.0310   26.5810   47.0010 F   0  0  0  0  0  0  0  0  0  0  0  0
   57.7430   30.6890   44.6710 C   0  0  0  0  0  0  0  0  0  0  0  0
   57.2830   30.1610   43.5630 N   0  0  0  0  0  0  0  0  0  0  0  0
   57.3480   31.9690   44.9130 N   0  0  0  0  0  0  0  0  0  0  0  0
   56.5320   34.1340   46.7460 H   0  0  0  0  0  0  0  0  0  0  0  0
   58.8210   32.4380   47.8350 H   0  0  0  0  0  0  0  0  0  0  0  0
   59.5474   30.1549   47.4398 H   0  0  0  0  0  0  0  0  0  0  0  0
   59.1046   28.4576   44.2025 H   0  0  0  0  0  0  0  0  0  0  0  0
   60.0000   28.5104   45.7964 H   0  0  0  0  0  0  0  0  0  0  0  0
   56.3235   28.1787   44.9516 H   0  0  0  0  0  0  0  0  0  0  0  0
   54.1780   25.5740   46.3650 H   0  0  0  0  0  0  0  0  0  0  0  0
   54.7930   24.4750   47.4890 H   0  0  0  0  0  0  0  0  0  0  0  0
   58.4436   24.8176   47.8602 H   0  0  0  0  0  0  0  0  0  0  0  0
   57.8680   29.7360   42.8520 H   0  0  0  0  0  0  0  0  0  0  0  0
   56.7350   32.4610   44.2010 H   0  0  0  0  0  0  0  0  0  0  0  0
  1  2  2  3
  2  3  1  0
  3  4  1  0
  4  5  2  0
  5  6  1  0
  6  7  1  0
  7  8  2  0
  8  9  1  0
  9 10  1  0
  9 11  2  0
 11 12  1  0
 11 13  1  0
 13 14  2  0
 14 15  1  0
  5 16  1  0
 16 17  2  3
 16 18  1  0
 18  2  1  0
 14  7  1  0
  1 19  1  0
  3 20  1  0
  4 21  1  0
  6 22  1  0
  6 23  1  0
  8 24  1  0
 10 25  1  0
 12 26  1  0
 13 27  1  0
 17 28  1  0
 18 29  1  0
M  END
>  <smiles>  (44) 
N=c1[nH]cc(Cc2cc(O)c(O)cc2F)c(=N)[nH]1

>  <score_type>  (44) 
oracle

>  <origin>  (44) 
adg

>  <m_score__min__energy>  (44) 
-7.2699999999999996

>  <m_primary>  (44) 
energy

$$$$
44:0
     RDKit          3D

 49 51  0  0  0  0  0  0  0  0999 V2000
   60.0600   28.0650   48.5430 C   0  0  0  0  0  0  0  0  0  0  0  0
   60.5700   29.3870   48.4040 O   0  0  0  0  0  0  0  0  0  0  0  0
   59.7980   30.5100   48.0640 C   0  0  0  0  0  0  0  0  0  0  0  0
   59.0650   30.5690   46.8620 C   0  0  0  0  0  0  0  0  0  0  0  0
   58.2900   31.6910   46.5590 C   0  0  0  0  0  0  0  0  0  0  0  0
   58.2280   32.7650   47.4480 C   0  0  0  0  0  0  0  0  0  0  0  0
   57.4430   33.8730   47.1360 O   0  0  0  0  0  0  0  0  0  0  0  0
   58.9550   32.7200   48.6440 C   0  0  0  0  0  0  0  0  0  0  0  0
   59.7520   31.6050   48.9540 C   0  0  0  0  0  0  0  0  0  0  0  0
   60.5030   31.5710   50.2660 C   0  0  0  0  0  0  0  0  0  0  0  0
   60.0170   30.4680   51.1770 C   0  0  0  0  0  0  0  0  0  0  0  0
   60.7700   29.4780   51.4030 O   0  0  0  0  0  0  0  0  0  0  0  0
   58.7190   30.5270   51.8070 N   0  0  0  0  0  0  0  0  0  0  0  0
   58.1380   29.2850   52.3410 C   0  0  0  0  0  0  0  0  0  0  0  0
   56.8000   29.5280   53.0540 C   0  0  0  0  0  0  0  0  0  0  0  0
   55.9430   30.4260   52.2640 N   0  0  0  0  0  0  0  0  0  0  0  0
   54.5080   30.2620   52.2810 C   0  0  0  0  0  0  0  0  0  0  0  0
   53.9290   29.0720   52.7570 C   0  0  0  0  0  0  0  0  0  0  0  0
   52.5420   28.9210   52.7810 C   0  0  0  0  0  0  0  0  0  0  0  0
   51.7130   29.9510   52.3330 C   0  0  0  0  0  0  0  0  0  0  0  0
   52.2660   31.1520   51.8550 C   0  0  0  0  0  0  0  0  0  0  0  0
   51.3850   32.2450   51.3810 C   0  0  0  0  0  0  0  0  0  0  0  0
   50.9950   32.3210   50.0100 N   0  0  0  0  0  0  0  0  0  0  0  0
   50.9730   33.1250   52.1850 O   0  0  0  0  0  0  0  0  0  0  0  0
   53.6660   31.2980   51.8340 C   0  0  0  0  0  0  0  0  0  0  0  0
   56.5270   31.6080   51.6090 C   0  0  0  0  0  0  0  0  0  0  0  0
   57.9960   31.7940   51.9940 C   0  0  0  0  0  0  0  0  0  0  0  0
   59.9651   27.8190   49.6109 H   0  0  0  0  0  0  0  0  0  0  0  0
   59.0725   28.0006   48.0627 H   0  0  0  0  0  0  0  0  0  0  0  0
   60.7484   27.3540   48.0627 H   0  0  0  0  0  0  0  0  0  0  0  0
   59.1033   29.7254   46.1571 H   0  0  0  0  0  0  0  0  0  0  0  0
   57.7260   31.7282   45.6153 H   0  0  0  0  0  0  0  0  0  0  0  0
   56.4360   33.8580   47.2470 H   0  0  0  0  0  0  0  0  0  0  0  0
   58.9017   33.5646   49.3467 H   0  0  0  0  0  0  0  0  0  0  0  0
   61.5715   31.4127   50.0579 H   0  0  0  0  0  0  0  0  0  0  0  0
   60.3307   32.5297   50.7771 H   0  0  0  0  0  0  0  0  0  0  0  0
   57.9734   28.5849   51.5087 H   0  0  0  0  0  0  0  0  0  0  0  0
   58.8428   28.8733   53.0784 H   0  0  0  0  0  0  0  0  0  0  0  0
   56.2846   28.5660   53.1914 H   0  0  0  0  0  0  0  0  0  0  0  0
   56.9997   29.9978   54.0284 H   0  0  0  0  0  0  0  0  0  0  0  0
   54.5738   28.2549   53.1127 H   0  0  0  0  0  0  0  0  0  0  0  0
   52.0997   27.9858   53.1548 H   0  0  0  0  0  0  0  0  0  0  0  0
   50.6208   29.8222   52.3541 H   0  0  0  0  0  0  0  0  0  0  0  0
   49.9870   32.3390   49.7380 H   0  0  0  0  0  0  0  0  0  0  0  0
   54.1082   32.2345   51.4632 H   0  0  0  0  0  0  0  0  0  0  0  0
   56.4563   31.4837   50.5183 H   0  0  0  0  0  0  0  0  0  0  0  0
   55.9686   32.4965   51.9389 H   0  0  0  0  0  0  0  0  0  0  0  0
   58.4460   32.5698   51.3571 H   0  0  0  0  0  0  0  0  0  0  0  0
   58.0615   32.0999   53.0486 H   0  0  0  0  0  0  0  0  0  0  0  0
  1  2  1  0
  2  3  1  0
  3  4  2  0
  4  5  1  0
  5  6  2  0
  6  7  1  0
  6  8  1  0
  8  9  2  0
  9 10  1  0
 10 11  1  0
 11 12  2  0
 11 13  1  0
 13 14  1  0
 14 15  1  0
 15 16  1  0
 16 17  1  0
 17 18  2  0
 18 19  1  0
 19 20  2  0
 20 21  1  0
 21 22  1  0
 22 23  1  0
 22 24  2  0
 21 25  2  0
 16 26  1  0
 26 27  1  0
  9  3  1  0
 27 13  1  0
 25 17  1  0
  1 28  1  0
  1 29  1  0
  1 30  1  0
  4 31  1  0
  5 32  1  0
  7 33  1  0
  8 34  1  0
 10 35  1  0
 10 36  1  0
 14 37  1  0
 14 38  1  0
 15 39  1  0
 15 40  1  0
 18 41  1  0
 19 42  1  0
 20 43  1  0
 23 44  1  0
 25 45  1  0
 26 46  1  0
 26 47  1  0
 27 48  1  0
 27 49  1  0
M  CHG  1  23  -1
M  END
>  <UniqueID>  (45) 
42

>  <SMILES>  (45) 
COc1ccc(O)cc1CC(=O)N1CCN(c2cccc(C([NH-])=O)c2)CC1

>  <Energy>  (45) 
55.382334790955355

>  <Genealogy>  (45) 
COc1ccc(O)cc1CC(=O)N1CCN(c2cccc(C([NH-])=O)c2)CC1 (protonated)
COc1ccc(O)cc1CC(=O)N1CCN(c2cccc(C([NH-])=O)c2)CC1 (3D coordinates assigned)
COc1ccc(O)cc1CC(=O)N1CCN(c2cccc(C([NH-])=O)c2)CC1 (nonaromatic ring conformer: 55.382334790955355 kcal/mol)

>  <smiles>  (45) 
COc1ccc(O)cc1CC(=O)N1CCN(c2cccc(C(N)=O)c2)CC1

>  <score_type>  (45) 
oracle

>  <origin>  (45) 
adg

>  <m_score__min__energy>  (45) 
-11.529999999999999

>  <m_primary>  (45) 
energy

$$$$
45:0
     RDKit          3D

 85 91  0  0  0  0  0  0  0  0999 V2000
   69.3900   32.1850   52.6610 C   0  0  0  0  0  0  0  0  0  0  0  0
   68.6930   32.4120   51.4390 O   0  0  0  0  0  0  0  0  0  0  0  0
   67.3190   32.6760   51.3510 C   0  0  0  0  0  0  0  0  0  0  0  0
   66.6010   32.8810   52.5550 C   0  0  0  0  0  0  0  0  0  0  0  0
   65.2180   33.1870   52.5330 C   0  0  0  0  0  0  0  0  0  0  0  0
   64.4670   33.4670   53.6850 O   0  0  0  0  0  0  0  0  0  0  0  0
   63.1120   33.9080   53.6960 C   0  0  0  0  0  0  0  0  0  0  0  0
   62.1920   32.7600   53.4440 C   0  0  0  0  0  0  0  0  0  0  0  0
   60.9830   32.8740   52.8500 N   0  0  0  0  0  0  0  0  0  0  0  0
   60.3890   31.6670   52.6310 C   0  0  0  0  0  0  0  0  0  0  0  0
   59.1470   31.5590   51.8420 C   0  0  0  0  0  0  0  0  0  0  0  0
   59.1680   31.8800   50.6210 O   0  0  0  0  0  0  0  0  0  0  0  0
   57.9170   31.1020   52.4410 N   0  0  0  0  0  0  0  0  0  0  0  0
   56.6430   31.5860   51.9060 C   0  0  0  0  0  0  0  0  0  0  0  0
   57.9410   30.0850   53.5030 C   0  0  0  0  0  0  0  0  0  0  0  0
   61.1500   30.5780   53.0760 C   0  0  0  0  0  0  0  0  0  0  0  0
   60.8960   29.1900   52.8330 N   0  0  0  0  0  0  0  0  0  0  0  0
   61.3590   28.4250   51.7150 C   0  0  0  0  0  0  0  0  0  0  0  0
   62.5440   27.9720   51.7480 O   0  0  0  0  0  0  0  0  0  0  0  0
   60.4580   28.0930   50.5500 C   0  0  0  0  0  0  0  0  0  0  0  0
   60.6320   29.0490   49.4600 N   0  0  0  0  0  0  0  0  0  0  0  0
   59.8530   29.1700   48.3720 C   0  0  0  0  0  0  0  0  0  0  0  0
   60.3100   30.2830   47.6990 C   0  0  0  0  0  0  0  0  0  0  0  0
   59.6920   30.9170   46.4870 C   0  0  0  0  0  0  0  0  0  0  0  0
   58.1590   30.9090   46.5530 C   0  0  0  0  0  0  0  0  0  0  0  0
   57.3910   30.8670   44.8850 S   0  0  0  0  0  0  0  0  0  0  0  0
   58.4060   29.5120   44.1940 C   0  0  0  0  0  0  0  0  0  0  0  0
   58.3280   28.2890   45.0670 C   0  0  0  0  0  0  0  0  0  0  0  0
   57.0880   27.8300   45.5480 C   0  0  0  0  0  0  0  0  0  0  0  0
   57.0280   26.7010   46.3720 C   0  0  0  0  0  0  0  0  0  0  0  0
   58.1990   26.0120   46.7070 C   0  0  0  0  0  0  0  0  0  0  0  0
   59.4370   26.4620   46.2330 C   0  0  0  0  0  0  0  0  0  0  0  0
   59.5030   27.6010   45.4220 C   0  0  0  0  0  0  0  0  0  0  0  0
   61.3540   30.7960   48.3840 N   0  0  0  0  0  0  0  0  0  0  0  0
   61.5250   30.0270   49.4480 N   0  0  0  0  0  0  0  0  0  0  0  0
   62.5990   31.1490   53.7110 S   0  0  0  0  0  0  0  0  0  0  0  0
   64.5970   33.2420   51.2870 C   0  0  0  0  0  0  0  0  0  0  0  0
   63.2930   33.5150   50.9450 C   0  0  0  0  0  0  0  0  0  0  0  0
   63.2850   33.4680   49.5550 C   0  0  0  0  0  0  0  0  0  0  0  0
   62.1110   33.7150   48.7130 C   0  0  0  0  0  0  0  0  0  0  0  0
   60.7990   33.8740   49.1830 C   0  0  0  0  0  0  0  0  0  0  0  0
   60.0740   34.0580   48.0780 N   0  0  0  0  0  0  0  0  0  0  0  0
   58.7840   34.2370   47.8380 N   0  0  0  0  0  0  0  0  0  0  0  0
   58.6010   34.3450   46.4890 C   0  0  0  0  0  0  0  0  0  0  0  0
   57.3590   34.5380   45.8850 O   0  0  0  0  0  0  0  0  0  0  0  0
   57.1140   34.2070   44.5240 C   0  0  0  0  0  0  0  0  0  0  0  0
   60.0680   34.2170   45.5920 S   0  0  0  0  0  0  0  0  0  0  0  0
   60.8790   34.0140   47.0450 C   0  0  0  0  0  0  0  0  0  0  0  0
   62.1720   33.8040   47.3500 N   0  0  0  0  0  0  0  0  0  0  0  0
   64.4880   33.1870   49.0870 O   0  0  0  0  0  0  0  0  0  0  0  0
   65.2830   33.0470   50.1190 C   0  0  0  0  0  0  0  0  0  0  0  0
   66.6450   32.7610   50.1070 C   0  0  0  0  0  0  0  0  0  0  0  0
   68.7237   32.4020   53.5089 H   0  0  0  0  0  0  0  0  0  0  0  0
   69.7140   31.1349   52.7087 H   0  0  0  0  0  0  0  0  0  0  0  0
   70.2703   32.8429   52.7087 H   0  0  0  0  0  0  0  0  0  0  0  0
   67.1242   32.8015   53.5194 H   0  0  0  0  0  0  0  0  0  0  0  0
   62.8818   34.3490   54.6771 H   0  0  0  0  0  0  0  0  0  0  0  0
   62.9733   34.6585   52.9038 H   0  0  0  0  0  0  0  0  0  0  0  0
   60.5930   33.7870   52.5210 H   0  0  0  0  0  0  0  0  0  0  0  0
   55.9697   31.8418   52.7374 H   0  0  0  0  0  0  0  0  0  0  0  0
   56.8200   32.4795   51.2893 H   0  0  0  0  0  0  0  0  0  0  0  0
   56.1821   30.8003   51.2893 H   0  0  0  0  0  0  0  0  0  0  0  0
   57.9293   30.5802   54.4852 H   0  0  0  0  0  0  0  0  0  0  0  0
   57.0579   29.4359   53.4091 H   0  0  0  0  0  0  0  0  0  0  0  0
   58.8537   29.4783   53.4091 H   0  0  0  0  0  0  0  0  0  0  0  0
   60.7004   27.0841   50.1848 H   0  0  0  0  0  0  0  0  0  0  0  0
   59.4137   28.1405   50.8922 H   0  0  0  0  0  0  0  0  0  0  0  0
   59.0201   28.5144   48.0781 H   0  0  0  0  0  0  0  0  0  0  0  0
   60.0390   31.9583   46.4149 H   0  0  0  0  0  0  0  0  0  0  0  0
   59.9973   30.3341   45.6055 H   0  0  0  0  0  0  0  0  0  0  0  0
   57.8335   30.0212   47.1150 H   0  0  0  0  0  0  0  0  0  0  0  0
   57.8382   31.8372   47.0484 H   0  0  0  0  0  0  0  0  0  0  0  0
   58.0372   29.2616   43.1884 H   0  0  0  0  0  0  0  0  0  0  0  0
   59.4533   29.8448   44.1452 H   0  0  0  0  0  0  0  0  0  0  0  0
   56.1635   28.3601   45.2755 H   0  0  0  0  0  0  0  0  0  0  0  0
   56.0579   26.3541   46.7575 H   0  0  0  0  0  0  0  0  0  0  0  0
   58.1467   25.1162   47.3432 H   0  0  0  0  0  0  0  0  0  0  0  0
   60.3574   25.9208   46.4977 H   0  0  0  0  0  0  0  0  0  0  0  0
   60.4779   27.9599   45.0605 H   0  0  0  0  0  0  0  0  0  0  0  0
   62.4482   33.7232   51.6181 H   0  0  0  0  0  0  0  0  0  0  0  0
   60.4478   33.8520   50.2252 H   0  0  0  0  0  0  0  0  0  0  0  0
   56.4603   33.3238   44.4734 H   0  0  0  0  0  0  0  0  0  0  0  0
   56.6242   35.0549   44.0229 H   0  0  0  0  0  0  0  0  0  0  0  0
   58.0680   33.9862   44.0229 H   0  0  0  0  0  0  0  0  0  0  0  0
   67.1826   32.6055   49.1600 H   0  0  0  0  0  0  0  0  0  0  0  0
  1  2  1  0
  2  3  1  0
  3  4  2  0
  4  5  1  0
  5  6  1  0
  6  7  1  0
  7  8  1  0
  8  9  2  0
  9 10  1  0
 10 11  1  0
 11 12  2  0
 11 13  1  0
 13 14  1  0
 13 15  1  0
 10 16  2  0
 16 17  1  0
 17 18  1  0
 18 19  2  0
 18 20  1  0
 20 21  1  0
 21 22  1  0
 22 23  2  0
 23 24  1  0
 24 25  1  0
 25 26  1  0
 26 27  1  0
 27 28  1  0
 28 29  2  0
 29 30  1  0
 30 31  2  0
 31 32  1  0
 32 33  2  0
 23 34  1  0
 34 35  2  0
 16 36  1  0
  5 37  2  0
 37 38  1  0
 38 39  2  0
 39 40  1  0
 40 41  2  0
 41 42  1  0
 42 43  1  0
 43 44  2  0
 44 45  1  0
 45 46  1  0
 44 47  1  0
 47 48  1  0
 48 49  2  0
 39 50  1  0
 50 51  1  0
 51 52  2  0
 52  3  1  0
 36  8  1  0
 51 37  1  0
 35 21  1  0
 49 40  1  0
 33 28  1  0
 48 42  1  0
  1 53  1  0
  1 54  1  0
  1 55  1  0
  4 56  1  0
  7 57  1  0
  7 58  1  0
  9 59  1  0
 14 60  1  0
 14 61  1  0
 14 62  1  0
 15 63  1  0
 15 64  1  0
 15 65  1  0
 20 66  1  0
 20 67  1  0
 22 68  1  0
 24 69  1  0
 24 70  1  0
 25 71  1  0
 25 72  1  0
 27 73  1  0
 27 74  1  0
 29 75  1  0
 30 76  1  0
 31 77  1  0
 32 78  1  0
 33 79  1  0
 38 80  1  0
 41 81  1  0
 46 82  1  0
 46 83  1  0
 46 84  1  0
 52 85  1  0
M  CHG  2   9   1  17  -1
M  END
>  <UniqueID>  (46) 
43

>  <SMILES>  (46) 
COc1cc(OCc2[nH+]c(C(=O)N(C)C)c([N-]C(=O)Cn3cc(CCSCc4ccccc4)nn3)s2)c2cc(-c3cn4nc(OC)sc4n3)oc2c1

>  <Energy>  (46) 
275.09220998565087

>  <Genealogy>  (46) 
COc1cc(OCc2[nH+]c(C(=O)N(C)C)c([N-]C(=O)Cn3cc(CCSCc4ccccc4)nn3)s2)c2cc(-c3cn4nc(OC)sc4n3)oc2c1 (protonated)
COc1cc(OCc2[nH+]c(C(=O)N(C)C)c([N-]C(=O)Cn3cc(CCSCc4ccccc4)nn3)s2)c2cc(-c3cn4nc(OC)sc4n3)oc2c1 (3D coordinates assigned)
COc1cc(OCc2[nH+]c(C(=O)N(C)C)c([N-]C(=O)Cn3cc(CCSCc4ccccc4)nn3)s2)c2cc(-c3cn4nc(OC)sc4n3)oc2c1 (optimized conformer: 275.09220998565087 kcal/mol)

>  <smiles>  (46) 
COc1cc(OCc2nc(C(=O)N(C)C)c(NC(=O)Cn3cc(CCSCc4ccccc4)nn3)s2)c2cc(-c3cn4nc(OC)sc4n3)oc2c1

>  <score_type>  (46) 
oracle

>  <origin>  (46) 
adg

>  <m_score__min__energy>  (46) 
-10.73

>  <m_primary>  (46) 
energy

$$$$
46:0
     RDKit          3D

 51 54  0  0  0  0  0  0  0  0999 V2000
   59.2590   35.2390   44.8460 C   0  0  0  0  0  0  0  0  0  0  0  0
   60.0720   34.9960   45.9900 O   0  0  0  0  0  0  0  0  0  0  0  0
   59.7490   34.1000   47.0210 C   0  0  0  0  0  0  0  0  0  0  0  0
   58.4440   33.6080   47.1990 C   0  0  0  0  0  0  0  0  0  0  0  0
   58.1580   32.7150   48.2330 C   0  0  0  0  0  0  0  0  0  0  0  0
   59.1700   32.2860   49.1050 C   0  0  0  0  0  0  0  0  0  0  0  0
   58.8350   31.3400   50.1990 C   0  0  0  0  0  0  0  0  0  0  0  0
   59.7090   30.3040   50.5750 C   0  0  0  0  0  0  0  0  0  0  0  0
   59.3410   29.4400   51.6080 C   0  0  0  0  0  0  0  0  0  0  0  0
   60.1220   28.5110   51.9480 O   0  0  0  0  0  0  0  0  0  0  0  0
   58.1050   29.6180   52.2480 C   0  0  0  0  0  0  0  0  0  0  0  0
   57.6710   28.7840   53.2930 C   0  0  0  0  0  0  0  0  0  0  0  0
   56.4280   28.9990   53.8940 C   0  0  0  0  0  0  0  0  0  0  0  0
   55.5980   30.0500   53.4590 C   0  0  0  0  0  0  0  0  0  0  0  0
   54.3420   30.3030   54.0310 O   0  0  0  0  0  0  0  0  0  0  0  0
   53.4870   29.3000   54.5740 C   0  0  0  0  0  0  0  0  0  0  0  0
   52.7500   28.6200   53.4680 C   0  0  0  0  0  0  0  0  0  0  0  0
   53.1120   27.4700   53.1020 O   0  0  0  0  0  0  0  0  0  0  0  0
   51.5620   29.2290   52.9370 N   0  0  0  0  0  0  0  0  0  0  0  0
   51.3740   30.4620   52.5540 C   0  0  0  0  0  0  0  0  0  0  0  0
   51.9720   30.8820   51.3580 C   0  0  0  0  0  0  0  0  0  0  0  0
   51.7920   32.1940   50.9110 C   0  0  0  0  0  0  0  0  0  0  0  0
   51.0280   33.0590   51.6250 N   0  0  0  0  0  0  0  0  0  0  0  0
   50.4180   32.6820   52.7800 C   0  0  0  0  0  0  0  0  0  0  0  0
   50.5710   31.3800   53.2660 C   0  0  0  0  0  0  0  0  0  0  0  0
   56.0320   30.8800   52.4180 C   0  0  0  0  0  0  0  0  0  0  0  0
   57.2740   30.6730   51.8120 C   0  0  0  0  0  0  0  0  0  0  0  0
   57.6650   31.4720   50.8250 O   0  0  0  0  0  0  0  0  0  0  0  0
   60.4730   32.7890   48.9370 C   0  0  0  0  0  0  0  0  0  0  0  0
   60.7670   33.6920   47.8940 C   0  0  0  0  0  0  0  0  0  0  0  0
   62.0580   34.2080   47.6980 O   0  0  0  0  0  0  0  0  0  0  0  0
   63.0540   33.6080   46.8760 C   0  0  0  0  0  0  0  0  0  0  0  0
   58.2516   35.5401   45.1693 H   0  0  0  0  0  0  0  0  0  0  0  0
   59.7060   36.0428   44.2426 H   0  0  0  0  0  0  0  0  0  0  0  0
   59.1915   34.3218   44.2426 H   0  0  0  0  0  0  0  0  0  0  0  0
   57.6421   33.9293   46.5181 H   0  0  0  0  0  0  0  0  0  0  0  0
   57.1307   32.3446   48.3653 H   0  0  0  0  0  0  0  0  0  0  0  0
   60.6727   30.1759   50.0603 H   0  0  0  0  0  0  0  0  0  0  0  0
   58.3119   27.9595   53.6387 H   0  0  0  0  0  0  0  0  0  0  0  0
   56.0958   28.3431   54.7121 H   0  0  0  0  0  0  0  0  0  0  0  0
   54.0907   28.5607   55.1208 H   0  0  0  0  0  0  0  0  0  0  0  0
   52.7661   29.7666   55.2615 H   0  0  0  0  0  0  0  0  0  0  0  0
   52.5825   30.1796   50.7716 H   0  0  0  0  0  0  0  0  0  0  0  0
   52.2708   32.5263   49.9781 H   0  0  0  0  0  0  0  0  0  0  0  0
   49.8013   33.4045   53.3346 H   0  0  0  0  0  0  0  0  0  0  0  0
   50.0698   31.0730   54.1958 H   0  0  0  0  0  0  0  0  0  0  0  0
   55.3887   31.7033   52.0738 H   0  0  0  0  0  0  0  0  0  0  0  0
   61.2708   32.4749   49.6261 H   0  0  0  0  0  0  0  0  0  0  0  0
   63.8233   33.1446   47.5112 H   0  0  0  0  0  0  0  0  0  0  0  0
   62.5906   32.8386   46.2409 H   0  0  0  0  0  0  0  0  0  0  0  0
   63.5175   34.3773   46.2409 H   0  0  0  0  0  0  0  0  0  0  0  0
  1  2  1  0
  2  3  1  0
  3  4  2  0
  4  5  1  0
  5  6  2  0
  6  7  1  0
  7  8  2  0
  8  9  1  0
  9 10  2  0
  9 11  1  0
 11 12  2  0
 12 13  1  0
 13 14  2  0
 14 15  1  0
 15 16  1  0
 16 17  1  0
 17 18  2  0
 17 19  1  0
 19 20  2  3
 20 21  1  0
 21 22  2  0
 22 23  1  0
 23 24  1  0
 24 25  2  0
 14 26  1  0
 26 27  2  0
 27 28  1  0
  6 29  1  0
 29 30  2  0
 30 31  1  0
 31 32  1  0
 30  3  1  0
 28  7  1  0
 27 11  1  0
 25 20  1  0
  1 33  1  0
  1 34  1  0
  1 35  1  0
  4 36  1  0
  5 37  1  0
  8 38  1  0
 12 39  1  0
 13 40  1  0
 16 41  1  0
 16 42  1  0
 21 43  1  0
 22 44  1  0
 24 45  1  0
 25 46  1  0
 26 47  1  0
 29 48  1  0
 32 49  1  0
 32 50  1  0
 32 51  1  0
M  CHG  1  23  -1
M  END
>  <UniqueID>  (47) 
44

>  <SMILES>  (47) 
COc1ccc(-c2cc(=O)c3ccc(OCC(=O)N=c4cc[n-]cc4)cc3o2)cc1OC

>  <Energy>  (47) 
70.36244433048482

>  <Genealogy>  (47) 
COc1ccc(-c2cc(=O)c3ccc(OCC(=O)N=c4cc[n-]cc4)cc3o2)cc1OC (protonated)
COc1ccc(-c2cc(=O)c3ccc(OCC(=O)N=c4cc[n-]cc4)cc3o2)cc1OC (3D coordinates assigned)
COc1ccc(-c2cc(=O)c3ccc(OCC(=O)N=c4cc[n-]cc4)cc3o2)cc1OC (optimized conformer: 70.36244433048482 kcal/mol)

>  <smiles>  (47) 
COc1ccc(-c2cc(=O)c3ccc(OCC(=O)N=c4cc[nH]cc4)cc3o2)cc1OC

>  <score_type>  (47) 
oracle

>  <origin>  (47) 
adg

>  <m_score__min__energy>  (47) 
-11.07

>  <m_primary>  (47) 
energy

$$$$
47:0
     RDKit          3D

 62 66  0  0  0  0  0  0  0  0999 V2000
   61.5270   34.2270   54.6400 C   0  0  0  0  0  0  0  0  0  0  0  0
   60.3090   33.5420   54.1590 N   0  0  1  0  0  0  0  0  0  0  0  0
   59.2420   34.4930   53.9010 C   0  0  0  0  0  0  0  0  0  0  0  0
   58.8760   35.2500   54.7910 O   0  0  0  0  0  0  0  0  0  0  0  0
   58.5560   34.5640   52.5590 C   0  0  0  0  0  0  0  0  0  0  0  0
   58.2340   33.1700   51.9830 C   0  0  0  0  0  0  0  0  0  0  0  0
   59.2030   32.0280   52.4460 C   0  0  1  0  0  0  0  0  0  0  0  0
   58.5040   31.2490   53.6050 C   0  0  0  0  0  0  0  0  0  0  0  0
   59.5410   31.0030   51.2890 C   0  0  1  0  0  0  0  0  0  0  0  0
   58.3140   30.3990   50.5670 C   0  0  0  0  0  0  0  0  0  0  0  0
   58.7660   29.2820   49.6230 C   0  0  0  0  0  0  0  0  0  0  0  0
   59.6950   29.7770   48.4730 C   0  0  1  0  0  0  0  0  0  0  0  0
   60.7920   28.7310   48.1700 C   0  0  0  0  0  0  0  0  0  0  0  0
   58.8730   30.0740   47.2360 C   0  0  0  0  0  0  0  0  0  0  0  0
   58.2110   29.0690   46.3630 C   0  0  0  0  0  0  0  0  0  0  0  0
   58.2700   28.9770   44.9800 C   0  0  0  0  0  0  0  0  0  0  0  0
   57.5400   27.9300   44.5550 N   0  0  0  0  0  0  0  0  0  0  0  0
   57.0110   27.3480   45.6470 C   0  0  0  0  0  0  0  0  0  0  0  0
   56.1400   26.1640   45.6110 C   0  0  0  0  0  0  0  0  0  0  0  0
   54.7690   26.2720   45.9860 N   0  0  0  0  0  0  0  0  0  0  0  0
   56.6010   25.0490   45.2480 O   0  0  0  0  0  0  0  0  0  0  0  0
   57.4040   28.0230   46.7870 C   0  0  0  0  0  0  0  0  0  0  0  0
   58.7780   31.3780   47.0150 C   0  0  0  0  0  0  0  0  0  0  0  0
   59.4930   32.1890   48.0220 C   0  0  0  0  0  0  0  0  0  0  0  0
   60.3590   31.1600   48.7700 C   0  0  1  0  0  0  0  0  0  0  0  0
   60.6440   31.4750   50.2760 C   0  0  1  0  0  0  0  0  0  0  0  0
   61.0670   32.9420   50.4570 C   0  0  0  0  0  0  0  0  0  0  0  0
   61.4500   33.2820   51.8960 C   0  0  0  0  0  0  0  0  0  0  0  0
   60.5530   32.6290   52.9990 C   0  0  1  0  0  0  0  0  0  0  0  0
   61.5350   34.2315   55.7400 H   0  0  0  0  0  0  0  0  0  0  0  0
   62.4166   33.6968   54.2690 H   0  0  0  0  0  0  0  0  0  0  0  0
   61.5360   35.2625   54.2690 H   0  0  0  0  0  0  0  0  0  0  0  0
   60.0030   32.9510   54.9670 H   0  0  0  0  0  0  0  0  0  0  0  0
   57.6160   35.1238   52.6730 H   0  0  0  0  0  0  0  0  0  0  0  0
   59.2430   35.0629   51.8596 H   0  0  0  0  0  0  0  0  0  0  0  0
   57.2136   32.8993   52.2920 H   0  0  0  0  0  0  0  0  0  0  0  0
   58.3497   33.2512   50.8921 H   0  0  0  0  0  0  0  0  0  0  0  0
   58.8539   31.6390   54.5722 H   0  0  0  0  0  0  0  0  0  0  0  0
   57.4144   31.3795   53.5296 H   0  0  0  0  0  0  0  0  0  0  0  0
   58.7513   30.1798   53.5296 H   0  0  0  0  0  0  0  0  0  0  0  0
   59.9932   30.1748   51.8543 H   0  0  0  0  0  0  0  0  0  0  0  0
   57.6175   29.9876   51.3125 H   0  0  0  0  0  0  0  0  0  0  0  0
   57.8116   31.1855   49.9848 H   0  0  0  0  0  0  0  0  0  0  0  0
   59.3109   28.5287   50.2108 H   0  0  0  0  0  0  0  0  0  0  0  0
   57.8609   28.8699   49.1529 H   0  0  0  0  0  0  0  0  0  0  0  0
   61.1993   28.3426   49.1151 H   0  0  0  0  0  0  0  0  0  0  0  0
   60.3589   27.9030   47.5896 H   0  0  0  0  0  0  0  0  0  0  0  0
   61.5985   29.2030   47.5896 H   0  0  0  0  0  0  0  0  0  0  0  0
   58.8317   29.6605   44.3263 H   0  0  0  0  0  0  0  0  0  0  0  0
   57.4170   27.6310   43.5630 H   0  0  0  0  0  0  0  0  0  0  0  0
   54.0190   26.3340   45.2630 H   0  0  0  0  0  0  0  0  0  0  0  0
   57.1312   27.7794   47.8244 H   0  0  0  0  0  0  0  0  0  0  0  0
   58.2240   31.8113   46.1692 H   0  0  0  0  0  0  0  0  0  0  0  0
   60.1204   32.9519   47.5378 H   0  0  0  0  0  0  0  0  0  0  0  0
   58.8122   32.7386   48.6887 H   0  0  0  0  0  0  0  0  0  0  0  0
   61.3953   31.1794   48.4016 H   0  0  0  0  0  0  0  0  0  0  0  0
   61.4983   30.8410   50.5558 H   0  0  0  0  0  0  0  0  0  0  0  0
   61.9332   33.1392   49.8083 H   0  0  0  0  0  0  0  0  0  0  0  0
   60.2024   33.5679   50.1911 H   0  0  0  0  0  0  0  0  0  0  0  0
   62.4857   32.9496   52.0595 H   0  0  0  0  0  0  0  0  0  0  0  0
   61.3145   34.3688   51.9980 H   0  0  0  0  0  0  0  0  0  0  0  0
   61.1406   31.7758   53.3687 H   0  0  0  0  0  0  0  0  0  0  0  0
  1  2  1  0
  2  3  1  0
  3  4  2  0
  3  5  1  0
  5  6  1  0
  6  7  1  0
  7  8  1  1
  7  9  1  0
  9 10  1  0
 10 11  1  0
 11 12  1  0
 12 13  1  6
 12 14  1  0
 14 15  1  0
 15 16  2  0
 16 17  1  0
 17 18  1  0
 18 19  1  0
 19 20  1  0
 19 21  2  0
 18 22  2  0
 14 23  2  0
 23 24  1  0
 24 25  1  0
 25 26  1  0
 26 27  1  0
 27 28  1  0
 28 29  1  0
 29  2  1  0
 29  7  1  0
 26  9  1  0
 25 12  1  0
 22 15  1  0
  1 30  1  0
  1 31  1  0
  1 32  1  0
  2 33  1  1
  5 34  1  0
  5 35  1  0
  6 36  1  0
  6 37  1  0
  8 38  1  0
  8 39  1  0
  8 40  1  0
  9 41  1  1
 10 42  1  0
 10 43  1  0
 11 44  1  0
 11 45  1  0
 13 46  1  0
 13 47  1  0
 13 48  1  0
 16 49  1  0
 17 50  1  0
 20 51  1  0
 22 52  1  0
 23 53  1  0
 24 54  1  0
 24 55  1  0
 25 56  1  6
 26 57  1  1
 27 58  1  0
 27 59  1  0
 28 60  1  0
 28 61  1  0
 29 62  1  1
M  CHG  2   2   1  20  -1
M  END
>  <UniqueID>  (48) 
45

>  <SMILES>  (48) 
C[N@H+]1C(=O)CC[C@@]2(C)C3CCC4(C)C(c5c[nH]c(C([NH-])=O)c5)=CCC4C3CCC12

>  <Energy>  (48) 
131.6628148284995

>  <Genealogy>  (48) 
C[NH+]1C(=O)CCC2(C)C3CCC4(C)C(c5c[nH]c(C([NH-])=O)c5)=CCC4C3CCC12 (protonated)
C[N@H+]1C(=O)CC[C@@]2(C)C3CCC4(C)C(c5c[nH]c(C([NH-])=O)c5)=CCC4C3CCC12 (chirality)
C[N@H+]1C(=O)CC[C@@]2(C)C3CCC4(C)C(c5c[nH]c(C([NH-])=O)c5)=CCC4C3CCC12 (3D coordinates assigned)
C[N@H+]1C(=O)CC[C@@]2(C)C3CCC4(C)C(c5c[nH]c(C([NH-])=O)c5)=CCC4C3CCC12 (nonaromatic ring conformer: 131.6628148284995 kcal/mol)

>  <smiles>  (48) 
CN1C(=O)CCC2(C)C3CCC4(C)C(c5c[nH]c(C(N)=O)c5)=CCC4C3CCC12

>  <score_type>  (48) 
oracle

>  <origin>  (48) 
adg

>  <m_score__min__energy>  (48) 
-10.9

>  <m_primary>  (48) 
energy

$$$$
48:0
     RDKit          3D

 30 32  0  0  0  0  0  0  0  0999 V2000
   56.3750   32.0010   45.6190 H   0  0  0  0  0  0  0  0  0  0  0  0
   56.6520   32.9450   45.3730 O   0  0  0  0  0  0  0  0  0  0  0  0
   57.8960   33.4590   45.7350 C   0  0  0  0  0  0  0  0  0  0  0  0
   58.3130   34.7050   45.2420 C   0  0  0  0  0  0  0  0  0  0  0  0
   57.6402   35.2944   44.6017 H   0  0  0  0  0  0  0  0  0  0  0  0
   59.5800   35.1990   45.5620 C   0  0  0  0  0  0  0  0  0  0  0  0
   59.9002   36.1791   45.1788 H   0  0  0  0  0  0  0  0  0  0  0  0
   60.4400   34.4510   46.3670 C   0  0  0  0  0  0  0  0  0  0  0  0
   61.4413   34.8370   46.6085 H   0  0  0  0  0  0  0  0  0  0  0  0
   60.0300   33.2110   46.8670 C   0  0  0  0  0  0  0  0  0  0  0  0
   60.7161   32.6181   47.4897 H   0  0  0  0  0  0  0  0  0  0  0  0
   58.7500   32.7200   46.5790 C   0  0  0  0  0  0  0  0  0  0  0  0
   58.3670   31.4360   47.0900 N   0  0  0  0  0  0  0  0  0  0  0  0
   57.7280   28.2150   45.2830 C   0  0  0  0  0  0  0  0  0  0  0  0
   57.3510   30.5200   45.2180 N   0  0  0  0  0  0  0  0  0  0  0  0
   57.1750   29.3220   44.5920 C   0  0  0  0  0  0  0  0  0  0  0  0
   56.6380   29.2960   43.3690 C   0  0  0  0  0  0  0  0  0  0  0  0
   56.4908   28.3356   42.8533 H   0  0  0  0  0  0  0  0  0  0  0  0
   56.3431   30.2350   42.8777 H   0  0  0  0  0  0  0  0  0  0  0  0
   58.0530   30.4050   46.3640 C   0  0  0  0  0  0  0  0  0  0  0  0
   57.6800   26.8970   45.0180 C   0  0  0  0  0  0  0  0  0  0  0  0
   58.1045   26.5631   44.0597 H   0  0  0  0  0  0  0  0  0  0  0  0
   57.1100   25.8610   45.8960 C   0  0  0  0  0  0  0  0  0  0  0  0
   57.7630   24.7560   46.3030 N   0  0  0  0  0  0  0  0  0  0  0  0
   56.8090   24.0540   46.9530 C   0  0  0  0  0  0  0  0  0  0  0  0
   57.0400   22.9450   47.5020 O   0  0  0  0  0  0  0  0  0  0  0  0
   55.5870   24.6290   46.9600 N   0  0  0  0  0  0  0  0  0  0  0  0
   55.7940   25.7630   46.2740 C   0  0  0  0  0  0  0  0  0  0  0  0
   54.7960   26.6900   45.9920 O   0  0  0  0  0  0  0  0  0  0  0  0
   58.5140   28.8130   46.6500 S   0  0  0  0  0  0  0  0  0  0  0  0
  1  2  1  0
  2  3  1  0
  3  4  2  0
  4  5  1  0
  4  6  1  0
  6  7  1  0
  6  8  2  0
  8  9  1  0
  8 10  1  0
 10 11  1  0
 10 12  2  0
 12 13  1  0
 13 14  2  0
 14 15  1  0
 15 16  1  0
 16 17  2  0
 17 18  1  0
 17 19  1  0
 16 20  1  0
 20 21  2  0
 21 22  1  0
 21 23  1  0
 23 24  1  0
 24 25  1  0
 25 26  2  0
 25 27  1  0
 27 28  1  0
 28 29  1  0
 20 30  1  0
 12  3  1  0
 30 14  1  0
 28 23  2  0
M  CHG  4  15  -1  24  -1  27  -1  29  -1
M  END
>  <UniqueID>  (49) 
46

>  <SMILES>  (49) 
C=c1[n-]/c(=N/c2ccccc2O)s/c1=C/c1[n-]c(=O)[n-]c1[O-]

>  <Energy>  (49) 
112.81058741143879

>  <Genealogy>  (49) 
C=c1[n-]c(=Nc2ccccc2O)sc1=Cc1[n-]c(=O)[n-]c1[O-] (protonated)
C=c1[n-]/c(=N/c2ccccc2O)s/c1=C/c1[n-]c(=O)[n-]c1[O-] (cis-trans isomerization)
C=c1[n-]/c(=N/c2ccccc2O)s/c1=C/c1[n-]c(=O)[n-]c1[O-] (3D coordinates assigned)
C=c1[n-]/c(=N/c2ccccc2O)s/c1=C/c1[n-]c(=O)[n-]c1[O-] (optimized conformer: 112.81058741143879 kcal/mol)

>  <smiles>  (49) 
C=c1[nH]c(=Nc2ccccc2O)sc1=Cc1[nH]c(=O)[nH]c1O

>  <score_type>  (49) 
oracle

>  <origin>  (49) 
adg

>  <m_score__min__energy>  (49) 
-16.579999999999998

>  <m_primary>  (49) 
energy

$$$$
49:0
     RDKit          3D

 55 57  0  0  0  0  0  0  0  0999 V2000
   59.5717   34.4102   47.0953 H   0  0  0  0  0  0  0  0  0  0  0  0
   59.0110   33.5830   47.5550 C   0  0  0  0  0  0  0  0  0  0  0  0
   57.9670   32.9330   46.7390 C   0  0  0  0  0  0  0  0  0  0  0  0
   57.1450   33.6530   46.1090 O   0  0  0  0  0  0  0  0  0  0  0  0
   57.8150   31.5120   46.7170 N   0  0  0  0  0  0  0  0  0  0  0  0
   58.3820   30.8990   47.3470 H   0  0  0  0  0  0  0  0  0  0  0  0
   57.1150   31.0660   46.0800 H   0  0  0  0  0  0  0  0  0  0  0  0
   59.3300   33.2440   48.8140 C   0  0  0  0  0  0  0  0  0  0  0  0
   59.9546   33.9462   49.3857 H   0  0  0  0  0  0  0  0  0  0  0  0
   58.9070   32.0000   49.4920 C   0  0  0  0  0  0  0  0  0  0  0  0
   59.4950   30.8110   49.1870 N   0  0  0  0  0  0  0  0  0  0  0  0
   59.1430   29.6650   49.8220 C   0  0  0  0  0  0  0  0  0  0  0  0
   59.7290   28.5530   49.4990 N   0  0  0  0  0  0  0  0  0  0  0  0
   60.1110   28.1970   48.1350 C   0  0  0  0  0  0  0  0  0  0  0  0
   60.4117   29.1036   47.5895 H   0  0  0  0  0  0  0  0  0  0  0  0
   60.9535   27.4902   48.1616 H   0  0  0  0  0  0  0  0  0  0  0  0
   58.9420   27.5590   47.4410 C   0  0  0  0  0  0  0  0  0  0  0  0
   58.7610   26.1690   47.4970 C   0  0  0  0  0  0  0  0  0  0  0  0
   59.4593   25.5477   48.0769 H   0  0  0  0  0  0  0  0  0  0  0  0
   57.6960   25.5720   46.8180 C   0  0  0  0  0  0  0  0  0  0  0  0
   57.5520   24.4829   46.8741 H   0  0  0  0  0  0  0  0  0  0  0  0
   56.8120   26.3540   46.0670 C   0  0  0  0  0  0  0  0  0  0  0  0
   55.9735   25.8787   45.5369 H   0  0  0  0  0  0  0  0  0  0  0  0
   56.9930   27.7480   45.9880 C   0  0  0  0  0  0  0  0  0  0  0  0
   56.1180   28.5930   45.2270 N   0  0  0  0  0  0  0  0  0  0  0  0
   56.6090   29.9160   44.2170 S   0  0  0  0  0  0  0  0  0  0  0  0
   55.8860   31.1710   44.6230 O   0  0  0  0  0  0  0  0  0  0  0  0
   58.0840   30.1330   44.3920 O   0  0  0  0  0  0  0  0  0  0  0  0
   56.2860   29.5400   42.5060 C   0  0  0  0  0  0  0  0  0  0  0  0
   55.5704   28.7070   42.4424 H   0  0  0  0  0  0  0  0  0  0  0  0
   55.8628   30.4257   42.0095 H   0  0  0  0  0  0  0  0  0  0  0  0
   57.2253   29.2552   42.0095 H   0  0  0  0  0  0  0  0  0  0  0  0
   58.0620   28.3410   46.6740 C   0  0  0  0  0  0  0  0  0  0  0  0
   58.2133   29.4287   46.6113 H   0  0  0  0  0  0  0  0  0  0  0  0
   58.1870   29.6990   50.7920 N   0  0  0  0  0  0  0  0  0  0  0  0
   57.5780   30.8610   51.1500 C   0  0  0  0  0  0  0  0  0  0  0  0
   56.5450   30.8420   52.2010 C   0  0  0  0  0  0  0  0  0  0  0  0
   56.6600   31.5730   53.2230 O   0  0  0  0  0  0  0  0  0  0  0  0
   55.4440   29.9300   52.0930 N   0  0  0  0  0  0  0  0  0  0  0  0
   54.1630   30.1870   52.1140 C   0  0  0  0  0  0  0  0  0  0  0  0
   53.7090   31.1760   51.2950 N   0  0  0  0  0  0  0  0  0  0  0  0
   52.3990   31.5250   51.2180 C   0  0  0  0  0  0  0  0  0  0  0  0
   52.0836   32.3303   50.5383 H   0  0  0  0  0  0  0  0  0  0  0  0
   51.4550   30.8640   51.9990 C   0  0  0  0  0  0  0  0  0  0  0  0
   50.3896   31.1274   51.9248 H   0  0  0  0  0  0  0  0  0  0  0  0
   51.8740   29.8650   52.8760 C   0  0  0  0  0  0  0  0  0  0  0  0
   51.1349   29.3392   53.4982 H   0  0  0  0  0  0  0  0  0  0  0  0
   53.2380   29.5240   52.9710 C   0  0  0  0  0  0  0  0  0  0  0  0
   53.6850   28.5880   53.9190 O   0  0  0  0  0  0  0  0  0  0  0  0
   54.3900   27.3900   53.6140 C   0  0  0  0  0  0  0  0  0  0  0  0
   54.6844   26.8898   54.5484 H   0  0  0  0  0  0  0  0  0  0  0  0
   53.7412   26.7216   53.0289 H   0  0  0  0  0  0  0  0  0  0  0  0
   55.2893   27.6326   53.0289 H   0  0  0  0  0  0  0  0  0  0  0  0
   57.9420   32.0510   50.5040 C   0  0  0  0  0  0  0  0  0  0  0  0
   57.4776   33.0070   50.7875 H   0  0  0  0  0  0  0  0  0  0  0  0
  1  2  1  0
  2  3  1  0
  3  4  2  0
  3  5  1  0
  5  6  1  0
  5  7  1  0
  2  8  2  0
  8  9  1  0
  8 10  1  0
 10 11  1  0
 11 12  1  0
 12 13  2  3
 13 14  1  0
 14 15  1  0
 14 16  1  0
 14 17  1  0
 17 18  2  0
 18 19  1  0
 18 20  1  0
 20 21  1  0
 20 22  2  0
 22 23  1  0
 22 24  1  0
 24 25  1  0
 25 26  1  0
 26 27  2  0
 26 28  2  0
 26 29  1  0
 29 30  1  0
 29 31  1  0
 29 32  1  0
 24 33  2  0
 33 34  1  0
 12 35  1  0
 35 36  2  0
 36 37  1  0
 37 38  2  0
 37 39  1  0
 39 40  2  3
 40 41  1  0
 41 42  1  0
 42 43  1  0
 42 44  2  0
 44 45  1  0
 44 46  1  0
 46 47  1  0
 46 48  2  0
 48 49  1  0
 49 50  1  0
 50 51  1  0
 50 52  1  0
 50 53  1  0
 36 54  1  0
 54 55  1  0
 54 10  2  0
 33 17  1  0
 48 40  1  0
M  CHG  3  11  -1  25  -1  41  -1
M  END
>  <UniqueID>  (50) 
47

>  <SMILES>  (50) 
COc1ccc[n-]c1=NC(=O)c1cc(/C=C\C(N)=O)[n-]c(=NCc2cccc([N-]S(C)(=O)=O)c2)n1

>  <Energy>  (50) 
72.93872487557763

>  <Genealogy>  (50) 
COc1ccc[n-]c1=NC(=O)c1cc(C=CC(N)=O)[n-]c(=NCc2cccc([N-]S(C)(=O)=O)c2)n1 (protonated)
COc1ccc[n-]c1=NC(=O)c1cc(/C=C\C(N)=O)[n-]c(=NCc2cccc([N-]S(C)(=O)=O)c2)n1 (cis-trans isomerization)
COc1ccc[n-]c1=NC(=O)c1cc(/C=C\C(N)=O)[n-]c(=NCc2cccc([N-]S(C)(=O)=O)c2)n1 (3D coordinates assigned)
COc1ccc[n-]c1=NC(=O)c1cc(/C=C\C(N)=O)[n-]c(=NCc2cccc([N-]S(C)(=O)=O)c2)n1 (optimized conformer: 72.93872487557763 kcal/mol)

>  <smiles>  (50) 
COc1ccc[nH]c1=NC(=O)c1cc(C=CC(N)=O)[nH]c(=NCc2cccc(NS(C)(=O)=O)c2)n1

>  <score_type>  (50) 
oracle

>  <origin>  (50) 
adg

>  <m_score__min__energy>  (50) 
-13.369999999999999

>  <m_primary>  (50) 
energy

$$$$
50:0
     RDKit          3D

 49 52  0  0  0  0  0  0  0  0999 V2000
   59.2340   27.1650   47.1420 C   0  0  0  0  0  0  0  0  0  0  0  0
   58.6910   27.7610   46.0670 C   0  0  0  0  0  0  0  0  0  0  0  0
   58.0460   27.1460   44.9790 C   0  0  0  0  0  0  0  0  0  0  0  0
   57.7030   25.8610   44.7590 C   0  0  0  0  0  0  0  0  0  0  0  0
   57.1880   24.9240   45.7750 C   0  0  0  0  0  0  0  0  0  0  0  0
   55.9390   25.1270   46.3870 C   0  0  0  0  0  0  0  0  0  0  0  0
   55.1740   26.2490   46.0730 O   0  0  0  0  0  0  0  0  0  0  0  0
   55.4730   24.2250   47.2890 N   0  0  0  0  0  0  0  0  0  0  0  0
   56.1870   23.1130   47.6010 C   0  0  0  0  0  0  0  0  0  0  0  0
   55.6000   22.0480   48.6900 S   0  0  0  0  0  0  0  0  0  0  0  0
   57.3820   22.8810   47.0010 N   0  0  0  0  0  0  0  0  0  0  0  0
   57.8920   23.7520   46.0940 C   0  0  0  0  0  0  0  0  0  0  0  0
   59.0020   23.5030   45.5510 O   0  0  0  0  0  0  0  0  0  0  0  0
   57.7580   28.1580   44.0770 C   0  0  0  0  0  0  0  0  0  0  0  0
   58.1930   29.3370   44.6440 C   0  0  0  0  0  0  0  0  0  0  0  0
   58.0500   30.6920   44.0180 C   0  0  0  0  0  0  0  0  0  0  0  0
   58.7490   29.1010   45.8520 N   0  0  0  0  0  0  0  0  0  0  0  0
   59.3380   30.0950   46.7060 C   0  0  0  0  0  0  0  0  0  0  0  0
   58.7530   30.3980   47.9440 C   0  0  0  0  0  0  0  0  0  0  0  0
   59.3090   31.3850   48.7610 C   0  0  0  0  0  0  0  0  0  0  0  0
   60.4590   32.0790   48.3510 C   0  0  0  0  0  0  0  0  0  0  0  0
   61.0030   33.2070   49.1830 C   0  0  0  0  0  0  0  0  0  0  0  0
   59.8040   34.5840   49.2930 S   0  0  0  0  0  0  0  0  0  0  0  0
   59.1900   34.4020   47.6170 C   0  0  0  0  0  0  0  0  0  0  0  0
   59.9100   34.9330   46.5400 C   0  0  0  0  0  0  0  0  0  0  0  0
   59.4280   34.7560   45.2430 C   0  0  0  0  0  0  0  0  0  0  0  0
   58.2330   34.0650   45.0350 C   0  0  0  0  0  0  0  0  0  0  0  0
   57.5350   33.5600   46.1360 C   0  0  0  0  0  0  0  0  0  0  0  0
   58.0240   33.7370   47.3920 N   0  0  0  0  0  0  0  0  0  0  0  0
   61.0550   31.7580   47.1220 C   0  0  0  0  0  0  0  0  0  0  0  0
   60.4990   30.7700   46.3050 C   0  0  0  0  0  0  0  0  0  0  0  0
   59.7112   27.7724   47.9252 H   0  0  0  0  0  0  0  0  0  0  0  0
   59.2013   26.0698   47.2388 H   0  0  0  0  0  0  0  0  0  0  0  0
   57.8170   25.4785   43.7340 H   0  0  0  0  0  0  0  0  0  0  0  0
   54.2130   26.3260   46.3830 H   0  0  0  0  0  0  0  0  0  0  0  0
   57.2745   28.0426   43.0957 H   0  0  0  0  0  0  0  0  0  0  0  0
   57.9696   31.4539   44.8073 H   0  0  0  0  0  0  0  0  0  0  0  0
   58.9309   30.9023   43.3937 H   0  0  0  0  0  0  0  0  0  0  0  0
   57.1446   30.7138   43.3937 H   0  0  0  0  0  0  0  0  0  0  0  0
   57.8535   29.8567   48.2726 H   0  0  0  0  0  0  0  0  0  0  0  0
   58.8441   31.6198   49.7299 H   0  0  0  0  0  0  0  0  0  0  0  0
   61.2167   32.8353   50.1960 H   0  0  0  0  0  0  0  0  0  0  0  0
   61.9209   33.5810   48.7060 H   0  0  0  0  0  0  0  0  0  0  0  0
   60.8459   35.4839   46.7148 H   0  0  0  0  0  0  0  0  0  0  0  0
   59.9879   35.1598   44.3866 H   0  0  0  0  0  0  0  0  0  0  0  0
   57.8449   33.9195   44.0161 H   0  0  0  0  0  0  0  0  0  0  0  0
   56.5891   33.0189   45.9858 H   0  0  0  0  0  0  0  0  0  0  0  0
   61.9643   32.2866   46.8000 H   0  0  0  0  0  0  0  0  0  0  0  0
   60.9739   30.5213   45.3444 H   0  0  0  0  0  0  0  0  0  0  0  0
  1  2  2  0
  2  3  1  0
  3  4  2  3
  4  5  1  0
  5  6  2  0
  6  7  1  0
  6  8  1  0
  8  9  1  0
  9 10  2  0
  9 11  1  0
 11 12  1  0
 12 13  2  0
  3 14  1  0
 14 15  2  0
 15 16  1  0
 15 17  1  0
 17 18  1  0
 18 19  2  0
 19 20  1  0
 20 21  2  0
 21 22  1  0
 22 23  1  0
 23 24  1  0
 24 25  2  0
 25 26  1  0
 26 27  2  0
 27 28  1  0
 28 29  2  0
 21 30  1  0
 30 31  2  0
 17  2  1  0
 31 18  1  0
 12  5  1  0
 29 24  1  0
  1 32  1  0
  1 33  1  0
  4 34  1  0
  7 35  1  0
 14 36  1  0
 16 37  1  0
 16 38  1  0
 16 39  1  0
 19 40  1  0
 20 41  1  0
 22 42  1  0
 22 43  1  0
 25 44  1  0
 26 45  1  0
 27 46  1  0
 28 47  1  0
 30 48  1  0
 31 49  1  0
M  CHG  2   8  -1  11  -1
M  END
>  <UniqueID>  (51) 
48

>  <SMILES>  (51) 
C=c1c(=Cc2c(O)[n-]c(=S)[n-]c2=O)cc(C)n1-c1ccc(CSc2ccccn2)cc1

>  <Energy>  (51) 
96.71016169506143

>  <Genealogy>  (51) 
C=c1c(=Cc2c(O)[n-]c(=S)[n-]c2=O)cc(C)n1-c1ccc(CSc2ccccn2)cc1 (protonated)
C=c1c(=Cc2c(O)[n-]c(=S)[n-]c2=O)cc(C)n1-c1ccc(CSc2ccccn2)cc1 (3D coordinates assigned)
C=c1c(=Cc2c(O)[n-]c(=S)[n-]c2=O)cc(C)n1-c1ccc(CSc2ccccn2)cc1 (optimized conformer: 96.71016169506143 kcal/mol)

>  <smiles>  (51) 
C=c1c(=Cc2c(O)[nH]c(=S)[nH]c2=O)cc(C)n1-c1ccc(CSc2ccccn2)cc1

>  <score_type>  (51) 
oracle

>  <origin>  (51) 
adg

>  <m_score__min__energy>  (51) 
-13.52

>  <m_primary>  (51) 
energy

$$$$
51:0
     RDKit          3D

 50 52  0  0  0  0  0  0  0  0999 V2000
   63.3920   33.8810   46.4990 C   0  0  0  0  0  0  0  0  0  0  0  0
   63.0980   34.1080   47.9850 C   0  0  0  0  0  0  0  0  0  0  0  0
   64.0070   33.2440   48.8620 C   0  0  0  0  0  0  0  0  0  0  0  0
   61.6920   33.8150   48.2690 N   0  0  0  0  0  0  0  0  0  0  0  0
   60.9170   32.9440   47.5960 C   0  0  0  0  0  0  0  0  0  0  0  0
   59.6710   32.9440   48.1850 C   0  0  0  0  0  0  0  0  0  0  0  0
   58.4940   32.0950   47.8190 C   0  0  0  0  0  0  0  0  0  0  0  0
   58.9550   30.8020   47.2690 N   0  0  0  0  0  0  0  0  0  0  0  0
   59.8680   30.0460   48.1510 C   0  0  0  0  0  0  0  0  0  0  0  0
   59.8710   28.5220   47.9280 C   0  0  0  0  0  0  0  0  0  0  0  0
   58.6550   28.0130   47.1390 C   0  0  0  0  0  0  0  0  0  0  0  0
   58.5910   28.5020   45.7500 N   0  0  0  0  0  0  0  0  0  0  0  0
   57.6290   27.9140   44.8480 C   0  0  0  0  0  0  0  0  0  0  0  0
   56.6630   28.6070   44.4250 O   0  0  0  0  0  0  0  0  0  0  0  0
   57.7230   26.4780   44.4120 C   0  0  0  0  0  0  0  0  0  0  0  0
   57.1940   25.5790   45.4870 C   0  0  0  0  0  0  0  0  0  0  0  0
   57.8180   24.4620   45.9030 N   0  0  0  0  0  0  0  0  0  0  0  0
   56.9710   23.9560   46.8250 C   0  0  0  0  0  0  0  0  0  0  0  0
   57.2120   22.8950   47.4560 O   0  0  0  0  0  0  0  0  0  0  0  0
   55.8440   24.6750   47.0140 N   0  0  0  0  0  0  0  0  0  0  0  0
   55.9950   25.6970   46.1570 C   0  0  0  0  0  0  0  0  0  0  0  0
   55.0500   26.7060   45.9950 O   0  0  0  0  0  0  0  0  0  0  0  0
   59.5590   29.4710   45.2140 C   0  0  0  0  0  0  0  0  0  0  0  0
   59.3750   30.8570   45.8550 C   0  0  0  0  0  0  0  0  0  0  0  0
   59.7600   33.8390   49.2330 C   0  0  0  0  0  0  0  0  0  0  0  0
   61.0030   34.3590   49.2640 N   0  0  0  0  0  0  0  0  0  0  0  0
   64.2588   33.2118   46.3948 H   0  0  0  0  0  0  0  0  0  0  0  0
   62.5153   33.4232   46.0175 H   0  0  0  0  0  0  0  0  0  0  0  0
   63.6131   34.8450   46.0175 H   0  0  0  0  0  0  0  0  0  0  0  0
   63.2997   35.1635   48.2198 H   0  0  0  0  0  0  0  0  0  0  0  0
   63.7940   33.4464   49.9220 H   0  0  0  0  0  0  0  0  0  0  0  0
   63.8214   32.1813   48.6472 H   0  0  0  0  0  0  0  0  0  0  0  0
   65.0590   33.4832   48.6472 H   0  0  0  0  0  0  0  0  0  0  0  0
   61.2238   32.3395   46.7297 H   0  0  0  0  0  0  0  0  0  0  0  0
   57.8834   31.9126   48.7156 H   0  0  0  0  0  0  0  0  0  0  0  0
   57.8941   32.6174   47.0593 H   0  0  0  0  0  0  0  0  0  0  0  0
   60.8898   30.4177   47.9843 H   0  0  0  0  0  0  0  0  0  0  0  0
   59.5082   30.2068   49.1780 H   0  0  0  0  0  0  0  0  0  0  0  0
   60.7823   28.2535   47.3736 H   0  0  0  0  0  0  0  0  0  0  0  0
   59.8311   28.0508   48.9212 H   0  0  0  0  0  0  0  0  0  0  0  0
   58.6931   26.9139   47.1168 H   0  0  0  0  0  0  0  0  0  0  0  0
   57.7608   28.3970   47.6519 H   0  0  0  0  0  0  0  0  0  0  0  0
   57.1316   26.3364   43.4954 H   0  0  0  0  0  0  0  0  0  0  0  0
   58.7768   26.2281   44.2193 H   0  0  0  0  0  0  0  0  0  0  0  0
   55.1670   27.4330   45.3020 H   0  0  0  0  0  0  0  0  0  0  0  0
   60.5778   29.1123   45.4221 H   0  0  0  0  0  0  0  0  0  0  0  0
   59.3932   29.5646   44.1306 H   0  0  0  0  0  0  0  0  0  0  0  0
   60.3316   31.3970   45.7969 H   0  0  0  0  0  0  0  0  0  0  0  0
   58.5735   31.3660   45.2995 H   0  0  0  0  0  0  0  0  0  0  0  0
   58.9467   34.0876   49.9307 H   0  0  0  0  0  0  0  0  0  0  0  0
  1  2  1  0
  2  3  1  0
  2  4  1  0
  4  5  1  0
  5  6  2  0
  6  7  1  0
  7  8  1  0
  8  9  1  0
  9 10  1  0
 10 11  1  0
 11 12  1  0
 12 13  1  0
 13 14  2  0
 13 15  1  0
 15 16  1  0
 16 17  1  0
 17 18  1  0
 18 19  2  0
 18 20  1  0
 20 21  1  0
 21 22  1  0
 12 23  1  0
 23 24  1  0
  6 25  1  0
 25 26  2  0
 26  4  1  0
 24  8  1  0
 21 16  2  0
  1 27  1  0
  1 28  1  0
  1 29  1  0
  2 30  1  0
  3 31  1  0
  3 32  1  0
  3 33  1  0
  5 34  1  0
  7 35  1  0
  7 36  1  0
  9 37  1  0
  9 38  1  0
 10 39  1  0
 10 40  1  0
 11 41  1  0
 11 42  1  0
 15 43  1  0
 15 44  1  0
 22 45  1  0
 23 46  1  0
 23 47  1  0
 24 48  1  0
 24 49  1  0
 25 50  1  0
M  CHG  2  17  -1  20  -1
M  END
>  <UniqueID>  (52) 
49

>  <SMILES>  (52) 
CC(C)n1cc(CN2CCCN(C(=O)Cc3[n-]c(=O)[n-]c3O)CC2)cn1

>  <Energy>  (52) 
113.17275863920314

>  <Genealogy>  (52) 
CC(C)n1cc(CN2CCCN(C(=O)Cc3[n-]c(=O)[n-]c3O)CC2)cn1 (protonated)
CC(C)n1cc(CN2CCCN(C(=O)Cc3[n-]c(=O)[n-]c3O)CC2)cn1 (3D coordinates assigned)
CC(C)n1cc(CN2CCCN(C(=O)Cc3[n-]c(=O)[n-]c3O)CC2)cn1 (nonaromatic ring conformer: 113.17275863920314 kcal/mol)

>  <smiles>  (52) 
CC(C)n1cc(CN2CCCN(C(=O)Cc3[nH]c(=O)[nH]c3O)CC2)cn1

>  <score_type>  (52) 
oracle

>  <origin>  (52) 
adg

>  <m_score__min__energy>  (52) 
-9.25

>  <m_primary>  (52) 
energy

$$$$
52:0
     RDKit          3D

 41 43  0  0  0  0  0  0  0  0999 V2000
   56.6240   20.6060   43.0460 N   0  0  0  0  0  0  0  0  0  0  0  0
   57.0830   21.6570   43.6390 C   0  0  0  0  0  0  0  0  0  0  0  0
   56.3000   22.7530   43.6660 N   0  0  0  0  0  0  0  0  0  0  0  0
   56.8050   23.8460   44.2970 C   0  0  0  0  0  0  0  0  0  0  0  0
   58.0600   23.8200   44.8750 C   0  0  0  0  0  0  0  0  0  0  0  0
   58.5500   25.0360   45.5680 C   0  0  0  0  0  0  0  0  0  0  0  0
   58.2750   26.2390   44.6960 C   0  0  0  0  0  0  0  0  0  0  0  0
   58.6780   27.5230   45.3340 C   0  0  0  0  0  0  0  0  0  0  0  0
   59.8180   27.6480   46.1050 C   0  0  0  0  0  0  0  0  0  0  0  0
   60.1660   28.8500   46.6880 C   0  0  0  0  0  0  0  0  0  0  0  0
   59.3900   29.9760   46.5230 C   0  0  0  0  0  0  0  0  0  0  0  0
   58.2520   29.8400   45.7520 C   0  0  0  0  0  0  0  0  0  0  0  0
   57.4450   30.9640   45.5670 O   0  0  0  0  0  0  0  0  0  0  0  0
   57.9510   32.2510   45.6400 C   0  0  0  0  0  0  0  0  0  0  0  0
   58.0270   32.9110   46.8530 C   0  0  0  0  0  0  0  0  0  0  0  0
   58.5410   34.1990   46.8780 C   0  0  0  0  0  0  0  0  0  0  0  0
   58.9630   34.7940   45.7040 C   0  0  0  0  0  0  0  0  0  0  0  0
   58.8900   34.1360   44.4810 C   0  0  0  0  0  0  0  0  0  0  0  0
   58.3740   32.8430   44.4540 C   0  0  0  0  0  0  0  0  0  0  0  0
   57.8880   28.6640   45.1670 C   0  0  0  0  0  0  0  0  0  0  0  0
   58.8430   22.6900   44.8350 C   0  0  0  0  0  0  0  0  0  0  0  0
   60.0080   22.5740   45.3190 N   0  0  0  0  0  0  0  0  0  0  0  0
   58.3040   21.6140   44.1970 N   0  0  0  0  0  0  0  0  0  0  0  0
   56.6820   19.6590   43.4790 H   0  0  0  0  0  0  0  0  0  0  0  0
   55.3490   22.7840   43.2320 H   0  0  0  0  0  0  0  0  0  0  0  0
   56.2048   24.7664   44.3484 H   0  0  0  0  0  0  0  0  0  0  0  0
   58.0275   25.1493   46.5293 H   0  0  0  0  0  0  0  0  0  0  0  0
   59.6306   24.9494   45.7546 H   0  0  0  0  0  0  0  0  0  0  0  0
   58.8327   26.1248   43.7548 H   0  0  0  0  0  0  0  0  0  0  0  0
   57.1890   26.2818   44.5265 H   0  0  0  0  0  0  0  0  0  0  0  0
   60.4627   26.7699   46.2576 H   0  0  0  0  0  0  0  0  0  0  0  0
   61.0807   28.9097   47.2961 H   0  0  0  0  0  0  0  0  0  0  0  0
   59.6633   30.9371   46.9830 H   0  0  0  0  0  0  0  0  0  0  0  0
   57.6868   32.4244   47.7790 H   0  0  0  0  0  0  0  0  0  0  0  0
   58.6126   34.7456   47.8299 H   0  0  0  0  0  0  0  0  0  0  0  0
   59.3678   35.8162   45.7380 H   0  0  0  0  0  0  0  0  0  0  0  0
   59.2317   34.6253   43.5570 H   0  0  0  0  0  0  0  0  0  0  0  0
   58.3014   32.2944   43.5034 H   0  0  0  0  0  0  0  0  0  0  0  0
   56.9706   28.6127   44.5622 H   0  0  0  0  0  0  0  0  0  0  0  0
   60.7940   22.2450   44.7250 H   0  0  0  0  0  0  0  0  0  0  0  0
   58.8700   20.7340   44.1450 H   0  0  0  0  0  0  0  0  0  0  0  0
  1  2  2  3
  2  3  1  0
  3  4  1  0
  4  5  2  0
  5  6  1  0
  6  7  1  0
  7  8  1  0
  8  9  2  0
  9 10  1  0
 10 11  2  0
 11 12  1  0
 12 13  1  0
 13 14  1  0
 14 15  2  0
 15 16  1  0
 16 17  2  0
 17 18  1  0
 18 19  2  0
 12 20  2  0
  5 21  1  0
 21 22  2  3
 21 23  1  0
 23  2  1  0
 20  8  1  0
 19 14  1  0
  1 24  1  0
  3 25  1  0
  4 26  1  0
  6 27  1  0
  6 28  1  0
  7 29  1  0
  7 30  1  0
  9 31  1  0
 10 32  1  0
 11 33  1  0
 15 34  1  0
 16 35  1  0
 17 36  1  0
 18 37  1  0
 19 38  1  0
 20 39  1  0
 22 40  1  0
 23 41  1  0
M  END
>  <smiles>  (53) 
N=c1[nH]cc(CCc2cccc(Oc3ccccc3)c2)c(=N)[nH]1

>  <score_type>  (53) 
oracle

>  <origin>  (53) 
adg

>  <m_score__min__energy>  (53) 
-8.7799999999999994

>  <m_primary>  (53) 
energy

$$$$
53:0
     RDKit          3D

 49 53  0  0  0  0  0  0  0  0999 V2000
   56.4004   32.6558   46.6182 H   0  0  0  0  0  0  0  0  0  0  0  0
   57.4220   33.0070   46.4110 C   0  0  0  0  0  0  0  0  0  0  0  0
   58.4210   33.8280   47.4840 S   0  0  0  0  0  0  0  0  0  0  0  0
   59.6840   33.9560   46.3700 C   0  0  0  0  0  0  0  0  0  0  0  0
   60.8380   34.5150   46.5820 N   0  0  0  0  0  0  0  0  0  0  0  0
   62.0340   33.8100   46.9430 C   0  0  0  0  0  0  0  0  0  0  0  0
   63.0190   33.8290   46.1610 O   0  0  0  0  0  0  0  0  0  0  0  0
   62.1210   33.0650   48.1640 N   0  0  0  0  0  0  0  0  0  0  0  0
   61.1950   32.0420   48.5720 C   0  0  0  0  0  0  0  0  0  0  0  0
   61.2180   30.7750   47.9620 C   0  0  0  0  0  0  0  0  0  0  0  0
   61.9539   30.5649   47.1718 H   0  0  0  0  0  0  0  0  0  0  0  0
   60.3180   29.7820   48.3480 C   0  0  0  0  0  0  0  0  0  0  0  0
   60.3494   28.7959   47.8616 H   0  0  0  0  0  0  0  0  0  0  0  0
   59.3790   30.0330   49.3470 C   0  0  0  0  0  0  0  0  0  0  0  0
   58.6623   29.2501   49.6358 H   0  0  0  0  0  0  0  0  0  0  0  0
   59.3460   31.2820   49.9850 C   0  0  0  0  0  0  0  0  0  0  0  0
   58.4050   31.5340   50.9950 C   0  0  0  0  0  0  0  0  0  0  0  0
   57.6927   30.7490   51.2890 H   0  0  0  0  0  0  0  0  0  0  0  0
   58.3700   32.7780   51.6280 C   0  0  0  0  0  0  0  0  0  0  0  0
   57.6304   32.9700   52.4193 H   0  0  0  0  0  0  0  0  0  0  0  0
   59.2700   33.7780   51.2600 C   0  0  0  0  0  0  0  0  0  0  0  0
   59.2372   34.7558   51.7628 H   0  0  0  0  0  0  0  0  0  0  0  0
   60.2130   33.5440   50.2560 C   0  0  0  0  0  0  0  0  0  0  0  0
   60.9179   34.3391   49.9715 H   0  0  0  0  0  0  0  0  0  0  0  0
   60.2660   32.2950   49.6060 C   0  0  0  0  0  0  0  0  0  0  0  0
   59.3640   33.3940   45.1870 N   0  0  0  0  0  0  0  0  0  0  0  0
   58.1160   32.8490   45.2110 C   0  0  0  0  0  0  0  0  0  0  0  0
   57.5810   32.0560   44.0550 C   0  0  0  0  0  0  0  0  0  0  0  0
   56.6754   32.5465   43.6686 H   0  0  0  0  0  0  0  0  0  0  0  0
   58.3517   32.0076   43.2716 H   0  0  0  0  0  0  0  0  0  0  0  0
   57.2380   30.6510   44.4870 C   0  0  0  0  0  0  0  0  0  0  0  0
   55.9370   30.2610   44.4180 N   0  0  0  0  0  0  0  0  0  0  0  0
   55.5290   29.0750   44.8690 N   0  0  0  0  0  0  0  0  0  0  0  0
   56.3880   28.1980   45.4430 C   0  0  0  0  0  0  0  0  0  0  0  0
   55.9510   27.1020   45.8870 O   0  0  0  0  0  0  0  0  0  0  0  0
   57.7480   28.5280   45.5420 C   0  0  0  0  0  0  0  0  0  0  0  0
   58.1910   29.7580   45.0320 C   0  0  0  0  0  0  0  0  0  0  0  0
   59.6530   30.1090   45.2040 C   0  0  0  0  0  0  0  0  0  0  0  0
   59.9090   30.9188   44.5049 H   0  0  0  0  0  0  0  0  0  0  0  0
   59.8083   30.4220   46.2470 H   0  0  0  0  0  0  0  0  0  0  0  0
   60.5690   28.9030   44.9260 C   0  0  0  0  0  0  0  0  0  0  0  0
   60.6921   28.8118   43.8367 H   0  0  0  0  0  0  0  0  0  0  0  0
   61.5115   29.1037   45.4564 H   0  0  0  0  0  0  0  0  0  0  0  0
   60.0480   27.5480   45.4660 C   0  0  0  0  0  0  0  0  0  0  0  0
   59.8833   26.8767   44.6103 H   0  0  0  0  0  0  0  0  0  0  0  0
   60.8114   27.1728   46.1635 H   0  0  0  0  0  0  0  0  0  0  0  0
   58.7390   27.6450   46.2590 C   0  0  0  0  0  0  0  0  0  0  0  0
   58.3100   26.6385   46.3731 H   0  0  0  0  0  0  0  0  0  0  0  0
   58.9536   28.0812   47.2457 H   0  0  0  0  0  0  0  0  0  0  0  0
  1  2  1  0
  2  3  1  0
  3  4  1  0
  4  5  2  0
  5  6  1  0
  6  7  2  0
  6  8  1  0
  8  9  1  0
  9 10  2  0
 10 11  1  0
 10 12  1  0
 12 13  1  0
 12 14  2  0
 14 15  1  0
 14 16  1  0
 16 17  2  0
 17 18  1  0
 17 19  1  0
 19 20  1  0
 19 21  2  0
 21 22  1  0
 21 23  1  0
 23 24  1  0
 23 25  2  0
  4 26  1  0
 26 27  1  0
 27 28  1  0
 28 29  1  0
 28 30  1  0
 28 31  1  0
 31 32  2  0
 32 33  1  0
 33 34  1  0
 34 35  2  0
 34 36  1  0
 36 37  2  0
 37 38  1  0
 38 39  1  0
 38 40  1  0
 38 41  1  0
 41 42  1  0
 41 43  1  0
 41 44  1  0
 44 45  1  0
 44 46  1  0
 44 47  1  0
 47 48  1  0
 47 49  1  0
 27  2  2  0
 37 31  1  0
 25  9  1  0
 47 36  1  0
 25 16  1  0
M  CHG  3   8  -1  26  -1  33  -1
M  END
>  <UniqueID>  (54) 
50

>  <SMILES>  (54) 
O=C(/N=c1/[n-]c(Cc2n[n-]c(=O)c3c2CCCC3)cs1)[N-]c1cccc2ccccc12

>  <Energy>  (54) 
102.54163463535333

>  <Genealogy>  (54) 
O=C(N=c1[n-]c(Cc2n[n-]c(=O)c3c2CCCC3)cs1)[N-]c1cccc2ccccc12 (protonated)
O=C(/N=c1/[n-]c(Cc2n[n-]c(=O)c3c2CCCC3)cs1)[N-]c1cccc2ccccc12 (cis-trans isomerization)
O=C(/N=c1/[n-]c(Cc2n[n-]c(=O)c3c2CCCC3)cs1)[N-]c1cccc2ccccc12 (3D coordinates assigned)
O=C(/N=c1/[n-]c(Cc2n[n-]c(=O)c3c2CCCC3)cs1)[N-]c1cccc2ccccc12 (nonaromatic ring conformer: 102.54163463535333 kcal/mol)

>  <smiles>  (54) 
O=C(N=c1[nH]c(Cc2n[nH]c(=O)c3c2CCCC3)cs1)Nc1cccc2ccccc12

>  <score_type>  (54) 
oracle

>  <origin>  (54) 
adg

>  <m_score__min__energy>  (54) 
-15.02

>  <m_primary>  (54) 
energy

$$$$
54:0
     RDKit          3D

 59 62  0  0  0  0  0  0  0  0999 V2000
   57.8763   27.7831   43.3520 H   0  0  0  0  0  0  0  0  0  0  0  0
   57.6440   27.1640   44.2310 C   0  0  0  0  0  0  0  0  0  0  0  0
   58.1350   25.8560   44.3100 C   0  0  0  0  0  0  0  0  0  0  0  0
   58.7339   25.4433   43.4848 H   0  0  0  0  0  0  0  0  0  0  0  0
   57.8650   25.0720   45.4380 C   0  0  0  0  0  0  0  0  0  0  0  0
   58.3730   23.3870   45.5090 S   0  0  0  0  0  0  0  0  0  0  0  0
   57.7780   22.7420   46.7280 O   0  0  0  0  0  0  0  0  0  0  0  0
   59.8720   23.2880   45.5890 O   0  0  0  0  0  0  0  0  0  0  0  0
   57.8050   22.5700   44.0860 N   0  0  0  0  0  0  0  0  0  0  0  0
   56.4010   22.1930   44.2480 C   0  0  0  0  0  0  0  0  0  0  0  0
   56.1533   21.3960   43.5315 H   0  0  0  0  0  0  0  0  0  0  0  0
   56.2405   21.8354   45.2758 H   0  0  0  0  0  0  0  0  0  0  0  0
   55.5000   23.4010   43.9920 C   0  0  0  0  0  0  0  0  0  0  0  0
   56.1288   24.2987   43.8986 H   0  0  0  0  0  0  0  0  0  0  0  0
   54.9344   23.2113   43.0678 H   0  0  0  0  0  0  0  0  0  0  0  0
   54.3210   23.6570   45.3170 S   0  0  0  0  0  0  0  0  0  0  0  0
   52.9430   23.2600   44.8670 O   0  0  0  0  0  0  0  0  0  0  0  0
   54.3140   25.1150   45.6800 O   0  0  0  0  0  0  0  0  0  0  0  0
   54.7660   22.7100   46.7590 C   0  0  0  0  0  0  0  0  0  0  0  0
   54.5006   23.2748   47.6648 H   0  0  0  0  0  0  0  0  0  0  0  0
   54.2232   21.7533   46.7512 H   0  0  0  0  0  0  0  0  0  0  0  0
   55.8489   22.5172   46.7512 H   0  0  0  0  0  0  0  0  0  0  0  0
   57.1240   25.6100   46.4960 C   0  0  0  0  0  0  0  0  0  0  0  0
   56.9313   25.0048   47.3941 H   0  0  0  0  0  0  0  0  0  0  0  0
   56.6280   26.9140   46.4150 C   0  0  0  0  0  0  0  0  0  0  0  0
   56.0551   27.3357   47.2540 H   0  0  0  0  0  0  0  0  0  0  0  0
   56.8590   27.6890   45.2640 C   0  0  0  0  0  0  0  0  0  0  0  0
   56.3530   29.0280   45.1410 N   0  0  0  0  0  0  0  0  0  0  0  0
   57.0430   30.1240   45.2720 C   0  0  0  0  0  0  0  0  0  0  0  0
   58.1920   30.1000   45.9890 N   0  0  0  0  0  0  0  0  0  0  0  0
   58.9910   31.1920   46.1420 C   0  0  0  0  0  0  0  0  0  0  0  0
   58.5680   32.4130   45.5530 C   0  0  0  0  0  0  0  0  0  0  0  0
   57.3880   32.4100   44.7890 C   0  0  0  0  0  0  0  0  0  0  0  0
   57.0554   33.3326   44.2908 H   0  0  0  0  0  0  0  0  0  0  0  0
   56.6590   31.2750   44.6640 N   0  0  0  0  0  0  0  0  0  0  0  0
   59.3130   33.5840   45.7750 C   0  0  0  0  0  0  0  0  0  0  0  0
   58.9290   34.9100   45.1660 C   0  0  0  0  0  0  0  0  0  0  0  0
   58.7192   35.6343   45.9669 H   0  0  0  0  0  0  0  0  0  0  0  0
   59.7566   35.2810   44.5436 H   0  0  0  0  0  0  0  0  0  0  0  0
   58.0312   34.7814   44.5436 H   0  0  0  0  0  0  0  0  0  0  0  0
   60.3890   33.5290   46.6540 C   0  0  0  0  0  0  0  0  0  0  0  0
   60.9408   34.4487   46.8982 H   0  0  0  0  0  0  0  0  0  0  0  0
   60.7750   32.3180   47.2290 C   0  0  0  0  0  0  0  0  0  0  0  0
   61.6930   32.3510   48.0930 O   0  0  0  0  0  0  0  0  0  0  0  0
   60.1640   31.1270   46.8810 N   0  0  0  0  0  0  0  0  0  0  0  0
   60.7210   29.8440   47.4430 C   0  0  0  0  0  0  0  0  0  0  0  0
   61.7451   30.1645   47.6850 H   0  0  0  0  0  0  0  0  0  0  0  0
   60.0140   29.2820   48.6850 C   0  0  0  0  0  0  0  0  0  0  0  0
   60.3934   29.7689   49.5955 H   0  0  0  0  0  0  0  0  0  0  0  0
   58.9293   29.4618   48.6507 H   0  0  0  0  0  0  0  0  0  0  0  0
   60.3350   27.8010   48.7050 C   0  0  0  0  0  0  0  0  0  0  0  0
   61.2991   27.6226   49.2037 H   0  0  0  0  0  0  0  0  0  0  0  0
   59.5786   27.2252   49.2584 H   0  0  0  0  0  0  0  0  0  0  0  0
   60.4060   27.3870   47.2500 C   0  0  0  0  0  0  0  0  0  0  0  0
   61.2389   26.6855   47.0947 H   0  0  0  0  0  0  0  0  0  0  0  0
   59.4821   26.8798   46.9351 H   0  0  0  0  0  0  0  0  0  0  0  0
   60.6360   28.6660   46.4460 C   0  0  0  0  0  0  0  0  0  0  0  0
   61.5754   28.5874   45.8791 H   0  0  0  0  0  0  0  0  0  0  0  0
   59.8126   28.8248   45.7341 H   0  0  0  0  0  0  0  0  0  0  0  0
  1  2  1  0
  2  3  2  0
  3  4  1  0
  3  5  1  0
  5  6  1  0
  6  7  2  0
  6  8  2  0
  6  9  1  0
  9 10  1  0
 10 11  1  0
 10 12  1  0
 10 13  1  0
 13 14  1  0
 13 15  1  0
 13 16  1  0
 16 17  2  0
 16 18  2  0
 16 19  1  0
 19 20  1  0
 19 21  1  0
 19 22  1  0
  5 23  2  0
 23 24  1  0
 23 25  1  0
 25 26  1  0
 25 27  2  0
 27 28  1  0
 28 29  2  0
 29 30  1  0
 30 31  2  0
 31 32  1  0
 32 33  2  0
 33 34  1  0
 33 35  1  0
 32 36  1  0
 36 37  1  0
 37 38  1  0
 37 39  1  0
 37 40  1  0
 36 41  2  0
 41 42  1  0
 41 43  1  0
 43 44  2  0
 43 45  1  0
 45 46  1  0
 46 47  1  0
 46 48  1  0
 48 49  1  0
 48 50  1  0
 48 51  1  0
 51 52  1  0
 51 53  1  0
 51 54  1  0
 54 55  1  0
 54 56  1  0
 54 57  1  0
 57 58  1  0
 57 59  1  0
 27  2  1  0
 35 29  1  0
 57 46  1  0
 45 31  1  0
M  CHG  2   9  -1  35  -1
M  END
>  <UniqueID>  (55) 
51

>  <SMILES>  (55) 
Cc1cc(=O)n(C2CCCC2)c2n/c(=N/c3ccc(S(=O)(=O)[N-]CCS(C)(=O)=O)cc3)[n-]cc12

>  <Energy>  (55) 
77.99128659859106

>  <Genealogy>  (55) 
Cc1cc(=O)n(C2CCCC2)c2nc(=Nc3ccc(S(=O)(=O)[N-]CCS(C)(=O)=O)cc3)[n-]cc12 (protonated)
Cc1cc(=O)n(C2CCCC2)c2n/c(=N/c3ccc(S(=O)(=O)[N-]CCS(C)(=O)=O)cc3)[n-]cc12 (cis-trans isomerization)
Cc1cc(=O)n(C2CCCC2)c2n/c(=N/c3ccc(S(=O)(=O)[N-]CCS(C)(=O)=O)cc3)[n-]cc12 (3D coordinates assigned)
Cc1cc(=O)n(C2CCCC2)c2n/c(=N/c3ccc(S(=O)(=O)[N-]CCS(C)(=O)=O)cc3)[n-]cc12 (nonaromatic ring conformer: 77.99128659859106 kcal/mol)

>  <smiles>  (55) 
Cc1cc(=O)n(C2CCCC2)c2nc(=Nc3ccc(S(=O)(=O)NCCS(C)(=O)=O)cc3)[nH]cc12

>  <score_type>  (55) 
oracle

>  <origin>  (55) 
adg

>  <m_score__min__energy>  (55) 
-12.33

>  <m_primary>  (55) 
energy

$$$$
55:0
     RDKit          3D

 48 50  0  0  0  0  0  0  0  0999 V2000
   59.2677   33.1394   50.2006 H   0  0  0  0  0  0  0  0  0  0  0  0
   60.0110   33.8700   49.8490 C   0  0  0  0  0  0  0  0  0  0  0  0
   59.6844   34.8559   49.4867 H   0  0  0  0  0  0  0  0  0  0  0  0
   61.3100   33.5600   49.8620 C   0  0  0  0  0  0  0  0  0  0  0  0
   61.6225   32.5705   50.2269 H   0  0  0  0  0  0  0  0  0  0  0  0
   62.3540   34.5310   49.3900 C   0  0  0  0  0  0  0  0  0  0  0  0
   61.8627   35.4590   49.0623 H   0  0  0  0  0  0  0  0  0  0  0  0
   63.0457   34.7391   50.2196 H   0  0  0  0  0  0  0  0  0  0  0  0
   63.1110   33.9700   48.2760 N   0  0  0  0  0  0  0  0  0  0  0  0
   62.6500   33.9770   46.9200 C   0  0  0  0  0  0  0  0  0  0  0  0
   63.4690   34.1910   45.9830 O   0  0  0  0  0  0  0  0  0  0  0  0
   61.2200   33.7370   46.6150 C   0  0  0  0  0  0  0  0  0  0  0  0
   60.3830   34.7980   46.2290 C   0  0  0  0  0  0  0  0  0  0  0  0
   60.7941   35.8150   46.1476 H   0  0  0  0  0  0  0  0  0  0  0  0
   59.0340   34.5720   45.9480 C   0  0  0  0  0  0  0  0  0  0  0  0
   58.3931   35.4115   45.6408 H   0  0  0  0  0  0  0  0  0  0  0  0
   58.4890   33.2840   46.0540 C   0  0  0  0  0  0  0  0  0  0  0  0
   57.0340   33.0610   45.7440 C   0  0  0  0  0  0  0  0  0  0  0  0
   56.4681   32.9743   46.6833 H   0  0  0  0  0  0  0  0  0  0  0  0
   56.6489   33.9106   45.1610 H   0  0  0  0  0  0  0  0  0  0  0  0
   56.9210   32.1351   45.1610 H   0  0  0  0  0  0  0  0  0  0  0  0
   59.3270   32.2100   46.4200 C   0  0  0  0  0  0  0  0  0  0  0  0
   58.8100   30.8710   46.5100 N   0  0  0  0  0  0  0  0  0  0  0  0
   58.7810   30.1180   47.6290 C   0  0  0  0  0  0  0  0  0  0  0  0
   59.2790   30.5630   48.9700 C   0  0  0  0  0  0  0  0  0  0  0  0
   58.7087   30.0534   49.7605 H   0  0  0  0  0  0  0  0  0  0  0  0
   60.3454   30.3115   49.0671 H   0  0  0  0  0  0  0  0  0  0  0  0
   59.1486   31.6509   49.0671 H   0  0  0  0  0  0  0  0  0  0  0  0
   58.2640   28.8690   47.3530 C   0  0  0  0  0  0  0  0  0  0  0  0
   58.1410   28.0387   48.0640 H   0  0  0  0  0  0  0  0  0  0  0  0
   57.9290   28.8610   46.0070 C   0  0  0  0  0  0  0  0  0  0  0  0
   57.3360   27.8090   45.4110 C   0  0  0  0  0  0  0  0  0  0  0  0
   56.9301   27.9664   44.4008 H   0  0  0  0  0  0  0  0  0  0  0  0
   57.1840   26.4630   45.9970 C   0  0  0  0  0  0  0  0  0  0  0  0
   55.9070   25.9440   46.2530 C   0  0  0  0  0  0  0  0  0  0  0  0
   54.7710   26.7050   46.0080 O   0  0  0  0  0  0  0  0  0  0  0  0
   55.7740   24.6880   46.7550 N   0  0  0  0  0  0  0  0  0  0  0  0
   56.8610   23.9120   47.0000 C   0  0  0  0  0  0  0  0  0  0  0  0
   56.7120   22.7540   47.4680 O   0  0  0  0  0  0  0  0  0  0  0  0
   58.1060   24.3820   46.7340 N   0  0  0  0  0  0  0  0  0  0  0  0
   58.2930   25.6300   46.2320 C   0  0  0  0  0  0  0  0  0  0  0  0
   59.4610   26.0250   45.9770 O   0  0  0  0  0  0  0  0  0  0  0  0
   58.3190   30.1120   45.4970 C   0  0  0  0  0  0  0  0  0  0  0  0
   58.3390   30.5020   44.2140 C   0  0  0  0  0  0  0  0  0  0  0  0
   58.6697   31.5182   43.9531 H   0  0  0  0  0  0  0  0  0  0  0  0
   58.0247   29.8057   43.4225 H   0  0  0  0  0  0  0  0  0  0  0  0
   60.6790   32.4440   46.7060 C   0  0  0  0  0  0  0  0  0  0  0  0
   61.3242   31.6049   47.0053 H   0  0  0  0  0  0  0  0  0  0  0  0
  1  2  1  0
  2  3  1  0
  2  4  2  0
  4  5  1  0
  4  6  1  0
  6  7  1  0
  6  8  1  0
  6  9  1  0
  9 10  1  0
 10 11  2  0
 10 12  1  0
 12 13  2  0
 13 14  1  0
 13 15  1  0
 15 16  1  0
 15 17  2  0
 17 18  1  0
 18 19  1  0
 18 20  1  0
 18 21  1  0
 17 22  1  0
 22 23  1  0
 23 24  1  0
 24 25  1  0
 25 26  1  0
 25 27  1  0
 25 28  1  0
 24 29  2  0
 29 30  1  0
 29 31  1  0
 31 32  2  0
 32 33  1  0
 32 34  1  0
 34 35  2  0
 35 36  1  0
 35 37  1  0
 37 38  1  0
 38 39  2  0
 38 40  1  0
 40 41  1  0
 41 42  2  0
 31 43  1  0
 43 44  2  0
 44 45  1  0
 44 46  1  0
 22 47  2  0
 47 48  1  0
 47 12  1  0
 43 23  1  0
 41 34  1  0
M  CHG  4   9  -1  36  -1  37  -1  40  -1
M  END
>  <UniqueID>  (56) 
52

>  <SMILES>  (56) 
C=CC[N-]C(=O)c1ccc(C)c(-n2c(C)c/c(=C/c3c([O-])[n-]c(=O)[n-]c3=O)c2=C)c1

>  <Energy>  (56) 
94.53670485065078

>  <Genealogy>  (56) 
C=CC[N-]C(=O)c1ccc(C)c(-n2c(C)cc(=Cc3c([O-])[n-]c(=O)[n-]c3=O)c2=C)c1 (protonated)
C=CC[N-]C(=O)c1ccc(C)c(-n2c(C)c/c(=C/c3c([O-])[n-]c(=O)[n-]c3=O)c2=C)c1 (cis-trans isomerization)
C=CC[N-]C(=O)c1ccc(C)c(-n2c(C)c/c(=C/c3c([O-])[n-]c(=O)[n-]c3=O)c2=C)c1 (3D coordinates assigned)
C=CC[N-]C(=O)c1ccc(C)c(-n2c(C)c/c(=C/c3c([O-])[n-]c(=O)[n-]c3=O)c2=C)c1 (optimized conformer: 94.53670485065078 kcal/mol)

>  <smiles>  (56) 
C=CCNC(=O)c1ccc(C)c(-n2c(C)cc(=Cc3c(O)[nH]c(=O)[nH]c3=O)c2=C)c1

>  <score_type>  (56) 
oracle

>  <origin>  (56) 
adg

>  <m_score__min__energy>  (56) 
-16.940000000000001

>  <m_primary>  (56) 
energy

$$$$
56:0
     RDKit          3D

 36 38  0  0  0  0  0  0  0  0999 V2000
   55.2790   29.0520   44.8180 N   0  0  0  0  0  0  0  0  0  0  0  0
   56.0740   29.9470   44.0410 C   0  0  0  0  0  0  0  0  0  0  0  0
   55.8540   30.0440   42.8030 O   0  0  0  0  0  0  0  0  0  0  0  0
   57.1420   30.7520   44.6770 C   0  0  0  0  0  0  0  0  0  0  0  0
   57.0040   32.1450   44.8130 C   0  0  0  0  0  0  0  0  0  0  0  0
   58.0150   32.9000   45.4120 C   0  0  0  0  0  0  0  0  0  0  0  0
   59.1700   32.2780   45.8870 C   0  0  0  0  0  0  0  0  0  0  0  0
   59.3180   30.8840   45.7770 C   0  0  0  0  0  0  0  0  0  0  0  0
   60.4540   30.2140   46.2620 O   0  0  0  0  0  0  0  0  0  0  0  0
   60.6950   29.9350   47.6150 C   0  0  0  0  0  0  0  0  0  0  0  0
   61.4790   30.8380   48.3440 C   0  0  0  0  0  0  0  0  0  0  0  0
   61.7020   30.6410   49.7080 C   0  0  0  0  0  0  0  0  0  0  0  0
   61.1530   29.5330   50.3520 C   0  0  0  0  0  0  0  0  0  0  0  0
   60.3960   28.6060   49.6310 C   0  0  0  0  0  0  0  0  0  0  0  0
   60.1750   28.7810   48.2530 C   0  0  0  0  0  0  0  0  0  0  0  0
   59.4470   27.7380   47.4980 C   0  0  0  0  0  0  0  0  0  0  0  0
   60.0600   26.7760   46.7680 N   0  0  0  0  0  0  0  0  0  0  0  0
   59.1700   25.9510   46.1580 C   0  0  0  0  0  0  0  0  0  0  0  0
   57.8400   26.2550   46.4050 C   0  0  0  0  0  0  0  0  0  0  0  0
   56.4520   25.3910   45.7750 S   0  0  0  0  0  0  0  0  0  0  0  0
   55.0250   26.3370   46.0080 N   0  0  0  0  0  0  0  0  0  0  0  0
   56.3080   24.0780   46.4910 O   0  0  0  0  0  0  0  0  0  0  0  0
   56.6380   25.1420   44.3040 O   0  0  0  0  0  0  0  0  0  0  0  0
   57.7690   27.5890   47.4220 S   0  0  0  0  0  0  0  0  0  0  0  0
   58.3120   30.1330   45.1590 C   0  0  0  0  0  0  0  0  0  0  0  0
   54.4090   29.3790   45.2920 H   0  0  0  0  0  0  0  0  0  0  0  0
   56.0946   32.6428   44.4455 H   0  0  0  0  0  0  0  0  0  0  0  0
   57.9001   33.9896   45.5096 H   0  0  0  0  0  0  0  0  0  0  0  0
   59.9668   32.8796   46.3487 H   0  0  0  0  0  0  0  0  0  0  0  0
   61.9222   31.7086   47.8383 H   0  0  0  0  0  0  0  0  0  0  0  0
   62.3112   31.3604   50.2749 H   0  0  0  0  0  0  0  0  0  0  0  0
   61.3162   29.3883   51.4302 H   0  0  0  0  0  0  0  0  0  0  0  0
   59.9694   27.7322   50.1453 H   0  0  0  0  0  0  0  0  0  0  0  0
   59.4793   25.1101   45.5199 H   0  0  0  0  0  0  0  0  0  0  0  0
   55.3200   27.3400   46.0090 H   0  0  0  0  0  0  0  0  0  0  0  0
   58.4363   29.0457   45.0482 H   0  0  0  0  0  0  0  0  0  0  0  0
  1  2  1  0
  2  3  2  0
  2  4  1  0
  4  5  2  0
  5  6  1  0
  6  7  2  0
  7  8  1  0
  8  9  1  0
  9 10  1  0
 10 11  2  0
 11 12  1  0
 12 13  2  0
 13 14  1  0
 14 15  2  0
 15 16  1  0
 16 17  2  0
 17 18  1  0
 18 19  2  0
 19 20  1  0
 20 21  1  0
 20 22  2  0
 20 23  2  0
 19 24  1  0
  8 25  2  0
 25  4  1  0
 15 10  1  0
 24 16  1  0
  1 26  1  0
  5 27  1  0
  6 28  1  0
  7 29  1  0
 11 30  1  0
 12 31  1  0
 13 32  1  0
 14 33  1  0
 18 34  1  0
 21 35  1  0
 25 36  1  0
M  CHG  2   1  -1  21  -1
M  END
>  <UniqueID>  (57) 
53

>  <SMILES>  (57) 
[NH-]C(=O)c1cccc(Oc2ccccc2-c2ncc(S([NH-])(=O)=O)s2)c1

>  <Energy>  (57) 
78.92936927143803

>  <Genealogy>  (57) 
[NH-]C(=O)c1cccc(Oc2ccccc2-c2ncc(S([NH-])(=O)=O)s2)c1 (protonated)
[NH-]C(=O)c1cccc(Oc2ccccc2-c2ncc(S([NH-])(=O)=O)s2)c1 (3D coordinates assigned)
[NH-]C(=O)c1cccc(Oc2ccccc2-c2ncc(S([NH-])(=O)=O)s2)c1 (optimized conformer: 78.92936927143803 kcal/mol)

>  <smiles>  (57) 
NC(=O)c1cccc(Oc2ccccc2-c2ncc(S(N)(=O)=O)s2)c1

>  <score_type>  (57) 
oracle

>  <origin>  (57) 
adg

>  <m_score__min__energy>  (57) 
-13.4

>  <m_primary>  (57) 
energy

$$$$
57:0
     RDKit          3D

 46 48  0  0  0  0  0  0  0  0999 V2000
   59.8930   29.4730   45.1540 C   0  0  0  0  0  0  0  0  0  0  0  0
   59.7900   29.1210   46.4480 C   0  0  0  0  0  0  0  0  0  0  0  0
   58.8260   28.2570   46.9910 C   0  0  0  0  0  0  0  0  0  0  0  0
   57.8460   27.6120   46.3180 C   0  0  0  0  0  0  0  0  0  0  0  0
   57.2970   26.2760   46.6470 C   0  0  0  0  0  0  0  0  0  0  0  0
   57.9820   25.2390   47.1610 N   0  0  0  0  0  0  0  0  0  0  0  0
   57.0480   24.2720   47.2900 C   0  0  0  0  0  0  0  0  0  0  0  0
   57.3130   23.1300   47.7450 O   0  0  0  0  0  0  0  0  0  0  0  0
   55.8090   24.6280   46.8910 N   0  0  0  0  0  0  0  0  0  0  0  0
   55.9840   25.8970   46.4880 C   0  0  0  0  0  0  0  0  0  0  0  0
   54.9620   26.6920   45.9850 O   0  0  0  0  0  0  0  0  0  0  0  0
   59.0820   28.2050   48.3550 C   0  0  0  0  0  0  0  0  0  0  0  0
   60.1730   29.0150   48.5880 C   0  0  0  0  0  0  0  0  0  0  0  0
   60.7510   29.2800   49.9470 C   0  0  0  0  0  0  0  0  0  0  0  0
   60.6090   29.5750   47.4360 N   0  0  0  0  0  0  0  0  0  0  0  0
   61.7260   30.5310   47.3310 C   0  0  0  0  0  0  0  0  0  0  0  0
   61.2380   31.9460   47.5250 C   0  0  0  0  0  0  0  0  0  0  0  0
   60.3920   32.5300   46.5650 C   0  0  0  0  0  0  0  0  0  0  0  0
   59.9320   33.8470   46.7200 C   0  0  0  0  0  0  0  0  0  0  0  0
   59.0160   34.4460   45.7250 C   0  0  0  0  0  0  0  0  0  0  0  0
   59.3270   35.5510   45.2010 O   0  0  0  0  0  0  0  0  0  0  0  0
   57.7840   33.8020   45.3410 N   0  0  0  0  0  0  0  0  0  0  0  0
   56.6710   34.6240   44.8630 C   0  0  0  0  0  0  0  0  0  0  0  0
   57.6950   32.3390   45.2870 C   0  0  0  0  0  0  0  0  0  0  0  0
   60.3030   34.5740   47.8610 C   0  0  0  0  0  0  0  0  0  0  0  0
   61.1480   34.0040   48.8160 C   0  0  0  0  0  0  0  0  0  0  0  0
   61.6210   32.7000   48.6500 C   0  0  0  0  0  0  0  0  0  0  0  0
   62.4350   32.1720   49.5990 F   0  0  0  0  0  0  0  0  0  0  0  0
   60.6896   30.1602   44.8327 H   0  0  0  0  0  0  0  0  0  0  0  0
   59.1807   29.0737   44.4170 H   0  0  0  0  0  0  0  0  0  0  0  0
   57.4170   28.1270   45.4458 H   0  0  0  0  0  0  0  0  0  0  0  0
   58.5217   27.6281   49.1055 H   0  0  0  0  0  0  0  0  0  0  0  0
   60.0384   28.9533   50.7186 H   0  0  0  0  0  0  0  0  0  0  0  0
   61.6935   28.7241   50.0594 H   0  0  0  0  0  0  0  0  0  0  0  0
   60.9449   30.3569   50.0594 H   0  0  0  0  0  0  0  0  0  0  0  0
   62.4742   30.2982   48.1030 H   0  0  0  0  0  0  0  0  0  0  0  0
   62.1716   30.4451   46.3290 H   0  0  0  0  0  0  0  0  0  0  0  0
   60.0874   31.9480   45.6827 H   0  0  0  0  0  0  0  0  0  0  0  0
   56.1198   35.0311   45.7235 H   0  0  0  0  0  0  0  0  0  0  0  0
   57.0620   35.4518   44.2531 H   0  0  0  0  0  0  0  0  0  0  0  0
   55.9948   34.0068   44.2531 H   0  0  0  0  0  0  0  0  0  0  0  0
   57.6704   31.9351   46.3099 H   0  0  0  0  0  0  0  0  0  0  0  0
   56.7774   32.0469   44.7553 H   0  0  0  0  0  0  0  0  0  0  0  0
   58.5704   31.9378   44.7553 H   0  0  0  0  0  0  0  0  0  0  0  0
   59.9267   35.5977   48.0042 H   0  0  0  0  0  0  0  0  0  0  0  0
   61.4424   34.5845   49.7028 H   0  0  0  0  0  0  0  0  0  0  0  0
  1  2  2  0
  2  3  1  0
  3  4  2  3
  4  5  1  0
  5  6  1  0
  6  7  1  0
  7  8  2  0
  7  9  1  0
  9 10  1  0
 10 11  1  0
  3 12  1  0
 12 13  2  0
 13 14  1  0
 13 15  1  0
 15 16  1  0
 16 17  1  0
 17 18  2  0
 18 19  1  0
 19 20  1  0
 20 21  2  0
 20 22  1  0
 22 23  1  0
 22 24  1  0
 19 25  2  0
 25 26  1  0
 26 27  2  0
 27 28  1  0
 15  2  1  0
 27 17  1  0
 10  5  2  0
  1 29  1  0
  1 30  1  0
  4 31  1  0
 12 32  1  0
 14 33  1  0
 14 34  1  0
 14 35  1  0
 16 36  1  0
 16 37  1  0
 18 38  1  0
 23 39  1  0
 23 40  1  0
 23 41  1  0
 24 42  1  0
 24 43  1  0
 24 44  1  0
 25 45  1  0
 26 46  1  0
M  CHG  3   6  -1   9  -1  11  -1
M  END
>  <UniqueID>  (58) 
54

>  <SMILES>  (58) 
C=c1c(=Cc2[n-]c(=O)[n-]c2[O-])cc(C)n1Cc1cc(C(=O)N(C)C)ccc1F

>  <Energy>  (58) 
113.10428821006909

>  <Genealogy>  (58) 
C=c1c(=Cc2[n-]c(=O)[n-]c2[O-])cc(C)n1Cc1cc(C(=O)N(C)C)ccc1F (protonated)
C=c1c(=Cc2[n-]c(=O)[n-]c2[O-])cc(C)n1Cc1cc(C(=O)N(C)C)ccc1F (3D coordinates assigned)
C=c1c(=Cc2[n-]c(=O)[n-]c2[O-])cc(C)n1Cc1cc(C(=O)N(C)C)ccc1F (optimized conformer: 113.10428821006909 kcal/mol)

>  <smiles>  (58) 
C=c1c(=Cc2[nH]c(=O)[nH]c2O)cc(C)n1Cc1cc(C(=O)N(C)C)ccc1F

>  <score_type>  (58) 
oracle

>  <origin>  (58) 
adg

>  <m_score__min__energy>  (58) 
-15.779999999999999

>  <m_primary>  (58) 
energy

$$$$
58:0
     RDKit          3D

 43 46  0  0  1  0  0  0  0  0999 V2000
   58.0030   26.2280   45.8000 C   0  0  0  0  0  0  0  0  0  0  0  0
   58.5750   27.5320   45.5660 N   0  0  0  0  0  0  0  0  0  0  0  0
   59.9770   27.8050   45.6420 C   0  0  0  0  0  0  0  0  0  0  0  0
   60.6850   27.0940   46.3680 O   0  0  0  0  0  0  0  0  0  0  0  0
   60.4510   28.9410   44.8170 C   0  0  0  0  0  0  0  0  0  0  0  0
   59.6580   30.2010   45.3070 C   0  0  2  0  0  0  0  0  0  0  0  0
   59.7100   29.9510   46.8480 C   0  0  0  0  0  0  0  0  0  0  0  0
   58.5150   29.9150   47.5390 C   0  0  0  0  0  0  0  0  0  0  0  0
   58.5180   29.6980   48.9040 C   0  0  0  0  0  0  0  0  0  0  0  0
   59.7130   29.5180   49.5650 C   0  0  0  0  0  0  0  0  0  0  0  0
   59.7560   29.2390   51.3000 Cl  0  0  0  0  0  0  0  0  0  0  0  0
   60.9160   29.5560   48.8550 C   0  0  0  0  0  0  0  0  0  0  0  0
   60.9170   29.7770   47.4720 C   0  0  0  0  0  0  0  0  0  0  0  0
   58.3220   29.9310   45.0360 C   0  0  0  0  0  0  0  0  0  0  0  0
   57.7570   28.6740   45.2430 C   0  0  0  0  0  0  0  0  0  0  0  0
   56.4600   28.4170   45.0730 N   0  0  0  0  0  0  0  0  0  0  0  0
   55.6240   29.3790   44.6850 C   0  0  0  0  0  0  0  0  0  0  0  0
   56.0830   30.5950   44.4640 N   0  0  0  0  0  0  0  0  0  0  0  0
   57.4010   30.8990   44.6260 C   0  0  0  0  0  0  0  0  0  0  0  0
   57.7280   32.0870   44.3370 N   0  0  0  0  0  0  0  0  0  0  0  0
   58.2080   33.0480   45.2190 C   0  0  0  0  0  0  0  0  0  0  0  0
   59.0310   34.0900   44.7510 C   0  0  0  0  0  0  0  0  0  0  0  0
   59.5410   34.9650   45.6830 C   0  0  0  0  0  0  0  0  0  0  0  0
   59.2770   34.8550   47.0420 C   0  0  0  0  0  0  0  0  0  0  0  0
   58.4620   33.8210   47.4930 C   0  0  0  0  0  0  0  0  0  0  0  0
   57.9300   32.9210   46.5880 C   0  0  0  0  0  0  0  0  0  0  0  0
   57.9252   26.0507   46.8828 H   0  0  0  0  0  0  0  0  0  0  0  0
   57.0014   26.1804   45.3478 H   0  0  0  0  0  0  0  0  0  0  0  0
   58.6464   25.4589   45.3478 H   0  0  0  0  0  0  0  0  0  0  0  0
   61.5312   29.0913   44.9603 H   0  0  0  0  0  0  0  0  0  0  0  0
   60.2836   28.7547   43.7459 H   0  0  0  0  0  0  0  0  0  0  0  0
   60.0091   31.1644   44.9087 H   0  0  0  0  0  0  0  0  0  0  0  0
   57.5641   30.0585   47.0050 H   0  0  0  0  0  0  0  0  0  0  0  0
   57.5696   29.6691   49.4605 H   0  0  0  0  0  0  0  0  0  0  0  0
   61.8685   29.4114   49.3859 H   0  0  0  0  0  0  0  0  0  0  0  0
   61.8585   29.8099   46.9041 H   0  0  0  0  0  0  0  0  0  0  0  0
   56.0620   27.4680   45.2380 H   0  0  0  0  0  0  0  0  0  0  0  0
   54.5547   29.1595   44.5495 H   0  0  0  0  0  0  0  0  0  0  0  0
   59.2580   34.2007   43.6804 H   0  0  0  0  0  0  0  0  0  0  0  0
   60.1853   35.7866   45.3366 H   0  0  0  0  0  0  0  0  0  0  0  0
   59.7067   35.5761   47.7530 H   0  0  0  0  0  0  0  0  0  0  0  0
   58.2417   33.7200   48.5660 H   0  0  0  0  0  0  0  0  0  0  0  0
   57.2865   32.1025   46.9429 H   0  0  0  0  0  0  0  0  0  0  0  0
  1  2  1  0
  2  3  1  0
  3  4  2  0
  3  5  1  0
  5  6  1  0
  6  7  1  0
  7  8  2  0
  8  9  1  0
  9 10  2  0
 10 11  1  0
 10 12  1  0
 12 13  2  0
  6 14  1  0
 14 15  2  0
 15 16  1  0
 16 17  1  0
 17 18  2  0
 18 19  1  0
 19 20  2  0
 20 21  1  0
 21 22  2  0
 22 23  1  0
 23 24  2  0
 24 25  1  0
 25 26  2  0
 15  2  1  0
 26 21  1  0
 13  7  1  0
 19 14  1  0
  1 27  1  0
  1 28  1  0
  1 29  1  0
  5 30  1  0
  5 31  1  0
  6 32  1  1
  8 33  1  0
  9 34  1  0
 12 35  1  0
 13 36  1  0
 16 37  1  0
 17 38  1  0
 22 39  1  0
 23 40  1  0
 24 41  1  0
 25 42  1  0
 26 43  1  0
M  END
>  <smiles>  (59) 
CN1C(=O)CC(c2ccc(Cl)cc2)c2c1[nH]cnc2=Nc1ccccc1

>  <score_type>  (59) 
oracle

>  <origin>  (59) 
adg

>  <m_score__min__energy>  (59) 
-8.0500000000000007

>  <m_primary>  (59) 
energy

$$$$
59:0
     RDKit          3D

 63 67  0  0  0  0  0  0  0  0999 V2000
   55.1470   29.3810   45.1240 O   0  0  0  0  0  0  0  0  0  0  0  0
   56.1110   29.8840   44.4820 C   0  0  0  0  0  0  0  0  0  0  0  0
   57.0380   28.9860   43.7230 C   0  0  0  0  0  0  0  0  0  0  0  0
   57.8580   28.1590   44.6800 C   0  0  0  0  0  0  0  0  0  0  0  0
   59.2570   28.2940   44.6990 C   0  0  0  0  0  0  0  0  0  0  0  0
   60.0260   27.5650   45.6130 C   0  0  0  0  0  0  0  0  0  0  0  0
   59.4040   26.7010   46.5170 C   0  0  0  0  0  0  0  0  0  0  0  0
   58.0140   26.5660   46.5130 C   0  0  0  0  0  0  0  0  0  0  0  0
   57.2380   27.2940   45.6040 C   0  0  0  0  0  0  0  0  0  0  0  0
   55.8860   27.1600   45.6300 F   0  0  0  0  0  0  0  0  0  0  0  0
   56.3340   31.3020   44.4680 N   0  0  0  0  0  0  0  0  0  0  0  0
   57.3280   31.9250   45.0260 C   0  0  0  0  0  0  0  0  0  0  0  0
   58.3880   31.3080   45.5970 N   0  0  0  0  0  0  0  0  0  0  0  0
   59.2840   32.2070   46.0850 C   0  0  0  0  0  0  0  0  0  0  0  0
   58.9240   33.5350   45.9010 C   0  0  0  0  0  0  0  0  0  0  0  0
   59.8970   34.9530   46.3980 S   0  0  0  0  0  0  0  0  0  0  0  0
   61.2240   33.9360   47.0580 C   0  0  0  0  0  0  0  0  0  0  0  0
   62.3640   33.8180   46.3220 N   0  0  0  0  0  0  0  0  0  0  0  0
   63.4350   33.1060   46.7570 C   0  0  0  0  0  0  0  0  0  0  0  0
   63.3970   32.4780   48.0000 C   0  0  0  0  0  0  0  0  0  0  0  0
   62.2520   32.5900   48.7870 C   0  0  0  0  0  0  0  0  0  0  0  0
   61.1450   33.3230   48.3280 C   0  0  0  0  0  0  0  0  0  0  0  0
   59.9560   33.4590   49.2020 C   0  0  0  0  0  0  0  0  0  0  0  0
   59.6510   34.5860   49.6730 O   0  0  0  0  0  0  0  0  0  0  0  0
   59.0840   32.3480   49.4560 N   0  0  0  0  0  0  0  0  0  0  0  0
   59.4930   30.9780   49.5930 C   0  0  0  0  0  0  0  0  0  0  0  0
   59.8490   30.2000   48.4770 C   0  0  0  0  0  0  0  0  0  0  0  0
   60.2550   28.8740   48.6440 C   0  0  0  0  0  0  0  0  0  0  0  0
   60.3210   28.3090   49.9260 C   0  0  0  0  0  0  0  0  0  0  0  0
   60.7930   26.8870   50.1000 C   0  0  0  0  0  0  0  0  0  0  0  0
   61.0310   26.5820   51.5270 N   0  0  0  0  0  0  0  0  0  0  0  0
   62.4460   26.8230   51.9080 C   0  0  0  0  0  0  0  0  0  0  0  0
   63.2480   25.5120   52.0120 C   0  0  0  0  0  0  0  0  0  0  0  0
   62.7130   24.5840   52.9480 O   0  0  0  0  0  0  0  0  0  0  0  0
   61.3050   24.6880   53.1170 C   0  0  0  0  0  0  0  0  0  0  0  0
   60.5760   25.2130   51.8710 C   0  0  0  0  0  0  0  0  0  0  0  0
   59.9990   29.0970   51.0420 C   0  0  0  0  0  0  0  0  0  0  0  0
   59.5920   30.4250   50.8740 C   0  0  0  0  0  0  0  0  0  0  0  0
   57.4490   33.6010   45.0950 S   0  0  0  0  0  0  0  0  0  0  0  0
   56.4494   28.3179   43.0771 H   0  0  0  0  0  0  0  0  0  0  0  0
   57.7128   29.6011   43.1097 H   0  0  0  0  0  0  0  0  0  0  0  0
   59.7502   28.9766   43.9913 H   0  0  0  0  0  0  0  0  0  0  0  0
   61.1207   27.6725   45.6195 H   0  0  0  0  0  0  0  0  0  0  0  0
   60.0097   26.1261   47.2330 H   0  0  0  0  0  0  0  0  0  0  0  0
   57.5274   25.8851   47.2268 H   0  0  0  0  0  0  0  0  0  0  0  0
   60.2170   31.9067   46.5843 H   0  0  0  0  0  0  0  0  0  0  0  0
   64.3334   33.0249   46.1275 H   0  0  0  0  0  0  0  0  0  0  0  0
   64.2619   31.8996   48.3568 H   0  0  0  0  0  0  0  0  0  0  0  0
   62.2151   32.1021   49.7722 H   0  0  0  0  0  0  0  0  0  0  0  0
   59.8076   30.6374   47.4686 H   0  0  0  0  0  0  0  0  0  0  0  0
   60.5244   28.2696   47.7653 H   0  0  0  0  0  0  0  0  0  0  0  0
   60.0263   26.2024   49.7082 H   0  0  0  0  0  0  0  0  0  0  0  0
   61.7376   26.7601   49.5508 H   0  0  0  0  0  0  0  0  0  0  0  0
   62.9137   27.4659   51.1478 H   0  0  0  0  0  0  0  0  0  0  0  0
   62.4538   27.3049   52.8968 H   0  0  0  0  0  0  0  0  0  0  0  0
   63.2630   25.0351   51.0208 H   0  0  0  0  0  0  0  0  0  0  0  0
   64.2545   25.7796   52.3660 H   0  0  0  0  0  0  0  0  0  0  0  0
   60.9085   23.6907   53.3581 H   0  0  0  0  0  0  0  0  0  0  0  0
   61.1286   25.4133   53.9250 H   0  0  0  0  0  0  0  0  0  0  0  0
   60.7820   24.5419   51.0241 H   0  0  0  0  0  0  0  0  0  0  0  0
   59.4972   25.2450   52.0834 H   0  0  0  0  0  0  0  0  0  0  0  0
   60.0669   28.6687   52.0529 H   0  0  0  0  0  0  0  0  0  0  0  0
   59.3484   31.0378   51.7544 H   0  0  0  0  0  0  0  0  0  0  0  0
  1  2  2  0
  2  3  1  0
  3  4  1  0
  4  5  2  0
  5  6  1  0
  6  7  2  0
  7  8  1  0
  8  9  2  0
  9 10  1  0
  2 11  1  0
 11 12  2  3
 12 13  1  0
 13 14  1  0
 14 15  2  0
 15 16  1  0
 16 17  1  0
 17 18  2  0
 18 19  1  0
 19 20  2  0
 20 21  1  0
 21 22  2  0
 22 23  1  0
 23 24  2  0
 23 25  1  0
 25 26  1  0
 26 27  2  0
 27 28  1  0
 28 29  2  0
 29 30  1  0
 30 31  1  0
 31 32  1  0
 32 33  1  0
 33 34  1  0
 34 35  1  0
 35 36  1  0
 29 37  1  0
 37 38  2  0
 15 39  1  0
  9  4  1  0
 39 12  1  0
 22 17  1  0
 38 26  1  0
 36 31  1  0
  3 40  1  0
  3 41  1  0
  5 42  1  0
  6 43  1  0
  7 44  1  0
  8 45  1  0
 14 46  1  0
 19 47  1  0
 20 48  1  0
 21 49  1  0
 27 50  1  0
 28 51  1  0
 30 52  1  0
 30 53  1  0
 32 54  1  0
 32 55  1  0
 33 56  1  0
 33 57  1  0
 35 58  1  0
 35 59  1  0
 36 60  1  0
 36 61  1  0
 37 62  1  0
 38 63  1  0
M  CHG  2  13  -1  25  -1
M  END
>  <UniqueID>  (60) 
55

>  <SMILES>  (60) 
O=C(Cc1ccccc1F)N=c1[n-]cc(Sc2ncccc2C(=O)[N-]c2ccc(CN3CCOCC3)cc2)s1

>  <Energy>  (60) 
120.26015897281138

>  <Genealogy>  (60) 
O=C(Cc1ccccc1F)N=c1[n-]cc(Sc2ncccc2C(=O)[N-]c2ccc(CN3CCOCC3)cc2)s1 (protonated)
O=C(Cc1ccccc1F)N=c1[n-]cc(Sc2ncccc2C(=O)[N-]c2ccc(CN3CCOCC3)cc2)s1 (3D coordinates assigned)
O=C(Cc1ccccc1F)N=c1[n-]cc(Sc2ncccc2C(=O)[N-]c2ccc(CN3CCOCC3)cc2)s1 (nonaromatic ring conformer: 120.26015897281138 kcal/mol)

>  <smiles>  (60) 
O=C(Cc1ccccc1F)N=c1[nH]cc(Sc2ncccc2C(=O)Nc2ccc(CN3CCOCC3)cc2)s1

>  <score_type>  (60) 
oracle

>  <origin>  (60) 
adg

>  <m_score__min__energy>  (60) 
-12.81

>  <m_primary>  (60) 
energy

$$$$
60:0
     RDKit          3D

 73 77  0  0  0  0  0  0  0  0999 V2000
   56.6900   31.1560   42.7220 O   0  0  0  0  0  0  0  0  0  0  0  0
   56.9350   30.5880   44.0930 S   0  0  0  0  0  0  0  0  0  0  0  0
   55.6090   30.1510   44.6510 O   0  0  0  0  0  0  0  0  0  0  0  0
   57.6040   31.8550   45.1220 C   0  0  0  0  0  0  0  0  0  0  0  0
   57.5690   33.1920   44.7060 C   0  0  0  0  0  0  0  0  0  0  0  0
   58.1230   34.1900   45.5080 C   0  0  0  0  0  0  0  0  0  0  0  0
   58.7180   33.8630   46.7300 C   0  0  0  0  0  0  0  0  0  0  0  0
   58.7580   32.5270   47.1640 C   0  0  0  0  0  0  0  0  0  0  0  0
   59.4170   32.1690   48.4410 C   0  0  0  0  0  0  0  0  0  0  0  0
   59.6440   33.3490   49.5640 S   0  0  0  0  0  0  0  0  0  0  0  0
   59.6630   30.7850   48.7610 N   0  0  0  0  0  0  0  0  0  0  0  0
   60.4230   30.3320   49.8920 C   0  0  0  0  0  0  0  0  0  0  0  0
   59.7940   29.7710   51.0150 C   0  0  0  0  0  0  0  0  0  0  0  0
   60.5510   29.3610   52.1170 C   0  0  0  0  0  0  0  0  0  0  0  0
   61.9460   29.5130   52.1150 C   0  0  0  0  0  0  0  0  0  0  0  0
   62.7330   29.0810   53.2400 N   0  0  0  0  0  0  0  0  0  0  0  0
   62.6580   27.6930   53.7000 C   0  0  0  0  0  0  0  0  0  0  0  0
   62.8680   27.6370   55.2170 C   0  0  0  0  0  0  0  0  0  0  0  0
   64.1030   28.3320   55.6330 N   0  0  0  0  0  0  0  0  0  0  0  0
   65.3290   27.5870   55.2610 C   0  0  0  0  0  0  0  0  0  0  0  0
   66.3880   28.5100   54.6360 C   0  0  0  0  0  0  0  0  0  0  0  0
   66.7120   28.1100   53.2200 C   0  0  0  0  0  0  0  0  0  0  0  0
   67.6240   28.8640   52.4660 C   0  0  0  0  0  0  0  0  0  0  0  0
   67.8950   28.5190   51.1390 C   0  0  0  0  0  0  0  0  0  0  0  0
   67.2580   27.4190   50.5520 C   0  0  0  0  0  0  0  0  0  0  0  0
   67.5220   27.0660   49.2300 O   0  0  0  0  0  0  0  0  0  0  0  0
   66.3440   26.6670   51.2980 C   0  0  0  0  0  0  0  0  0  0  0  0
   65.7170   25.6030   50.7370 F   0  0  0  0  0  0  0  0  0  0  0  0
   66.0680   27.0140   52.6240 C   0  0  0  0  0  0  0  0  0  0  0  0
   64.1010   29.7430   55.1850 C   0  0  0  0  0  0  0  0  0  0  0  0
   63.8750   29.8920   53.6720 C   0  0  0  0  0  0  0  0  0  0  0  0
   62.5700   30.0970   51.0030 C   0  0  0  0  0  0  0  0  0  0  0  0
   61.8120   30.5130   49.9040 C   0  0  0  0  0  0  0  0  0  0  0  0
   58.1910   31.5280   46.3540 C   0  0  0  0  0  0  0  0  0  0  0  0
   57.9980   29.2030   43.9520 N   0  0  0  0  0  0  0  0  0  0  0  0
   59.3510   29.4630   44.4870 C   0  0  0  0  0  0  0  0  0  0  0  0
   59.5570   28.8950   45.9040 C   0  0  0  0  0  0  0  0  0  0  0  0
   58.3300   28.8140   46.5920 O   0  0  0  0  0  0  0  0  0  0  0  0
   57.5230   27.8150   46.0040 C   0  0  0  0  0  0  0  0  0  0  0  0
   57.3890   27.9640   44.4700 C   0  0  0  0  0  0  0  0  0  0  0  0
   57.1036   33.4557   43.7448 H   0  0  0  0  0  0  0  0  0  0  0  0
   58.0915   35.2387   45.1774 H   0  0  0  0  0  0  0  0  0  0  0  0
   59.1568   34.6550   47.3546 H   0  0  0  0  0  0  0  0  0  0  0  0
   59.2640   30.0460   48.1370 H   0  0  0  0  0  0  0  0  0  0  0  0
   58.7004   29.6534   51.0280 H   0  0  0  0  0  0  0  0  0  0  0  0
   60.0503   28.9170   52.9900 H   0  0  0  0  0  0  0  0  0  0  0  0
   61.6693   27.2792   53.4527 H   0  0  0  0  0  0  0  0  0  0  0  0
   63.4417   27.1027   53.2027 H   0  0  0  0  0  0  0  0  0  0  0  0
   62.0089   28.1136   55.7118 H   0  0  0  0  0  0  0  0  0  0  0  0
   62.9599   26.5800   55.5074 H   0  0  0  0  0  0  0  0  0  0  0  0
   65.7506   27.1209   56.1638 H   0  0  0  0  0  0  0  0  0  0  0  0
   65.0548   26.8259   54.5156 H   0  0  0  0  0  0  0  0  0  0  0  0
   66.0062   29.5416   54.6363 H   0  0  0  0  0  0  0  0  0  0  0  0
   67.3080   28.4293   55.2335 H   0  0  0  0  0  0  0  0  0  0  0  0
   68.1275   29.7298   52.9209 H   0  0  0  0  0  0  0  0  0  0  0  0
   68.6114   29.1139   50.5536 H   0  0  0  0  0  0  0  0  0  0  0  0
   66.7960   26.6990   48.6250 H   0  0  0  0  0  0  0  0  0  0  0  0
   65.3421   26.4249   53.2036 H   0  0  0  0  0  0  0  0  0  0  0  0
   63.2981   30.2776   55.7137 H   0  0  0  0  0  0  0  0  0  0  0  0
   65.0922   30.1621   55.4126 H   0  0  0  0  0  0  0  0  0  0  0  0
   63.6775   30.9485   53.4380 H   0  0  0  0  0  0  0  0  0  0  0  0
   64.7757   29.5477   53.1427 H   0  0  0  0  0  0  0  0  0  0  0  0
   63.6621   30.2286   50.9953 H   0  0  0  0  0  0  0  0  0  0  0  0
   62.3094   30.9851   49.0439 H   0  0  0  0  0  0  0  0  0  0  0  0
   58.2075   30.4803   46.6888 H   0  0  0  0  0  0  0  0  0  0  0  0
   60.0888   29.0020   43.8138 H   0  0  0  0  0  0  0  0  0  0  0  0
   59.4767   30.5541   44.5482 H   0  0  0  0  0  0  0  0  0  0  0  0
   59.9961   27.8892   45.8294 H   0  0  0  0  0  0  0  0  0  0  0  0
   60.2298   29.5653   46.4590 H   0  0  0  0  0  0  0  0  0  0  0  0
   57.9679   26.8329   46.2223 H   0  0  0  0  0  0  0  0  0  0  0  0
   56.5145   27.9161   46.4314 H   0  0  0  0  0  0  0  0  0  0  0  0
   57.8818   27.1052   43.9908 H   0  0  0  0  0  0  0  0  0  0  0  0
   56.3146   28.0057   44.2379 H   0  0  0  0  0  0  0  0  0  0  0  0
  1  2  2  0
  2  3  2  0
  2  4  1  0
  4  5  2  0
  5  6  1  0
  6  7  2  0
  7  8  1  0
  8  9  1  0
  9 10  2  0
  9 11  1  0
 11 12  1  0
 12 13  2  0
 13 14  1  0
 14 15  2  0
 15 16  1  0
 16 17  1  0
 17 18  1  0
 18 19  1  0
 19 20  1  0
 20 21  1  0
 21 22  1  0
 22 23  2  0
 23 24  1  0
 24 25  2  0
 25 26  1  0
 25 27  1  0
 27 28  1  0
 27 29  2  0
 19 30  1  0
 30 31  1  0
 15 32  1  0
 32 33  2  0
  8 34  2  0
  2 35  1  0
 35 36  1  0
 36 37  1  0
 37 38  1  0
 38 39  1  0
 39 40  1  0
 34  4  1  0
 40 35  1  0
 33 12  1  0
 31 16  1  0
 29 22  1  0
  5 41  1  0
  6 42  1  0
  7 43  1  0
 11 44  1  0
 13 45  1  0
 14 46  1  0
 17 47  1  0
 17 48  1  0
 18 49  1  0
 18 50  1  0
 20 51  1  0
 20 52  1  0
 21 53  1  0
 21 54  1  0
 23 55  1  0
 24 56  1  0
 26 57  1  0
 29 58  1  0
 30 59  1  0
 30 60  1  0
 31 61  1  0
 31 62  1  0
 32 63  1  0
 33 64  1  0
 34 65  1  0
 36 66  1  0
 36 67  1  0
 37 68  1  0
 37 69  1  0
 39 70  1  0
 39 71  1  0
 40 72  1  0
 40 73  1  0
M  END
>  <UniqueID>  (61) 
56

>  <SMILES>  (61) 
O=S(=O)(c1cccc(C(=S)Nc2ccc(N3CCN(CCc4ccc(O)c(F)c4)CC3)cc2)c1)N1CCOCC1

>  <Energy>  (61) 
102.95780403761053

>  <Genealogy>  (61) 
O=S(=O)(c1cccc(C(=S)Nc2ccc(N3CCN(CCc4ccc(O)c(F)c4)CC3)cc2)c1)N1CCOCC1 (3D coordinates assigned)
O=S(=O)(c1cccc(C(=S)Nc2ccc(N3CCN(CCc4ccc(O)c(F)c4)CC3)cc2)c1)N1CCOCC1 (nonaromatic ring conformer: 102.95780403761053 kcal/mol)

>  <smiles>  (61) 
O=S(=O)(c1cccc(C(=S)Nc2ccc(N3CCN(CCc4ccc(O)c(F)c4)CC3)cc2)c1)N1CCOCC1

>  <score_type>  (61) 
oracle

>  <origin>  (61) 
adg

>  <m_score__min__energy>  (61) 
-10.23

>  <m_primary>  (61) 
energy

$$$$
61:0
     RDKit          3D

 50 52  0  0  0  0  0  0  0  0999 V2000
   61.5970   32.1090   49.7140 C   0  0  0  0  0  0  0  0  0  0  0  0
   61.6120   32.2520   48.2590 N   0  0  0  0  0  0  0  0  0  0  0  0
   60.4140   32.0090   47.4990 C   0  0  0  0  0  0  0  0  0  0  0  0
   59.6320   30.8710   47.7530 C   0  0  0  0  0  0  0  0  0  0  0  0
   58.4910   30.6370   46.9860 C   0  0  0  0  0  0  0  0  0  0  0  0
   58.1470   31.5200   45.9590 C   0  0  0  0  0  0  0  0  0  0  0  0
   56.9900   31.2890   45.1510 N   0  0  0  0  0  0  0  0  0  0  0  0
   56.6100   30.0040   44.6440 C   0  0  0  0  0  0  0  0  0  0  0  0
   55.4490   29.5700   44.8770 O   0  0  0  0  0  0  0  0  0  0  0  0
   57.5340   29.2030   43.7650 C   0  0  0  0  0  0  0  0  0  0  0  0
   58.3200   28.1910   44.5560 C   0  0  0  0  0  0  0  0  0  0  0  0
   59.6230   28.4910   44.9870 C   0  0  0  0  0  0  0  0  0  0  0  0
   60.3570   27.5510   45.7140 C   0  0  0  0  0  0  0  0  0  0  0  0
   59.7960   26.3050   46.0170 C   0  0  0  0  0  0  0  0  0  0  0  0
   58.4940   25.9940   45.6110 C   0  0  0  0  0  0  0  0  0  0  0  0
   57.9900   24.7170   45.9040 O   0  0  0  0  0  0  0  0  0  0  0  0
   57.6340   23.7290   44.9710 C   0  0  0  0  0  0  0  0  0  0  0  0
   56.6280   24.0200   44.0410 C   0  0  0  0  0  0  0  0  0  0  0  0
   56.2760   23.0840   43.0610 C   0  0  0  0  0  0  0  0  0  0  0  0
   56.9260   21.8470   43.0050 C   0  0  0  0  0  0  0  0  0  0  0  0
   57.9400   21.5510   43.9250 C   0  0  0  0  0  0  0  0  0  0  0  0
   58.2990   22.4880   44.9010 C   0  0  0  0  0  0  0  0  0  0  0  0
   57.7580   26.9420   44.8770 C   0  0  0  0  0  0  0  0  0  0  0  0
   58.9330   32.6550   45.7470 C   0  0  0  0  0  0  0  0  0  0  0  0
   60.0450   32.8700   46.5020 N   0  0  0  0  0  0  0  0  0  0  0  0
   63.0750   32.7650   47.4710 S   0  0  0  0  0  0  0  0  0  0  0  0
   64.1920   33.4530   48.6720 C   0  0  0  0  0  0  0  0  0  0  0  0
   62.7650   33.8000   46.4250 O   0  0  0  0  0  0  0  0  0  0  0  0
   63.7190   31.5840   46.8010 O   0  0  0  0  0  0  0  0  0  0  0  0
   61.7009   33.0996   50.1809 H   0  0  0  0  0  0  0  0  0  0  0  0
   60.6462   31.6536   50.0279 H   0  0  0  0  0  0  0  0  0  0  0  0
   62.4327   31.4662   50.0279 H   0  0  0  0  0  0  0  0  0  0  0  0
   59.9171   30.1694   48.5508 H   0  0  0  0  0  0  0  0  0  0  0  0
   57.8621   29.7577   47.1894 H   0  0  0  0  0  0  0  0  0  0  0  0
   56.9363   28.6760   43.0067 H   0  0  0  0  0  0  0  0  0  0  0  0
   58.2459   29.8972   43.2946 H   0  0  0  0  0  0  0  0  0  0  0  0
   60.0667   29.4695   44.7511 H   0  0  0  0  0  0  0  0  0  0  0  0
   61.3771   27.7902   46.0488 H   0  0  0  0  0  0  0  0  0  0  0  0
   60.3838   25.5643   46.5790 H   0  0  0  0  0  0  0  0  0  0  0  0
   56.1111   24.9902   44.0808 H   0  0  0  0  0  0  0  0  0  0  0  0
   55.4862   23.3222   42.3333 H   0  0  0  0  0  0  0  0  0  0  0  0
   56.6418   21.1086   42.2408 H   0  0  0  0  0  0  0  0  0  0  0  0
   58.4553   20.5802   43.8804 H   0  0  0  0  0  0  0  0  0  0  0  0
   59.1024   22.2553   45.6154 H   0  0  0  0  0  0  0  0  0  0  0  0
   56.7345   26.7046   44.5514 H   0  0  0  0  0  0  0  0  0  0  0  0
   58.6523   33.3779   44.9669 H   0  0  0  0  0  0  0  0  0  0  0  0
   60.6150   33.7240   46.3110 H   0  0  0  0  0  0  0  0  0  0  0  0
   63.8260   33.2276   49.6845 H   0  0  0  0  0  0  0  0  0  0  0  0
   65.1914   33.0137   48.5371 H   0  0  0  0  0  0  0  0  0  0  0  0
   64.2494   34.5432   48.5371 H   0  0  0  0  0  0  0  0  0  0  0  0
  1  2  1  0
  2  3  1  0
  3  4  2  0
  4  5  1  0
  5  6  2  0
  6  7  1  0
  7  8  1  0
  8  9  2  0
  8 10  1  0
 10 11  1  0
 11 12  2  0
 12 13  1  0
 13 14  2  0
 14 15  1  0
 15 16  1  0
 16 17  1  0
 17 18  2  0
 18 19  1  0
 19 20  2  0
 20 21  1  0
 21 22  2  0
 15 23  2  0
  6 24  1  0
 24 25  2  0
  2 26  1  0
 26 27  1  0
 26 28  2  0
 26 29  2  0
 25  3  1  0
 23 11  1  0
 22 17  1  0
  1 30  1  0
  1 31  1  0
  1 32  1  0
  4 33  1  0
  5 34  1  0
 10 35  1  0
 10 36  1  0
 12 37  1  0
 13 38  1  0
 14 39  1  0
 18 40  1  0
 19 41  1  0
 20 42  1  0
 21 43  1  0
 22 44  1  0
 23 45  1  0
 24 46  1  0
 25 47  1  0
 27 48  1  0
 27 49  1  0
 27 50  1  0
M  CHG  2   7  -1  25   1
M  END
>  <UniqueID>  (62) 
57

>  <SMILES>  (62) 
CN(c1ccc([N-]C(=O)Cc2cccc(Oc3ccccc3)c2)c[nH+]1)S(C)(=O)=O

>  <Energy>  (62) 
60.15972946563821

>  <Genealogy>  (62) 
CN(c1ccc([N-]C(=O)Cc2cccc(Oc3ccccc3)c2)c[nH+]1)S(C)(=O)=O (protonated)
CN(c1ccc([N-]C(=O)Cc2cccc(Oc3ccccc3)c2)c[nH+]1)S(C)(=O)=O (3D coordinates assigned)
CN(c1ccc([N-]C(=O)Cc2cccc(Oc3ccccc3)c2)c[nH+]1)S(C)(=O)=O (optimized conformer: 60.15972946563821 kcal/mol)

>  <smiles>  (62) 
CN(c1ccc(NC(=O)Cc2cccc(Oc3ccccc3)c2)cn1)S(C)(=O)=O

>  <score_type>  (62) 
oracle

>  <origin>  (62) 
adg

>  <m_score__min__energy>  (62) 
-9.3399999999999999

>  <m_primary>  (62) 
energy

$$$$
62:0
     RDKit          3D

 61 63  0  0  0  0  0  0  0  0999 V2000
   58.8500   29.8810   51.3110 C   0  0  0  0  0  0  0  0  0  0  0  0
   58.4930   30.5870   50.0710 N   0  0  0  0  0  0  0  0  0  0  0  0
   58.1890   31.9940   50.3860 C   0  0  0  0  0  0  0  0  0  0  0  0
   59.5920   30.4760   49.0870 C   0  0  0  0  0  0  0  0  0  0  0  0
   59.1980   29.6120   47.8730 C   0  0  0  0  0  0  0  0  0  0  0  0
   60.3060   29.4480   46.8160 C   0  0  0  0  0  0  0  0  0  0  0  0
   60.0870   28.0330   45.7340 S   0  0  0  0  0  0  0  0  0  0  0  0
   60.1260   28.5010   44.3070 O   0  0  0  0  0  0  0  0  0  0  0  0
   61.2560   27.1210   45.9720 O   0  0  0  0  0  0  0  0  0  0  0  0
   58.5310   27.2180   46.0220 C   0  0  0  0  0  0  0  0  0  0  0  0
   58.5570   25.9990   46.7210 C   0  0  0  0  0  0  0  0  0  0  0  0
   57.3970   25.2430   46.8830 C   0  0  0  0  0  0  0  0  0  0  0  0
   56.1880   25.6990   46.3630 C   0  0  0  0  0  0  0  0  0  0  0  0
   56.1310   26.9280   45.7070 C   0  0  0  0  0  0  0  0  0  0  0  0
   57.2860   27.7150   45.5510 C   0  0  0  0  0  0  0  0  0  0  0  0
   57.1390   29.0580   44.9540 C   0  0  0  0  0  0  0  0  0  0  0  0
   56.6120   29.3430   43.7060 C   0  0  0  0  0  0  0  0  0  0  0  0
   56.6730   30.7150   43.5770 C   0  0  0  0  0  0  0  0  0  0  0  0
   57.2270   31.1780   44.7560 C   0  0  0  0  0  0  0  0  0  0  0  0
   57.5330   32.5770   45.0810 C   0  0  0  0  0  0  0  0  0  0  0  0
   57.4200   33.4650   44.1920 O   0  0  0  0  0  0  0  0  0  0  0  0
   57.9850   32.9240   46.3980 N   0  0  0  0  0  0  0  0  0  0  0  0
   58.5220   34.2450   46.7170 C   0  0  0  0  0  0  0  0  0  0  0  0
   59.8650   34.1110   47.3830 C   0  0  0  0  0  0  0  0  0  0  0  0
   60.9980   33.7490   46.6430 C   0  0  0  0  0  0  0  0  0  0  0  0
   62.2360   33.6020   47.2740 C   0  0  0  0  0  0  0  0  0  0  0  0
   62.3660   33.8160   48.6590 C   0  0  0  0  0  0  0  0  0  0  0  0
   63.6840   33.6470   49.3240 C   0  0  0  0  0  0  0  0  0  0  0  0
   63.8220   33.9900   50.5670 N   0  0  0  0  0  0  0  0  0  0  0  0
   64.8020   33.0950   48.6180 N   0  0  0  0  0  0  0  0  0  0  0  0
   61.2210   34.1670   49.3990 C   0  0  0  0  0  0  0  0  0  0  0  0
   59.9840   34.3170   48.7660 C   0  0  0  0  0  0  0  0  0  0  0  0
   57.4810   30.1720   45.5580 O   0  0  0  0  0  0  0  0  0  0  0  0
   58.5445   30.4852   52.1779 H   0  0  0  0  0  0  0  0  0  0  0  0
   58.3348   28.9096   51.3412 H   0  0  0  0  0  0  0  0  0  0  0  0
   59.9378   29.7202   51.3412 H   0  0  0  0  0  0  0  0  0  0  0  0
   58.1602   32.1274   51.4775 H   0  0  0  0  0  0  0  0  0  0  0  0
   58.9678   32.6421   49.9578 H   0  0  0  0  0  0  0  0  0  0  0  0
   57.2121   32.2628   49.9578 H   0  0  0  0  0  0  0  0  0  0  0  0
   59.8556   31.4841   48.7344 H   0  0  0  0  0  0  0  0  0  0  0  0
   60.4450   29.9917   49.5849 H   0  0  0  0  0  0  0  0  0  0  0  0
   58.9220   28.6120   48.2387 H   0  0  0  0  0  0  0  0  0  0  0  0
   58.3673   30.1339   47.3754 H   0  0  0  0  0  0  0  0  0  0  0  0
   60.3283   30.3563   46.1959 H   0  0  0  0  0  0  0  0  0  0  0  0
   61.2449   29.2837   47.3651 H   0  0  0  0  0  0  0  0  0  0  0  0
   59.5048   25.6368   47.1457 H   0  0  0  0  0  0  0  0  0  0  0  0
   57.4365   24.2850   47.4222 H   0  0  0  0  0  0  0  0  0  0  0  0
   55.2784   25.0897   46.4698 H   0  0  0  0  0  0  0  0  0  0  0  0
   55.1711   27.2863   45.3067 H   0  0  0  0  0  0  0  0  0  0  0  0
   56.2246   28.6238   42.9693 H   0  0  0  0  0  0  0  0  0  0  0  0
   56.3482   31.3160   42.7149 H   0  0  0  0  0  0  0  0  0  0  0  0
   57.9770   32.1990   47.1490 H   0  0  0  0  0  0  0  0  0  0  0  0
   58.6322   34.8264   45.7897 H   0  0  0  0  0  0  0  0  0  0  0  0
   57.8307   34.7587   47.4013 H   0  0  0  0  0  0  0  0  0  0  0  0
   60.9126   33.5796   45.5595 H   0  0  0  0  0  0  0  0  0  0  0  0
   63.1181   33.3161   46.6822 H   0  0  0  0  0  0  0  0  0  0  0  0
   63.0180   33.9790   51.2340 H   0  0  0  0  0  0  0  0  0  0  0  0
   65.7400   33.0350   49.0730 H   0  0  0  0  0  0  0  0  0  0  0  0
   64.6930   32.6700   47.6710 H   0  0  0  0  0  0  0  0  0  0  0  0
   61.3006   34.3246   50.4847 H   0  0  0  0  0  0  0  0  0  0  0  0
   59.0987   34.5981   49.3552 H   0  0  0  0  0  0  0  0  0  0  0  0
  1  2  1  0
  2  3  1  0
  2  4  1  0
  4  5  1  0
  5  6  1  0
  6  7  1  0
  7  8  2  0
  7  9  2  0
  7 10  1  0
 10 11  2  0
 11 12  1  0
 12 13  2  0
 13 14  1  0
 14 15  2  0
 15 16  1  0
 16 17  2  0
 17 18  1  0
 18 19  2  0
 19 20  1  0
 20 21  2  0
 20 22  1  0
 22 23  1  0
 23 24  1  0
 24 25  2  0
 25 26  1  0
 26 27  2  0
 27 28  1  0
 28 29  2  3
 28 30  1  0
 27 31  1  0
 31 32  2  0
 19 33  1  0
 15 10  1  0
 33 16  1  0
 32 24  1  0
  1 34  1  0
  1 35  1  0
  1 36  1  0
  3 37  1  0
  3 38  1  0
  3 39  1  0
  4 40  1  0
  4 41  1  0
  5 42  1  0
  5 43  1  0
  6 44  1  0
  6 45  1  0
 11 46  1  0
 12 47  1  0
 13 48  1  0
 14 49  1  0
 17 50  1  0
 18 51  1  0
 22 52  1  0
 23 53  1  0
 23 54  1  0
 25 55  1  0
 26 56  1  0
 29 57  1  0
 30 58  1  0
 30 59  1  0
 31 60  1  0
 32 61  1  0
M  END
>  <UniqueID>  (63) 
58

>  <SMILES>  (63) 
CN(C)CCCS(=O)(=O)c1ccccc1-c1ccc(C(=O)NCc2ccc(C(=N)N)cc2)o1

>  <Energy>  (63) 
87.16495440844704

>  <Genealogy>  (63) 
CN(C)CCCS(=O)(=O)c1ccccc1-c1ccc(C(=O)NCc2ccc(C(=N)N)cc2)o1 (3D coordinates assigned)
CN(C)CCCS(=O)(=O)c1ccccc1-c1ccc(C(=O)NCc2ccc(C(=N)N)cc2)o1 (optimized conformer: 87.16495440844704 kcal/mol)

>  <smiles>  (63) 
CN(C)CCCS(=O)(=O)c1ccccc1-c1ccc(C(=O)NCc2ccc(C(=N)N)cc2)o1

>  <score_type>  (63) 
oracle

>  <origin>  (63) 
adg

>  <m_score__min__energy>  (63) 
-9.6500000000000004

>  <m_primary>  (63) 
energy

$$$$
63:0
     RDKit          3D

 24 24  0  0  0  0  0  0  0  0999 V2000
   54.7990   29.0240   42.6440 H   0  0  0  0  0  0  0  0  0  0  0  0
   54.9270   29.3480   43.6300 N   0  0  0  0  0  0  0  0  0  0  0  0
   56.0790   29.7210   44.0880 C   0  0  0  0  0  0  0  0  0  0  0  0
   56.2480   31.0010   44.5050 N   0  0  0  0  0  0  0  0  0  0  0  0
   57.4410   31.4340   44.9920 C   0  0  0  0  0  0  0  0  0  0  0  0
   57.6080   32.7570   45.4190 O   0  0  0  0  0  0  0  0  0  0  0  0
   58.2860   33.7500   44.6520 C   0  0  0  0  0  0  0  0  0  0  0  0
   58.8995   33.2561   43.8841 H   0  0  0  0  0  0  0  0  0  0  0  0
   57.5374   34.4042   44.1813 H   0  0  0  0  0  0  0  0  0  0  0  0
   59.1740   34.5870   45.5290 C   0  0  0  0  0  0  0  0  0  0  0  0
   59.9109   35.2589   45.0647 H   0  0  0  0  0  0  0  0  0  0  0  0
   59.0870   34.5320   46.8600 C   0  0  0  0  0  0  0  0  0  0  0  0
   59.7482   35.1546   47.4806 H   0  0  0  0  0  0  0  0  0  0  0  0
   58.3541   33.8641   47.3361 H   0  0  0  0  0  0  0  0  0  0  0  0
   58.5160   30.5480   45.0690 C   0  0  0  0  0  0  0  0  0  0  0  0
   59.4882   30.8804   45.4619 H   0  0  0  0  0  0  0  0  0  0  0  0
   58.3350   29.2240   44.6360 C   0  0  0  0  0  0  0  0  0  0  0  0
   59.3700   28.2770   44.6810 O   0  0  0  0  0  0  0  0  0  0  0  0
   60.7450   28.5950   44.8700 C   0  0  0  0  0  0  0  0  0  0  0  0
   60.9650   28.6459   45.9466 H   0  0  0  0  0  0  0  0  0  0  0  0
   61.3685   27.8173   44.4047 H   0  0  0  0  0  0  0  0  0  0  0  0
   60.9638   29.5674   44.4047 H   0  0  0  0  0  0  0  0  0  0  0  0
   57.1200   28.8410   44.1560 N   0  0  0  0  0  0  0  0  0  0  0  0
   56.9940   27.8540   43.8360 H   0  0  0  0  0  0  0  0  0  0  0  0
  1  2  1  0
  2  3  2  0
  3  4  1  0
  4  5  2  0
  5  6  1  0
  6  7  1  0
  7  8  1  0
  7  9  1  0
  7 10  1  0
 10 11  1  0
 10 12  2  0
 12 13  1  0
 12 14  1  0
  5 15  1  0
 15 16  1  0
 15 17  2  0
 17 18  1  0
 18 19  1  0
 19 20  1  0
 19 21  1  0
 19 22  1  0
 17 23  1  0
 23 24  1  0
 23  3  1  0
M  END
>  <UniqueID>  (64) 
59

>  <SMILES>  (64) 
[H]/N=c1/nc(OCC=C)cc(OC)[nH]1

>  <Energy>  (64) 
17.519250220616577

>  <Genealogy>  (64) 
[H]/N=c1/nc(OCC=C)cc(OC)[nH]1 (cis-trans isomerization)
[H]/N=c1/nc(OCC=C)cc(OC)[nH]1 (3D coordinates assigned)
[H]/N=c1/nc(OCC=C)cc(OC)[nH]1 (optimized conformer: 17.519250220616577 kcal/mol)

>  <smiles>  (64) 
C=CCOc1cc(OC)[nH]c(=N)n1

>  <score_type>  (64) 
oracle

>  <origin>  (64) 
adg

>  <m_score__min__energy>  (64) 
-4.7800000000000002

>  <m_primary>  (64) 
energy

$$$$
64:0
     RDKit          3D

 58 62  0  0  0  0  0  0  0  0999 V2000
   61.2110   33.6340   49.7990 C   0  0  0  0  0  0  0  0  0  0  0  0
   62.2060   33.5860   48.6830 C   0  0  0  0  0  0  0  0  0  0  0  0
   61.9390   33.6110   47.3260 C   0  0  0  0  0  0  0  0  0  0  0  0
   60.6220   33.6980   46.6650 C   0  0  0  0  0  0  0  0  0  0  0  0
   60.0570   34.9500   46.3750 C   0  0  0  0  0  0  0  0  0  0  0  0
   58.8170   35.0340   45.8160 N   0  0  0  0  0  0  0  0  0  0  0  0
   58.0810   33.9270   45.5370 C   0  0  0  0  0  0  0  0  0  0  0  0
   58.5950   32.6600   45.8150 C   0  0  0  0  0  0  0  0  0  0  0  0
   59.8840   32.5390   46.3670 C   0  0  0  0  0  0  0  0  0  0  0  0
   60.4330   31.2750   46.6170 O   0  0  0  0  0  0  0  0  0  0  0  0
   59.6600   30.1140   46.6410 C   0  0  0  0  0  0  0  0  0  0  0  0
   59.2870   29.5000   45.4380 C   0  0  0  0  0  0  0  0  0  0  0  0
   58.5180   28.3310   45.4570 C   0  0  0  0  0  0  0  0  0  0  0  0
   58.1630   27.7390   46.6770 C   0  0  0  0  0  0  0  0  0  0  0  0
   57.4560   26.4940   46.6780 N   0  0  0  0  0  0  0  0  0  0  0  0
   57.8650   25.3340   45.9400 C   0  0  0  0  0  0  0  0  0  0  0  0
   59.0420   24.9080   46.0850 O   0  0  0  0  0  0  0  0  0  0  0  0
   56.9150   24.5970   45.0700 C   0  0  0  0  0  0  0  0  0  0  0  0
   57.3480   24.1120   43.8330 C   0  0  0  0  0  0  0  0  0  0  0  0
   56.4660   23.4420   42.9940 C   0  0  0  0  0  0  0  0  0  0  0  0
   55.1450   23.2560   43.3930 C   0  0  0  0  0  0  0  0  0  0  0  0
   54.7160   23.7270   44.5940 N   0  0  0  0  0  0  0  0  0  0  0  0
   53.3430   23.5090   44.9590 C   0  0  0  0  0  0  0  0  0  0  0  0
   52.3160   24.1010   44.2080 C   0  0  0  0  0  0  0  0  0  0  0  0
   50.9790   23.9470   44.5930 C   0  0  0  0  0  0  0  0  0  0  0  0
   50.6660   23.1990   45.7260 C   0  0  0  0  0  0  0  0  0  0  0  0
   51.6860   22.5960   46.4720 C   0  0  0  0  0  0  0  0  0  0  0  0
   53.0230   22.7460   46.0900 C   0  0  0  0  0  0  0  0  0  0  0  0
   54.0020   22.1520   46.8130 F   0  0  0  0  0  0  0  0  0  0  0  0
   55.5670   24.3930   45.4370 C   0  0  0  0  0  0  0  0  0  0  0  0
   55.1420   24.8320   46.5450 O   0  0  0  0  0  0  0  0  0  0  0  0
   58.5290   28.3620   47.8810 C   0  0  0  0  0  0  0  0  0  0  0  0
   59.2650   29.5510   47.8620 C   0  0  0  0  0  0  0  0  0  0  0  0
   59.6440   30.1230   49.0280 F   0  0  0  0  0  0  0  0  0  0  0  0
   63.1770   33.5210   46.7150 C   0  0  0  0  0  0  0  0  0  0  0  0
   64.1370   33.4690   47.6600 N   0  0  0  0  0  0  0  0  0  0  0  0
   63.5430   33.5190   48.8430 N   0  0  0  0  0  0  0  0  0  0  0  0
   64.2620   33.4610   50.1110 C   0  0  0  0  0  0  0  0  0  0  0  0
   61.7399   33.6085   50.7632 H   0  0  0  0  0  0  0  0  0  0  0  0
   60.6240   34.5615   49.7272 H   0  0  0  0  0  0  0  0  0  0  0  0
   60.5374   32.7673   49.7272 H   0  0  0  0  0  0  0  0  0  0  0  0
   60.6185   35.8687   46.6003 H   0  0  0  0  0  0  0  0  0  0  0  0
   57.0802   34.0293   45.0921 H   0  0  0  0  0  0  0  0  0  0  0  0
   57.9966   31.7614   45.6041 H   0  0  0  0  0  0  0  0  0  0  0  0
   59.5989   29.9372   44.4780 H   0  0  0  0  0  0  0  0  0  0  0  0
   58.1909   27.8749   44.5110 H   0  0  0  0  0  0  0  0  0  0  0  0
   58.3925   24.2614   43.5219 H   0  0  0  0  0  0  0  0  0  0  0  0
   56.8092   23.0610   42.0208 H   0  0  0  0  0  0  0  0  0  0  0  0
   54.4442   22.7247   42.7323 H   0  0  0  0  0  0  0  0  0  0  0  0
   52.5629   24.6893   43.3119 H   0  0  0  0  0  0  0  0  0  0  0  0
   50.1777   24.4153   44.0026 H   0  0  0  0  0  0  0  0  0  0  0  0
   49.6167   23.0821   46.0347 H   0  0  0  0  0  0  0  0  0  0  0  0
   51.4346   22.0015   47.3627 H   0  0  0  0  0  0  0  0  0  0  0  0
   58.2360   27.9136   48.8418 H   0  0  0  0  0  0  0  0  0  0  0  0
   63.3506   33.4958   45.6291 H   0  0  0  0  0  0  0  0  0  0  0  0
   63.5442   33.5189   50.9425 H   0  0  0  0  0  0  0  0  0  0  0  0
   64.8198   32.5149   50.1733 H   0  0  0  0  0  0  0  0  0  0  0  0
   64.9642   34.3054   50.1733 H   0  0  0  0  0  0  0  0  0  0  0  0
  1  2  1  0
  2  3  2  0
  3  4  1  0
  4  5  2  0
  5  6  1  0
  6  7  2  0
  7  8  1  0
  8  9  2  0
  9 10  1  0
 10 11  1  0
 11 12  2  0
 12 13  1  0
 13 14  2  0
 14 15  1  0
 15 16  1  0
 16 17  2  0
 16 18  1  0
 18 19  2  0
 19 20  1  0
 20 21  2  0
 21 22  1  0
 22 23  1  0
 23 24  2  0
 24 25  1  0
 25 26  2  0
 26 27  1  0
 27 28  2  0
 28 29  1  0
 22 30  1  0
 30 31  2  0
 14 32  1  0
 32 33  2  0
 33 34  1  0
  3 35  1  0
 35 36  2  0
 36 37  1  0
 37 38  1  0
 37  2  1  0
  9  4  1  0
 33 11  1  0
 30 18  1  0
 28 23  1  0
  1 39  1  0
  1 40  1  0
  1 41  1  0
  5 42  1  0
  7 43  1  0
  8 44  1  0
 12 45  1  0
 13 46  1  0
 19 47  1  0
 20 48  1  0
 21 49  1  0
 24 50  1  0
 25 51  1  0
 26 52  1  0
 27 53  1  0
 32 54  1  0
 35 55  1  0
 38 56  1  0
 38 57  1  0
 38 58  1  0
M  CHG  1  15  -1
M  END
>  <UniqueID>  (65) 
60

>  <SMILES>  (65) 
Cc1c(-c2cnccc2Oc2ccc([N-]C(=O)c3cccn(-c4ccccc4F)c3=O)cc2F)cnn1C

>  <Energy>  (65) 
129.27146851460074

>  <Genealogy>  (65) 
Cc1c(-c2cnccc2Oc2ccc([N-]C(=O)c3cccn(-c4ccccc4F)c3=O)cc2F)cnn1C (protonated)
Cc1c(-c2cnccc2Oc2ccc([N-]C(=O)c3cccn(-c4ccccc4F)c3=O)cc2F)cnn1C (3D coordinates assigned)
Cc1c(-c2cnccc2Oc2ccc([N-]C(=O)c3cccn(-c4ccccc4F)c3=O)cc2F)cnn1C (optimized conformer: 129.27146851460074 kcal/mol)

>  <smiles>  (65) 
Cc1c(-c2cnccc2Oc2ccc(NC(=O)c3cccn(-c4ccccc4F)c3=O)cc2F)cnn1C

>  <score_type>  (65) 
oracle

>  <origin>  (65) 
adg

>  <m_score__min__energy>  (65) 
-11.140000000000001

>  <m_primary>  (65) 
energy

$$$$
65:0
     RDKit          3D

 56 59  0  0  0  0  0  0  0  0999 V2000
   61.8970   31.3350   48.0770 C   0  0  0  0  0  0  0  0  0  0  0  0
   60.7690   30.6220   47.3980 C   0  0  0  0  0  0  0  0  0  0  0  0
   61.0250   29.8960   46.3500 N   0  0  0  0  0  0  0  0  0  0  0  0
   60.0110   29.2370   45.5740 C   0  0  0  0  0  0  0  0  0  0  0  0
   60.4760   28.2600   44.5320 C   0  0  0  0  0  0  0  0  0  0  0  0
   58.7030   29.5680   45.7470 C   0  0  0  0  0  0  0  0  0  0  0  0
   57.5950   28.9740   44.9520 C   0  0  0  0  0  0  0  0  0  0  0  0
   57.4900   29.1950   43.7180 O   0  0  0  0  0  0  0  0  0  0  0  0
   56.6280   28.1470   45.6110 N   0  0  0  0  0  0  0  0  0  0  0  0
   56.8090   26.7670   45.9550 C   0  0  0  0  0  0  0  0  0  0  0  0
   58.1120   26.2600   46.0350 C   0  0  0  0  0  0  0  0  0  0  0  0
   58.3300   24.9170   46.3530 C   0  0  0  0  0  0  0  0  0  0  0  0
   57.2470   24.0670   46.5770 C   0  0  0  0  0  0  0  0  0  0  0  0
   55.9400   24.5540   46.4660 C   0  0  0  0  0  0  0  0  0  0  0  0
   55.7140   25.8950   46.1400 C   0  0  0  0  0  0  0  0  0  0  0  0
   54.4060   26.3390   45.9680 O   0  0  0  0  0  0  0  0  0  0  0  0
   58.3420   30.6500   46.7630 C   0  0  2  0  0  0  0  0  0  0  0  0
   58.1810   32.0310   46.1210 C   0  0  0  0  0  0  0  0  0  0  0  0
   59.0350   33.0950   46.4900 C   0  0  0  0  0  0  0  0  0  0  0  0
   58.9030   34.3580   45.9080 C   0  0  0  0  0  0  0  0  0  0  0  0
   59.9900   35.6550   46.3730 Cl  0  0  0  0  0  0  0  0  0  0  0  0
   57.9070   34.5900   44.9610 C   0  0  0  0  0  0  0  0  0  0  0  0
   57.0310   33.5670   44.6070 C   0  0  0  0  0  0  0  0  0  0  0  0
   57.1390   32.2970   45.1880 C   0  0  0  0  0  0  0  0  0  0  0  0
   56.1880   31.3430   44.8180 O   0  0  0  0  0  0  0  0  0  0  0  0
   59.3600   30.7000   47.9370 C   0  0  1  0  0  0  0  0  0  0  0  0
   59.1540   29.5630   48.9260 C   0  0  0  0  0  0  0  0  0  0  0  0
   59.7730   28.4760   48.7690 O   0  0  0  0  0  0  0  0  0  0  0  0
   58.3820   29.7350   50.1220 N   0  0  0  0  0  0  0  0  0  0  0  0
   58.2230   30.9580   50.8490 C   0  0  0  0  0  0  0  0  0  0  0  0
   59.1960   31.9570   50.7180 C   0  0  0  0  0  0  0  0  0  0  0  0
   59.0700   33.1600   51.4180 C   0  0  0  0  0  0  0  0  0  0  0  0
   57.9840   33.3610   52.2740 C   0  0  0  0  0  0  0  0  0  0  0  0
   57.0300   32.3530   52.4410 C   0  0  0  0  0  0  0  0  0  0  0  0
   57.1540   31.1460   51.7450 C   0  0  0  0  0  0  0  0  0  0  0  0
   56.2300   30.1310   51.9650 O   0  0  0  0  0  0  0  0  0  0  0  0
   61.7757   31.2583   49.1676 H   0  0  0  0  0  0  0  0  0  0  0  0
   62.8519   30.8761   47.7811 H   0  0  0  0  0  0  0  0  0  0  0  0
   61.8921   32.3944   47.7811 H   0  0  0  0  0  0  0  0  0  0  0  0
   60.8987   27.3720   45.0247 H   0  0  0  0  0  0  0  0  0  0  0  0
   59.6239   27.9603   43.9041 H   0  0  0  0  0  0  0  0  0  0  0  0
   61.2459   28.7323   43.9041 H   0  0  0  0  0  0  0  0  0  0  0  0
   58.9691   26.9231   45.8463 H   0  0  0  0  0  0  0  0  0  0  0  0
   59.3569   24.5296   46.4268 H   0  0  0  0  0  0  0  0  0  0  0  0
   57.4205   23.0133   46.8410 H   0  0  0  0  0  0  0  0  0  0  0  0
   55.0875   23.8799   46.6357 H   0  0  0  0  0  0  0  0  0  0  0  0
   57.3612   30.3685   47.1738 H   0  0  0  0  0  0  0  0  0  0  0  0
   59.8152   32.9260   47.2468 H   0  0  0  0  0  0  0  0  0  0  0  0
   57.8129   35.5811   44.4933 H   0  0  0  0  0  0  0  0  0  0  0  0
   56.2446   33.7586   43.8620 H   0  0  0  0  0  0  0  0  0  0  0  0
   56.3800   30.5510   44.2240 H   0  0  0  0  0  0  0  0  0  0  0  0
   59.1970   31.6510   48.4652 H   0  0  0  0  0  0  0  0  0  0  0  0
   60.0632   31.7939   50.0612 H   0  0  0  0  0  0  0  0  0  0  0  0
   59.8263   33.9492   51.2950 H   0  0  0  0  0  0  0  0  0  0  0  0
   57.8798   34.3123   52.8164 H   0  0  0  0  0  0  0  0  0  0  0  0
   56.1798   32.5093   53.1213 H   0  0  0  0  0  0  0  0  0  0  0  0
  1  2  1  0
  2  3  2  0
  3  4  1  0
  4  5  1  0
  4  6  2  0
  6  7  1  0
  7  8  2  0
  7  9  1  0
  9 10  1  0
 10 11  2  0
 11 12  1  0
 12 13  2  0
 13 14  1  0
 14 15  2  0
 15 16  1  0
  6 17  1  0
 17 18  1  0
 18 19  2  0
 19 20  1  0
 20 21  1  0
 20 22  2  0
 22 23  1  0
 23 24  2  0
 24 25  1  0
 17 26  1  0
 26 27  1  0
 27 28  2  0
 27 29  1  0
 29 30  1  0
 30 31  2  0
 31 32  1  0
 32 33  2  0
 33 34  1  0
 34 35  2  0
 35 36  1  0
 26  2  1  0
 35 30  1  0
 15 10  1  0
 24 18  1  0
  1 37  1  0
  1 38  1  0
  1 39  1  0
  5 40  1  0
  5 41  1  0
  5 42  1  0
 11 43  1  0
 12 44  1  0
 13 45  1  0
 14 46  1  0
 17 47  1  1
 19 48  1  0
 22 49  1  0
 23 50  1  0
 25 51  1  0
 26 52  1  1
 31 53  1  0
 32 54  1  0
 33 55  1  0
 34 56  1  0
M  CHG  4   9  -1  16  -1  29  -1  36  -1
M  END
>  <UniqueID>  (66) 
61

>  <SMILES>  (66) 
CC1=NC(C)=C(C(=O)[N-]c2ccccc2[O-])[C@H](c2cc(Cl)ccc2O)[C@H]1C(=O)[N-]c1ccccc1[O-]

>  <Energy>  (66) 
79.75567600542259

>  <Genealogy>  (66) 
CC1=NC(C)=C(C(=O)[N-]c2ccccc2[O-])C(c2cc(Cl)ccc2O)C1C(=O)[N-]c1ccccc1[O-] (protonated)
CC1=NC(C)=C(C(=O)[N-]c2ccccc2[O-])[C@H](c2cc(Cl)ccc2O)[C@H]1C(=O)[N-]c1ccccc1[O-] (chirality)
CC1=NC(C)=C(C(=O)[N-]c2ccccc2[O-])[C@H](c2cc(Cl)ccc2O)[C@H]1C(=O)[N-]c1ccccc1[O-] (3D coordinates assigned)
CC1=NC(C)=C(C(=O)[N-]c2ccccc2[O-])[C@H](c2cc(Cl)ccc2O)[C@H]1C(=O)[N-]c1ccccc1[O-] (nonaromatic ring conformer: 79.75567600542259 kcal/mol)

>  <smiles>  (66) 
CC1=NC(C)=C(C(=O)Nc2ccccc2O)C(c2cc(Cl)ccc2O)C1C(=O)Nc1ccccc1O

>  <score_type>  (66) 
oracle

>  <origin>  (66) 
adg

>  <m_score__min__energy>  (66) 
-17.789999999999999

>  <m_primary>  (66) 
energy

$$$$
66:0
     RDKit          3D

 33 34  0  0  0  0  0  0  0  0999 V2000
   58.6520   30.0760   47.9910 H   0  0  0  0  0  0  0  0  0  0  0  0
   58.7720   30.9120   48.6050 N   0  0  0  0  0  0  0  0  0  0  0  0
   58.5450   32.1020   48.1500 C   0  0  0  0  0  0  0  0  0  0  0  0
   58.6772   32.9696   48.8132 H   0  0  0  0  0  0  0  0  0  0  0  0
   58.1140   32.3120   46.7630 C   0  0  0  0  0  0  0  0  0  0  0  0
   57.9280   31.2630   45.9180 N   0  0  0  0  0  0  0  0  0  0  0  0
   57.5460   31.6730   44.6900 C   0  0  0  0  0  0  0  0  0  0  0  0
   57.2670   30.8800   43.6980 N   0  0  0  0  0  0  0  0  0  0  0  0
   56.8260   29.5110   43.7500 C   0  0  0  0  0  0  0  0  0  0  0  0
   57.2450   28.7160   42.8670 O   0  0  0  0  0  0  0  0  0  0  0  0
   55.9800   28.9570   44.8680 C   0  0  0  0  0  0  0  0  0  0  0  0
   55.6961   29.7746   45.5469 H   0  0  0  0  0  0  0  0  0  0  0  0
   55.0803   28.4928   44.4379 H   0  0  0  0  0  0  0  0  0  0  0  0
   56.7440   27.9170   45.6380 C   0  0  0  0  0  0  0  0  0  0  0  0
   58.0710   28.1000   45.8740 N   0  0  0  0  0  0  0  0  0  0  0  0
   58.8110   27.1750   46.5460 C   0  0  0  0  0  0  0  0  0  0  0  0
   60.2150   27.3980   46.7800 N   0  0  0  0  0  0  0  0  0  0  0  0
   61.1900   26.3780   46.3800 C   0  0  0  0  0  0  0  0  0  0  0  0
   61.6292   25.9185   47.2778 H   0  0  0  0  0  0  0  0  0  0  0  0
   60.6868   25.6046   45.7811 H   0  0  0  0  0  0  0  0  0  0  0  0
   61.9853   26.8458   45.7811 H   0  0  0  0  0  0  0  0  0  0  0  0
   60.6600   28.6460   47.4050 C   0  0  0  0  0  0  0  0  0  0  0  0
   60.6228   28.5416   48.4994 H   0  0  0  0  0  0  0  0  0  0  0  0
   61.6917   28.8651   47.0924 H   0  0  0  0  0  0  0  0  0  0  0  0
   59.9997   29.4684   47.0924 H   0  0  0  0  0  0  0  0  0  0  0  0
   58.2130   26.0370   46.9930 N   0  0  0  0  0  0  0  0  0  0  0  0
   56.8940   25.8010   46.7760 C   0  0  0  0  0  0  0  0  0  0  0  0
   56.3720   24.7370   47.1990 O   0  0  0  0  0  0  0  0  0  0  0  0
   56.1240   26.7390   46.0840 C   0  0  0  0  0  0  0  0  0  0  0  0
   54.7730   26.5040   45.8460 O   0  0  0  0  0  0  0  0  0  0  0  0
   57.4080   33.3420   44.6020 S   0  0  0  0  0  0  0  0  0  0  0  0
   57.8730   33.5680   46.2030 C   0  0  0  0  0  0  0  0  0  0  0  0
   57.9701   34.5352   46.7179 H   0  0  0  0  0  0  0  0  0  0  0  0
  1  2  1  0
  2  3  2  0
  3  4  1  0
  3  5  1  0
  5  6  1  0
  6  7  1  0
  7  8  2  0
  8  9  1  0
  9 10  2  0
  9 11  1  0
 11 12  1  0
 11 13  1  0
 11 14  1  0
 14 15  1  0
 15 16  1  0
 16 17  1  0
 17 18  1  0
 18 19  1  0
 18 20  1  0
 18 21  1  0
 17 22  1  0
 22 23  1  0
 22 24  1  0
 22 25  1  0
 16 26  2  0
 26 27  1  0
 27 28  2  0
 27 29  1  0
 29 30  1  0
  7 31  1  0
 31 32  1  0
 32 33  1  0
 32  5  2  0
 29 14  2  0
M  CHG  3   6  -1  15  -1  30  -1
M  END
>  <UniqueID>  (67) 
62

>  <SMILES>  (67) 
[H]/N=C/c1cs/c(=N/C(=O)Cc2[n-]c(N(C)C)nc(=O)c2[O-])[n-]1

>  <Energy>  (67) 
61.433054703126174

>  <Genealogy>  (67) 
CN(C)c1nc(=O)c([O-])c(CC(=O)N=c2[n-]c(C=N)cs2)[n-]1 (protonated)
[H]/N=C/c1cs/c(=N/C(=O)Cc2[n-]c(N(C)C)nc(=O)c2[O-])[n-]1 (cis-trans isomerization)
[H]/N=C/c1cs/c(=N/C(=O)Cc2[n-]c(N(C)C)nc(=O)c2[O-])[n-]1 (3D coordinates assigned)
[H]/N=C/c1cs/c(=N/C(=O)Cc2[n-]c(N(C)C)nc(=O)c2[O-])[n-]1 (optimized conformer: 61.433054703126174 kcal/mol)

>  <smiles>  (67) 
CN(C)c1nc(=O)c(O)c(CC(=O)N=c2[nH]c(C=N)cs2)[nH]1

>  <score_type>  (67) 
oracle

>  <origin>  (67) 
adg

>  <m_score__min__energy>  (67) 
-12.42

>  <m_primary>  (67) 
energy

$$$$
67:0
     RDKit          3D

 48 51  0  0  0  0  0  0  0  0999 V2000
   58.6080   29.2760   47.8700 C   0  0  0  0  0  0  0  0  0  0  0  0
   58.0680   29.1790   46.6460 C   0  0  0  0  0  0  0  0  0  0  0  0
   57.4480   28.0520   46.1000 C   0  0  0  0  0  0  0  0  0  0  0  0
   57.2210   26.8690   46.7000 C   0  0  0  0  0  0  0  0  0  0  0  0
   56.8680   25.6580   45.9370 C   0  0  0  0  0  0  0  0  0  0  0  0
   55.5320   25.3930   45.6030 C   0  0  0  0  0  0  0  0  0  0  0  0
   54.5250   26.2860   45.9720 O   0  0  0  0  0  0  0  0  0  0  0  0
   55.2210   24.2780   44.8920 N   0  0  0  0  0  0  0  0  0  0  0  0
   56.1850   23.4020   44.5020 C   0  0  0  0  0  0  0  0  0  0  0  0
   55.8740   22.3780   43.8400 O   0  0  0  0  0  0  0  0  0  0  0  0
   57.4830   23.6380   44.8220 N   0  0  0  0  0  0  0  0  0  0  0  0
   57.8450   24.7350   45.5320 C   0  0  0  0  0  0  0  0  0  0  0  0
   59.0590   24.9120   45.8250 O   0  0  0  0  0  0  0  0  0  0  0  0
   57.0290   28.4100   44.8260 C   0  0  0  0  0  0  0  0  0  0  0  0
   57.4020   29.7260   44.6450 C   0  0  0  0  0  0  0  0  0  0  0  0
   57.0860   30.5340   43.4220 C   0  0  0  0  0  0  0  0  0  0  0  0
   58.0190   30.1970   45.7520 N   0  0  0  0  0  0  0  0  0  0  0  0
   58.4310   31.5560   45.9580 C   0  0  0  0  0  0  0  0  0  0  0  0
   57.5660   32.6050   45.6170 C   0  0  0  0  0  0  0  0  0  0  0  0
   57.9690   33.9320   45.7810 C   0  0  0  0  0  0  0  0  0  0  0  0
   59.2370   34.2190   46.2890 C   0  0  0  0  0  0  0  0  0  0  0  0
   60.1070   33.1760   46.6400 C   0  0  0  0  0  0  0  0  0  0  0  0
   61.3890   33.4740   47.1980 N   0  0  0  0  0  0  0  0  0  0  0  0
   62.5130   33.8420   46.3550 C   0  0  0  0  0  0  0  0  0  0  0  0
   63.7590   33.4130   47.1200 C   0  0  0  0  0  0  0  0  0  0  0  0
   63.3100   33.1510   48.5590 C   0  0  0  0  0  0  0  0  0  0  0  0
   61.7920   32.9930   48.5070 C   0  0  0  0  0  0  0  0  0  0  0  0
   59.7010   31.8440   46.4750 C   0  0  0  0  0  0  0  0  0  0  0  0
   59.0718   30.2196   48.1933 H   0  0  0  0  0  0  0  0  0  0  0  0
   58.5871   28.4120   48.5504 H   0  0  0  0  0  0  0  0  0  0  0  0
   57.3014   26.8035   47.7951 H   0  0  0  0  0  0  0  0  0  0  0  0
   53.6680   25.9570   46.4050 H   0  0  0  0  0  0  0  0  0  0  0  0
   56.5027   27.7700   44.1025 H   0  0  0  0  0  0  0  0  0  0  0  0
   56.7006   31.5193   43.7230 H   0  0  0  0  0  0  0  0  0  0  0  0
   57.9992   30.6648   42.8229 H   0  0  0  0  0  0  0  0  0  0  0  0
   56.3263   30.0106   42.8229 H   0  0  0  0  0  0  0  0  0  0  0  0
   56.5653   32.3819   45.2184 H   0  0  0  0  0  0  0  0  0  0  0  0
   57.2870   34.7513   45.5098 H   0  0  0  0  0  0  0  0  0  0  0  0
   59.5546   35.2647   46.4143 H   0  0  0  0  0  0  0  0  0  0  0  0
   62.4562   33.3180   45.3895 H   0  0  0  0  0  0  0  0  0  0  0  0
   62.5213   34.9201   46.1367 H   0  0  0  0  0  0  0  0  0  0  0  0
   64.1799   32.4971   46.6796 H   0  0  0  0  0  0  0  0  0  0  0  0
   64.5396   34.1869   47.0792 H   0  0  0  0  0  0  0  0  0  0  0  0
   63.7765   32.2319   48.9431 H   0  0  0  0  0  0  0  0  0  0  0  0
   63.6058   33.9725   49.2281 H   0  0  0  0  0  0  0  0  0  0  0  0
   61.5124   31.9362   48.6295 H   0  0  0  0  0  0  0  0  0  0  0  0
   61.2986   33.5543   49.3142 H   0  0  0  0  0  0  0  0  0  0  0  0
   60.3803   31.0243   46.7518 H   0  0  0  0  0  0  0  0  0  0  0  0
  1  2  2  0
  2  3  1  0
  3  4  2  3
  4  5  1  0
  5  6  2  0
  6  7  1  0
  6  8  1  0
  8  9  1  0
  9 10  2  0
  9 11  1  0
 11 12  1  0
 12 13  2  0
  3 14  1  0
 14 15  2  0
 15 16  1  0
 15 17  1  0
 17 18  1  0
 18 19  2  0
 19 20  1  0
 20 21  2  0
 21 22  1  0
 22 23  1  0
 23 24  1  0
 24 25  1  0
 25 26  1  0
 26 27  1  0
 22 28  2  0
 17  2  1  0
 28 18  1  0
 12  5  1  0
 27 23  1  0
  1 29  1  0
  1 30  1  0
  4 31  1  0
  7 32  1  0
 14 33  1  0
 16 34  1  0
 16 35  1  0
 16 36  1  0
 19 37  1  0
 20 38  1  0
 21 39  1  0
 24 40  1  0
 24 41  1  0
 25 42  1  0
 25 43  1  0
 26 44  1  0
 26 45  1  0
 27 46  1  0
 27 47  1  0
 28 48  1  0
M  CHG  2   8  -1  11  -1
M  END
>  <UniqueID>  (68) 
63

>  <SMILES>  (68) 
C=c1c(=Cc2c(O)[n-]c(=O)[n-]c2=O)cc(C)n1-c1cccc(N2CCCC2)c1

>  <Energy>  (68) 
103.02894538520285

>  <Genealogy>  (68) 
C=c1c(=Cc2c(O)[n-]c(=O)[n-]c2=O)cc(C)n1-c1cccc(N2CCCC2)c1 (protonated)
C=c1c(=Cc2c(O)[n-]c(=O)[n-]c2=O)cc(C)n1-c1cccc(N2CCCC2)c1 (3D coordinates assigned)
C=c1c(=Cc2c(O)[n-]c(=O)[n-]c2=O)cc(C)n1-c1cccc(N2CCCC2)c1 (nonaromatic ring conformer: 103.02894538520285 kcal/mol)

>  <smiles>  (68) 
C=c1c(=Cc2c(O)[nH]c(=O)[nH]c2=O)cc(C)n1-c1cccc(N2CCCC2)c1

>  <score_type>  (68) 
oracle

>  <origin>  (68) 
adg

>  <m_score__min__energy>  (68) 
-13.83

>  <m_primary>  (68) 
energy

$$$$
68:0
     RDKit          3D

 29 30  0  0  0  0  0  0  0  0999 V2000
   56.1990   30.8590   52.9310 C   0  0  0  0  0  0  0  0  0  0  0  0
   55.1770   30.0060   53.0700 C   0  0  0  0  0  0  0  0  0  0  0  0
   55.3080   28.8280   53.7090 N   0  0  0  0  0  0  0  0  0  0  0  0
   54.1100   28.2230   53.6850 C   0  0  0  0  0  0  0  0  0  0  0  0
   53.1860   29.0000   53.0040 C   0  0  0  0  0  0  0  0  0  0  0  0
   51.7720   28.5640   52.6740 C   0  0  0  0  0  0  0  0  0  0  0  0
   50.7350   28.9620   53.7380 C   0  0  0  0  0  0  0  0  0  0  0  0
   50.3730   30.4460   53.6720 C   0  0  0  0  0  0  0  0  0  0  0  0
   53.8560   30.1820   52.6410 C   0  0  0  0  0  0  0  0  0  0  0  0
   53.3740   31.2750   52.0100 C   0  0  0  0  0  0  0  0  0  0  0  0
   52.3300   31.2660   50.9750 C   0  0  0  0  0  0  0  0  0  0  0  0
   52.3170   30.4140   49.9360 N   0  0  0  0  0  0  0  0  0  0  0  0
   51.2650   30.8360   49.2010 C   0  0  0  0  0  0  0  0  0  0  0  0
   50.9130   30.2690   48.1340 O   0  0  0  0  0  0  0  0  0  0  0  0
   50.6270   31.9200   49.6920 N   0  0  0  0  0  0  0  0  0  0  0  0
   51.3240   32.1890   50.8080 C   0  0  0  0  0  0  0  0  0  0  0  0
   51.0640   33.2730   51.6380 O   0  0  0  0  0  0  0  0  0  0  0  0
   56.0518   31.8122   52.4020 H   0  0  0  0  0  0  0  0  0  0  0  0
   57.1861   30.6069   53.3457 H   0  0  0  0  0  0  0  0  0  0  0  0
   56.1760   28.4430   54.1450 H   0  0  0  0  0  0  0  0  0  0  0  0
   53.8919   27.2465   54.1421 H   0  0  0  0  0  0  0  0  0  0  0  0
   51.4816   29.0237   51.7178 H   0  0  0  0  0  0  0  0  0  0  0  0
   51.7782   27.4650   52.6283 H   0  0  0  0  0  0  0  0  0  0  0  0
   49.8223   28.3684   53.5813 H   0  0  0  0  0  0  0  0  0  0  0  0
   51.1770   28.7680   54.7264 H   0  0  0  0  0  0  0  0  0  0  0  0
   50.2756   30.8454   54.6923 H   0  0  0  0  0  0  0  0  0  0  0  0
   51.1641   30.9930   53.1381 H   0  0  0  0  0  0  0  0  0  0  0  0
   49.4189   30.5673   53.1381 H   0  0  0  0  0  0  0  0  0  0  0  0
   53.7967   32.2502   52.2935 H   0  0  0  0  0  0  0  0  0  0  0  0
  1  2  2  0
  2  3  1  0
  3  4  1  0
  4  5  2  0
  5  6  1  0
  6  7  1  0
  7  8  1  0
  5  9  1  0
  9 10  2  3
 10 11  1  0
 11 12  1  0
 12 13  1  0
 13 14  2  0
 13 15  1  0
 15 16  1  0
 16 17  1  0
  9  2  1  0
 16 11  2  0
  1 18  1  0
  1 19  1  0
  3 20  1  0
  4 21  1  0
  6 22  1  0
  6 23  1  0
  7 24  1  0
  7 25  1  0
  8 26  1  0
  8 27  1  0
  8 28  1  0
 10 29  1  0
M  CHG  3  12  -1  15  -1  17  -1
M  END
>  <UniqueID>  (69) 
64

>  <SMILES>  (69) 
C=c1[nH]cc(CCC)c1=Cc1[n-]c(=O)[n-]c1[O-]

>  <Energy>  (69) 
94.3344317025104

>  <Genealogy>  (69) 
C=c1[nH]cc(CCC)c1=Cc1[n-]c(=O)[n-]c1[O-] (protonated)
C=c1[nH]cc(CCC)c1=Cc1[n-]c(=O)[n-]c1[O-] (3D coordinates assigned)
C=c1[nH]cc(CCC)c1=Cc1[n-]c(=O)[n-]c1[O-] (optimized conformer: 94.3344317025104 kcal/mol)

>  <smiles>  (69) 
C=c1[nH]cc(CCC)c1=Cc1[nH]c(=O)[nH]c1O

>  <score_type>  (69) 
oracle

>  <origin>  (69) 
adg

>  <m_score__min__energy>  (69) 
-14.84

>  <m_primary>  (69) 
energy

$$$$
69:0
     RDKit          3D

 49 51  0  0  0  0  0  0  0  0999 V2000
   55.9380   31.2570   44.4830 O   0  0  0  0  0  0  0  0  0  0  0  0
   56.9010   30.4470   44.5060 C   0  0  0  0  0  0  0  0  0  0  0  0
   56.6380   28.9840   44.2830 C   0  0  0  0  0  0  0  0  0  0  0  0
   56.4050   28.3230   45.5620 N   0  0  0  0  0  0  0  0  0  0  0  0
   57.1320   27.1750   46.0150 C   0  0  0  0  0  0  0  0  0  0  0  0
   58.1400   27.3420   46.7490 O   0  0  0  0  0  0  0  0  0  0  0  0
   56.7320   25.8030   45.6390 C   0  0  0  0  0  0  0  0  0  0  0  0
   57.7120   24.8540   45.3040 C   0  0  0  0  0  0  0  0  0  0  0  0
   57.3440   23.5530   44.9500 C   0  0  0  0  0  0  0  0  0  0  0  0
   55.9970   23.1860   44.9410 C   0  0  0  0  0  0  0  0  0  0  0  0
   55.0160   24.1150   45.2930 C   0  0  0  0  0  0  0  0  0  0  0  0
   55.3780   25.4220   45.6450 C   0  0  0  0  0  0  0  0  0  0  0  0
   54.3870   26.3350   45.9870 O   0  0  0  0  0  0  0  0  0  0  0  0
   58.2160   30.9390   44.7950 N   0  0  0  0  0  0  0  0  0  0  0  0
   58.5020   32.2170   45.3730 C   0  0  0  0  0  0  0  0  0  0  0  0
   58.3750   33.3970   44.6230 C   0  0  0  0  0  0  0  0  0  0  0  0
   58.7000   34.6290   45.1930 C   0  0  0  0  0  0  0  0  0  0  0  0
   59.1570   34.6920   46.5120 C   0  0  0  0  0  0  0  0  0  0  0  0
   59.2730   33.5200   47.2730 C   0  0  0  0  0  0  0  0  0  0  0  0
   59.9200   33.5820   48.9120 S   0  0  0  0  0  0  0  0  0  0  0  0
   59.7020   34.9550   49.4840 O   0  0  0  0  0  0  0  0  0  0  0  0
   59.1800   32.5960   49.7710 O   0  0  0  0  0  0  0  0  0  0  0  0
   61.6260   33.2030   48.9360 N   0  0  0  0  0  0  0  0  0  0  0  0
   62.2530   33.5810   47.6590 C   0  0  0  0  0  0  0  0  0  0  0  0
   63.6910   33.0370   47.5800 C   0  0  0  0  0  0  0  0  0  0  0  0
   64.2830   32.7460   48.9710 C   0  0  0  0  0  0  0  0  0  0  0  0
   63.8280   33.7900   49.9940 C   0  0  0  0  0  0  0  0  0  0  0  0
   62.2870   33.8930   50.0640 C   0  0  0  0  0  0  0  0  0  0  0  0
   58.9190   32.2880   46.7050 C   0  0  0  0  0  0  0  0  0  0  0  0
   55.7505   28.8658   43.6439 H   0  0  0  0  0  0  0  0  0  0  0  0
   57.5112   28.5288   43.7928 H   0  0  0  0  0  0  0  0  0  0  0  0
   58.7750   25.1364   45.3204 H   0  0  0  0  0  0  0  0  0  0  0  0
   58.1159   22.8179   44.6784 H   0  0  0  0  0  0  0  0  0  0  0  0
   55.7082   22.1635   44.6562 H   0  0  0  0  0  0  0  0  0  0  0  0
   53.9563   23.8201   45.2940 H   0  0  0  0  0  0  0  0  0  0  0  0
   58.0184   33.3505   43.5834 H   0  0  0  0  0  0  0  0  0  0  0  0
   58.5962   35.5516   44.6030 H   0  0  0  0  0  0  0  0  0  0  0  0
   59.4262   35.6626   46.9541 H   0  0  0  0  0  0  0  0  0  0  0  0
   61.6629   33.1648   46.8292 H   0  0  0  0  0  0  0  0  0  0  0  0
   62.2845   34.6784   47.5903 H   0  0  0  0  0  0  0  0  0  0  0  0
   63.6849   32.1048   46.9961 H   0  0  0  0  0  0  0  0  0  0  0  0
   64.3159   33.8061   47.1026 H   0  0  0  0  0  0  0  0  0  0  0  0
   63.9509   31.7508   49.3016 H   0  0  0  0  0  0  0  0  0  0  0  0
   65.3799   32.7836   48.8983 H   0  0  0  0  0  0  0  0  0  0  0  0
   64.2112   33.5072   50.9856 H   0  0  0  0  0  0  0  0  0  0  0  0
   64.2219   34.7684   49.6817 H   0  0  0  0  0  0  0  0  0  0  0  0
   61.9447   33.4391   51.0057 H   0  0  0  0  0  0  0  0  0  0  0  0
   62.0185   34.9584   50.0102 H   0  0  0  0  0  0  0  0  0  0  0  0
   58.9698   31.3717   47.3115 H   0  0  0  0  0  0  0  0  0  0  0  0
  1  2  2  0
  2  3  1  0
  3  4  1  0
  4  5  1  0
  5  6  2  0
  5  7  1  0
  7  8  2  0
  8  9  1  0
  9 10  2  0
 10 11  1  0
 11 12  2  0
 12 13  1  0
  2 14  1  0
 14 15  1  0
 15 16  2  0
 16 17  1  0
 17 18  2  0
 18 19  1  0
 19 20  1  0
 20 21  2  0
 20 22  2  0
 20 23  1  0
 23 24  1  0
 24 25  1  0
 25 26  1  0
 26 27  1  0
 27 28  1  0
 19 29  2  0
 12  7  1  0
 29 15  1  0
 28 23  1  0
  3 30  1  0
  3 31  1  0
  8 32  1  0
  9 33  1  0
 10 34  1  0
 11 35  1  0
 16 36  1  0
 17 37  1  0
 18 38  1  0
 24 39  1  0
 24 40  1  0
 25 41  1  0
 25 42  1  0
 26 43  1  0
 26 44  1  0
 27 45  1  0
 27 46  1  0
 28 47  1  0
 28 48  1  0
 29 49  1  0
M  CHG  3   4  -1  13  -1  14  -1
M  END
>  <UniqueID>  (70) 
65

>  <SMILES>  (70) 
O=C(C[N-]C(=O)c1ccccc1[O-])[N-]c1cccc(S(=O)(=O)N2CCCCC2)c1

>  <Energy>  (70) 
60.84856358993177

>  <Genealogy>  (70) 
O=C(C[N-]C(=O)c1ccccc1[O-])[N-]c1cccc(S(=O)(=O)N2CCCCC2)c1 (protonated)
O=C(C[N-]C(=O)c1ccccc1[O-])[N-]c1cccc(S(=O)(=O)N2CCCCC2)c1 (3D coordinates assigned)
O=C(C[N-]C(=O)c1ccccc1[O-])[N-]c1cccc(S(=O)(=O)N2CCCCC2)c1 (nonaromatic ring conformer: 60.84856358993177 kcal/mol)

>  <smiles>  (70) 
O=C(CNC(=O)c1ccccc1O)Nc1cccc(S(=O)(=O)N2CCCCC2)c1

>  <score_type>  (70) 
oracle

>  <origin>  (70) 
adg

>  <m_score__min__energy>  (70) 
-17.02

>  <m_primary>  (70) 
energy

$$$$
70:0
     RDKit          3D

 64 67  0  0  0  0  0  0  0  0999 V2000
   51.5770   23.5690   45.0430 C   0  0  0  0  0  0  0  0  0  0  0  0
   52.8210   22.8880   45.1790 O   0  0  0  0  0  0  0  0  0  0  0  0
   53.9580   23.4320   45.7950 C   0  0  0  0  0  0  0  0  0  0  0  0
   54.6550   24.5320   45.2560 C   0  0  0  0  0  0  0  0  0  0  0  0
   55.7880   25.0340   45.9040 C   0  0  0  0  0  0  0  0  0  0  0  0
   56.2420   24.4490   47.0950 C   0  0  0  0  0  0  0  0  0  0  0  0
   57.4670   24.9770   47.7930 C   0  0  0  0  0  0  0  0  0  0  0  0
   57.9810   26.1550   47.1000 N   0  0  0  0  0  0  0  0  0  0  0  0
   59.0150   26.0690   46.1070 C   0  0  0  0  0  0  0  0  0  0  0  0
   59.4850   24.9360   45.8020 O   0  0  0  0  0  0  0  0  0  0  0  0
   59.5940   27.2950   45.4270 C   0  0  0  0  0  0  0  0  0  0  0  0
   59.7220   28.5080   46.3700 C   0  0  0  0  0  0  0  0  0  0  0  0
   58.4390   29.3350   46.4790 C   0  0  0  0  0  0  0  0  0  0  0  0
   57.9060   29.6380   45.1460 N   0  0  0  0  0  0  0  0  0  0  0  0
   57.2500   30.8990   44.9190 C   0  0  0  0  0  0  0  0  0  0  0  0
   56.0800   30.9150   44.4480 O   0  0  0  0  0  0  0  0  0  0  0  0
   57.9280   32.1790   45.2250 C   0  0  0  0  0  0  0  0  0  0  0  0
   57.5040   33.3750   44.6190 C   0  0  0  0  0  0  0  0  0  0  0  0
   58.1570   34.5790   44.8970 C   0  0  0  0  0  0  0  0  0  0  0  0
   59.2350   34.6040   45.7850 C   0  0  0  0  0  0  0  0  0  0  0  0
   59.6600   33.4240   46.4080 C   0  0  0  0  0  0  0  0  0  0  0  0
   60.9990   33.4610   47.5520 S   0  0  0  0  0  0  0  0  0  0  0  0
   62.2680   33.7630   46.8070 O   0  0  0  0  0  0  0  0  0  0  0  0
   60.7730   34.5540   48.5630 O   0  0  0  0  0  0  0  0  0  0  0  0
   61.1790   31.9490   48.3820 N   0  0  0  0  0  0  0  0  0  0  0  0
   60.1560   31.3840   49.2060 C   0  0  0  0  0  0  0  0  0  0  0  0
   60.1750   30.0270   49.5560 C   0  0  0  0  0  0  0  0  0  0  0  0
   59.1620   29.4960   50.3630 C   0  0  0  0  0  0  0  0  0  0  0  0
   58.1350   30.3220   50.8350 C   0  0  0  0  0  0  0  0  0  0  0  0
   57.1210   29.7930   51.6260 O   0  0  0  0  0  0  0  0  0  0  0  0
   58.1310   31.6830   50.5120 C   0  0  0  0  0  0  0  0  0  0  0  0
   59.1430   32.2140   49.7070 C   0  0  0  0  0  0  0  0  0  0  0  0
   59.0000   32.2170   46.1360 C   0  0  0  0  0  0  0  0  0  0  0  0
   57.6650   28.5300   44.2180 C   0  0  0  0  0  0  0  0  0  0  0  0
   58.9130   27.6480   44.0850 C   0  0  0  0  0  0  0  0  0  0  0  0
   55.5440   23.3570   47.6340 C   0  0  0  0  0  0  0  0  0  0  0  0
   54.4110   22.8540   46.9870 C   0  0  0  0  0  0  0  0  0  0  0  0
   51.1700   23.7918   46.0404 H   0  0  0  0  0  0  0  0  0  0  0  0
   51.7315   24.5083   44.4918 H   0  0  0  0  0  0  0  0  0  0  0  0
   50.8690   22.9327   44.4918 H   0  0  0  0  0  0  0  0  0  0  0  0
   54.3065   24.9974   44.3222 H   0  0  0  0  0  0  0  0  0  0  0  0
   56.3264   25.8929   45.4770 H   0  0  0  0  0  0  0  0  0  0  0  0
   57.2060   25.2497   48.8262 H   0  0  0  0  0  0  0  0  0  0  0  0
   58.2421   24.1964   47.7918 H   0  0  0  0  0  0  0  0  0  0  0  0
   57.5810   27.0770   47.3710 H   0  0  0  0  0  0  0  0  0  0  0  0
   60.6217   27.0074   45.1604 H   0  0  0  0  0  0  0  0  0  0  0  0
   59.9869   28.1426   47.3732 H   0  0  0  0  0  0  0  0  0  0  0  0
   60.4958   29.1658   45.9475 H   0  0  0  0  0  0  0  0  0  0  0  0
   57.6889   28.7657   47.0476 H   0  0  0  0  0  0  0  0  0  0  0  0
   58.6685   30.2802   46.9928 H   0  0  0  0  0  0  0  0  0  0  0  0
   56.6532   33.3629   43.9219 H   0  0  0  0  0  0  0  0  0  0  0  0
   57.8212   35.5092   44.4153 H   0  0  0  0  0  0  0  0  0  0  0  0
   59.7511   35.5524   45.9953 H   0  0  0  0  0  0  0  0  0  0  0  0
   60.9871   29.3783   49.1960 H   0  0  0  0  0  0  0  0  0  0  0  0
   59.1729   28.4281   50.6267 H   0  0  0  0  0  0  0  0  0  0  0  0
   57.3311   32.3357   50.8916 H   0  0  0  0  0  0  0  0  0  0  0  0
   59.1446   33.2872   49.4656 H   0  0  0  0  0  0  0  0  0  0  0  0
   59.3225   31.2931   46.6384 H   0  0  0  0  0  0  0  0  0  0  0  0
   56.8308   27.9197   44.5943 H   0  0  0  0  0  0  0  0  0  0  0  0
   57.4206   28.9456   43.2293 H   0  0  0  0  0  0  0  0  0  0  0  0
   58.6197   26.7098   43.5912 H   0  0  0  0  0  0  0  0  0  0  0  0
   59.6459   28.2282   43.5052 H   0  0  0  0  0  0  0  0  0  0  0  0
   55.8900   22.8945   48.5702 H   0  0  0  0  0  0  0  0  0  0  0  0
   53.8715   21.9977   47.4179 H   0  0  0  0  0  0  0  0  0  0  0  0
  1  2  1  0
  2  3  1  0
  3  4  2  0
  4  5  1  0
  5  6  2  0
  6  7  1  0
  7  8  1  0
  8  9  1  0
  9 10  2  0
  9 11  1  0
 11 12  1  0
 12 13  1  0
 13 14  1  0
 14 15  1  0
 15 16  2  0
 15 17  1  0
 17 18  2  0
 18 19  1  0
 19 20  2  0
 20 21  1  0
 21 22  1  0
 22 23  2  0
 22 24  2  0
 22 25  1  0
 25 26  1  0
 26 27  2  0
 27 28  1  0
 28 29  2  0
 29 30  1  0
 29 31  1  0
 31 32  2  0
 21 33  2  0
 14 34  1  0
 34 35  1  0
  6 36  1  0
 36 37  2  0
 37  3  1  0
 35 11  1  0
 33 17  1  0
 32 26  1  0
  1 38  1  0
  1 39  1  0
  1 40  1  0
  4 41  1  0
  5 42  1  0
  7 43  1  0
  7 44  1  0
  8 45  1  0
 11 46  1  0
 12 47  1  0
 12 48  1  0
 13 49  1  0
 13 50  1  0
 18 51  1  0
 19 52  1  0
 20 53  1  0
 27 54  1  0
 28 55  1  0
 31 56  1  0
 32 57  1  0
 33 58  1  0
 34 59  1  0
 34 60  1  0
 35 61  1  0
 35 62  1  0
 36 63  1  0
 37 64  1  0
M  CHG  2  25  -1  30  -1
M  END
>  <UniqueID>  (71) 
66

>  <SMILES>  (71) 
COc1ccc(CNC(=O)C2CCN(C(=O)c3cccc(S(=O)(=O)[N-]c4ccc([O-])cc4)c3)CC2)cc1

>  <Energy>  (71) 
78.52271025650761

>  <Genealogy>  (71) 
COc1ccc(CNC(=O)C2CCN(C(=O)c3cccc(S(=O)(=O)[N-]c4ccc([O-])cc4)c3)CC2)cc1 (protonated)
COc1ccc(CNC(=O)C2CCN(C(=O)c3cccc(S(=O)(=O)[N-]c4ccc([O-])cc4)c3)CC2)cc1 (3D coordinates assigned)
COc1ccc(CNC(=O)C2CCN(C(=O)c3cccc(S(=O)(=O)[N-]c4ccc([O-])cc4)c3)CC2)cc1 (nonaromatic ring conformer: 78.52271025650761 kcal/mol)

>  <smiles>  (71) 
COc1ccc(CNC(=O)C2CCN(C(=O)c3cccc(S(=O)(=O)Nc4ccc(O)cc4)c3)CC2)cc1

>  <score_type>  (71) 
oracle

>  <origin>  (71) 
adg

>  <m_score__min__energy>  (71) 
-13.94

>  <m_primary>  (71) 
energy

$$$$
71:0
     RDKit          3D

 49 52  0  0  0  0  0  0  0  0999 V2000
   60.2160   28.1740   52.5050 O   0  0  0  0  0  0  0  0  0  0  0  0
   59.7040   28.9750   51.6800 C   0  0  0  0  0  0  0  0  0  0  0  0
   58.8270   29.9930   52.1920 N   0  0  0  0  0  0  0  0  0  0  0  0
   57.5280   30.0620   52.2300 C   0  0  0  0  0  0  0  0  0  0  0  0
   56.8460   30.8740   51.3940 N   0  0  0  0  0  0  0  0  0  0  0  0
   55.5060   30.8170   51.6040 C   0  0  0  0  0  0  0  0  0  0  0  0
   55.1150   29.9540   52.6220 C   0  0  0  0  0  0  0  0  0  0  0  0
   53.7290   29.8260   53.1710 C   0  0  0  0  0  0  0  0  0  0  0  0
   52.7250   30.5270   52.3010 C   0  0  0  0  0  0  0  0  0  0  0  0
   51.9130   31.5030   52.7590 N   0  0  0  0  0  0  0  0  0  0  0  0
   51.1630   32.0470   51.7630 C   0  0  0  0  0  0  0  0  0  0  0  0
   50.2630   33.0760   52.0020 O   0  0  0  0  0  0  0  0  0  0  0  0
   51.3740   31.5210   50.4940 C   0  0  0  0  0  0  0  0  0  0  0  0
   52.5530   30.3330   50.6320 S   0  0  0  0  0  0  0  0  0  0  0  0
   56.4900   29.2170   53.2590 S   0  0  0  0  0  0  0  0  0  0  0  0
   60.0780   28.8170   50.2610 C   0  0  0  0  0  0  0  0  0  0  0  0
   61.3040   28.8360   49.9750 O   0  0  0  0  0  0  0  0  0  0  0  0
   59.1420   28.6000   49.1920 N   0  0  0  0  0  0  0  0  0  0  0  0
   59.2920   28.6360   47.7620 C   0  0  0  0  0  0  0  0  0  0  0  0
   60.2800   27.9140   47.0700 C   0  0  0  0  0  0  0  0  0  0  0  0
   60.3150   27.9400   45.6730 C   0  0  0  0  0  0  0  0  0  0  0  0
   59.3970   28.7140   44.9590 C   0  0  0  0  0  0  0  0  0  0  0  0
   58.4510   29.4940   45.6410 C   0  0  0  0  0  0  0  0  0  0  0  0
   57.3570   30.5640   44.7600 S   0  0  0  0  0  0  0  0  0  0  0  0
   55.9610   30.0120   44.8510 O   0  0  0  0  0  0  0  0  0  0  0  0
   57.7590   30.5850   43.3110 O   0  0  0  0  0  0  0  0  0  0  0  0
   57.3810   32.1850   45.4180 N   0  0  0  0  0  0  0  0  0  0  0  0
   58.5180   32.3400   46.3420 C   0  0  0  0  0  0  0  0  0  0  0  0
   58.6420   33.8000   46.7980 C   0  0  0  0  0  0  0  0  0  0  0  0
   58.7770   34.6680   45.6900 O   0  0  0  0  0  0  0  0  0  0  0  0
   57.6290   34.5710   44.8720 C   0  0  0  0  0  0  0  0  0  0  0  0
   57.4890   33.1520   44.3140 C   0  0  0  0  0  0  0  0  0  0  0  0
   58.4130   29.4540   47.0400 C   0  0  0  0  0  0  0  0  0  0  0  0
   54.7870   31.4063   51.0160 H   0  0  0  0  0  0  0  0  0  0  0  0
   53.4660   28.7597   53.2324 H   0  0  0  0  0  0  0  0  0  0  0  0
   53.7080   30.2926   54.1669 H   0  0  0  0  0  0  0  0  0  0  0  0
   50.8627   31.8266   49.5692 H   0  0  0  0  0  0  0  0  0  0  0  0
   61.0256   27.3286   47.6280 H   0  0  0  0  0  0  0  0  0  0  0  0
   61.0689   27.3482   45.1332 H   0  0  0  0  0  0  0  0  0  0  0  0
   59.4159   28.7119   43.8592 H   0  0  0  0  0  0  0  0  0  0  0  0
   58.3606   31.6979   47.2212 H   0  0  0  0  0  0  0  0  0  0  0  0
   59.4425   32.0491   45.8218 H   0  0  0  0  0  0  0  0  0  0  0  0
   57.7408   34.0775   47.3645 H   0  0  0  0  0  0  0  0  0  0  0  0
   59.5384   33.8950   47.4284 H   0  0  0  0  0  0  0  0  0  0  0  0
   56.7375   34.8155   45.4682 H   0  0  0  0  0  0  0  0  0  0  0  0
   57.7281   35.2758   44.0333 H   0  0  0  0  0  0  0  0  0  0  0  0
   56.5855   33.0938   43.6892 H   0  0  0  0  0  0  0  0  0  0  0  0
   58.3766   32.9125   43.7100 H   0  0  0  0  0  0  0  0  0  0  0  0
   57.6823   30.0739   47.5802 H   0  0  0  0  0  0  0  0  0  0  0  0
  1  2  2  0
  2  3  1  0
  3  4  2  3
  4  5  1  0
  5  6  1  0
  6  7  2  0
  7  8  1  0
  8  9  1  0
  9 10  2  0
 10 11  1  0
 11 12  1  0
 11 13  2  0
 13 14  1  0
  7 15  1  0
  2 16  1  0
 16 17  2  0
 16 18  1  0
 18 19  1  0
 19 20  2  0
 20 21  1  0
 21 22  2  0
 22 23  1  0
 23 24  1  0
 24 25  2  0
 24 26  2  0
 24 27  1  0
 27 28  1  0
 28 29  1  0
 29 30  1  0
 30 31  1  0
 31 32  1  0
 23 33  2  0
 15  4  1  0
 33 19  1  0
 14  9  1  0
 32 27  1  0
  6 34  1  0
  8 35  1  0
  8 36  1  0
 13 37  1  0
 20 38  1  0
 21 39  1  0
 22 40  1  0
 28 41  1  0
 28 42  1  0
 29 43  1  0
 29 44  1  0
 31 45  1  0
 31 46  1  0
 32 47  1  0
 32 48  1  0
 33 49  1  0
M  CHG  3   5  -1  12  -1  18  -1
M  END
>  <UniqueID>  (72) 
67

>  <SMILES>  (72) 
O=C(N=c1[n-]cc(Cc2nc([O-])cs2)s1)C(=O)[N-]c1cccc(S(=O)(=O)N2CCOCC2)c1

>  <Energy>  (72) 
122.39165912177758

>  <Genealogy>  (72) 
O=C(N=c1[n-]cc(Cc2nc([O-])cs2)s1)C(=O)[N-]c1cccc(S(=O)(=O)N2CCOCC2)c1 (protonated)
O=C(N=c1[n-]cc(Cc2nc([O-])cs2)s1)C(=O)[N-]c1cccc(S(=O)(=O)N2CCOCC2)c1 (3D coordinates assigned)
O=C(N=c1[n-]cc(Cc2nc([O-])cs2)s1)C(=O)[N-]c1cccc(S(=O)(=O)N2CCOCC2)c1 (nonaromatic ring conformer: 122.39165912177758 kcal/mol)

>  <smiles>  (72) 
O=C(N=c1[nH]cc(Cc2nc(O)cs2)s1)C(=O)Nc1cccc(S(=O)(=O)N2CCOCC2)c1

>  <score_type>  (72) 
oracle

>  <origin>  (72) 
adg

>  <m_score__min__energy>  (72) 
-16

>  <m_primary>  (72) 
energy

$$$$
72:0
     RDKit          3D

 66 71  0  0  0  0  0  0  0  0999 V2000
   56.9080   20.9730   43.0340 C   0  0  0  0  0  0  0  0  0  0  0  0
   56.0830   21.9660   43.6320 O   0  0  0  0  0  0  0  0  0  0  0  0
   56.5150   23.2580   43.9680 C   0  0  0  0  0  0  0  0  0  0  0  0
   57.0270   24.1550   43.0100 C   0  0  0  0  0  0  0  0  0  0  0  0
   57.4540   25.4280   43.3970 C   0  0  0  0  0  0  0  0  0  0  0  0
   57.3890   25.8190   44.7410 C   0  0  0  0  0  0  0  0  0  0  0  0
   57.8090   27.1380   45.1200 N   0  0  0  0  0  0  0  0  0  0  0  0
   57.4870   28.2180   44.4250 N   0  0  0  0  0  0  0  0  0  0  0  0
   58.0720   29.2840   45.0060 C   0  0  0  0  0  0  0  0  0  0  0  0
   57.7830   30.6630   44.5820 C   0  0  0  0  0  0  0  0  0  0  0  0
   58.3090   31.1630   43.3540 N   0  0  0  0  0  0  0  0  0  0  0  0
   57.0300   31.3940   45.2790 O   0  0  0  0  0  0  0  0  0  0  0  0
   58.8310   28.8550   46.0970 C   0  0  0  0  0  0  0  0  0  0  0  0
   58.6020   27.4880   46.1580 C   0  0  0  0  0  0  0  0  0  0  0  0
   59.2990   26.5450   47.0990 C   0  0  0  0  0  0  0  0  0  0  0  0
   59.6730   27.4010   48.6190 S   0  0  0  0  0  0  0  0  0  0  0  0
   60.8860   26.5680   49.4320 O   0  0  0  0  0  0  0  0  0  0  0  0
   60.2170   29.0160   48.1800 C   0  0  0  0  0  0  0  0  0  0  0  0
   61.1190   29.6960   49.0060 C   0  0  0  0  0  0  0  0  0  0  0  0
   61.6480   30.9260   48.6080 C   0  0  0  0  0  0  0  0  0  0  0  0
   61.3030   31.4750   47.3650 C   0  0  0  0  0  0  0  0  0  0  0  0
   61.9210   32.7440   46.9100 C   0  0  0  0  0  0  0  0  0  0  0  0
   63.1580   32.7830   46.6770 O   0  0  0  0  0  0  0  0  0  0  0  0
   61.1550   33.9480   46.7650 N   0  0  0  0  0  0  0  0  0  0  0  0
   59.7850   34.0220   46.3450 C   0  0  0  0  0  0  0  0  0  0  0  0
   59.4990   34.3740   45.0120 C   0  0  0  0  0  0  0  0  0  0  0  0
   58.1850   34.4210   44.5540 C   0  0  0  0  0  0  0  0  0  0  0  0
   57.1370   34.1260   45.4200 C   0  0  0  0  0  0  0  0  0  0  0  0
   57.3970   33.7910   46.7490 C   0  0  0  0  0  0  0  0  0  0  0  0
   58.7190   33.7420   47.2480 C   0  0  0  0  0  0  0  0  0  0  0  0
   58.9430   33.3710   48.6370 N   0  0  0  0  0  0  0  0  0  0  0  0
   59.7810   34.1460   49.5450 C   0  0  0  0  0  0  0  0  0  0  0  0
   59.6610   33.4800   50.9070 C   0  0  0  0  0  0  0  0  0  0  0  0
   59.1450   32.0780   50.6270 C   0  0  0  0  0  0  0  0  0  0  0  0
   58.4350   32.1680   49.2850 C   0  0  0  0  0  0  0  0  0  0  0  0
   60.3650   30.8070   46.5570 C   0  0  0  0  0  0  0  0  0  0  0  0
   59.7900   29.5930   46.9660 C   0  0  0  0  0  0  0  0  0  0  0  0
   56.8510   24.9380   45.6900 C   0  0  0  0  0  0  0  0  0  0  0  0
   56.4270   23.6620   45.3050 C   0  0  0  0  0  0  0  0  0  0  0  0
   57.3992   20.3818   43.8209 H   0  0  0  0  0  0  0  0  0  0  0  0
   56.2905   20.3108   42.4094 H   0  0  0  0  0  0  0  0  0  0  0  0
   57.6722   21.4587   42.4094 H   0  0  0  0  0  0  0  0  0  0  0  0
   57.0908   23.8525   41.9543 H   0  0  0  0  0  0  0  0  0  0  0  0
   57.8434   26.1271   42.6423 H   0  0  0  0  0  0  0  0  0  0  0  0
   58.0760   32.1300   43.0360 H   0  0  0  0  0  0  0  0  0  0  0  0
   58.9350   30.5750   42.7590 H   0  0  0  0  0  0  0  0  0  0  0  0
   58.6443   25.6870   47.3117 H   0  0  0  0  0  0  0  0  0  0  0  0
   60.2312   26.1860   46.6385 H   0  0  0  0  0  0  0  0  0  0  0  0
   60.7400   26.7670   50.3900 H   0  0  0  0  0  0  0  0  0  0  0  0
   61.4126   29.2602   49.9724 H   0  0  0  0  0  0  0  0  0  0  0  0
   62.3382   31.4662   49.2727 H   0  0  0  0  0  0  0  0  0  0  0  0
   60.3233   34.6147   44.3245 H   0  0  0  0  0  0  0  0  0  0  0  0
   57.9758   34.6911   43.5084 H   0  0  0  0  0  0  0  0  0  0  0  0
   56.0996   34.1570   45.0555 H   0  0  0  0  0  0  0  0  0  0  0  0
   56.5576   33.5606   47.4215 H   0  0  0  0  0  0  0  0  0  0  0  0
   60.8268   34.1315   49.2044 H   0  0  0  0  0  0  0  0  0  0  0  0
   59.4626   35.1982   49.5842 H   0  0  0  0  0  0  0  0  0  0  0  0
   60.6423   33.4371   51.4022 H   0  0  0  0  0  0  0  0  0  0  0  0
   58.9892   34.0369   51.5768 H   0  0  0  0  0  0  0  0  0  0  0  0
   59.9803   31.3643   50.5731 H   0  0  0  0  0  0  0  0  0  0  0  0
   58.4724   31.7239   51.4221 H   0  0  0  0  0  0  0  0  0  0  0  0
   58.6603   31.2815   48.6740 H   0  0  0  0  0  0  0  0  0  0  0  0
   57.3431   32.2107   49.4109 H   0  0  0  0  0  0  0  0  0  0  0  0
   60.0773   31.2428   45.5889 H   0  0  0  0  0  0  0  0  0  0  0  0
   56.7621   25.2514   46.7406 H   0  0  0  0  0  0  0  0  0  0  0  0
   56.0214   22.9709   46.0586 H   0  0  0  0  0  0  0  0  0  0  0  0
  1  2  1  0
  2  3  1  0
  3  4  2  0
  4  5  1  0
  5  6  2  0
  6  7  1  0
  7  8  1  0
  8  9  2  0
  9 10  1  0
 10 11  1  0
 10 12  2  0
  9 13  1  0
 13 14  2  0
 14 15  1  0
 15 16  1  0
 16 17  1  6
 16 18  1  0
 18 19  2  0
 19 20  1  0
 20 21  2  0
 21 22  1  0
 22 23  2  0
 22 24  1  0
 24 25  1  0
 25 26  2  0
 26 27  1  0
 27 28  2  0
 28 29  1  0
 29 30  2  0
 30 31  1  0
 31 32  1  0
 32 33  1  0
 33 34  1  0
 34 35  1  0
 21 36  1  0
 36 37  2  0
  6 38  1  0
 38 39  2  0
 39  3  1  0
 14  7  1  0
 37 18  1  0
 37 13  1  0
 30 25  1  0
 35 31  1  0
  1 40  1  0
  1 41  1  0
  1 42  1  0
  4 43  1  0
  5 44  1  0
 11 45  1  0
 11 46  1  0
 15 47  1  0
 15 48  1  0
 17 49  1  0
 19 50  1  0
 20 51  1  0
 26 52  1  0
 27 53  1  0
 28 54  1  0
 29 55  1  0
 32 56  1  0
 32 57  1  0
 33 58  1  0
 33 59  1  0
 34 60  1  0
 34 61  1  0
 35 62  1  0
 35 63  1  0
 36 64  1  0
 38 65  1  0
 39 66  1  0
M  CHG  2  16   1  24  -1
M  END
>  <UniqueID>  (73) 
68

>  <SMILES>  (73) 
COc1ccc(-n2nc(C(N)=O)c3c2C[S@@+](O)c2ccc(C(=O)[N-]c4ccccc4N4CCCC4)cc2-3)cc1

>  <Energy>  (73) 
129.77113381240835

>  <Genealogy>  (73) 
COc1ccc(-n2nc(C(N)=O)c3c2C[S+](O)c2ccc(C(=O)[N-]c4ccccc4N4CCCC4)cc2-3)cc1 (protonated)
COc1ccc(-n2nc(C(N)=O)c3c2C[S@@+](O)c2ccc(C(=O)[N-]c4ccccc4N4CCCC4)cc2-3)cc1 (chirality)
COc1ccc(-n2nc(C(N)=O)c3c2C[S@@+](O)c2ccc(C(=O)[N-]c4ccccc4N4CCCC4)cc2-3)cc1 (3D coordinates assigned)
COc1ccc(-n2nc(C(N)=O)c3c2C[S@@+](O)c2ccc(C(=O)[N-]c4ccccc4N4CCCC4)cc2-3)cc1 (nonaromatic ring conformer: 129.77113381240835 kcal/mol)

>  <smiles>  (73) 
COc1ccc(-n2nc(C(N)=O)c3c2C[S+]([O-])c2ccc(C(=O)Nc4ccccc4N4CCCC4)cc2-3)cc1

>  <score_type>  (73) 
oracle

>  <origin>  (73) 
adg

>  <m_score__min__energy>  (73) 
-9.6999999999999993

>  <m_primary>  (73) 
energy

$$$$
73:0
     RDKit          3D

 50 53  0  0  0  0  0  0  0  0999 V2000
   57.9111   29.4532   44.5907 H   0  0  0  0  0  0  0  0  0  0  0  0
   57.6950   28.3760   44.5370 C   0  0  0  0  0  0  0  0  0  0  0  0
   57.0844   27.9779   43.7132 H   0  0  0  0  0  0  0  0  0  0  0  0
   58.1760   27.5480   45.4760 C   0  0  0  0  0  0  0  0  0  0  0  0
   57.9860   26.1630   45.5400 C   0  0  0  0  0  0  0  0  0  0  0  0
   57.2650   25.3980   44.6980 C   0  0  0  0  0  0  0  0  0  0  0  0
   57.6630   25.2283   43.6867 H   0  0  0  0  0  0  0  0  0  0  0  0
   55.9760   24.7740   45.0470 C   0  0  0  0  0  0  0  0  0  0  0  0
   55.7380   23.4560   44.9300 N   0  0  0  0  0  0  0  0  0  0  0  0
   54.4910   23.3150   45.4300 C   0  0  0  0  0  0  0  0  0  0  0  0
   53.9020   22.2050   45.4800 O   0  0  0  0  0  0  0  0  0  0  0  0
   53.9290   24.4580   45.8800 N   0  0  0  0  0  0  0  0  0  0  0  0
   54.8850   25.3710   45.6430 C   0  0  0  0  0  0  0  0  0  0  0  0
   54.7790   26.7060   46.0090 O   0  0  0  0  0  0  0  0  0  0  0  0
   58.6370   25.7340   46.6900 C   0  0  0  0  0  0  0  0  0  0  0  0
   58.6863   24.7032   47.0709 H   0  0  0  0  0  0  0  0  0  0  0  0
   59.2100   26.8520   47.2620 C   0  0  0  0  0  0  0  0  0  0  0  0
   59.9900   26.8490   48.5420 C   0  0  0  0  0  0  0  0  0  0  0  0
   59.2952   26.8517   49.3948 H   0  0  0  0  0  0  0  0  0  0  0  0
   60.6202   25.9484   48.5853 H   0  0  0  0  0  0  0  0  0  0  0  0
   60.6271   27.7447   48.5853 H   0  0  0  0  0  0  0  0  0  0  0  0
   58.9230   27.9520   46.5330 N   0  0  0  0  0  0  0  0  0  0  0  0
   59.3500   29.2930   46.8310 C   0  0  0  0  0  0  0  0  0  0  0  0
   58.5660   30.1100   47.6580 C   0  0  0  0  0  0  0  0  0  0  0  0
   57.6272   29.7220   48.0800 H   0  0  0  0  0  0  0  0  0  0  0  0
   58.9720   31.4140   47.9480 C   0  0  0  0  0  0  0  0  0  0  0  0
   58.3528   32.0483   48.5993 H   0  0  0  0  0  0  0  0  0  0  0  0
   60.1670   31.9190   47.4120 C   0  0  0  0  0  0  0  0  0  0  0  0
   60.6260   33.3160   47.7400 C   0  0  0  0  0  0  0  0  0  0  0  0
   61.1967   33.7165   46.8892 H   0  0  0  0  0  0  0  0  0  0  0  0
   59.7412   33.9392   47.9370 H   0  0  0  0  0  0  0  0  0  0  0  0
   61.4860   33.3210   48.9460 N   0  0  0  0  0  0  0  0  0  0  0  0
   61.9580   31.9620   49.3100 C   0  0  0  0  0  0  0  0  0  0  0  0
   61.9820   31.8835   50.4069 H   0  0  0  0  0  0  0  0  0  0  0  0
   61.2592   31.2436   48.8566 H   0  0  0  0  0  0  0  0  0  0  0  0
   63.3630   31.6350   48.7660 C   0  0  0  0  0  0  0  0  0  0  0  0
   64.1158   31.8993   49.5232 H   0  0  0  0  0  0  0  0  0  0  0  0
   63.4175   30.5600   48.5393 H   0  0  0  0  0  0  0  0  0  0  0  0
   63.6230   32.3930   47.5420 N   0  0  0  0  0  0  0  0  0  0  0  0
   64.5550   32.1000   47.1660 H   0  0  0  0  0  0  0  0  0  0  0  0
   63.6740   33.8370   47.8180 C   0  0  0  0  0  0  0  0  0  0  0  0
   64.6709   34.0866   48.2104 H   0  0  0  0  0  0  0  0  0  0  0  0
   63.4675   34.3660   46.8759 H   0  0  0  0  0  0  0  0  0  0  0  0
   62.6100   34.2780   48.8490 C   0  0  0  0  0  0  0  0  0  0  0  0
   63.0883   34.3619   49.8360 H   0  0  0  0  0  0  0  0  0  0  0  0
   62.2003   35.2428   48.5155 H   0  0  0  0  0  0  0  0  0  0  0  0
   60.9540   31.0980   46.5880 C   0  0  0  0  0  0  0  0  0  0  0  0
   61.8953   31.4839   46.1696 H   0  0  0  0  0  0  0  0  0  0  0  0
   60.5470   29.7930   46.2970 C   0  0  0  0  0  0  0  0  0  0  0  0
   61.3290   29.0070   45.5150 F   0  0  0  0  0  0  0  0  0  0  0  0
  1  2  1  0
  2  3  1  0
  2  4  2  0
  4  5  1  0
  5  6  2  0
  6  7  1  0
  6  8  1  0
  8  9  1  0
  9 10  1  0
 10 11  2  0
 10 12  1  0
 12 13  1  0
 13 14  1  0
  5 15  1  0
 15 16  1  0
 15 17  2  0
 17 18  1  0
 18 19  1  0
 18 20  1  0
 18 21  1  0
 17 22  1  0
 22 23  1  0
 23 24  2  0
 24 25  1  0
 24 26  1  0
 26 27  1  0
 26 28  2  0
 28 29  1  0
 29 30  1  0
 29 31  1  0
 29 32  1  0
 32 33  1  0
 33 34  1  0
 33 35  1  0
 33 36  1  0
 36 37  1  0
 36 38  1  0
 36 39  1  0
 39 40  1  0
 39 41  1  0
 41 42  1  0
 41 43  1  0
 41 44  1  0
 44 45  1  0
 44 46  1  0
 28 47  1  0
 47 48  1  0
 47 49  2  0
 49 50  1  0
 22  4  1  0
 49 23  1  0
 13  8  2  0
 44 32  1  0
M  CHG  3   9  -1  12  -1  14  -1
M  END
>  <UniqueID>  (74) 
69

>  <SMILES>  (74) 
C=c1/c(=C/c2[n-]c(=O)[n-]c2[O-])cc(C)n1-c1ccc(CN2CCNCC2)cc1F

>  <Energy>  (74) 
134.04271953655893

>  <Genealogy>  (74) 
C=c1c(=Cc2[n-]c(=O)[n-]c2[O-])cc(C)n1-c1ccc(CN2CCNCC2)cc1F (protonated)
C=c1/c(=C/c2[n-]c(=O)[n-]c2[O-])cc(C)n1-c1ccc(CN2CCNCC2)cc1F (cis-trans isomerization)
C=c1/c(=C/c2[n-]c(=O)[n-]c2[O-])cc(C)n1-c1ccc(CN2CCNCC2)cc1F (3D coordinates assigned)
C=c1/c(=C/c2[n-]c(=O)[n-]c2[O-])cc(C)n1-c1ccc(CN2CCNCC2)cc1F (nonaromatic ring conformer: 134.04271953655893 kcal/mol)

>  <smiles>  (74) 
C=c1c(=Cc2[nH]c(=O)[nH]c2O)cc(C)n1-c1ccc(CN2CCNCC2)cc1F

>  <score_type>  (74) 
oracle

>  <origin>  (74) 
adg

>  <m_score__min__energy>  (74) 
-15.390000000000001

>  <m_primary>  (74) 
energy

$$$$
74:0
     RDKit          3D

 22 22  0  0  0  0  0  0  0  0999 V2000
   61.0630   28.5410   45.0070 C   0  0  0  0  0  0  0  0  0  0  0  0
   59.5740   28.7200   44.9990 C   0  0  0  0  0  0  0  0  0  0  0  0
   59.0070   29.8780   44.4530 C   0  0  0  0  0  0  0  0  0  0  0  0
   57.6140   30.0380   44.4090 C   0  0  0  0  0  0  0  0  0  0  0  0
   57.0200   31.2890   43.8230 C   0  0  0  0  0  0  0  0  0  0  0  0
   56.7750   29.0190   44.8990 C   0  0  0  0  0  0  0  0  0  0  0  0
   55.3900   29.2000   44.8400 O   0  0  0  0  0  0  0  0  0  0  0  0
   57.3420   27.8400   45.4350 C   0  0  0  0  0  0  0  0  0  0  0  0
   56.4740   26.7280   45.9600 C   0  0  0  0  0  0  0  0  0  0  0  0
   58.7390   27.6990   45.4730 C   0  0  0  0  0  0  0  0  0  0  0  0
   61.4215   28.4979   46.0460 H   0  0  0  0  0  0  0  0  0  0  0  0
   61.3226   27.6052   44.4904 H   0  0  0  0  0  0  0  0  0  0  0  0
   61.5370   29.3886   44.4904 H   0  0  0  0  0  0  0  0  0  0  0  0
   59.6595   30.6691   44.0551 H   0  0  0  0  0  0  0  0  0  0  0  0
   56.7018   31.9591   44.6352 H   0  0  0  0  0  0  0  0  0  0  0  0
   57.7732   31.7967   43.2026 H   0  0  0  0  0  0  0  0  0  0  0  0
   56.1505   31.0263   43.2026 H   0  0  0  0  0  0  0  0  0  0  0  0
   54.7660   28.9630   45.6010 H   0  0  0  0  0  0  0  0  0  0  0  0
   56.4851   26.7423   47.0599 H   0  0  0  0  0  0  0  0  0  0  0  0
   55.4433   26.8672   45.6019 H   0  0  0  0  0  0  0  0  0  0  0  0
   56.8593   25.7619   45.6019 H   0  0  0  0  0  0  0  0  0  0  0  0
   59.1823   26.7777   45.8790 H   0  0  0  0  0  0  0  0  0  0  0  0
  1  2  1  0
  2  3  2  0
  3  4  1  0
  4  5  1  0
  4  6  2  0
  6  7  1  0
  6  8  1  0
  8  9  1  0
  8 10  2  0
 10  2  1  0
  1 11  1  0
  1 12  1  0
  1 13  1  0
  3 14  1  0
  5 15  1  0
  5 16  1  0
  5 17  1  0
  7 18  1  0
  9 19  1  0
  9 20  1  0
  9 21  1  0
 10 22  1  0
M  END
>  <UniqueID>  (75) 
70

>  <SMILES>  (75) 
Cc1cc(C)c(O)c(C)c1

>  <Energy>  (75) 
19.68347995286856

>  <Genealogy>  (75) 
Cc1cc(C)c(O)c(C)c1 (3D coordinates assigned)
Cc1cc(C)c(O)c(C)c1 (optimized conformer: 19.68347995286856 kcal/mol)

>  <smiles>  (75) 
Cc1cc(C)c(O)c(C)c1

>  <score_type>  (75) 
oracle

>  <origin>  (75) 
adg

>  <m_score__min__energy>  (75) 
-5.6500000000000004

>  <m_primary>  (75) 
energy

$$$$
75:0
     RDKit          3D

 45 48  0  0  0  0  0  0  0  0999 V2000
   58.5469   34.0685   48.4624 H   0  0  0  0  0  0  0  0  0  0  0  0
   59.6080   33.8900   48.2340 C   0  0  0  0  0  0  0  0  0  0  0  0
   60.5820   34.1970   49.1860 C   0  0  0  0  0  0  0  0  0  0  0  0
   60.2802   34.6151   50.1576 H   0  0  0  0  0  0  0  0  0  0  0  0
   61.9420   33.9780   48.9170 C   0  0  0  0  0  0  0  0  0  0  0  0
   62.9670   34.3110   49.9700 C   0  0  0  0  0  0  0  0  0  0  0  0
   62.5271   34.1681   50.9680 H   0  0  0  0  0  0  0  0  0  0  0  0
   63.8386   33.6498   49.8554 H   0  0  0  0  0  0  0  0  0  0  0  0
   63.2836   35.3582   49.8554 H   0  0  0  0  0  0  0  0  0  0  0  0
   62.3220   33.4350   47.6670 C   0  0  0  0  0  0  0  0  0  0  0  0
   63.7680   33.1710   47.3390 C   0  0  0  0  0  0  0  0  0  0  0  0
   64.3422   33.0662   48.2713 H   0  0  0  0  0  0  0  0  0  0  0  0
   63.8476   32.2435   46.7530 H   0  0  0  0  0  0  0  0  0  0  0  0
   64.1703   34.0106   46.7530 H   0  0  0  0  0  0  0  0  0  0  0  0
   61.3330   33.1340   46.7140 C   0  0  0  0  0  0  0  0  0  0  0  0
   61.6283   32.7189   45.7391 H   0  0  0  0  0  0  0  0  0  0  0  0
   59.9710   33.3560   46.9890 C   0  0  0  0  0  0  0  0  0  0  0  0
   58.9360   33.0280   45.9770 C   0  0  0  0  0  0  0  0  0  0  0  0
   57.9100   32.1060   46.1180 C   0  0  0  0  0  0  0  0  0  0  0  0
   57.6841   31.4681   46.9852 H   0  0  0  0  0  0  0  0  0  0  0  0
   57.2400   32.1770   44.9160 C   0  0  0  0  0  0  0  0  0  0  0  0
   56.1960   31.4620   44.6160 N   0  0  0  0  0  0  0  0  0  0  0  0
   56.1780   30.0440   44.4000 C   0  0  0  0  0  0  0  0  0  0  0  0
   55.2550   29.3230   44.8660 O   0  0  0  0  0  0  0  0  0  0  0  0
   57.2960   29.4080   43.6370 C   0  0  0  0  0  0  0  0  0  0  0  0
   56.8990   28.5786   43.0332 H   0  0  0  0  0  0  0  0  0  0  0  0
   57.7582   30.1603   42.9809 H   0  0  0  0  0  0  0  0  0  0  0  0
   58.3300   28.8810   44.5840 C   0  0  0  0  0  0  0  0  0  0  0  0
   59.6020   29.4030   44.7990 C   0  0  0  0  0  0  0  0  0  0  0  0
   60.0299   30.2580   44.2550 H   0  0  0  0  0  0  0  0  0  0  0  0
   60.2380   28.7100   45.7720 N   0  0  0  0  0  0  0  0  0  0  0  0
   61.2010   28.8860   46.1360 H   0  0  0  0  0  0  0  0  0  0  0  0
   59.3750   27.7650   46.1800 C   0  0  0  0  0  0  0  0  0  0  0  0
   59.5730   26.8140   47.1810 C   0  0  0  0  0  0  0  0  0  0  0  0
   60.5224   26.7615   47.7340 H   0  0  0  0  0  0  0  0  0  0  0  0
   58.5200   25.9240   47.4610 C   0  0  0  0  0  0  0  0  0  0  0  0
   58.6435   25.1596   48.2423 H   0  0  0  0  0  0  0  0  0  0  0  0
   57.3050   26.0060   46.7450 C   0  0  0  0  0  0  0  0  0  0  0  0
   56.4886   25.3051   46.9735 H   0  0  0  0  0  0  0  0  0  0  0  0
   57.1310   26.9770   45.7420 C   0  0  0  0  0  0  0  0  0  0  0  0
   56.1881   27.0525   45.1806 H   0  0  0  0  0  0  0  0  0  0  0  0
   58.1960   27.8410   45.4840 C   0  0  0  0  0  0  0  0  0  0  0  0
   57.8140   33.0810   44.1000 N   0  0  0  0  0  0  0  0  0  0  0  0
   58.8450   33.5930   44.7530 N   0  0  0  0  0  0  0  0  0  0  0  0
   59.4630   34.3350   44.3580 H   0  0  0  0  0  0  0  0  0  0  0  0
  1  2  1  0
  2  3  2  0
  3  4  1  0
  3  5  1  0
  5  6  1  0
  6  7  1  0
  6  8  1  0
  6  9  1  0
  5 10  2  0
 10 11  1  0
 11 12  1  0
 11 13  1  0
 11 14  1  0
 10 15  1  0
 15 16  1  0
 15 17  2  0
 17 18  1  0
 18 19  2  0
 19 20  1  0
 19 21  1  0
 21 22  2  0
 22 23  1  0
 23 24  2  0
 23 25  1  0
 25 26  1  0
 25 27  1  0
 25 28  1  0
 28 29  2  0
 29 30  1  0
 29 31  1  0
 31 32  1  0
 31 33  1  0
 33 34  2  0
 34 35  1  0
 34 36  1  0
 36 37  1  0
 36 38  2  0
 38 39  1  0
 38 40  1  0
 40 41  1  0
 40 42  2  0
 21 43  1  0
 43 44  1  0
 44 45  1  0
 17  2  1  0
 44 18  1  0
 42 28  1  0
 42 33  1  0
M  CHG  1  43  -1
M  END
>  <UniqueID>  (76) 
71

>  <SMILES>  (76) 
Cc1ccc(-c2c/c(=N/C(=O)Cc3c[nH]c4ccccc34)[n-][nH]2)cc1C

>  <Energy>  (76) 
114.64222580338767

>  <Genealogy>  (76) 
Cc1ccc(-c2cc(=NC(=O)Cc3c[nH]c4ccccc34)[n-][nH]2)cc1C (protonated)
Cc1ccc(-c2c/c(=N/C(=O)Cc3c[nH]c4ccccc34)[n-][nH]2)cc1C (cis-trans isomerization)
Cc1ccc(-c2c/c(=N/C(=O)Cc3c[nH]c4ccccc34)[n-][nH]2)cc1C (3D coordinates assigned)
Cc1ccc(-c2c/c(=N/C(=O)Cc3c[nH]c4ccccc34)[n-][nH]2)cc1C (optimized conformer: 114.64222580338767 kcal/mol)

>  <smiles>  (76) 
Cc1ccc(-c2cc(=NC(=O)Cc3c[nH]c4ccccc34)[nH][nH]2)cc1C

>  <score_type>  (76) 
oracle

>  <origin>  (76) 
adg

>  <m_score__min__energy>  (76) 
-10.720000000000001

>  <m_primary>  (76) 
energy

$$$$
76:0
     RDKit          3D

 28 29  0  0  0  0  0  0  0  0999 V2000
   54.6500   28.5970   44.5150 H   0  0  0  0  0  0  0  0  0  0  0  0
   55.5540   29.0440   44.6280 O   0  0  0  0  0  0  0  0  0  0  0  0
   56.6410   28.3660   45.1780 C   0  0  0  0  0  0  0  0  0  0  0  0
   57.9350   28.8420   44.9870 C   0  0  0  0  0  0  0  0  0  0  0  0
   58.0973   29.7322   44.3616 H   0  0  0  0  0  0  0  0  0  0  0  0
   59.0350   28.2050   45.5790 C   0  0  0  0  0  0  0  0  0  0  0  0
   60.3960   28.8250   45.3570 C   0  0  0  0  0  0  0  0  0  0  0  0
   60.8646   29.0385   46.3290 H   0  0  0  0  0  0  0  0  0  0  0  0
   61.0291   28.1265   44.7902 H   0  0  0  0  0  0  0  0  0  0  0  0
   60.2844   29.7611   44.7902 H   0  0  0  0  0  0  0  0  0  0  0  0
   58.8290   27.0720   46.4280 C   0  0  0  0  0  0  0  0  0  0  0  0
   59.8670   26.6360   47.2020 C   0  0  0  0  0  0  0  0  0  0  0  0
   60.4874   25.8259   46.7910 H   0  0  0  0  0  0  0  0  0  0  0  0
   60.2360   27.1470   48.5360 C   0  0  0  0  0  0  0  0  0  0  0  0
   60.7900   26.3670   49.4810 N   0  0  0  0  0  0  0  0  0  0  0  0
   60.9860   27.2010   50.5240 C   0  0  0  0  0  0  0  0  0  0  0  0
   61.4153   26.8748   51.4828 H   0  0  0  0  0  0  0  0  0  0  0  0
   60.6060   28.4720   50.2800 N   0  0  0  0  0  0  0  0  0  0  0  0
   60.1410   28.4430   49.0190 C   0  0  0  0  0  0  0  0  0  0  0  0
   59.7010   29.6540   48.3070 C   0  0  0  0  0  0  0  0  0  0  0  0
   58.4820   29.8680   48.0800 O   0  0  0  0  0  0  0  0  0  0  0  0
   60.6470   30.5600   47.8430 O   0  0  0  0  0  0  0  0  0  0  0  0
   57.5140   26.4860   46.4630 C   0  0  0  0  0  0  0  0  0  0  0  0
   57.2850   25.2330   46.9070 C   0  0  0  0  0  0  0  0  0  0  0  0
   58.1038   24.6492   47.3529 H   0  0  0  0  0  0  0  0  0  0  0  0
   56.2795   24.7950   46.8232 H   0  0  0  0  0  0  0  0  0  0  0  0
   56.4270   27.1940   45.8980 C   0  0  0  0  0  0  0  0  0  0  0  0
   55.1230   26.7200   46.0170 O   0  0  0  0  0  0  0  0  0  0  0  0
  1  2  1  0
  2  3  1  0
  3  4  1  0
  4  5  1  0
  4  6  2  0
  6  7  1  0
  7  8  1  0
  7  9  1  0
  7 10  1  0
  6 11  1  0
 11 12  2  0
 12 13  1  0
 12 14  1  0
 14 15  1  0
 15 16  2  0
 16 17  1  0
 16 18  1  0
 18 19  1  0
 19 20  1  0
 20 21  2  0
 20 22  1  0
 11 23  1  0
 23 24  2  0
 24 25  1  0
 24 26  1  0
 23 27  1  0
 27 28  1  0
 27  3  2  0
 19 14  2  0
M  CHG  3  18  -1  22  -1  28  -1
M  END
>  <UniqueID>  (77) 
72

>  <SMILES>  (77) 
C=c1c([O-])c(O)cc(C)/c1=C/c1nc[n-]c1C(=O)[O-]

>  <Energy>  (77) 
84.09127666906693

>  <Genealogy>  (77) 
C=c1c([O-])c(O)cc(C)c1=Cc1nc[n-]c1C(=O)[O-] (protonated)
C=c1c([O-])c(O)cc(C)/c1=C/c1nc[n-]c1C(=O)[O-] (cis-trans isomerization)
C=c1c([O-])c(O)cc(C)/c1=C/c1nc[n-]c1C(=O)[O-] (3D coordinates assigned)
C=c1c([O-])c(O)cc(C)/c1=C/c1nc[n-]c1C(=O)[O-] (optimized conformer: 84.09127666906693 kcal/mol)

>  <smiles>  (77) 
C=c1c(O)c(O)cc(C)c1=Cc1nc[nH]c1C(=O)O

>  <score_type>  (77) 
oracle

>  <origin>  (77) 
adg

>  <m_score__min__energy>  (77) 
-11.81

>  <m_primary>  (77) 
energy

$$$$
77:0
     RDKit          3D

 37 38  0  0  0  0  0  0  0  0999 V2000
   60.6200   33.7120   50.1140 C   0  0  0  0  0  0  0  0  0  0  0  0
   59.8390   33.6280   48.8350 C   0  0  0  0  0  0  0  0  0  0  0  0
   60.1450   34.4780   47.7630 C   0  0  0  0  0  0  0  0  0  0  0  0
   59.4400   34.3760   46.5600 C   0  0  0  0  0  0  0  0  0  0  0  0
   58.4290   33.4180   46.4140 C   0  0  0  0  0  0  0  0  0  0  0  0
   57.5210   33.3310   44.9070 S   0  0  0  0  0  0  0  0  0  0  0  0
   56.6290   34.5370   44.8100 O   0  0  0  0  0  0  0  0  0  0  0  0
   58.4590   33.3390   43.7310 O   0  0  0  0  0  0  0  0  0  0  0  0
   56.5380   31.8960   44.8710 N   0  0  0  0  0  0  0  0  0  0  0  0
   57.3540   30.6950   44.6890 C   0  0  0  0  0  0  0  0  0  0  0  0
   56.5140   29.4490   44.7720 C   0  0  0  0  0  0  0  0  0  0  0  0
   55.2770   29.5570   44.9870 O   0  0  0  0  0  0  0  0  0  0  0  0
   57.0750   28.1390   44.6160 N   0  0  0  0  0  0  0  0  0  0  0  0
   57.9310   27.5060   45.5730 C   0  0  0  0  0  0  0  0  0  0  0  0
   59.2720   27.9080   45.6280 C   0  0  0  0  0  0  0  0  0  0  0  0
   60.1320   27.3760   46.5900 C   0  0  0  0  0  0  0  0  0  0  0  0
   59.6620   26.4290   47.4990 C   0  0  0  0  0  0  0  0  0  0  0  0
   58.3360   25.9950   47.4350 C   0  0  0  0  0  0  0  0  0  0  0  0
   57.4560   26.5100   46.4630 C   0  0  0  0  0  0  0  0  0  0  0  0
   56.0810   25.9600   46.3730 C   0  0  0  0  0  0  0  0  0  0  0  0
   55.1290   26.6890   45.9860 O   0  0  0  0  0  0  0  0  0  0  0  0
   55.8100   24.6490   46.7460 O   0  0  0  0  0  0  0  0  0  0  0  0
   58.1360   32.5530   47.4770 C   0  0  0  0  0  0  0  0  0  0  0  0
   58.8410   32.6530   48.6800 C   0  0  0  0  0  0  0  0  0  0  0  0
   59.9321   33.6380   50.9692 H   0  0  0  0  0  0  0  0  0  0  0  0
   61.3462   32.8868   50.1551 H   0  0  0  0  0  0  0  0  0  0  0  0
   61.1541   34.6728   50.1551 H   0  0  0  0  0  0  0  0  0  0  0  0
   60.9427   35.2280   47.8688 H   0  0  0  0  0  0  0  0  0  0  0  0
   59.6803   35.0507   45.7251 H   0  0  0  0  0  0  0  0  0  0  0  0
   57.8382   30.7363   43.7022 H   0  0  0  0  0  0  0  0  0  0  0  0
   58.1077   30.6612   45.4895 H   0  0  0  0  0  0  0  0  0  0  0  0
   59.6499   28.6484   44.9076 H   0  0  0  0  0  0  0  0  0  0  0  0
   61.1811   27.7040   46.6310 H   0  0  0  0  0  0  0  0  0  0  0  0
   60.3363   26.0232   48.2675 H   0  0  0  0  0  0  0  0  0  0  0  0
   57.9748   25.2427   48.1516 H   0  0  0  0  0  0  0  0  0  0  0  0
   57.3488   31.7930   47.3644 H   0  0  0  0  0  0  0  0  0  0  0  0
   58.6130   31.9655   49.5078 H   0  0  0  0  0  0  0  0  0  0  0  0
  1  2  1  0
  2  3  2  0
  3  4  1  0
  4  5  2  0
  5  6  1  0
  6  7  2  0
  6  8  2  0
  6  9  1  0
  9 10  1  0
 10 11  1  0
 11 12  2  0
 11 13  1  0
 13 14  1  0
 14 15  2  0
 15 16  1  0
 16 17  2  0
 17 18  1  0
 18 19  2  0
 19 20  1  0
 20 21  2  0
 20 22  1  0
  5 23  1  0
 23 24  2  0
 24  2  1  0
 19 14  1  0
  1 25  1  0
  1 26  1  0
  1 27  1  0
  3 28  1  0
  4 29  1  0
 10 30  1  0
 10 31  1  0
 15 32  1  0
 16 33  1  0
 17 34  1  0
 18 35  1  0
 23 36  1  0
 24 37  1  0
M  CHG  3   9  -1  13  -1  22  -1
M  END
>  <UniqueID>  (78) 
73

>  <SMILES>  (78) 
Cc1ccc(S(=O)(=O)[N-]CC(=O)[N-]c2ccccc2C(=O)[O-])cc1

>  <Energy>  (78) 
43.9428523376442

>  <Genealogy>  (78) 
Cc1ccc(S(=O)(=O)[N-]CC(=O)[N-]c2ccccc2C(=O)[O-])cc1 (protonated)
Cc1ccc(S(=O)(=O)[N-]CC(=O)[N-]c2ccccc2C(=O)[O-])cc1 (3D coordinates assigned)
Cc1ccc(S(=O)(=O)[N-]CC(=O)[N-]c2ccccc2C(=O)[O-])cc1 (optimized conformer: 43.9428523376442 kcal/mol)

>  <smiles>  (78) 
Cc1ccc(S(=O)(=O)NCC(=O)Nc2ccccc2C(=O)O)cc1

>  <score_type>  (78) 
oracle

>  <origin>  (78) 
adg

>  <m_score__min__energy>  (78) 
-15.220000000000001

>  <m_primary>  (78) 
energy

$$$$
78:0
     RDKit          3D

 71 74  0  0  0  0  0  0  0  0999 V2000
   49.9600   29.8830   53.9120 C   0  0  0  0  0  0  0  0  0  0  0  0
   50.8780   30.8950   53.3780 N   0  0  0  0  0  0  0  0  0  0  0  0
   50.3840   32.2540   53.1340 C   0  0  0  0  0  0  0  0  0  0  0  0
   52.2430   30.5470   53.0470 C   0  0  0  0  0  0  0  0  0  0  0  0
   52.9200   31.1920   51.9950 C   0  0  0  0  0  0  0  0  0  0  0  0
   54.2580   30.8930   51.7160 C   0  0  0  0  0  0  0  0  0  0  0  0
   54.9540   29.9560   52.4970 C   0  0  0  0  0  0  0  0  0  0  0  0
   56.4010   29.7190   52.2990 C   0  0  0  0  0  0  0  0  0  0  0  0
   56.9890   28.8840   53.0310 O   0  0  0  0  0  0  0  0  0  0  0  0
   57.1650   30.3960   51.2890 N   0  0  0  0  0  0  0  0  0  0  0  0
   57.8280   31.6700   51.3860 C   0  0  0  0  0  0  0  0  0  0  0  0
   57.3910   32.5760   52.3580 C   0  0  0  0  0  0  0  0  0  0  0  0
   58.0010   33.8260   52.4870 C   0  0  0  0  0  0  0  0  0  0  0  0
   59.0640   34.1750   51.6520 C   0  0  0  0  0  0  0  0  0  0  0  0
   59.5120   33.2880   50.6600 C   0  0  0  0  0  0  0  0  0  0  0  0
   60.7250   33.6480   49.8190 C   0  0  0  0  0  0  0  0  0  0  0  0
   60.5330   33.5130   48.3550 N   0  0  0  0  0  0  0  0  0  0  0  0
   59.4510   34.3360   47.7560 C   0  0  0  0  0  0  0  0  0  0  0  0
   58.3100   33.4730   47.2050 C   0  0  0  0  0  0  0  0  0  0  0  0
   58.8390   32.5510   46.0870 C   0  0  0  0  0  0  0  0  0  0  0  0
   57.8520   31.4500   45.7840 C   0  0  0  0  0  0  0  0  0  0  0  0
   56.7950   31.7310   45.1540 O   0  0  0  0  0  0  0  0  0  0  0  0
   58.1120   30.0950   46.1860 N   0  0  0  0  0  0  0  0  0  0  0  0
   57.2570   28.9770   45.7730 C   0  0  0  0  0  0  0  0  0  0  0  0
   57.2540   28.8590   44.2300 C   0  0  0  0  0  0  0  0  0  0  0  0
   58.3310   27.8890   43.7340 C   0  0  0  0  0  0  0  0  0  0  0  0
   58.1010   26.4640   44.2760 C   0  0  0  0  0  0  0  0  0  0  0  0
   57.3910   26.4300   45.6450 C   0  0  0  0  0  0  0  0  0  0  0  0
   57.7040   27.6750   46.4820 C   0  0  0  0  0  0  0  0  0  0  0  0
   60.2540   31.9890   46.3910 C   0  0  0  0  0  0  0  0  0  0  0  0
   60.6330   32.1160   47.8730 C   0  0  0  0  0  0  0  0  0  0  0  0
   58.8690   32.0480   50.5160 C   0  0  0  0  0  0  0  0  0  0  0  0
   54.2680   29.2720   53.5080 C   0  0  0  0  0  0  0  0  0  0  0  0
   52.9320   29.5680   53.7880 C   0  0  0  0  0  0  0  0  0  0  0  0
   49.9842   29.9097   55.0114 H   0  0  0  0  0  0  0  0  0  0  0  0
   48.9385   30.0937   53.5625 H   0  0  0  0  0  0  0  0  0  0  0  0
   50.2690   28.8868   53.5625 H   0  0  0  0  0  0  0  0  0  0  0  0
   50.2015   32.7560   54.0956 H   0  0  0  0  0  0  0  0  0  0  0  0
   51.1341   32.8196   52.5617 H   0  0  0  0  0  0  0  0  0  0  0  0
   49.4458   32.2059   52.5617 H   0  0  0  0  0  0  0  0  0  0  0  0
   52.3912   31.9395   51.3854 H   0  0  0  0  0  0  0  0  0  0  0  0
   54.7677   31.3947   50.8802 H   0  0  0  0  0  0  0  0  0  0  0  0
   56.5609   32.3021   53.0257 H   0  0  0  0  0  0  0  0  0  0  0  0
   57.6434   34.5361   53.2472 H   0  0  0  0  0  0  0  0  0  0  0  0
   59.5543   35.1523   51.7721 H   0  0  0  0  0  0  0  0  0  0  0  0
   60.9912   34.6935   50.0336 H   0  0  0  0  0  0  0  0  0  0  0  0
   61.5138   32.9321   50.0936 H   0  0  0  0  0  0  0  0  0  0  0  0
   59.0472   35.0077   48.5279 H   0  0  0  0  0  0  0  0  0  0  0  0
   59.8813   34.9048   46.9185 H   0  0  0  0  0  0  0  0  0  0  0  0
   57.8929   32.8590   48.0168 H   0  0  0  0  0  0  0  0  0  0  0  0
   57.5280   34.1280   46.7933 H   0  0  0  0  0  0  0  0  0  0  0  0
   58.9462   33.1703   45.1842 H   0  0  0  0  0  0  0  0  0  0  0  0
   59.0300   29.8780   46.6360 H   0  0  0  0  0  0  0  0  0  0  0  0
   56.2174   29.1622   46.0810 H   0  0  0  0  0  0  0  0  0  0  0  0
   56.2688   28.4958   43.9021 H   0  0  0  0  0  0  0  0  0  0  0  0
   57.4676   29.8528   43.8096 H   0  0  0  0  0  0  0  0  0  0  0  0
   58.3081   27.8613   42.6346 H   0  0  0  0  0  0  0  0  0  0  0  0
   59.3074   28.2427   44.0966 H   0  0  0  0  0  0  0  0  0  0  0  0
   57.4849   25.9117   43.5512 H   0  0  0  0  0  0  0  0  0  0  0  0
   59.0925   26.0087   44.4160 H   0  0  0  0  0  0  0  0  0  0  0  0
   56.3047   26.3756   45.4810 H   0  0  0  0  0  0  0  0  0  0  0  0
   57.7535   25.5492   46.1953 H   0  0  0  0  0  0  0  0  0  0  0  0
   57.1788   27.5967   47.4453 H   0  0  0  0  0  0  0  0  0  0  0  0
   58.7935   27.7229   46.6260 H   0  0  0  0  0  0  0  0  0  0  0  0
   60.2785   30.9256   46.1108 H   0  0  0  0  0  0  0  0  0  0  0  0
   60.9787   32.5781   45.8098 H   0  0  0  0  0  0  0  0  0  0  0  0
   59.9553   31.4860   48.4678 H   0  0  0  0  0  0  0  0  0  0  0  0
   61.6785   31.7928   47.9846 H   0  0  0  0  0  0  0  0  0  0  0  0
   59.1822   31.3635   49.7139 H   0  0  0  0  0  0  0  0  0  0  0  0
   54.7864   28.4938   54.0875 H   0  0  0  0  0  0  0  0  0  0  0  0
   52.4130   29.0309   54.5955 H   0  0  0  0  0  0  0  0  0  0  0  0
  1  2  1  0
  2  3  1  0
  2  4  1  0
  4  5  2  0
  5  6  1  0
  6  7  2  0
  7  8  1  0
  8  9  2  0
  8 10  1  0
 10 11  1  0
 11 12  2  0
 12 13  1  0
 13 14  2  0
 14 15  1  0
 15 16  1  0
 16 17  1  0
 17 18  1  0
 18 19  1  0
 19 20  1  0
 20 21  1  0
 21 22  2  0
 21 23  1  0
 23 24  1  0
 24 25  1  0
 25 26  1  0
 26 27  1  0
 27 28  1  0
 28 29  1  0
 20 30  1  0
 30 31  1  0
 15 32  2  0
  7 33  1  0
 33 34  2  0
 34  4  1  0
 32 11  1  0
 31 17  1  0
 29 24  1  0
  1 35  1  0
  1 36  1  0
  1 37  1  0
  3 38  1  0
  3 39  1  0
  3 40  1  0
  5 41  1  0
  6 42  1  0
 12 43  1  0
 13 44  1  0
 14 45  1  0
 16 46  1  0
 16 47  1  0
 18 48  1  0
 18 49  1  0
 19 50  1  0
 19 51  1  0
 20 52  1  0
 23 53  1  0
 24 54  1  0
 25 55  1  0
 25 56  1  0
 26 57  1  0
 26 58  1  0
 27 59  1  0
 27 60  1  0
 28 61  1  0
 28 62  1  0
 29 63  1  0
 29 64  1  0
 30 65  1  0
 30 66  1  0
 31 67  1  0
 31 68  1  0
 32 69  1  0
 33 70  1  0
 34 71  1  0
M  CHG  1  10  -1
M  END
>  <UniqueID>  (79) 
74

>  <SMILES>  (79) 
CN(C)c1ccc(C(=O)[N-]c2cccc(CN3CCC(C(=O)NC4CCCCC4)CC3)c2)cc1

>  <Energy>  (79) 
90.40201444714114

>  <Genealogy>  (79) 
CN(C)c1ccc(C(=O)[N-]c2cccc(CN3CCC(C(=O)NC4CCCCC4)CC3)c2)cc1 (protonated)
CN(C)c1ccc(C(=O)[N-]c2cccc(CN3CCC(C(=O)NC4CCCCC4)CC3)c2)cc1 (3D coordinates assigned)
CN(C)c1ccc(C(=O)[N-]c2cccc(CN3CCC(C(=O)NC4CCCCC4)CC3)c2)cc1 (nonaromatic ring conformer: 90.40201444714114 kcal/mol)

>  <smiles>  (79) 
CN(C)c1ccc(C(=O)Nc2cccc(CN3CCC(C(=O)NC4CCCCC4)CC3)c2)cc1

>  <score_type>  (79) 
oracle

>  <origin>  (79) 
adg

>  <m_score__min__energy>  (79) 
-10.119999999999999

>  <m_primary>  (79) 
energy

$$$$
79:0
     RDKit          3D

 36 38  0  0  0  0  0  0  0  0999 V2000
   61.3000   30.6690   47.6570 C   0  0  0  0  0  0  0  0  0  0  0  0
   60.2970   30.1910   46.8880 C   0  0  0  0  0  0  0  0  0  0  0  0
   60.2500   28.8080   46.5860 C   0  0  0  0  0  0  0  0  0  0  0  0
   61.0990   28.0210   47.0910 O   0  0  0  0  0  0  0  0  0  0  0  0
   59.2190   28.3240   45.7470 C   0  0  0  0  0  0  0  0  0  0  0  0
   59.0840   27.0350   45.3640 C   0  0  0  0  0  0  0  0  0  0  0  0
   57.9330   26.1550   45.6510 C   0  0  0  0  0  0  0  0  0  0  0  0
   58.1580   24.8220   46.0240 C   0  0  0  0  0  0  0  0  0  0  0  0
   57.0820   23.9920   46.3500 C   0  0  0  0  0  0  0  0  0  0  0  0
   55.7730   24.4930   46.3290 C   0  0  0  0  0  0  0  0  0  0  0  0
   54.6960   23.6690   46.6510 O   0  0  0  0  0  0  0  0  0  0  0  0
   55.5470   25.8320   45.9870 C   0  0  0  0  0  0  0  0  0  0  0  0
   54.2540   26.3410   45.9740 O   0  0  0  0  0  0  0  0  0  0  0  0
   56.6240   26.6640   45.6590 C   0  0  0  0  0  0  0  0  0  0  0  0
   58.2790   29.1980   45.3110 N   0  0  0  0  0  0  0  0  0  0  0  0
   58.3110   30.5160   45.6160 C   0  0  0  0  0  0  0  0  0  0  0  0
   57.3990   31.2650   45.1690 O   0  0  0  0  0  0  0  0  0  0  0  0
   59.3160   31.0250   46.3920 N   0  0  0  0  0  0  0  0  0  0  0  0
   59.3030   32.4390   46.6810 C   0  0  0  0  0  0  0  0  0  0  0  0
   59.2840   32.8870   48.0100 C   0  0  0  0  0  0  0  0  0  0  0  0
   59.2710   34.2570   48.2880 C   0  0  0  0  0  0  0  0  0  0  0  0
   59.2760   35.1840   47.2420 C   0  0  0  0  0  0  0  0  0  0  0  0
   59.2920   34.7430   45.9140 C   0  0  0  0  0  0  0  0  0  0  0  0
   59.2960   35.6650   44.8750 O   0  0  0  0  0  0  0  0  0  0  0  0
   59.3050   33.3710   45.6330 C   0  0  0  0  0  0  0  0  0  0  0  0
   61.3456   31.7415   47.8973 H   0  0  0  0  0  0  0  0  0  0  0  0
   62.0709   29.9857   48.0427 H   0  0  0  0  0  0  0  0  0  0  0  0
   59.9103   26.5996   44.7830 H   0  0  0  0  0  0  0  0  0  0  0  0
   59.1846   24.4285   46.0601 H   0  0  0  0  0  0  0  0  0  0  0  0
   57.2628   22.9421   46.6240 H   0  0  0  0  0  0  0  0  0  0  0  0
   53.7420   24.0100   46.6300 H   0  0  0  0  0  0  0  0  0  0  0  0
   56.4445   27.7195   45.4068 H   0  0  0  0  0  0  0  0  0  0  0  0
   59.2793   32.1592   48.8348 H   0  0  0  0  0  0  0  0  0  0  0  0
   59.2568   34.6058   49.3311 H   0  0  0  0  0  0  0  0  0  0  0  0
   59.2674   36.2616   47.4629 H   0  0  0  0  0  0  0  0  0  0  0  0
   59.3168   33.0240   44.5892 H   0  0  0  0  0  0  0  0  0  0  0  0
  1  2  2  0
  2  3  1  0
  3  4  2  0
  3  5  1  0
  5  6  2  3
  6  7  1  0
  7  8  2  0
  8  9  1  0
  9 10  2  0
 10 11  1  0
 10 12  1  0
 12 13  1  0
 12 14  2  0
  5 15  1  0
 15 16  1  0
 16 17  2  0
 16 18  1  0
 18 19  1  0
 19 20  2  0
 20 21  1  0
 21 22  2  0
 22 23  1  0
 23 24  1  0
 23 25  2  0
 18  2  1  0
 25 19  1  0
 14  7  1  0
  1 26  1  0
  1 27  1  0
  6 28  1  0
  8 29  1  0
  9 30  1  0
 11 31  1  0
 14 32  1  0
 20 33  1  0
 21 34  1  0
 22 35  1  0
 25 36  1  0
M  CHG  3  13  -1  15  -1  24  -1
M  END
>  <UniqueID>  (80) 
75

>  <SMILES>  (80) 
C=c1c(=O)c(=Cc2ccc(O)c([O-])c2)[n-]c(=O)n1-c1cccc([O-])c1

>  <Energy>  (80) 
67.59418943127432

>  <Genealogy>  (80) 
C=c1c(=O)c(=Cc2ccc(O)c([O-])c2)[n-]c(=O)n1-c1cccc([O-])c1 (protonated)
C=c1c(=O)c(=Cc2ccc(O)c([O-])c2)[n-]c(=O)n1-c1cccc([O-])c1 (3D coordinates assigned)
C=c1c(=O)c(=Cc2ccc(O)c([O-])c2)[n-]c(=O)n1-c1cccc([O-])c1 (optimized conformer: 67.59418943127432 kcal/mol)

>  <smiles>  (80) 
C=c1c(=O)c(=Cc2ccc(O)c(O)c2)[nH]c(=O)n1-c1cccc(O)c1

>  <score_type>  (80) 
oracle

>  <origin>  (80) 
adg

>  <m_score__min__energy>  (80) 
-12.59

>  <m_primary>  (80) 
energy

$$$$
80:0
     RDKit          3D

 39 42  0  0  0  0  0  0  0  0999 V2000
   55.9130   29.9560   44.8350 O   0  0  0  0  0  0  0  0  0  0  0  0
   57.0100   29.4190   45.1430 C   0  0  0  0  0  0  0  0  0  0  0  0
   57.1930   28.0300   45.5480 C   0  0  0  0  0  0  0  0  0  0  0  0
   56.2700   26.9910   45.6510 C   0  0  0  0  0  0  0  0  0  0  0  0
   56.7310   25.7390   46.0890 C   0  0  0  0  0  0  0  0  0  0  0  0
   58.0920   25.5510   46.4130 C   0  0  0  0  0  0  0  0  0  0  0  0
   59.0080   26.6140   46.3060 C   0  0  0  0  0  0  0  0  0  0  0  0
   60.8460   26.3430   46.7560 Br  0  0  0  0  0  0  0  0  0  0  0  0
   58.5250   27.8530   45.8660 C   0  0  0  0  0  0  0  0  0  0  0  0
   59.1960   29.1370   45.6600 C   0  0  0  0  0  0  0  0  0  0  0  0
   60.4170   29.3720   45.8590 O   0  0  0  0  0  0  0  0  0  0  0  0
   58.2610   30.1080   45.1840 N   0  0  0  0  0  0  0  0  0  0  0  0
   58.4440   31.5310   45.1300 C   0  0  0  0  0  0  0  0  0  0  0  0
   58.9750   32.2350   46.2270 C   0  0  0  0  0  0  0  0  0  0  0  0
   59.2850   31.5600   47.4120 O   0  0  0  0  0  0  0  0  0  0  0  0
   59.1770   33.5910   46.1440 N   0  0  0  0  0  0  0  0  0  0  0  0
   59.7110   34.3230   47.3100 C   0  0  0  0  0  0  0  0  0  0  0  0
   61.1480   33.9420   47.5600 C   0  0  0  0  0  0  0  0  0  0  0  0
   62.0410   33.7830   46.4870 C   0  0  0  0  0  0  0  0  0  0  0  0
   63.3660   33.4060   46.7220 C   0  0  0  0  0  0  0  0  0  0  0  0
   63.8110   33.1830   48.0290 C   0  0  0  0  0  0  0  0  0  0  0  0
   62.9290   33.3390   49.1020 C   0  0  0  0  0  0  0  0  0  0  0  0
   61.6020   33.7160   48.8710 C   0  0  0  0  0  0  0  0  0  0  0  0
   58.8410   34.2600   44.9930 C   0  0  0  0  0  0  0  0  0  0  0  0
   59.0080   35.5060   44.8950 O   0  0  0  0  0  0  0  0  0  0  0  0
   58.3220   33.5880   43.9350 N   0  0  0  0  0  0  0  0  0  0  0  0
   58.1200   32.2500   43.9750 C   0  0  0  0  0  0  0  0  0  0  0  0
   57.6550   31.6640   42.9620 O   0  0  0  0  0  0  0  0  0  0  0  0
   55.2113   27.1471   45.3966 H   0  0  0  0  0  0  0  0  0  0  0  0
   56.0267   24.8990   46.1803 H   0  0  0  0  0  0  0  0  0  0  0  0
   58.4399   24.5642   46.7524 H   0  0  0  0  0  0  0  0  0  0  0  0
   59.8930   30.7510   47.4430 H   0  0  0  0  0  0  0  0  0  0  0  0
   59.6516   35.4043   47.1168 H   0  0  0  0  0  0  0  0  0  0  0  0
   59.1146   34.0628   48.1969 H   0  0  0  0  0  0  0  0  0  0  0  0
   61.6956   33.9561   45.4571 H   0  0  0  0  0  0  0  0  0  0  0  0
   64.0602   33.2844   45.8774 H   0  0  0  0  0  0  0  0  0  0  0  0
   64.8539   32.8852   48.2123 H   0  0  0  0  0  0  0  0  0  0  0  0
   63.2792   33.1649   50.1302 H   0  0  0  0  0  0  0  0  0  0  0  0
   60.9111   33.8361   49.7185 H   0  0  0  0  0  0  0  0  0  0  0  0
  1  2  2  0
  2  3  1  0
  3  4  2  0
  4  5  1  0
  5  6  2  0
  6  7  1  0
  7  8  1  0
  7  9  2  0
  9 10  1  0
 10 11  2  0
 10 12  1  0
 12 13  1  0
 13 14  2  0
 14 15  1  0
 14 16  1  0
 16 17  1  0
 17 18  1  0
 18 19  2  0
 19 20  1  0
 20 21  2  0
 21 22  1  0
 22 23  2  0
 16 24  1  0
 24 25  2  0
 24 26  1  0
 26 27  1  0
 27 28  2  0
 12  2  1  0
 27 13  1  0
  9  3  1  0
 23 18  1  0
  4 29  1  0
  5 30  1  0
  6 31  1  0
 15 32  1  0
 17 33  1  0
 17 34  1  0
 19 35  1  0
 20 36  1  0
 21 37  1  0
 22 38  1  0
 23 39  1  0
M  CHG  1  26  -1
M  END
>  <UniqueID>  (81) 
76

>  <SMILES>  (81) 
O=C1c2cccc(Br)c2C(=O)N1c1c(O)n(Cc2ccccc2)c(=O)[n-]c1=O

>  <Energy>  (81) 
87.72479146773279

>  <Genealogy>  (81) 
O=C1c2cccc(Br)c2C(=O)N1c1c(O)n(Cc2ccccc2)c(=O)[n-]c1=O (protonated)
O=C1c2cccc(Br)c2C(=O)N1c1c(O)n(Cc2ccccc2)c(=O)[n-]c1=O (3D coordinates assigned)
O=C1c2cccc(Br)c2C(=O)N1c1c(O)n(Cc2ccccc2)c(=O)[n-]c1=O (nonaromatic ring conformer: 87.72479146773279 kcal/mol)

>  <smiles>  (81) 
O=C1c2cccc(Br)c2C(=O)N1c1c(O)n(Cc2ccccc2)c(=O)[nH]c1=O

>  <score_type>  (81) 
oracle

>  <origin>  (81) 
adg

>  <m_score__min__energy>  (81) 
-10.41

>  <m_primary>  (81) 
energy

$$$$
81:0
     RDKit          3D

 53 56  0  0  0  0  0  0  0  0999 V2000
   52.9720   22.6420   45.6550 C   0  0  0  0  0  0  0  0  0  0  0  0
   54.1610   23.4140   46.1460 C   0  0  0  0  0  0  0  0  0  0  0  0
   55.0860   22.8100   47.0070 C   0  0  0  0  0  0  0  0  0  0  0  0
   56.2240   23.5060   47.4180 C   0  0  0  0  0  0  0  0  0  0  0  0
   56.4570   24.8170   46.9720 C   0  0  0  0  0  0  0  0  0  0  0  0
   57.6910   25.5520   47.4190 C   0  0  0  0  0  0  0  0  0  0  0  0
   55.5270   25.4360   46.1120 C   0  0  0  0  0  0  0  0  0  0  0  0
   55.7890   26.7670   45.6350 N   0  0  0  0  0  0  0  0  0  0  0  0
   57.0590   27.2940   45.2280 C   0  0  0  0  0  0  0  0  0  0  0  0
   57.9470   26.5320   44.7590 O   0  0  0  0  0  0  0  0  0  0  0  0
   57.3170   28.7470   45.3440 C   0  0  0  0  0  0  0  0  0  0  0  0
   56.3690   29.7040   44.9110 C   0  0  0  0  0  0  0  0  0  0  0  0
   55.1040   29.3420   44.4420 O   0  0  0  0  0  0  0  0  0  0  0  0
   56.6680   31.0280   44.9710 N   0  0  0  0  0  0  0  0  0  0  0  0
   57.8470   31.4880   45.4590 C   0  0  0  0  0  0  0  0  0  0  0  0
   58.0940   32.8640   45.4970 C   0  0  0  0  0  0  0  0  0  0  0  0
   59.3040   33.3470   46.0000 C   0  0  0  0  0  0  0  0  0  0  0  0
   60.2810   32.4580   46.4690 C   0  0  0  0  0  0  0  0  0  0  0  0
   61.8170   33.0730   47.0770 S   0  0  0  0  0  0  0  0  0  0  0  0
   62.5230   33.8140   45.9750 O   0  0  0  0  0  0  0  0  0  0  0  0
   62.6840   31.9080   47.4710 O   0  0  0  0  0  0  0  0  0  0  0  0
   61.6190   34.1340   48.4570 N   0  0  0  0  0  0  0  0  0  0  0  0
   60.2060   34.2980   48.8470 C   0  0  0  0  0  0  0  0  0  0  0  0
   59.6850   33.1460   49.7390 C   0  0  0  0  0  0  0  0  0  0  0  0
   60.7060   32.2710   50.1750 O   0  0  0  0  0  0  0  0  0  0  0  0
   61.7760   33.0170   50.7040 C   0  0  0  0  0  0  0  0  0  0  0  0
   62.5060   33.7770   49.5850 C   0  0  0  0  0  0  0  0  0  0  0  0
   60.0320   31.0770   46.4440 C   0  0  0  0  0  0  0  0  0  0  0  0
   58.8170   30.5820   45.9340 C   0  0  0  0  0  0  0  0  0  0  0  0
   58.5460   29.2020   45.8700 C   0  0  0  0  0  0  0  0  0  0  0  0
   59.4110   28.3700   46.2620 O   0  0  0  0  0  0  0  0  0  0  0  0
   54.3970   24.7160   45.6820 C   0  0  0  0  0  0  0  0  0  0  0  0
   52.3967   22.2685   46.5150 H   0  0  0  0  0  0  0  0  0  0  0  0
   52.3346   23.2990   45.0450 H   0  0  0  0  0  0  0  0  0  0  0  0
   53.3128   21.7924   45.0450 H   0  0  0  0  0  0  0  0  0  0  0  0
   54.9149   21.7826   47.3609 H   0  0  0  0  0  0  0  0  0  0  0  0
   56.9435   23.0240   48.0962 H   0  0  0  0  0  0  0  0  0  0  0  0
   57.7270   25.5735   48.5182 H   0  0  0  0  0  0  0  0  0  0  0  0
   58.5838   25.0384   47.0328 H   0  0  0  0  0  0  0  0  0  0  0  0
   57.6646   26.5816   47.0328 H   0  0  0  0  0  0  0  0  0  0  0  0
   54.7400   28.4000   44.4940 H   0  0  0  0  0  0  0  0  0  0  0  0
   57.3329   33.5680   45.1296 H   0  0  0  0  0  0  0  0  0  0  0  0
   59.4913   34.4306   46.0283 H   0  0  0  0  0  0  0  0  0  0  0  0
   60.1029   35.2432   49.4002 H   0  0  0  0  0  0  0  0  0  0  0  0
   59.6082   34.2940   47.9236 H   0  0  0  0  0  0  0  0  0  0  0  0
   59.1977   33.5822   50.6235 H   0  0  0  0  0  0  0  0  0  0  0  0
   58.9858   32.5535   49.1306 H   0  0  0  0  0  0  0  0  0  0  0  0
   61.3868   33.7384   51.4376 H   0  0  0  0  0  0  0  0  0  0  0  0
   62.4846   32.3292   51.1885 H   0  0  0  0  0  0  0  0  0  0  0  0
   62.9274   34.7017   50.0061 H   0  0  0  0  0  0  0  0  0  0  0  0
   63.2887   33.1120   49.1912 H   0  0  0  0  0  0  0  0  0  0  0  0
   60.7906   30.3775   46.8251 H   0  0  0  0  0  0  0  0  0  0  0  0
   53.6924   25.1788   44.9754 H   0  0  0  0  0  0  0  0  0  0  0  0
  1  2  1  0
  2  3  2  0
  3  4  1  0
  4  5  2  0
  5  6  1  0
  5  7  1  0
  7  8  1  0
  8  9  1  0
  9 10  2  0
  9 11  1  0
 11 12  2  0
 12 13  1  0
 12 14  1  0
 14 15  1  0
 15 16  2  0
 16 17  1  0
 17 18  2  0
 18 19  1  0
 19 20  2  0
 19 21  2  0
 19 22  1  0
 22 23  1  0
 23 24  1  0
 24 25  1  0
 25 26  1  0
 26 27  1  0
 18 28  1  0
 28 29  2  0
 29 30  1  0
 30 31  2  0
  7 32  2  0
 32  2  1  0
 30 11  1  0
 29 15  1  0
 27 22  1  0
  1 33  1  0
  1 34  1  0
  1 35  1  0
  3 36  1  0
  4 37  1  0
  6 38  1  0
  6 39  1  0
  6 40  1  0
 13 41  1  0
 16 42  1  0
 17 43  1  0
 23 44  1  0
 23 45  1  0
 24 46  1  0
 24 47  1  0
 26 48  1  0
 26 49  1  0
 27 50  1  0
 27 51  1  0
 28 52  1  0
 32 53  1  0
M  CHG  2   8  -1  14  -1
M  END
>  <UniqueID>  (82) 
77

>  <SMILES>  (82) 
Cc1ccc(C)c([N-]C(=O)c2c(O)[n-]c3ccc(S(=O)(=O)N4CCOCC4)cc3c2=O)c1

>  <Energy>  (82) 
81.3475774382251

>  <Genealogy>  (82) 
Cc1ccc(C)c([N-]C(=O)c2c(O)[n-]c3ccc(S(=O)(=O)N4CCOCC4)cc3c2=O)c1 (protonated)
Cc1ccc(C)c([N-]C(=O)c2c(O)[n-]c3ccc(S(=O)(=O)N4CCOCC4)cc3c2=O)c1 (3D coordinates assigned)
Cc1ccc(C)c([N-]C(=O)c2c(O)[n-]c3ccc(S(=O)(=O)N4CCOCC4)cc3c2=O)c1 (nonaromatic ring conformer: 81.3475774382251 kcal/mol)

>  <smiles>  (82) 
Cc1ccc(C)c(NC(=O)c2c(O)[nH]c3ccc(S(=O)(=O)N4CCOCC4)cc3c2=O)c1

>  <score_type>  (82) 
oracle

>  <origin>  (82) 
adg

>  <m_score__min__energy>  (82) 
-12.83

>  <m_primary>  (82) 
energy

$$$$
82:0
     RDKit          3D

 61 65  0  0  0  0  0  0  0  0999 V2000
   55.1700   27.4830   45.4220 H   0  0  0  0  0  0  0  0  0  0  0  0
   54.9770   26.6770   46.0030 O   0  0  0  0  0  0  0  0  0  0  0  0
   55.9850   25.7970   46.3860 C   0  0  0  0  0  0  0  0  0  0  0  0
   55.7510   24.6590   47.0590 N   0  0  0  0  0  0  0  0  0  0  0  0
   56.9930   24.1710   47.2640 C   0  0  0  0  0  0  0  0  0  0  0  0
   57.2050   23.0930   47.8760 O   0  0  0  0  0  0  0  0  0  0  0  0
   57.9900   24.9330   46.7650 N   0  0  0  0  0  0  0  0  0  0  0  0
   57.3410   25.9590   46.1880 C   0  0  0  0  0  0  0  0  0  0  0  0
   58.0320   27.0820   45.5340 C   0  0  0  0  0  0  0  0  0  0  0  0
   58.2746   26.9926   44.4648 H   0  0  0  0  0  0  0  0  0  0  0  0
   58.3830   28.2130   46.1750 C   0  0  0  0  0  0  0  0  0  0  0  0
   58.8000   28.3150   47.4970 C   0  0  0  0  0  0  0  0  0  0  0  0
   58.9331   27.4871   48.2089 H   0  0  0  0  0  0  0  0  0  0  0  0
   59.0150   29.6570   47.7440 C   0  0  0  0  0  0  0  0  0  0  0  0
   59.3930   30.2300   49.0750 C   0  0  0  0  0  0  0  0  0  0  0  0
   58.9780   29.6009   49.8762 H   0  0  0  0  0  0  0  0  0  0  0  0
   60.4890   30.2604   49.1632 H   0  0  0  0  0  0  0  0  0  0  0  0
   58.9896   31.2496   49.1632 H   0  0  0  0  0  0  0  0  0  0  0  0
   58.7280   30.3880   46.6460 N   0  0  0  0  0  0  0  0  0  0  0  0
   58.8000   31.8210   46.5450 C   0  0  0  0  0  0  0  0  0  0  0  0
   57.6400   32.5410   46.2250 C   0  0  0  0  0  0  0  0  0  0  0  0
   56.7038   32.0030   46.0151 H   0  0  0  0  0  0  0  0  0  0  0  0
   57.6650   33.9350   46.1710 C   0  0  0  0  0  0  0  0  0  0  0  0
   56.7503   34.4918   45.9193 H   0  0  0  0  0  0  0  0  0  0  0  0
   58.8490   34.6230   46.4360 C   0  0  0  0  0  0  0  0  0  0  0  0
   58.8664   35.7221   46.3951 H   0  0  0  0  0  0  0  0  0  0  0  0
   60.0120   33.9190   46.7530 C   0  0  0  0  0  0  0  0  0  0  0  0
   60.9432   34.4682   46.9561 H   0  0  0  0  0  0  0  0  0  0  0  0
   60.0040   32.5150   46.8150 C   0  0  0  0  0  0  0  0  0  0  0  0
   61.2640   31.7920   47.1120 C   0  0  0  0  0  0  0  0  0  0  0  0
   61.5530   30.7610   46.4460 O   0  0  0  0  0  0  0  0  0  0  0  0
   62.1830   32.2640   48.1150 N   0  0  0  0  0  0  0  0  0  0  0  0
   63.6190   31.9730   47.9630 C   0  0  0  0  0  0  0  0  0  0  0  0
   63.7762   30.8883   48.0558 H   0  0  0  0  0  0  0  0  0  0  0  0
   63.9422   32.3308   46.9743 H   0  0  0  0  0  0  0  0  0  0  0  0
   64.4510   32.6910   49.0320 C   0  0  0  0  0  0  0  0  0  0  0  0
   65.4985   32.3665   48.9458 H   0  0  0  0  0  0  0  0  0  0  0  0
   64.3589   33.7747   48.8673 H   0  0  0  0  0  0  0  0  0  0  0  0
   63.9450   32.3760   50.4580 C   0  0  0  0  0  0  0  0  0  0  0  0
   64.2996   31.3678   50.7184 H   0  0  0  0  0  0  0  0  0  0  0  0
   64.5180   33.3730   51.4300 C   0  0  0  0  0  0  0  0  0  0  0  0
   63.9940   33.5240   52.5670 O   0  0  0  0  0  0  0  0  0  0  0  0
   65.6230   34.1900   51.0330 N   0  0  0  0  0  0  0  0  0  0  0  0
   66.9990   33.8620   51.3840 C   0  0  0  0  0  0  0  0  0  0  0  0
   67.1175   34.5851   52.2044 H   0  0  0  0  0  0  0  0  0  0  0  0
   67.3290   32.3960   51.1780 C   0  0  0  0  0  0  0  0  0  0  0  0
   68.0256   31.8876   51.8609 H   0  0  0  0  0  0  0  0  0  0  0  0
   66.7405   31.4708   51.0899 H   0  0  0  0  0  0  0  0  0  0  0  0
   67.8480   33.4390   50.1990 C   0  0  0  0  0  0  0  0  0  0  0  0
   68.9198   33.6852   50.1740 H   0  0  0  0  0  0  0  0  0  0  0  0
   67.7905   33.5812   49.1097 H   0  0  0  0  0  0  0  0  0  0  0  0
   62.3940   32.3070   50.5590 C   0  0  0  0  0  0  0  0  0  0  0  0
   62.0927   31.2525   50.6443 H   0  0  0  0  0  0  0  0  0  0  0  0
   62.0906   32.8873   51.4429 H   0  0  0  0  0  0  0  0  0  0  0  0
   61.6990   32.9190   49.3400 C   0  0  0  0  0  0  0  0  0  0  0  0
   60.6121   32.7743   49.4274 H   0  0  0  0  0  0  0  0  0  0  0  0
   61.9249   33.9945   49.2926 H   0  0  0  0  0  0  0  0  0  0  0  0
   58.3500   29.5180   45.6740 C   0  0  0  0  0  0  0  0  0  0  0  0
   58.0230   29.8850   44.4260 C   0  0  0  0  0  0  0  0  0  0  0  0
   58.0327   30.9485   44.1451 H   0  0  0  0  0  0  0  0  0  0  0  0
   57.7452   29.1225   43.6834 H   0  0  0  0  0  0  0  0  0  0  0  0
  1  2  1  0
  2  3  1  0
  3  4  1  0
  4  5  1  0
  5  6  2  0
  5  7  1  0
  7  8  1  0
  8  9  1  0
  9 10  1  0
  9 11  2  0
 11 12  1  0
 12 13  1  0
 12 14  2  0
 14 15  1  0
 15 16  1  0
 15 17  1  0
 15 18  1  0
 14 19  1  0
 19 20  1  0
 20 21  2  0
 21 22  1  0
 21 23  1  0
 23 24  1  0
 23 25  2  0
 25 26  1  0
 25 27  1  0
 27 28  1  0
 27 29  2  0
 29 30  1  0
 30 31  2  0
 30 32  1  0
 32 33  1  0
 33 34  1  0
 33 35  1  0
 33 36  1  0
 36 37  1  0
 36 38  1  0
 36 39  1  0
 39 40  1  0
 39 41  1  0
 41 42  2  0
 41 43  1  0
 43 44  1  0
 44 45  1  0
 44 46  1  0
 46 47  1  0
 46 48  1  0
 46 49  1  0
 49 50  1  0
 49 51  1  0
 39 52  1  0
 52 53  1  0
 52 54  1  0
 52 55  1  0
 55 56  1  0
 55 57  1  0
 19 58  1  0
 58 59  2  0
 59 60  1  0
 59 61  1  0
  8  3  2  0
 58 11  1  0
 29 20  1  0
 55 32  1  0
 49 44  1  0
M  CHG  3   4  -1   7  -1  43  -1
M  END
>  <UniqueID>  (83) 
78

>  <SMILES>  (83) 
C=c1/c(=C/c2[n-]c(=O)[n-]c2O)cc(C)n1-c1ccccc1C(=O)N1CCC(C(=O)[N-]C2CC2)CC1

>  <Energy>  (83) 
404.56425581193037

>  <Genealogy>  (83) 
C=c1c(=Cc2[n-]c(=O)[n-]c2O)cc(C)n1-c1ccccc1C(=O)N1CCC(C(=O)[N-]C2CC2)CC1 (protonated)
C=c1/c(=C/c2[n-]c(=O)[n-]c2O)cc(C)n1-c1ccccc1C(=O)N1CCC(C(=O)[N-]C2CC2)CC1 (cis-trans isomerization)
C=c1/c(=C/c2[n-]c(=O)[n-]c2O)cc(C)n1-c1ccccc1C(=O)N1CCC(C(=O)[N-]C2CC2)CC1 (3D coordinates assigned)
C=c1/c(=C/c2[n-]c(=O)[n-]c2O)cc(C)n1-c1ccccc1C(=O)N1CCC(C(=O)[N-]C2CC2)CC1 (nonaromatic ring conformer: 404.56425581193037 kcal/mol)

>  <smiles>  (83) 
C=c1c(=Cc2[nH]c(=O)[nH]c2O)cc(C)n1-c1ccccc1C(=O)N1CCC(C(=O)NC2CC2)CC1

>  <score_type>  (83) 
oracle

>  <origin>  (83) 
adg

>  <m_score__min__energy>  (83) 
-15.199999999999999

>  <m_primary>  (83) 
energy

$$$$
83:0
     RDKit          3D

 53 56  0  0  0  0  0  0  0  0999 V2000
   54.0230   26.3350   46.3930 H   0  0  0  0  0  0  0  0  0  0  0  0
   54.9950   26.5280   46.1860 O   0  0  0  0  0  0  0  0  0  0  0  0
   55.9580   25.5360   46.3450 C   0  0  0  0  0  0  0  0  0  0  0  0
   55.8220   24.4860   47.1750 N   0  0  0  0  0  0  0  0  0  0  0  0
   56.9830   23.8200   46.9990 C   0  0  0  0  0  0  0  0  0  0  0  0
   57.2520   22.7530   47.6130 O   0  0  0  0  0  0  0  0  0  0  0  0
   57.8330   24.3880   46.1180 N   0  0  0  0  0  0  0  0  0  0  0  0
   57.1700   25.4820   45.6980 C   0  0  0  0  0  0  0  0  0  0  0  0
   57.6640   26.4820   44.7270 C   0  0  0  0  0  0  0  0  0  0  0  0
   57.5762   26.2303   43.6598 H   0  0  0  0  0  0  0  0  0  0  0  0
   58.2130   27.6760   45.0340 C   0  0  0  0  0  0  0  0  0  0  0  0
   59.5090   27.9210   45.4800 C   0  0  0  0  0  0  0  0  0  0  0  0
   60.2903   27.1705   45.6704 H   0  0  0  0  0  0  0  0  0  0  0  0
   59.6240   29.2870   45.6370 C   0  0  0  0  0  0  0  0  0  0  0  0
   60.8670   29.9930   46.0890 C   0  0  0  0  0  0  0  0  0  0  0  0
   60.8991   30.0112   47.1884 H   0  0  0  0  0  0  0  0  0  0  0  0
   61.7505   29.4619   45.7051 H   0  0  0  0  0  0  0  0  0  0  0  0
   60.8634   31.0238   45.7051 H   0  0  0  0  0  0  0  0  0  0  0  0
   58.4690   29.9000   45.3030 N   0  0  0  0  0  0  0  0  0  0  0  0
   58.2400   31.3170   45.2900 C   0  0  0  0  0  0  0  0  0  0  0  0
   57.8370   31.9590   44.1100 C   0  0  0  0  0  0  0  0  0  0  0  0
   57.6908   31.3746   43.1896 H   0  0  0  0  0  0  0  0  0  0  0  0
   57.6210   33.3380   44.1010 C   0  0  0  0  0  0  0  0  0  0  0  0
   57.2804   33.8348   43.1806 H   0  0  0  0  0  0  0  0  0  0  0  0
   57.8370   34.0880   45.2600 C   0  0  0  0  0  0  0  0  0  0  0  0
   57.6533   35.1725   45.2517 H   0  0  0  0  0  0  0  0  0  0  0  0
   58.2860   33.4670   46.4320 C   0  0  0  0  0  0  0  0  0  0  0  0
   58.5260   34.2690   47.5940 N   0  0  0  0  0  0  0  0  0  0  0  0
   59.5010   34.0340   48.6210 C   0  0  0  0  0  0  0  0  0  0  0  0
   60.4720   34.8300   48.7180 O   0  0  0  0  0  0  0  0  0  0  0  0
   59.5000   32.7940   49.4800 C   0  0  0  0  0  0  0  0  0  0  0  0
   59.8333   33.0636   50.4930 H   0  0  0  0  0  0  0  0  0  0  0  0
   58.4769   32.3900   49.4917 H   0  0  0  0  0  0  0  0  0  0  0  0
   60.4310   31.7090   48.9250 C   0  0  0  0  0  0  0  0  0  0  0  0
   60.4105   30.8433   49.6033 H   0  0  0  0  0  0  0  0  0  0  0  0
   60.0739   31.4380   47.9205 H   0  0  0  0  0  0  0  0  0  0  0  0
   61.8520   32.1920   48.7970 C   0  0  0  0  0  0  0  0  0  0  0  0
   62.6840   32.2700   49.9280 C   0  0  0  0  0  0  0  0  0  0  0  0
   62.2979   31.9719   50.9139 H   0  0  0  0  0  0  0  0  0  0  0  0
   64.0000   32.7250   49.8040 C   0  0  0  0  0  0  0  0  0  0  0  0
   64.6483   32.7792   50.6910 H   0  0  0  0  0  0  0  0  0  0  0  0
   64.4930   33.1110   48.5550 C   0  0  0  0  0  0  0  0  0  0  0  0
   65.5288   33.4686   48.4593 H   0  0  0  0  0  0  0  0  0  0  0  0
   63.6710   33.0430   47.4280 C   0  0  0  0  0  0  0  0  0  0  0  0
   64.0597   33.3496   46.4457 H   0  0  0  0  0  0  0  0  0  0  0  0
   62.3550   32.5860   47.5460 C   0  0  0  0  0  0  0  0  0  0  0  0
   61.7109   32.5348   46.6557 H   0  0  0  0  0  0  0  0  0  0  0  0
   58.4330   32.0710   46.4560 C   0  0  0  0  0  0  0  0  0  0  0  0
   58.7013   31.5657   47.3955 H   0  0  0  0  0  0  0  0  0  0  0  0
   57.5960   28.9290   44.9350 C   0  0  0  0  0  0  0  0  0  0  0  0
   56.3460   29.1730   44.5120 C   0  0  0  0  0  0  0  0  0  0  0  0
   55.9688   30.2057   44.4773 H   0  0  0  0  0  0  0  0  0  0  0  0
   55.6986   28.3403   44.1999 H   0  0  0  0  0  0  0  0  0  0  0  0
  1  2  1  0
  2  3  1  0
  3  4  1  0
  4  5  1  0
  5  6  2  0
  5  7  1  0
  7  8  1  0
  8  9  1  0
  9 10  1  0
  9 11  2  0
 11 12  1  0
 12 13  1  0
 12 14  2  0
 14 15  1  0
 15 16  1  0
 15 17  1  0
 15 18  1  0
 14 19  1  0
 19 20  1  0
 20 21  2  0
 21 22  1  0
 21 23  1  0
 23 24  1  0
 23 25  2  0
 25 26  1  0
 25 27  1  0
 27 28  1  0
 28 29  1  0
 29 30  2  0
 29 31  1  0
 31 32  1  0
 31 33  1  0
 31 34  1  0
 34 35  1  0
 34 36  1  0
 34 37  1  0
 37 38  2  0
 38 39  1  0
 38 40  1  0
 40 41  1  0
 40 42  2  0
 42 43  1  0
 42 44  1  0
 44 45  1  0
 44 46  2  0
 46 47  1  0
 27 48  2  0
 48 49  1  0
 19 50  1  0
 50 51  2  0
 51 52  1  0
 51 53  1  0
  8  3  2  0
 50 11  1  0
 48 20  1  0
 46 37  1  0
M  CHG  3   4  -1   7  -1  28  -1
M  END
>  <UniqueID>  (84) 
79

>  <SMILES>  (84) 
C=c1/c(=C/c2[n-]c(=O)[n-]c2O)cc(C)n1-c1cccc([N-]C(=O)CCc2ccccc2)c1

>  <Energy>  (84) 
122.97941299725767

>  <Genealogy>  (84) 
C=c1c(=Cc2[n-]c(=O)[n-]c2O)cc(C)n1-c1cccc([N-]C(=O)CCc2ccccc2)c1 (protonated)
C=c1/c(=C/c2[n-]c(=O)[n-]c2O)cc(C)n1-c1cccc([N-]C(=O)CCc2ccccc2)c1 (cis-trans isomerization)
C=c1/c(=C/c2[n-]c(=O)[n-]c2O)cc(C)n1-c1cccc([N-]C(=O)CCc2ccccc2)c1 (3D coordinates assigned)
C=c1/c(=C/c2[n-]c(=O)[n-]c2O)cc(C)n1-c1cccc([N-]C(=O)CCc2ccccc2)c1 (optimized conformer: 122.97941299725767 kcal/mol)

>  <smiles>  (84) 
C=c1c(=Cc2[nH]c(=O)[nH]c2O)cc(C)n1-c1cccc(NC(=O)CCc2ccccc2)c1

>  <score_type>  (84) 
oracle

>  <origin>  (84) 
adg

>  <m_score__min__energy>  (84) 
-14.77

>  <m_primary>  (84) 
energy

$$$$
84:0
     RDKit          3D

 52 54  0  0  0  0  0  0  0  0999 V2000
   55.1420   27.4790   45.3770 H   0  0  0  0  0  0  0  0  0  0  0  0
   54.9550   26.7020   45.9990 O   0  0  0  0  0  0  0  0  0  0  0  0
   55.9470   25.7710   46.2890 C   0  0  0  0  0  0  0  0  0  0  0  0
   55.7930   24.7550   47.1560 N   0  0  0  0  0  0  0  0  0  0  0  0
   56.9720   24.1040   47.0620 C   0  0  0  0  0  0  0  0  0  0  0  0
   57.2270   23.0660   47.7240 O   0  0  0  0  0  0  0  0  0  0  0  0
   57.8510   24.6460   46.1910 N   0  0  0  0  0  0  0  0  0  0  0  0
   57.2020   25.7260   45.7240 C   0  0  0  0  0  0  0  0  0  0  0  0
   57.7170   26.5810   44.6430 C   0  0  0  0  0  0  0  0  0  0  0  0
   58.0223   26.0831   43.7109 H   0  0  0  0  0  0  0  0  0  0  0  0
   57.8470   27.9210   44.6960 C   0  0  0  0  0  0  0  0  0  0  0  0
   57.3380   28.7620   43.7200 C   0  0  0  0  0  0  0  0  0  0  0  0
   56.8379   28.4576   42.7887 H   0  0  0  0  0  0  0  0  0  0  0  0
   57.5780   30.0540   44.1390 C   0  0  0  0  0  0  0  0  0  0  0  0
   57.1600   31.2820   43.3890 C   0  0  0  0  0  0  0  0  0  0  0  0
   56.8904   32.0739   44.1033 H   0  0  0  0  0  0  0  0  0  0  0  0
   57.9916   31.6262   42.7566 H   0  0  0  0  0  0  0  0  0  0  0  0
   56.2911   31.0474   42.7566 H   0  0  0  0  0  0  0  0  0  0  0  0
   58.2570   30.0500   45.3090 N   0  0  0  0  0  0  0  0  0  0  0  0
   58.6920   31.2170   46.0300 C   0  0  0  0  0  0  0  0  0  0  0  0
   60.0470   31.3830   46.3500 C   0  0  0  0  0  0  0  0  0  0  0  0
   60.7830   30.6356   46.0187 H   0  0  0  0  0  0  0  0  0  0  0  0
   60.4670   32.4920   47.0870 C   0  0  0  0  0  0  0  0  0  0  0  0
   61.5321   32.6160   47.3325 H   0  0  0  0  0  0  0  0  0  0  0  0
   59.5330   33.4500   47.5160 C   0  0  0  0  0  0  0  0  0  0  0  0
   59.9790   34.5950   48.3860 C   0  0  0  0  0  0  0  0  0  0  0  0
   60.9758   34.9291   48.0625 H   0  0  0  0  0  0  0  0  0  0  0  0
   59.2553   35.4180   48.2913 H   0  0  0  0  0  0  0  0  0  0  0  0
   60.0420   34.1750   49.7930 N   0  0  0  0  0  0  0  0  0  0  0  0
   59.3790   33.3720   49.9150 H   0  0  0  0  0  0  0  0  0  0  0  0
   61.3900   33.7310   50.1950 C   0  0  0  0  0  0  0  0  0  0  0  0
   62.0404   33.6902   49.3088 H   0  0  0  0  0  0  0  0  0  0  0  0
   61.8034   34.4415   50.9259 H   0  0  0  0  0  0  0  0  0  0  0  0
   61.3100   32.3410   50.8310 C   0  0  0  0  0  0  0  0  0  0  0  0
   62.3145   31.8934   50.8548 H   0  0  0  0  0  0  0  0  0  0  0  0
   60.9180   32.4352   51.8545 H   0  0  0  0  0  0  0  0  0  0  0  0
   60.4130   31.4800   50.0500 N   0  0  0  0  0  0  0  0  0  0  0  0
   59.7950   32.0820   49.4540 H   0  0  0  0  0  0  0  0  0  0  0  0
   59.5740   30.6320   50.9080 C   0  0  0  0  0  0  0  0  0  0  0  0
   59.7200   29.5804   50.6203 H   0  0  0  0  0  0  0  0  0  0  0  0
   59.8731   30.8028   51.9527 H   0  0  0  0  0  0  0  0  0  0  0  0
   58.1190   30.9720   50.7800 C   0  0  0  0  0  0  0  0  0  0  0  0
   57.7620   32.0170   50.1730 O   0  0  0  0  0  0  0  0  0  0  0  0
   57.1580   30.1200   51.3070 O   0  0  0  0  0  0  0  0  0  0  0  0
   58.1790   33.2920   47.1830 C   0  0  0  0  0  0  0  0  0  0  0  0
   57.4440   34.0445   47.5048 H   0  0  0  0  0  0  0  0  0  0  0  0
   57.7610   32.1820   46.4440 C   0  0  0  0  0  0  0  0  0  0  0  0
   56.6982   32.0642   46.1859 H   0  0  0  0  0  0  0  0  0  0  0  0
   58.4540   28.7510   45.6520 C   0  0  0  0  0  0  0  0  0  0  0  0
   59.2460   28.3710   46.6670 C   0  0  0  0  0  0  0  0  0  0  0  0
   59.6622   29.1246   47.3518 H   0  0  0  0  0  0  0  0  0  0  0  0
   59.4788   27.3060   46.8140 H   0  0  0  0  0  0  0  0  0  0  0  0
  1  2  1  0
  2  3  1  0
  3  4  1  0
  4  5  1  0
  5  6  2  0
  5  7  1  0
  7  8  1  0
  8  9  1  0
  9 10  1  0
  9 11  2  0
 11 12  1  0
 12 13  1  0
 12 14  2  0
 14 15  1  0
 15 16  1  0
 15 17  1  0
 15 18  1  0
 14 19  1  0
 19 20  1  0
 20 21  2  0
 21 22  1  0
 21 23  1  0
 23 24  1  0
 23 25  2  0
 25 26  1  0
 26 27  1  0
 26 28  1  0
 26 29  1  0
 29 30  1  0
 29 31  1  0
 31 32  1  0
 31 33  1  0
 31 34  1  0
 34 35  1  0
 34 36  1  0
 34 37  1  0
 37 38  1  0
 37 39  1  0
 39 40  1  0
 39 41  1  0
 39 42  1  0
 42 43  2  0
 42 44  1  0
 25 45  1  0
 45 46  1  0
 45 47  2  0
 47 48  1  0
 19 49  1  0
 49 50  2  0
 50 51  1  0
 50 52  1  0
  8  3  2  0
 49 11  1  0
 47 20  1  0
M  CHG  3   4  -1   7  -1  44  -1
M  END
>  <UniqueID>  (85) 
80

>  <SMILES>  (85) 
C=c1/c(=C\c2[n-]c(=O)[n-]c2O)cc(C)n1-c1ccc(CNCCNCC(=O)[O-])cc1

>  <Energy>  (85) 
123.22592733575063

>  <Genealogy>  (85) 
C=c1c(=Cc2[n-]c(=O)[n-]c2O)cc(C)n1-c1ccc(CNCCNCC(=O)[O-])cc1 (protonated)
C=c1/c(=C\c2[n-]c(=O)[n-]c2O)cc(C)n1-c1ccc(CNCCNCC(=O)[O-])cc1 (cis-trans isomerization)
C=c1/c(=C\c2[n-]c(=O)[n-]c2O)cc(C)n1-c1ccc(CNCCNCC(=O)[O-])cc1 (3D coordinates assigned)
C=c1/c(=C\c2[n-]c(=O)[n-]c2O)cc(C)n1-c1ccc(CNCCNCC(=O)[O-])cc1 (optimized conformer: 123.22592733575063 kcal/mol)

>  <smiles>  (85) 
C=c1c(=Cc2[nH]c(=O)[nH]c2O)cc(C)n1-c1ccc(CNCCNCC(=O)O)cc1

>  <score_type>  (85) 
oracle

>  <origin>  (85) 
adg

>  <m_score__min__energy>  (85) 
-12.93

>  <m_primary>  (85) 
energy

$$$$
85:0
     RDKit          3D

 45 47  0  0  0  0  0  0  0  0999 V2000
   58.9010   30.4190   49.1750 N   0  0  0  0  0  0  0  0  0  0  0  0
   60.0460   29.3930   48.3790 S   0  0  0  0  0  0  0  0  0  0  0  0
   60.2960   28.1790   49.2310 O   0  0  0  0  0  0  0  0  0  0  0  0
   61.3450   30.1310   48.1910 O   0  0  0  0  0  0  0  0  0  0  0  0
   59.4130   28.9160   46.8040 C   0  0  0  0  0  0  0  0  0  0  0  0
   59.9360   27.8080   46.1210 C   0  0  0  0  0  0  0  0  0  0  0  0
   59.4100   27.4360   44.8780 C   0  0  0  0  0  0  0  0  0  0  0  0
   58.3530   28.1560   44.3190 C   0  0  0  0  0  0  0  0  0  0  0  0
   57.8150   29.2560   44.9990 C   0  0  0  0  0  0  0  0  0  0  0  0
   56.3970   30.0770   44.3530 S   0  0  0  0  0  0  0  0  0  0  0  0
   56.4020   30.0230   42.8510 O   0  0  0  0  0  0  0  0  0  0  0  0
   55.1720   29.3610   44.8460 O   0  0  0  0  0  0  0  0  0  0  0  0
   56.3140   31.7370   44.8560 N   0  0  0  0  0  0  0  0  0  0  0  0
   57.4480   32.5540   45.1780 C   0  0  0  0  0  0  0  0  0  0  0  0
   57.9300   33.4560   44.2180 C   0  0  0  0  0  0  0  0  0  0  0  0
   59.0350   34.2660   44.5000 C   0  0  0  0  0  0  0  0  0  0  0  0
   59.6460   34.2040   45.7560 C   0  0  0  0  0  0  0  0  0  0  0  0
   59.1400   33.3450   46.7500 C   0  0  0  0  0  0  0  0  0  0  0  0
   59.7700   33.2860   48.0870 C   0  0  0  0  0  0  0  0  0  0  0  0
   59.0530   33.0450   49.0980 O   0  0  0  0  0  0  0  0  0  0  0  0
   61.1830   33.5030   48.2580 N   0  0  0  0  0  0  0  0  0  0  0  0
   62.2000   32.8980   47.4080 C   0  0  0  0  0  0  0  0  0  0  0  0
   63.5360   33.3630   47.9760 C   0  0  0  0  0  0  0  0  0  0  0  0
   63.2420   33.8610   49.3900 C   0  0  0  0  0  0  0  0  0  0  0  0
   61.7430   34.1340   49.4420 C   0  0  0  0  0  0  0  0  0  0  0  0
   58.0510   32.5120   46.4450 C   0  0  0  0  0  0  0  0  0  0  0  0
   58.3530   29.6390   46.2390 C   0  0  0  0  0  0  0  0  0  0  0  0
   59.4450   31.0310   49.8270 H   0  0  0  0  0  0  0  0  0  0  0  0
   58.4950   31.0490   48.4440 H   0  0  0  0  0  0  0  0  0  0  0  0
   60.7611   27.2302   46.5629 H   0  0  0  0  0  0  0  0  0  0  0  0
   59.8310   26.5737   44.3403 H   0  0  0  0  0  0  0  0  0  0  0  0
   57.9418   27.8591   43.3429 H   0  0  0  0  0  0  0  0  0  0  0  0
   57.4361   33.5268   43.2376 H   0  0  0  0  0  0  0  0  0  0  0  0
   59.4235   34.9522   43.7331 H   0  0  0  0  0  0  0  0  0  0  0  0
   60.5259   34.8291   45.9684 H   0  0  0  0  0  0  0  0  0  0  0  0
   62.1280   31.8009   47.4440 H   0  0  0  0  0  0  0  0  0  0  0  0
   62.0797   33.1930   46.3551 H   0  0  0  0  0  0  0  0  0  0  0  0
   64.2503   32.5270   48.0060 H   0  0  0  0  0  0  0  0  0  0  0  0
   63.9844   34.1530   47.3557 H   0  0  0  0  0  0  0  0  0  0  0  0
   63.5157   33.0936   50.1291 H   0  0  0  0  0  0  0  0  0  0  0  0
   63.8224   34.7653   49.6251 H   0  0  0  0  0  0  0  0  0  0  0  0
   61.3056   33.6970   50.3518 H   0  0  0  0  0  0  0  0  0  0  0  0
   61.5290   35.2127   49.4649 H   0  0  0  0  0  0  0  0  0  0  0  0
   57.6663   31.8189   47.2076 H   0  0  0  0  0  0  0  0  0  0  0  0
   57.9406   30.5102   46.7691 H   0  0  0  0  0  0  0  0  0  0  0  0
  1  2  1  0
  2  3  2  0
  2  4  2  0
  2  5  1  0
  5  6  2  0
  6  7  1  0
  7  8  2  0
  8  9  1  0
  9 10  1  0
 10 11  2  0
 10 12  2  0
 10 13  1  0
 13 14  1  0
 14 15  2  0
 15 16  1  0
 16 17  2  0
 17 18  1  0
 18 19  1  0
 19 20  2  0
 19 21  1  0
 21 22  1  0
 22 23  1  0
 23 24  1  0
 24 25  1  0
 18 26  2  0
  9 27  2  0
 27  5  1  0
 26 14  1  0
 25 21  1  0
  1 28  1  0
  1 29  1  0
  6 30  1  0
  7 31  1  0
  8 32  1  0
 15 33  1  0
 16 34  1  0
 17 35  1  0
 22 36  1  0
 22 37  1  0
 23 38  1  0
 23 39  1  0
 24 40  1  0
 24 41  1  0
 25 42  1  0
 25 43  1  0
 26 44  1  0
 27 45  1  0
M  CHG  1  13  -1
M  END
>  <UniqueID>  (86) 
81

>  <SMILES>  (86) 
NS(=O)(=O)c1cccc(S(=O)(=O)[N-]c2cccc(C(=O)N3CCCC3)c2)c1

>  <Energy>  (86) 
53.40266052330466

>  <Genealogy>  (86) 
NS(=O)(=O)c1cccc(S(=O)(=O)[N-]c2cccc(C(=O)N3CCCC3)c2)c1 (protonated)
NS(=O)(=O)c1cccc(S(=O)(=O)[N-]c2cccc(C(=O)N3CCCC3)c2)c1 (3D coordinates assigned)
NS(=O)(=O)c1cccc(S(=O)(=O)[N-]c2cccc(C(=O)N3CCCC3)c2)c1 (nonaromatic ring conformer: 53.40266052330466 kcal/mol)

>  <smiles>  (86) 
NS(=O)(=O)c1cccc(S(=O)(=O)Nc2cccc(C(=O)N3CCCC3)c2)c1

>  <score_type>  (86) 
oracle

>  <origin>  (86) 
adg

>  <m_score__min__energy>  (86) 
-11.83

>  <m_primary>  (86) 
energy

$$$$
86:0
     RDKit          3D

 49 50  0  0  0  0  0  0  0  0999 V2000
   54.4950   30.1200   55.2210 C   0  0  0  0  0  0  0  0  0  0  0  0
   54.3060   29.5940   53.8180 C   0  0  0  0  0  0  0  0  0  0  0  0
   53.0810   29.3780   53.2930 C   0  0  0  0  0  0  0  0  0  0  0  0
   52.4170   30.2480   52.2990 C   0  0  0  0  0  0  0  0  0  0  0  0
   52.3120   29.8110   50.9690 C   0  0  0  0  0  0  0  0  0  0  0  0
   51.7290   30.6310   49.9990 C   0  0  0  0  0  0  0  0  0  0  0  0
   51.2630   31.9030   50.3450 C   0  0  0  0  0  0  0  0  0  0  0  0
   50.6830   32.7180   49.3810 O   0  0  0  0  0  0  0  0  0  0  0  0
   51.3880   32.3580   51.6610 C   0  0  0  0  0  0  0  0  0  0  0  0
   51.9720   31.5390   52.6330 C   0  0  0  0  0  0  0  0  0  0  0  0
   55.5080   29.3350   52.9900 C   0  0  0  0  0  0  0  0  0  0  0  0
   56.2460   28.3430   53.2410 O   0  0  0  0  0  0  0  0  0  0  0  0
   55.8300   30.1980   51.9350 O   0  0  0  0  0  0  0  0  0  0  0  0
   56.7290   31.2960   52.0530 C   0  0  0  0  0  0  0  0  0  0  0  0
   57.8610   31.1790   51.0680 C   0  0  0  0  0  0  0  0  0  0  0  0
   58.0490   30.0620   50.5140 O   0  0  0  0  0  0  0  0  0  0  0  0
   58.7230   32.2920   50.7340 N   0  0  0  0  0  0  0  0  0  0  0  0
   58.7330   33.4600   51.6220 C   0  0  0  0  0  0  0  0  0  0  0  0
   59.5950   32.2980   49.5480 C   0  0  0  0  0  0  0  0  0  0  0  0
   58.8590   31.7390   48.3270 C   0  0  0  0  0  0  0  0  0  0  0  0
   58.8520   32.7480   47.2020 C   0  0  0  0  0  0  0  0  0  0  0  0
   59.4160   34.0170   47.4280 C   0  0  0  0  0  0  0  0  0  0  0  0
   59.4080   34.9890   46.4250 C   0  0  0  0  0  0  0  0  0  0  0  0
   58.8300   34.7110   45.1870 C   0  0  0  0  0  0  0  0  0  0  0  0
   58.2520   33.4630   44.9500 C   0  0  0  0  0  0  0  0  0  0  0  0
   58.2510   32.4780   45.9460 C   0  0  0  0  0  0  0  0  0  0  0  0
   57.6410   31.2550   45.6540 O   0  0  0  0  0  0  0  0  0  0  0  0
   54.2151   29.3410   55.9454 H   0  0  0  0  0  0  0  0  0  0  0  0
   55.5490   30.3974   55.3697 H   0  0  0  0  0  0  0  0  0  0  0  0
   53.8585   31.0048   55.3697 H   0  0  0  0  0  0  0  0  0  0  0  0
   52.5345   28.4853   53.6311 H   0  0  0  0  0  0  0  0  0  0  0  0
   52.6909   28.8171   50.6886 H   0  0  0  0  0  0  0  0  0  0  0  0
   51.6367   30.2753   48.9622 H   0  0  0  0  0  0  0  0  0  0  0  0
   51.0268   33.3610   51.9323 H   0  0  0  0  0  0  0  0  0  0  0  0
   52.0836   31.9069   53.6636 H   0  0  0  0  0  0  0  0  0  0  0  0
   56.1814   32.2306   51.8614 H   0  0  0  0  0  0  0  0  0  0  0  0
   57.1494   31.2951   53.0695 H   0  0  0  0  0  0  0  0  0  0  0  0
   58.7301   33.1242   52.6695 H   0  0  0  0  0  0  0  0  0  0  0  0
   59.6363   34.0580   51.4311 H   0  0  0  0  0  0  0  0  0  0  0  0
   57.8401   34.0734   51.4311 H   0  0  0  0  0  0  0  0  0  0  0  0
   59.9097   33.3308   49.3374 H   0  0  0  0  0  0  0  0  0  0  0  0
   60.4705   31.6640   49.7518 H   0  0  0  0  0  0  0  0  0  0  0  0
   59.3651   30.8231   47.9879 H   0  0  0  0  0  0  0  0  0  0  0  0
   57.8196   31.5169   48.6105 H   0  0  0  0  0  0  0  0  0  0  0  0
   59.8678   34.2459   48.4045 H   0  0  0  0  0  0  0  0  0  0  0  0
   59.8583   35.9750   46.6120 H   0  0  0  0  0  0  0  0  0  0  0  0
   58.8296   35.4759   44.3965 H   0  0  0  0  0  0  0  0  0  0  0  0
   57.7934   33.2511   43.9729 H   0  0  0  0  0  0  0  0  0  0  0  0
   56.6410   31.1250   45.6140 H   0  0  0  0  0  0  0  0  0  0  0  0
  1  2  1  0
  2  3  2  3
  3  4  1  0
  4  5  2  0
  5  6  1  0
  6  7  2  0
  7  8  1  0
  7  9  1  0
  9 10  2  0
  2 11  1  0
 11 12  2  0
 11 13  1  0
 13 14  1  0
 14 15  1  0
 15 16  2  0
 15 17  1  0
 17 18  1  0
 17 19  1  0
 19 20  1  0
 20 21  1  0
 21 22  2  0
 22 23  1  0
 23 24  2  0
 24 25  1  0
 25 26  2  0
 26 27  1  0
 10  4  1  0
 26 21  1  0
  1 28  1  0
  1 29  1  0
  1 30  1  0
  3 31  1  0
  5 32  1  0
  6 33  1  0
  9 34  1  0
 10 35  1  0
 14 36  1  0
 14 37  1  0
 18 38  1  0
 18 39  1  0
 18 40  1  0
 19 41  1  0
 19 42  1  0
 20 43  1  0
 20 44  1  0
 22 45  1  0
 23 46  1  0
 24 47  1  0
 25 48  1  0
 27 49  1  0
M  CHG  1   8  -1
M  END
>  <UniqueID>  (87) 
82

>  <SMILES>  (87) 
CC(=Cc1ccc([O-])cc1)C(=O)OCC(=O)N(C)CCc1ccccc1O

>  <Energy>  (87) 
50.298565297455006

>  <Genealogy>  (87) 
CC(=Cc1ccc([O-])cc1)C(=O)OCC(=O)N(C)CCc1ccccc1O (protonated)
CC(=Cc1ccc([O-])cc1)C(=O)OCC(=O)N(C)CCc1ccccc1O (3D coordinates assigned)
CC(=Cc1ccc([O-])cc1)C(=O)OCC(=O)N(C)CCc1ccccc1O (optimized conformer: 50.298565297455006 kcal/mol)

>  <smiles>  (87) 
CC(=Cc1ccc(O)cc1)C(=O)OCC(=O)N(C)CCc1ccccc1O

>  <score_type>  (87) 
oracle

>  <origin>  (87) 
adg

>  <m_score__min__energy>  (87) 
-11.550000000000001

>  <m_primary>  (87) 
energy

$$$$
87:0
     RDKit          3D

 36 38  0  0  0  0  0  0  0  0999 V2000
   60.9473   27.5488   45.8080 H   0  0  0  0  0  0  0  0  0  0  0  0
   60.4520   26.7620   46.3960 C   0  0  0  0  0  0  0  0  0  0  0  0
   61.0309   26.1695   47.1198 H   0  0  0  0  0  0  0  0  0  0  0  0
   59.1470   26.5260   46.2310 C   0  0  0  0  0  0  0  0  0  0  0  0
   58.4520   25.5560   46.9310 C   0  0  0  0  0  0  0  0  0  0  0  0
   58.8192   24.9683   47.7853 H   0  0  0  0  0  0  0  0  0  0  0  0
   57.2070   25.4730   46.3440 C   0  0  0  0  0  0  0  0  0  0  0  0
   56.0960   24.5800   46.7930 C   0  0  0  0  0  0  0  0  0  0  0  0
   56.0663   24.5561   47.8923 H   0  0  0  0  0  0  0  0  0  0  0  0
   55.1393   24.9633   46.4086 H   0  0  0  0  0  0  0  0  0  0  0  0
   56.2647   23.5633   46.4086 H   0  0  0  0  0  0  0  0  0  0  0  0
   57.0950   26.3650   45.3430 N   0  0  0  0  0  0  0  0  0  0  0  0
   56.2420   26.5270   44.7610 H   0  0  0  0  0  0  0  0  0  0  0  0
   58.2610   27.0440   45.2730 C   0  0  0  0  0  0  0  0  0  0  0  0
   58.4300   28.0550   44.3980 C   0  0  0  0  0  0  0  0  0  0  0  0
   59.1714   27.9093   43.5986 H   0  0  0  0  0  0  0  0  0  0  0  0
   57.7080   29.3370   44.4200 C   0  0  0  0  0  0  0  0  0  0  0  0
   58.2780   30.5410   44.2260 N   0  0  0  0  0  0  0  0  0  0  0  0
   57.2770   31.4160   44.4770 C   0  0  0  0  0  0  0  0  0  0  0  0
   57.4650   32.8980   44.4250 C   0  0  0  0  0  0  0  0  0  0  0  0
   58.0224   33.1628   43.5144 H   0  0  0  0  0  0  0  0  0  0  0  0
   56.4797   33.3870   44.4146 H   0  0  0  0  0  0  0  0  0  0  0  0
   58.2330   33.3610   45.6310 C   0  0  0  0  0  0  0  0  0  0  0  0
   59.0410   34.5080   45.5590 C   0  0  0  0  0  0  0  0  0  0  0  0
   59.1342   35.0539   44.6086 H   0  0  0  0  0  0  0  0  0  0  0  0
   59.7270   34.9580   46.6910 C   0  0  0  0  0  0  0  0  0  0  0  0
   60.3645   35.8522   46.6275 H   0  0  0  0  0  0  0  0  0  0  0  0
   59.6040   34.2730   47.9040 C   0  0  0  0  0  0  0  0  0  0  0  0
   60.2860   34.7210   49.0290 O   0  0  0  0  0  0  0  0  0  0  0  0
   58.7910   33.1380   47.9860 C   0  0  0  0  0  0  0  0  0  0  0  0
   58.6926   32.6008   48.9408 H   0  0  0  0  0  0  0  0  0  0  0  0
   58.1030   32.6850   46.8560 C   0  0  0  0  0  0  0  0  0  0  0  0
   57.4580   31.7967   46.9263 H   0  0  0  0  0  0  0  0  0  0  0  0
   56.1210   30.8350   44.8690 N   0  0  0  0  0  0  0  0  0  0  0  0
   56.4130   29.5250   44.8340 C   0  0  0  0  0  0  0  0  0  0  0  0
   55.5190   28.5230   45.1860 O   0  0  0  0  0  0  0  0  0  0  0  0
  1  2  1  0
  2  3  1  0
  2  4  2  0
  4  5  1  0
  5  6  1  0
  5  7  2  0
  7  8  1  0
  8  9  1  0
  8 10  1  0
  8 11  1  0
  7 12  1  0
 12 13  1  0
 12 14  1  0
 14 15  2  0
 15 16  1  0
 15 17  1  0
 17 18  1  0
 18 19  2  0
 19 20  1  0
 20 21  1  0
 20 22  1  0
 20 23  1  0
 23 24  2  0
 24 25  1  0
 24 26  1  0
 26 27  1  0
 26 28  2  0
 28 29  1  0
 28 30  1  0
 30 31  1  0
 30 32  2  0
 32 33  1  0
 19 34  1  0
 34 35  1  0
 35 36  1  0
 14  4  1  0
 35 17  2  0
 32 23  1  0
M  CHG  3  29  -1  34  -1  36  -1
M  END
>  <UniqueID>  (88) 
83

>  <SMILES>  (88) 
C=c1cc(C)[nH]/c1=C/c1nc(Cc2ccc([O-])cc2)[n-]c1[O-]

>  <Energy>  (88) 
101.1713298982021

>  <Genealogy>  (88) 
C=c1cc(C)[nH]c1=Cc1nc(Cc2ccc([O-])cc2)[n-]c1[O-] (protonated)
C=c1cc(C)[nH]/c1=C/c1nc(Cc2ccc([O-])cc2)[n-]c1[O-] (cis-trans isomerization)
C=c1cc(C)[nH]/c1=C/c1nc(Cc2ccc([O-])cc2)[n-]c1[O-] (3D coordinates assigned)
C=c1cc(C)[nH]/c1=C/c1nc(Cc2ccc([O-])cc2)[n-]c1[O-] (optimized conformer: 101.1713298982021 kcal/mol)

>  <smiles>  (88) 
C=c1cc(C)[nH]c1=Cc1nc(Cc2ccc(O)cc2)[nH]c1O

>  <score_type>  (88) 
oracle

>  <origin>  (88) 
adg

>  <m_score__min__energy>  (88) 
-14.279999999999999

>  <m_primary>  (88) 
energy

$$$$
88:0
     RDKit          3D

 60 63  0  0  0  0  0  0  0  0999 V2000
   58.6720   31.3450   53.4760 C   0  0  0  0  0  0  0  0  0  0  0  0
   57.8180   31.4180   51.9180 S   0  0  0  0  0  0  0  0  0  0  0  0
   57.3190   30.0450   51.5640 O   0  0  0  0  0  0  0  0  0  0  0  0
   56.6410   32.3480   52.0270 O   0  0  0  0  0  0  0  0  0  0  0  0
   58.9160   32.0100   50.6750 C   0  0  0  0  0  0  0  0  0  0  0  0
   59.4330   31.1210   49.7270 C   0  0  0  0  0  0  0  0  0  0  0  0
   60.3020   31.5750   48.7300 C   0  0  0  0  0  0  0  0  0  0  0  0
   60.6670   32.9320   48.6700 C   0  0  0  0  0  0  0  0  0  0  0  0
   61.6190   33.4170   47.6430 C   0  0  0  0  0  0  0  0  0  0  0  0
   62.8580   33.3560   47.8660 O   0  0  0  0  0  0  0  0  0  0  0  0
   61.1780   33.8560   46.3510 N   0  0  0  0  0  0  0  0  0  0  0  0
   59.9770   33.7520   45.8520 C   0  0  0  0  0  0  0  0  0  0  0  0
   59.2710   32.5310   45.8170 C   0  0  0  0  0  0  0  0  0  0  0  0
   57.9800   32.4860   45.2840 C   0  0  0  0  0  0  0  0  0  0  0  0
   57.2890   31.2650   45.2880 O   0  0  0  0  0  0  0  0  0  0  0  0
   57.8750   29.9990   45.4250 C   0  0  0  0  0  0  0  0  0  0  0  0
   58.3200   29.5960   46.6860 C   0  0  0  0  0  0  0  0  0  0  0  0
   58.9030   28.3390   46.8650 C   0  0  0  0  0  0  0  0  0  0  0  0
   59.0740   27.4710   45.7690 C   0  0  0  0  0  0  0  0  0  0  0  0
   59.6030   26.1430   45.9330 N   0  0  0  0  0  0  0  0  0  0  0  0
   58.8400   25.0280   46.4120 C   0  0  0  0  0  0  0  0  0  0  0  0
   58.0380   25.1770   47.3720 O   0  0  0  0  0  0  0  0  0  0  0  0
   59.0440   23.7180   45.8700 N   0  0  0  0  0  0  0  0  0  0  0  0
   58.1720   23.0540   44.9430 C   0  0  0  0  0  0  0  0  0  0  0  0
   58.6170   21.9870   44.1430 C   0  0  0  0  0  0  0  0  0  0  0  0
   57.7470   21.3810   43.2340 C   0  0  0  0  0  0  0  0  0  0  0  0
   56.4340   21.8390   43.1010 C   0  0  0  0  0  0  0  0  0  0  0  0
   55.9850   22.9290   43.8730 C   0  0  0  0  0  0  0  0  0  0  0  0
   54.6850   23.4490   43.7640 O   0  0  0  0  0  0  0  0  0  0  0  0
   53.8800   23.8890   44.8550 C   0  0  0  0  0  0  0  0  0  0  0  0
   54.3570   25.1050   45.3020 F   0  0  0  0  0  0  0  0  0  0  0  0
   52.5670   24.0490   44.4480 F   0  0  0  0  0  0  0  0  0  0  0  0
   53.9420   22.9750   45.8940 F   0  0  0  0  0  0  0  0  0  0  0  0
   56.8640   23.5290   44.7850 C   0  0  0  0  0  0  0  0  0  0  0  0
   58.6490   27.8890   44.4990 C   0  0  0  0  0  0  0  0  0  0  0  0
   58.0620   29.1440   44.3240 C   0  0  0  0  0  0  0  0  0  0  0  0
   57.3920   33.6720   44.8160 C   0  0  0  0  0  0  0  0  0  0  0  0
   58.1140   34.8640   44.8730 C   0  0  0  0  0  0  0  0  0  0  0  0
   59.3710   34.8770   45.3860 N   0  0  0  0  0  0  0  0  0  0  0  0
   60.1420   33.8220   49.6230 C   0  0  0  0  0  0  0  0  0  0  0  0
   59.2680   33.3660   50.6150 C   0  0  0  0  0  0  0  0  0  0  0  0
   57.9427   31.4073   54.2971 H   0  0  0  0  0  0  0  0  0  0  0  0
   59.2243   30.3964   53.5473 H   0  0  0  0  0  0  0  0  0  0  0  0
   59.3773   32.1861   53.5473 H   0  0  0  0  0  0  0  0  0  0  0  0
   59.1541   30.0576   49.7660 H   0  0  0  0  0  0  0  0  0  0  0  0
   60.7021   30.8674   47.9890 H   0  0  0  0  0  0  0  0  0  0  0  0
   59.7366   31.6148   46.2091 H   0  0  0  0  0  0  0  0  0  0  0  0
   58.2106   30.2739   47.5454 H   0  0  0  0  0  0  0  0  0  0  0  0
   59.2302   28.0255   47.8673 H   0  0  0  0  0  0  0  0  0  0  0  0
   60.6020   25.9670   45.6870 H   0  0  0  0  0  0  0  0  0  0  0  0
   59.6530   21.6286   44.2333 H   0  0  0  0  0  0  0  0  0  0  0  0
   58.0975   20.5386   42.6195 H   0  0  0  0  0  0  0  0  0  0  0  0
   55.7499   21.3483   42.3930 H   0  0  0  0  0  0  0  0  0  0  0  0
   56.5217   24.3850   45.3851 H   0  0  0  0  0  0  0  0  0  0  0  0
   58.7793   27.2225   43.6337 H   0  0  0  0  0  0  0  0  0  0  0  0
   57.7446   29.4652   43.3210 H   0  0  0  0  0  0  0  0  0  0  0  0
   56.3706   33.6612   44.4079 H   0  0  0  0  0  0  0  0  0  0  0  0
   57.6637   35.7962   44.5013 H   0  0  0  0  0  0  0  0  0  0  0  0
   60.4208   34.8855   49.5882 H   0  0  0  0  0  0  0  0  0  0  0  0
   58.8557   34.0729   51.3501 H   0  0  0  0  0  0  0  0  0  0  0  0
  1  2  1  0
  2  3  2  0
  2  4  2  0
  2  5  1  0
  5  6  2  0
  6  7  1  0
  7  8  2  0
  8  9  1  0
  9 10  2  0
  9 11  1  0
 11 12  2  3
 12 13  1  0
 13 14  2  0
 14 15  1  0
 15 16  1  0
 16 17  2  0
 17 18  1  0
 18 19  2  0
 19 20  1  0
 20 21  1  0
 21 22  2  0
 21 23  1  0
 23 24  1  0
 24 25  2  0
 25 26  1  0
 26 27  2  0
 27 28  1  0
 28 29  1  0
 29 30  1  0
 30 31  1  0
 30 32  1  0
 30 33  1  0
 28 34  2  0
 19 35  1  0
 35 36  2  0
 14 37  1  0
 37 38  2  0
 38 39  1  0
  8 40  1  0
 40 41  2  0
 41  5  1  0
 39 12  1  0
 36 16  1  0
 34 24  1  0
  1 42  1  0
  1 43  1  0
  1 44  1  0
  6 45  1  0
  7 46  1  0
 13 47  1  0
 17 48  1  0
 18 49  1  0
 20 50  1  0
 25 51  1  0
 26 52  1  0
 27 53  1  0
 34 54  1  0
 35 55  1  0
 36 56  1  0
 37 57  1  0
 38 58  1  0
 40 59  1  0
 41 60  1  0
M  CHG  2  23  -1  39  -1
M  END
>  <UniqueID>  (89) 
84

>  <SMILES>  (89) 
CS(=O)(=O)c1ccc(C(=O)N=c2cc(Oc3ccc(NC(=O)[N-]c4cccc(OC(F)(F)F)c4)cc3)cc[n-]2)cc1

>  <Energy>  (89) 
87.62221729598407

>  <Genealogy>  (89) 
CS(=O)(=O)c1ccc(C(=O)N=c2cc(Oc3ccc(NC(=O)[N-]c4cccc(OC(F)(F)F)c4)cc3)cc[n-]2)cc1 (protonated)
CS(=O)(=O)c1ccc(C(=O)N=c2cc(Oc3ccc(NC(=O)[N-]c4cccc(OC(F)(F)F)c4)cc3)cc[n-]2)cc1 (3D coordinates assigned)
CS(=O)(=O)c1ccc(C(=O)N=c2cc(Oc3ccc(NC(=O)[N-]c4cccc(OC(F)(F)F)c4)cc3)cc[n-]2)cc1 (optimized conformer: 87.62221729598407 kcal/mol)

>  <smiles>  (89) 
CS(=O)(=O)c1ccc(C(=O)N=c2cc(Oc3ccc(NC(=O)Nc4cccc(OC(F)(F)F)c4)cc3)cc[nH]2)cc1

>  <score_type>  (89) 
oracle

>  <origin>  (89) 
adg

>  <m_score__min__energy>  (89) 
-11.74

>  <m_primary>  (89) 
energy

$$$$
89:0
     RDKit          3D

 44 46  0  0  0  0  0  0  0  0999 V2000
   60.3000   33.6470   52.0030 C   0  0  0  0  0  0  0  0  0  0  0  0
   60.4390   33.6070   50.5200 C   0  0  0  0  0  0  0  0  0  0  0  0
   59.3790   33.5470   49.6870 N   0  0  0  0  0  0  0  0  0  0  0  0
   59.9270   33.5760   48.4570 C   0  0  0  0  0  0  0  0  0  0  0  0
   59.1190   33.5150   47.2200 C   0  0  0  0  0  0  0  0  0  0  0  0
   58.8820   34.6580   46.4400 C   0  0  0  0  0  0  0  0  0  0  0  0
   58.1680   34.5580   45.2430 C   0  0  0  0  0  0  0  0  0  0  0  0
   57.7170   33.3130   44.7960 C   0  0  0  0  0  0  0  0  0  0  0  0
   57.9790   32.1580   45.5390 C   0  0  0  0  0  0  0  0  0  0  0  0
   57.5420   30.8900   45.0240 N   0  0  0  0  0  0  0  0  0  0  0  0
   58.3290   29.6950   44.8850 C   0  0  0  0  0  0  0  0  0  0  0  0
   59.3770   29.7430   44.1900 O   0  0  0  0  0  0  0  0  0  0  0  0
   57.9590   28.4200   45.5430 C   0  0  0  0  0  0  0  0  0  0  0  0
   58.9560   27.6490   46.1590 C   0  0  0  0  0  0  0  0  0  0  0  0
   58.6450   26.4060   46.7120 C   0  0  0  0  0  0  0  0  0  0  0  0
   57.3380   25.9200   46.6600 C   0  0  0  0  0  0  0  0  0  0  0  0
   56.3200   26.6900   46.0700 C   0  0  0  0  0  0  0  0  0  0  0  0
   54.9670   26.2250   45.9900 N   0  0  0  0  0  0  0  0  0  0  0  0
   54.4920   24.5940   45.6390 S   0  0  0  0  0  0  0  0  0  0  0  0
   55.4720   23.9890   44.2840 C   0  0  0  0  0  0  0  0  0  0  0  0
   54.7270   23.7240   46.8410 O   0  0  0  0  0  0  0  0  0  0  0  0
   53.0400   24.5570   45.2530 O   0  0  0  0  0  0  0  0  0  0  0  0
   56.6310   27.9480   45.5340 C   0  0  0  0  0  0  0  0  0  0  0  0
   55.6370   28.7070   45.0050 F   0  0  0  0  0  0  0  0  0  0  0  0
   58.6460   32.2710   46.7720 C   0  0  0  0  0  0  0  0  0  0  0  0
   61.3020   33.6850   48.5820 C   0  0  0  0  0  0  0  0  0  0  0  0
   62.3160   33.7960   47.4890 C   0  0  0  0  0  0  0  0  0  0  0  0
   61.6270   33.7030   49.8880 N   0  0  0  0  0  0  0  0  0  0  0  0
   61.2577   33.3714   52.4686 H   0  0  0  0  0  0  0  0  0  0  0  0
   60.0182   34.6627   52.3176 H   0  0  0  0  0  0  0  0  0  0  0  0
   59.5214   32.9365   52.3176 H   0  0  0  0  0  0  0  0  0  0  0  0
   59.2599   35.6361   46.7724 H   0  0  0  0  0  0  0  0  0  0  0  0
   57.9604   35.4616   44.6510 H   0  0  0  0  0  0  0  0  0  0  0  0
   57.1528   33.2414   43.8544 H   0  0  0  0  0  0  0  0  0  0  0  0
   59.9882   28.0261   46.2064 H   0  0  0  0  0  0  0  0  0  0  0  0
   59.4335   25.8069   47.1909 H   0  0  0  0  0  0  0  0  0  0  0  0
   57.1033   24.9316   47.0818 H   0  0  0  0  0  0  0  0  0  0  0  0
   56.3465   23.4492   44.6763 H   0  0  0  0  0  0  0  0  0  0  0  0
   54.8661   23.3076   43.6688 H   0  0  0  0  0  0  0  0  0  0  0  0
   55.8097   24.8361   43.6688 H   0  0  0  0  0  0  0  0  0  0  0  0
   58.7988   31.3754   47.3921 H   0  0  0  0  0  0  0  0  0  0  0  0
   63.3184   33.9057   47.9285 H   0  0  0  0  0  0  0  0  0  0  0  0
   62.2856   32.8892   46.8671 H   0  0  0  0  0  0  0  0  0  0  0  0
   62.0901   34.6748   46.8671 H   0  0  0  0  0  0  0  0  0  0  0  0
  1  2  1  0
  2  3  2  0
  3  4  1  0
  4  5  1  0
  5  6  2  0
  6  7  1  0
  7  8  2  0
  8  9  1  0
  9 10  1  0
 10 11  1  0
 11 12  2  0
 11 13  1  0
 13 14  2  0
 14 15  1  0
 15 16  2  0
 16 17  1  0
 17 18  1  0
 18 19  1  0
 19 20  1  0
 19 21  2  0
 19 22  2  0
 17 23  2  0
 23 24  1  0
  9 25  2  0
  4 26  2  0
 26 27  1  0
 26 28  1  0
 28  2  1  0
 25  5  1  0
 23 13  1  0
  1 29  1  0
  1 30  1  0
  1 31  1  0
  6 32  1  0
  7 33  1  0
  8 34  1  0
 14 35  1  0
 15 36  1  0
 16 37  1  0
 20 38  1  0
 20 39  1  0
 20 40  1  0
 25 41  1  0
 27 42  1  0
 27 43  1  0
 27 44  1  0
M  CHG  3  10  -1  18  -1  28  -1
M  END
>  <UniqueID>  (90) 
85

>  <SMILES>  (90) 
Cc1nc(-c2cccc([N-]C(=O)c3cccc([N-]S(C)(=O)=O)c3F)c2)c(C)[n-]1

>  <Energy>  (90) 
81.38280597321234

>  <Genealogy>  (90) 
Cc1nc(-c2cccc([N-]C(=O)c3cccc([N-]S(C)(=O)=O)c3F)c2)c(C)[n-]1 (protonated)
Cc1nc(-c2cccc([N-]C(=O)c3cccc([N-]S(C)(=O)=O)c3F)c2)c(C)[n-]1 (3D coordinates assigned)
Cc1nc(-c2cccc([N-]C(=O)c3cccc([N-]S(C)(=O)=O)c3F)c2)c(C)[n-]1 (optimized conformer: 81.38280597321234 kcal/mol)

>  <smiles>  (90) 
Cc1nc(-c2cccc(NC(=O)c3cccc(NS(C)(=O)=O)c3F)c2)c(C)[nH]1

>  <score_type>  (90) 
oracle

>  <origin>  (90) 
adg

>  <m_score__min__energy>  (90) 
-13.789999999999999

>  <m_primary>  (90) 
energy

$$$$
90:0
     RDKit          3D

 49 52  0  0  0  0  0  0  0  0999 V2000
   56.6572   21.8184   47.8274 H   0  0  0  0  0  0  0  0  0  0  0  0
   56.6660   22.8040   47.3390 C   0  0  0  0  0  0  0  0  0  0  0  0
   57.0590   23.9360   48.0570 C   0  0  0  0  0  0  0  0  0  0  0  0
   57.3516   23.8423   49.1132 H   0  0  0  0  0  0  0  0  0  0  0  0
   57.0810   25.1880   47.4350 C   0  0  0  0  0  0  0  0  0  0  0  0
   57.3787   26.0789   48.0075 H   0  0  0  0  0  0  0  0  0  0  0  0
   56.7240   25.3130   46.0800 C   0  0  0  0  0  0  0  0  0  0  0  0
   56.7050   26.5940   45.4300 N   0  0  0  0  0  0  0  0  0  0  0  0
   55.8220   26.8510   44.9360 H   0  0  0  0  0  0  0  0  0  0  0  0
   57.8070   27.5220   45.4260 C   0  0  0  0  0  0  0  0  0  0  0  0
   59.3450   26.9950   45.6770 S   0  0  0  0  0  0  0  0  0  0  0  0
   57.5940   28.9510   45.1110 C   0  0  0  0  0  0  0  0  0  0  0  0
   58.8300   30.0900   44.9420 S   0  0  0  0  0  0  0  0  0  0  0  0
   57.7690   31.3500   44.6230 C   0  0  0  0  0  0  0  0  0  0  0  0
   58.1550   32.5620   44.3550 N   0  0  0  0  0  0  0  0  0  0  0  0
   58.7800   33.4800   45.2680 C   0  0  0  0  0  0  0  0  0  0  0  0
   59.0690   34.8100   44.9090 C   0  0  0  0  0  0  0  0  0  0  0  0
   58.8361   35.1673   43.8950 H   0  0  0  0  0  0  0  0  0  0  0  0
   59.6510   35.6780   45.8370 C   0  0  0  0  0  0  0  0  0  0  0  0
   59.8844   36.7135   45.5483 H   0  0  0  0  0  0  0  0  0  0  0  0
   59.9370   35.2340   47.1300 C   0  0  0  0  0  0  0  0  0  0  0  0
   60.3971   35.9197   47.8567 H   0  0  0  0  0  0  0  0  0  0  0  0
   59.6390   33.9170   47.5030 C   0  0  0  0  0  0  0  0  0  0  0  0
   59.9730   33.3620   49.1440 S   0  0  0  0  0  0  0  0  0  0  0  0
   59.6430   34.4700   50.1060 O   0  0  0  0  0  0  0  0  0  0  0  0
   59.0680   32.2040   49.4580 O   0  0  0  0  0  0  0  0  0  0  0  0
   61.6370   32.8720   49.3840 N   0  0  0  0  0  0  0  0  0  0  0  0
   62.6170   33.8960   48.9750 C   0  0  0  0  0  0  0  0  0  0  0  0
   62.1596   34.8891   49.0953 H   0  0  0  0  0  0  0  0  0  0  0  0
   63.5063   33.7787   49.6116 H   0  0  0  0  0  0  0  0  0  0  0  0
   63.0660   33.7350   47.5150 C   0  0  0  0  0  0  0  0  0  0  0  0
   62.2177   33.9552   46.8503 H   0  0  0  0  0  0  0  0  0  0  0  0
   63.8945   34.4323   47.3216 H   0  0  0  0  0  0  0  0  0  0  0  0
   63.5150   32.4200   47.2720 O   0  0  0  0  0  0  0  0  0  0  0  0
   62.4330   31.5290   47.4230 C   0  0  0  0  0  0  0  0  0  0  0  0
   61.6127   31.8426   46.7606 H   0  0  0  0  0  0  0  0  0  0  0  0
   62.7718   30.5159   47.1605 H   0  0  0  0  0  0  0  0  0  0  0  0
   61.9320   31.5190   48.8740 C   0  0  0  0  0  0  0  0  0  0  0  0
   61.0136   30.9157   48.9250 H   0  0  0  0  0  0  0  0  0  0  0  0
   62.7322   31.0956   49.4989 H   0  0  0  0  0  0  0  0  0  0  0  0
   59.0380   33.0530   46.5760 C   0  0  0  0  0  0  0  0  0  0  0  0
   58.7670   32.0310   46.8794 H   0  0  0  0  0  0  0  0  0  0  0  0
   56.4820   30.9380   44.6110 N   0  0  0  0  0  0  0  0  0  0  0  0
   56.3810   29.6100   44.8830 C   0  0  0  0  0  0  0  0  0  0  0  0
   55.1480   28.9730   44.8830 O   0  0  0  0  0  0  0  0  0  0  0  0
   56.3040   24.1740   45.3750 C   0  0  0  0  0  0  0  0  0  0  0  0
   55.9890   24.2658   44.3251 H   0  0  0  0  0  0  0  0  0  0  0  0
   56.2840   22.9240   46.0000 C   0  0  0  0  0  0  0  0  0  0  0  0
   55.9672   22.0335   45.4373 H   0  0  0  0  0  0  0  0  0  0  0  0
  1  2  1  0
  2  3  2  0
  3  4  1  0
  3  5  1  0
  5  6  1  0
  5  7  2  0
  7  8  1  0
  8  9  1  0
  8 10  1  0
 10 11  2  0
 10 12  1  0
 12 13  1  0
 13 14  1  0
 14 15  2  0
 15 16  1  0
 16 17  2  0
 17 18  1  0
 17 19  1  0
 19 20  1  0
 19 21  2  0
 21 22  1  0
 21 23  1  0
 23 24  1  0
 24 25  2  0
 24 26  2  0
 24 27  1  0
 27 28  1  0
 28 29  1  0
 28 30  1  0
 28 31  1  0
 31 32  1  0
 31 33  1  0
 31 34  1  0
 34 35  1  0
 35 36  1  0
 35 37  1  0
 35 38  1  0
 38 39  1  0
 38 40  1  0
 23 41  2  0
 41 42  1  0
 14 43  1  0
 43 44  1  0
 44 45  1  0
  7 46  1  0
 46 47  1  0
 46 48  2  0
 48 49  1  0
 48  2  1  0
 44 12  2  0
 41 16  1  0
 38 27  1  0
M  CHG  2  43  -1  45  -1
M  END
>  <UniqueID>  (91) 
86

>  <SMILES>  (91) 
O=S(=O)(c1cccc(/N=c2\[n-]c([O-])c(C(=S)Nc3ccccc3)s2)c1)N1CCOCC1

>  <Energy>  (91) 
103.69516612169564

>  <Genealogy>  (91) 
O=S(=O)(c1cccc(N=c2[n-]c([O-])c(C(=S)Nc3ccccc3)s2)c1)N1CCOCC1 (protonated)
O=S(=O)(c1cccc(/N=c2\[n-]c([O-])c(C(=S)Nc3ccccc3)s2)c1)N1CCOCC1 (cis-trans isomerization)
O=S(=O)(c1cccc(/N=c2\[n-]c([O-])c(C(=S)Nc3ccccc3)s2)c1)N1CCOCC1 (3D coordinates assigned)
O=S(=O)(c1cccc(/N=c2\[n-]c([O-])c(C(=S)Nc3ccccc3)s2)c1)N1CCOCC1 (nonaromatic ring conformer: 103.69516612169564 kcal/mol)

>  <smiles>  (91) 
O=S(=O)(c1cccc(N=c2[nH]c(O)c(C(=S)Nc3ccccc3)s2)c1)N1CCOCC1

>  <score_type>  (91) 
oracle

>  <origin>  (91) 
adg

>  <m_score__min__energy>  (91) 
-14.65

>  <m_primary>  (91) 
energy

$$$$
91:0
     RDKit          3D

 38 40  0  0  0  0  0  0  0  0999 V2000
   57.3780   28.6160   43.6870 C   0  0  0  0  0  0  0  0  0  0  0  0
   57.7800   28.1040   44.8610 C   0  0  0  0  0  0  0  0  0  0  0  0
   57.7170   26.7630   45.2770 C   0  0  0  0  0  0  0  0  0  0  0  0
   57.3910   25.6390   44.6080 C   0  0  0  0  0  0  0  0  0  0  0  0
   56.1900   24.8160   44.8450 C   0  0  0  0  0  0  0  0  0  0  0  0
   55.1020   25.2870   45.6100 C   0  0  0  0  0  0  0  0  0  0  0  0
   55.1040   26.5540   46.1940 O   0  0  0  0  0  0  0  0  0  0  0  0
   54.0120   24.4950   45.7830 N   0  0  0  0  0  0  0  0  0  0  0  0
   53.9400   23.2620   45.2200 C   0  0  0  0  0  0  0  0  0  0  0  0
   52.9190   22.5490   45.4000 O   0  0  0  0  0  0  0  0  0  0  0  0
   54.9630   22.8000   44.4590 N   0  0  0  0  0  0  0  0  0  0  0  0
   56.0780   23.5470   44.2540 C   0  0  0  0  0  0  0  0  0  0  0  0
   57.0080   23.0860   43.5390 O   0  0  0  0  0  0  0  0  0  0  0  0
   58.0950   26.7520   46.6090 C   0  0  0  0  0  0  0  0  0  0  0  0
   58.4180   28.0500   46.9470 C   0  0  0  0  0  0  0  0  0  0  0  0
   58.8900   28.4850   48.3010 C   0  0  0  0  0  0  0  0  0  0  0  0
   58.2260   28.8700   45.8910 N   0  0  0  0  0  0  0  0  0  0  0  0
   58.4520   30.2920   45.8840 C   0  0  0  0  0  0  0  0  0  0  0  0
   59.6060   30.8240   46.4740 C   0  0  0  0  0  0  0  0  0  0  0  0
   59.8260   32.2050   46.4770 C   0  0  0  0  0  0  0  0  0  0  0  0
   58.8910   33.0750   45.8910 C   0  0  0  0  0  0  0  0  0  0  0  0
   59.1250   34.5360   45.8950 C   0  0  0  0  0  0  0  0  0  0  0  0
   58.9570   35.2150   44.8480 O   0  0  0  0  0  0  0  0  0  0  0  0
   59.5350   35.1800   47.0570 O   0  0  0  0  0  0  0  0  0  0  0  0
   57.7330   32.5360   45.3000 C   0  0  0  0  0  0  0  0  0  0  0  0
   57.5170   31.1560   45.2980 C   0  0  0  0  0  0  0  0  0  0  0  0
   57.4864   29.6929   43.4906 H   0  0  0  0  0  0  0  0  0  0  0  0
   56.9402   27.9587   42.9213 H   0  0  0  0  0  0  0  0  0  0  0  0
   58.0799   25.3070   43.8173 H   0  0  0  0  0  0  0  0  0  0  0  0
   54.7660   26.7280   47.1330 H   0  0  0  0  0  0  0  0  0  0  0  0
   58.1309   25.8749   47.2718 H   0  0  0  0  0  0  0  0  0  0  0  0
   58.3164   27.9564   49.0766 H   0  0  0  0  0  0  0  0  0  0  0  0
   59.9587   28.2485   48.4102 H   0  0  0  0  0  0  0  0  0  0  0  0
   58.7414   29.5694   48.4102 H   0  0  0  0  0  0  0  0  0  0  0  0
   60.3431   30.1517   46.9374 H   0  0  0  0  0  0  0  0  0  0  0  0
   60.7363   32.6126   46.9408 H   0  0  0  0  0  0  0  0  0  0  0  0
   56.9934   33.2057   44.8368 H   0  0  0  0  0  0  0  0  0  0  0  0
   56.6082   30.7452   44.8340 H   0  0  0  0  0  0  0  0  0  0  0  0
  1  2  2  0
  2  3  1  0
  3  4  2  3
  4  5  1  0
  5  6  2  0
  6  7  1  0
  6  8  1  0
  8  9  1  0
  9 10  2  0
  9 11  1  0
 11 12  1  0
 12 13  2  0
  3 14  1  0
 14 15  2  0
 15 16  1  0
 15 17  1  0
 17 18  1  0
 18 19  2  0
 19 20  1  0
 20 21  2  0
 21 22  1  0
 22 23  2  0
 22 24  1  0
 21 25  1  0
 25 26  2  0
 17  2  1  0
 26 18  1  0
 12  5  1  0
  1 27  1  0
  1 28  1  0
  4 29  1  0
  7 30  1  0
 14 31  1  0
 16 32  1  0
 16 33  1  0
 16 34  1  0
 19 35  1  0
 20 36  1  0
 25 37  1  0
 26 38  1  0
M  CHG  3   8  -1  11  -1  24  -1
M  END
>  <UniqueID>  (92) 
87

>  <SMILES>  (92) 
C=c1c(=Cc2c(O)[n-]c(=O)[n-]c2=O)cc(C)n1-c1ccc(C(=O)[O-])cc1

>  <Energy>  (92) 
90.70437775600274

>  <Genealogy>  (92) 
C=c1c(=Cc2c(O)[n-]c(=O)[n-]c2=O)cc(C)n1-c1ccc(C(=O)[O-])cc1 (protonated)
C=c1c(=Cc2c(O)[n-]c(=O)[n-]c2=O)cc(C)n1-c1ccc(C(=O)[O-])cc1 (3D coordinates assigned)
C=c1c(=Cc2c(O)[n-]c(=O)[n-]c2=O)cc(C)n1-c1ccc(C(=O)[O-])cc1 (optimized conformer: 90.70437775600274 kcal/mol)

>  <smiles>  (92) 
C=c1c(=Cc2c(O)[nH]c(=O)[nH]c2=O)cc(C)n1-c1ccc(C(=O)O)cc1

>  <score_type>  (92) 
oracle

>  <origin>  (92) 
adg

>  <m_score__min__energy>  (92) 
-13.59

>  <m_primary>  (92) 
energy

$$$$
