0:0
     RDKit          3D

 51 54  0  0  0  0  0  0  0  0999 V2000
   54.7100   26.1690   45.9820 N   0  0  0  0  0  0  0  0  0  0  0  0
   56.2770   25.4470   46.0760 S   0  0  0  0  0  0  0  0  0  0  0  0
   56.2870   24.1580   45.3030 O   0  0  0  0  0  0  0  0  0  0  0  0
   56.6070   25.1510   47.5130 O   0  0  0  0  0  0  0  0  0  0  0  0
   57.4660   26.5540   45.4010 C   0  0  0  0  0  0  0  0  0  0  0  0
   57.7680   26.5200   44.0330 C   0  0  0  0  0  0  0  0  0  0  0  0
   58.7300   27.3810   43.5040 C   0  0  0  0  0  0  0  0  0  0  0  0
   59.4050   28.2770   44.3390 C   0  0  0  0  0  0  0  0  0  0  0  0
   59.1200   28.3210   45.7150 C   0  0  0  0  0  0  0  0  0  0  0  0
   59.8410   29.2650   46.6040 C   0  0  0  0  0  0  0  0  0  0  0  0
   61.0560   29.8420   46.1960 C   0  0  0  0  0  0  0  0  0  0  0  0
   61.7390   30.7250   47.0360 C   0  0  0  0  0  0  0  0  0  0  0  0
   61.2290   31.0310   48.3090 C   0  0  0  0  0  0  0  0  0  0  0  0
   61.9070   31.9380   49.1910 N   0  0  0  0  0  0  0  0  0  0  0  0
   61.5860   33.3230   49.3740 C   0  0  0  0  0  0  0  0  0  0  0  0
   62.1480   33.9640   50.2990 O   0  0  0  0  0  0  0  0  0  0  0  0
   60.6500   34.0280   48.4820 C   0  0  0  0  0  0  0  0  0  0  0  0
   60.6000   33.9520   47.1040 C   0  0  0  0  0  0  0  0  0  0  0  0
   59.5480   34.7760   46.7860 C   0  0  0  0  0  0  0  0  0  0  0  0
   59.0800   35.0040   45.4890 O   0  0  0  0  0  0  0  0  0  0  0  0
   58.1410   34.1510   44.8370 C   0  0  0  0  0  0  0  0  0  0  0  0
   58.1800   32.7400   45.4340 C   0  0  0  0  0  0  0  0  0  0  0  0
   57.4860   31.7410   44.5500 C   0  0  0  0  0  0  0  0  0  0  0  0
   57.6020   31.8140   43.1530 C   0  0  0  0  0  0  0  0  0  0  0  0
   56.9750   30.8470   42.3630 C   0  0  0  0  0  0  0  0  0  0  0  0
   56.2520   29.8170   42.9670 C   0  0  0  0  0  0  0  0  0  0  0  0
   56.1640   29.7720   44.3610 C   0  0  0  0  0  0  0  0  0  0  0  0
   56.7790   30.7230   45.1140 N   0  0  0  0  0  0  0  0  0  0  0  0
   59.0220   35.3190   47.9000 N   0  0  0  0  0  0  0  0  0  0  0  0
   59.7130   34.8510   48.8990 O   0  0  0  0  0  0  0  0  0  0  0  0
   60.0080   30.4800   48.7070 C   0  0  0  0  0  0  0  0  0  0  0  0
   59.3220   29.5970   47.8680 C   0  0  0  0  0  0  0  0  0  0  0  0
   58.1440   27.4510   46.2380 C   0  0  0  0  0  0  0  0  0  0  0  0
   54.7680   27.0940   46.4660 H   0  0  0  0  0  0  0  0  0  0  0  0
   57.2446   25.8118   43.3738 H   0  0  0  0  0  0  0  0  0  0  0  0
   58.9579   27.3550   42.4282 H   0  0  0  0  0  0  0  0  0  0  0  0
   60.1640   28.9518   43.9164 H   0  0  0  0  0  0  0  0  0  0  0  0
   61.4722   29.5965   45.2078 H   0  0  0  0  0  0  0  0  0  0  0  0
   62.6807   31.1830   46.6991 H   0  0  0  0  0  0  0  0  0  0  0  0
   61.2450   33.3731   46.4266 H   0  0  0  0  0  0  0  0  0  0  0  0
   57.1301   34.5668   44.9604 H   0  0  0  0  0  0  0  0  0  0  0  0
   58.4027   34.0894   43.7704 H   0  0  0  0  0  0  0  0  0  0  0  0
   59.2295   32.4355   45.5601 H   0  0  0  0  0  0  0  0  0  0  0  0
   57.6564   32.7630   46.4011 H   0  0  0  0  0  0  0  0  0  0  0  0
   58.1805   32.6241   42.6850 H   0  0  0  0  0  0  0  0  0  0  0  0
   57.0510   30.8973   41.2668 H   0  0  0  0  0  0  0  0  0  0  0  0
   55.7574   29.0499   42.3531 H   0  0  0  0  0  0  0  0  0  0  0  0
   55.5966   28.9664   44.8498 H   0  0  0  0  0  0  0  0  0  0  0  0
   59.5838   30.7429   49.6873 H   0  0  0  0  0  0  0  0  0  0  0  0
   58.3690   29.1586   48.1991 H   0  0  0  0  0  0  0  0  0  0  0  0
   57.9116   27.4755   47.3129 H   0  0  0  0  0  0  0  0  0  0  0  0
  1  2  1  0
  2  3  2  0
  2  4  2  0
  2  5  1  0
  5  6  2  0
  6  7  1  0
  7  8  2  0
  8  9  1  0
  9 10  1  0
 10 11  2  0
 11 12  1  0
 12 13  2  0
 13 14  1  0
 14 15  1  0
 15 16  2  0
 15 17  1  0
 17 18  2  0
 18 19  1  0
 19 20  1  0
 20 21  1  0
 21 22  1  0
 22 23  1  0
 23 24  2  0
 24 25  1  0
 25 26  2  0
 26 27  1  0
 27 28  2  0
 19 29  2  0
 29 30  1  0
 13 31  1  0
 31 32  2  0
  9 33  2  0
 33  5  1  0
 32 10  1  0
 30 17  1  0
 28 23  1  0
  1 34  1  0
  6 35  1  0
  7 36  1  0
  8 37  1  0
 11 38  1  0
 12 39  1  0
 18 40  1  0
 21 41  1  0
 21 42  1  0
 22 43  1  0
 22 44  1  0
 24 45  1  0
 25 46  1  0
 26 47  1  0
 27 48  1  0
 31 49  1  0
 32 50  1  0
 33 51  1  0
M  CHG  2   1  -1  14  -1
M  END
>  <UniqueID>  (1) 
1

>  <SMILES>  (1) 
[NH-]S(=O)(=O)c1cccc(-c2ccc([N-]C(=O)c3cc(OCCc4ccccn4)no3)cc2)c1

>  <Energy>  (1) 
90.97601163797324

>  <Genealogy>  (1) 
[NH-]S(=O)(=O)c1cccc(-c2ccc([N-]C(=O)c3cc(OCCc4ccccn4)no3)cc2)c1 (protonated)
[NH-]S(=O)(=O)c1cccc(-c2ccc([N-]C(=O)c3cc(OCCc4ccccn4)no3)cc2)c1 (3D coordinates assigned)
[NH-]S(=O)(=O)c1cccc(-c2ccc([N-]C(=O)c3cc(OCCc4ccccn4)no3)cc2)c1 (optimized conformer: 90.97601163797324 kcal/mol)

>  <smiles>  (1) 
NS(=O)(=O)c1cccc(-c2ccc(NC(=O)c3cc(OCCc4ccccn4)no3)cc2)c1

>  <score_type>  (1) 
oracle

>  <origin>  (1) 
adg

>  <m_score__min__energy>  (1) 
-13.619999999999999

>  <m_primary>  (1) 
energy

$$$$
1:0
     RDKit          3D

 75 79  0  0  0  0  0  0  0  0999 V2000
   52.9780   29.8260   51.8410 C   0  0  0  0  0  0  0  0  0  0  0  0
   53.9910   29.2690   52.8430 C   0  0  0  0  0  0  0  0  0  0  0  0
   55.0620   30.2480   53.1310 N   0  0  0  0  0  0  0  0  0  0  0  0
   55.2320   31.2190   52.0160 C   0  0  0  0  0  0  0  0  0  0  0  0
   56.6510   31.7900   51.9380 C   0  0  0  0  0  0  0  0  0  0  0  0
   57.6120   30.6930   51.7760 N   0  0  0  0  0  0  0  0  0  0  0  0
   58.8240   30.8870   51.0180 C   0  0  0  0  0  0  0  0  0  0  0  0
   59.6970   31.9420   51.3220 C   0  0  0  0  0  0  0  0  0  0  0  0
   60.8130   32.1440   50.5760 N   0  0  0  0  0  0  0  0  0  0  0  0
   61.1380   31.3490   49.5200 C   0  0  0  0  0  0  0  0  0  0  0  0
   62.2010   31.5960   48.8130 N   0  0  0  0  0  0  0  0  0  0  0  0
   62.3730   32.9410   47.7270 S   0  0  0  0  0  0  0  0  0  0  0  0
   62.7810   34.1530   48.5160 O   0  0  0  0  0  0  0  0  0  0  0  0
   63.4470   32.6630   46.7120 O   0  0  0  0  0  0  0  0  0  0  0  0
   60.8380   33.2450   46.9190 C   0  0  0  0  0  0  0  0  0  0  0  0
   60.3640   34.5520   46.7840 C   0  0  0  0  0  0  0  0  0  0  0  0
   59.1600   34.8000   46.1250 C   0  0  0  0  0  0  0  0  0  0  0  0
   58.4090   33.7430   45.5820 C   0  0  0  0  0  0  0  0  0  0  0  0
   57.1270   34.0630   44.8580 C   0  0  0  0  0  0  0  0  0  0  0  0
   58.8710   32.4120   45.7360 C   0  0  0  0  0  0  0  0  0  0  0  0
   58.0920   31.2480   45.2490 C   0  0  0  0  0  0  0  0  0  0  0  0
   57.5470   31.2340   43.9590 C   0  0  0  0  0  0  0  0  0  0  0  0
   56.8500   30.1030   43.5400 C   0  0  0  0  0  0  0  0  0  0  0  0
   56.7180   29.0410   44.3760 N   0  0  0  0  0  0  0  0  0  0  0  0
   57.2610   29.0570   45.6250 C   0  0  0  0  0  0  0  0  0  0  0  0
   57.1250   28.0480   46.4350 N   0  0  0  0  0  0  0  0  0  0  0  0
   57.4470   26.6720   46.1630 C   0  0  0  0  0  0  0  0  0  0  0  0
   56.4760   25.7520   45.7250 C   0  0  0  0  0  0  0  0  0  0  0  0
   56.8390   24.4370   45.4220 C   0  0  0  0  0  0  0  0  0  0  0  0
   58.1740   24.0290   45.5330 C   0  0  0  0  0  0  0  0  0  0  0  0
   58.6370   22.3800   45.1230 S   0  0  0  0  0  0  0  0  0  0  0  0
   60.3460   22.1960   45.3010 N   0  0  0  0  0  0  0  0  0  0  0  0
   57.9310   21.4130   46.0310 O   0  0  0  0  0  0  0  0  0  0  0  0
   58.2480   22.0770   43.7020 O   0  0  0  0  0  0  0  0  0  0  0  0
   59.1480   24.9530   45.9320 C   0  0  0  0  0  0  0  0  0  0  0  0
   58.7850   26.2680   46.2360 C   0  0  0  0  0  0  0  0  0  0  0  0
   57.9300   30.1600   46.0510 N   0  0  0  0  0  0  0  0  0  0  0  0
   60.0940   32.1820   46.3950 C   0  0  0  0  0  0  0  0  0  0  0  0
   60.3100   30.2590   49.1920 C   0  0  0  0  0  0  0  0  0  0  0  0
   60.6270   29.3630   48.0240 C   0  0  0  0  0  0  0  0  0  0  0  0
   59.1490   30.0390   49.9480 C   0  0  0  0  0  0  0  0  0  0  0  0
   57.3190   29.3960   52.3970 C   0  0  0  0  0  0  0  0  0  0  0  0
   56.3180   29.5700   53.5480 C   0  0  0  0  0  0  0  0  0  0  0  0
   52.1400   30.2868   52.3845 H   0  0  0  0  0  0  0  0  0  0  0  0
   53.4656   30.5829   51.2090 H   0  0  0  0  0  0  0  0  0  0  0  0
   52.6001   29.0088   51.2090 H   0  0  0  0  0  0  0  0  0  0  0  0
   53.4694   29.0237   53.7799 H   0  0  0  0  0  0  0  0  0  0  0  0
   54.4521   28.3713   52.4053 H   0  0  0  0  0  0  0  0  0  0  0  0
   55.0057   30.7089   51.0681 H   0  0  0  0  0  0  0  0  0  0  0  0
   54.5464   32.0591   52.2008 H   0  0  0  0  0  0  0  0  0  0  0  0
   56.7249   32.4721   51.0782 H   0  0  0  0  0  0  0  0  0  0  0  0
   56.8759   32.3405   52.8634 H   0  0  0  0  0  0  0  0  0  0  0  0
   59.4763   32.6086   52.1687 H   0  0  0  0  0  0  0  0  0  0  0  0
   60.9431   35.3898   47.1995 H   0  0  0  0  0  0  0  0  0  0  0  0
   58.7945   35.8331   46.0292 H   0  0  0  0  0  0  0  0  0  0  0  0
   56.3315   34.2616   45.5913 H   0  0  0  0  0  0  0  0  0  0  0  0
   57.2743   34.9519   44.2271 H   0  0  0  0  0  0  0  0  0  0  0  0
   56.8393   33.2091   44.2271 H   0  0  0  0  0  0  0  0  0  0  0  0
   57.6669   32.0989   43.2900 H   0  0  0  0  0  0  0  0  0  0  0  0
   56.4072   30.0702   42.5336 H   0  0  0  0  0  0  0  0  0  0  0  0
   55.4279   26.0692   45.6208 H   0  0  0  0  0  0  0  0  0  0  0  0
   56.0725   23.7190   45.0948 H   0  0  0  0  0  0  0  0  0  0  0  0
   60.5460   21.1710   45.2880 H   0  0  0  0  0  0  0  0  0  0  0  0
   60.7880   22.6010   44.4460 H   0  0  0  0  0  0  0  0  0  0  0  0
   60.2008   24.6431   46.0063 H   0  0  0  0  0  0  0  0  0  0  0  0
   59.5575   26.9916   46.5352 H   0  0  0  0  0  0  0  0  0  0  0  0
   60.4694   31.1533   46.4992 H   0  0  0  0  0  0  0  0  0  0  0  0
   60.9725   28.3865   48.3942 H   0  0  0  0  0  0  0  0  0  0  0  0
   59.7233   29.2244   47.4123 H   0  0  0  0  0  0  0  0  0  0  0  0
   61.4168   29.8236   47.4123 H   0  0  0  0  0  0  0  0  0  0  0  0
   58.4882   29.1952   49.7002 H   0  0  0  0  0  0  0  0  0  0  0  0
   56.8899   28.7209   51.6419 H   0  0  0  0  0  0  0  0  0  0  0  0
   58.2521   28.9713   52.7956 H   0  0  0  0  0  0  0  0  0  0  0  0
   56.0642   28.5759   53.9446 H   0  0  0  0  0  0  0  0  0  0  0  0
   56.7977   30.2058   54.3067 H   0  0  0  0  0  0  0  0  0  0  0  0
  1  2  1  0
  2  3  1  0
  3  4  1  0
  4  5  1  0
  5  6  1  0
  6  7  1  0
  7  8  2  0
  8  9  1  0
  9 10  1  0
 10 11  2  3
 11 12  1  0
 12 13  2  0
 12 14  2  0
 12 15  1  0
 15 16  2  0
 16 17  1  0
 17 18  2  0
 18 19  1  0
 18 20  1  0
 20 21  1  0
 21 22  1  0
 22 23  2  0
 23 24  1  0
 24 25  1  0
 25 26  2  3
 26 27  1  0
 27 28  2  0
 28 29  1  0
 29 30  2  0
 30 31  1  0
 31 32  1  0
 31 33  2  0
 31 34  2  0
 30 35  1  0
 35 36  2  0
 25 37  1  0
 20 38  2  0
 10 39  1  0
 39 40  1  0
 39 41  2  0
  6 42  1  0
 42 43  1  0
 43  3  1  0
 41  7  1  0
 38 15  1  0
 37 21  2  0
 36 27  1  0
  1 44  1  0
  1 45  1  0
  1 46  1  0
  2 47  1  0
  2 48  1  0
  4 49  1  0
  4 50  1  0
  5 51  1  0
  5 52  1  0
  8 53  1  0
 16 54  1  0
 17 55  1  0
 19 56  1  0
 19 57  1  0
 19 58  1  0
 22 59  1  0
 23 60  1  0
 28 61  1  0
 29 62  1  0
 32 63  1  0
 32 64  1  0
 35 65  1  0
 36 66  1  0
 38 67  1  0
 40 68  1  0
 40 69  1  0
 40 70  1  0
 41 71  1  0
 42 72  1  0
 42 73  1  0
 43 74  1  0
 43 75  1  0
M  CHG  2   9  -1  24  -1
M  END
>  <UniqueID>  (2) 
2

>  <SMILES>  (2) 
CCN1CCN(c2c[n-]c(=NS(=O)(=O)c3ccc(C)c(-c4cc[n-]c(=Nc5ccc(S(N)(=O)=O)cc5)n4)c3)c(C)c2)CC1

>  <Energy>  (2) 
105.79011587324266

>  <Genealogy>  (2) 
CCN1CCN(c2c[n-]c(=NS(=O)(=O)c3ccc(C)c(-c4cc[n-]c(=Nc5ccc(S(N)(=O)=O)cc5)n4)c3)c(C)c2)CC1 (protonated)
CCN1CCN(c2c[n-]c(=NS(=O)(=O)c3ccc(C)c(-c4cc[n-]c(=Nc5ccc(S(N)(=O)=O)cc5)n4)c3)c(C)c2)CC1 (3D coordinates assigned)
CCN1CCN(c2c[n-]c(=NS(=O)(=O)c3ccc(C)c(-c4cc[n-]c(=Nc5ccc(S(N)(=O)=O)cc5)n4)c3)c(C)c2)CC1 (nonaromatic ring conformer: 105.79011587324266 kcal/mol)

>  <smiles>  (2) 
CCN1CCN(c2c[nH]c(=NS(=O)(=O)c3ccc(C)c(-c4cc[nH]c(=Nc5ccc(S(N)(=O)=O)cc5)n4)c3)c(C)c2)CC1

>  <score_type>  (2) 
oracle

>  <origin>  (2) 
adg

>  <m_score__min__energy>  (2) 
-14.18

>  <m_primary>  (2) 
energy

$$$$
2:0
     RDKit          3D

 43 45  0  0  0  0  0  0  0  0999 V2000
   59.4419   34.8997   43.9406 H   0  0  0  0  0  0  0  0  0  0  0  0
   59.1740   34.4110   44.8890 C   0  0  0  0  0  0  0  0  0  0  0  0
   59.4300   34.9710   46.1000 N   0  0  0  0  0  0  0  0  0  0  0  0
   59.0280   34.1680   47.1120 C   0  0  0  0  0  0  0  0  0  0  0  0
   59.1250   34.4760   48.3720 N   0  0  0  0  0  0  0  0  0  0  0  0
   59.9040   33.7700   49.3490 C   0  0  0  0  0  0  0  0  0  0  0  0
   61.0970   34.1210   49.5400 O   0  0  0  0  0  0  0  0  0  0  0  0
   59.3330   32.6960   50.1830 C   0  0  0  0  0  0  0  0  0  0  0  0
   58.4780   32.9650   51.0700 O   0  0  0  0  0  0  0  0  0  0  0  0
   59.7830   31.3510   50.0060 N   0  0  0  0  0  0  0  0  0  0  0  0
   59.6900   30.6460   48.7330 C   0  0  0  0  0  0  0  0  0  0  0  0
   59.0752   29.7430   48.8623 H   0  0  0  0  0  0  0  0  0  0  0  0
   59.2297   31.3117   47.9880 H   0  0  0  0  0  0  0  0  0  0  0  0
   61.0820   30.2430   48.2470 C   0  0  0  0  0  0  0  0  0  0  0  0
   61.5448   29.5814   48.9941 H   0  0  0  0  0  0  0  0  0  0  0  0
   60.9766   29.7262   47.2817 H   0  0  0  0  0  0  0  0  0  0  0  0
   61.9630   31.4500   48.0470 C   0  0  0  0  0  0  0  0  0  0  0  0
   63.0650   31.6690   48.8910 C   0  0  0  0  0  0  0  0  0  0  0  0
   63.2704   30.9712   49.7162 H   0  0  0  0  0  0  0  0  0  0  0  0
   63.9010   32.7700   48.6860 C   0  0  0  0  0  0  0  0  0  0  0  0
   64.7587   32.9399   49.3534 H   0  0  0  0  0  0  0  0  0  0  0  0
   63.6490   33.6560   47.6340 C   0  0  0  0  0  0  0  0  0  0  0  0
   64.3063   34.5237   47.4755 H   0  0  0  0  0  0  0  0  0  0  0  0
   62.5610   33.4380   46.7840 C   0  0  0  0  0  0  0  0  0  0  0  0
   62.3645   34.1337   45.9549 H   0  0  0  0  0  0  0  0  0  0  0  0
   61.7220   32.3380   46.9850 C   0  0  0  0  0  0  0  0  0  0  0  0
   60.8706   32.1671   46.3098 H   0  0  0  0  0  0  0  0  0  0  0  0
   58.3250   32.7470   46.5580 S   0  0  0  0  0  0  0  0  0  0  0  0
   58.5460   33.1700   44.9430 C   0  0  0  0  0  0  0  0  0  0  0  0
   58.2140   32.3050   43.7700 C   0  0  0  0  0  0  0  0  0  0  0  0
   57.5569   32.8591   43.0836 H   0  0  0  0  0  0  0  0  0  0  0  0
   59.1442   32.0259   43.2534 H   0  0  0  0  0  0  0  0  0  0  0  0
   57.5130   31.0570   44.2310 C   0  0  0  0  0  0  0  0  0  0  0  0
   58.1820   30.1280   45.0450 C   0  0  0  0  0  0  0  0  0  0  0  0
   59.2325   30.2995   45.3225 H   0  0  0  0  0  0  0  0  0  0  0  0
   57.5180   28.9860   45.5040 C   0  0  0  0  0  0  0  0  0  0  0  0
   58.0488   28.2584   46.1356 H   0  0  0  0  0  0  0  0  0  0  0  0
   56.1800   28.7680   45.1610 C   0  0  0  0  0  0  0  0  0  0  0  0
   55.5210   27.6340   45.6180 O   0  0  0  0  0  0  0  0  0  0  0  0
   55.5040   29.6960   44.3620 C   0  0  0  0  0  0  0  0  0  0  0  0
   54.4505   29.5262   44.0951 H   0  0  0  0  0  0  0  0  0  0  0  0
   56.1650   30.8390   43.9020 C   0  0  0  0  0  0  0  0  0  0  0  0
   55.6274   31.5701   43.2803 H   0  0  0  0  0  0  0  0  0  0  0  0
  1  2  1  0
  2  3  1  0
  3  4  1  0
  4  5  2  0
  5  6  1  0
  6  7  2  0
  6  8  1  0
  8  9  2  0
  8 10  1  0
 10 11  1  0
 11 12  1  0
 11 13  1  0
 11 14  1  0
 14 15  1  0
 14 16  1  0
 14 17  1  0
 17 18  2  0
 18 19  1  0
 18 20  1  0
 20 21  1  0
 20 22  2  0
 22 23  1  0
 22 24  1  0
 24 25  1  0
 24 26  2  0
 26 27  1  0
  4 28  1  0
 28 29  1  0
 29 30  1  0
 30 31  1  0
 30 32  1  0
 30 33  1  0
 33 34  2  0
 34 35  1  0
 34 36  1  0
 36 37  1  0
 36 38  2  0
 38 39  1  0
 38 40  1  0
 40 41  1  0
 40 42  2  0
 42 43  1  0
 29  2  2  0
 42 33  1  0
 26 17  1  0
M  CHG  3   3  -1  10  -1  39  -1
M  END
>  <UniqueID>  (3) 
3

>  <SMILES>  (3) 
O=C(/N=c1\[n-]cc(Cc2ccc([O-])cc2)s1)C(=O)[N-]CCc1ccccc1

>  <Energy>  (3) 
73.81608387562802

>  <Genealogy>  (3) 
O=C(N=c1[n-]cc(Cc2ccc([O-])cc2)s1)C(=O)[N-]CCc1ccccc1 (protonated)
O=C(/N=c1\[n-]cc(Cc2ccc([O-])cc2)s1)C(=O)[N-]CCc1ccccc1 (cis-trans isomerization)
O=C(/N=c1\[n-]cc(Cc2ccc([O-])cc2)s1)C(=O)[N-]CCc1ccccc1 (3D coordinates assigned)
O=C(/N=c1\[n-]cc(Cc2ccc([O-])cc2)s1)C(=O)[N-]CCc1ccccc1 (optimized conformer: 73.81608387562802 kcal/mol)

>  <smiles>  (3) 
O=C(N=c1[nH]cc(Cc2ccc(O)cc2)s1)C(=O)NCCc1ccccc1

>  <score_type>  (3) 
oracle

>  <origin>  (3) 
adg

>  <m_score__min__energy>  (3) 
-13.619999999999999

>  <m_primary>  (3) 
energy

$$$$
3:0
     RDKit          3D

 72 75  0  0  0  0  0  0  0  0999 V2000
   62.5010   33.8320   46.7520 C   0  0  0  0  0  0  0  0  0  0  0  0
   61.6840   33.5090   48.0060 C   0  0  0  0  0  0  0  0  0  0  0  0
   60.6440   34.5940   48.3430 C   0  0  0  0  0  0  0  0  0  0  0  0
   59.7950   35.0470   47.1410 C   0  0  0  0  0  0  0  0  0  0  0  0
   59.0860   33.8890   46.4780 C   0  0  0  0  0  0  0  0  0  0  0  0
   58.4230   32.9270   47.2560 C   0  0  0  0  0  0  0  0  0  0  0  0
   57.8230   31.8160   46.6480 C   0  0  0  0  0  0  0  0  0  0  0  0
   57.8710   31.6550   45.2510 C   0  0  0  0  0  0  0  0  0  0  0  0
   57.3130   30.4570   44.5820 C   0  0  0  0  0  0  0  0  0  0  0  0
   56.0580   30.3710   44.4810 O   0  0  0  0  0  0  0  0  0  0  0  0
   58.1620   29.3680   44.1090 N   0  0  1  0  0  0  0  0  0  0  0  0
   59.6020   29.5710   44.4610 C   0  0  0  0  0  0  0  0  0  0  0  0
   59.9510   29.3900   45.9220 C   0  0  0  0  0  0  0  0  0  0  0  0
   59.7800   28.1490   46.5590 C   0  0  0  0  0  0  0  0  0  0  0  0
   60.0650   28.0080   47.9230 C   0  0  0  0  0  0  0  0  0  0  0  0
   60.5420   29.1010   48.6650 C   0  0  0  0  0  0  0  0  0  0  0  0
   60.7600   28.9950   50.1260 C   0  0  0  0  0  0  0  0  0  0  0  0
   61.7880   28.4070   50.5550 O   0  0  0  0  0  0  0  0  0  0  0  0
   59.8290   29.5390   51.0820 N   0  0  0  0  0  0  0  0  0  0  0  0
   59.4930   30.9280   51.2730 C   0  0  0  0  0  0  0  0  0  0  0  0
   58.1540   31.3450   51.3930 C   0  0  0  0  0  0  0  0  0  0  0  0
   57.8490   32.6950   51.6010 C   0  0  0  0  0  0  0  0  0  0  0  0
   58.8770   33.6380   51.6800 C   0  0  0  0  0  0  0  0  0  0  0  0
   60.2100   33.2400   51.5330 C   0  0  0  0  0  0  0  0  0  0  0  0
   60.5270   31.8900   51.3170 C   0  0  0  0  0  0  0  0  0  0  0  0
   61.8970   31.4990   51.1590 N   0  0  0  0  0  0  0  0  0  0  0  0
   60.8030   30.3170   48.0040 C   0  0  0  0  0  0  0  0  0  0  0  0
   60.5120   30.4570   46.6450 C   0  0  0  0  0  0  0  0  0  0  0  0
   57.5570   28.0180   44.3540 C   0  0  0  0  0  0  0  0  0  0  0  0
   58.5010   26.8510   43.9810 C   0  0  0  0  0  0  0  0  0  0  0  0
   57.7440   25.5040   43.9870 C   0  0  0  0  0  0  0  0  0  0  0  0
   56.6460   25.4480   44.9730 N   0  0  0  0  0  0  0  0  0  0  0  0
   56.9010   26.2930   46.1550 C   0  0  0  0  0  0  0  0  0  0  0  0
   56.9590   27.7910   45.7750 C   0  0  0  0  0  0  0  0  0  0  0  0
   58.5230   32.6320   44.4770 C   0  0  0  0  0  0  0  0  0  0  0  0
   59.1220   33.7370   45.0830 C   0  0  0  0  0  0  0  0  0  0  0  0
   63.4865   34.2216   47.0468 H   0  0  0  0  0  0  0  0  0  0  0  0
   62.6319   32.9180   46.1542 H   0  0  0  0  0  0  0  0  0  0  0  0
   61.9715   34.5884   46.1542 H   0  0  0  0  0  0  0  0  0  0  0  0
   61.1575   32.5566   47.8456 H   0  0  0  0  0  0  0  0  0  0  0  0
   62.3863   33.4529   48.8507 H   0  0  0  0  0  0  0  0  0  0  0  0
   59.9672   34.1961   49.1135 H   0  0  0  0  0  0  0  0  0  0  0  0
   61.2056   35.4760   48.6847 H   0  0  0  0  0  0  0  0  0  0  0  0
   59.0434   35.7703   47.4900 H   0  0  0  0  0  0  0  0  0  0  0  0
   60.4705   35.4998   46.4003 H   0  0  0  0  0  0  0  0  0  0  0  0
   58.3741   33.0458   48.3485 H   0  0  0  0  0  0  0  0  0  0  0  0
   57.3110   31.0647   47.2672 H   0  0  0  0  0  0  0  0  0  0  0  0
   58.1710   29.4400   43.0650 H   0  0  0  0  0  0  0  0  0  0  0  0
   60.1970   28.8513   43.8795 H   0  0  0  0  0  0  0  0  0  0  0  0
   59.8228   30.6230   44.2276 H   0  0  0  0  0  0  0  0  0  0  0  0
   59.4203   27.2836   45.9831 H   0  0  0  0  0  0  0  0  0  0  0  0
   59.9145   27.0361   48.4158 H   0  0  0  0  0  0  0  0  0  0  0  0
   57.3426   30.6056   51.3229 H   0  0  0  0  0  0  0  0  0  0  0  0
   56.8009   33.0134   51.7022 H   0  0  0  0  0  0  0  0  0  0  0  0
   58.6374   34.6967   51.8583 H   0  0  0  0  0  0  0  0  0  0  0  0
   61.0138   33.9890   51.5870 H   0  0  0  0  0  0  0  0  0  0  0  0
   62.6600   32.2060   51.0860 H   0  0  0  0  0  0  0  0  0  0  0  0
   62.1620   30.4970   51.0500 H   0  0  0  0  0  0  0  0  0  0  0  0
   61.2380   31.1603   48.5605 H   0  0  0  0  0  0  0  0  0  0  0  0
   60.7234   31.4094   46.1368 H   0  0  0  0  0  0  0  0  0  0  0  0
   56.7002   28.0179   43.6641 H   0  0  0  0  0  0  0  0  0  0  0  0
   58.9125   27.0281   42.9764 H   0  0  0  0  0  0  0  0  0  0  0  0
   59.3096   26.8023   44.7252 H   0  0  0  0  0  0  0  0  0  0  0  0
   57.3208   25.3383   42.9853 H   0  0  0  0  0  0  0  0  0  0  0  0
   58.4701   24.7268   44.2678 H   0  0  0  0  0  0  0  0  0  0  0  0
   55.7580   25.7700   44.5200 H   0  0  0  0  0  0  0  0  0  0  0  0
   56.0930   26.1400   46.8855 H   0  0  0  0  0  0  0  0  0  0  0  0
   57.8730   26.0062   46.5828 H   0  0  0  0  0  0  0  0  0  0  0  0
   55.9389   28.2018   45.7993 H   0  0  0  0  0  0  0  0  0  0  0  0
   57.6133   28.2970   46.5002 H   0  0  0  0  0  0  0  0  0  0  0  0
   58.5610   32.5238   43.3830 H   0  0  0  0  0  0  0  0  0  0  0  0
   59.6256   34.4938   44.4636 H   0  0  0  0  0  0  0  0  0  0  0  0
  1  2  1  0
  2  3  1  0
  3  4  1  0
  4  5  1  0
  5  6  2  0
  6  7  1  0
  7  8  2  0
  8  9  1  0
  9 10  2  0
  9 11  1  0
 11 12  1  0
 12 13  1  0
 13 14  2  0
 14 15  1  0
 15 16  2  0
 16 17  1  0
 17 18  2  0
 17 19  1  0
 19 20  1  0
 20 21  2  0
 21 22  1  0
 22 23  2  0
 23 24  1  0
 24 25  2  0
 25 26  1  0
 16 27  1  0
 27 28  2  0
 11 29  1  0
 29 30  1  0
 30 31  1  0
 31 32  1  0
 32 33  1  0
 33 34  1  0
  8 35  1  0
 35 36  2  0
 36  5  1  0
 28 13  1  0
 34 29  1  0
 25 20  1  0
  1 37  1  0
  1 38  1  0
  1 39  1  0
  2 40  1  0
  2 41  1  0
  3 42  1  0
  3 43  1  0
  4 44  1  0
  4 45  1  0
  6 46  1  0
  7 47  1  0
 11 48  1  6
 12 49  1  0
 12 50  1  0
 14 51  1  0
 15 52  1  0
 21 53  1  0
 22 54  1  0
 23 55  1  0
 24 56  1  0
 26 57  1  0
 26 58  1  0
 27 59  1  0
 28 60  1  0
 29 61  1  0
 30 62  1  0
 30 63  1  0
 31 64  1  0
 31 65  1  0
 32 66  1  0
 33 67  1  0
 33 68  1  0
 34 69  1  0
 34 70  1  0
 35 71  1  0
 36 72  1  0
M  CHG  2  11   1  19  -1
M  END
>  <UniqueID>  (4) 
4

>  <SMILES>  (4) 
CCCCc1ccc(C(=O)[N@@H+](Cc2ccc(C(=O)[N-]c3ccccc3N)cc2)C2CCNCC2)cc1

>  <Energy>  (4) 
100.64993985030598

>  <Genealogy>  (4) 
CCCCc1ccc(C(=O)[NH+](Cc2ccc(C(=O)[N-]c3ccccc3N)cc2)C2CCNCC2)cc1 (protonated)
CCCCc1ccc(C(=O)[N@@H+](Cc2ccc(C(=O)[N-]c3ccccc3N)cc2)C2CCNCC2)cc1 (chirality)
CCCCc1ccc(C(=O)[N@@H+](Cc2ccc(C(=O)[N-]c3ccccc3N)cc2)C2CCNCC2)cc1 (3D coordinates assigned)
CCCCc1ccc(C(=O)[N@@H+](Cc2ccc(C(=O)[N-]c3ccccc3N)cc2)C2CCNCC2)cc1 (nonaromatic ring conformer: 100.64993985030598 kcal/mol)

>  <smiles>  (4) 
CCCCc1ccc(C(=O)N(Cc2ccc(C(=O)Nc3ccccc3N)cc2)C2CCNCC2)cc1

>  <score_type>  (4) 
oracle

>  <origin>  (4) 
adg

>  <m_score__min__energy>  (4) 
-9.9199999999999999

>  <m_primary>  (4) 
energy

$$$$
4:0
     RDKit          3D

 31 32  0  0  0  0  0  0  0  0999 V2000
   55.1530   29.3550   44.8560 O   0  0  0  0  0  0  0  0  0  0  0  0
   56.4040   29.2220   44.7950 C   0  0  0  0  0  0  0  0  0  0  0  0
   57.1720   30.0560   43.8020 C   0  0  0  0  0  0  0  0  0  0  0  0
   57.4080   31.4370   44.3300 C   0  0  0  0  0  0  0  0  0  0  0  0
   57.8120   32.5270   43.5980 C   0  0  0  0  0  0  0  0  0  0  0  0
   57.9000   33.5900   44.4150 N   0  0  0  0  0  0  0  0  0  0  0  0
   57.5420   33.1070   45.6240 C   0  0  0  0  0  0  0  0  0  0  0  0
   57.2310   31.7940   45.6130 N   0  0  0  0  0  0  0  0  0  0  0  0
   57.0290   28.2500   45.6470 N   0  0  0  0  0  0  0  0  0  0  0  0
   58.4620   28.1010   45.8890 C   0  0  0  0  0  0  0  0  0  0  0  0
   58.9260   26.6890   45.5320 C   0  0  0  0  0  0  0  0  0  0  0  0
   57.7430   25.9130   44.3680 S   0  0  0  0  0  0  0  0  0  0  0  0
   57.2640   24.5020   45.4250 C   0  0  0  0  0  0  0  0  0  0  0  0
   55.7740   24.3650   45.4950 C   0  0  0  0  0  0  0  0  0  0  0  0
   55.1140   23.2110   45.2850 N   0  0  0  0  0  0  0  0  0  0  0  0
   53.8160   23.5720   45.3820 C   0  0  0  0  0  0  0  0  0  0  0  0
   52.8730   22.7510   45.2460 O   0  0  0  0  0  0  0  0  0  0  0  0
   53.6080   24.8830   45.6290 N   0  0  0  0  0  0  0  0  0  0  0  0
   54.8590   25.3720   45.6900 C   0  0  0  0  0  0  0  0  0  0  0  0
   55.1580   26.7120   45.9100 O   0  0  0  0  0  0  0  0  0  0  0  0
   58.1417   29.5763   43.6032 H   0  0  0  0  0  0  0  0  0  0  0  0
   56.5821   30.1307   42.8766 H   0  0  0  0  0  0  0  0  0  0  0  0
   58.0281   32.5292   42.5194 H   0  0  0  0  0  0  0  0  0  0  0  0
   57.5071   33.7259   46.5327 H   0  0  0  0  0  0  0  0  0  0  0  0
   59.0100   28.8281   45.2717 H   0  0  0  0  0  0  0  0  0  0  0  0
   58.6610   28.2796   46.9560 H   0  0  0  0  0  0  0  0  0  0  0  0
   59.9189   26.7404   45.0613 H   0  0  0  0  0  0  0  0  0  0  0  0
   58.9776   26.0843   46.4494 H   0  0  0  0  0  0  0  0  0  0  0  0
   57.6909   23.5783   45.0071 H   0  0  0  0  0  0  0  0  0  0  0  0
   57.6477   24.6789   46.4406 H   0  0  0  0  0  0  0  0  0  0  0  0
   55.8160   27.1980   45.3130 H   0  0  0  0  0  0  0  0  0  0  0  0
  1  2  2  0
  2  3  1  0
  3  4  1  0
  4  5  2  0
  5  6  1  0
  6  7  1  0
  7  8  2  0
  2  9  1  0
  9 10  1  0
 10 11  1  0
 11 12  1  0
 12 13  1  0
 13 14  1  0
 14 15  1  0
 15 16  1  0
 16 17  2  0
 16 18  1  0
 18 19  1  0
 19 20  1  0
  8  4  1  0
 19 14  2  0
  3 21  1  0
  3 22  1  0
  5 23  1  0
  7 24  1  0
 10 25  1  0
 10 26  1  0
 11 27  1  0
 11 28  1  0
 13 29  1  0
 13 30  1  0
 20 31  1  0
M  CHG  4   6  -1   9  -1  15  -1  18  -1
M  END
>  <UniqueID>  (5) 
5

>  <SMILES>  (5) 
O=C(Cc1c[n-]cn1)[N-]CCSCc1[n-]c(=O)[n-]c1O

>  <Energy>  (5) 
77.40741236208551

>  <Genealogy>  (5) 
O=C(Cc1c[n-]cn1)[N-]CCSCc1[n-]c(=O)[n-]c1O (protonated)
O=C(Cc1c[n-]cn1)[N-]CCSCc1[n-]c(=O)[n-]c1O (3D coordinates assigned)
O=C(Cc1c[n-]cn1)[N-]CCSCc1[n-]c(=O)[n-]c1O (optimized conformer: 77.40741236208551 kcal/mol)

>  <smiles>  (5) 
O=C(Cc1c[nH]cn1)NCCSCc1[nH]c(=O)[nH]c1O

>  <score_type>  (5) 
oracle

>  <origin>  (5) 
adg

>  <m_score__min__energy>  (5) 
-13.35

>  <m_primary>  (5) 
energy

$$$$
5:0
     RDKit          3D

 70 73  0  0  0  0  0  0  0  0999 V2000
   63.6280   33.4360   47.3320 C   0  0  0  0  0  0  0  0  0  0  0  0
   63.5210   33.3820   48.7520 O   0  0  0  0  0  0  0  0  0  0  0  0
   64.4150   32.7010   49.5930 C   0  0  0  0  0  0  0  0  0  0  0  0
   65.7440   33.1340   49.7750 C   0  0  0  0  0  0  0  0  0  0  0  0
   66.6030   32.4410   50.6310 C   0  0  0  0  0  0  0  0  0  0  0  0
   66.1500   31.3130   51.3150 C   0  0  0  0  0  0  0  0  0  0  0  0
   64.8380   30.8680   51.1400 C   0  0  0  0  0  0  0  0  0  0  0  0
   63.9620   31.5560   50.2800 C   0  0  0  0  0  0  0  0  0  0  0  0
   62.6220   31.0690   50.0720 N   0  0  0  0  0  0  0  0  0  0  0  0
   62.1960   30.7770   48.7070 C   0  0  0  0  0  0  0  0  0  0  0  0
   60.6860   30.9730   48.5630 C   0  0  0  0  0  0  0  0  0  0  0  0
   59.8960   30.2780   49.6050 N   0  0  0  0  0  0  0  0  0  0  0  0
   59.4910   28.8790   49.2860 C   0  0  0  0  0  0  0  0  0  0  0  0
   59.5400   28.4590   47.8010 C   0  0  0  0  0  0  0  0  0  0  0  0
   58.2370   27.8170   47.2790 C   0  0  0  0  0  0  0  0  0  0  0  0
   58.4100   26.9850   45.9870 C   0  0  0  0  0  0  0  0  0  0  0  0
   57.8570   27.6410   44.7040 C   0  0  0  0  0  0  0  0  0  0  0  0
   57.7560   29.1170   44.8040 N   0  0  0  0  0  0  0  0  0  0  0  0
   58.8880   29.8950   44.8720 C   0  0  0  0  0  0  0  0  0  0  0  0
   60.0360   29.3720   44.9050 O   0  0  0  0  0  0  0  0  0  0  0  0
   58.7890   31.2860   44.9110 C   0  0  0  0  0  0  0  0  0  0  0  0
   57.5280   31.8680   44.8830 C   0  0  0  0  0  0  0  0  0  0  0  0
   57.3490   33.6520   44.9090 S   0  0  0  0  0  0  0  0  0  0  0  0
   57.7850   33.8290   46.6720 C   0  0  0  0  0  0  0  0  0  0  0  0
   59.1650   34.3800   46.8390 C   0  0  0  0  0  0  0  0  0  0  0  0
   59.6760   35.0700   45.9160 O   0  0  0  0  0  0  0  0  0  0  0  0
   59.8810   34.1250   48.0570 N   0  0  0  0  0  0  0  0  0  0  0  0
   59.3630   33.6930   49.1700 C   0  0  0  0  0  0  0  0  0  0  0  0
   58.4660   32.6920   49.2670 N   0  0  0  0  0  0  0  0  0  0  0  0
   58.2290   32.5430   50.5620 N   0  0  0  0  0  0  0  0  0  0  0  0
   58.9870   33.4600   51.1950 C   0  0  0  0  0  0  0  0  0  0  0  0
   59.0580   33.6170   52.6750 C   0  0  0  0  0  0  0  0  0  0  0  0
   59.6900   34.1700   50.3450 O   0  0  0  0  0  0  0  0  0  0  0  0
   56.4270   31.0810   44.8690 N   0  0  0  0  0  0  0  0  0  0  0  0
   56.5230   29.7270   44.8490 C   0  0  0  0  0  0  0  0  0  0  0  0
   55.4640   29.0450   44.8780 O   0  0  0  0  0  0  0  0  0  0  0  0
   60.3850   30.5020   50.9920 C   0  0  0  0  0  0  0  0  0  0  0  0
   61.9110   30.4120   51.1710 C   0  0  0  0  0  0  0  0  0  0  0  0
   64.5781   33.9155   47.0539 H   0  0  0  0  0  0  0  0  0  0  0  0
   63.5989   32.4153   46.9230 H   0  0  0  0  0  0  0  0  0  0  0  0
   62.7896   34.0189   46.9230 H   0  0  0  0  0  0  0  0  0  0  0  0
   66.1070   34.0235   49.2394 H   0  0  0  0  0  0  0  0  0  0  0  0
   67.6389   32.7855   50.7660 H   0  0  0  0  0  0  0  0  0  0  0  0
   66.8272   30.7732   51.9932 H   0  0  0  0  0  0  0  0  0  0  0  0
   64.4873   29.9746   51.6774 H   0  0  0  0  0  0  0  0  0  0  0  0
   62.7165   31.4533   48.0130 H   0  0  0  0  0  0  0  0  0  0  0  0
   62.4425   29.7307   48.4738 H   0  0  0  0  0  0  0  0  0  0  0  0
   60.4679   32.0496   48.6215 H   0  0  0  0  0  0  0  0  0  0  0  0
   60.3953   30.5393   47.5948 H   0  0  0  0  0  0  0  0  0  0  0  0
   58.9750   30.7810   49.5870 H   0  0  0  0  0  0  0  0  0  0  0  0
   60.1571   28.2047   49.8442 H   0  0  0  0  0  0  0  0  0  0  0  0
   58.4293   28.8167   49.5667 H   0  0  0  0  0  0  0  0  0  0  0  0
   59.7492   29.3540   47.1966 H   0  0  0  0  0  0  0  0  0  0  0  0
   60.3246   27.6927   47.7162 H   0  0  0  0  0  0  0  0  0  0  0  0
   57.8403   27.1560   48.0637 H   0  0  0  0  0  0  0  0  0  0  0  0
   57.5556   28.6444   47.0317 H   0  0  0  0  0  0  0  0  0  0  0  0
   59.4850   26.8037   45.8404 H   0  0  0  0  0  0  0  0  0  0  0  0
   57.8256   26.0651   46.1358 H   0  0  0  0  0  0  0  0  0  0  0  0
   58.5255   27.3915   43.8668 H   0  0  0  0  0  0  0  0  0  0  0  0
   56.8400   27.2519   44.5481 H   0  0  0  0  0  0  0  0  0  0  0  0
   59.6930   31.9105   44.9630 H   0  0  0  0  0  0  0  0  0  0  0  0
   57.0669   34.5103   47.1518 H   0  0  0  0  0  0  0  0  0  0  0  0
   57.7502   32.8338   47.1393 H   0  0  0  0  0  0  0  0  0  0  0  0
   58.6510   32.7170   53.1591 H   0  0  0  0  0  0  0  0  0  0  0  0
   60.1061   33.7549   52.9792 H   0  0  0  0  0  0  0  0  0  0  0  0
   58.4693   34.4950   52.9792 H   0  0  0  0  0  0  0  0  0  0  0  0
   60.0638   31.5054   51.3083 H   0  0  0  0  0  0  0  0  0  0  0  0
   59.9577   29.6918   51.6011 H   0  0  0  0  0  0  0  0  0  0  0  0
   62.1888   30.8987   52.1175 H   0  0  0  0  0  0  0  0  0  0  0  0
   62.1947   29.3492   51.1780 H   0  0  0  0  0  0  0  0  0  0  0  0
  1  2  1  0
  2  3  1  0
  3  4  2  0
  4  5  1  0
  5  6  2  0
  6  7  1  0
  7  8  2  0
  8  9  1  0
  9 10  1  0
 10 11  1  0
 11 12  1  0
 12 13  1  0
 13 14  1  0
 14 15  1  0
 15 16  1  0
 16 17  1  0
 17 18  1  0
 18 19  1  0
 19 20  2  0
 19 21  1  0
 21 22  2  0
 22 23  1  0
 23 24  1  0
 24 25  1  0
 25 26  2  0
 25 27  1  0
 27 28  2  3
 28 29  1  0
 29 30  1  0
 30 31  2  0
 31 32  1  0
 31 33  1  0
 22 34  1  0
 34 35  1  0
 35 36  2  0
 12 37  1  0
 37 38  1  0
  8  3  1  0
 38  9  1  0
 35 18  1  0
 33 28  1  0
  1 39  1  0
  1 40  1  0
  1 41  1  0
  4 42  1  0
  5 43  1  0
  6 44  1  0
  7 45  1  0
 10 46  1  0
 10 47  1  0
 11 48  1  0
 11 49  1  0
 12 50  1  0
 13 51  1  0
 13 52  1  0
 14 53  1  0
 14 54  1  0
 15 55  1  0
 15 56  1  0
 16 57  1  0
 16 58  1  0
 17 59  1  0
 17 60  1  0
 21 61  1  0
 24 62  1  0
 24 63  1  0
 32 64  1  0
 32 65  1  0
 32 66  1  0
 37 67  1  0
 37 68  1  0
 38 69  1  0
 38 70  1  0
M  CHG  3  12   1  29  -1  34  -1
M  END
>  <UniqueID>  (6) 
6

>  <SMILES>  (6) 
COc1ccccc1N1CC[NH+](CCCCCn2c(=O)cc(SCC(=O)N=c3[n-]nc(C)o3)[n-]c2=O)CC1

>  <Energy>  (6) 
121.46493199487274

>  <Genealogy>  (6) 
COc1ccccc1N1CC[NH+](CCCCCn2c(=O)cc(SCC(=O)N=c3[n-]nc(C)o3)[n-]c2=O)CC1 (protonated)
COc1ccccc1N1CC[NH+](CCCCCn2c(=O)cc(SCC(=O)N=c3[n-]nc(C)o3)[n-]c2=O)CC1 (3D coordinates assigned)
COc1ccccc1N1CC[NH+](CCCCCn2c(=O)cc(SCC(=O)N=c3[n-]nc(C)o3)[n-]c2=O)CC1 (nonaromatic ring conformer: 121.46493199487274 kcal/mol)

>  <smiles>  (6) 
COc1ccccc1N1CCN(CCCCCn2c(=O)cc(SCC(=O)N=c3[nH]nc(C)o3)[nH]c2=O)CC1

>  <score_type>  (6) 
oracle

>  <origin>  (6) 
adg

>  <m_score__min__energy>  (6) 
-12.07

>  <m_primary>  (6) 
energy

$$$$
6:0
     RDKit          3D

 31 33  0  0  0  0  0  0  0  0999 V2000
   58.0520   32.2220   50.2800 C   0  0  0  0  0  0  0  0  0  0  0  0
   57.6330   30.9330   51.4330 S   0  0  0  0  0  0  0  0  0  0  0  0
   58.3080   31.2220   52.7430 O   0  0  0  0  0  0  0  0  0  0  0  0
   58.1060   29.5990   50.9280 O   0  0  0  0  0  0  0  0  0  0  0  0
   55.9180   30.8980   51.6870 N   0  0  0  0  0  0  0  0  0  0  0  0
   55.1960   29.9150   52.4450 C   0  0  0  0  0  0  0  0  0  0  0  0
   55.7700   29.2730   53.5590 C   0  0  0  0  0  0  0  0  0  0  0  0
   55.0400   28.3260   54.2840 C   0  0  0  0  0  0  0  0  0  0  0  0
   55.6010   27.7070   55.3580 N   0  0  0  0  0  0  0  0  0  0  0  0
   54.9200   26.7820   56.0860 C   0  0  0  0  0  0  0  0  0  0  0  0
   53.6100   26.4430   55.7410 C   0  0  0  0  0  0  0  0  0  0  0  0
   53.0060   27.0610   54.6440 C   0  0  0  0  0  0  0  0  0  0  0  0
   53.7180   28.0120   53.9030 C   0  0  0  0  0  0  0  0  0  0  0  0
   53.1440   28.6510   52.7970 C   0  0  0  0  0  0  0  0  0  0  0  0
   53.8790   29.5940   52.0660 C   0  0  0  0  0  0  0  0  0  0  0  0
   53.1160   30.3720   50.6380 S   0  0  0  0  0  0  0  0  0  0  0  0
   51.9760   31.3170   51.6470 C   0  0  0  0  0  0  0  0  0  0  0  0
   51.7920   31.1440   53.3110 S   0  0  0  0  0  0  0  0  0  0  0  0
   50.6070   32.3380   53.3760 C   0  0  0  0  0  0  0  0  0  0  0  0
   50.0250   32.6990   54.4310 O   0  0  0  0  0  0  0  0  0  0  0  0
   50.3420   32.8780   52.1680 N   0  0  0  0  0  0  0  0  0  0  0  0
   51.1080   32.3080   51.2030 C   0  0  0  0  0  0  0  0  0  0  0  0
   51.0260   32.7030   49.8740 O   0  0  0  0  0  0  0  0  0  0  0  0
   58.3461   33.1267   50.8324 H   0  0  0  0  0  0  0  0  0  0  0  0
   58.8886   31.8904   49.6474 H   0  0  0  0  0  0  0  0  0  0  0  0
   57.1803   32.4457   49.6474 H   0  0  0  0  0  0  0  0  0  0  0  0
   56.7990   29.5179   53.8608 H   0  0  0  0  0  0  0  0  0  0  0  0
   55.4023   26.2996   56.9489 H   0  0  0  0  0  0  0  0  0  0  0  0
   53.0580   25.6948   56.3289 H   0  0  0  0  0  0  0  0  0  0  0  0
   51.9746   26.8016   54.3631 H   0  0  0  0  0  0  0  0  0  0  0  0
   52.1120   28.4118   52.5008 H   0  0  0  0  0  0  0  0  0  0  0  0
  1  2  1  0
  2  3  2  0
  2  4  2  0
  2  5  1  0
  5  6  1  0
  6  7  2  0
  7  8  1  0
  8  9  2  0
  9 10  1  0
 10 11  2  0
 11 12  1  0
 12 13  2  0
 13 14  1  0
 14 15  2  0
 15 16  1  0
 16 17  1  0
 17 18  1  0
 18 19  1  0
 19 20  2  0
 19 21  1  0
 21 22  1  0
 22 23  1  0
 15  6  1  0
 22 17  2  0
 13  8  1  0
  1 24  1  0
  1 25  1  0
  1 26  1  0
  7 27  1  0
 10 28  1  0
 11 29  1  0
 12 30  1  0
 14 31  1  0
M  CHG  3   5  -1  21  -1  23  -1
M  END
>  <UniqueID>  (7) 
7

>  <SMILES>  (7) 
CS(=O)(=O)[N-]c1cc2ncccc2cc1Sc1sc(=O)[n-]c1[O-]

>  <Energy>  (7) 
62.942237179349256

>  <Genealogy>  (7) 
CS(=O)(=O)[N-]c1cc2ncccc2cc1Sc1sc(=O)[n-]c1[O-] (protonated)
CS(=O)(=O)[N-]c1cc2ncccc2cc1Sc1sc(=O)[n-]c1[O-] (3D coordinates assigned)
CS(=O)(=O)[N-]c1cc2ncccc2cc1Sc1sc(=O)[n-]c1[O-] (optimized conformer: 62.942237179349256 kcal/mol)

>  <smiles>  (7) 
CS(=O)(=O)Nc1cc2ncccc2cc1Sc1sc(=O)[nH]c1O

>  <score_type>  (7) 
oracle

>  <origin>  (7) 
adg

>  <m_score__min__energy>  (7) 
-15.050000000000001

>  <m_primary>  (7) 
energy

$$$$
7:0
     RDKit          3D

 40 42  0  0  0  0  0  0  0  0999 V2000
   52.9060   30.5720   51.4170 C   0  0  0  0  0  0  0  0  0  0  0  0
   53.8290   29.9830   52.4780 C   0  0  0  0  0  0  0  0  0  0  0  0
   55.2360   30.4380   52.2560 C   0  0  0  0  0  0  0  0  0  0  0  0
   56.2830   29.6050   52.0800 N   0  0  0  0  0  0  0  0  0  0  0  0
   57.3520   30.3750   51.9390 N   0  0  0  0  0  0  0  0  0  0  0  0
   56.9070   31.6430   52.0380 C   0  0  0  0  0  0  0  0  0  0  0  0
   57.6600   32.6970   51.9490 N   0  0  0  0  0  0  0  0  0  0  0  0
   59.1820   32.7030   51.1180 S   0  0  0  0  0  0  0  0  0  0  0  0
   59.6680   34.1190   50.9790 O   0  0  0  0  0  0  0  0  0  0  0  0
   60.1910   31.9230   51.9150 O   0  0  0  0  0  0  0  0  0  0  0  0
   58.9770   32.0060   49.5140 C   0  0  0  0  0  0  0  0  0  0  0  0
   59.0110   30.6170   49.3290 C   0  0  0  0  0  0  0  0  0  0  0  0
   58.7830   30.0740   48.0610 C   0  0  0  0  0  0  0  0  0  0  0  0
   58.5020   30.9140   46.9700 C   0  0  0  0  0  0  0  0  0  0  0  0
   58.2300   30.3860   45.6650 N   0  0  0  0  0  0  0  0  0  0  0  0
   58.5690   29.0690   45.2040 C   0  0  0  0  0  0  0  0  0  0  0  0
   59.5820   28.9300   44.4670 O   0  0  0  0  0  0  0  0  0  0  0  0
   57.7030   27.8980   45.4820 C   0  0  0  0  0  0  0  0  0  0  0  0
   58.2970   26.6490   45.7300 C   0  0  0  0  0  0  0  0  0  0  0  0
   57.5080   25.5390   46.0270 C   0  0  0  0  0  0  0  0  0  0  0  0
   56.1210   25.6840   46.0880 C   0  0  0  0  0  0  0  0  0  0  0  0
   55.3940   24.6950   46.3680 O   0  0  0  0  0  0  0  0  0  0  0  0
   55.5530   26.8930   45.8410 N   0  0  0  0  0  0  0  0  0  0  0  0
   56.2910   27.9950   45.5330 C   0  0  0  0  0  0  0  0  0  0  0  0
   55.6160   29.1840   45.2480 O   0  0  0  0  0  0  0  0  0  0  0  0
   58.5060   32.3030   47.1530 C   0  0  0  0  0  0  0  0  0  0  0  0
   58.7330   32.8470   48.4200 C   0  0  0  0  0  0  0  0  0  0  0  0
   55.6130   31.6960   52.2340 O   0  0  0  0  0  0  0  0  0  0  0  0
   52.0756   31.1019   51.9066 H   0  0  0  0  0  0  0  0  0  0  0  0
   53.4714   31.2767   50.7894 H   0  0  0  0  0  0  0  0  0  0  0  0
   52.5051   29.7624   50.7894 H   0  0  0  0  0  0  0  0  0  0  0  0
   53.4943   30.3123   53.4727 H   0  0  0  0  0  0  0  0  0  0  0  0
   53.7943   28.8856   52.4115 H   0  0  0  0  0  0  0  0  0  0  0  0
   59.2172   29.9538   50.1820 H   0  0  0  0  0  0  0  0  0  0  0  0
   58.8238   28.9843   47.9167 H   0  0  0  0  0  0  0  0  0  0  0  0
   59.3915   26.5466   45.6895 H   0  0  0  0  0  0  0  0  0  0  0  0
   57.9733   24.5594   46.2113 H   0  0  0  0  0  0  0  0  0  0  0  0
   55.9030   30.0850   45.6100 H   0  0  0  0  0  0  0  0  0  0  0  0
   58.3296   32.9686   46.2952 H   0  0  0  0  0  0  0  0  0  0  0  0
   58.7201   33.9381   48.5589 H   0  0  0  0  0  0  0  0  0  0  0  0
  1  2  1  0
  2  3  1  0
  3  4  2  0
  4  5  1  0
  5  6  1  0
  6  7  2  3
  7  8  1  0
  8  9  2  0
  8 10  2  0
  8 11  1  0
 11 12  2  0
 12 13  1  0
 13 14  2  0
 14 15  1  0
 15 16  1  0
 16 17  2  0
 16 18  1  0
 18 19  1  0
 19 20  2  0
 20 21  1  0
 21 22  2  0
 21 23  1  0
 23 24  1  0
 24 25  1  0
 14 26  1  0
 26 27  2  0
  6 28  1  0
 28  3  1  0
 27 11  1  0
 24 18  2  0
  1 29  1  0
  1 30  1  0
  1 31  1  0
  2 32  1  0
  2 33  1  0
 12 34  1  0
 13 35  1  0
 19 36  1  0
 20 37  1  0
 25 38  1  0
 26 39  1  0
 27 40  1  0
M  CHG  3   5  -1  15  -1  23  -1
M  END
>  <UniqueID>  (8) 
8

>  <SMILES>  (8) 
CCc1n[n-]c(=NS(=O)(=O)c2ccc([N-]C(=O)c3ccc(=O)[n-]c3O)cc2)o1

>  <Energy>  (8) 
86.51999337679499

>  <Genealogy>  (8) 
CCc1n[n-]c(=NS(=O)(=O)c2ccc([N-]C(=O)c3ccc(=O)[n-]c3O)cc2)o1 (protonated)
CCc1n[n-]c(=NS(=O)(=O)c2ccc([N-]C(=O)c3ccc(=O)[n-]c3O)cc2)o1 (3D coordinates assigned)
CCc1n[n-]c(=NS(=O)(=O)c2ccc([N-]C(=O)c3ccc(=O)[n-]c3O)cc2)o1 (optimized conformer: 86.51999337679499 kcal/mol)

>  <smiles>  (8) 
CCc1n[nH]c(=NS(=O)(=O)c2ccc(NC(=O)c3ccc(=O)[nH]c3O)cc2)o1

>  <score_type>  (8) 
oracle

>  <origin>  (8) 
adg

>  <m_score__min__energy>  (8) 
-13.77

>  <m_primary>  (8) 
energy

$$$$
8:0
     RDKit          3D

 39 41  0  0  0  0  0  0  0  0999 V2000
   57.0530   33.5030   46.5120 C   0  0  0  0  0  0  0  0  0  0  0  0
   57.0390   33.7450   45.1990 C   0  0  0  0  0  0  0  0  0  0  0  0
   57.8670   32.9380   44.2400 C   0  0  0  0  0  0  0  0  0  0  0  0
   57.2320   31.6480   43.9830 N   0  0  0  0  0  0  0  0  0  0  0  0
   56.7540   30.8600   44.9350 N   0  0  0  0  0  0  0  0  0  0  0  0
   56.2050   29.7900   44.3210 C   0  0  0  0  0  0  0  0  0  0  0  0
   55.5750   28.6990   45.0000 N   0  0  0  0  0  0  0  0  0  0  0  0
   56.2670   27.6120   45.6310 C   0  0  0  0  0  0  0  0  0  0  0  0
   55.6450   26.5580   45.9330 O   0  0  0  0  0  0  0  0  0  0  0  0
   57.7160   27.7270   45.9290 C   0  0  0  0  0  0  0  0  0  0  0  0
   58.5320   26.5830   45.9610 C   0  0  0  0  0  0  0  0  0  0  0  0
   59.8950   26.6950   46.2400 C   0  0  0  0  0  0  0  0  0  0  0  0
   60.4620   27.9460   46.4880 C   0  0  0  0  0  0  0  0  0  0  0  0
   59.6680   29.1040   46.4620 C   0  0  0  0  0  0  0  0  0  0  0  0
   60.2660   30.4370   46.7290 C   0  0  0  0  0  0  0  0  0  0  0  0
   61.5000   30.5440   47.3930 C   0  0  0  0  0  0  0  0  0  0  0  0
   62.0500   31.8050   47.6290 C   0  0  0  0  0  0  0  0  0  0  0  0
   61.3730   32.9470   47.2050 C   0  0  0  0  0  0  0  0  0  0  0  0
   60.1490   32.8110   46.5490 C   0  0  0  0  0  0  0  0  0  0  0  0
   59.6230   31.5750   46.3240 N   0  0  0  0  0  0  0  0  0  0  0  0
   58.2950   28.9860   46.1810 C   0  0  0  0  0  0  0  0  0  0  0  0
   56.3230   29.8920   42.9480 C   0  0  0  0  0  0  0  0  0  0  0  0
   56.9780   31.0910   42.7830 C   0  0  0  0  0  0  0  0  0  0  0  0
   57.2940   31.6030   41.6770 O   0  0  0  0  0  0  0  0  0  0  0  0
   56.4358   34.1109   47.1899 H   0  0  0  0  0  0  0  0  0  0  0  0
   57.6817   32.6957   46.9158 H   0  0  0  0  0  0  0  0  0  0  0  0
   56.4053   34.5556   44.8098 H   0  0  0  0  0  0  0  0  0  0  0  0
   57.9655   33.4890   43.2931 H   0  0  0  0  0  0  0  0  0  0  0  0
   58.8599   32.7664   44.6813 H   0  0  0  0  0  0  0  0  0  0  0  0
   58.0937   25.5933   45.7649 H   0  0  0  0  0  0  0  0  0  0  0  0
   60.5249   25.7936   46.2645 H   0  0  0  0  0  0  0  0  0  0  0  0
   61.5374   28.0254   46.7052 H   0  0  0  0  0  0  0  0  0  0  0  0
   62.0296   29.6388   47.7250 H   0  0  0  0  0  0  0  0  0  0  0  0
   63.0153   31.8971   48.1483 H   0  0  0  0  0  0  0  0  0  0  0  0
   61.7990   33.9449   47.3856 H   0  0  0  0  0  0  0  0  0  0  0  0
   59.6062   33.7064   46.2119 H   0  0  0  0  0  0  0  0  0  0  0  0
   58.6950   31.5160   45.8490 H   0  0  0  0  0  0  0  0  0  0  0  0
   57.6657   29.8879   46.1577 H   0  0  0  0  0  0  0  0  0  0  0  0
   55.9781   29.1878   42.1765 H   0  0  0  0  0  0  0  0  0  0  0  0
  1  2  2  0
  2  3  1  0
  3  4  1  0
  4  5  1  0
  5  6  1  0
  6  7  1  0
  7  8  1  0
  8  9  2  0
  8 10  1  0
 10 11  2  0
 11 12  1  0
 12 13  2  0
 13 14  1  0
 14 15  1  0
 15 16  2  0
 16 17  1  0
 17 18  2  0
 18 19  1  0
 19 20  2  0
 14 21  2  0
  6 22  2  0
 22 23  1  0
 23 24  2  0
 23  4  1  0
 21 10  1  0
 20 15  1  0
  1 25  1  0
  1 26  1  0
  2 27  1  0
  3 28  1  0
  3 29  1  0
 11 30  1  0
 12 31  1  0
 13 32  1  0
 16 33  1  0
 17 34  1  0
 18 35  1  0
 19 36  1  0
 20 37  1  0
 21 38  1  0
 22 39  1  0
M  CHG  3   5  -1   7  -1  20   1
M  END
>  <UniqueID>  (9) 
9

>  <SMILES>  (9) 
C=CCn1[n-]c([N-]C(=O)c2cccc(-c3cccc[nH+]3)c2)cc1=O

>  <Energy>  (9) 
76.18752954360826

>  <Genealogy>  (9) 
C=CCn1[n-]c([N-]C(=O)c2cccc(-c3cccc[nH+]3)c2)cc1=O (protonated)
C=CCn1[n-]c([N-]C(=O)c2cccc(-c3cccc[nH+]3)c2)cc1=O (3D coordinates assigned)
C=CCn1[n-]c([N-]C(=O)c2cccc(-c3cccc[nH+]3)c2)cc1=O (optimized conformer: 76.18752954360826 kcal/mol)

>  <smiles>  (9) 
C=CCn1[nH]c(NC(=O)c2cccc(-c3ccccn3)c2)cc1=O

>  <score_type>  (9) 
oracle

>  <origin>  (9) 
adg

>  <m_score__min__energy>  (9) 
-10.49

>  <m_primary>  (9) 
energy

$$$$
9:0
     RDKit          3D

 35 38  0  0  1  0  0  0  0  0999 V2000
   55.1640   29.3260   44.5170 O   0  0  0  0  0  0  0  0  0  0  0  0
   56.0440   30.1840   44.1820 C   0  0  0  0  0  0  0  0  0  0  0  0
   56.8380   30.7850   45.0860 N   0  0  0  0  0  0  0  0  0  0  0  0
   57.7740   31.7040   44.6750 C   0  0  0  0  0  0  0  0  0  0  0  0
   58.5320   32.3310   45.7180 C   0  0  0  0  0  0  0  0  0  0  0  0
   58.2700   33.7020   45.9050 C   0  0  0  0  0  0  0  0  0  0  0  0
   58.8930   34.4420   46.8760 C   0  0  0  0  0  0  0  0  0  0  0  0
   59.8020   33.8420   47.6980 C   0  0  0  0  0  0  0  0  0  0  0  0
   60.0660   32.5400   47.5310 N   0  0  0  0  0  0  0  0  0  0  0  0
   59.4480   31.7890   46.5550 C   0  0  0  0  0  0  0  0  0  0  0  0
   59.9610   30.6510   46.3710 N   0  0  0  0  0  0  0  0  0  0  0  0
   59.3820   29.4950   45.8690 C   0  0  0  0  0  0  0  0  0  0  0  0
   59.5360   29.0510   44.5420 C   0  0  0  0  0  0  0  0  0  0  0  0
   58.8820   27.9440   44.0680 C   0  0  0  0  0  0  0  0  0  0  0  0
   58.0380   27.2060   44.8690 C   0  0  0  0  0  0  0  0  0  0  0  0
   57.2800   26.1110   44.7040 N   0  0  0  0  0  0  0  0  0  0  0  0
   56.6390   25.7970   45.8140 N   0  0  0  0  0  0  0  0  0  0  0  0
   56.9900   26.7170   46.7300 C   0  0  0  0  0  0  0  0  0  0  0  0
   57.8730   27.6210   46.1640 C   0  0  0  0  0  0  0  0  0  0  0  0
   58.5160   28.7370   46.6830 C   0  0  0  0  0  0  0  0  0  0  0  0
   57.8140   31.9260   43.3640 N   0  0  0  0  0  0  0  0  0  0  0  0
   57.0210   31.3270   42.4580 C   0  0  0  0  0  0  0  0  0  0  0  0
   57.1280   31.6020   41.2270 O   0  0  0  0  0  0  0  0  0  0  0  0
   56.1180   30.4420   42.8580 N   0  0  0  0  0  0  0  0  0  0  0  0
   57.5392   34.1967   45.2483 H   0  0  0  0  0  0  0  0  0  0  0  0
   58.6620   35.5112   46.9917 H   0  0  0  0  0  0  0  0  0  0  0  0
   60.3097   34.4187   48.4852 H   0  0  0  0  0  0  0  0  0  0  0  0
   60.7650   32.1170   48.1780 H   0  0  0  0  0  0  0  0  0  0  0  0
   60.2006   29.6089   43.8659 H   0  0  0  0  0  0  0  0  0  0  0  0
   59.0345   27.6371   43.0227 H   0  0  0  0  0  0  0  0  0  0  0  0
   57.1940   25.5550   43.8060 H   0  0  0  0  0  0  0  0  0  0  0  0
   56.6308   26.7468   47.7693 H   0  0  0  0  0  0  0  0  0  0  0  0
   58.3494   29.0298   47.7302 H   0  0  0  0  0  0  0  0  0  0  0  0
   58.5370   32.5730   42.9870 H   0  0  0  0  0  0  0  0  0  0  0  0
   55.5070   29.9800   42.1620 H   0  0  0  0  0  0  0  0  0  0  0  0
  1  2  2  0
  2  3  1  0
  3  4  2  0
  4  5  1  0
  5  6  2  0
  6  7  1  0
  7  8  2  0
  8  9  1  0
  9 10  1  0
 10 11  2  0
 11 12  1  0
 12 13  2  0
 13 14  1  0
 14 15  2  0
 15 16  1  0
 16 17  1  0
 17 18  2  0
 18 19  1  0
 19 20  2  0
  4 21  1  0
 21 22  1  0
 22 23  2  0
 22 24  1  0
 24  2  1  0
 10  5  1  0
 20 12  1  0
 19 15  1  0
  6 25  1  0
  7 26  1  0
  8 27  1  0
  9 28  1  0
 13 29  1  0
 14 30  1  0
 16 31  1  0
 18 32  1  0
 20 33  1  0
 21 34  1  0
 24 35  1  0
M  END
>  <smiles>  (10) 
O=c1nc(-c2ccc[nH]c2=Nc2ccc3[nH]ncc3c2)[nH]c(=O)[nH]1

>  <score_type>  (10) 
oracle

>  <origin>  (10) 
adg

>  <m_score__min__energy>  (10) 
-8.1799999999999997

>  <m_primary>  (10) 
energy

$$$$
10:0
     RDKit          3D

 43 45  0  0  0  0  0  0  0  0999 V2000
   57.7140   33.8090   45.8660 C   0  0  0  0  0  0  0  0  0  0  0  0
   58.0800   33.4600   47.3050 C   0  0  0  0  0  0  0  0  0  0  0  0
   58.4960   32.0160   47.4120 C   0  0  0  0  0  0  0  0  0  0  0  0
   58.5750   31.2900   46.2670 N   0  0  0  0  0  0  0  0  0  0  0  0
   58.9990   30.0020   46.2680 C   0  0  0  0  0  0  0  0  0  0  0  0
   59.1050   29.0990   44.7270 S   0  0  0  0  0  0  0  0  0  0  0  0
   57.4370   29.5840   44.1530 C   0  0  0  0  0  0  0  0  0  0  0  0
   56.3460   28.9010   44.9360 C   0  0  0  0  0  0  0  0  0  0  0  0
   55.1690   29.3400   44.8470 O   0  0  0  0  0  0  0  0  0  0  0  0
   56.6080   27.8140   45.8330 N   0  0  0  0  0  0  0  0  0  0  0  0
   56.7010   26.4290   45.4830 C   0  0  0  0  0  0  0  0  0  0  0  0
   57.6330   26.0320   44.5160 C   0  0  0  0  0  0  0  0  0  0  0  0
   57.7560   24.6850   44.1640 C   0  0  0  0  0  0  0  0  0  0  0  0
   56.9590   23.7220   44.7920 C   0  0  0  0  0  0  0  0  0  0  0  0
   57.1140   22.0310   44.3530 Cl  0  0  0  0  0  0  0  0  0  0  0  0
   56.0480   24.1080   45.7820 C   0  0  0  0  0  0  0  0  0  0  0  0
   55.9240   25.4560   46.1330 C   0  0  0  0  0  0  0  0  0  0  0  0
   59.3610   29.4070   47.4310 N   0  0  0  0  0  0  0  0  0  0  0  0
   59.3140   30.0780   48.6110 C   0  0  0  0  0  0  0  0  0  0  0  0
   59.7630   29.2850   49.9750 S   0  0  0  0  0  0  0  0  0  0  0  0
   58.8830   31.4230   48.6360 C   0  0  0  0  0  0  0  0  0  0  0  0
   58.8410   32.1870   49.9020 C   0  0  0  0  0  0  0  0  0  0  0  0
   59.8550   33.1090   50.2030 C   0  0  0  0  0  0  0  0  0  0  0  0
   59.8170   33.8280   51.4020 C   0  0  0  0  0  0  0  0  0  0  0  0
   58.7710   33.6230   52.3080 C   0  0  0  0  0  0  0  0  0  0  0  0
   57.7630   32.7000   52.0150 C   0  0  0  0  0  0  0  0  0  0  0  0
   57.7970   31.9810   50.8180 C   0  0  0  0  0  0  0  0  0  0  0  0
   56.9179   34.5681   45.8639 H   0  0  0  0  0  0  0  0  0  0  0  0
   58.5999   34.2053   45.3481 H   0  0  0  0  0  0  0  0  0  0  0  0
   57.3603   32.9053   45.3481 H   0  0  0  0  0  0  0  0  0  0  0  0
   58.9121   34.1009   47.6318 H   0  0  0  0  0  0  0  0  0  0  0  0
   57.1996   33.6233   47.9440 H   0  0  0  0  0  0  0  0  0  0  0  0
   57.3259   30.6726   44.2658 H   0  0  0  0  0  0  0  0  0  0  0  0
   57.3396   29.2791   43.1006 H   0  0  0  0  0  0  0  0  0  0  0  0
   58.2719   26.7846   44.0307 H   0  0  0  0  0  0  0  0  0  0  0  0
   58.4797   24.3820   43.3930 H   0  0  0  0  0  0  0  0  0  0  0  0
   55.4289   23.3502   46.2845 H   0  0  0  0  0  0  0  0  0  0  0  0
   55.2162   25.7551   46.9201 H   0  0  0  0  0  0  0  0  0  0  0  0
   60.6815   33.2666   49.4945 H   0  0  0  0  0  0  0  0  0  0  0  0
   60.6098   34.5548   51.6327 H   0  0  0  0  0  0  0  0  0  0  0  0
   58.7417   34.1883   53.2512 H   0  0  0  0  0  0  0  0  0  0  0  0
   56.9413   32.5396   52.7285 H   0  0  0  0  0  0  0  0  0  0  0  0
   57.0046   31.2522   50.5926 H   0  0  0  0  0  0  0  0  0  0  0  0
  1  2  1  0
  2  3  1  0
  3  4  1  0
  4  5  1  0
  5  6  1  0
  6  7  1  0
  7  8  1  0
  8  9  2  0
  8 10  1  0
 10 11  1  0
 11 12  2  0
 12 13  1  0
 13 14  2  0
 14 15  1  0
 14 16  1  0
 16 17  2  0
  5 18  2  0
 18 19  1  0
 19 20  2  0
 19 21  1  0
 21 22  1  0
 22 23  2  0
 23 24  1  0
 24 25  2  0
 25 26  1  0
 26 27  2  0
 21  3  2  0
 27 22  1  0
 17 11  1  0
  1 28  1  0
  1 29  1  0
  1 30  1  0
  2 31  1  0
  2 32  1  0
  7 33  1  0
  7 34  1  0
 12 35  1  0
 13 36  1  0
 16 37  1  0
 17 38  1  0
 23 39  1  0
 24 40  1  0
 25 41  1  0
 26 42  1  0
 27 43  1  0
M  CHG  2   4  -1  10  -1
M  END
>  <UniqueID>  (11) 
10

>  <SMILES>  (11) 
CCc1[n-]c(SCC(=O)[N-]c2ccc(Cl)cc2)nc(=S)c1-c1ccccc1

>  <Energy>  (11) 
53.01761631770468

>  <Genealogy>  (11) 
CCc1[n-]c(SCC(=O)[N-]c2ccc(Cl)cc2)nc(=S)c1-c1ccccc1 (protonated)
CCc1[n-]c(SCC(=O)[N-]c2ccc(Cl)cc2)nc(=S)c1-c1ccccc1 (3D coordinates assigned)
CCc1[n-]c(SCC(=O)[N-]c2ccc(Cl)cc2)nc(=S)c1-c1ccccc1 (optimized conformer: 53.01761631770468 kcal/mol)

>  <smiles>  (11) 
CCc1[nH]c(SCC(=O)Nc2ccc(Cl)cc2)nc(=S)c1-c1ccccc1

>  <score_type>  (11) 
oracle

>  <origin>  (11) 
adg

>  <m_score__min__energy>  (11) 
-11.27

>  <m_primary>  (11) 
energy

$$$$
11:0
     RDKit          3D

 55 57  0  0  0  0  0  0  0  0999 V2000
   61.9030   33.7220   48.6890 C   0  0  0  0  0  0  0  0  0  0  0  0
   61.8750   33.7280   47.1620 C   0  0  0  0  0  0  0  0  0  0  0  0
   60.6150   33.1370   46.6610 N   0  0  0  0  0  0  0  0  0  0  0  0
   60.3880   31.7800   46.7380 C   0  0  0  0  0  0  0  0  0  0  0  0
   61.3790   30.8910   47.2900 N   0  0  0  0  0  0  0  0  0  0  0  0
   59.1650   31.2520   46.2830 C   0  0  0  0  0  0  0  0  0  0  0  0
   58.8990   29.7940   46.2950 C   0  0  0  0  0  0  0  0  0  0  0  0
   58.7960   29.1030   47.5120 C   0  0  0  0  0  0  0  0  0  0  0  0
   58.5130   27.7340   47.5220 C   0  0  0  0  0  0  0  0  0  0  0  0
   58.3330   27.0380   46.3170 C   0  0  0  0  0  0  0  0  0  0  0  0
   57.9580   25.5780   46.3270 C   0  0  0  0  0  0  0  0  0  0  0  0
   56.8240   25.2860   45.3220 C   0  0  1  0  0  0  0  0  0  0  0  0
   56.5490   23.8480   45.2160 N   0  0  0  0  0  0  0  0  0  0  0  0
   56.6990   22.8950   46.2840 C   0  0  0  0  0  0  0  0  0  0  0  0
   57.2820   23.2150   47.3540 O   0  0  0  0  0  0  0  0  0  0  0  0
   56.1880   21.5200   46.1250 C   0  0  0  0  0  0  0  0  0  0  0  0
   55.4520   20.9030   47.1610 C   0  0  0  0  0  0  0  0  0  0  0  0
   55.1520   21.7110   48.6990 Cl  0  0  0  0  0  0  0  0  0  0  0  0
   54.9760   19.5970   47.0000 C   0  0  0  0  0  0  0  0  0  0  0  0
   55.2250   18.8950   45.8210 C   0  0  0  0  0  0  0  0  0  0  0  0
   55.9550   19.4910   44.7930 C   0  0  0  0  0  0  0  0  0  0  0  0
   56.4400   20.7960   44.9360 C   0  0  0  0  0  0  0  0  0  0  0  0
   57.3140   21.5120   43.5840 Cl  0  0  0  0  0  0  0  0  0  0  0  0
   55.5630   26.0410   45.6490 C   0  0  0  0  0  0  0  0  0  0  0  0
   54.5200   25.4140   45.9660 O   0  0  0  0  0  0  0  0  0  0  0  0
   55.5350   27.4290   45.6070 O   0  0  0  0  0  0  0  0  0  0  0  0
   58.4290   27.7330   45.1000 C   0  0  0  0  0  0  0  0  0  0  0  0
   58.7160   29.1010   45.0890 C   0  0  0  0  0  0  0  0  0  0  0  0
   58.2080   32.1270   45.7550 C   0  0  0  0  0  0  0  0  0  0  0  0
   57.1160   31.6620   45.3200 O   0  0  0  0  0  0  0  0  0  0  0  0
   58.4600   33.4680   45.6870 N   0  0  0  0  0  0  0  0  0  0  0  0
   57.4620   34.3700   45.0840 C   0  0  0  0  0  0  0  0  0  0  0  0
   59.6700   33.9630   46.1010 C   0  0  0  0  0  0  0  0  0  0  0  0
   59.9190   35.1950   45.9610 O   0  0  0  0  0  0  0  0  0  0  0  0
   60.8958   33.9378   49.0750 H   0  0  0  0  0  0  0  0  0  0  0  0
   62.2285   32.7337   49.0459 H   0  0  0  0  0  0  0  0  0  0  0  0
   62.6049   34.4901   49.0459 H   0  0  0  0  0  0  0  0  0  0  0  0
   61.9555   34.7647   46.8032 H   0  0  0  0  0  0  0  0  0  0  0  0
   62.7195   33.1293   46.7899 H   0  0  0  0  0  0  0  0  0  0  0  0
   62.3990   31.0480   47.1280 H   0  0  0  0  0  0  0  0  0  0  0  0
   61.1300   30.0900   47.9060 H   0  0  0  0  0  0  0  0  0  0  0  0
   58.9384   29.6403   48.4612 H   0  0  0  0  0  0  0  0  0  0  0  0
   58.4310   27.1994   48.4799 H   0  0  0  0  0  0  0  0  0  0  0  0
   58.8402   24.9791   46.0565 H   0  0  0  0  0  0  0  0  0  0  0  0
   57.6056   25.3159   47.3355 H   0  0  0  0  0  0  0  0  0  0  0  0
   57.1803   25.6410   44.3437 H   0  0  0  0  0  0  0  0  0  0  0  0
   56.1960   23.4940   44.2980 H   0  0  0  0  0  0  0  0  0  0  0  0
   54.4018   19.1211   47.8085 H   0  0  0  0  0  0  0  0  0  0  0  0
   54.8450   17.8696   45.7017 H   0  0  0  0  0  0  0  0  0  0  0  0
   56.1505   18.9328   43.8655 H   0  0  0  0  0  0  0  0  0  0  0  0
   58.2776   27.1980   44.1509 H   0  0  0  0  0  0  0  0  0  0  0  0
   58.7986   29.6360   44.1314 H   0  0  0  0  0  0  0  0  0  0  0  0
   56.8991   34.8788   45.8804 H   0  0  0  0  0  0  0  0  0  0  0  0
   57.9734   35.1184   44.4608 H   0  0  0  0  0  0  0  0  0  0  0  0
   56.7689   33.7858   44.4608 H   0  0  0  0  0  0  0  0  0  0  0  0
  1  2  1  0
  2  3  1  0
  3  4  1  0
  4  5  1  0
  4  6  2  0
  6  7  1  0
  7  8  2  0
  8  9  1  0
  9 10  2  0
 10 11  1  0
 11 12  1  0
 12 13  1  0
 13 14  1  0
 14 15  2  0
 14 16  1  0
 16 17  2  0
 17 18  1  0
 17 19  1  0
 19 20  2  0
 20 21  1  0
 21 22  2  0
 22 23  1  0
 12 24  1  0
 24 25  2  0
 24 26  1  0
 10 27  1  0
 27 28  2  0
  6 29  1  0
 29 30  2  0
 29 31  1  0
 31 32  1  0
 31 33  1  0
 33 34  2  0
 33  3  1  0
 28  7  1  0
 22 16  1  0
  1 35  1  0
  1 36  1  0
  1 37  1  0
  2 38  1  0
  2 39  1  0
  5 40  1  0
  5 41  1  0
  8 42  1  0
  9 43  1  0
 11 44  1  0
 11 45  1  0
 12 46  1  6
 13 47  1  0
 19 48  1  0
 20 49  1  0
 21 50  1  0
 27 51  1  0
 28 52  1  0
 32 53  1  0
 32 54  1  0
 32 55  1  0
M  CHG  1  26  -1
M  END
>  <UniqueID>  (12) 
11

>  <SMILES>  (12) 
CCn1c(N)c(-c2ccc(C[C@@H](NC(=O)c3c(Cl)cccc3Cl)C(=O)[O-])cc2)c(=O)n(C)c1=O

>  <Energy>  (12) 
79.28286624314175

>  <Genealogy>  (12) 
CCn1c(N)c(-c2ccc(CC(NC(=O)c3c(Cl)cccc3Cl)C(=O)[O-])cc2)c(=O)n(C)c1=O (protonated)
CCn1c(N)c(-c2ccc(C[C@@H](NC(=O)c3c(Cl)cccc3Cl)C(=O)[O-])cc2)c(=O)n(C)c1=O (chirality)
CCn1c(N)c(-c2ccc(C[C@@H](NC(=O)c3c(Cl)cccc3Cl)C(=O)[O-])cc2)c(=O)n(C)c1=O (3D coordinates assigned)
CCn1c(N)c(-c2ccc(C[C@@H](NC(=O)c3c(Cl)cccc3Cl)C(=O)[O-])cc2)c(=O)n(C)c1=O (optimized conformer: 79.28286624314175 kcal/mol)

>  <smiles>  (12) 
CCn1c(N)c(-c2ccc(CC(NC(=O)c3c(Cl)cccc3Cl)C(=O)O)cc2)c(=O)n(C)c1=O

>  <score_type>  (12) 
oracle

>  <origin>  (12) 
adg

>  <m_score__min__energy>  (12) 
-10.720000000000001

>  <m_primary>  (12) 
energy

$$$$
12:0
     RDKit          3D

 53 56  0  0  0  0  0  0  0  0999 V2000
   54.4020   24.0350   45.9710 C   0  0  0  0  0  0  0  0  0  0  0  0
   55.5330   25.0100   46.0280 C   0  0  0  0  0  0  0  0  0  0  0  0
   56.8540   24.5570   46.1260 C   0  0  0  0  0  0  0  0  0  0  0  0
   57.9000   25.4830   46.1560 C   0  0  0  0  0  0  0  0  0  0  0  0
   59.0910   25.0730   46.2120 O   0  0  0  0  0  0  0  0  0  0  0  0
   57.6160   26.8600   46.1020 C   0  0  0  0  0  0  0  0  0  0  0  0
   58.6860   27.8760   46.1400 C   0  0  0  0  0  0  0  0  0  0  0  0
   59.8590   27.5400   45.8330 O   0  0  0  0  0  0  0  0  0  0  0  0
   58.4320   29.2380   46.5030 N   0  0  0  0  0  0  0  0  0  0  0  0
   58.1390   30.5290   45.3810 S   0  0  0  0  0  0  0  0  0  0  0  0
   58.8280   30.2650   44.0710 O   0  0  0  0  0  0  0  0  0  0  0  0
   56.6600   30.6390   45.1410 O   0  0  0  0  0  0  0  0  0  0  0  0
   58.7710   32.0410   46.0530 C   0  0  0  0  0  0  0  0  0  0  0  0
   59.6890   31.9800   47.1140 C   0  0  0  0  0  0  0  0  0  0  0  0
   60.2140   33.1500   47.6850 C   0  0  0  0  0  0  0  0  0  0  0  0
   61.1870   33.0600   48.7960 C   0  0  0  0  0  0  0  0  0  0  0  0
   60.8840   32.8810   50.1360 C   0  0  0  0  0  0  0  0  0  0  0  0
   62.0290   32.8560   50.8400 N   0  0  0  0  0  0  0  0  0  0  0  0
   63.0520   33.0120   50.0130 N   0  0  0  0  0  0  0  0  0  0  0  0
   64.4250   33.0340   50.4430 C   0  0  0  0  0  0  0  0  0  0  0  0
   65.3090   32.0250   50.0380 C   0  0  0  0  0  0  0  0  0  0  0  0
   66.6430   32.0580   50.4460 C   0  0  0  0  0  0  0  0  0  0  0  0
   67.0870   33.1110   51.2470 C   0  0  0  0  0  0  0  0  0  0  0  0
   66.2240   34.0950   51.6170 N   0  0  0  0  0  0  0  0  0  0  0  0
   64.9190   34.0820   51.2360 C   0  0  0  0  0  0  0  0  0  0  0  0
   62.5760   33.1590   48.7530 C   0  0  0  0  0  0  0  0  0  0  0  0
   63.4070   33.4930   47.5480 C   0  0  0  0  0  0  0  0  0  0  0  0
   59.8330   34.3930   47.1650 C   0  0  0  0  0  0  0  0  0  0  0  0
   58.9200   34.4700   46.1130 C   0  0  0  0  0  0  0  0  0  0  0  0
   58.3660   33.3050   45.5570 C   0  0  0  0  0  0  0  0  0  0  0  0
   57.3980   33.4390   44.4100 C   0  0  0  0  0  0  0  0  0  0  0  0
   56.2800   27.2670   45.9720 C   0  0  0  0  0  0  0  0  0  0  0  0
   55.2820   26.3430   45.9420 N   0  0  0  0  0  0  0  0  0  0  0  0
   54.0945   23.7699   46.9934 H   0  0  0  0  0  0  0  0  0  0  0  0
   53.5530   24.4889   45.4388 H   0  0  0  0  0  0  0  0  0  0  0  0
   54.7259   23.1284   45.4388 H   0  0  0  0  0  0  0  0  0  0  0  0
   57.0671   23.4791   46.1790 H   0  0  0  0  0  0  0  0  0  0  0  0
   60.0016   31.0000   47.5037 H   0  0  0  0  0  0  0  0  0  0  0  0
   59.8724   32.7765   50.5552 H   0  0  0  0  0  0  0  0  0  0  0  0
   62.1070   32.7180   51.8720 H   0  0  0  0  0  0  0  0  0  0  0  0
   64.9508   31.2056   49.3974 H   0  0  0  0  0  0  0  0  0  0  0  0
   67.3376   31.2621   50.1394 H   0  0  0  0  0  0  0  0  0  0  0  0
   68.1351   33.1452   51.5792 H   0  0  0  0  0  0  0  0  0  0  0  0
   64.2480   34.8951   51.5500 H   0  0  0  0  0  0  0  0  0  0  0  0
   64.3823   33.8850   47.8724 H   0  0  0  0  0  0  0  0  0  0  0  0
   63.5587   32.5860   46.9444 H   0  0  0  0  0  0  0  0  0  0  0  0
   62.8888   34.2527   46.9444 H   0  0  0  0  0  0  0  0  0  0  0  0
   60.2566   35.3154   47.5890 H   0  0  0  0  0  0  0  0  0  0  0  0
   58.6308   35.4537   45.7146 H   0  0  0  0  0  0  0  0  0  0  0  0
   56.3805   33.5799   44.8035 H   0  0  0  0  0  0  0  0  0  0  0  0
   57.6766   34.3071   43.7946 H   0  0  0  0  0  0  0  0  0  0  0  0
   57.4303   32.5278   43.7946 H   0  0  0  0  0  0  0  0  0  0  0  0
   56.0383   28.3373   45.8940 H   0  0  0  0  0  0  0  0  0  0  0  0
  1  2  1  0
  2  3  2  0
  3  4  1  0
  4  5  2  0
  4  6  1  0
  6  7  1  0
  7  8  2  0
  7  9  1  0
  9 10  1  0
 10 11  2  0
 10 12  2  0
 10 13  1  0
 13 14  2  0
 14 15  1  0
 15 16  1  0
 16 17  1  0
 17 18  2  0
 18 19  1  0
 19 20  1  0
 20 21  2  0
 21 22  1  0
 22 23  2  0
 23 24  1  0
 24 25  2  0
 19 26  1  0
 26 27  1  0
 15 28  2  0
 28 29  1  0
 29 30  2  0
 30 31  1  0
  6 32  2  0
 32 33  1  0
 33  2  1  0
 30 13  1  0
 26 16  2  0
 25 20  1  0
  1 34  1  0
  1 35  1  0
  1 36  1  0
  3 37  1  0
 14 38  1  0
 17 39  1  0
 18 40  1  0
 21 41  1  0
 22 42  1  0
 23 43  1  0
 25 44  1  0
 27 45  1  0
 27 46  1  0
 27 47  1  0
 28 48  1  0
 29 49  1  0
 31 50  1  0
 31 51  1  0
 31 52  1  0
 32 53  1  0
M  CHG  3   9  -1  18   1  33  -1
M  END
>  <UniqueID>  (13) 
12

>  <SMILES>  (13) 
Cc1cc(=O)c(C(=O)[N-]S(=O)(=O)c2cc(-c3c[nH+]n(-c4cccnc4)c3C)ccc2C)c[n-]1

>  <Energy>  (13) 
109.24081534690248

>  <Genealogy>  (13) 
Cc1cc(=O)c(C(=O)[N-]S(=O)(=O)c2cc(-c3c[nH+]n(-c4cccnc4)c3C)ccc2C)c[n-]1 (protonated)
Cc1cc(=O)c(C(=O)[N-]S(=O)(=O)c2cc(-c3c[nH+]n(-c4cccnc4)c3C)ccc2C)c[n-]1 (3D coordinates assigned)
Cc1cc(=O)c(C(=O)[N-]S(=O)(=O)c2cc(-c3c[nH+]n(-c4cccnc4)c3C)ccc2C)c[n-]1 (optimized conformer: 109.24081534690248 kcal/mol)

>  <smiles>  (13) 
Cc1cc(=O)c(C(=O)NS(=O)(=O)c2cc(-c3cnn(-c4cccnc4)c3C)ccc2C)c[nH]1

>  <score_type>  (13) 
oracle

>  <origin>  (13) 
adg

>  <m_score__min__energy>  (13) 
-11.890000000000001

>  <m_primary>  (13) 
energy

$$$$
13:0
     RDKit          3D

 47 49  0  0  0  0  0  0  0  0999 V2000
   54.2440   26.5790   46.3650 H   0  0  0  0  0  0  0  0  0  0  0  0
   55.2000   26.3710   46.0010 N   0  0  0  0  0  0  0  0  0  0  0  0
   56.1190   27.2800   45.9590 C   0  0  0  0  0  0  0  0  0  0  0  0
   57.2920   27.1000   46.6250 N   0  0  0  0  0  0  0  0  0  0  0  0
   58.2740   28.0400   46.5870 C   0  0  0  0  0  0  0  0  0  0  0  0
   59.5410   27.8230   47.3520 C   0  0  0  0  0  0  0  0  0  0  0  0
   59.8848   26.7883   47.2062 H   0  0  0  0  0  0  0  0  0  0  0  0
   60.3117   28.5197   46.9905 H   0  0  0  0  0  0  0  0  0  0  0  0
   59.2990   28.0590   48.7680 N   0  0  0  0  0  0  0  0  0  0  0  0
   60.1630   28.8590   49.5800 C   0  0  0  0  0  0  0  0  0  0  0  0
   61.1890   28.3480   50.1070 O   0  0  0  0  0  0  0  0  0  0  0  0
   59.8530   30.3160   49.7830 C   0  0  2  0  0  0  0  0  0  0  0  0
   60.7566   30.8214   50.1546 H   0  0  0  0  0  0  0  0  0  0  0  0
   58.7530   30.4700   50.8110 C   0  0  0  0  0  0  0  0  0  0  0  0
   58.4720   29.4400   51.7290 C   0  0  0  0  0  0  0  0  0  0  0  0
   59.0459   28.5024   51.6913 H   0  0  0  0  0  0  0  0  0  0  0  0
   57.4680   29.6020   52.6880 C   0  0  0  0  0  0  0  0  0  0  0  0
   57.2484   28.7894   53.3962 H   0  0  0  0  0  0  0  0  0  0  0  0
   56.7430   30.7950   52.7480 C   0  0  0  0  0  0  0  0  0  0  0  0
   55.9512   30.9202   53.5012 H   0  0  0  0  0  0  0  0  0  0  0  0
   57.0240   31.8290   51.8510 C   0  0  0  0  0  0  0  0  0  0  0  0
   56.4553   32.7692   51.9015 H   0  0  0  0  0  0  0  0  0  0  0  0
   58.0260   31.6710   50.8900 C   0  0  0  0  0  0  0  0  0  0  0  0
   58.2474   32.4911   50.1911 H   0  0  0  0  0  0  0  0  0  0  0  0
   59.4750   30.9500   48.5150 N   0  0  0  0  0  0  0  0  0  0  0  0
   59.0640   30.3690   47.7500 H   0  0  0  0  0  0  0  0  0  0  0  0
   59.6430   32.3600   48.2940 C   0  0  0  0  0  0  0  0  0  0  0  0
   60.2630   33.0570   49.1430 O   0  0  0  0  0  0  0  0  0  0  0  0
   59.0680   33.0050   47.0880 C   0  0  0  0  0  0  0  0  0  0  0  0
   57.6910   32.8640   46.8380 C   0  0  0  0  0  0  0  0  0  0  0  0
   57.0735   32.2614   47.5203 H   0  0  0  0  0  0  0  0  0  0  0  0
   57.0990   33.4800   45.7340 C   0  0  0  0  0  0  0  0  0  0  0  0
   56.0219   33.3564   45.5478 H   0  0  0  0  0  0  0  0  0  0  0  0
   57.8710   34.2510   44.8680 C   0  0  0  0  0  0  0  0  0  0  0  0
   57.4007   34.7412   44.0028 H   0  0  0  0  0  0  0  0  0  0  0  0
   59.2380   34.4030   45.0950 C   0  0  0  0  0  0  0  0  0  0  0  0
   59.8391   35.0181   44.4092 H   0  0  0  0  0  0  0  0  0  0  0  0
   59.8560   33.7770   46.1930 C   0  0  0  0  0  0  0  0  0  0  0  0
   61.3410   33.9480   46.3820 C   0  0  0  0  0  0  0  0  0  0  0  0
   61.5731   33.9747   47.4569 H   0  0  0  0  0  0  0  0  0  0  0  0
   61.8697   33.1048   45.9135 H   0  0  0  0  0  0  0  0  0  0  0  0
   61.6643   34.8893   45.9135 H   0  0  0  0  0  0  0  0  0  0  0  0
   58.0690   29.2230   45.8660 C   0  0  0  0  0  0  0  0  0  0  0  0
   58.8441   30.0028   45.8325 H   0  0  0  0  0  0  0  0  0  0  0  0
   56.8590   29.3900   45.1910 C   0  0  0  0  0  0  0  0  0  0  0  0
   56.6420   30.4390   44.5310 O   0  0  0  0  0  0  0  0  0  0  0  0
   55.9110   28.4190   45.2490 N   0  0  0  0  0  0  0  0  0  0  0  0
  1  2  1  0
  2  3  2  0
  3  4  1  0
  4  5  1  0
  5  6  1  0
  6  7  1  0
  6  8  1  0
  6  9  1  0
  9 10  1  0
 10 11  2  0
 10 12  1  0
 12 13  1  1
 12 14  1  0
 14 15  2  0
 15 16  1  0
 15 17  1  0
 17 18  1  0
 17 19  2  0
 19 20  1  0
 19 21  1  0
 21 22  1  0
 21 23  2  0
 23 24  1  0
 12 25  1  0
 25 26  1  0
 25 27  1  0
 27 28  2  0
 27 29  1  0
 29 30  2  0
 30 31  1  0
 30 32  1  0
 32 33  1  0
 32 34  2  0
 34 35  1  0
 34 36  1  0
 36 37  1  0
 36 38  2  0
 38 39  1  0
 39 40  1  0
 39 41  1  0
 39 42  1  0
  5 43  2  0
 43 44  1  0
 43 45  1  0
 45 46  2  0
 45 47  1  0
 47  3  1  0
 23 14  1  0
 38 29  1  0
M  CHG  3   4  -1   9  -1  47  -1
M  END
>  <UniqueID>  (14) 
13

>  <SMILES>  (14) 
[H]/N=c1\[n-]c(C[N-]C(=O)[C@@H](NC(=O)c2ccccc2C)c2ccccc2)cc(=O)[n-]1

>  <Energy>  (14) 
50.54858301917335

>  <Genealogy>  (14) 
Cc1ccccc1C(=O)NC(C(=O)[N-]Cc1cc(=O)[n-]c(=N)[n-]1)c1ccccc1 (protonated)
Cc1ccccc1C(=O)N[C@H](C(=O)[N-]Cc1cc(=O)[n-]c(=N)[n-]1)c1ccccc1 (chirality)
[H]/N=c1\[n-]c(C[N-]C(=O)[C@@H](NC(=O)c2ccccc2C)c2ccccc2)cc(=O)[n-]1 (cis-trans isomerization)
[H]/N=c1\[n-]c(C[N-]C(=O)[C@@H](NC(=O)c2ccccc2C)c2ccccc2)cc(=O)[n-]1 (3D coordinates assigned)
[H]/N=c1\[n-]c(C[N-]C(=O)[C@@H](NC(=O)c2ccccc2C)c2ccccc2)cc(=O)[n-]1 (optimized conformer: 50.54858301917335 kcal/mol)

>  <smiles>  (14) 
Cc1ccccc1C(=O)NC(C(=O)NCc1cc(=O)[nH]c(=N)[nH]1)c1ccccc1

>  <score_type>  (14) 
oracle

>  <origin>  (14) 
adg

>  <m_score__min__energy>  (14) 
-15.130000000000001

>  <m_primary>  (14) 
energy

$$$$
14:0
     RDKit          3D

 60 64  0  0  0  0  0  0  0  0999 V2000
   58.9280   30.5740   47.2940 C   0  0  0  0  0  0  0  0  0  0  0  0
   58.2940   31.2250   46.3030 C   0  0  0  0  0  0  0  0  0  0  0  0
   57.9460   30.7010   45.0450 C   0  0  0  0  0  0  0  0  0  0  0  0
   58.0110   29.4470   44.5530 C   0  0  0  0  0  0  0  0  0  0  0  0
   57.4280   28.2430   45.1750 C   0  0  0  0  0  0  0  0  0  0  0  0
   56.0370   28.0900   45.3000 C   0  0  0  0  0  0  0  0  0  0  0  0
   55.1700   29.0890   44.8720 O   0  0  0  0  0  0  0  0  0  0  0  0
   55.5280   26.9520   45.8390 N   0  0  0  0  0  0  0  0  0  0  0  0
   56.3410   25.9450   46.2480 C   0  0  0  0  0  0  0  0  0  0  0  0
   55.8470   24.9030   46.7500 O   0  0  0  0  0  0  0  0  0  0  0  0
   57.6870   26.0600   46.1120 N   0  0  0  0  0  0  0  0  0  0  0  0
   58.2460   27.1770   45.5790 C   0  0  0  0  0  0  0  0  0  0  0  0
   59.4990   27.2470   45.4610 O   0  0  0  0  0  0  0  0  0  0  0  0
   57.4600   31.7610   44.3040 C   0  0  0  0  0  0  0  0  0  0  0  0
   57.4660   32.8650   45.1270 C   0  0  0  0  0  0  0  0  0  0  0  0
   57.0270   34.2330   44.6970 C   0  0  0  0  0  0  0  0  0  0  0  0
   57.9780   32.5530   46.3420 N   0  0  0  0  0  0  0  0  0  0  0  0
   58.1570   33.5090   47.4510 C   0  0  0  0  0  0  0  0  0  0  0  0
   59.5590   33.4450   48.0050 C   0  0  0  0  0  0  0  0  0  0  0  0
   60.6620   33.6320   47.1530 C   0  0  0  0  0  0  0  0  0  0  0  0
   61.9640   33.5610   47.6530 C   0  0  0  0  0  0  0  0  0  0  0  0
   62.1860   33.3060   49.0110 C   0  0  0  0  0  0  0  0  0  0  0  0
   63.5210   33.2280   49.5140 N   0  0  0  0  0  0  0  0  0  0  0  0
   64.8460   32.7420   49.0360 C   0  0  0  0  0  0  0  0  0  0  0  0
   65.5400   32.9170   50.3690 C   0  0  1  0  0  0  0  0  0  0  0  0
   65.6150   31.5340   51.0750 C   0  0  0  0  0  0  0  0  0  0  0  0
   66.7320   33.8120   50.7210 C   0  0  0  0  0  0  0  0  0  0  0  0
   66.4860   34.5210   52.1090 C   0  0  0  0  0  0  0  0  0  0  0  0
   65.1940   34.0930   52.9200 C   0  0  0  0  0  0  0  0  0  0  0  0
   63.9230   33.7260   52.0760 C   0  0  0  0  0  0  0  0  0  0  0  0
   64.3260   33.7700   50.6150 C   0  0  2  0  0  0  0  0  0  0  0  0
   61.0930   33.1340   49.8690 C   0  0  0  0  0  0  0  0  0  0  0  0
   59.7870   33.2050   49.3740 C   0  0  0  0  0  0  0  0  0  0  0  0
   58.7500   33.0460   50.2320 F   0  0  0  0  0  0  0  0  0  0  0  0
   59.1478   31.0914   48.2395 H   0  0  0  0  0  0  0  0  0  0  0  0
   59.2269   29.5240   47.1592 H   0  0  0  0  0  0  0  0  0  0  0  0
   58.5470   29.3095   43.6023 H   0  0  0  0  0  0  0  0  0  0  0  0
   57.1306   31.7291   43.2550 H   0  0  0  0  0  0  0  0  0  0  0  0
   56.8288   34.8506   45.5854 H   0  0  0  0  0  0  0  0  0  0  0  0
   57.8203   34.7003   44.0951 H   0  0  0  0  0  0  0  0  0  0  0  0
   56.1099   34.1515   44.0951 H   0  0  0  0  0  0  0  0  0  0  0  0
   57.9630   34.5270   47.0821 H   0  0  0  0  0  0  0  0  0  0  0  0
   57.4526   33.2469   48.2542 H   0  0  0  0  0  0  0  0  0  0  0  0
   60.4980   33.8358   46.0845 H   0  0  0  0  0  0  0  0  0  0  0  0
   62.8190   33.7062   46.9763 H   0  0  0  0  0  0  0  0  0  0  0  0
   64.8228   31.6953   48.6986 H   0  0  0  0  0  0  0  0  0  0  0  0
   65.2877   33.2405   48.1606 H   0  0  0  0  0  0  0  0  0  0  0  0
   65.6072   31.6781   52.1655 H   0  0  0  0  0  0  0  0  0  0  0  0
   64.7486   30.9240   50.7795 H   0  0  0  0  0  0  0  0  0  0  0  0
   66.5423   31.0213   50.7795 H   0  0  0  0  0  0  0  0  0  0  0  0
   67.6425   33.1979   50.7824 H   0  0  0  0  0  0  0  0  0  0  0  0
   66.8497   34.5785   49.9409 H   0  0  0  0  0  0  0  0  0  0  0  0
   67.3595   34.3157   52.7452 H   0  0  0  0  0  0  0  0  0  0  0  0
   66.3285   35.5814   51.8625 H   0  0  0  0  0  0  0  0  0  0  0  0
   65.4569   33.2138   53.5265 H   0  0  0  0  0  0  0  0  0  0  0  0
   64.9089   34.9825   53.5010 H   0  0  0  0  0  0  0  0  0  0  0  0
   63.5737   32.7169   52.3403 H   0  0  0  0  0  0  0  0  0  0  0  0
   63.1042   34.4327   52.2763 H   0  0  0  0  0  0  0  0  0  0  0  0
   64.3341   34.8685   50.5583 H   0  0  0  0  0  0  0  0  0  0  0  0
   61.2626   32.9419   50.9387 H   0  0  0  0  0  0  0  0  0  0  0  0
  1  2  2  0
  2  3  1  0
  3  4  2  3
  4  5  1  0
  5  6  2  0
  6  7  1  0
  6  8  1  0
  8  9  1  0
  9 10  2  0
  9 11  1  0
 11 12  1  0
 12 13  2  0
  3 14  1  0
 14 15  2  0
 15 16  1  0
 15 17  1  0
 17 18  1  0
 18 19  1  0
 19 20  2  0
 20 21  1  0
 21 22  2  0
 22 23  1  0
 23 24  1  0
 24 25  1  0
 25 26  1  1
 25 27  1  0
 27 28  1  0
 28 29  1  0
 29 30  1  0
 30 31  1  0
 22 32  1  0
 32 33  2  0
 33 34  1  0
 17  2  1  0
 33 19  1  0
 12  5  1  0
 31 23  1  0
 31 25  1  0
  1 35  1  0
  1 36  1  0
  4 37  1  0
 14 38  1  0
 16 39  1  0
 16 40  1  0
 16 41  1  0
 18 42  1  0
 18 43  1  0
 20 44  1  0
 21 45  1  0
 24 46  1  0
 24 47  1  0
 26 48  1  0
 26 49  1  0
 26 50  1  0
 27 51  1  0
 27 52  1  0
 28 53  1  0
 28 54  1  0
 29 55  1  0
 29 56  1  0
 30 57  1  0
 30 58  1  0
 31 59  1  6
 32 60  1  0
M  CHG  3   7  -1   8  -1  11  -1
M  END
>  <UniqueID>  (15) 
14

>  <SMILES>  (15) 
C=c1c(=Cc2c([O-])[n-]c(=O)[n-]c2=O)cc(C)n1Cc1ccc(N2C[C@@]3(C)CCCC[C@H]23)cc1F

>  <Energy>  (15) 
197.32862631269418

>  <Genealogy>  (15) 
C=c1c(=Cc2c([O-])[n-]c(=O)[n-]c2=O)cc(C)n1Cc1ccc(N2CC3(C)CCCCC23)cc1F (protonated)
C=c1c(=Cc2c([O-])[n-]c(=O)[n-]c2=O)cc(C)n1Cc1ccc(N2C[C@@]3(C)CCCC[C@H]23)cc1F (chirality)
C=c1c(=Cc2c([O-])[n-]c(=O)[n-]c2=O)cc(C)n1Cc1ccc(N2C[C@@]3(C)CCCC[C@H]23)cc1F (3D coordinates assigned)
C=c1c(=Cc2c([O-])[n-]c(=O)[n-]c2=O)cc(C)n1Cc1ccc(N2C[C@@]3(C)CCCC[C@H]23)cc1F (nonaromatic ring conformer: 197.32862631269418 kcal/mol)

>  <smiles>  (15) 
C=c1c(=Cc2c(O)[nH]c(=O)[nH]c2=O)cc(C)n1Cc1ccc(N2CC3(C)CCCCC23)cc1F

>  <score_type>  (15) 
oracle

>  <origin>  (15) 
adg

>  <m_score__min__energy>  (15) 
-17.059999999999999

>  <m_primary>  (15) 
energy

$$$$
15:0
     RDKit          3D

 48 49  0  0  0  0  0  0  0  0999 V2000
   58.0600   28.2140   46.0640 C   0  0  0  0  0  0  0  0  0  0  0  0
   57.7830   29.6150   45.4990 C   0  0  0  0  0  0  0  0  0  0  0  0
   58.7620   29.8740   44.3330 C   0  0  0  0  0  0  0  0  0  0  0  0
   58.0130   30.5560   46.5550 O   0  0  0  0  0  0  0  0  0  0  0  0
   59.1180   30.6170   47.4290 C   0  0  0  0  0  0  0  0  0  0  0  0
   58.8650   30.8540   48.7910 C   0  0  0  0  0  0  0  0  0  0  0  0
   59.9080   30.8670   49.7220 C   0  0  0  0  0  0  0  0  0  0  0  0
   61.2330   30.6870   49.2970 C   0  0  0  0  0  0  0  0  0  0  0  0
   62.3560   30.6110   50.2950 C   0  0  0  0  0  0  0  0  0  0  0  0
   63.5130   31.3540   49.7810 N   0  0  0  0  0  0  0  0  0  0  0  0
   63.2220   33.0650   49.8820 S   0  0  0  0  0  0  0  0  0  0  0  0
   64.5020   33.8070   49.6060 O   0  0  0  0  0  0  0  0  0  0  0  0
   62.7900   33.4000   51.2860 O   0  0  0  0  0  0  0  0  0  0  0  0
   61.9650   33.5790   48.7340 C   0  0  0  0  0  0  0  0  0  0  0  0
   60.7110   33.9490   49.2510 C   0  0  0  0  0  0  0  0  0  0  0  0
   59.6900   34.3940   48.4080 C   0  0  0  0  0  0  0  0  0  0  0  0
   59.8980   34.4720   47.0200 C   0  0  0  0  0  0  0  0  0  0  0  0
   58.8840   34.9440   46.1170 N   0  0  0  0  0  0  0  0  0  0  0  0
   58.2450   34.1900   45.3130 C   0  0  0  0  0  0  0  0  0  0  0  0
   57.4370   33.2400   44.2950 S   0  0  0  0  0  0  0  0  0  0  0  0
   61.1370   34.0840   46.4930 C   0  0  0  0  0  0  0  0  0  0  0  0
   62.1740   33.6250   47.3290 C   0  0  0  0  0  0  0  0  0  0  0  0
   63.4980   33.2760   46.6860 C   0  0  0  0  0  0  0  0  0  0  0  0
   63.9700   32.0660   47.2180 O   0  0  0  0  0  0  0  0  0  0  0  0
   61.4960   30.4820   47.9290 C   0  0  0  0  0  0  0  0  0  0  0  0
   60.4500   30.4500   47.0020 C   0  0  0  0  0  0  0  0  0  0  0  0
   56.3410   29.6610   45.0570 C   0  0  0  0  0  0  0  0  0  0  0  0
   55.8650   30.6850   44.4970 O   0  0  0  0  0  0  0  0  0  0  0  0
   55.5320   28.5450   45.2290 O   0  0  0  0  0  0  0  0  0  0  0  0
   58.0521   28.2538   47.1633 H   0  0  0  0  0  0  0  0  0  0  0  0
   57.2820   27.5182   45.7167 H   0  0  0  0  0  0  0  0  0  0  0  0
   59.0442   27.8666   45.7167 H   0  0  0  0  0  0  0  0  0  0  0  0
   59.7514   30.1358   44.7362 H   0  0  0  0  0  0  0  0  0  0  0  0
   58.8457   28.9671   43.7161 H   0  0  0  0  0  0  0  0  0  0  0  0
   58.3862   30.7036   43.7161 H   0  0  0  0  0  0  0  0  0  0  0  0
   57.8333   31.0315   49.1288 H   0  0  0  0  0  0  0  0  0  0  0  0
   59.6895   31.0186   50.7894 H   0  0  0  0  0  0  0  0  0  0  0  0
   62.0304   31.0518   51.2488 H   0  0  0  0  0  0  0  0  0  0  0  0
   62.6354   29.5593   50.4559 H   0  0  0  0  0  0  0  0  0  0  0  0
   63.6360   31.1120   48.7700 H   0  0  0  0  0  0  0  0  0  0  0  0
   60.5314   33.8872   50.3345 H   0  0  0  0  0  0  0  0  0  0  0  0
   58.7179   34.6850   48.8326 H   0  0  0  0  0  0  0  0  0  0  0  0
   61.3030   34.1388   45.4070 H   0  0  0  0  0  0  0  0  0  0  0  0
   63.3620   33.1709   45.5995 H   0  0  0  0  0  0  0  0  0  0  0  0
   64.2265   34.0751   46.8878 H   0  0  0  0  0  0  0  0  0  0  0  0
   64.4800   32.3000   48.0280 H   0  0  0  0  0  0  0  0  0  0  0  0
   62.5326   30.3460   47.5870 H   0  0  0  0  0  0  0  0  0  0  0  0
   60.6679   30.2938   45.9352 H   0  0  0  0  0  0  0  0  0  0  0  0
  1  2  1  0
  2  3  1  0
  2  4  1  0
  4  5  1  0
  5  6  2  0
  6  7  1  0
  7  8  2  0
  8  9  1  0
  9 10  1  0
 10 11  1  0
 11 12  2  0
 11 13  2  0
 11 14  1  0
 14 15  2  0
 15 16  1  0
 16 17  2  0
 17 18  1  0
 18 19  2  0
 19 20  2  0
 17 21  1  0
 21 22  2  0
 22 23  1  0
 23 24  1  0
  8 25  1  0
 25 26  2  0
  2 27  1  0
 27 28  2  0
 27 29  1  0
 26  5  1  0
 22 14  1  0
  1 30  1  0
  1 31  1  0
  1 32  1  0
  3 33  1  0
  3 34  1  0
  3 35  1  0
  6 36  1  0
  7 37  1  0
  9 38  1  0
  9 39  1  0
 10 40  1  0
 15 41  1  0
 16 42  1  0
 21 43  1  0
 23 44  1  0
 23 45  1  0
 24 46  1  0
 25 47  1  0
 26 48  1  0
M  CHG  1  29  -1
M  END
>  <UniqueID>  (16) 
15

>  <SMILES>  (16) 
CC(C)(Oc1ccc(CNS(=O)(=O)c2ccc(N=C=S)cc2CO)cc1)C(=O)[O-]

>  <Energy>  (16) 
49.83269325531734

>  <Genealogy>  (16) 
CC(C)(Oc1ccc(CNS(=O)(=O)c2ccc(N=C=S)cc2CO)cc1)C(=O)[O-] (protonated)
CC(C)(Oc1ccc(CNS(=O)(=O)c2ccc(N=C=S)cc2CO)cc1)C(=O)[O-] (3D coordinates assigned)
CC(C)(Oc1ccc(CNS(=O)(=O)c2ccc(N=C=S)cc2CO)cc1)C(=O)[O-] (optimized conformer: 49.83269325531734 kcal/mol)

>  <smiles>  (16) 
CC(C)(Oc1ccc(CNS(=O)(=O)c2ccc(N=C=S)cc2CO)cc1)C(=O)O

>  <score_type>  (16) 
oracle

>  <origin>  (16) 
adg

>  <m_score__min__energy>  (16) 
-11.16

>  <m_primary>  (16) 
energy

$$$$
16:0
     RDKit          3D

 50 53  0  0  0  0  0  0  0  0999 V2000
   56.5980   32.3060   44.9370 O   0  0  0  0  0  0  0  0  0  0  0  0
   57.5350   31.4890   44.7240 C   0  0  0  0  0  0  0  0  0  0  0  0
   57.3270   30.3760   43.7430 C   0  0  0  0  0  0  0  0  0  0  0  0
   57.5000   29.0460   44.4290 C   0  0  0  0  0  0  0  0  0  0  0  0
   58.7760   28.4580   44.4960 C   0  0  0  0  0  0  0  0  0  0  0  0
   58.9590   27.2370   45.1490 C   0  0  0  0  0  0  0  0  0  0  0  0
   57.8700   26.5940   45.7470 C   0  0  0  0  0  0  0  0  0  0  0  0
   56.6020   27.1770   45.7010 C   0  0  0  0  0  0  0  0  0  0  0  0
   56.4120   28.4010   45.0500 C   0  0  0  0  0  0  0  0  0  0  0  0
   55.1440   28.9690   45.0260 O   0  0  0  0  0  0  0  0  0  0  0  0
   58.7900   31.6230   45.4090 N   0  0  0  0  0  0  0  0  0  0  0  0
   59.1680   32.7860   46.1630 C   0  0  0  0  0  0  0  0  0  0  0  0
   59.5260   33.9860   45.5250 C   0  0  0  0  0  0  0  0  0  0  0  0
   59.9080   35.0980   46.2800 C   0  0  0  0  0  0  0  0  0  0  0  0
   59.9430   35.0230   47.6740 C   0  0  0  0  0  0  0  0  0  0  0  0
   59.5950   33.8300   48.3270 C   0  0  0  0  0  0  0  0  0  0  0  0
   59.6370   33.7410   49.8320 C   0  0  0  0  0  0  0  0  0  0  0  0
   59.0190   32.4560   50.3250 C   0  0  0  0  0  0  0  0  0  0  0  0
   57.8230   32.5280   50.9660 N   0  0  0  0  0  0  0  0  0  0  0  0
   57.2290   31.4520   51.4850 N   0  0  0  0  0  0  0  0  0  0  0  0
   57.7970   30.2230   51.4120 C   0  0  0  0  0  0  0  0  0  0  0  0
   57.2130   29.2400   51.9400 O   0  0  0  0  0  0  0  0  0  0  0  0
   59.0280   30.0700   50.7590 C   0  0  0  0  0  0  0  0  0  0  0  0
   59.6470   31.1960   50.1940 C   0  0  0  0  0  0  0  0  0  0  0  0
   60.9790   30.9930   49.5100 C   0  0  0  0  0  0  0  0  0  0  0  0
   60.9330   29.7400   48.6220 C   0  0  0  0  0  0  0  0  0  0  0  0
   60.3790   28.4810   49.3350 C   0  0  0  0  0  0  0  0  0  0  0  0
   59.7560   28.7460   50.7190 C   0  0  0  0  0  0  0  0  0  0  0  0
   59.2320   32.7080   47.5610 C   0  0  0  0  0  0  0  0  0  0  0  0
   56.3108   30.4420   43.3272 H   0  0  0  0  0  0  0  0  0  0  0  0
   58.0673   30.4643   42.9342 H   0  0  0  0  0  0  0  0  0  0  0  0
   59.6355   28.9631   44.0310 H   0  0  0  0  0  0  0  0  0  0  0  0
   59.9591   26.7811   45.1930 H   0  0  0  0  0  0  0  0  0  0  0  0
   58.0127   25.6283   46.2539 H   0  0  0  0  0  0  0  0  0  0  0  0
   55.7492   26.6721   46.1783 H   0  0  0  0  0  0  0  0  0  0  0  0
   59.4250   30.7940   45.4350 H   0  0  0  0  0  0  0  0  0  0  0  0
   59.5054   34.0501   44.4271 H   0  0  0  0  0  0  0  0  0  0  0  0
   60.1821   36.0357   45.7745 H   0  0  0  0  0  0  0  0  0  0  0  0
   60.2444   35.9020   48.2626 H   0  0  0  0  0  0  0  0  0  0  0  0
   60.6848   33.7846   50.1640 H   0  0  0  0  0  0  0  0  0  0  0  0
   59.0614   34.5826   50.2447 H   0  0  0  0  0  0  0  0  0  0  0  0
   61.2057   31.8713   48.8878 H   0  0  0  0  0  0  0  0  0  0  0  0
   61.7593   30.8632   50.2744 H   0  0  0  0  0  0  0  0  0  0  0  0
   60.2931   29.9551   47.7535 H   0  0  0  0  0  0  0  0  0  0  0  0
   61.9713   29.5134   48.3381 H   0  0  0  0  0  0  0  0  0  0  0  0
   59.6065   28.0349   48.6914 H   0  0  0  0  0  0  0  0  0  0  0  0
   61.2390   27.8162   49.5038 H   0  0  0  0  0  0  0  0  0  0  0  0
   59.0437   27.9402   50.9497 H   0  0  0  0  0  0  0  0  0  0  0  0
   60.5678   28.7780   51.4605 H   0  0  0  0  0  0  0  0  0  0  0  0
   58.9957   31.7589   48.0644 H   0  0  0  0  0  0  0  0  0  0  0  0
  1  2  2  0
  2  3  1  0
  3  4  1  0
  4  5  2  0
  5  6  1  0
  6  7  2  0
  7  8  1  0
  8  9  2  0
  9 10  1  0
  2 11  1  0
 11 12  1  0
 12 13  2  0
 13 14  1  0
 14 15  2  0
 15 16  1  0
 16 17  1  0
 17 18  1  0
 18 19  2  0
 19 20  1  0
 20 21  1  0
 21 22  2  0
 21 23  1  0
 23 24  2  0
 24 25  1  0
 25 26  1  0
 26 27  1  0
 27 28  1  0
 16 29  2  0
  9  4  1  0
 29 12  1  0
 24 18  1  0
 28 23  1  0
  3 30  1  0
  3 31  1  0
  5 32  1  0
  6 33  1  0
  7 34  1  0
  8 35  1  0
 11 36  1  0
 13 37  1  0
 14 38  1  0
 15 39  1  0
 17 40  1  0
 17 41  1  0
 25 42  1  0
 25 43  1  0
 26 44  1  0
 26 45  1  0
 27 46  1  0
 27 47  1  0
 28 48  1  0
 28 49  1  0
 29 50  1  0
M  CHG  2  10  -1  20  -1
M  END
>  <UniqueID>  (17) 
16

>  <SMILES>  (17) 
O=C(Cc1ccccc1[O-])Nc1cccc(Cc2n[n-]c(=O)c3c2CCCC3)c1

>  <Energy>  (17) 
63.159780711391896

>  <Genealogy>  (17) 
O=C(Cc1ccccc1[O-])Nc1cccc(Cc2n[n-]c(=O)c3c2CCCC3)c1 (protonated)
O=C(Cc1ccccc1[O-])Nc1cccc(Cc2n[n-]c(=O)c3c2CCCC3)c1 (3D coordinates assigned)
O=C(Cc1ccccc1[O-])Nc1cccc(Cc2n[n-]c(=O)c3c2CCCC3)c1 (nonaromatic ring conformer: 63.159780711391896 kcal/mol)

>  <smiles>  (17) 
O=C(Cc1ccccc1O)Nc1cccc(Cc2n[nH]c(=O)c3c2CCCC3)c1

>  <score_type>  (17) 
oracle

>  <origin>  (17) 
adg

>  <m_score__min__energy>  (17) 
-14.99

>  <m_primary>  (17) 
energy

$$$$
17:0
     RDKit          3D

 61 64  0  0  0  0  0  0  0  0999 V2000
   60.2870   29.1720   49.8510 C   0  0  0  0  0  0  0  0  0  0  0  0
   60.4710   29.8150   48.6900 C   0  0  0  0  0  0  0  0  0  0  0  0
   59.8810   29.5330   47.4460 C   0  0  0  0  0  0  0  0  0  0  0  0
   59.0640   28.5350   47.0540 C   0  0  0  0  0  0  0  0  0  0  0  0
   57.8660   28.6840   46.2160 C   0  0  0  0  0  0  0  0  0  0  0  0
   57.4190   29.8590   45.7350 N   0  0  0  0  0  0  0  0  0  0  0  0
   56.2460   29.5300   45.1530 C   0  0  0  0  0  0  0  0  0  0  0  0
   55.5210   30.3730   44.5640 O   0  0  0  0  0  0  0  0  0  0  0  0
   55.9090   28.2260   45.2560 N   0  0  0  0  0  0  0  0  0  0  0  0
   56.9380   27.7060   45.9440 C   0  0  0  0  0  0  0  0  0  0  0  0
   57.0170   26.3660   46.3100 O   0  0  0  0  0  0  0  0  0  0  0  0
   60.2930   30.5400   46.5850 C   0  0  0  0  0  0  0  0  0  0  0  0
   61.1180   31.3740   47.3080 C   0  0  0  0  0  0  0  0  0  0  0  0
   61.8560   32.5510   46.7440 C   0  0  0  0  0  0  0  0  0  0  0  0
   61.2200   30.9420   48.5810 N   0  0  0  0  0  0  0  0  0  0  0  0
   61.9130   31.6250   49.6400 C   0  0  0  0  0  0  0  0  0  0  0  0
   63.2680   31.3440   49.8570 C   0  0  0  0  0  0  0  0  0  0  0  0
   63.9630   31.9780   50.8880 C   0  0  0  0  0  0  0  0  0  0  0  0
   63.3140   32.9090   51.7110 C   0  0  0  0  0  0  0  0  0  0  0  0
   64.0520   33.5540   52.8470 C   0  0  0  0  0  0  0  0  0  0  0  0
   61.9520   33.1800   51.5080 C   0  0  0  0  0  0  0  0  0  0  0  0
   61.2460   32.5530   50.4710 C   0  0  0  0  0  0  0  0  0  0  0  0
   59.5300   32.9210   50.2350 S   0  0  0  0  0  0  0  0  0  0  0  0
   58.6780   31.7880   50.7380 O   0  0  0  0  0  0  0  0  0  0  0  0
   59.1840   34.1520   51.0270 O   0  0  0  0  0  0  0  0  0  0  0  0
   59.2410   33.1870   48.5320 N   0  0  0  0  0  0  0  0  0  0  0  0
   57.8940   32.7160   48.1550 C   0  0  0  0  0  0  0  0  0  0  0  0
   57.5080   33.1780   46.7340 C   0  0  0  0  0  0  0  0  0  0  0  0
   58.7060   33.6080   45.9850 N   0  0  0  0  0  0  0  0  0  0  0  0
   58.3800   33.9540   44.5820 C   0  0  0  0  0  0  0  0  0  0  0  0
   58.0980   32.7140   43.7240 C   0  0  0  0  0  0  0  0  0  0  0  0
   58.6890   31.5740   44.2860 O   0  0  0  0  0  0  0  0  0  0  0  0
   59.3290   34.7760   46.6510 C   0  0  0  0  0  0  0  0  0  0  0  0
   59.4170   34.6000   48.1810 C   0  0  0  0  0  0  0  0  0  0  0  0
   60.8192   29.5047   50.7544 H   0  0  0  0  0  0  0  0  0  0  0  0
   59.6038   28.3114   49.9008 H   0  0  0  0  0  0  0  0  0  0  0  0
   59.3164   27.5189   47.3913 H   0  0  0  0  0  0  0  0  0  0  0  0
   57.8700   25.9750   46.6920 H   0  0  0  0  0  0  0  0  0  0  0  0
   60.0142   30.6514   45.5268 H   0  0  0  0  0  0  0  0  0  0  0  0
   62.2437   33.1693   47.5670 H   0  0  0  0  0  0  0  0  0  0  0  0
   62.6938   32.1965   46.1256 H   0  0  0  0  0  0  0  0  0  0  0  0
   61.1719   33.1507   46.1256 H   0  0  0  0  0  0  0  0  0  0  0  0
   63.7869   30.6200   49.2116 H   0  0  0  0  0  0  0  0  0  0  0  0
   65.0251   31.7460   51.0556 H   0  0  0  0  0  0  0  0  0  0  0  0
   63.6411   33.1949   53.8021 H   0  0  0  0  0  0  0  0  0  0  0  0
   65.1190   33.2937   52.7859 H   0  0  0  0  0  0  0  0  0  0  0  0
   63.9369   34.6463   52.7859 H   0  0  0  0  0  0  0  0  0  0  0  0
   61.4335   33.8907   52.1683 H   0  0  0  0  0  0  0  0  0  0  0  0
   57.8774   31.6167   48.1898 H   0  0  0  0  0  0  0  0  0  0  0  0
   57.1693   33.1423   48.8643 H   0  0  0  0  0  0  0  0  0  0  0  0
   57.0278   32.3444   46.2006 H   0  0  0  0  0  0  0  0  0  0  0  0
   56.8146   34.0282   46.8131 H   0  0  0  0  0  0  0  0  0  0  0  0
   57.4886   34.5984   44.5751 H   0  0  0  0  0  0  0  0  0  0  0  0
   59.2524   34.4679   44.1520 H   0  0  0  0  0  0  0  0  0  0  0  0
   57.0107   32.5610   43.6580 H   0  0  0  0  0  0  0  0  0  0  0  0
   58.5240   32.8743   42.7226 H   0  0  0  0  0  0  0  0  0  0  0  0
   58.4450   31.5700   45.2480 H   0  0  0  0  0  0  0  0  0  0  0  0
   60.3450   34.9106   46.2515 H   0  0  0  0  0  0  0  0  0  0  0  0
   58.6981   35.6542   46.4492 H   0  0  0  0  0  0  0  0  0  0  0  0
   60.4016   34.9429   48.5315 H   0  0  0  0  0  0  0  0  0  0  0  0
   58.6243   35.1935   48.6599 H   0  0  0  0  0  0  0  0  0  0  0  0
  1  2  2  0
  2  3  1  0
  3  4  2  3
  4  5  1  0
  5  6  1  0
  6  7  1  0
  7  8  2  0
  7  9  1  0
  9 10  1  0
 10 11  1  0
  3 12  1  0
 12 13  2  0
 13 14  1  0
 13 15  1  0
 15 16  1  0
 16 17  2  0
 17 18  1  0
 18 19  2  0
 19 20  1  0
 19 21  1  0
 21 22  2  0
 22 23  1  0
 23 24  2  0
 23 25  2  0
 23 26  1  0
 26 27  1  0
 27 28  1  0
 28 29  1  0
 29 30  1  0
 30 31  1  0
 31 32  1  0
 29 33  1  0
 33 34  1  0
 15  2  1  0
 22 16  1  0
 34 26  1  0
 10  5  2  0
  1 35  1  0
  1 36  1  0
  4 37  1  0
 11 38  1  0
 12 39  1  0
 14 40  1  0
 14 41  1  0
 14 42  1  0
 17 43  1  0
 18 44  1  0
 20 45  1  0
 20 46  1  0
 20 47  1  0
 21 48  1  0
 27 49  1  0
 27 50  1  0
 28 51  1  0
 28 52  1  0
 30 53  1  0
 30 54  1  0
 31 55  1  0
 31 56  1  0
 32 57  1  0
 33 58  1  0
 33 59  1  0
 34 60  1  0
 34 61  1  0
M  CHG  2   6  -1   9  -1
M  END
>  <UniqueID>  (18) 
17

>  <SMILES>  (18) 
C=c1c(=Cc2[n-]c(=O)[n-]c2O)cc(C)n1-c1ccc(C)cc1S(=O)(=O)N1CCN(CCO)CC1

>  <Energy>  (18) 
138.3456586498896

>  <Genealogy>  (18) 
C=c1c(=Cc2[n-]c(=O)[n-]c2O)cc(C)n1-c1ccc(C)cc1S(=O)(=O)N1CCN(CCO)CC1 (protonated)
C=c1c(=Cc2[n-]c(=O)[n-]c2O)cc(C)n1-c1ccc(C)cc1S(=O)(=O)N1CCN(CCO)CC1 (3D coordinates assigned)
C=c1c(=Cc2[n-]c(=O)[n-]c2O)cc(C)n1-c1ccc(C)cc1S(=O)(=O)N1CCN(CCO)CC1 (nonaromatic ring conformer: 138.3456586498896 kcal/mol)

>  <smiles>  (18) 
C=c1c(=Cc2[nH]c(=O)[nH]c2O)cc(C)n1-c1ccc(C)cc1S(=O)(=O)N1CCN(CCO)CC1

>  <score_type>  (18) 
oracle

>  <origin>  (18) 
adg

>  <m_score__min__energy>  (18) 
-12.41

>  <m_primary>  (18) 
energy

$$$$
18:0
     RDKit          3D

 57 60  0  0  0  0  0  0  0  0999 V2000
   60.0370   25.5920   46.7200 O   0  0  0  0  0  0  0  0  0  0  0  0
   59.1600   26.4740   46.5060 C   0  0  0  0  0  0  0  0  0  0  0  0
   57.8260   26.0330   45.9600 C   0  0  0  0  0  0  0  0  0  0  0  0
   57.1920   24.9620   46.8120 C   0  0  0  0  0  0  0  0  0  0  0  0
   57.7160   24.6850   47.9240 O   0  0  0  0  0  0  0  0  0  0  0  0
   55.9680   24.2380   46.3880 C   0  0  0  0  0  0  0  0  0  0  0  0
   54.8460   24.9320   45.8900 C   0  0  0  0  0  0  0  0  0  0  0  0
   54.8710   26.3130   45.7350 O   0  0  0  0  0  0  0  0  0  0  0  0
   53.6920   24.2320   45.5250 C   0  0  0  0  0  0  0  0  0  0  0  0
   53.6450   22.8410   45.6410 C   0  0  0  0  0  0  0  0  0  0  0  0
   52.4960   22.1520   45.2740 O   0  0  0  0  0  0  0  0  0  0  0  0
   54.7530   22.1440   46.1230 C   0  0  0  0  0  0  0  0  0  0  0  0
   55.9150   22.8320   46.5000 C   0  0  0  0  0  0  0  0  0  0  0  0
   57.0070   22.1260   47.0030 O   0  0  0  0  0  0  0  0  0  0  0  0
   59.4790   27.9030   46.7770 C   0  0  0  0  0  0  0  0  0  0  0  0
   60.3910   28.6140   45.9840 C   0  0  0  0  0  0  0  0  0  0  0  0
   60.7010   29.9460   46.2690 C   0  0  0  0  0  0  0  0  0  0  0  0
   60.1010   30.6230   47.3570 C   0  0  0  0  0  0  0  0  0  0  0  0
   60.4130   32.0220   47.6500 N   0  0  0  0  0  0  0  0  0  0  0  0
   61.4370   32.7060   46.8330 C   0  0  0  0  0  0  0  0  0  0  0  0
   61.6920   34.1730   47.1930 C   0  0  0  0  0  0  0  0  0  0  0  0
   60.5090   34.8470   47.7260 N   0  0  0  0  0  0  0  0  0  0  0  0
   59.5440   35.4180   46.7590 C   0  0  0  0  0  0  0  0  0  0  0  0
   58.8170   34.3930   45.9200 C   0  0  0  0  0  0  0  0  0  0  0  0
   57.7070   33.7060   46.4410 C   0  0  0  0  0  0  0  0  0  0  0  0
   57.0390   32.7540   45.6650 C   0  0  0  0  0  0  0  0  0  0  0  0
   57.4540   32.5000   44.3560 C   0  0  0  0  0  0  0  0  0  0  0  0
   58.5280   33.2120   43.8140 C   0  0  0  0  0  0  0  0  0  0  0  0
   59.1980   34.1650   44.5860 C   0  0  0  0  0  0  0  0  0  0  0  0
   59.9710   34.1970   48.9220 C   0  0  0  0  0  0  0  0  0  0  0  0
   59.6680   32.7030   48.7310 C   0  0  0  0  0  0  0  0  0  0  0  0
   59.1800   29.8930   48.1460 C   0  0  0  0  0  0  0  0  0  0  0  0
   58.8750   28.5610   47.8570 C   0  0  0  0  0  0  0  0  0  0  0  0
   57.1527   26.9021   45.9230 H   0  0  0  0  0  0  0  0  0  0  0  0
   57.9916   25.6145   44.9563 H   0  0  0  0  0  0  0  0  0  0  0  0
   52.8170   24.7795   45.1447 H   0  0  0  0  0  0  0  0  0  0  0  0
   54.7148   21.0479   46.2078 H   0  0  0  0  0  0  0  0  0  0  0  0
   57.7660   22.5940   47.4860 H   0  0  0  0  0  0  0  0  0  0  0  0
   60.8683   28.1167   45.1268 H   0  0  0  0  0  0  0  0  0  0  0  0
   61.4254   30.4787   45.6354 H   0  0  0  0  0  0  0  0  0  0  0  0
   62.3842   32.1587   46.9480 H   0  0  0  0  0  0  0  0  0  0  0  0
   61.0508   32.7092   45.8030 H   0  0  0  0  0  0  0  0  0  0  0  0
   62.4891   34.2142   47.9499 H   0  0  0  0  0  0  0  0  0  0  0  0
   61.9763   34.6934   46.2665 H   0  0  0  0  0  0  0  0  0  0  0  0
   58.7953   35.9955   47.3211 H   0  0  0  0  0  0  0  0  0  0  0  0
   60.1285   36.0357   46.0613 H   0  0  0  0  0  0  0  0  0  0  0  0
   57.3623   33.9183   47.4638 H   0  0  0  0  0  0  0  0  0  0  0  0
   56.1847   32.2039   46.0864 H   0  0  0  0  0  0  0  0  0  0  0  0
   56.9362   31.7404   43.7520 H   0  0  0  0  0  0  0  0  0  0  0  0
   58.8462   33.0219   42.7783 H   0  0  0  0  0  0  0  0  0  0  0  0
   60.0274   34.7395   44.1478 H   0  0  0  0  0  0  0  0  0  0  0  0
   60.7059   34.3010   49.7339 H   0  0  0  0  0  0  0  0  0  0  0  0
   59.0159   34.6911   49.1537 H   0  0  0  0  0  0  0  0  0  0  0  0
   59.9010   32.1892   49.6753 H   0  0  0  0  0  0  0  0  0  0  0  0
   58.6088   32.6509   48.4387 H   0  0  0  0  0  0  0  0  0  0  0  0
   58.6954   30.3840   49.0028 H   0  0  0  0  0  0  0  0  0  0  0  0
   58.1512   28.0213   48.4853 H   0  0  0  0  0  0  0  0  0  0  0  0
  1  2  2  0
  2  3  1  0
  3  4  1  0
  4  5  2  0
  4  6  1  0
  6  7  2  0
  7  8  1  0
  7  9  1  0
  9 10  2  0
 10 11  1  0
 10 12  1  0
 12 13  2  0
 13 14  1  0
  2 15  1  0
 15 16  2  0
 16 17  1  0
 17 18  2  0
 18 19  1  0
 19 20  1  0
 20 21  1  0
 21 22  1  0
 22 23  1  0
 23 24  1  0
 24 25  2  0
 25 26  1  0
 26 27  2  0
 27 28  1  0
 28 29  2  0
 22 30  1  0
 30 31  1  0
 18 32  1  0
 32 33  2  0
 13  6  1  0
 33 15  1  0
 31 19  1  0
 29 24  1  0
  3 34  1  0
  3 35  1  0
  9 36  1  0
 12 37  1  0
 14 38  1  0
 16 39  1  0
 17 40  1  0
 20 41  1  0
 20 42  1  0
 21 43  1  0
 21 44  1  0
 23 45  1  0
 23 46  1  0
 25 47  1  0
 26 48  1  0
 27 49  1  0
 28 50  1  0
 29 51  1  0
 30 52  1  0
 30 53  1  0
 31 54  1  0
 31 55  1  0
 32 56  1  0
 33 57  1  0
M  CHG  2   8  -1  11  -1
M  END
>  <UniqueID>  (19) 
18

>  <SMILES>  (19) 
O=C(CC(=O)c1c([O-])cc([O-])cc1O)c1ccc(N2CCN(Cc3ccccc3)CC2)cc1

>  <Energy>  (19) 
83.55730475224159

>  <Genealogy>  (19) 
O=C(CC(=O)c1c([O-])cc([O-])cc1O)c1ccc(N2CCN(Cc3ccccc3)CC2)cc1 (protonated)
O=C(CC(=O)c1c([O-])cc([O-])cc1O)c1ccc(N2CCN(Cc3ccccc3)CC2)cc1 (3D coordinates assigned)
O=C(CC(=O)c1c([O-])cc([O-])cc1O)c1ccc(N2CCN(Cc3ccccc3)CC2)cc1 (nonaromatic ring conformer: 83.55730475224159 kcal/mol)

>  <smiles>  (19) 
O=C(CC(=O)c1c(O)cc(O)cc1O)c1ccc(N2CCN(Cc3ccccc3)CC2)cc1

>  <score_type>  (19) 
oracle

>  <origin>  (19) 
adg

>  <m_score__min__energy>  (19) 
-15.18

>  <m_primary>  (19) 
energy

$$$$
19:0
     RDKit          3D

 32 34  0  0  0  0  0  0  0  0999 V2000
   59.1868   35.0035   45.8408 H   0  0  0  0  0  0  0  0  0  0  0  0
   58.6710   34.0390   45.7240 C   0  0  0  0  0  0  0  0  0  0  0  0
   57.5870   33.6440   44.4970 S   0  0  0  0  0  0  0  0  0  0  0  0
   57.3430   32.0920   45.0820 C   0  0  0  0  0  0  0  0  0  0  0  0
   56.5840   31.2130   44.4980 N   0  0  0  0  0  0  0  0  0  0  0  0
   56.5030   29.8220   44.8460 C   0  0  0  0  0  0  0  0  0  0  0  0
   55.3690   29.2730   44.8710 O   0  0  0  0  0  0  0  0  0  0  0  0
   57.6970   29.0400   45.2340 C   0  0  0  0  0  0  0  0  0  0  0  0
   57.6390   28.1880   46.2940 N   0  0  0  0  0  0  0  0  0  0  0  0
   58.7120   27.4450   46.6680 C   0  0  0  0  0  0  0  0  0  0  0  0
   58.6421   26.7638   47.5289 H   0  0  0  0  0  0  0  0  0  0  0  0
   59.9060   27.5530   45.9500 C   0  0  0  0  0  0  0  0  0  0  0  0
   60.9120   26.8760   46.2880 O   0  0  0  0  0  0  0  0  0  0  0  0
   59.9700   28.3930   44.8820 N   0  0  0  0  0  0  0  0  0  0  0  0
   60.8590   28.4760   44.3390 H   0  0  0  0  0  0  0  0  0  0  0  0
   58.8920   29.1340   44.5050 C   0  0  0  0  0  0  0  0  0  0  0  0
   58.9575   29.8025   43.6339 H   0  0  0  0  0  0  0  0  0  0  0  0
   58.0790   31.8450   46.1870 N   0  0  0  0  0  0  0  0  0  0  0  0
   58.8040   32.9330   46.5690 C   0  0  0  0  0  0  0  0  0  0  0  0
   59.7560   32.8870   47.7470 C   0  0  0  0  0  0  0  0  0  0  0  0
   59.6890   34.2130   48.5050 C   0  0  0  0  0  0  0  0  0  0  0  0
   59.6989   34.0175   49.5874 H   0  0  0  0  0  0  0  0  0  0  0  0
   60.5570   34.8331   48.2365 H   0  0  0  0  0  0  0  0  0  0  0  0
   58.7630   34.7425   48.2365 H   0  0  0  0  0  0  0  0  0  0  0  0
   61.4760   32.6330   47.1690 S   0  0  0  0  0  0  0  0  0  0  0  0
   61.2470   30.8440   47.1100 C   0  0  0  0  0  0  0  0  0  0  0  0
   60.5587   30.5804   46.2934 H   0  0  0  0  0  0  0  0  0  0  0  0
   62.2061   30.3368   46.9283 H   0  0  0  0  0  0  0  0  0  0  0  0
   60.6620   30.4160   48.4360 C   0  0  0  0  0  0  0  0  0  0  0  0
   60.2867   29.3852   48.3543 H   0  0  0  0  0  0  0  0  0  0  0  0
   61.4414   30.4654   49.2106 H   0  0  0  0  0  0  0  0  0  0  0  0
   59.2920   31.5240   48.8890 S   0  0  0  0  0  0  0  0  0  0  0  0
  1  2  1  0
  2  3  1  0
  3  4  1  0
  4  5  2  0
  5  6  1  0
  6  7  2  0
  6  8  1  0
  8  9  1  0
  9 10  2  0
 10 11  1  0
 10 12  1  0
 12 13  2  0
 12 14  1  0
 14 15  1  0
 14 16  1  0
 16 17  1  0
  4 18  1  0
 18 19  1  0
 19 20  1  0
 20 21  1  0
 21 22  1  0
 21 23  1  0
 21 24  1  0
 20 25  1  0
 25 26  1  0
 26 27  1  0
 26 28  1  0
 26 29  1  0
 29 30  1  0
 29 31  1  0
 29 32  1  0
 19  2  2  0
 32 20  1  0
 16  8  2  0
M  CHG  1  18  -1
M  END
>  <UniqueID>  (20) 
19

>  <SMILES>  (20) 
CC1(c2cs/c(=N/C(=O)c3c[nH]c(=O)cn3)[n-]2)SCCS1

>  <Energy>  (20) 
62.63591615029749

>  <Genealogy>  (20) 
CC1(c2csc(=NC(=O)c3c[nH]c(=O)cn3)[n-]2)SCCS1 (protonated)
CC1(c2cs/c(=N/C(=O)c3c[nH]c(=O)cn3)[n-]2)SCCS1 (cis-trans isomerization)
CC1(c2cs/c(=N/C(=O)c3c[nH]c(=O)cn3)[n-]2)SCCS1 (3D coordinates assigned)
CC1(c2cs/c(=N/C(=O)c3c[nH]c(=O)cn3)[n-]2)SCCS1 (nonaromatic ring conformer: 62.63591615029749 kcal/mol)

>  <smiles>  (20) 
CC1(c2csc(=NC(=O)c3c[nH]c(=O)cn3)[nH]2)SCCS1

>  <score_type>  (20) 
oracle

>  <origin>  (20) 
adg

>  <m_score__min__energy>  (20) 
-8.6300000000000008

>  <m_primary>  (20) 
energy

$$$$
20:0
     RDKit          3D

 44 46  0  0  0  0  0  0  0  0999 V2000
   57.0280   28.6200   42.6710 N   0  0  0  0  0  0  0  0  0  0  0  0
   56.6200   29.9480   42.9990 C   0  0  0  0  0  0  0  0  0  0  0  0
   57.0250   30.9160   42.3010 O   0  0  0  0  0  0  0  0  0  0  0  0
   55.6890   30.2000   44.1450 C   0  0  0  0  0  0  0  0  0  0  0  0
   55.4960   28.9780   44.9160 N   0  0  0  0  0  0  0  0  0  0  0  0
   56.5730   28.1630   45.3930 C   0  0  0  0  0  0  0  0  0  0  0  0
   56.3840   26.9380   45.6260 O   0  0  0  0  0  0  0  0  0  0  0  0
   57.9010   28.7650   45.6060 C   0  0  0  0  0  0  0  0  0  0  0  0
   59.0770   28.0270   45.4060 C   0  0  0  0  0  0  0  0  0  0  0  0
   60.3130   28.6380   45.6180 C   0  0  0  0  0  0  0  0  0  0  0  0
   60.3720   29.9710   46.0280 C   0  0  0  0  0  0  0  0  0  0  0  0
   59.1790   30.6890   46.2210 C   0  0  0  0  0  0  0  0  0  0  0  0
   59.1910   32.0680   46.6400 N   0  0  0  0  0  0  0  0  0  0  0  0
   58.8890   33.1610   45.7280 C   0  0  0  0  0  0  0  0  0  0  0  0
   59.0950   34.4520   46.5130 C   0  0  0  0  0  0  0  0  0  0  0  0
   59.3620   34.0350   47.9660 C   0  0  2  0  0  0  0  0  0  0  0  0
   60.4840   34.7130   48.5490 O   0  0  0  0  0  0  0  0  0  0  0  0
   61.7710   34.2040   48.8140 C   0  0  0  0  0  0  0  0  0  0  0  0
   62.3560   34.1890   50.0970 C   0  0  0  0  0  0  0  0  0  0  0  0
   63.6400   33.6670   50.2820 C   0  0  0  0  0  0  0  0  0  0  0  0
   64.3540   33.1570   49.1960 C   0  0  0  0  0  0  0  0  0  0  0  0
   65.6000   32.6520   49.3780 F   0  0  0  0  0  0  0  0  0  0  0  0
   63.7840   33.1670   47.9210 C   0  0  0  0  0  0  0  0  0  0  0  0
   62.5000   33.6870   47.7330 C   0  0  0  0  0  0  0  0  0  0  0  0
   59.5020   32.5120   47.9890 C   0  0  0  0  0  0  0  0  0  0  0  0
   57.9880   30.0640   46.0040 N   0  0  0  0  0  0  0  0  0  0  0  0
   57.6670   28.4510   41.8630 H   0  0  0  0  0  0  0  0  0  0  0  0
   56.6950   27.8040   43.2300 H   0  0  0  0  0  0  0  0  0  0  0  0
   56.1165   30.9766   44.7962 H   0  0  0  0  0  0  0  0  0  0  0  0
   54.7173   30.5327   43.7511 H   0  0  0  0  0  0  0  0  0  0  0  0
   59.0250   26.9762   45.0850 H   0  0  0  0  0  0  0  0  0  0  0  0
   61.2415   28.0691   45.4620 H   0  0  0  0  0  0  0  0  0  0  0  0
   61.3445   30.4558   46.1987 H   0  0  0  0  0  0  0  0  0  0  0  0
   59.5665   33.1310   44.8619 H   0  0  0  0  0  0  0  0  0  0  0  0
   57.8595   33.0877   45.3476 H   0  0  0  0  0  0  0  0  0  0  0  0
   59.9552   35.0083   46.1122 H   0  0  0  0  0  0  0  0  0  0  0  0
   58.2153   35.1085   46.4407 H   0  0  0  0  0  0  0  0  0  0  0  0
   58.5165   34.3389   48.6007 H   0  0  0  0  0  0  0  0  0  0  0  0
   61.7993   34.5900   50.9568 H   0  0  0  0  0  0  0  0  0  0  0  0
   64.0889   33.6582   51.2862 H   0  0  0  0  0  0  0  0  0  0  0  0
   64.3455   32.7656   47.0645 H   0  0  0  0  0  0  0  0  0  0  0  0
   62.0566   33.6907   46.7263 H   0  0  0  0  0  0  0  0  0  0  0  0
   60.5288   32.2253   48.2600 H   0  0  0  0  0  0  0  0  0  0  0  0
   58.8323   32.0539   48.7317 H   0  0  0  0  0  0  0  0  0  0  0  0
  1  2  1  0
  2  3  2  0
  2  4  1  0
  4  5  1  0
  5  6  1  0
  6  7  2  0
  6  8  1  0
  8  9  2  0
  9 10  1  0
 10 11  2  0
 11 12  1  0
 12 13  1  0
 13 14  1  0
 14 15  1  0
 15 16  1  0
 16 17  1  0
 17 18  1  0
 18 19  2  0
 19 20  1  0
 20 21  2  0
 21 22  1  0
 21 23  1  0
 23 24  2  0
 16 25  1  0
 12 26  2  0
 26  8  1  0
 25 13  1  0
 24 18  1  0
  1 27  1  0
  1 28  1  0
  4 29  1  0
  4 30  1  0
  9 31  1  0
 10 32  1  0
 11 33  1  0
 14 34  1  0
 14 35  1  0
 15 36  1  0
 15 37  1  0
 16 38  1  1
 19 39  1  0
 20 40  1  0
 23 41  1  0
 24 42  1  0
 25 43  1  0
 25 44  1  0
M  CHG  1   5  -1
M  END
>  <UniqueID>  (21) 
20

>  <SMILES>  (21) 
NC(=O)C[N-]C(=O)c1cccc(N2CC[C@H](Oc3ccc(F)cc3)C2)n1

>  <Energy>  (21) 
45.6327189467412

>  <Genealogy>  (21) 
NC(=O)C[N-]C(=O)c1cccc(N2CCC(Oc3ccc(F)cc3)C2)n1 (protonated)
NC(=O)C[N-]C(=O)c1cccc(N2CC[C@H](Oc3ccc(F)cc3)C2)n1 (chirality)
NC(=O)C[N-]C(=O)c1cccc(N2CC[C@H](Oc3ccc(F)cc3)C2)n1 (3D coordinates assigned)
NC(=O)C[N-]C(=O)c1cccc(N2CC[C@H](Oc3ccc(F)cc3)C2)n1 (nonaromatic ring conformer: 45.6327189467412 kcal/mol)

>  <smiles>  (21) 
NC(=O)CNC(=O)c1cccc(N2CCC(Oc3ccc(F)cc3)C2)n1

>  <score_type>  (21) 
oracle

>  <origin>  (21) 
adg

>  <m_score__min__energy>  (21) 
-10.859999999999999

>  <m_primary>  (21) 
energy

$$$$
21:0
     RDKit          3D

 60 63  0  0  0  0  0  0  0  0999 V2000
   56.3920   21.9990   47.4880 C   0  0  0  0  0  0  0  0  0  0  0  0
   57.3930   21.7040   46.3730 C   0  0  0  0  0  0  0  0  0  0  0  0
   57.2910   22.7390   45.2810 C   0  0  0  0  0  0  0  0  0  0  0  0
   57.5300   24.0920   45.5820 C   0  0  0  0  0  0  0  0  0  0  0  0
   57.4050   25.0850   44.5940 C   0  0  0  0  0  0  0  0  0  0  0  0
   57.6570   26.5120   44.9170 C   0  0  0  0  0  0  0  0  0  0  0  0
   57.6390   26.9580   46.2490 C   0  0  0  0  0  0  0  0  0  0  0  0
   57.8590   28.3060   46.5510 C   0  0  0  0  0  0  0  0  0  0  0  0
   58.0930   29.2350   45.5270 C   0  0  0  0  0  0  0  0  0  0  0  0
   58.3280   30.6610   45.8380 C   0  0  0  0  0  0  0  0  0  0  0  0
   57.3700   31.4760   45.7310 O   0  0  0  0  0  0  0  0  0  0  0  0
   59.6150   31.1340   46.2850 N   0  0  0  0  0  0  0  0  0  0  0  0
   60.3870   30.3380   47.2580 C   0  0  0  0  0  0  0  0  0  0  0  0
   61.4760   31.1830   47.9330 C   0  0  0  0  0  0  0  0  0  0  0  0
   60.9260   32.4970   48.2990 N   0  0  0  0  0  0  0  0  0  0  0  0
   61.0860   33.0640   49.6160 C   0  0  0  0  0  0  0  0  0  0  0  0
   61.1540   34.3180   49.7460 O   0  0  0  0  0  0  0  0  0  0  0  0
   61.0760   32.2210   50.8630 C   0  0  0  0  0  0  0  0  0  0  0  0
   59.7080   31.6380   51.1030 C   0  0  0  0  0  0  0  0  0  0  0  0
   59.4760   30.2620   50.9500 C   0  0  0  0  0  0  0  0  0  0  0  0
   58.2080   29.7280   51.2010 C   0  0  0  0  0  0  0  0  0  0  0  0
   57.1620   30.5610   51.6160 C   0  0  0  0  0  0  0  0  0  0  0  0
   55.9020   30.0270   51.8700 O   0  0  0  0  0  0  0  0  0  0  0  0
   57.3860   31.9300   51.7790 C   0  0  0  0  0  0  0  0  0  0  0  0
   58.6530   32.4680   51.5260 C   0  0  0  0  0  0  0  0  0  0  0  0
   60.2320   33.2950   47.2750 C   0  0  0  0  0  0  0  0  0  0  0  0
   60.0450   32.5040   45.9730 C   0  0  0  0  0  0  0  0  0  0  0  0
   58.1400   28.7880   44.1980 C   0  0  0  0  0  0  0  0  0  0  0  0
   57.9180   27.4410   43.8950 C   0  0  0  0  0  0  0  0  0  0  0  0
   57.0310   24.7050   43.2940 C   0  0  0  0  0  0  0  0  0  0  0  0
   56.7800   23.3660   42.9900 C   0  0  0  0  0  0  0  0  0  0  0  0
   56.9000   22.3790   43.9780 C   0  0  0  0  0  0  0  0  0  0  0  0
   56.6290   21.0460   43.6670 O   0  0  0  0  0  0  0  0  0  0  0  0
   56.8780   21.8558   48.4644 H   0  0  0  0  0  0  0  0  0  0  0  0
   56.0424   23.0384   47.4014 H   0  0  0  0  0  0  0  0  0  0  0  0
   55.5346   21.3153   47.4014 H   0  0  0  0  0  0  0  0  0  0  0  0
   58.4113   21.7162   46.7888 H   0  0  0  0  0  0  0  0  0  0  0  0
   57.1680   20.7152   45.9467 H   0  0  0  0  0  0  0  0  0  0  0  0
   57.8187   24.3774   46.6044 H   0  0  0  0  0  0  0  0  0  0  0  0
   57.4503   26.2410   47.0616 H   0  0  0  0  0  0  0  0  0  0  0  0
   57.8484   28.6396   47.5991 H   0  0  0  0  0  0  0  0  0  0  0  0
   59.7030   29.9534   48.0289 H   0  0  0  0  0  0  0  0  0  0  0  0
   60.8736   29.5107   46.7206 H   0  0  0  0  0  0  0  0  0  0  0  0
   61.8291   30.6688   48.8391 H   0  0  0  0  0  0  0  0  0  0  0  0
   62.3159   31.3202   47.2360 H   0  0  0  0  0  0  0  0  0  0  0  0
   61.8023   31.4025   50.7509 H   0  0  0  0  0  0  0  0  0  0  0  0
   61.3442   32.8560   51.7202 H   0  0  0  0  0  0  0  0  0  0  0  0
   60.2952   29.6008   50.6312 H   0  0  0  0  0  0  0  0  0  0  0  0
   58.0319   28.6499   51.0719 H   0  0  0  0  0  0  0  0  0  0  0  0
   56.5659   32.5859   52.1065 H   0  0  0  0  0  0  0  0  0  0  0  0
   58.8253   33.5463   51.6586 H   0  0  0  0  0  0  0  0  0  0  0  0
   59.2440   33.5880   47.6597 H   0  0  0  0  0  0  0  0  0  0  0  0
   60.8461   34.1806   47.0544 H   0  0  0  0  0  0  0  0  0  0  0  0
   59.2806   32.9952   45.3530 H   0  0  0  0  0  0  0  0  0  0  0  0
   60.9986   32.4715   45.4256 H   0  0  0  0  0  0  0  0  0  0  0  0
   58.3529   29.5020   43.3888 H   0  0  0  0  0  0  0  0  0  0  0  0
   57.9479   27.1056   42.8478 H   0  0  0  0  0  0  0  0  0  0  0  0
   56.9352   25.4695   42.5089 H   0  0  0  0  0  0  0  0  0  0  0  0
   56.4861   23.0835   41.9683 H   0  0  0  0  0  0  0  0  0  0  0  0
   57.3570   20.3410   43.6690 H   0  0  0  0  0  0  0  0  0  0  0  0
  1  2  1  0
  2  3  1  0
  3  4  2  0
  4  5  1  0
  5  6  1  0
  6  7  2  0
  7  8  1  0
  8  9  2  0
  9 10  1  0
 10 11  2  0
 10 12  1  0
 12 13  1  0
 13 14  1  0
 14 15  1  0
 15 16  1  0
 16 17  2  0
 16 18  1  0
 18 19  1  0
 19 20  2  0
 20 21  1  0
 21 22  2  0
 22 23  1  0
 22 24  1  0
 24 25  2  0
 15 26  1  0
 26 27  1  0
  9 28  1  0
 28 29  2  0
  5 30  2  0
 30 31  1  0
 31 32  2  0
 32 33  1  0
 32  3  1  0
 29  6  1  0
 27 12  1  0
 25 19  1  0
  1 34  1  0
  1 35  1  0
  1 36  1  0
  2 37  1  0
  2 38  1  0
  4 39  1  0
  7 40  1  0
  8 41  1  0
 13 42  1  0
 13 43  1  0
 14 44  1  0
 14 45  1  0
 18 46  1  0
 18 47  1  0
 20 48  1  0
 21 49  1  0
 24 50  1  0
 25 51  1  0
 26 52  1  0
 26 53  1  0
 27 54  1  0
 27 55  1  0
 28 56  1  0
 29 57  1  0
 30 58  1  0
 31 59  1  0
 33 60  1  0
M  CHG  1  23  -1
M  END
>  <UniqueID>  (22) 
21

>  <SMILES>  (22) 
CCc1cc(-c2ccc(C(=O)N3CCN(C(=O)Cc4ccc([O-])cc4)CC3)cc2)ccc1O

>  <Energy>  (22) 
73.64010973692994

>  <Genealogy>  (22) 
CCc1cc(-c2ccc(C(=O)N3CCN(C(=O)Cc4ccc([O-])cc4)CC3)cc2)ccc1O (protonated)
CCc1cc(-c2ccc(C(=O)N3CCN(C(=O)Cc4ccc([O-])cc4)CC3)cc2)ccc1O (3D coordinates assigned)
CCc1cc(-c2ccc(C(=O)N3CCN(C(=O)Cc4ccc([O-])cc4)CC3)cc2)ccc1O (nonaromatic ring conformer: 73.64010973692994 kcal/mol)

>  <smiles>  (22) 
CCc1cc(-c2ccc(C(=O)N3CCN(C(=O)Cc4ccc(O)cc4)CC3)cc2)ccc1O

>  <score_type>  (22) 
oracle

>  <origin>  (22) 
adg

>  <m_score__min__energy>  (22) 
-11.710000000000001

>  <m_primary>  (22) 
energy

$$$$
22:0
     RDKit          3D

 49 53  0  0  0  0  0  0  0  0999 V2000
   58.9560   33.0510   51.2120 C   0  0  0  0  0  0  0  0  0  0  0  0
   59.7340   32.4620   50.1220 N   0  0  0  0  0  0  0  0  0  0  0  0
   60.2080   33.0840   49.0060 C   0  0  0  0  0  0  0  0  0  0  0  0
   59.9920   34.5380   48.6770 C   0  0  0  0  0  0  0  0  0  0  0  0
   59.5990   34.7010   47.2360 C   0  0  0  0  0  0  0  0  0  0  0  0
   60.0080   35.7160   46.3750 C   0  0  0  0  0  0  0  0  0  0  0  0
   59.5080   35.5120   45.1350 N   0  0  0  0  0  0  0  0  0  0  0  0
   58.7890   34.3790   45.2040 C   0  0  0  0  0  0  0  0  0  0  0  0
   58.1100   33.7450   44.1640 C   0  0  0  0  0  0  0  0  0  0  0  0
   57.4410   32.5400   44.4520 C   0  0  0  0  0  0  0  0  0  0  0  0
   57.4680   32.0020   45.7590 C   0  0  0  0  0  0  0  0  0  0  0  0
   58.1630   32.6630   46.7870 C   0  0  0  0  0  0  0  0  0  0  0  0
   58.8150   33.8570   46.4720 C   0  0  0  0  0  0  0  0  0  0  0  0
   60.7960   32.2190   48.1410 N   0  0  0  0  0  0  0  0  0  0  0  0
   60.6250   31.0160   48.7070 C   0  0  0  0  0  0  0  0  0  0  0  0
   60.9060   29.7720   48.1550 C   0  0  0  0  0  0  0  0  0  0  0  0
   60.4810   28.6240   48.8630 C   0  0  0  0  0  0  0  0  0  0  0  0
   60.6380   27.3110   48.3070 N   0  0  0  0  0  0  0  0  0  0  0  0
   60.3650   26.9460   46.9460 C   0  0  0  0  0  0  0  0  0  0  0  0
   60.9870   25.9720   46.4450 O   0  0  0  0  0  0  0  0  0  0  0  0
   59.3530   27.6590   46.1290 C   0  0  0  0  0  0  0  0  0  0  0  0
   57.9870   27.3840   46.3040 C   0  0  0  0  0  0  0  0  0  0  0  0
   57.0290   28.0200   45.5070 C   0  0  0  0  0  0  0  0  0  0  0  0
   57.4260   28.9420   44.5340 C   0  0  0  0  0  0  0  0  0  0  0  0
   56.2250   29.7270   43.5250 Cl  0  0  0  0  0  0  0  0  0  0  0  0
   58.7810   29.2410   44.3690 C   0  0  0  0  0  0  0  0  0  0  0  0
   59.7400   28.6110   45.1680 C   0  0  0  0  0  0  0  0  0  0  0  0
   59.8580   28.7660   50.1250 C   0  0  0  0  0  0  0  0  0  0  0  0
   59.5860   30.0430   50.6530 C   0  0  0  0  0  0  0  0  0  0  0  0
   59.9800   31.1540   49.9030 C   0  0  0  0  0  0  0  0  0  0  0  0
   59.3771   32.7322   52.1769 H   0  0  0  0  0  0  0  0  0  0  0  0
   58.9951   34.1479   51.1393 H   0  0  0  0  0  0  0  0  0  0  0  0
   57.9109   32.7157   51.1393 H   0  0  0  0  0  0  0  0  0  0  0  0
   59.1924   34.9387   49.3174 H   0  0  0  0  0  0  0  0  0  0  0  0
   60.9301   35.0847   48.8529 H   0  0  0  0  0  0  0  0  0  0  0  0
   60.6473   36.5637   46.6626 H   0  0  0  0  0  0  0  0  0  0  0  0
   59.6670   36.1090   44.2930 H   0  0  0  0  0  0  0  0  0  0  0  0
   58.0974   34.1728   43.1507 H   0  0  0  0  0  0  0  0  0  0  0  0
   56.8942   32.0142   43.6554 H   0  0  0  0  0  0  0  0  0  0  0  0
   56.9418   31.0600   45.9731 H   0  0  0  0  0  0  0  0  0  0  0  0
   58.1922   32.2526   47.8071 H   0  0  0  0  0  0  0  0  0  0  0  0
   61.1960   32.4260   47.1990 H   0  0  0  0  0  0  0  0  0  0  0  0
   61.4416   29.6832   47.1983 H   0  0  0  0  0  0  0  0  0  0  0  0
   57.6683   26.6642   47.0723 H   0  0  0  0  0  0  0  0  0  0  0  0
   55.9615   27.7942   45.6462 H   0  0  0  0  0  0  0  0  0  0  0  0
   59.0935   29.9729   43.6096 H   0  0  0  0  0  0  0  0  0  0  0  0
   60.8040   28.8613   45.0445 H   0  0  0  0  0  0  0  0  0  0  0  0
   59.5831   27.8695   50.7001 H   0  0  0  0  0  0  0  0  0  0  0  0
   59.0806   30.1616   51.6228 H   0  0  0  0  0  0  0  0  0  0  0  0
  1  2  1  0
  2  3  1  0
  3  4  1  0
  4  5  1  0
  5  6  2  0
  6  7  1  0
  7  8  1  0
  8  9  2  0
  9 10  1  0
 10 11  2  0
 11 12  1  0
 12 13  2  0
  3 14  2  0
 14 15  1  0
 15 16  2  0
 16 17  1  0
 17 18  1  0
 18 19  1  0
 19 20  2  0
 19 21  1  0
 21 22  2  0
 22 23  1  0
 23 24  2  0
 24 25  1  0
 24 26  1  0
 26 27  2  0
 17 28  2  0
 28 29  1  0
 29 30  2  0
 30  2  1  0
 13  5  1  0
 30 15  1  0
 13  8  1  0
 27 21  1  0
  1 31  1  0
  1 32  1  0
  1 33  1  0
  4 34  1  0
  4 35  1  0
  6 36  1  0
  7 37  1  0
  9 38  1  0
 10 39  1  0
 11 40  1  0
 12 41  1  0
 14 42  1  0
 16 43  1  0
 22 44  1  0
 23 45  1  0
 26 46  1  0
 27 47  1  0
 28 48  1  0
 29 49  1  0
M  CHG  2  14   1  18  -1
M  END
>  <UniqueID>  (23) 
22

>  <SMILES>  (23) 
Cn1c(Cc2c[nH]c3ccccc23)[nH+]c2cc([N-]C(=O)c3ccc(Cl)cc3)ccc21

>  <Energy>  (23) 
130.7827328746283

>  <Genealogy>  (23) 
Cn1c(Cc2c[nH]c3ccccc23)[nH+]c2cc([N-]C(=O)c3ccc(Cl)cc3)ccc21 (protonated)
Cn1c(Cc2c[nH]c3ccccc23)[nH+]c2cc([N-]C(=O)c3ccc(Cl)cc3)ccc21 (3D coordinates assigned)
Cn1c(Cc2c[nH]c3ccccc23)[nH+]c2cc([N-]C(=O)c3ccc(Cl)cc3)ccc21 (optimized conformer: 130.7827328746283 kcal/mol)

>  <smiles>  (23) 
Cn1c(Cc2c[nH]c3ccccc23)nc2cc(NC(=O)c3ccc(Cl)cc3)ccc21

>  <score_type>  (23) 
oracle

>  <origin>  (23) 
adg

>  <m_score__min__energy>  (23) 
-9.7699999999999996

>  <m_primary>  (23) 
energy

$$$$
23:0
     RDKit          3D

 69 73  0  0  0  0  0  0  0  0999 V2000
   59.6410   35.3490   45.3710 N   0  0  0  0  0  0  0  0  0  0  0  0
   58.7100   34.4490   45.9740 C   0  0  0  0  0  0  0  0  0  0  0  0
   58.2140   34.7470   47.0940 O   0  0  0  0  0  0  0  0  0  0  0  0
   58.3180   33.1890   45.2960 C   0  0  0  0  0  0  0  0  0  0  0  0
   58.1480   33.1730   43.8970 C   0  0  0  0  0  0  0  0  0  0  0  0
   57.7890   31.9970   43.2370 C   0  0  0  0  0  0  0  0  0  0  0  0
   57.6140   30.8050   43.9560 C   0  0  0  0  0  0  0  0  0  0  0  0
   57.2050   29.5940   43.3020 N   0  0  0  0  0  0  0  0  0  0  0  0
   57.4160   28.3710   43.7010 C   0  0  0  0  0  0  0  0  0  0  0  0
   57.1770   27.9540   45.0250 C   0  0  0  0  0  0  0  0  0  0  0  0
   57.4130   26.6210   45.3980 C   0  0  0  0  0  0  0  0  0  0  0  0
   57.1010   26.2040   46.7840 C   0  0  0  0  0  0  0  0  0  0  0  0
   55.9090   25.9740   47.1220 O   0  0  0  0  0  0  0  0  0  0  0  0
   58.1500   26.1140   47.7580 N   0  0  0  0  0  0  0  0  0  0  0  0
   58.9800   27.2060   48.1760 C   0  0  0  0  0  0  0  0  0  0  0  0
   58.6200   28.5410   47.9280 C   0  0  0  0  0  0  0  0  0  0  0  0
   59.4330   29.5860   48.3760 C   0  0  0  0  0  0  0  0  0  0  0  0
   60.6100   29.3130   49.0890 C   0  0  0  0  0  0  0  0  0  0  0  0
   61.4860   30.4100   49.5450 C   0  0  0  0  0  0  0  0  0  0  0  0
   62.0760   30.2980   50.6530 O   0  0  0  0  0  0  0  0  0  0  0  0
   61.6650   31.6050   48.7620 N   0  0  0  0  0  0  0  0  0  0  0  0
   61.9060   31.6060   47.3260 C   0  0  0  0  0  0  0  0  0  0  0  0
   61.5190   33.0040   46.8550 C   0  0  0  0  0  0  0  0  0  0  0  0
   61.6040   33.8830   48.1040 C   0  0  1  0  0  0  0  0  0  0  0  0
   60.6130   34.9540   48.0710 N   0  0  0  0  0  0  0  0  0  0  0  0
   61.3590   32.9300   49.2730 C   0  0  0  0  0  0  0  0  0  0  0  0
   60.9660   27.9790   49.3380 C   0  0  0  0  0  0  0  0  0  0  0  0
   60.1460   26.9340   48.9000 C   0  0  0  0  0  0  0  0  0  0  0  0
   57.9120   25.7160   44.4300 C   0  0  0  0  0  0  0  0  0  0  0  0
   58.2940   24.3230   44.7620 C   0  0  0  0  0  0  0  0  0  0  0  0
   59.4460   24.1060   45.2290 O   0  0  0  0  0  0  0  0  0  0  0  0
   57.3700   23.2270   44.5930 N   0  0  0  0  0  0  0  0  0  0  0  0
   57.8890   21.9140   44.1870 C   0  0  0  0  0  0  0  0  0  0  0  0
   56.9000   20.7920   44.5230 C   0  0  0  0  0  0  0  0  0  0  0  0
   55.5880   21.1330   44.1280 O   0  0  0  0  0  0  0  0  0  0  0  0
   55.1360   22.2180   44.9080 C   0  0  0  0  0  0  0  0  0  0  0  0
   55.9230   23.4850   44.5710 C   0  0  0  0  0  0  0  0  0  0  0  0
   58.0870   26.1630   43.1140 C   0  0  0  0  0  0  0  0  0  0  0  0
   57.8390   27.4570   42.7890 N   0  0  0  0  0  0  0  0  0  0  0  0
   57.7400   30.8200   45.3490 C   0  0  0  0  0  0  0  0  0  0  0  0
   58.1000   31.9950   46.0170 C   0  0  0  0  0  0  0  0  0  0  0  0
   58.2140   31.9570   47.3670 F   0  0  0  0  0  0  0  0  0  0  0  0
   60.4280   35.7560   45.9230 H   0  0  0  0  0  0  0  0  0  0  0  0
   58.2998   34.0968   43.3195 H   0  0  0  0  0  0  0  0  0  0  0  0
   57.6424   32.0046   42.1468 H   0  0  0  0  0  0  0  0  0  0  0  0
   56.8046   28.6742   45.7684 H   0  0  0  0  0  0  0  0  0  0  0  0
   57.6938   28.7651   47.3786 H   0  0  0  0  0  0  0  0  0  0  0  0
   59.1484   30.6281   48.1684 H   0  0  0  0  0  0  0  0  0  0  0  0
   62.9667   31.4074   47.1130 H   0  0  0  0  0  0  0  0  0  0  0  0
   61.3269   30.8247   46.8120 H   0  0  0  0  0  0  0  0  0  0  0  0
   62.2188   33.3594   46.0843 H   0  0  0  0  0  0  0  0  0  0  0  0
   60.5158   33.0241   46.4043 H   0  0  0  0  0  0  0  0  0  0  0  0
   62.5777   34.3884   48.1846 H   0  0  0  0  0  0  0  0  0  0  0  0
   60.3380   35.1140   47.0730 H   0  0  0  0  0  0  0  0  0  0  0  0
   59.7530   34.6060   48.5580 H   0  0  0  0  0  0  0  0  0  0  0  0
   62.0191   33.1788   50.1170 H   0  0  0  0  0  0  0  0  0  0  0  0
   60.3259   32.9962   49.6448 H   0  0  0  0  0  0  0  0  0  0  0  0
   61.8957   27.7535   49.8810 H   0  0  0  0  0  0  0  0  0  0  0  0
   60.4192   25.8927   49.1259 H   0  0  0  0  0  0  0  0  0  0  0  0
   58.0677   21.9201   43.1016 H   0  0  0  0  0  0  0  0  0  0  0  0
   58.8236   21.7269   44.7361 H   0  0  0  0  0  0  0  0  0  0  0  0
   57.2059   19.8749   43.9982 H   0  0  0  0  0  0  0  0  0  0  0  0
   56.9067   20.6361   45.6119 H   0  0  0  0  0  0  0  0  0  0  0  0
   54.0687   22.3901   44.7047 H   0  0  0  0  0  0  0  0  0  0  0  0
   55.2860   21.9785   45.9711 H   0  0  0  0  0  0  0  0  0  0  0  0
   55.6345   23.8316   43.5677 H   0  0  0  0  0  0  0  0  0  0  0  0
   55.6920   24.2523   45.3246 H   0  0  0  0  0  0  0  0  0  0  0  0
   58.4276   25.4606   42.3390 H   0  0  0  0  0  0  0  0  0  0  0  0
   57.5545   29.9005   45.9236 H   0  0  0  0  0  0  0  0  0  0  0  0
  1  2  1  0
  2  3  2  0
  2  4  1  0
  4  5  2  0
  5  6  1  0
  6  7  2  0
  7  8  1  0
  8  9  2  3
  9 10  1  0
 10 11  2  0
 11 12  1  0
 12 13  2  0
 12 14  1  0
 14 15  1  0
 15 16  2  0
 16 17  1  0
 17 18  2  0
 18 19  1  0
 19 20  2  0
 19 21  1  0
 21 22  1  0
 22 23  1  0
 23 24  1  0
 24 25  1  0
 24 26  1  0
 18 27  1  0
 27 28  2  0
 11 29  1  0
 29 30  1  0
 30 31  2  0
 30 32  1  0
 32 33  1  0
 33 34  1  0
 34 35  1  0
 35 36  1  0
 36 37  1  0
 29 38  2  0
 38 39  1  0
  7 40  1  0
 40 41  2  0
 41 42  1  0
 41  4  1  0
 39  9  1  0
 28 15  1  0
 37 32  1  0
 26 21  1  0
  1 43  1  0
  5 44  1  0
  6 45  1  0
 10 46  1  0
 16 47  1  0
 17 48  1  0
 22 49  1  0
 22 50  1  0
 23 51  1  0
 23 52  1  0
 24 53  1  1
 25 54  1  0
 25 55  1  0
 26 56  1  0
 26 57  1  0
 27 58  1  0
 28 59  1  0
 33 60  1  0
 33 61  1  0
 34 62  1  0
 34 63  1  0
 36 64  1  0
 36 65  1  0
 37 66  1  0
 37 67  1  0
 38 68  1  0
 40 69  1  0
M  CHG  3   1  -1  14  -1  39  -1
M  END
>  <UniqueID>  (24) 
23

>  <SMILES>  (24) 
[NH-]C(=O)c1ccc(N=c2cc(C(=O)[N-]c3ccc(C(=O)N4CC[C@@H](N)C4)cc3)c(C(=O)N3CCOCC3)c[n-]2)cc1F

>  <Energy>  (24) 
103.82872891273988

>  <Genealogy>  (24) 
[NH-]C(=O)c1ccc(N=c2cc(C(=O)[N-]c3ccc(C(=O)N4CCC(N)C4)cc3)c(C(=O)N3CCOCC3)c[n-]2)cc1F (protonated)
[NH-]C(=O)c1ccc(N=c2cc(C(=O)[N-]c3ccc(C(=O)N4CC[C@@H](N)C4)cc3)c(C(=O)N3CCOCC3)c[n-]2)cc1F (chirality)
[NH-]C(=O)c1ccc(N=c2cc(C(=O)[N-]c3ccc(C(=O)N4CC[C@@H](N)C4)cc3)c(C(=O)N3CCOCC3)c[n-]2)cc1F (3D coordinates assigned)
[NH-]C(=O)c1ccc(N=c2cc(C(=O)[N-]c3ccc(C(=O)N4CC[C@@H](N)C4)cc3)c(C(=O)N3CCOCC3)c[n-]2)cc1F (nonaromatic ring conformer: 103.82872891273988 kcal/mol)

>  <smiles>  (24) 
NC(=O)c1ccc(N=c2cc(C(=O)Nc3ccc(C(=O)N4CCC(N)C4)cc3)c(C(=O)N3CCOCC3)c[nH]2)cc1F

>  <score_type>  (24) 
oracle

>  <origin>  (24) 
adg

>  <m_score__min__energy>  (24) 
-16.289999999999999

>  <m_primary>  (24) 
energy

$$$$
24:0
     RDKit          3D

 51 54  0  0  1  0  0  0  0  0999 V2000
   55.1760   29.7750   44.9080 N   0  0  0  0  0  0  0  0  0  0  0  0
   56.4580   29.7460   44.7730 C   0  0  0  0  0  0  0  0  0  0  0  0
   57.1770   29.0680   43.8740 N   0  0  0  0  0  0  0  0  0  0  0  0
   58.4640   29.3000   44.0640 N   0  0  0  0  0  0  0  0  0  0  0  0
   58.5820   30.1420   45.1010 C   0  0  0  0  0  0  0  0  0  0  0  0
   59.6950   30.5840   45.5630 N   0  0  0  0  0  0  0  0  0  0  0  0
   60.7380   29.6940   46.0220 C   0  0  0  0  0  0  0  0  0  0  0  0
   60.6460   29.4950   47.4980 C   0  0  0  0  0  0  0  0  0  0  0  0
   60.0670   28.3600   48.0450 C   0  0  0  0  0  0  0  0  0  0  0  0
   59.9720   28.1860   49.4140 C   0  0  0  0  0  0  0  0  0  0  0  0
   60.4520   29.1410   50.2800 C   0  0  0  0  0  0  0  0  0  0  0  0
   61.0300   30.2770   49.7660 C   0  0  0  0  0  0  0  0  0  0  0  0
   61.1210   30.4420   48.4000 C   0  0  0  0  0  0  0  0  0  0  0  0
   61.7390   31.6270   47.8170 C   0  0  0  0  0  0  0  0  0  0  0  0
   63.0720   31.5880   47.4830 C   0  0  0  0  0  0  0  0  0  0  0  0
   63.6930   32.6910   46.9420 C   0  0  0  0  0  0  0  0  0  0  0  0
   62.9500   33.8190   46.7470 C   0  0  0  0  0  0  0  0  0  0  0  0
   61.6180   33.8540   47.0830 C   0  0  0  0  0  0  0  0  0  0  0  0
   60.9500   32.7630   47.6320 C   0  0  0  0  0  0  0  0  0  0  0  0
   59.2820   32.8550   48.0230 S   0  0  0  0  0  0  0  0  0  0  0  0
   59.1140   33.1330   49.4890 O   0  0  0  0  0  0  0  0  0  0  0  0
   58.7090   31.4570   47.8100 O   0  0  0  0  0  0  0  0  0  0  0  0
   58.3640   33.9070   47.0680 N   0  0  0  0  0  0  0  0  0  0  0  0
   59.1760   34.5590   46.1050 C   0  0  0  0  0  0  0  0  0  0  0  0
   58.8070   34.1640   44.6760 C   0  0  0  0  0  0  0  0  0  0  0  0
   57.4510   34.5100   44.5510 O   0  0  0  0  0  0  0  0  0  0  0  0
   56.7120   33.5920   45.2500 C   0  0  0  0  0  0  0  0  0  0  0  0
   57.0850   33.4640   46.6940 C   0  0  0  0  0  0  0  0  0  0  0  0
   57.3400   30.4120   45.5300 N   0  0  0  0  0  0  0  0  0  0  0  0
   54.7700   30.4510   45.5840 H   0  0  0  0  0  0  0  0  0  0  0  0
   56.7830   28.4450   43.1330 H   0  0  0  0  0  0  0  0  0  0  0  0
   59.2420   28.8810   43.4830 H   0  0  0  0  0  0  0  0  0  0  0  0
   60.6312   28.7218   45.5187 H   0  0  0  0  0  0  0  0  0  0  0  0
   61.7151   30.1399   45.7843 H   0  0  0  0  0  0  0  0  0  0  0  0
   59.6745   27.5806   47.3754 H   0  0  0  0  0  0  0  0  0  0  0  0
   59.5071   27.2732   49.8149 H   0  0  0  0  0  0  0  0  0  0  0  0
   60.3743   28.9975   51.3678 H   0  0  0  0  0  0  0  0  0  0  0  0
   61.4189   31.0524   50.4424 H   0  0  0  0  0  0  0  0  0  0  0  0
   63.6482   30.6660   47.6498 H   0  0  0  0  0  0  0  0  0  0  0  0
   64.7595   32.6639   46.6741 H   0  0  0  0  0  0  0  0  0  0  0  0
   63.4240   34.7126   46.3148 H   0  0  0  0  0  0  0  0  0  0  0  0
   61.0557   34.7836   46.9108 H   0  0  0  0  0  0  0  0  0  0  0  0
   59.0521   35.6464   46.2151 H   0  0  0  0  0  0  0  0  0  0  0  0
   60.2184   34.2549   46.2808 H   0  0  0  0  0  0  0  0  0  0  0  0
   59.4180   34.7198   43.9495 H   0  0  0  0  0  0  0  0  0  0  0  0
   58.9847   33.0964   44.4795 H   0  0  0  0  0  0  0  0  0  0  0  0
   55.6541   33.8879   45.1935 H   0  0  0  0  0  0  0  0  0  0  0  0
   56.9106   32.6137   44.7879 H   0  0  0  0  0  0  0  0  0  0  0  0
   56.3516   34.0398   47.2776 H   0  0  0  0  0  0  0  0  0  0  0  0
   57.0910   32.3817   46.8905 H   0  0  0  0  0  0  0  0  0  0  0  0
   57.0810   31.0270   46.3140 H   0  0  0  0  0  0  0  0  0  0  0  0
  1  2  2  3
  2  3  1  0
  3  4  1  0
  4  5  1  0
  5  6  2  0
  6  7  1  0
  7  8  1  0
  8  9  2  0
  9 10  1  0
 10 11  2  0
 11 12  1  0
 12 13  2  0
 13 14  1  0
 14 15  2  0
 15 16  1  0
 16 17  2  0
 17 18  1  0
 18 19  2  0
 19 20  1  0
 20 21  2  0
 20 22  2  0
 20 23  1  0
 23 24  1  0
 24 25  1  0
 25 26  1  0
 26 27  1  0
 27 28  1  0
  5 29  1  0
 29  2  1  0
 13  8  1  0
 19 14  1  0
 28 23  1  0
  1 30  1  0
  3 31  1  0
  4 32  1  0
  7 33  1  0
  7 34  1  0
  9 35  1  0
 10 36  1  0
 11 37  1  0
 12 38  1  0
 15 39  1  0
 16 40  1  0
 17 41  1  0
 18 42  1  0
 24 43  1  0
 24 44  1  0
 25 45  1  0
 25 46  1  0
 27 47  1  0
 27 48  1  0
 28 49  1  0
 28 50  1  0
 29 51  1  0
M  END
>  <smiles>  (25) 
N=c1[nH][nH]c(=NCc2ccccc2-c2ccccc2S(=O)(=O)N2CCOCC2)[nH]1

>  <score_type>  (25) 
oracle

>  <origin>  (25) 
adg

>  <m_score__min__energy>  (25) 
-8.5099999999999998

>  <m_primary>  (25) 
energy

$$$$
25:0
     RDKit          3D

 41 43  0  0  0  0  0  0  0  0999 V2000
   63.7160   33.7740   47.5940 C   0  0  0  0  0  0  0  0  0  0  0  0
   63.8870   33.1900   48.9930 C   0  0  0  0  0  0  0  0  0  0  0  0
   63.3400   31.8730   49.0620 O   0  0  0  0  0  0  0  0  0  0  0  0
   62.1380   31.4540   48.4650 C   0  0  0  0  0  0  0  0  0  0  0  0
   62.1910   30.9530   47.1590 C   0  0  0  0  0  0  0  0  0  0  0  0
   61.0280   30.5230   46.5140 C   0  0  0  0  0  0  0  0  0  0  0  0
   59.7900   30.5910   47.1690 C   0  0  0  0  0  0  0  0  0  0  0  0
   58.5890   30.1440   46.5050 N   0  0  0  0  0  0  0  0  0  0  0  0
   57.7930   31.0470   45.8540 C   0  0  0  0  0  0  0  0  0  0  0  0
   58.1020   32.2680   45.8130 O   0  0  0  0  0  0  0  0  0  0  0  0
   56.6630   30.6350   45.2290 N   0  0  0  0  0  0  0  0  0  0  0  0
   56.2870   29.3340   45.2230 C   0  0  0  0  0  0  0  0  0  0  0  0
   55.1250   28.9780   44.5470 O   0  0  0  0  0  0  0  0  0  0  0  0
   57.0740   28.3690   45.8760 C   0  0  0  0  0  0  0  0  0  0  0  0
   56.6790   26.9340   45.8790 C   0  0  0  0  0  0  0  0  0  0  0  0
   55.5390   26.5940   46.2960 O   0  0  0  0  0  0  0  0  0  0  0  0
   57.5710   25.9410   45.3540 N   0  0  0  0  0  0  0  0  0  0  0  0
   57.4070   24.5170   45.4290 C   0  0  0  0  0  0  0  0  0  0  0  0
   57.2450   23.7950   44.2380 C   0  0  0  0  0  0  0  0  0  0  0  0
   57.1020   22.4050   44.2650 C   0  0  0  0  0  0  0  0  0  0  0  0
   57.1380   21.7220   45.4840 C   0  0  0  0  0  0  0  0  0  0  0  0
   57.3270   22.4280   46.6750 C   0  0  0  0  0  0  0  0  0  0  0  0
   57.3820   21.7460   47.8840 O   0  0  0  0  0  0  0  0  0  0  0  0
   57.4670   23.8210   46.6510 C   0  0  0  0  0  0  0  0  0  0  0  0
   58.2430   28.8160   46.5300 C   0  0  0  0  0  0  0  0  0  0  0  0
   58.9610   27.9940   47.1670 O   0  0  0  0  0  0  0  0  0  0  0  0
   59.7310   31.0950   48.4770 C   0  0  0  0  0  0  0  0  0  0  0  0
   60.8940   31.5250   49.1220 C   0  0  0  0  0  0  0  0  0  0  0  0
   63.4077   34.8271   47.6714 H   0  0  0  0  0  0  0  0  0  0  0  0
   64.6705   33.7104   47.0509 H   0  0  0  0  0  0  0  0  0  0  0  0
   62.9466   33.2056   47.0509 H   0  0  0  0  0  0  0  0  0  0  0  0
   64.9585   33.1490   49.2384 H   0  0  0  0  0  0  0  0  0  0  0  0
   63.3546   33.8314   49.7108 H   0  0  0  0  0  0  0  0  0  0  0  0
   63.1568   30.8972   46.6355 H   0  0  0  0  0  0  0  0  0  0  0  0
   61.0841   30.1296   45.4883 H   0  0  0  0  0  0  0  0  0  0  0  0
   57.2303   24.3266   43.2751 H   0  0  0  0  0  0  0  0  0  0  0  0
   56.9611   21.8484   43.3268 H   0  0  0  0  0  0  0  0  0  0  0  0
   57.0176   20.6288   45.5058 H   0  0  0  0  0  0  0  0  0  0  0  0
   57.6243   24.3728   47.5895 H   0  0  0  0  0  0  0  0  0  0  0  0
   58.7638   31.1521   48.9979 H   0  0  0  0  0  0  0  0  0  0  0  0
   60.8376   31.9205   50.1469 H   0  0  0  0  0  0  0  0  0  0  0  0
  1  2  1  0
  2  3  1  0
  3  4  1  0
  4  5  2  0
  5  6  1  0
  6  7  2  0
  7  8  1  0
  8  9  1  0
  9 10  2  0
  9 11  1  0
 11 12  1  0
 12 13  1  0
 12 14  2  0
 14 15  1  0
 15 16  2  0
 15 17  1  0
 17 18  1  0
 18 19  2  0
 19 20  1  0
 20 21  2  0
 21 22  1  0
 22 23  1  0
 22 24  2  0
 14 25  1  0
 25 26  2  0
  7 27  1  0
 27 28  2  0
 28  4  1  0
 25  8  1  0
 24 18  1  0
  1 29  1  0
  1 30  1  0
  1 31  1  0
  2 32  1  0
  2 33  1  0
  5 34  1  0
  6 35  1  0
 19 36  1  0
 20 37  1  0
 21 38  1  0
 24 39  1  0
 27 40  1  0
 28 41  1  0
M  CHG  4  11  -1  13  -1  17  -1  23  -1
M  END
>  <UniqueID>  (26) 
24

>  <SMILES>  (26) 
CCOc1ccc(-n2c(=O)[n-]c([O-])c(C(=O)[N-]c3cccc([O-])c3)c2=O)cc1

>  <Energy>  (26) 
61.16936205328815

>  <Genealogy>  (26) 
CCOc1ccc(-n2c(=O)[n-]c([O-])c(C(=O)[N-]c3cccc([O-])c3)c2=O)cc1 (protonated)
CCOc1ccc(-n2c(=O)[n-]c([O-])c(C(=O)[N-]c3cccc([O-])c3)c2=O)cc1 (3D coordinates assigned)
CCOc1ccc(-n2c(=O)[n-]c([O-])c(C(=O)[N-]c3cccc([O-])c3)c2=O)cc1 (optimized conformer: 61.16936205328815 kcal/mol)

>  <smiles>  (26) 
CCOc1ccc(-n2c(=O)[nH]c(O)c(C(=O)Nc3cccc(O)c3)c2=O)cc1

>  <score_type>  (26) 
oracle

>  <origin>  (26) 
adg

>  <m_score__min__energy>  (26) 
-15.93

>  <m_primary>  (26) 
energy

$$$$
26:0
     RDKit          3D

 53 56  0  0  0  0  0  0  0  0999 V2000
   59.2250   31.4990   49.0700 H   0  0  0  0  0  0  0  0  0  0  0  0
   58.5210   32.1770   48.7960 O   0  0  0  0  0  0  0  0  0  0  0  0
   58.3110   32.5130   47.4580 C   0  0  0  0  0  0  0  0  0  0  0  0
   57.3350   33.4640   47.1200 C   0  0  0  0  0  0  0  0  0  0  0  0
   56.7194   33.9206   47.9090 H   0  0  0  0  0  0  0  0  0  0  0  0
   57.1420   33.8330   45.7870 C   0  0  0  0  0  0  0  0  0  0  0  0
   56.3731   34.5758   45.5282 H   0  0  0  0  0  0  0  0  0  0  0  0
   57.9240   33.2600   44.7830 C   0  0  0  0  0  0  0  0  0  0  0  0
   57.7766   33.5581   43.7345 H   0  0  0  0  0  0  0  0  0  0  0  0
   58.8940   32.3080   45.1080 C   0  0  0  0  0  0  0  0  0  0  0  0
   59.5112   31.8642   44.3130 H   0  0  0  0  0  0  0  0  0  0  0  0
   59.0870   31.9130   46.4440 C   0  0  0  0  0  0  0  0  0  0  0  0
   60.0950   30.9290   46.7680 N   0  0  0  0  0  0  0  0  0  0  0  0
   61.0640   31.1880   47.8060 C   0  0  0  0  0  0  0  0  0  0  0  0
   61.0470   30.5060   48.8660 O   0  0  0  0  0  0  0  0  0  0  0  0
   62.1220   32.2040   47.6420 C   0  0  0  0  0  0  0  0  0  0  0  0
   63.4120   31.9200   47.2360 C   0  0  0  0  0  0  0  0  0  0  0  0
   63.8232   30.9280   46.9977 H   0  0  0  0  0  0  0  0  0  0  0  0
   64.0840   33.1260   47.1880 C   0  0  0  0  0  0  0  0  0  0  0  0
   65.1318   33.2831   46.8923 H   0  0  0  0  0  0  0  0  0  0  0  0
   63.1830   34.0970   47.5840 C   0  0  0  0  0  0  0  0  0  0  0  0
   63.4044   35.1723   47.6530 H   0  0  0  0  0  0  0  0  0  0  0  0
   61.9940   33.5330   47.8730 N   0  0  0  0  0  0  0  0  0  0  0  0
   60.8350   34.2590   48.3860 C   0  0  0  0  0  0  0  0  0  0  0  0
   60.8527   34.2479   49.4858 H   0  0  0  0  0  0  0  0  0  0  0  0
   60.8665   35.2991   48.0293 H   0  0  0  0  0  0  0  0  0  0  0  0
   59.9129   33.7768   48.0293 H   0  0  0  0  0  0  0  0  0  0  0  0
   60.2720   29.7710   45.8800 C   0  0  0  0  0  0  0  0  0  0  0  0
   60.3231   30.1177   44.8373 H   0  0  0  0  0  0  0  0  0  0  0  0
   61.2032   29.2516   46.1504 H   0  0  0  0  0  0  0  0  0  0  0  0
   59.1180   28.8170   46.0300 C   0  0  0  0  0  0  0  0  0  0  0  0
   58.0600   28.8420   45.1080 C   0  0  0  0  0  0  0  0  0  0  0  0
   58.0564   29.5886   44.3001 H   0  0  0  0  0  0  0  0  0  0  0  0
   57.0120   27.9250   45.2100 C   0  0  0  0  0  0  0  0  0  0  0  0
   56.1814   27.9616   44.4897 H   0  0  0  0  0  0  0  0  0  0  0  0
   57.0120   26.9550   46.2280 C   0  0  0  0  0  0  0  0  0  0  0  0
   55.9080   25.9720   46.3370 C   0  0  0  0  0  0  0  0  0  0  0  0
   54.7450   26.3130   45.9960 O   0  0  0  0  0  0  0  0  0  0  0  0
   56.1280   24.6200   46.7710 N   0  0  0  0  0  0  0  0  0  0  0  0
   56.6940   23.6770   46.0740 C   0  0  0  0  0  0  0  0  0  0  0  0
   57.3940   22.6750   46.6770 N   0  0  0  0  0  0  0  0  0  0  0  0
   57.9810   21.6760   45.9650 C   0  0  0  0  0  0  0  0  0  0  0  0
   58.5416   20.8855   46.4855 H   0  0  0  0  0  0  0  0  0  0  0  0
   57.8720   21.6540   44.5740 C   0  0  0  0  0  0  0  0  0  0  0  0
   58.3493   20.8524   43.9912 H   0  0  0  0  0  0  0  0  0  0  0  0
   57.1510   22.6600   43.9310 C   0  0  0  0  0  0  0  0  0  0  0  0
   57.0528   22.6530   42.8354 H   0  0  0  0  0  0  0  0  0  0  0  0
   56.5540   23.6760   44.6800 C   0  0  0  0  0  0  0  0  0  0  0  0
   55.9786   24.4689   44.1798 H   0  0  0  0  0  0  0  0  0  0  0  0
   58.0620   26.9440   47.1620 C   0  0  0  0  0  0  0  0  0  0  0  0
   58.0587   26.2083   47.9797 H   0  0  0  0  0  0  0  0  0  0  0  0
   59.1100   27.8620   47.0580 C   0  0  0  0  0  0  0  0  0  0  0  0
   59.9339   27.8360   47.7864 H   0  0  0  0  0  0  0  0  0  0  0  0
  1  2  1  0
  2  3  1  0
  3  4  2  0
  4  5  1  0
  4  6  1  0
  6  7  1  0
  6  8  2  0
  8  9  1  0
  8 10  1  0
 10 11  1  0
 10 12  2  0
 12 13  1  0
 13 14  1  0
 14 15  2  0
 14 16  1  0
 16 17  2  0
 17 18  1  0
 17 19  1  0
 19 20  1  0
 19 21  2  0
 21 22  1  0
 21 23  1  0
 23 24  1  0
 24 25  1  0
 24 26  1  0
 24 27  1  0
 13 28  1  0
 28 29  1  0
 28 30  1  0
 28 31  1  0
 31 32  2  0
 32 33  1  0
 32 34  1  0
 34 35  1  0
 34 36  2  0
 36 37  1  0
 37 38  2  0
 37 39  1  0
 39 40  2  0
 40 41  1  0
 41 42  1  0
 42 43  1  0
 42 44  2  0
 44 45  1  0
 44 46  1  0
 46 47  1  0
 46 48  2  0
 48 49  1  0
 36 50  1  0
 50 51  1  0
 50 52  2  0
 52 53  1  0
 12  3  1  0
 23 16  1  0
 52 31  1  0
 48 40  1  0
M  CHG  1  41  -1
M  END
>  <UniqueID>  (27) 
25

>  <SMILES>  (27) 
Cn1cccc1C(=O)N(Cc1ccc(C(=O)/N=c2/cccc[n-]2)cc1)c1ccccc1O

>  <Energy>  (27) 
98.49211302329935

>  <Genealogy>  (27) 
Cn1cccc1C(=O)N(Cc1ccc(C(=O)N=c2cccc[n-]2)cc1)c1ccccc1O (protonated)
Cn1cccc1C(=O)N(Cc1ccc(C(=O)/N=c2/cccc[n-]2)cc1)c1ccccc1O (cis-trans isomerization)
Cn1cccc1C(=O)N(Cc1ccc(C(=O)/N=c2/cccc[n-]2)cc1)c1ccccc1O (3D coordinates assigned)
Cn1cccc1C(=O)N(Cc1ccc(C(=O)/N=c2/cccc[n-]2)cc1)c1ccccc1O (optimized conformer: 98.49211302329935 kcal/mol)

>  <smiles>  (27) 
Cn1cccc1C(=O)N(Cc1ccc(C(=O)N=c2cccc[nH]2)cc1)c1ccccc1O

>  <score_type>  (27) 
oracle

>  <origin>  (27) 
adg

>  <m_score__min__energy>  (27) 
-10.789999999999999

>  <m_primary>  (27) 
energy

$$$$
27:0
     RDKit          3D

 58 61  0  0  0  0  0  0  0  0999 V2000
   59.0510   30.1100   47.8790 O   0  0  0  0  0  0  0  0  0  0  0  0
   58.5140   29.2450   47.1370 C   0  0  0  0  0  0  0  0  0  0  0  0
   58.3730   29.5160   45.6730 C   0  0  0  0  0  0  0  0  0  0  0  0
   58.3070   30.9580   45.4380 N   0  0  0  0  0  0  0  0  0  0  0  0
   59.2060   31.9010   45.7780 C   0  0  0  0  0  0  0  0  0  0  0  0
   60.4430   31.6650   46.3760 O   0  0  0  0  0  0  0  0  0  0  0  0
   58.7020   33.1380   45.4420 C   0  0  0  0  0  0  0  0  0  0  0  0
   59.4040   34.4560   45.5840 C   0  0  0  0  0  0  0  0  0  0  0  0
   59.7760   34.7440   47.0440 C   0  0  0  0  0  0  0  0  0  0  0  0
   61.1260   34.1730   47.3990 C   0  0  0  0  0  0  0  0  0  0  0  0
   62.0980   33.9760   46.4040 C   0  0  0  0  0  0  0  0  0  0  0  0
   63.3630   33.4850   46.7420 C   0  0  0  0  0  0  0  0  0  0  0  0
   63.6680   33.1960   48.0750 C   0  0  0  0  0  0  0  0  0  0  0  0
   62.7090   33.3960   49.0720 C   0  0  0  0  0  0  0  0  0  0  0  0
   61.4420   33.8860   48.7360 C   0  0  0  0  0  0  0  0  0  0  0  0
   57.4790   32.9930   44.8880 N   0  0  0  0  0  0  0  0  0  0  0  0
   57.2750   31.6570   44.9170 C   0  0  0  0  0  0  0  0  0  0  0  0
   56.2150   31.1210   44.4980 O   0  0  0  0  0  0  0  0  0  0  0  0
   58.1410   27.9610   47.6540 N   0  0  0  0  0  0  0  0  0  0  0  0
   58.4560   26.6870   47.0760 C   0  0  0  0  0  0  0  0  0  0  0  0
   59.7140   26.4150   46.5080 C   0  0  0  0  0  0  0  0  0  0  0  0
   59.9840   25.1550   45.9690 C   0  0  0  0  0  0  0  0  0  0  0  0
   59.0090   24.1560   45.9970 C   0  0  0  0  0  0  0  0  0  0  0  0
   57.7580   24.4080   46.5780 C   0  0  0  0  0  0  0  0  0  0  0  0
   56.5370   23.1390   46.6410 S   0  0  0  0  0  0  0  0  0  0  0  0
   57.0040   22.0580   47.5770 O   0  0  0  0  0  0  0  0  0  0  0  0
   55.2500   23.7070   47.1760 O   0  0  0  0  0  0  0  0  0  0  0  0
   56.2880   22.4680   45.0480 N   0  0  0  0  0  0  0  0  0  0  0  0
   57.3480   21.4880   44.7420 C   0  0  0  0  0  0  0  0  0  0  0  0
   57.3690   21.1440   43.2400 C   0  0  0  0  0  0  0  0  0  0  0  0
   56.1680   21.5460   42.6130 O   0  0  0  0  0  0  0  0  0  0  0  0
   56.0630   22.9610   42.6390 C   0  0  0  0  0  0  0  0  0  0  0  0
   56.2870   23.5470   44.0490 C   0  0  0  0  0  0  0  0  0  0  0  0
   57.4930   25.6700   47.1290 C   0  0  0  0  0  0  0  0  0  0  0  0
   59.2399   29.0988   45.1397 H   0  0  0  0  0  0  0  0  0  0  0  0
   57.4489   29.0463   45.3050 H   0  0  0  0  0  0  0  0  0  0  0  0
   60.5450   31.0280   47.1550 H   0  0  0  0  0  0  0  0  0  0  0  0
   60.3223   34.4383   44.9786 H   0  0  0  0  0  0  0  0  0  0  0  0
   58.7218   35.2476   45.2405 H   0  0  0  0  0  0  0  0  0  0  0  0
   59.7979   35.8329   47.1981 H   0  0  0  0  0  0  0  0  0  0  0  0
   59.0225   34.2694   47.6897 H   0  0  0  0  0  0  0  0  0  0  0  0
   61.8631   34.2089   45.3549 H   0  0  0  0  0  0  0  0  0  0  0  0
   64.1184   33.3261   45.9583 H   0  0  0  0  0  0  0  0  0  0  0  0
   64.6637   32.8108   48.3398 H   0  0  0  0  0  0  0  0  0  0  0  0
   62.9502   33.1682   50.1208 H   0  0  0  0  0  0  0  0  0  0  0  0
   60.6906   34.0469   49.5231 H   0  0  0  0  0  0  0  0  0  0  0  0
   60.4874   27.1970   46.4883 H   0  0  0  0  0  0  0  0  0  0  0  0
   60.9675   24.9492   45.5213 H   0  0  0  0  0  0  0  0  0  0  0  0
   59.2228   23.1685   45.5621 H   0  0  0  0  0  0  0  0  0  0  0  0
   58.3222   21.9118   45.0271 H   0  0  0  0  0  0  0  0  0  0  0  0
   57.1462   20.5669   45.3085 H   0  0  0  0  0  0  0  0  0  0  0  0
   58.2146   21.6620   42.7638 H   0  0  0  0  0  0  0  0  0  0  0  0
   57.4745   20.0545   43.1308 H   0  0  0  0  0  0  0  0  0  0  0  0
   56.8172   23.3828   41.9583 H   0  0  0  0  0  0  0  0  0  0  0  0
   55.0418   23.2251   42.3269 H   0  0  0  0  0  0  0  0  0  0  0  0
   57.2544   24.0699   44.0767 H   0  0  0  0  0  0  0  0  0  0  0  0
   55.4749   24.2521   44.2801 H   0  0  0  0  0  0  0  0  0  0  0  0
   56.5212   25.8634   47.6068 H   0  0  0  0  0  0  0  0  0  0  0  0
  1  2  2  0
  2  3  1  0
  3  4  1  0
  4  5  1  0
  5  6  1  0
  5  7  2  0
  7  8  1  0
  8  9  1  0
  9 10  1  0
 10 11  2  0
 11 12  1  0
 12 13  2  0
 13 14  1  0
 14 15  2  0
  7 16  1  0
 16 17  1  0
 17 18  2  0
  2 19  1  0
 19 20  1  0
 20 21  2  0
 21 22  1  0
 22 23  2  0
 23 24  1  0
 24 25  1  0
 25 26  2  0
 25 27  2  0
 25 28  1  0
 28 29  1  0
 29 30  1  0
 30 31  1  0
 31 32  1  0
 32 33  1  0
 24 34  2  0
 17  4  1  0
 34 20  1  0
 15 10  1  0
 33 28  1  0
  3 35  1  0
  3 36  1  0
  6 37  1  0
  8 38  1  0
  8 39  1  0
  9 40  1  0
  9 41  1  0
 11 42  1  0
 12 43  1  0
 13 44  1  0
 14 45  1  0
 15 46  1  0
 21 47  1  0
 22 48  1  0
 23 49  1  0
 29 50  1  0
 29 51  1  0
 30 52  1  0
 30 53  1  0
 32 54  1  0
 32 55  1  0
 33 56  1  0
 33 57  1  0
 34 58  1  0
M  CHG  2  16  -1  19  -1
M  END
>  <UniqueID>  (28) 
26

>  <SMILES>  (28) 
O=C(Cn1c(O)c(CCc2ccccc2)[n-]c1=O)[N-]c1cccc(S(=O)(=O)N2CCOCC2)c1

>  <Energy>  (28) 
97.3548701015984

>  <Genealogy>  (28) 
O=C(Cn1c(O)c(CCc2ccccc2)[n-]c1=O)[N-]c1cccc(S(=O)(=O)N2CCOCC2)c1 (protonated)
O=C(Cn1c(O)c(CCc2ccccc2)[n-]c1=O)[N-]c1cccc(S(=O)(=O)N2CCOCC2)c1 (3D coordinates assigned)
O=C(Cn1c(O)c(CCc2ccccc2)[n-]c1=O)[N-]c1cccc(S(=O)(=O)N2CCOCC2)c1 (nonaromatic ring conformer: 97.3548701015984 kcal/mol)

>  <smiles>  (28) 
O=C(Cn1c(O)c(CCc2ccccc2)[nH]c1=O)Nc1cccc(S(=O)(=O)N2CCOCC2)c1

>  <score_type>  (28) 
oracle

>  <origin>  (28) 
adg

>  <m_score__min__energy>  (28) 
-14.119999999999999

>  <m_primary>  (28) 
energy

$$$$
28:0
     RDKit          3D

 25 26  0  0  0  0  0  0  0  0999 V2000
   52.7833   27.8512   52.7502 H   0  0  0  0  0  0  0  0  0  0  0  0
   53.8830   27.8750   52.7540 C   0  0  0  0  0  0  0  0  0  0  0  0
   54.4529   26.9428   52.8812 H   0  0  0  0  0  0  0  0  0  0  0  0
   54.5270   29.0370   52.6040 C   0  0  0  0  0  0  0  0  0  0  0  0
   55.8900   29.0490   52.6110 N   0  0  0  0  0  0  0  0  0  0  0  0
   56.3950   30.2580   52.2990 C   0  0  0  0  0  0  0  0  0  0  0  0
   57.6720   30.4840   52.2400 N   0  0  0  0  0  0  0  0  0  0  0  0
   58.3170   31.2670   51.1890 C   0  0  0  0  0  0  0  0  0  0  0  0
   59.3426   30.8996   51.0366 H   0  0  0  0  0  0  0  0  0  0  0  0
   57.7449   31.1640   50.2551 H   0  0  0  0  0  0  0  0  0  0  0  0
   58.3600   32.7320   51.5940 C   0  0  0  0  0  0  0  0  0  0  0  0
   58.3623   32.8092   52.6913 H   0  0  0  0  0  0  0  0  0  0  0  0
   59.2722   33.1970   51.1919 H   0  0  0  0  0  0  0  0  0  0  0  0
   57.4767   33.2497   51.1919 H   0  0  0  0  0  0  0  0  0  0  0  0
   55.1820   31.3800   51.9920 S   0  0  0  0  0  0  0  0  0  0  0  0
   53.9340   30.2910   52.3120 C   0  0  0  0  0  0  0  0  0  0  0  0
   52.6440   30.6720   52.2830 C   0  0  0  0  0  0  0  0  0  0  0  0
   52.1362   30.7886   53.2518 H   0  0  0  0  0  0  0  0  0  0  0  0
   51.8500   30.9470   51.0760 C   0  0  0  0  0  0  0  0  0  0  0  0
   51.8390   30.1480   49.9950 N   0  0  0  0  0  0  0  0  0  0  0  0
   51.1000   30.8410   49.1020 C   0  0  0  0  0  0  0  0  0  0  0  0
   50.8440   30.4040   47.9500 O   0  0  0  0  0  0  0  0  0  0  0  0
   50.6660   32.0440   49.5360 N   0  0  0  0  0  0  0  0  0  0  0  0
   51.1630   32.1030   50.7820 C   0  0  0  0  0  0  0  0  0  0  0  0
   51.0140   33.2010   51.6210 O   0  0  0  0  0  0  0  0  0  0  0  0
  1  2  1  0
  2  3  1  0
  2  4  2  0
  4  5  1  0
  5  6  1  0
  6  7  2  0
  7  8  1  0
  8  9  1  0
  8 10  1  0
  8 11  1  0
 11 12  1  0
 11 13  1  0
 11 14  1  0
  6 15  1  0
 15 16  1  0
 16 17  2  0
 17 18  1  0
 17 19  1  0
 19 20  1  0
 20 21  1  0
 21 22  2  0
 21 23  1  0
 23 24  1  0
 24 25  1  0
 16  4  1  0
 24 19  2  0
M  CHG  4   5  -1  20  -1  23  -1  25  -1
M  END
>  <UniqueID>  (29) 
27

>  <SMILES>  (29) 
C=c1[n-]/c(=N/CC)s/c1=C/c1[n-]c(=O)[n-]c1[O-]

>  <Energy>  (29) 
94.53282282940853

>  <Genealogy>  (29) 
C=c1[n-]c(=NCC)sc1=Cc1[n-]c(=O)[n-]c1[O-] (protonated)
C=c1[n-]/c(=N/CC)s/c1=C/c1[n-]c(=O)[n-]c1[O-] (cis-trans isomerization)
C=c1[n-]/c(=N/CC)s/c1=C/c1[n-]c(=O)[n-]c1[O-] (3D coordinates assigned)
C=c1[n-]/c(=N/CC)s/c1=C/c1[n-]c(=O)[n-]c1[O-] (optimized conformer: 94.53282282940853 kcal/mol)

>  <smiles>  (29) 
C=c1[nH]c(=NCC)sc1=Cc1[nH]c(=O)[nH]c1O

>  <score_type>  (29) 
oracle

>  <origin>  (29) 
adg

>  <m_score__min__energy>  (29) 
-15.949999999999999

>  <m_primary>  (29) 
energy

$$$$
29:0
     RDKit          3D

 49 52  0  0  0  0  0  0  0  0999 V2000
   60.3140   30.4130   46.1930 C   0  0  0  0  0  0  0  0  0  0  0  0
   59.5740   31.5260   46.0750 C   0  0  0  0  0  0  0  0  0  0  0  0
   58.2640   31.6280   45.5790 C   0  0  0  0  0  0  0  0  0  0  0  0
   57.4960   30.7390   44.9200 C   0  0  0  0  0  0  0  0  0  0  0  0
   57.1230   29.4020   45.4080 C   0  0  0  0  0  0  0  0  0  0  0  0
   57.9650   28.5410   46.0080 N   0  0  0  0  0  0  0  0  0  0  0  0
   57.2230   27.4210   46.1410 C   0  0  0  0  0  0  0  0  0  0  0  0
   57.6680   26.3750   46.6820 O   0  0  0  0  0  0  0  0  0  0  0  0
   55.9740   27.5040   45.6370 N   0  0  0  0  0  0  0  0  0  0  0  0
   55.9330   28.7600   45.1650 C   0  0  0  0  0  0  0  0  0  0  0  0
   54.8320   29.3080   44.5190 O   0  0  0  0  0  0  0  0  0  0  0  0
   57.8330   32.9090   45.8850 C   0  0  0  0  0  0  0  0  0  0  0  0
   58.8980   33.5610   46.4720 C   0  0  0  0  0  0  0  0  0  0  0  0
   58.8570   34.9760   46.9630 C   0  0  0  0  0  0  0  0  0  0  0  0
   59.9510   32.7230   46.5930 N   0  0  0  0  0  0  0  0  0  0  0  0
   61.2150   33.0340   47.2090 C   0  0  0  0  0  0  0  0  0  0  0  0
   62.3210   33.3130   46.3950 C   0  0  0  0  0  0  0  0  0  0  0  0
   63.5620   33.6060   46.9660 C   0  0  0  0  0  0  0  0  0  0  0  0
   63.7080   33.6100   48.3530 C   0  0  0  0  0  0  0  0  0  0  0  0
   62.6150   33.3290   49.1750 C   0  0  0  0  0  0  0  0  0  0  0  0
   61.3560   33.0550   48.6150 C   0  0  0  0  0  0  0  0  0  0  0  0
   60.2160   32.7260   49.4960 C   0  0  0  0  0  0  0  0  0  0  0  0
   59.6070   33.6680   50.0730 O   0  0  0  0  0  0  0  0  0  0  0  0
   59.8170   31.3640   49.7400 N   0  0  0  0  0  0  0  0  0  0  0  0
   60.4540   30.5410   50.7570 C   0  0  0  0  0  0  0  0  0  0  0  0
   60.0780   29.1030   50.4260 C   0  0  0  0  0  0  0  0  0  0  0  0
   58.8740   29.1960   49.4850 C   0  0  2  0  0  0  0  0  0  0  0  0
   58.9120   28.1490   48.4600 N   0  0  0  0  0  0  0  0  0  0  0  0
   58.9190   30.6040   48.8850 C   0  0  0  0  0  0  0  0  0  0  0  0
   61.3341   30.4714   46.6004 H   0  0  0  0  0  0  0  0  0  0  0  0
   59.9006   29.4421   45.8823 H   0  0  0  0  0  0  0  0  0  0  0  0
   57.1151   31.0382   43.9324 H   0  0  0  0  0  0  0  0  0  0  0  0
   56.8329   33.3263   45.6960 H   0  0  0  0  0  0  0  0  0  0  0  0
   58.8568   34.9826   48.0630 H   0  0  0  0  0  0  0  0  0  0  0  0
   59.7398   35.5181   46.5932 H   0  0  0  0  0  0  0  0  0  0  0  0
   57.9443   35.4661   46.5932 H   0  0  0  0  0  0  0  0  0  0  0  0
   62.2115   33.3013   45.3005 H   0  0  0  0  0  0  0  0  0  0  0  0
   64.4240   33.8335   46.3216 H   0  0  0  0  0  0  0  0  0  0  0  0
   64.6872   33.8352   48.8007 H   0  0  0  0  0  0  0  0  0  0  0  0
   62.7404   33.3221   50.2678 H   0  0  0  0  0  0  0  0  0  0  0  0
   61.5461   30.6683   50.7235 H   0  0  0  0  0  0  0  0  0  0  0  0
   60.1249   30.8219   51.7683 H   0  0  0  0  0  0  0  0  0  0  0  0
   60.9155   28.5925   49.9280 H   0  0  0  0  0  0  0  0  0  0  0  0
   59.8415   28.5262   51.3323 H   0  0  0  0  0  0  0  0  0  0  0  0
   57.9272   29.0335   50.0210 H   0  0  0  0  0  0  0  0  0  0  0  0
   59.4400   28.4950   47.6250 H   0  0  0  0  0  0  0  0  0  0  0  0
   57.9310   27.9600   48.1500 H   0  0  0  0  0  0  0  0  0  0  0  0
   59.3052   30.5707   47.8556 H   0  0  0  0  0  0  0  0  0  0  0  0
   57.9186   31.0591   48.8382 H   0  0  0  0  0  0  0  0  0  0  0  0
  1  2  2  0
  2  3  1  0
  3  4  2  3
  4  5  1  0
  5  6  1  0
  6  7  1  0
  7  8  2  0
  7  9  1  0
  9 10  1  0
 10 11  1  0
  3 12  1  0
 12 13  2  0
 13 14  1  0
 13 15  1  0
 15 16  1  0
 16 17  2  0
 17 18  1  0
 18 19  2  0
 19 20  1  0
 20 21  2  0
 21 22  1  0
 22 23  2  0
 22 24  1  0
 24 25  1  0
 25 26  1  0
 26 27  1  0
 27 28  1  0
 27 29  1  0
 15  2  1  0
 21 16  1  0
 29 24  1  0
 10  5  2  0
  1 30  1  0
  1 31  1  0
  4 32  1  0
 12 33  1  0
 14 34  1  0
 14 35  1  0
 14 36  1  0
 17 37  1  0
 18 38  1  0
 19 39  1  0
 20 40  1  0
 25 41  1  0
 25 42  1  0
 26 43  1  0
 26 44  1  0
 27 45  1  1
 28 46  1  0
 28 47  1  0
 29 48  1  0
 29 49  1  0
M  CHG  3   6  -1   9  -1  11  -1
M  END
>  <UniqueID>  (30) 
28

>  <SMILES>  (30) 
C=c1c(=Cc2[n-]c(=O)[n-]c2[O-])cc(C)n1-c1ccccc1C(=O)N1CC[C@H](N)C1

>  <Energy>  (30) 
131.37226958809882

>  <Genealogy>  (30) 
C=c1c(=Cc2[n-]c(=O)[n-]c2[O-])cc(C)n1-c1ccccc1C(=O)N1CCC(N)C1 (protonated)
C=c1c(=Cc2[n-]c(=O)[n-]c2[O-])cc(C)n1-c1ccccc1C(=O)N1CC[C@H](N)C1 (chirality)
C=c1c(=Cc2[n-]c(=O)[n-]c2[O-])cc(C)n1-c1ccccc1C(=O)N1CC[C@H](N)C1 (3D coordinates assigned)
C=c1c(=Cc2[n-]c(=O)[n-]c2[O-])cc(C)n1-c1ccccc1C(=O)N1CC[C@H](N)C1 (nonaromatic ring conformer: 131.37226958809882 kcal/mol)

>  <smiles>  (30) 
C=c1c(=Cc2[nH]c(=O)[nH]c2O)cc(C)n1-c1ccccc1C(=O)N1CCC(N)C1

>  <score_type>  (30) 
oracle

>  <origin>  (30) 
adg

>  <m_score__min__energy>  (30) 
-16.739999999999998

>  <m_primary>  (30) 
energy

$$$$
30:0
     RDKit          3D

 36 38  0  0  0  0  0  0  0  0999 V2000
   58.8226   27.6433   48.1502 H   0  0  0  0  0  0  0  0  0  0  0  0
   59.2920   28.4580   48.7210 C   0  0  0  0  0  0  0  0  0  0  0  0
   58.6780   29.6550   48.9220 N   0  0  0  0  0  0  0  0  0  0  0  0
   59.4440   30.4970   49.6490 C   0  0  0  0  0  0  0  0  0  0  0  0
   59.0450   31.6960   49.9560 N   0  0  0  0  0  0  0  0  0  0  0  0
   59.1430   32.8860   49.1550 C   0  0  0  0  0  0  0  0  0  0  0  0
   59.5750   33.9670   49.6380 O   0  0  0  0  0  0  0  0  0  0  0  0
   58.7320   32.8340   47.7470 C   0  0  0  0  0  0  0  0  0  0  0  0
   58.0110   33.8010   47.1420 N   0  0  0  0  0  0  0  0  0  0  0  0
   57.8250   33.4300   45.8860 N   0  0  0  0  0  0  0  0  0  0  0  0
   57.0560   34.2030   44.9180 C   0  0  0  0  0  0  0  0  0  0  0  0
   56.3770   34.8855   45.4501 H   0  0  0  0  0  0  0  0  0  0  0  0
   57.7421   34.7868   44.2868 H   0  0  0  0  0  0  0  0  0  0  0  0
   56.4687   33.5199   44.2868 H   0  0  0  0  0  0  0  0  0  0  0  0
   58.4080   32.2330   45.6780 C   0  0  0  0  0  0  0  0  0  0  0  0
   58.3690   31.6160   44.5300 N   0  0  0  0  0  0  0  0  0  0  0  0
   57.5850   30.4720   44.1490 C   0  0  0  0  0  0  0  0  0  0  0  0
   56.6380   30.5910   43.3250 O   0  0  0  0  0  0  0  0  0  0  0  0
   57.8680   29.1370   44.7450 C   0  0  0  0  0  0  0  0  0  0  0  0
   59.1970   28.6830   44.8040 C   0  0  0  0  0  0  0  0  0  0  0  0
   60.0067   29.3212   44.4206 H   0  0  0  0  0  0  0  0  0  0  0  0
   59.5010   27.4350   45.3420 C   0  0  0  0  0  0  0  0  0  0  0  0
   60.5463   27.0944   45.3795 H   0  0  0  0  0  0  0  0  0  0  0  0
   58.4860   26.6160   45.8330 C   0  0  0  0  0  0  0  0  0  0  0  0
   58.7375   25.6306   46.2521 H   0  0  0  0  0  0  0  0  0  0  0  0
   57.1460   27.0340   45.7990 C   0  0  0  0  0  0  0  0  0  0  0  0
   56.1190   26.1610   46.3200 N   0  0  0  0  0  0  0  0  0  0  0  0
   56.3830   25.2760   47.1580 O   0  0  0  0  0  0  0  0  0  0  0  0
   54.8120   26.3050   45.9100 O   0  0  0  0  0  0  0  0  0  0  0  0
   56.8390   28.3090   45.2570 C   0  0  0  0  0  0  0  0  0  0  0  0
   55.5200   28.7530   45.2450 O   0  0  0  0  0  0  0  0  0  0  0  0
   59.0100   31.8110   46.8540 C   0  0  0  0  0  0  0  0  0  0  0  0
   59.5742   30.8843   47.0351 H   0  0  0  0  0  0  0  0  0  0  0  0
   60.9140   29.7840   50.0700 S   0  0  0  0  0  0  0  0  0  0  0  0
   60.5560   28.3380   49.2890 C   0  0  0  0  0  0  0  0  0  0  0  0
   61.2071   27.4529   49.2366 H   0  0  0  0  0  0  0  0  0  0  0  0
  1  2  1  0
  2  3  1  0
  3  4  1  0
  4  5  2  3
  5  6  1  0
  6  7  2  0
  6  8  1  0
  8  9  1  0
  9 10  1  0
 10 11  1  0
 11 12  1  0
 11 13  1  0
 11 14  1  0
 10 15  1  0
 15 16  2  0
 16 17  1  0
 17 18  2  0
 17 19  1  0
 19 20  2  0
 20 21  1  0
 20 22  1  0
 22 23  1  0
 22 24  2  0
 24 25  1  0
 24 26  1  0
 26 27  1  0
 27 28  2  0
 27 29  1  0
 26 30  2  0
 30 31  1  0
 15 32  1  0
 32 33  1  0
  4 34  1  0
 34 35  1  0
 35 36  1  0
 35  2  2  0
 32  8  2  0
 30 19  1  0
M  CHG  5   3  -1   9  -1  27   1  29  -1  31  -1
M  END
>  <UniqueID>  (31) 
29

>  <SMILES>  (31) 
Cn1[n-]c(C(=O)N=c2[n-]ccs2)c/c1=N\C(=O)c1cccc([N+](=O)[O-])c1[O-]

>  <Energy>  (31) 
111.99297549757054

>  <Genealogy>  (31) 
Cn1[n-]c(C(=O)N=c2[n-]ccs2)cc1=NC(=O)c1cccc([N+](=O)[O-])c1[O-] (protonated)
Cn1[n-]c(C(=O)N=c2[n-]ccs2)c/c1=N\C(=O)c1cccc([N+](=O)[O-])c1[O-] (cis-trans isomerization)
Cn1[n-]c(C(=O)N=c2[n-]ccs2)c/c1=N\C(=O)c1cccc([N+](=O)[O-])c1[O-] (3D coordinates assigned)
Cn1[n-]c(C(=O)N=c2[n-]ccs2)c/c1=N\C(=O)c1cccc([N+](=O)[O-])c1[O-] (optimized conformer: 111.99297549757054 kcal/mol)

>  <smiles>  (31) 
Cn1[nH]c(C(=O)N=c2[nH]ccs2)cc1=NC(=O)c1cccc([N+](=O)[O-])c1O

>  <score_type>  (31) 
oracle

>  <origin>  (31) 
adg

>  <m_score__min__energy>  (31) 
-14.33

>  <m_primary>  (31) 
energy

$$$$
31:0
     RDKit          3D

 78 82  0  0  0  0  0  0  0  0999 V2000
   59.6420   35.2780   46.0860 C   0  0  0  0  0  0  0  0  0  0  0  0
   58.8990   34.6050   47.2410 C   0  0  0  0  0  0  0  0  0  0  0  0
   57.7850   33.6500   46.7600 C   0  0  0  0  0  0  0  0  0  0  0  0
   57.4590   33.7630   45.2540 C   0  0  0  0  0  0  0  0  0  0  0  0
   58.1270   32.6800   44.3860 C   0  0  0  0  0  0  0  0  0  0  0  0
   57.7290   31.2750   44.7550 C   0  0  0  0  0  0  0  0  0  0  0  0
   56.4730   30.7950   44.6320 N   0  0  0  0  0  0  0  0  0  0  0  0
   56.5440   29.5590   45.1600 C   0  0  0  0  0  0  0  0  0  0  0  0
   55.5500   28.7880   45.2180 O   0  0  0  0  0  0  0  0  0  0  0  0
   57.7680   29.2340   45.6260 N   0  0  0  0  0  0  0  0  0  0  0  0
   58.1230   27.9940   46.3250 C   0  0  0  0  0  0  0  0  0  0  0  0
   58.9150   28.2930   47.5690 C   0  0  0  0  0  0  0  0  0  0  0  0
   58.5280   29.3420   48.4130 C   0  0  0  0  0  0  0  0  0  0  0  0
   59.2480   29.6160   49.5780 C   0  0  0  0  0  0  0  0  0  0  0  0
   60.3730   28.8430   49.9170 C   0  0  0  0  0  0  0  0  0  0  0  0
   61.1270   29.0690   51.0780 O   0  0  0  0  0  0  0  0  0  0  0  0
   61.3640   27.9180   52.3230 S   0  0  0  0  0  0  0  0  0  0  0  0
   60.9990   28.5460   53.6390 O   0  0  0  0  0  0  0  0  0  0  0  0
   60.4880   26.7190   52.0910 O   0  0  0  0  0  0  0  0  0  0  0  0
   63.0580   27.3990   52.3450 C   0  0  0  0  0  0  0  0  0  0  0  0
   63.3380   26.0440   52.5870 C   0  0  0  0  0  0  0  0  0  0  0  0
   64.6530   25.5780   52.6110 C   0  0  0  0  0  0  0  0  0  0  0  0
   65.7130   26.4540   52.3950 C   0  0  0  0  0  0  0  0  0  0  0  0
   65.4620   27.8110   52.1440 C   0  0  0  0  0  0  0  0  0  0  0  0
   66.5240   28.6950   51.9220 C   0  0  0  0  0  0  0  0  0  0  0  0
   66.2670   30.0400   51.6610 C   0  0  0  0  0  0  0  0  0  0  0  0
   64.9470   30.4890   51.6200 C   0  0  0  0  0  0  0  0  0  0  0  0
   63.9180   29.6270   51.8350 N   0  0  0  0  0  0  0  0  0  0  0  0
   64.1300   28.2990   52.1070 C   0  0  0  0  0  0  0  0  0  0  0  0
   60.7680   27.8050   49.0630 C   0  0  0  0  0  0  0  0  0  0  0  0
   60.0460   27.5300   47.8980 C   0  0  0  0  0  0  0  0  0  0  0  0
   58.5300   30.3270   45.3830 C   0  0  0  0  0  0  0  0  0  0  0  0
   59.9500   30.5360   45.8600 C   0  0  0  0  0  0  0  0  0  0  0  0
   60.1490   31.8540   46.3640 O   0  0  0  0  0  0  0  0  0  0  0  0
   61.2150   32.2660   47.1790 C   0  0  0  0  0  0  0  0  0  0  0  0
   62.1960   33.1770   46.7470 C   0  0  0  0  0  0  0  0  0  0  0  0
   63.2620   33.5100   47.5870 C   0  0  0  0  0  0  0  0  0  0  0  0
   63.3550   32.9440   48.8620 C   0  0  0  0  0  0  0  0  0  0  0  0
   62.3710   32.0560   49.3150 C   0  0  0  0  0  0  0  0  0  0  0  0
   62.4910   31.5120   50.6350 N   0  0  0  0  0  0  0  0  0  0  0  0
   61.6730   32.1280   52.0380 S   0  0  0  0  0  0  0  0  0  0  0  0
   59.9680   32.4260   51.6290 C   0  0  0  0  0  0  0  0  0  0  0  0
   62.3070   33.4190   52.4800 O   0  0  0  0  0  0  0  0  0  0  0  0
   61.7400   31.1170   53.1490 O   0  0  0  0  0  0  0  0  0  0  0  0
   61.3000   31.7260   48.4670 C   0  0  0  0  0  0  0  0  0  0  0  0
   60.4006   35.9651   46.4889 H   0  0  0  0  0  0  0  0  0  0  0  0
   60.1328   34.5108   45.4692 H   0  0  0  0  0  0  0  0  0  0  0  0
   58.9269   35.8421   45.4692 H   0  0  0  0  0  0  0  0  0  0  0  0
   59.6228   34.0292   47.8365 H   0  0  0  0  0  0  0  0  0  0  0  0
   58.4216   35.3984   47.8348 H   0  0  0  0  0  0  0  0  0  0  0  0
   58.1027   32.6175   46.9675 H   0  0  0  0  0  0  0  0  0  0  0  0
   56.8709   33.9325   47.3028 H   0  0  0  0  0  0  0  0  0  0  0  0
   56.3691   33.6830   45.1290 H   0  0  0  0  0  0  0  0  0  0  0  0
   57.8541   34.7318   44.9144 H   0  0  0  0  0  0  0  0  0  0  0  0
   57.8477   32.8554   43.3366 H   0  0  0  0  0  0  0  0  0  0  0  0
   59.2115   32.7600   44.5518 H   0  0  0  0  0  0  0  0  0  0  0  0
   57.2024   27.4597   46.6027 H   0  0  0  0  0  0  0  0  0  0  0  0
   58.7369   27.3737   45.6554 H   0  0  0  0  0  0  0  0  0  0  0  0
   57.6509   29.9542   48.1564 H   0  0  0  0  0  0  0  0  0  0  0  0
   58.9334   30.4410   50.2341 H   0  0  0  0  0  0  0  0  0  0  0  0
   62.5098   25.3410   52.7599 H   0  0  0  0  0  0  0  0  0  0  0  0
   64.8530   24.5132   52.8015 H   0  0  0  0  0  0  0  0  0  0  0  0
   66.7478   26.0819   52.4212 H   0  0  0  0  0  0  0  0  0  0  0  0
   67.5608   28.3287   51.9534 H   0  0  0  0  0  0  0  0  0  0  0  0
   67.0973   30.7407   51.4890 H   0  0  0  0  0  0  0  0  0  0  0  0
   64.7371   31.5486   51.4121 H   0  0  0  0  0  0  0  0  0  0  0  0
   62.9570   30.0220   51.7720 H   0  0  0  0  0  0  0  0  0  0  0  0
   61.6535   27.2015   49.3112 H   0  0  0  0  0  0  0  0  0  0  0  0
   60.3658   26.7118   47.2361 H   0  0  0  0  0  0  0  0  0  0  0  0
   60.1676   29.8123   46.6593 H   0  0  0  0  0  0  0  0  0  0  0  0
   60.6240   30.3917   45.0028 H   0  0  0  0  0  0  0  0  0  0  0  0
   62.1239   33.6280   45.7463 H   0  0  0  0  0  0  0  0  0  0  0  0
   64.0298   34.2192   47.2442 H   0  0  0  0  0  0  0  0  0  0  0  0
   64.2051   33.1973   49.5126 H   0  0  0  0  0  0  0  0  0  0  0  0
   59.3816   32.5285   52.5540 H   0  0  0  0  0  0  0  0  0  0  0  0
   59.8886   33.3516   51.0400 H   0  0  0  0  0  0  0  0  0  0  0  0
   59.5793   31.5822   51.0400 H   0  0  0  0  0  0  0  0  0  0  0  0
   60.5198   31.0355   48.8198 H   0  0  0  0  0  0  0  0  0  0  0  0
  1  2  1  0
  2  3  1  0
  3  4  1  0
  4  5  1  0
  5  6  1  0
  6  7  1  0
  7  8  1  0
  8  9  2  0
  8 10  1  0
 10 11  1  0
 11 12  1  0
 12 13  2  0
 13 14  1  0
 14 15  2  0
 15 16  1  0
 16 17  1  0
 17 18  2  0
 17 19  2  0
 17 20  1  0
 20 21  2  0
 21 22  1  0
 22 23  2  0
 23 24  1  0
 24 25  2  0
 25 26  1  0
 26 27  2  0
 27 28  1  0
 28 29  2  0
 15 30  1  0
 30 31  2  0
 10 32  1  0
 32 33  1  0
 33 34  1  0
 34 35  1  0
 35 36  2  0
 36 37  1  0
 37 38  2  0
 38 39  1  0
 39 40  1  0
 40 41  1  0
 41 42  1  0
 41 43  2  0
 41 44  2  0
 39 45  2  0
 32  6  2  0
 45 35  1  0
 31 12  1  0
 29 20  1  0
 29 24  1  0
  1 46  1  0
  1 47  1  0
  1 48  1  0
  2 49  1  0
  2 50  1  0
  3 51  1  0
  3 52  1  0
  4 53  1  0
  4 54  1  0
  5 55  1  0
  5 56  1  0
 11 57  1  0
 11 58  1  0
 13 59  1  0
 14 60  1  0
 21 61  1  0
 22 62  1  0
 23 63  1  0
 25 64  1  0
 26 65  1  0
 27 66  1  0
 28 67  1  0
 30 68  1  0
 31 69  1  0
 33 70  1  0
 33 71  1  0
 36 72  1  0
 37 73  1  0
 38 74  1  0
 42 75  1  0
 42 76  1  0
 42 77  1  0
 45 78  1  0
M  CHG  3   7  -1  28   1  40  -1
M  END
>  <UniqueID>  (32) 
30

>  <SMILES>  (32) 
CCCCCc1[n-]c(=O)n(Cc2ccc(OS(=O)(=O)c3cccc4ccc[nH+]c34)cc2)c1COc1cccc([N-]S(C)(=O)=O)c1

>  <Energy>  (32) 
114.71031217107183

>  <Genealogy>  (32) 
CCCCCc1[n-]c(=O)n(Cc2ccc(OS(=O)(=O)c3cccc4ccc[nH+]c34)cc2)c1COc1cccc([N-]S(C)(=O)=O)c1 (protonated)
CCCCCc1[n-]c(=O)n(Cc2ccc(OS(=O)(=O)c3cccc4ccc[nH+]c34)cc2)c1COc1cccc([N-]S(C)(=O)=O)c1 (3D coordinates assigned)
CCCCCc1[n-]c(=O)n(Cc2ccc(OS(=O)(=O)c3cccc4ccc[nH+]c34)cc2)c1COc1cccc([N-]S(C)(=O)=O)c1 (optimized conformer: 114.71031217107183 kcal/mol)

>  <smiles>  (32) 
CCCCCc1[nH]c(=O)n(Cc2ccc(OS(=O)(=O)c3cccc4cccnc34)cc2)c1COc1cccc(NS(C)(=O)=O)c1

>  <score_type>  (32) 
oracle

>  <origin>  (32) 
adg

>  <m_score__min__energy>  (32) 
-13.09

>  <m_primary>  (32) 
energy

$$$$
32:0
     RDKit          3D

 49 52  0  0  0  0  0  0  0  0999 V2000
   58.5900   26.4070   43.5980 H   0  0  0  0  0  0  0  0  0  0  0  0
   58.4450   26.0810   44.5770 N   0  0  0  0  0  0  0  0  0  0  0  0
   57.2860   26.0890   45.1590 C   0  0  0  0  0  0  0  0  0  0  0  0
   56.7090   27.1520   45.8240 C   0  0  0  0  0  0  0  0  0  0  0  0
   57.2100   28.5280   45.9920 C   0  0  0  0  0  0  0  0  0  0  0  0
   56.7440   29.4380   45.2550 O   0  0  0  0  0  0  0  0  0  0  0  0
   58.1720   28.8510   47.0090 N   0  0  0  0  0  0  0  0  0  0  0  0
   58.1740   28.2790   47.8830 H   0  0  0  0  0  0  0  0  0  0  0  0
   59.0200   30.0110   46.9650 C   0  0  0  0  0  0  0  0  0  0  0  0
   60.4120   29.8500   47.0300 C   0  0  0  0  0  0  0  0  0  0  0  0
   60.8404   28.8421   47.1329 H   0  0  0  0  0  0  0  0  0  0  0  0
   61.2590   30.9600   46.9650 C   0  0  0  0  0  0  0  0  0  0  0  0
   62.3480   30.8215   47.0341 H   0  0  0  0  0  0  0  0  0  0  0  0
   60.7280   32.2510   46.8120 C   0  0  0  0  0  0  0  0  0  0  0  0
   61.6450   33.4540   46.7420 C   0  0  0  0  0  0  0  0  0  0  0  0
   62.3225   33.3223   45.8854 H   0  0  0  0  0  0  0  0  0  0  0  0
   60.9993   34.3389   46.6417 H   0  0  0  0  0  0  0  0  0  0  0  0
   62.4660   33.6610   47.9560 N   0  0  0  0  0  0  0  0  0  0  0  0
   63.6780   32.8250   47.9990 C   0  0  0  0  0  0  0  0  0  0  0  0
   63.3879   31.7640   47.9942 H   0  0  0  0  0  0  0  0  0  0  0  0
   64.2995   33.0485   47.1193 H   0  0  0  0  0  0  0  0  0  0  0  0
   64.4880   33.1260   49.2770 C   0  0  0  0  0  0  0  0  0  0  0  0
   64.4939   32.2304   49.9156 H   0  0  0  0  0  0  0  0  0  0  0  0
   65.5105   33.4023   48.9803 H   0  0  0  0  0  0  0  0  0  0  0  0
   63.9290   34.2060   50.0040 O   0  0  0  0  0  0  0  0  0  0  0  0
   62.6120   33.8800   50.4120 C   0  0  0  0  0  0  0  0  0  0  0  0
   62.6530   33.0102   51.0841 H   0  0  0  0  0  0  0  0  0  0  0  0
   62.1867   34.7564   50.9230 H   0  0  0  0  0  0  0  0  0  0  0  0
   61.7050   33.5400   49.2110 C   0  0  0  0  0  0  0  0  0  0  0  0
   61.3343   32.5095   49.3145 H   0  0  0  0  0  0  0  0  0  0  0  0
   60.8572   34.2405   49.1886 H   0  0  0  0  0  0  0  0  0  0  0  0
   59.3350   32.4130   46.7380 C   0  0  0  0  0  0  0  0  0  0  0  0
   58.9071   33.4204   46.6281 H   0  0  0  0  0  0  0  0  0  0  0  0
   58.4890   31.3030   46.8030 C   0  0  0  0  0  0  0  0  0  0  0  0
   57.4003   31.4406   46.7270 H   0  0  0  0  0  0  0  0  0  0  0  0
   55.5330   26.7150   46.3210 N   0  0  0  0  0  0  0  0  0  0  0  0
   55.4060   25.4390   45.9770 N   0  0  0  0  0  0  0  0  0  0  0  0
   56.4500   25.0370   45.2670 N   0  0  0  0  0  0  0  0  0  0  0  0
   56.5810   23.7130   44.7270 C   0  0  0  0  0  0  0  0  0  0  0  0
   56.4890   23.4870   43.3430 C   0  0  0  0  0  0  0  0  0  0  0  0
   56.3385   24.3348   42.6585 H   0  0  0  0  0  0  0  0  0  0  0  0
   56.5880   22.1880   42.8320 C   0  0  0  0  0  0  0  0  0  0  0  0
   56.5273   22.0178   41.7469 H   0  0  0  0  0  0  0  0  0  0  0  0
   56.7640   21.1070   43.7000 C   0  0  0  0  0  0  0  0  0  0  0  0
   56.8475   20.0868   43.2973 H   0  0  0  0  0  0  0  0  0  0  0  0
   56.8340   21.3210   45.0790 C   0  0  0  0  0  0  0  0  0  0  0  0
   56.9940   20.2700   45.9210 F   0  0  0  0  0  0  0  0  0  0  0  0
   56.7340   22.6180   45.5930 C   0  0  0  0  0  0  0  0  0  0  0  0
   56.7754   22.7810   46.6801 H   0  0  0  0  0  0  0  0  0  0  0  0
  1  2  1  0
  2  3  2  0
  3  4  1  0
  4  5  1  0
  5  6  2  0
  5  7  1  0
  7  8  1  0
  7  9  1  0
  9 10  2  0
 10 11  1  0
 10 12  1  0
 12 13  1  0
 12 14  2  0
 14 15  1  0
 15 16  1  0
 15 17  1  0
 15 18  1  0
 18 19  1  0
 19 20  1  0
 19 21  1  0
 19 22  1  0
 22 23  1  0
 22 24  1  0
 22 25  1  0
 25 26  1  0
 26 27  1  0
 26 28  1  0
 26 29  1  0
 29 30  1  0
 29 31  1  0
 14 32  1  0
 32 33  1  0
 32 34  2  0
 34 35  1  0
  4 36  2  0
 36 37  1  0
 37 38  1  0
 38 39  1  0
 39 40  2  0
 40 41  1  0
 40 42  1  0
 42 43  1  0
 42 44  2  0
 44 45  1  0
 44 46  1  0
 46 47  1  0
 46 48  2  0
 48 49  1  0
 38  3  1  0
 48 39  1  0
 34  9  1  0
 29 18  1  0
M  CHG  1  37  -1
M  END
>  <UniqueID>  (33) 
31

>  <SMILES>  (33) 
[H]/N=c1/c(C(=O)Nc2ccc(CN3CCOCC3)cc2)n[n-]n1-c1cccc(F)c1

>  <Energy>  (33) 
112.7506465890716

>  <Genealogy>  (33) 
N=c1c(C(=O)Nc2ccc(CN3CCOCC3)cc2)n[n-]n1-c1cccc(F)c1 (protonated)
[H]/N=c1/c(C(=O)Nc2ccc(CN3CCOCC3)cc2)n[n-]n1-c1cccc(F)c1 (cis-trans isomerization)
[H]/N=c1/c(C(=O)Nc2ccc(CN3CCOCC3)cc2)n[n-]n1-c1cccc(F)c1 (3D coordinates assigned)
[H]/N=c1/c(C(=O)Nc2ccc(CN3CCOCC3)cc2)n[n-]n1-c1cccc(F)c1 (nonaromatic ring conformer: 112.7506465890716 kcal/mol)

>  <smiles>  (33) 
N=c1c(C(=O)Nc2ccc(CN3CCOCC3)cc2)n[nH]n1-c1cccc(F)c1

>  <score_type>  (33) 
oracle

>  <origin>  (33) 
adg

>  <m_score__min__energy>  (33) 
-9.5

>  <m_primary>  (33) 
energy

$$$$
33:0
     RDKit          3D

 50 52  0  0  1  0  0  0  0  0999 V2000
   56.6370   30.0370   52.7580 C   0  0  0  0  0  0  0  0  0  0  0  0
   57.3750   29.5920   51.6610 O   0  0  0  0  0  0  0  0  0  0  0  0
   58.0780   30.4470   50.8440 C   0  0  0  0  0  0  0  0  0  0  0  0
   58.0100   31.8000   51.1320 C   0  0  0  0  0  0  0  0  0  0  0  0
   58.6800   32.7140   50.3670 C   0  0  0  0  0  0  0  0  0  0  0  0
   59.4650   32.3500   49.2660 C   0  0  0  0  0  0  0  0  0  0  0  0
   60.1370   33.4270   48.5500 C   0  0  0  0  0  0  0  0  0  0  0  0
   59.5130   33.8540   47.3140 N   0  0  0  0  0  0  0  0  0  0  0  0
   60.3080   34.5610   46.2910 C   0  0  0  0  0  0  0  0  0  0  0  0
   59.2940   34.9000   45.2580 C   0  0  0  0  0  0  0  0  0  0  0  0
   58.2190   33.9290   45.4510 N   0  0  0  0  0  0  0  0  0  0  0  0
   57.4010   33.3600   44.3980 C   0  0  0  0  0  0  0  0  0  0  0  0
   57.6840   31.9240   44.2000 C   0  0  0  0  0  0  0  0  0  0  0  0
   58.3840   31.5940   43.1870 O   0  0  0  0  0  0  0  0  0  0  0  0
   57.2090   30.9430   45.0860 N   0  0  0  0  0  0  0  0  0  0  0  0
   57.5500   29.7090   45.1200 C   0  0  0  0  0  0  0  0  0  0  0  0
   57.7610   29.0250   46.3180 C   0  0  0  0  0  0  0  0  0  0  0  0
   58.1210   27.6910   46.2690 C   0  0  0  0  0  0  0  0  0  0  0  0
   58.3690   26.8730   47.4850 C   0  0  0  0  0  0  0  0  0  0  0  0
   58.2590   27.0830   45.0650 N   0  0  0  0  0  0  0  0  0  0  0  0
   58.0430   27.7870   43.9240 C   0  0  0  0  0  0  0  0  0  0  0  0
   58.1990   27.0760   42.6460 C   0  0  0  0  0  0  0  0  0  0  0  0
   57.6940   29.0790   43.9310 N   0  0  0  0  0  0  0  0  0  0  0  0
   58.1830   33.7070   46.8530 C   0  0  0  0  0  0  0  0  0  0  0  0
   57.1420   33.4390   47.5000 O   0  0  0  0  0  0  0  0  0  0  0  0
   59.5220   31.0140   48.9950 C   0  0  0  0  0  0  0  0  0  0  0  0
   60.4340   30.4080   47.6480 Cl  0  0  0  0  0  0  0  0  0  0  0  0
   58.8390   30.0730   49.7730 C   0  0  0  0  0  0  0  0  0  0  0  0
   57.1414   29.7328   53.6870 H   0  0  0  0  0  0  0  0  0  0  0  0
   56.5576   31.1337   52.7260 H   0  0  0  0  0  0  0  0  0  0  0  0
   55.6300   29.5954   52.7260 H   0  0  0  0  0  0  0  0  0  0  0  0
   57.4093   32.1437   51.9870 H   0  0  0  0  0  0  0  0  0  0  0  0
   58.5990   33.7797   50.6273 H   0  0  0  0  0  0  0  0  0  0  0  0
   60.1861   34.2976   49.2205 H   0  0  0  0  0  0  0  0  0  0  0  0
   61.1195   33.0243   48.2626 H   0  0  0  0  0  0  0  0  0  0  0  0
   60.7690   35.4694   46.7061 H   0  0  0  0  0  0  0  0  0  0  0  0
   61.1434   33.9620   45.8995 H   0  0  0  0  0  0  0  0  0  0  0  0
   58.9207   35.9244   45.4041 H   0  0  0  0  0  0  0  0  0  0  0  0
   59.7105   34.8589   44.2407 H   0  0  0  0  0  0  0  0  0  0  0  0
   56.3410   33.4805   44.6660 H   0  0  0  0  0  0  0  0  0  0  0  0
   57.6339   33.8871   43.4610 H   0  0  0  0  0  0  0  0  0  0  0  0
   57.6430   29.5380   47.2839 H   0  0  0  0  0  0  0  0  0  0  0  0
   58.1840   27.4832   48.3814 H   0  0  0  0  0  0  0  0  0  0  0  0
   57.6938   26.0046   47.4868 H   0  0  0  0  0  0  0  0  0  0  0  0
   59.4128   26.5258   47.4868 H   0  0  0  0  0  0  0  0  0  0  0  0
   58.4310   26.0185   42.8407 H   0  0  0  0  0  0  0  0  0  0  0  0
   57.2641   27.1464   42.0707 H   0  0  0  0  0  0  0  0  0  0  0  0
   59.0186   27.5313   42.0707 H   0  0  0  0  0  0  0  0  0  0  0  0
   57.5310   29.6090   43.0240 H   0  0  0  0  0  0  0  0  0  0  0  0
   58.9167   29.0062   49.5161 H   0  0  0  0  0  0  0  0  0  0  0  0
  1  2  1  0
  2  3  1  0
  3  4  2  0
  4  5  1  0
  5  6  2  0
  6  7  1  0
  7  8  1  0
  8  9  1  0
  9 10  1  0
 10 11  1  0
 11 12  1  0
 12 13  1  0
 13 14  2  0
 13 15  1  0
 15 16  2  0
 16 17  1  0
 17 18  2  0
 18 19  1  0
 18 20  1  0
 20 21  2  0
 21 22  1  0
 21 23  1  0
 11 24  1  0
 24 25  2  0
  6 26  1  0
 26 27  1  0
 26 28  2  0
 28  3  1  0
 24  8  1  0
 23 16  1  0
  1 29  1  0
  1 30  1  0
  1 31  1  0
  4 32  1  0
  5 33  1  0
  7 34  1  0
  7 35  1  0
  9 36  1  0
  9 37  1  0
 10 38  1  0
 10 39  1  0
 12 40  1  0
 12 41  1  0
 17 42  1  0
 19 43  1  0
 19 44  1  0
 19 45  1  0
 22 46  1  0
 22 47  1  0
 22 48  1  0
 23 49  1  0
 28 50  1  0
M  END
>  <smiles>  (34) 
COc1ccc(CN2CCN(CC(=O)N=c3cc(C)nc(C)[nH]3)C2=O)c(Cl)c1

>  <score_type>  (34) 
oracle

>  <origin>  (34) 
adg

>  <m_score__min__energy>  (34) 
-8.3200000000000003

>  <m_primary>  (34) 
energy

$$$$
34:0
     RDKit          3D

 70 74  0  0  0  0  0  0  0  0999 V2000
   60.9150   28.6545   46.5637 H   0  0  0  0  0  0  0  0  0  0  0  0
   60.1380   29.3660   46.8800 C   0  0  0  0  0  0  0  0  0  0  0  0
   60.4090   30.1370   47.9580 C   0  0  0  0  0  0  0  0  0  0  0  0
   59.6340   30.0820   49.2230 C   0  0  0  0  0  0  0  0  0  0  0  0
   58.5450   29.4530   49.2970 O   0  0  0  0  0  0  0  0  0  0  0  0
   60.0880   30.8050   50.3680 N   0  0  0  0  0  0  0  0  0  0  0  0
   59.5540   30.7310   51.2620 H   0  0  0  0  0  0  0  0  0  0  0  0
   61.2130   31.6830   50.2990 C   0  0  0  0  0  0  0  0  0  0  0  0
   61.5630   32.3140   51.3320 O   0  0  0  0  0  0  0  0  0  0  0  0
   61.9290   31.8550   49.0620 N   0  0  0  0  0  0  0  0  0  0  0  0
   63.0230   32.8340   48.9720 C   0  0  0  0  0  0  0  0  0  0  0  0
   63.3612   33.0951   49.9856 H   0  0  0  0  0  0  0  0  0  0  0  0
   63.8532   32.3928   48.4009 H   0  0  0  0  0  0  0  0  0  0  0  0
   62.5430   34.0990   48.2580 C   0  0  0  0  0  0  0  0  0  0  0  0
   63.1410   34.9563   48.6007 H   0  0  0  0  0  0  0  0  0  0  0  0
   62.6623   33.9603   47.1733 H   0  0  0  0  0  0  0  0  0  0  0  0
   61.1660   34.3450   48.5410 O   0  0  0  0  0  0  0  0  0  0  0  0
   60.0970   34.1220   47.6570 C   0  0  0  0  0  0  0  0  0  0  0  0
   58.9420   33.3990   48.0210 C   0  0  0  0  0  0  0  0  0  0  0  0
   58.8463   32.9939   49.0392 H   0  0  0  0  0  0  0  0  0  0  0  0
   57.9180   33.1960   47.0900 C   0  0  0  0  0  0  0  0  0  0  0  0
   57.0191   32.6306   47.3769 H   0  0  0  0  0  0  0  0  0  0  0  0
   58.0350   33.7100   45.7970 C   0  0  0  0  0  0  0  0  0  0  0  0
   57.2297   33.5470   45.0656 H   0  0  0  0  0  0  0  0  0  0  0  0
   59.1740   34.4310   45.4320 C   0  0  0  0  0  0  0  0  0  0  0  0
   59.2635   34.8381   44.4140 H   0  0  0  0  0  0  0  0  0  0  0  0
   60.2000   34.6360   46.3580 C   0  0  0  0  0  0  0  0  0  0  0  0
   61.0947   35.2049   46.0650 H   0  0  0  0  0  0  0  0  0  0  0  0
   61.5070   31.1350   47.8850 C   0  0  0  0  0  0  0  0  0  0  0  0
   62.0900   31.3470   46.7830 O   0  0  0  0  0  0  0  0  0  0  0  0
   58.8890   29.3960   46.0900 C   0  0  0  0  0  0  0  0  0  0  0  0
   58.7460   30.3410   45.0670 C   0  0  0  0  0  0  0  0  0  0  0  0
   59.5286   31.0969   44.9055 H   0  0  0  0  0  0  0  0  0  0  0  0
   57.6130   30.3270   44.2510 C   0  0  0  0  0  0  0  0  0  0  0  0
   57.4946   31.0873   43.4649 H   0  0  0  0  0  0  0  0  0  0  0  0
   56.6290   29.3510   44.4290 C   0  0  0  0  0  0  0  0  0  0  0  0
   55.7369   29.3480   43.7855 H   0  0  0  0  0  0  0  0  0  0  0  0
   56.7760   28.3720   45.4290 C   0  0  0  0  0  0  0  0  0  0  0  0
   55.8410   27.3440   45.6300 O   0  0  0  0  0  0  0  0  0  0  0  0
   56.1540   26.0070   46.0160 C   0  0  0  0  0  0  0  0  0  0  0  0
   56.2141   25.9537   47.1131 H   0  0  0  0  0  0  0  0  0  0  0  0
   57.1171   25.7273   45.5641 H   0  0  0  0  0  0  0  0  0  0  0  0
   55.1040   25.0510   45.5350 C   0  0  0  0  0  0  0  0  0  0  0  0
   53.8190   25.1010   45.9280 N   0  0  0  0  0  0  0  0  0  0  0  0
   53.2350   24.1240   45.2050 C   0  0  0  0  0  0  0  0  0  0  0  0
   52.0100   23.8550   45.2930 O   0  0  0  0  0  0  0  0  0  0  0  0
   54.0660   23.4650   44.3740 N   0  0  0  0  0  0  0  0  0  0  0  0
   55.2570   24.0530   44.5900 C   0  0  0  0  0  0  0  0  0  0  0  0
   56.5140   23.6710   43.8610 C   0  0  0  0  0  0  0  0  0  0  0  0
   57.3783   23.8842   44.5072 H   0  0  0  0  0  0  0  0  0  0  0  0
   56.5592   24.2566   42.9309 H   0  0  0  0  0  0  0  0  0  0  0  0
   56.5300   22.2180   43.4950 C   0  0  0  0  0  0  0  0  0  0  0  0
   56.1000   21.8420   42.3720 O   0  0  0  0  0  0  0  0  0  0  0  0
   57.1170   21.2710   44.3950 N   0  0  0  0  0  0  0  0  0  0  0  0
   56.3410   20.4540   45.3210 C   0  0  0  0  0  0  0  0  0  0  0  0
   55.5105   19.9811   44.7764 H   0  0  0  0  0  0  0  0  0  0  0  0
   57.0001   19.6867   45.7532 H   0  0  0  0  0  0  0  0  0  0  0  0
   55.7840   21.2970   46.4360 C   0  0  0  0  0  0  0  0  0  0  0  0
   56.6190   22.1920   47.1240 C   0  0  0  0  0  0  0  0  0  0  0  0
   57.6835   22.2647   46.8563 H   0  0  0  0  0  0  0  0  0  0  0  0
   56.1020   22.9910   48.1480 C   0  0  0  0  0  0  0  0  0  0  0  0
   56.7589   23.6933   48.6820 H   0  0  0  0  0  0  0  0  0  0  0  0
   54.7500   22.8980   48.4940 C   0  0  0  0  0  0  0  0  0  0  0  0
   54.3434   23.5305   49.2969 H   0  0  0  0  0  0  0  0  0  0  0  0
   53.9160   22.0030   47.8210 C   0  0  0  0  0  0  0  0  0  0  0  0
   52.8538   21.9282   48.0971 H   0  0  0  0  0  0  0  0  0  0  0  0
   54.4290   21.2020   46.7970 C   0  0  0  0  0  0  0  0  0  0  0  0
   53.7701   20.4949   46.2719 H   0  0  0  0  0  0  0  0  0  0  0  0
   57.9090   28.4030   46.2530 C   0  0  0  0  0  0  0  0  0  0  0  0
   58.0324   27.6409   47.0365 H   0  0  0  0  0  0  0  0  0  0  0  0
  1  2  1  0
  2  3  2  0
  3  4  1  0
  4  5  2  0
  4  6  1  0
  6  7  1  0
  6  8  1  0
  8  9  2  0
  8 10  1  0
 10 11  1  0
 11 12  1  0
 11 13  1  0
 11 14  1  0
 14 15  1  0
 14 16  1  0
 14 17  1  0
 17 18  1  0
 18 19  2  0
 19 20  1  0
 19 21  1  0
 21 22  1  0
 21 23  2  0
 23 24  1  0
 23 25  1  0
 25 26  1  0
 25 27  2  0
 27 28  1  0
 10 29  1  0
 29 30  2  0
  2 31  1  0
 31 32  2  0
 32 33  1  0
 32 34  1  0
 34 35  1  0
 34 36  2  0
 36 37  1  0
 36 38  1  0
 38 39  1  0
 39 40  1  0
 40 41  1  0
 40 42  1  0
 40 43  1  0
 43 44  1  0
 44 45  1  0
 45 46  2  0
 45 47  1  0
 47 48  1  0
 48 49  1  0
 49 50  1  0
 49 51  1  0
 49 52  1  0
 52 53  2  0
 52 54  1  0
 54 55  1  0
 55 56  1  0
 55 57  1  0
 55 58  1  0
 58 59  2  0
 59 60  1  0
 59 61  1  0
 61 62  1  0
 61 63  2  0
 63 64  1  0
 63 65  1  0
 65 66  1  0
 65 67  2  0
 67 68  1  0
 38 69  2  0
 69 70  1  0
 29  3  1  0
 69 31  1  0
 27 18  1  0
 48 43  2  0
 67 58  1  0
M  CHG  3  44  -1  47  -1  54  -1
M  END
>  <UniqueID>  (35) 
32

>  <SMILES>  (35) 
O=C(Cc1[n-]c(=O)[n-]c1COc1cccc(/C=C2\C(=O)NC(=O)N(CCOc3ccccc3)C2=O)c1)[N-]Cc1ccccc1

>  <Energy>  (35) 
106.46395540899694

>  <Genealogy>  (35) 
O=C(Cc1[n-]c(=O)[n-]c1COc1cccc(C=C2C(=O)NC(=O)N(CCOc3ccccc3)C2=O)c1)[N-]Cc1ccccc1 (protonated)
O=C(Cc1[n-]c(=O)[n-]c1COc1cccc(/C=C2\C(=O)NC(=O)N(CCOc3ccccc3)C2=O)c1)[N-]Cc1ccccc1 (cis-trans isomerization)
O=C(Cc1[n-]c(=O)[n-]c1COc1cccc(/C=C2\C(=O)NC(=O)N(CCOc3ccccc3)C2=O)c1)[N-]Cc1ccccc1 (3D coordinates assigned)
O=C(Cc1[n-]c(=O)[n-]c1COc1cccc(/C=C2\C(=O)NC(=O)N(CCOc3ccccc3)C2=O)c1)[N-]Cc1ccccc1 (nonaromatic ring conformer: 106.46395540899694 kcal/mol)

>  <smiles>  (35) 
O=C(Cc1[nH]c(=O)[nH]c1COc1cccc(C=C2C(=O)NC(=O)N(CCOc3ccccc3)C2=O)c1)NCc1ccccc1

>  <score_type>  (35) 
oracle

>  <origin>  (35) 
adg

>  <m_score__min__energy>  (35) 
-16.140000000000001

>  <m_primary>  (35) 
energy

$$$$
35:0
     RDKit          3D

 39 41  0  0  0  0  0  0  0  0999 V2000
   56.2771   33.1633   45.2800 H   0  0  0  0  0  0  0  0  0  0  0  0
   57.3360   33.1160   44.9860 C   0  0  0  0  0  0  0  0  0  0  0  0
   57.7720   31.9390   44.2020 C   0  0  0  0  0  0  0  0  0  0  0  0
   58.1250   32.1230   43.0070 O   0  0  0  0  0  0  0  0  0  0  0  0
   57.7620   30.5610   44.7480 C   0  0  0  0  0  0  0  0  0  0  0  0
   58.1880   30.2980   46.0610 C   0  0  0  0  0  0  0  0  0  0  0  0
   58.5040   31.1295   46.7081 H   0  0  0  0  0  0  0  0  0  0  0  0
   58.2140   28.9910   46.5520 C   0  0  0  0  0  0  0  0  0  0  0  0
   58.5662   28.7993   47.5763 H   0  0  0  0  0  0  0  0  0  0  0  0
   57.7930   27.9180   45.7460 C   0  0  0  0  0  0  0  0  0  0  0  0
   57.8080   26.5570   46.2160 N   0  0  0  0  0  0  0  0  0  0  0  0
   58.7120   26.1400   46.5310 H   0  0  0  0  0  0  0  0  0  0  0  0
   56.4150   25.5230   46.2470 S   0  0  0  0  0  0  0  0  0  0  0  0
   56.2860   24.9050   47.6110 O   0  0  0  0  0  0  0  0  0  0  0  0
   55.1850   26.3370   45.9600 O   0  0  0  0  0  0  0  0  0  0  0  0
   56.5910   24.2460   45.0600 C   0  0  0  0  0  0  0  0  0  0  0  0
   55.3810   23.7150   44.0230 S   0  0  0  0  0  0  0  0  0  0  0  0
   56.3220   22.5600   43.2380 C   0  0  0  0  0  0  0  0  0  0  0  0
   55.9841   21.8975   42.4275 H   0  0  0  0  0  0  0  0  0  0  0  0
   57.5980   22.5860   43.7880 C   0  0  0  0  0  0  0  0  0  0  0  0
   58.4113   21.9258   43.4523 H   0  0  0  0  0  0  0  0  0  0  0  0
   57.7510   23.5300   44.8080 C   0  0  0  0  0  0  0  0  0  0  0  0
   58.6931   23.6880   45.3534 H   0  0  0  0  0  0  0  0  0  0  0  0
   57.3440   28.1840   44.4440 C   0  0  0  0  0  0  0  0  0  0  0  0
   57.0050   27.3552   43.8051 H   0  0  0  0  0  0  0  0  0  0  0  0
   57.3230   29.4920   43.9500 C   0  0  0  0  0  0  0  0  0  0  0  0
   56.9602   29.6849   42.9296 H   0  0  0  0  0  0  0  0  0  0  0  0
   58.1290   34.1320   45.3680 C   0  0  0  0  0  0  0  0  0  0  0  0
   57.9639   35.1104   44.8931 H   0  0  0  0  0  0  0  0  0  0  0  0
   59.2050   34.0370   46.3760 C   0  0  0  0  0  0  0  0  0  0  0  0
   60.5530   33.8790   46.0090 C   0  0  0  0  0  0  0  0  0  0  0  0
   60.8290   33.8240   44.9456 H   0  0  0  0  0  0  0  0  0  0  0  0
   61.5160   33.7940   46.9640 N   0  0  0  0  0  0  0  0  0  0  0  0
   61.2190   33.8730   48.2880 C   0  0  0  0  0  0  0  0  0  0  0  0
   62.0202   33.7887   49.0370 H   0  0  0  0  0  0  0  0  0  0  0  0
   59.8980   34.0610   48.6980 C   0  0  0  0  0  0  0  0  0  0  0  0
   59.6532   34.1343   49.7679 H   0  0  0  0  0  0  0  0  0  0  0  0
   58.8910   34.1550   47.7360 C   0  0  0  0  0  0  0  0  0  0  0  0
   57.8490   34.3220   48.0464 H   0  0  0  0  0  0  0  0  0  0  0  0
  1  2  1  0
  2  3  1  0
  3  4  2  0
  3  5  1  0
  5  6  2  0
  6  7  1  0
  6  8  1  0
  8  9  1  0
  8 10  2  0
 10 11  1  0
 11 12  1  0
 11 13  1  0
 13 14  2  0
 13 15  2  0
 13 16  1  0
 16 17  1  0
 17 18  1  0
 18 19  1  0
 18 20  2  0
 20 21  1  0
 20 22  1  0
 22 23  1  0
 10 24  1  0
 24 25  1  0
 24 26  2  0
 26 27  1  0
  2 28  2  0
 28 29  1  0
 28 30  1  0
 30 31  2  0
 31 32  1  0
 31 33  1  0
 33 34  2  0
 34 35  1  0
 34 36  1  0
 36 37  1  0
 36 38  2  0
 38 39  1  0
 26  5  1  0
 38 30  1  0
 22 16  2  0
M  END
>  <UniqueID>  (36) 
33

>  <SMILES>  (36) 
O=C(/C=C\c1cccnc1)c1ccc(NS(=O)(=O)c2cccs2)cc1

>  <Energy>  (36) 
81.18874046277114

>  <Genealogy>  (36) 
O=C(/C=C\c1cccnc1)c1ccc(NS(=O)(=O)c2cccs2)cc1 (cis-trans isomerization)
O=C(/C=C\c1cccnc1)c1ccc(NS(=O)(=O)c2cccs2)cc1 (3D coordinates assigned)
O=C(/C=C\c1cccnc1)c1ccc(NS(=O)(=O)c2cccs2)cc1 (optimized conformer: 81.18874046277114 kcal/mol)

>  <smiles>  (36) 
O=C(C=Cc1cccnc1)c1ccc(NS(=O)(=O)c2cccs2)cc1

>  <score_type>  (36) 
oracle

>  <origin>  (36) 
adg

>  <m_score__min__energy>  (36) 
-8.9399999999999995

>  <m_primary>  (36) 
energy

$$$$
36:0
     RDKit          3D

 51 54  0  0  0  0  0  0  0  0999 V2000
   59.3650   28.7790   48.5850 C   0  0  0  0  0  0  0  0  0  0  0  0
   58.8590   29.6280   47.6780 C   0  0  0  0  0  0  0  0  0  0  0  0
   58.4820   29.3470   46.3530 C   0  0  0  0  0  0  0  0  0  0  0  0
   58.3880   28.1810   45.6860 C   0  0  0  0  0  0  0  0  0  0  0  0
   57.3900   27.1250   45.9370 C   0  0  0  0  0  0  0  0  0  0  0  0
   56.0230   27.3450   45.6970 C   0  0  0  0  0  0  0  0  0  0  0  0
   55.5700   28.5810   45.2490 O   0  0  0  0  0  0  0  0  0  0  0  0
   55.1300   26.3410   45.8980 N   0  0  0  0  0  0  0  0  0  0  0  0
   55.5370   25.1140   46.3120 C   0  0  0  0  0  0  0  0  0  0  0  0
   54.6920   24.2000   46.4940 O   0  0  0  0  0  0  0  0  0  0  0  0
   56.8570   24.8710   46.5250 N   0  0  0  0  0  0  0  0  0  0  0  0
   57.7880   25.8410   46.3400 C   0  0  0  0  0  0  0  0  0  0  0  0
   59.0040   25.5790   46.5400 O   0  0  0  0  0  0  0  0  0  0  0  0
   58.1670   30.5670   45.7720 C   0  0  0  0  0  0  0  0  0  0  0  0
   58.3220   31.5290   46.7490 C   0  0  0  0  0  0  0  0  0  0  0  0
   57.9600   32.9740   46.5880 C   0  0  0  0  0  0  0  0  0  0  0  0
   58.7370   30.9620   47.9010 N   0  0  0  0  0  0  0  0  0  0  0  0
   58.9720   31.6550   49.1390 C   0  0  0  0  0  0  0  0  0  0  0  0
   57.9270   31.7640   50.0670 C   0  0  0  0  0  0  0  0  0  0  0  0
   58.1130   32.4610   51.2630 C   0  0  0  0  0  0  0  0  0  0  0  0
   59.3450   33.0560   51.5390 C   0  0  0  0  0  0  0  0  0  0  0  0
   60.3950   32.9510   50.6240 C   0  0  0  0  0  0  0  0  0  0  0  0
   60.2240   32.2500   49.4180 C   0  0  0  0  0  0  0  0  0  0  0  0
   61.3330   32.1190   48.5070 N   0  0  0  0  0  0  0  0  0  0  0  0
   61.3000   32.7870   47.2000 C   0  0  0  0  0  0  0  0  0  0  0  0
   62.3790   33.8820   47.1170 C   0  0  0  0  0  0  0  0  0  0  0  0
   63.6360   33.5750   47.9680 C   0  0  0  0  0  0  0  0  0  0  0  0
   63.5430   34.2500   49.1980 O   0  0  0  0  0  0  0  0  0  0  0  0
   63.8000   32.0630   48.2080 C   0  0  0  0  0  0  0  0  0  0  0  0
   62.5850   31.4930   48.9590 C   0  0  0  0  0  0  0  0  0  0  0  0
   59.6175   29.1380   49.5937 H   0  0  0  0  0  0  0  0  0  0  0  0
   59.5275   27.7238   48.3201 H   0  0  0  0  0  0  0  0  0  0  0  0
   59.1192   28.0006   44.8843 H   0  0  0  0  0  0  0  0  0  0  0  0
   57.8535   30.7352   44.7311 H   0  0  0  0  0  0  0  0  0  0  0  0
   57.8443   33.4357   47.5797 H   0  0  0  0  0  0  0  0  0  0  0  0
   58.7562   33.4918   46.0331 H   0  0  0  0  0  0  0  0  0  0  0  0
   57.0137   33.0553   46.0331 H   0  0  0  0  0  0  0  0  0  0  0  0
   56.9543   31.2976   49.8519 H   0  0  0  0  0  0  0  0  0  0  0  0
   57.2888   32.5410   51.9871 H   0  0  0  0  0  0  0  0  0  0  0  0
   59.4893   33.6087   52.4790 H   0  0  0  0  0  0  0  0  0  0  0  0
   61.3638   33.4209   50.8492 H   0  0  0  0  0  0  0  0  0  0  0  0
   61.4802   32.0428   46.4102 H   0  0  0  0  0  0  0  0  0  0  0  0
   60.3130   33.2545   47.0684 H   0  0  0  0  0  0  0  0  0  0  0  0
   62.6871   33.9886   46.0664 H   0  0  0  0  0  0  0  0  0  0  0  0
   61.9348   34.8055   47.5167 H   0  0  0  0  0  0  0  0  0  0  0  0
   64.5212   33.9236   47.4158 H   0  0  0  0  0  0  0  0  0  0  0  0
   62.6320   34.0770   49.5510 H   0  0  0  0  0  0  0  0  0  0  0  0
   63.8963   31.5525   47.2384 H   0  0  0  0  0  0  0  0  0  0  0  0
   64.7000   31.8991   48.8188 H   0  0  0  0  0  0  0  0  0  0  0  0
   62.5288   30.4093   48.7786 H   0  0  0  0  0  0  0  0  0  0  0  0
   62.7103   31.7041   50.0312 H   0  0  0  0  0  0  0  0  0  0  0  0
  1  2  2  0
  2  3  1  0
  3  4  2  3
  4  5  1  0
  5  6  2  0
  6  7  1  0
  6  8  1  0
  8  9  1  0
  9 10  2  0
  9 11  1  0
 11 12  1  0
 12 13  2  0
  3 14  1  0
 14 15  2  0
 15 16  1  0
 15 17  1  0
 17 18  1  0
 18 19  2  0
 19 20  1  0
 20 21  2  0
 21 22  1  0
 22 23  2  0
 23 24  1  0
 24 25  1  0
 25 26  1  0
 26 27  1  0
 27 28  1  0
 27 29  1  0
 29 30  1  0
 17  2  1  0
 23 18  1  0
 30 24  1  0
 12  5  1  0
  1 31  1  0
  1 32  1  0
  4 33  1  0
 14 34  1  0
 16 35  1  0
 16 36  1  0
 16 37  1  0
 19 38  1  0
 20 39  1  0
 21 40  1  0
 22 41  1  0
 25 42  1  0
 25 43  1  0
 26 44  1  0
 26 45  1  0
 27 46  1  0
 28 47  1  0
 29 48  1  0
 29 49  1  0
 30 50  1  0
 30 51  1  0
M  CHG  3   7  -1   8  -1  11  -1
M  END
>  <UniqueID>  (37) 
34

>  <SMILES>  (37) 
C=c1c(=Cc2c([O-])[n-]c(=O)[n-]c2=O)cc(C)n1-c1ccccc1N1CCC(O)CC1

>  <Energy>  (37) 
109.20066923846645

>  <Genealogy>  (37) 
C=c1c(=Cc2c([O-])[n-]c(=O)[n-]c2=O)cc(C)n1-c1ccccc1N1CCC(O)CC1 (protonated)
C=c1c(=Cc2c([O-])[n-]c(=O)[n-]c2=O)cc(C)n1-c1ccccc1N1CCC(O)CC1 (3D coordinates assigned)
C=c1c(=Cc2c([O-])[n-]c(=O)[n-]c2=O)cc(C)n1-c1ccccc1N1CCC(O)CC1 (nonaromatic ring conformer: 109.20066923846645 kcal/mol)

>  <smiles>  (37) 
C=c1c(=Cc2c(O)[nH]c(=O)[nH]c2=O)cc(C)n1-c1ccccc1N1CCC(O)CC1

>  <score_type>  (37) 
oracle

>  <origin>  (37) 
adg

>  <m_score__min__energy>  (37) 
-16.219999999999999

>  <m_primary>  (37) 
energy

$$$$
37:0
     RDKit          3D

 49 52  0  0  0  0  0  0  0  0999 V2000
   53.4520   27.9160   53.7630 C   0  0  0  0  0  0  0  0  0  0  0  0
   54.1260   28.9010   53.1660 C   0  0  0  0  0  0  0  0  0  0  0  0
   55.4390   28.9160   53.1360 O   0  0  0  0  0  0  0  0  0  0  0  0
   55.8430   29.9190   52.3890 C   0  0  0  0  0  0  0  0  0  0  0  0
   57.2690   30.2220   52.1510 C   0  0  0  0  0  0  0  0  0  0  0  0
   58.0300   30.3260   53.1520 O   0  0  0  0  0  0  0  0  0  0  0  0
   57.7870   30.4720   50.8190 N   0  0  0  0  0  0  0  0  0  0  0  0
   57.8210   31.9360   50.5910 C   0  0  0  0  0  0  0  0  0  0  0  0
   58.6000   32.2950   49.3200 C   0  0  0  0  0  0  0  0  0  0  0  0
   59.9440   31.7020   49.3410 N   0  0  0  0  0  0  0  0  0  0  0  0
   60.9400   32.0860   48.3670 C   0  0  0  0  0  0  0  0  0  0  0  0
   62.1540   31.8020   48.5710 O   0  0  0  0  0  0  0  0  0  0  0  0
   60.5580   32.7630   47.0720 C   0  0  2  0  0  0  0  0  0  0  0  0
   60.3780   34.2700   47.2670 C   0  0  0  0  0  0  0  0  0  0  0  0
   58.9790   34.5400   46.7920 C   0  0  0  0  0  0  0  0  0  0  0  0
   58.6190   33.2850   46.0320 C   0  0  0  0  0  0  0  0  0  0  0  0
   59.3540   32.2170   46.5760 O   0  0  0  0  0  0  0  0  0  0  0  0
   60.2730   30.7420   50.4020 C   0  0  0  0  0  0  0  0  0  0  0  0
   59.0940   29.7810   50.6040 C   0  0  0  0  0  0  0  0  0  0  0  0
   54.7470   30.6110   51.9010 C   0  0  0  0  0  0  0  0  0  0  0  0
   53.6320   29.9860   52.4300 C   0  0  0  0  0  0  0  0  0  0  0  0
   52.3750   30.4260   52.2290 C   0  0  0  0  0  0  0  0  0  0  0  0
   51.8180   30.8640   50.9400 C   0  0  0  0  0  0  0  0  0  0  0  0
   51.7090   30.0840   49.8470 N   0  0  0  0  0  0  0  0  0  0  0  0
   51.0180   30.8560   48.9810 C   0  0  0  0  0  0  0  0  0  0  0  0
   50.7240   30.4730   47.8190 O   0  0  0  0  0  0  0  0  0  0  0  0
   50.6520   32.0640   49.4630 N   0  0  0  0  0  0  0  0  0  0  0  0
   51.1540   32.0440   50.7090 C   0  0  0  0  0  0  0  0  0  0  0  0
   51.0030   33.0830   51.6200 O   0  0  0  0  0  0  0  0  0  0  0  0
   52.3521   27.9293   53.7727 H   0  0  0  0  0  0  0  0  0  0  0  0
   53.9963   27.0908   54.2454 H   0  0  0  0  0  0  0  0  0  0  0  0
   57.1210   30.0680   50.1210 H   0  0  0  0  0  0  0  0  0  0  0  0
   56.7895   32.3054   50.4930 H   0  0  0  0  0  0  0  0  0  0  0  0
   58.3282   32.4043   51.4474 H   0  0  0  0  0  0  0  0  0  0  0  0
   58.0533   31.9160   48.4439 H   0  0  0  0  0  0  0  0  0  0  0  0
   58.7005   33.3892   49.2679 H   0  0  0  0  0  0  0  0  0  0  0  0
   61.3726   32.5928   46.3526 H   0  0  0  0  0  0  0  0  0  0  0  0
   60.4891   34.5420   48.3270 H   0  0  0  0  0  0  0  0  0  0  0  0
   61.1292   34.8578   46.7191 H   0  0  0  0  0  0  0  0  0  0  0  0
   58.2978   34.6947   47.6417 H   0  0  0  0  0  0  0  0  0  0  0  0
   58.9017   35.4502   46.1792 H   0  0  0  0  0  0  0  0  0  0  0  0
   57.5419   33.0851   46.1318 H   0  0  0  0  0  0  0  0  0  0  0  0
   58.8563   33.4054   44.9647 H   0  0  0  0  0  0  0  0  0  0  0  0
   61.1676   30.1700   50.1147 H   0  0  0  0  0  0  0  0  0  0  0  0
   60.4701   31.2835   51.3390 H   0  0  0  0  0  0  0  0  0  0  0  0
   59.0077   29.1445   49.7110 H   0  0  0  0  0  0  0  0  0  0  0  0
   59.3045   29.2002   51.5142 H   0  0  0  0  0  0  0  0  0  0  0  0
   54.7604   31.4815   51.2287 H   0  0  0  0  0  0  0  0  0  0  0  0
   51.7082   30.4608   53.1032 H   0  0  0  0  0  0  0  0  0  0  0  0
  1  2  2  0
  2  3  1  0
  3  4  1  0
  4  5  1  0
  5  6  2  0
  5  7  1  0
  7  8  1  0
  8  9  1  0
  9 10  1  0
 10 11  1  0
 11 12  2  0
 11 13  1  0
 13 14  1  0
 14 15  1  0
 15 16  1  0
 16 17  1  0
 10 18  1  0
 18 19  1  0
  4 20  2  0
 20 21  1  0
 21 22  2  3
 22 23  1  0
 23 24  1  0
 24 25  1  0
 25 26  2  0
 25 27  1  0
 27 28  1  0
 28 29  1  0
 21  2  1  0
 28 23  2  0
 19  7  1  0
 17 13  1  0
  1 30  1  0
  1 31  1  0
  7 32  1  0
  8 33  1  0
  8 34  1  0
  9 35  1  0
  9 36  1  0
 13 37  1  6
 14 38  1  0
 14 39  1  0
 15 40  1  0
 15 41  1  0
 16 42  1  0
 16 43  1  0
 18 44  1  0
 18 45  1  0
 19 46  1  0
 19 47  1  0
 20 48  1  0
 22 49  1  0
M  CHG  4   7   1  24  -1  27  -1  29  -1
M  END
>  <UniqueID>  (38) 
35

>  <SMILES>  (38) 
C=c1oc(C(=O)[NH+]2CCN(C(=O)[C@@H]3CCCO3)CC2)cc1=Cc1[n-]c(=O)[n-]c1[O-]

>  <Energy>  (38) 
128.0277074555001

>  <Genealogy>  (38) 
C=c1oc(C(=O)[NH+]2CCN(C(=O)C3CCCO3)CC2)cc1=Cc1[n-]c(=O)[n-]c1[O-] (protonated)
C=c1oc(C(=O)[NH+]2CCN(C(=O)[C@@H]3CCCO3)CC2)cc1=Cc1[n-]c(=O)[n-]c1[O-] (chirality)
C=c1oc(C(=O)[NH+]2CCN(C(=O)[C@@H]3CCCO3)CC2)cc1=Cc1[n-]c(=O)[n-]c1[O-] (3D coordinates assigned)
C=c1oc(C(=O)[NH+]2CCN(C(=O)[C@@H]3CCCO3)CC2)cc1=Cc1[n-]c(=O)[n-]c1[O-] (nonaromatic ring conformer: 128.0277074555001 kcal/mol)

>  <smiles>  (38) 
C=c1oc(C(=O)N2CCN(C(=O)C3CCCO3)CC2)cc1=Cc1[nH]c(=O)[nH]c1O

>  <score_type>  (38) 
oracle

>  <origin>  (38) 
adg

>  <m_score__min__energy>  (38) 
-16.23

>  <m_primary>  (38) 
energy

$$$$
38:0
     RDKit          3D

 57 61  0  0  0  0  0  0  0  0999 V2000
   55.3320   22.8100   45.4710 C   0  0  0  0  0  0  0  0  0  0  0  0
   55.5800   24.2710   45.6400 C   0  0  0  0  0  0  0  0  0  0  0  0
   56.7820   24.9170   45.4520 C   0  0  0  0  0  0  0  0  0  0  0  0
   56.4620   26.2430   45.7080 C   0  0  0  0  0  0  0  0  0  0  0  0
   57.2500   27.2780   45.6580 N   0  0  0  0  0  0  0  0  0  0  0  0
   57.3970   28.2370   44.5970 C   0  0  0  0  0  0  0  0  0  0  0  0
   57.8420   27.9020   43.4670 O   0  0  0  0  0  0  0  0  0  0  0  0
   57.0200   29.6720   44.8530 C   0  0  0  0  0  0  0  0  0  0  0  0
   57.8160   30.2690   46.0410 C   0  0  0  0  0  0  0  0  0  0  0  0
   59.0190   31.0970   45.5620 C   0  0  0  0  0  0  0  0  0  0  0  0
   58.6340   32.2080   44.6540 N   0  0  0  0  0  0  0  0  0  0  0  0
   58.5590   33.7280   45.5110 S   0  0  0  0  0  0  0  0  0  0  0  0
   57.2080   33.8890   46.1550 O   0  0  0  0  0  0  0  0  0  0  0  0
   58.7730   34.8670   44.5530 O   0  0  0  0  0  0  0  0  0  0  0  0
   59.8230   33.7810   46.7370 C   0  0  0  0  0  0  0  0  0  0  0  0
   59.5120   34.1000   48.0760 C   0  0  0  0  0  0  0  0  0  0  0  0
   60.5210   34.1210   49.0530 C   0  0  0  0  0  0  0  0  0  0  0  0
   61.8360   33.8330   48.6650 C   0  0  0  0  0  0  0  0  0  0  0  0
   62.1310   33.5050   47.3690 C   0  0  0  0  0  0  0  0  0  0  0  0
   61.1470   33.4710   46.3820 C   0  0  0  0  0  0  0  0  0  0  0  0
   63.5770   33.1850   47.2220 C   0  0  0  0  0  0  0  0  0  0  0  0
   64.1250   33.3380   48.6600 C   0  0  0  0  0  0  0  0  0  0  0  0
   62.9940   33.7680   49.4860 N   0  0  0  0  0  0  0  0  0  0  0  0
   63.1090   34.1640   50.8650 C   0  0  0  0  0  0  0  0  0  0  0  0
   63.6940   35.2350   51.1760 O   0  0  0  0  0  0  0  0  0  0  0  0
   62.6050   33.2660   51.9570 C   0  0  0  0  0  0  0  0  0  0  0  0
   61.0910   33.2430   52.1270 C   0  0  0  0  0  0  0  0  0  0  0  0
   61.7980   32.0730   51.4650 C   0  0  0  0  0  0  0  0  0  0  0  0
   57.3750   31.9870   43.9080 C   0  0  0  0  0  0  0  0  0  0  0  0
   57.1770   30.5080   43.5650 C   0  0  0  0  0  0  0  0  0  0  0  0
   55.1560   26.3500   46.0160 N   0  0  0  0  0  0  0  0  0  0  0  0
   54.6590   25.1490   45.9660 O   0  0  0  0  0  0  0  0  0  0  0  0
   55.2514   22.3350   46.4599 H   0  0  0  0  0  0  0  0  0  0  0  0
   54.3954   22.6591   44.9142 H   0  0  0  0  0  0  0  0  0  0  0  0
   56.1663   22.3584   44.9142 H   0  0  0  0  0  0  0  0  0  0  0  0
   57.7546   24.4881   45.1690 H   0  0  0  0  0  0  0  0  0  0  0  0
   55.9598   29.7041   45.1443 H   0  0  0  0  0  0  0  0  0  0  0  0
   57.1482   30.9172   46.6274 H   0  0  0  0  0  0  0  0  0  0  0  0
   58.1949   29.4365   46.6521 H   0  0  0  0  0  0  0  0  0  0  0  0
   59.5245   31.5222   46.4416 H   0  0  0  0  0  0  0  0  0  0  0  0
   59.6783   30.4226   44.9959 H   0  0  0  0  0  0  0  0  0  0  0  0
   58.4742   34.3334   48.3561 H   0  0  0  0  0  0  0  0  0  0  0  0
   60.2837   34.3585   50.1005 H   0  0  0  0  0  0  0  0  0  0  0  0
   61.4020   33.2066   45.3452 H   0  0  0  0  0  0  0  0  0  0  0  0
   63.7176   32.1579   46.8543 H   0  0  0  0  0  0  0  0  0  0  0  0
   64.0890   33.8334   46.4957 H   0  0  0  0  0  0  0  0  0  0  0  0
   64.5179   32.3766   49.0224 H   0  0  0  0  0  0  0  0  0  0  0  0
   64.9489   34.0658   48.6992 H   0  0  0  0  0  0  0  0  0  0  0  0
   63.4604   33.4105   52.6333 H   0  0  0  0  0  0  0  0  0  0  0  0
   60.6518   33.1248   53.1286 H   0  0  0  0  0  0  0  0  0  0  0  0
   60.2665   33.9141   51.8445 H   0  0  0  0  0  0  0  0  0  0  0  0
   61.8702   31.1076   51.9873 H   0  0  0  0  0  0  0  0  0  0  0  0
   61.6965   31.5464   50.5046 H   0  0  0  0  0  0  0  0  0  0  0  0
   56.5300   32.3269   44.5247 H   0  0  0  0  0  0  0  0  0  0  0  0
   57.4274   32.5549   42.9674 H   0  0  0  0  0  0  0  0  0  0  0  0
   56.2727   30.3970   42.9487 H   0  0  0  0  0  0  0  0  0  0  0  0
   58.0580   30.1493   43.0126 H   0  0  0  0  0  0  0  0  0  0  0  0
  1  2  1  0
  2  3  2  0
  3  4  1  0
  4  5  2  3
  5  6  1  0
  6  7  2  0
  6  8  1  0
  8  9  1  0
  9 10  1  0
 10 11  1  0
 11 12  1  0
 12 13  2  0
 12 14  2  0
 12 15  1  0
 15 16  2  0
 16 17  1  0
 17 18  2  0
 18 19  1  0
 19 20  2  0
 19 21  1  0
 21 22  1  0
 22 23  1  0
 23 24  1  0
 24 25  2  0
 24 26  1  0
 26 27  1  0
 27 28  1  0
 11 29  1  0
 29 30  1  0
  4 31  1  0
 31 32  1  0
 32  2  1  0
 30  8  1  0
 20 15  1  0
 28 26  1  0
 23 18  1  0
  1 33  1  0
  1 34  1  0
  1 35  1  0
  3 36  1  0
  8 37  1  0
  9 38  1  0
  9 39  1  0
 10 40  1  0
 10 41  1  0
 16 42  1  0
 17 43  1  0
 20 44  1  0
 21 45  1  0
 21 46  1  0
 22 47  1  0
 22 48  1  0
 26 49  1  0
 27 50  1  0
 27 51  1  0
 28 52  1  0
 28 53  1  0
 29 54  1  0
 29 55  1  0
 30 56  1  0
 30 57  1  0
M  CHG  1  31  -1
M  END
>  <UniqueID>  (39) 
36

>  <SMILES>  (39) 
Cc1cc(=NC(=O)C2CCN(S(=O)(=O)c3ccc4c(c3)CCN4C(=O)C3CC3)CC2)[n-]o1

>  <Energy>  (39) 
379.2073162678379

>  <Genealogy>  (39) 
Cc1cc(=NC(=O)C2CCN(S(=O)(=O)c3ccc4c(c3)CCN4C(=O)C3CC3)CC2)[n-]o1 (protonated)
Cc1cc(=NC(=O)C2CCN(S(=O)(=O)c3ccc4c(c3)CCN4C(=O)C3CC3)CC2)[n-]o1 (3D coordinates assigned)
Cc1cc(=NC(=O)C2CCN(S(=O)(=O)c3ccc4c(c3)CCN4C(=O)C3CC3)CC2)[n-]o1 (nonaromatic ring conformer: 379.2073162678379 kcal/mol)

>  <smiles>  (39) 
Cc1cc(=NC(=O)C2CCN(S(=O)(=O)c3ccc4c(c3)CCN4C(=O)C3CC3)CC2)[nH]o1

>  <score_type>  (39) 
oracle

>  <origin>  (39) 
adg

>  <m_score__min__energy>  (39) 
-12.43

>  <m_primary>  (39) 
energy

$$$$
39:0
     RDKit          3D

 55 58  0  0  0  0  0  0  0  0999 V2000
   50.5100   21.9990   46.4270 C   0  0  0  0  0  0  0  0  0  0  0  0
   51.8570   22.6410   46.2590 C   0  0  0  0  0  0  0  0  0  0  0  0
   52.0750   23.5620   45.2230 C   0  0  0  0  0  0  0  0  0  0  0  0
   53.3420   24.1260   45.0370 C   0  0  0  0  0  0  0  0  0  0  0  0
   54.4050   23.7790   45.8860 C   0  0  0  0  0  0  0  0  0  0  0  0
   55.7090   24.3410   45.6600 N   0  0  0  0  0  0  0  0  0  0  0  0
   56.0470   25.6960   45.9820 C   0  0  0  0  0  0  0  0  0  0  0  0
   55.1440   26.5720   46.0540 O   0  0  0  0  0  0  0  0  0  0  0  0
   57.4250   26.0650   46.1300 N   0  0  0  0  0  0  0  0  0  0  0  0
   58.0250   27.2570   45.5990 C   0  0  0  0  0  0  0  0  0  0  0  0
   59.4170   27.4810   45.6510 C   0  0  0  0  0  0  0  0  0  0  0  0
   59.9600   28.6650   45.1460 C   0  0  0  0  0  0  0  0  0  0  0  0
   59.1260   29.6330   44.5850 C   0  0  0  0  0  0  0  0  0  0  0  0
   57.7390   29.4100   44.4970 C   0  0  0  0  0  0  0  0  0  0  0  0
   56.8320   30.4680   43.9230 C   0  0  0  0  0  0  0  0  0  0  0  0
   56.6100   31.5430   44.8850 N   0  0  0  0  0  0  0  0  0  0  0  0
   57.4560   32.6900   45.0210 C   0  0  0  0  0  0  0  0  0  0  0  0
   57.5850   33.4940   44.0670 O   0  0  0  0  0  0  0  0  0  0  0  0
   58.0980   33.0150   46.3080 C   0  0  0  0  0  0  0  0  0  0  0  0
   59.2720   32.5330   46.7410 C   0  0  0  0  0  0  0  0  0  0  0  0
   60.5570   33.2240   46.5970 C   0  0  0  0  0  0  0  0  0  0  0  0
   60.7500   34.2670   45.9150 O   0  0  0  0  0  0  0  0  0  0  0  0
   61.5690   32.6030   47.3900 N   0  0  0  0  0  0  0  0  0  0  0  0
   62.8070   33.2310   47.8240 C   0  0  0  0  0  0  0  0  0  0  0  0
   60.9110   31.4930   48.0070 C   0  0  0  0  0  0  0  0  0  0  0  0
   61.5010   30.5320   48.8320 C   0  0  0  0  0  0  0  0  0  0  0  0
   60.7400   29.4160   49.2120 C   0  0  0  0  0  0  0  0  0  0  0  0
   59.4360   29.2560   48.7350 C   0  0  0  0  0  0  0  0  0  0  0  0
   58.8600   30.2310   47.9030 C   0  0  0  0  0  0  0  0  0  0  0  0
   59.5900   31.3860   47.6140 C   0  0  0  0  0  0  0  0  0  0  0  0
   57.2010   28.2070   44.9840 C   0  0  0  0  0  0  0  0  0  0  0  0
   54.1910   22.8310   46.9030 C   0  0  0  0  0  0  0  0  0  0  0  0
   52.9270   22.2650   47.0860 C   0  0  0  0  0  0  0  0  0  0  0  0
   50.2858   21.8922   47.4986 H   0  0  0  0  0  0  0  0  0  0  0  0
   49.7423   22.6280   45.9527 H   0  0  0  0  0  0  0  0  0  0  0  0
   50.5151   21.0065   45.9527 H   0  0  0  0  0  0  0  0  0  0  0  0
   51.2471   23.8415   44.5548 H   0  0  0  0  0  0  0  0  0  0  0  0
   53.5061   24.8452   44.2211 H   0  0  0  0  0  0  0  0  0  0  0  0
   56.4580   23.7130   45.2930 H   0  0  0  0  0  0  0  0  0  0  0  0
   60.0779   26.7198   46.0913 H   0  0  0  0  0  0  0  0  0  0  0  0
   61.0460   28.8344   45.1906 H   0  0  0  0  0  0  0  0  0  0  0  0
   59.5543   30.5742   44.2100 H   0  0  0  0  0  0  0  0  0  0  0  0
   57.2948   30.8858   43.0168 H   0  0  0  0  0  0  0  0  0  0  0  0
   55.8629   30.0066   43.6824 H   0  0  0  0  0  0  0  0  0  0  0  0
   57.5674   33.7141   46.9710 H   0  0  0  0  0  0  0  0  0  0  0  0
   62.8431   33.2493   48.9233 H   0  0  0  0  0  0  0  0  0  0  0  0
   63.6634   32.6583   47.4385 H   0  0  0  0  0  0  0  0  0  0  0  0
   62.8508   34.2603   47.4385 H   0  0  0  0  0  0  0  0  0  0  0  0
   62.5394   30.6478   49.1761 H   0  0  0  0  0  0  0  0  0  0  0  0
   61.1717   28.6636   49.8884 H   0  0  0  0  0  0  0  0  0  0  0  0
   58.8577   28.3623   49.0123 H   0  0  0  0  0  0  0  0  0  0  0  0
   57.8520   30.0871   47.4867 H   0  0  0  0  0  0  0  0  0  0  0  0
   56.1237   28.0100   44.8812 H   0  0  0  0  0  0  0  0  0  0  0  0
   55.0235   22.5338   47.5577 H   0  0  0  0  0  0  0  0  0  0  0  0
   52.7696   21.5217   47.8814 H   0  0  0  0  0  0  0  0  0  0  0  0
  1  2  1  0
  2  3  2  0
  3  4  1  0
  4  5  2  0
  5  6  1  0
  6  7  1  0
  7  8  2  0
  7  9  1  0
  9 10  1  0
 10 11  2  0
 11 12  1  0
 12 13  2  0
 13 14  1  0
 14 15  1  0
 15 16  1  0
 16 17  1  0
 17 18  2  0
 17 19  1  0
 19 20  2  3
 20 21  1  0
 21 22  2  0
 21 23  1  0
 23 24  1  0
 23 25  1  0
 25 26  2  0
 26 27  1  0
 27 28  2  0
 28 29  1  0
 29 30  2  0
 14 31  2  0
  5 32  1  0
 32 33  2  0
 33  2  1  0
 31 10  1  0
 30 20  1  0
 30 25  1  0
  1 34  1  0
  1 35  1  0
  1 36  1  0
  3 37  1  0
  4 38  1  0
  6 39  1  0
 11 40  1  0
 12 41  1  0
 13 42  1  0
 15 43  1  0
 15 44  1  0
 19 45  1  0
 24 46  1  0
 24 47  1  0
 24 48  1  0
 26 49  1  0
 27 50  1  0
 28 51  1  0
 29 52  1  0
 31 53  1  0
 32 54  1  0
 33 55  1  0
M  CHG  2   9  -1  16  -1
M  END
>  <UniqueID>  (40) 
37

>  <SMILES>  (40) 
Cc1ccc(NC(=O)[N-]c2cccc(C[N-]C(=O)C=C3C(=O)N(C)c4ccccc43)c2)cc1

>  <Energy>  (40) 
100.77980695712914

>  <Genealogy>  (40) 
Cc1ccc(NC(=O)[N-]c2cccc(C[N-]C(=O)C=C3C(=O)N(C)c4ccccc43)c2)cc1 (protonated)
Cc1ccc(NC(=O)[N-]c2cccc(C[N-]C(=O)C=C3C(=O)N(C)c4ccccc43)c2)cc1 (3D coordinates assigned)
Cc1ccc(NC(=O)[N-]c2cccc(C[N-]C(=O)C=C3C(=O)N(C)c4ccccc43)c2)cc1 (nonaromatic ring conformer: 100.77980695712914 kcal/mol)

>  <smiles>  (40) 
Cc1ccc(NC(=O)Nc2cccc(CNC(=O)C=C3C(=O)N(C)c4ccccc43)c2)cc1

>  <score_type>  (40) 
oracle

>  <origin>  (40) 
adg

>  <m_score__min__energy>  (40) 
-12.380000000000001

>  <m_primary>  (40) 
energy

$$$$
40:0
     RDKit          3D

 39 41  0  0  0  0  0  0  0  0999 V2000
   55.9280   20.9630   44.7410 C   0  0  0  0  0  0  0  0  0  0  0  0
   55.5570   22.2400   44.2330 O   0  0  0  0  0  0  0  0  0  0  0  0
   56.0450   23.4620   44.7210 C   0  0  0  0  0  0  0  0  0  0  0  0
   55.1870   24.4950   45.1410 C   0  0  0  0  0  0  0  0  0  0  0  0
   55.7070   25.7000   45.6200 C   0  0  0  0  0  0  0  0  0  0  0  0
   54.8350   26.7110   46.0090 O   0  0  0  0  0  0  0  0  0  0  0  0
   57.0970   25.8880   45.6940 C   0  0  0  0  0  0  0  0  0  0  0  0
   57.6680   27.1560   46.2090 C   0  0  0  0  0  0  0  0  0  0  0  0
   58.4530   27.1570   47.3770 C   0  0  0  0  0  0  0  0  0  0  0  0
   58.7180   25.9700   48.0510 O   0  0  0  0  0  0  0  0  0  0  0  0
   58.9710   28.3190   47.8520 N   0  0  0  0  0  0  0  0  0  0  0  0
   58.7600   29.5100   47.2350 C   0  0  0  0  0  0  0  0  0  0  0  0
   59.3210   30.6760   47.7640 C   0  0  0  0  0  0  0  0  0  0  0  0
   59.1080   31.9060   47.1370 C   0  0  0  0  0  0  0  0  0  0  0  0
   58.3250   31.9820   45.9770 C   0  0  0  0  0  0  0  0  0  0  0  0
   58.0690   33.5300   45.1800 S   0  0  0  0  0  0  0  0  0  0  0  0
   59.1660   34.7000   45.8250 N   0  0  0  0  0  0  0  0  0  0  0  0
   58.3010   33.3840   43.7020 O   0  0  0  0  0  0  0  0  0  0  0  0
   56.6570   33.9950   45.4040 O   0  0  0  0  0  0  0  0  0  0  0  0
   57.7660   30.8150   45.4370 C   0  0  0  0  0  0  0  0  0  0  0  0
   57.9750   29.5700   46.0620 C   0  0  0  0  0  0  0  0  0  0  0  0
   57.4240   28.3790   45.5520 C   0  0  0  0  0  0  0  0  0  0  0  0
   56.7010   28.4040   44.5170 O   0  0  0  0  0  0  0  0  0  0  0  0
   57.9550   24.8610   45.2720 C   0  0  0  0  0  0  0  0  0  0  0  0
   57.4350   23.6470   44.7850 C   0  0  0  0  0  0  0  0  0  0  0  0
   58.2670   22.5990   44.3570 O   0  0  0  0  0  0  0  0  0  0  0  0
   59.5650   22.3350   44.8780 C   0  0  0  0  0  0  0  0  0  0  0  0
   55.9203   20.9895   45.8407 H   0  0  0  0  0  0  0  0  0  0  0  0
   55.2127   20.2058   44.3874 H   0  0  0  0  0  0  0  0  0  0  0  0
   56.9377   20.7069   44.3874 H   0  0  0  0  0  0  0  0  0  0  0  0
   54.0974   24.3526   45.0918 H   0  0  0  0  0  0  0  0  0  0  0  0
   59.9323   30.6248   48.6771 H   0  0  0  0  0  0  0  0  0  0  0  0
   59.5568   32.8189   47.5555 H   0  0  0  0  0  0  0  0  0  0  0  0
   59.5120   35.2680   45.0200 H   0  0  0  0  0  0  0  0  0  0  0  0
   57.1609   30.8720   44.5202 H   0  0  0  0  0  0  0  0  0  0  0  0
   59.0442   25.0060   45.3222 H   0  0  0  0  0  0  0  0  0  0  0  0
   59.5274   22.3427   45.9773 H   0  0  0  0  0  0  0  0  0  0  0  0
   59.9064   21.3490   44.5297 H   0  0  0  0  0  0  0  0  0  0  0  0
   60.2644   23.1093   44.5297 H   0  0  0  0  0  0  0  0  0  0  0  0
  1  2  1  0
  2  3  1  0
  3  4  2  0
  4  5  1  0
  5  6  1  0
  5  7  2  0
  7  8  1  0
  8  9  2  0
  9 10  1  0
  9 11  1  0
 11 12  1  0
 12 13  2  0
 13 14  1  0
 14 15  2  0
 15 16  1  0
 16 17  1  0
 16 18  2  0
 16 19  2  0
 15 20  1  0
 20 21  2  0
 21 22  1  0
 22 23  2  0
  7 24  1  0
 24 25  2  0
 25 26  1  0
 26 27  1  0
 25  3  1  0
 22  8  1  0
 21 12  1  0
  1 28  1  0
  1 29  1  0
  1 30  1  0
  4 31  1  0
 13 32  1  0
 14 33  1  0
 17 34  1  0
 20 35  1  0
 24 36  1  0
 27 37  1  0
 27 38  1  0
 27 39  1  0
M  CHG  4   6  -1  10  -1  11  -1  17  -1
M  END
>  <UniqueID>  (41) 
38

>  <SMILES>  (41) 
COc1cc([O-])c(-c2c([O-])[n-]c3ccc(S([NH-])(=O)=O)cc3c2=O)cc1OC

>  <Energy>  (41) 
53.96368974530576

>  <Genealogy>  (41) 
COc1cc([O-])c(-c2c([O-])[n-]c3ccc(S([NH-])(=O)=O)cc3c2=O)cc1OC (protonated)
COc1cc([O-])c(-c2c([O-])[n-]c3ccc(S([NH-])(=O)=O)cc3c2=O)cc1OC (3D coordinates assigned)
COc1cc([O-])c(-c2c([O-])[n-]c3ccc(S([NH-])(=O)=O)cc3c2=O)cc1OC (optimized conformer: 53.96368974530576 kcal/mol)

>  <smiles>  (41) 
COc1cc(O)c(-c2c(O)[nH]c3ccc(S(N)(=O)=O)cc3c2=O)cc1OC

>  <score_type>  (41) 
oracle

>  <origin>  (41) 
adg

>  <m_score__min__energy>  (41) 
-14.85

>  <m_primary>  (41) 
energy

$$$$
41:0
     RDKit          3D

 56 58  0  0  0  0  0  0  0  0999 V2000
   62.8280   33.7790   46.7620 C   0  0  0  0  0  0  0  0  0  0  0  0
   61.8330   33.6130   47.9120 C   0  0  0  0  0  0  0  0  0  0  0  0
   60.5780   34.3760   47.7340 N   0  0  0  0  0  0  0  0  0  0  0  0
   59.3730   33.7570   48.3260 C   0  0  0  0  0  0  0  0  0  0  0  0
   58.6090   32.8290   47.3520 C   0  0  0  0  0  0  0  0  0  0  0  0
   59.0750   32.9710   45.9630 N   0  0  0  0  0  0  0  0  0  0  0  0
   57.9660   32.1820   44.8690 S   0  0  0  0  0  0  0  0  0  0  0  0
   58.4940   32.2780   43.4650 O   0  0  0  0  0  0  0  0  0  0  0  0
   56.6380   32.8880   44.9150 O   0  0  0  0  0  0  0  0  0  0  0  0
   57.7330   30.4850   45.2930 C   0  0  0  0  0  0  0  0  0  0  0  0
   58.6770   29.8170   46.0840 C   0  0  0  0  0  0  0  0  0  0  0  0
   58.4850   28.4760   46.4300 C   0  0  0  0  0  0  0  0  0  0  0  0
   57.3370   27.7900   45.9950 C   0  0  0  0  0  0  0  0  0  0  0  0
   57.1120   26.4080   46.3080 N   0  0  0  0  0  0  0  0  0  0  0  0
   55.8710   25.7000   46.2060 C   0  0  0  0  0  0  0  0  0  0  0  0
   54.7990   26.3210   45.9770 O   0  0  0  0  0  0  0  0  0  0  0  0
   55.8360   24.2710   46.3020 N   0  0  0  0  0  0  0  0  0  0  0  0
   55.4460   23.3360   45.2390 C   0  0  0  0  0  0  0  0  0  0  0  0
   53.9820   23.1430   45.2780 C   0  0  0  0  0  0  0  0  0  0  0  0
   52.8360   22.9920   45.3090 N   0  0  0  0  0  0  0  0  0  0  0  0
   55.8630   23.8870   43.8550 C   0  0  0  0  0  0  0  0  0  0  0  0
   57.3810   24.1390   43.7610 C   0  0  0  0  0  0  0  0  0  0  0  0
   58.2190   23.1800   44.6310 C   0  0  0  0  0  0  0  0  0  0  0  0
   57.5230   21.8280   44.8180 C   0  0  0  0  0  0  0  0  0  0  0  0
   56.1430   21.9690   45.4950 C   0  0  0  0  0  0  0  0  0  0  0  0
   56.4110   28.4530   45.1820 C   0  0  0  0  0  0  0  0  0  0  0  0
   56.6020   29.7940   44.8380 C   0  0  0  0  0  0  0  0  0  0  0  0
   59.2160   34.3880   45.6160 C   0  0  0  0  0  0  0  0  0  0  0  0
   60.3930   34.9890   46.3970 C   0  0  0  0  0  0  0  0  0  0  0  0
   63.8355   33.9471   47.1702 H   0  0  0  0  0  0  0  0  0  0  0  0
   62.8298   32.8687   46.1444 H   0  0  0  0  0  0  0  0  0  0  0  0
   62.5342   34.6405   46.1444 H   0  0  0  0  0  0  0  0  0  0  0  0
   61.5801   32.5461   47.9998 H   0  0  0  0  0  0  0  0  0  0  0  0
   62.3209   34.0073   48.8156 H   0  0  0  0  0  0  0  0  0  0  0  0
   59.6806   33.1650   49.2006 H   0  0  0  0  0  0  0  0  0  0  0  0
   58.6890   34.5759   48.5934 H   0  0  0  0  0  0  0  0  0  0  0  0
   58.7554   31.7860   47.6692 H   0  0  0  0  0  0  0  0  0  0  0  0
   57.5466   33.1127   47.3809 H   0  0  0  0  0  0  0  0  0  0  0  0
   59.5732   30.3500   46.4344 H   0  0  0  0  0  0  0  0  0  0  0  0
   59.2345   27.9558   47.0446 H   0  0  0  0  0  0  0  0  0  0  0  0
   55.5766   23.1580   43.0827 H   0  0  0  0  0  0  0  0  0  0  0  0
   55.3514   24.8495   43.7069 H   0  0  0  0  0  0  0  0  0  0  0  0
   57.6898   24.0174   42.7123 H   0  0  0  0  0  0  0  0  0  0  0  0
   57.5636   25.1575   44.1343 H   0  0  0  0  0  0  0  0  0  0  0  0
   59.1917   23.0156   44.1444 H   0  0  0  0  0  0  0  0  0  0  0  0
   58.3460   23.6397   45.6223 H   0  0  0  0  0  0  0  0  0  0  0  0
   57.3871   21.3605   43.8316 H   0  0  0  0  0  0  0  0  0  0  0  0
   58.1570   21.2103   45.4710 H   0  0  0  0  0  0  0  0  0  0  0  0
   55.4885   21.1710   45.1144 H   0  0  0  0  0  0  0  0  0  0  0  0
   56.3133   21.8982   46.5794 H   0  0  0  0  0  0  0  0  0  0  0  0
   55.5263   27.9148   44.8110 H   0  0  0  0  0  0  0  0  0  0  0  0
   55.8619   30.3089   44.2078 H   0  0  0  0  0  0  0  0  0  0  0  0
   59.4042   34.4846   44.5365 H   0  0  0  0  0  0  0  0  0  0  0  0
   58.2909   34.9238   45.8752 H   0  0  0  0  0  0  0  0  0  0  0  0
   61.3132   34.8396   45.8131 H   0  0  0  0  0  0  0  0  0  0  0  0
   60.1725   36.0553   46.5530 H   0  0  0  0  0  0  0  0  0  0  0  0
  1  2  1  0
  2  3  1  0
  3  4  1  0
  4  5  1  0
  5  6  1  0
  6  7  1  0
  7  8  2  0
  7  9  2  0
  7 10  1  0
 10 11  2  0
 11 12  1  0
 12 13  2  0
 13 14  1  0
 14 15  1  0
 15 16  2  0
 15 17  1  0
 17 18  1  0
 18 19  1  0
 19 20  3  0
 18 21  1  0
 21 22  1  0
 22 23  1  0
 23 24  1  0
 24 25  1  0
 13 26  1  0
 26 27  2  0
  6 28  1  0
 28 29  1  0
 29  3  1  0
 27 10  1  0
 25 18  1  0
  1 30  1  0
  1 31  1  0
  1 32  1  0
  2 33  1  0
  2 34  1  0
  4 35  1  0
  4 36  1  0
  5 37  1  0
  5 38  1  0
 11 39  1  0
 12 40  1  0
 21 41  1  0
 21 42  1  0
 22 43  1  0
 22 44  1  0
 23 45  1  0
 23 46  1  0
 24 47  1  0
 24 48  1  0
 25 49  1  0
 25 50  1  0
 26 51  1  0
 27 52  1  0
 28 53  1  0
 28 54  1  0
 29 55  1  0
 29 56  1  0
M  CHG  2  14  -1  17  -1
M  END
>  <UniqueID>  (42) 
39

>  <SMILES>  (42) 
CCN1CCN(S(=O)(=O)c2ccc([N-]C(=O)[N-]C3(C#N)CCCCC3)cc2)CC1

>  <Energy>  (42) 
71.69337624017344

>  <Genealogy>  (42) 
CCN1CCN(S(=O)(=O)c2ccc([N-]C(=O)[N-]C3(C#N)CCCCC3)cc2)CC1 (protonated)
CCN1CCN(S(=O)(=O)c2ccc([N-]C(=O)[N-]C3(C#N)CCCCC3)cc2)CC1 (3D coordinates assigned)
CCN1CCN(S(=O)(=O)c2ccc([N-]C(=O)[N-]C3(C#N)CCCCC3)cc2)CC1 (nonaromatic ring conformer: 71.69337624017344 kcal/mol)

>  <smiles>  (42) 
CCN1CCN(S(=O)(=O)c2ccc(NC(=O)NC3(C#N)CCCCC3)cc2)CC1

>  <score_type>  (42) 
oracle

>  <origin>  (42) 
adg

>  <m_score__min__energy>  (42) 
-12.720000000000001

>  <m_primary>  (42) 
energy

$$$$
42:0
     RDKit          3D

 61 65  0  0  0  0  0  0  0  0999 V2000
   57.8750   25.5630   47.7370 O   0  0  0  0  0  0  0  0  0  0  0  0
   58.4070   26.1700   46.7700 C   0  0  0  0  0  0  0  0  0  0  0  0
   57.8530   25.9740   45.3830 C   0  0  0  0  0  0  0  0  0  0  0  0
   56.6780   25.0140   45.4020 C   0  0  0  0  0  0  0  0  0  0  0  0
   55.3870   25.5090   45.6830 C   0  0  0  0  0  0  0  0  0  0  0  0
   55.1840   26.8560   45.9630 O   0  0  0  0  0  0  0  0  0  0  0  0
   54.3170   24.6750   45.6860 N   0  0  0  0  0  0  0  0  0  0  0  0
   54.4270   23.3480   45.4380 C   0  0  0  0  0  0  0  0  0  0  0  0
   53.3850   22.6370   45.4480 O   0  0  0  0  0  0  0  0  0  0  0  0
   55.6880   22.7810   45.1810 C   0  0  0  0  0  0  0  0  0  0  0  0
   55.8280   21.4000   44.9390 C   0  0  0  0  0  0  0  0  0  0  0  0
   57.0880   20.8490   44.7050 C   0  0  0  0  0  0  0  0  0  0  0  0
   58.2190   21.6620   44.7070 C   0  0  0  0  0  0  0  0  0  0  0  0
   58.1000   23.0340   44.9340 C   0  0  0  0  0  0  0  0  0  0  0  0
   56.8350   23.6200   45.1710 C   0  0  0  0  0  0  0  0  0  0  0  0
   59.5560   26.9890   47.0180 N   0  0  0  0  0  0  0  0  0  0  0  0
   59.5550   28.3060   47.5930 C   0  0  0  0  0  0  0  0  0  0  0  0
   59.5670   28.4750   48.9900 C   0  0  0  0  0  0  0  0  0  0  0  0
   59.6400   29.7510   49.5500 C   0  0  0  0  0  0  0  0  0  0  0  0
   59.7070   30.8780   48.7220 C   0  0  0  0  0  0  0  0  0  0  0  0
   59.8080   32.1880   49.2770 N   0  0  0  0  0  0  0  0  0  0  0  0
   60.5190   32.4710   50.8290 S   0  0  0  0  0  0  0  0  0  0  0  0
   60.4240   33.9400   51.1330 O   0  0  0  0  0  0  0  0  0  0  0  0
   59.7660   31.7310   51.8970 O   0  0  0  0  0  0  0  0  0  0  0  0
   62.2260   31.9890   50.7710 C   0  0  0  0  0  0  0  0  0  0  0  0
   62.5510   30.6580   51.0840 C   0  0  0  0  0  0  0  0  0  0  0  0
   63.8830   30.2500   51.1710 C   0  0  0  0  0  0  0  0  0  0  0  0
   64.9100   31.1680   50.9620 C   0  0  0  0  0  0  0  0  0  0  0  0
   64.6100   32.4970   50.6560 C   0  0  0  0  0  0  0  0  0  0  0  0
   65.6260   33.3720   50.4490 F   0  0  0  0  0  0  0  0  0  0  0  0
   63.2720   32.9210   50.5480 C   0  0  0  0  0  0  0  0  0  0  0  0
   63.0020   34.2870   50.2080 N   0  0  0  0  0  0  0  0  0  0  0  0
   63.4160   35.2010   50.9500 O   0  0  0  0  0  0  0  0  0  0  0  0
   62.6220   34.6000   48.9250 O   0  0  0  0  0  0  0  0  0  0  0  0
   59.6940   30.7210   47.3350 C   0  0  0  0  0  0  0  0  0  0  0  0
   59.6580   29.4390   46.7580 C   0  0  0  0  0  0  0  0  0  0  0  0
   59.7130   29.3050   45.2830 C   0  0  0  0  0  0  0  0  0  0  0  0
   60.7150   28.7500   44.7550 O   0  0  0  0  0  0  0  0  0  0  0  0
   58.6150   29.7990   44.4130 C   0  0  0  0  0  0  0  0  0  0  0  0
   58.4860   31.1710   44.1180 C   0  0  0  0  0  0  0  0  0  0  0  0
   57.4530   31.6240   43.2910 C   0  0  0  0  0  0  0  0  0  0  0  0
   56.5440   30.7150   42.7440 C   0  0  0  0  0  0  0  0  0  0  0  0
   56.6690   29.3520   43.0210 C   0  0  0  0  0  0  0  0  0  0  0  0
   57.7000   28.8930   43.8470 C   0  0  0  0  0  0  0  0  0  0  0  0
   57.5191   26.9447   44.9877 H   0  0  0  0  0  0  0  0  0  0  0  0
   58.6429   25.5514   44.7446 H   0  0  0  0  0  0  0  0  0  0  0  0
   54.9387   20.7527   44.9346 H   0  0  0  0  0  0  0  0  0  0  0  0
   57.1887   19.7696   44.5184 H   0  0  0  0  0  0  0  0  0  0  0  0
   59.2107   21.2206   44.5288 H   0  0  0  0  0  0  0  0  0  0  0  0
   59.0000   23.6664   44.9285 H   0  0  0  0  0  0  0  0  0  0  0  0
   59.5184   27.5935   49.6463 H   0  0  0  0  0  0  0  0  0  0  0  0
   59.6449   29.8716   50.6434 H   0  0  0  0  0  0  0  0  0  0  0  0
   61.7464   29.9294   51.2625 H   0  0  0  0  0  0  0  0  0  0  0  0
   64.1222   29.2021   51.4049 H   0  0  0  0  0  0  0  0  0  0  0  0
   65.9589   30.8453   51.0382 H   0  0  0  0  0  0  0  0  0  0  0  0
   59.7121   31.6094   46.6865 H   0  0  0  0  0  0  0  0  0  0  0  0
   59.2025   31.8905   44.5410 H   0  0  0  0  0  0  0  0  0  0  0  0
   57.3562   32.6974   43.0710 H   0  0  0  0  0  0  0  0  0  0  0  0
   55.7305   31.0726   42.0957 H   0  0  0  0  0  0  0  0  0  0  0  0
   55.9541   28.6369   42.5880 H   0  0  0  0  0  0  0  0  0  0  0  0
   57.7959   27.8172   44.0553 H   0  0  0  0  0  0  0  0  0  0  0  0
  1  2  2  0
  2  3  1  0
  3  4  1  0
  4  5  2  0
  5  6  1  0
  5  7  1  0
  7  8  1  0
  8  9  2  0
  8 10  1  0
 10 11  2  0
 11 12  1  0
 12 13  2  0
 13 14  1  0
 14 15  2  0
  2 16  1  0
 16 17  1  0
 17 18  2  0
 18 19  1  0
 19 20  2  0
 20 21  1  0
 21 22  1  0
 22 23  2  0
 22 24  2  0
 22 25  1  0
 25 26  2  0
 26 27  1  0
 27 28  2  0
 28 29  1  0
 29 30  1  0
 29 31  2  0
 31 32  1  0
 32 33  2  0
 32 34  1  0
 20 35  1  0
 35 36  2  0
 36 37  1  0
 37 38  2  0
 37 39  1  0
 39 40  2  0
 40 41  1  0
 41 42  2  0
 42 43  1  0
 43 44  2  0
 15  4  1  0
 36 17  1  0
 44 39  1  0
 15 10  1  0
 31 25  1  0
  3 45  1  0
  3 46  1  0
 11 47  1  0
 12 48  1  0
 13 49  1  0
 14 50  1  0
 18 51  1  0
 19 52  1  0
 26 53  1  0
 27 54  1  0
 28 55  1  0
 35 56  1  0
 40 57  1  0
 41 58  1  0
 42 59  1  0
 43 60  1  0
 44 61  1  0
M  CHG  6   6  -1   7  -1  16  -1  21  -1  32   1  34  -1
M  END
>  <UniqueID>  (43) 
40

>  <SMILES>  (43) 
O=C(Cc1c([O-])[n-]c(=O)c2ccccc12)[N-]c1ccc([N-]S(=O)(=O)c2cccc(F)c2[N+](=O)[O-])cc1C(=O)c1ccccc1

>  <Energy>  (43) 
102.11082346462568

>  <Genealogy>  (43) 
O=C(Cc1c([O-])[n-]c(=O)c2ccccc12)[N-]c1ccc([N-]S(=O)(=O)c2cccc(F)c2[N+](=O)[O-])cc1C(=O)c1ccccc1 (protonated)
O=C(Cc1c([O-])[n-]c(=O)c2ccccc12)[N-]c1ccc([N-]S(=O)(=O)c2cccc(F)c2[N+](=O)[O-])cc1C(=O)c1ccccc1 (3D coordinates assigned)
O=C(Cc1c([O-])[n-]c(=O)c2ccccc12)[N-]c1ccc([N-]S(=O)(=O)c2cccc(F)c2[N+](=O)[O-])cc1C(=O)c1ccccc1 (optimized conformer: 102.11082346462568 kcal/mol)

>  <smiles>  (43) 
O=C(Cc1c(O)[nH]c(=O)c2ccccc12)Nc1ccc(NS(=O)(=O)c2cccc(F)c2[N+](=O)[O-])cc1C(=O)c1ccccc1

>  <score_type>  (43) 
oracle

>  <origin>  (43) 
adg

>  <m_score__min__energy>  (43) 
-18.649999999999999

>  <m_primary>  (43) 
energy

$$$$
43:0
     RDKit          3D

 56 59  0  0  0  0  0  0  0  0999 V2000
   55.5874   29.1513   42.9917 H   0  0  0  0  0  0  0  0  0  0  0  0
   56.6090   29.3650   43.3390 C   0  0  0  0  0  0  0  0  0  0  0  0
   56.9710   30.7820   43.5590 C   0  0  0  0  0  0  0  0  0  0  0  0
   57.4090   31.4530   42.5850 O   0  0  0  0  0  0  0  0  0  0  0  0
   56.9250   31.3550   44.8690 N   0  0  0  0  0  0  0  0  0  0  0  0
   57.8100   32.3380   45.4250 C   0  0  0  0  0  0  0  0  0  0  0  0
   57.4390   33.6860   45.5680 C   0  0  0  0  0  0  0  0  0  0  0  0
   56.4579   34.0268   45.2056 H   0  0  0  0  0  0  0  0  0  0  0  0
   58.3130   34.5930   46.1690 C   0  0  0  0  0  0  0  0  0  0  0  0
   58.0244   35.6502   46.2642 H   0  0  0  0  0  0  0  0  0  0  0  0
   59.5520   34.1650   46.6500 C   0  0  0  0  0  0  0  0  0  0  0  0
   60.2354   34.8879   47.1194 H   0  0  0  0  0  0  0  0  0  0  0  0
   59.9320   32.8140   46.5380 C   0  0  0  0  0  0  0  0  0  0  0  0
   61.2180   32.3320   47.1000 C   0  0  0  0  0  0  0  0  0  0  0  0
   61.6560   31.1950   46.7700 O   0  0  0  0  0  0  0  0  0  0  0  0
   61.9800   33.1400   48.0100 N   0  0  0  0  0  0  0  0  0  0  0  0
   61.9870   34.1760   47.8690 H   0  0  0  0  0  0  0  0  0  0  0  0
   62.9370   32.5780   48.9200 C   0  0  0  0  0  0  0  0  0  0  0  0
   64.2690   33.0200   48.8650 C   0  0  0  0  0  0  0  0  0  0  0  0
   64.5532   33.8097   48.1539 H   0  0  0  0  0  0  0  0  0  0  0  0
   65.2360   32.4640   49.7070 C   0  0  0  0  0  0  0  0  0  0  0  0
   66.2788   32.8093   49.6500 H   0  0  0  0  0  0  0  0  0  0  0  0
   64.8790   31.4710   50.6200 C   0  0  0  0  0  0  0  0  0  0  0  0
   65.6439   31.0249   51.2727 H   0  0  0  0  0  0  0  0  0  0  0  0
   63.5520   31.0420   50.7070 C   0  0  0  0  0  0  0  0  0  0  0  0
   63.2759   30.2655   51.4356 H   0  0  0  0  0  0  0  0  0  0  0  0
   62.5680   31.5950   49.8710 C   0  0  0  0  0  0  0  0  0  0  0  0
   61.1960   31.2080   50.0580 N   0  0  0  0  0  0  0  0  0  0  0  0
   60.2160   32.1710   50.5830 C   0  0  0  0  0  0  0  0  0  0  0  0
   59.9369   31.8778   51.6058 H   0  0  0  0  0  0  0  0  0  0  0  0
   60.6729   33.1716   50.5783 H   0  0  0  0  0  0  0  0  0  0  0  0
   58.9450   32.2080   49.7040 C   0  0  0  0  0  0  0  0  0  0  0  0
   58.0680   32.1975   50.3679 H   0  0  0  0  0  0  0  0  0  0  0  0
   59.0131   33.1213   49.0947 H   0  0  0  0  0  0  0  0  0  0  0  0
   58.8250   31.1230   48.7930 O   0  0  0  0  0  0  0  0  0  0  0  0
   59.2140   29.9100   49.4060 C   0  0  0  0  0  0  0  0  0  0  0  0
   58.7313   29.8237   50.3907 H   0  0  0  0  0  0  0  0  0  0  0  0
   58.9072   29.0619   48.7762 H   0  0  0  0  0  0  0  0  0  0  0  0
   60.7320   29.9000   49.5780 C   0  0  0  0  0  0  0  0  0  0  0  0
   61.0100   29.1254   50.3079 H   0  0  0  0  0  0  0  0  0  0  0  0
   61.2021   29.6864   48.6068 H   0  0  0  0  0  0  0  0  0  0  0  0
   59.0450   31.9090   45.9260 C   0  0  0  0  0  0  0  0  0  0  0  0
   59.3261   30.8490   45.8400 H   0  0  0  0  0  0  0  0  0  0  0  0
   57.4300   28.3170   43.5300 C   0  0  0  0  0  0  0  0  0  0  0  0
   57.3700   27.4867   42.8110 H   0  0  0  0  0  0  0  0  0  0  0  0
   58.4080   28.1960   44.6340 C   0  0  0  0  0  0  0  0  0  0  0  0
   59.6670   28.8030   44.4920 C   0  0  0  0  0  0  0  0  0  0  0  0
   59.9060   29.3554   43.5713 H   0  0  0  0  0  0  0  0  0  0  0  0
   60.6190   28.7100   45.5130 C   0  0  0  0  0  0  0  0  0  0  0  0
   61.5965   29.2010   45.3972 H   0  0  0  0  0  0  0  0  0  0  0  0
   60.3320   27.9940   46.6820 C   0  0  0  0  0  0  0  0  0  0  0  0
   61.0802   27.9286   47.4856 H   0  0  0  0  0  0  0  0  0  0  0  0
   59.0920   27.3620   46.8260 C   0  0  0  0  0  0  0  0  0  0  0  0
   58.8680   26.7978   47.7434 H   0  0  0  0  0  0  0  0  0  0  0  0
   58.1320   27.4450   45.8040 C   0  0  0  0  0  0  0  0  0  0  0  0
   56.6160   26.5750   46.0160 Cl  0  0  0  0  0  0  0  0  0  0  0  0
  1  2  1  0
  2  3  1  0
  3  4  2  0
  3  5  1  0
  5  6  1  0
  6  7  2  0
  7  8  1  0
  7  9  1  0
  9 10  1  0
  9 11  2  0
 11 12  1  0
 11 13  1  0
 13 14  1  0
 14 15  2  0
 14 16  1  0
 16 17  1  0
 16 18  1  0
 18 19  2  0
 19 20  1  0
 19 21  1  0
 21 22  1  0
 21 23  2  0
 23 24  1  0
 23 25  1  0
 25 26  1  0
 25 27  2  0
 27 28  1  0
 28 29  1  0
 29 30  1  0
 29 31  1  0
 29 32  1  0
 32 33  1  0
 32 34  1  0
 32 35  1  0
 35 36  1  0
 36 37  1  0
 36 38  1  0
 36 39  1  0
 39 40  1  0
 39 41  1  0
 13 42  2  0
 42 43  1  0
  2 44  2  0
 44 45  1  0
 44 46  1  0
 46 47  2  0
 47 48  1  0
 47 49  1  0
 49 50  1  0
 49 51  2  0
 51 52  1  0
 51 53  1  0
 53 54  1  0
 53 55  2  0
 55 56  1  0
 42  6  1  0
 55 46  1  0
 27 18  1  0
 39 28  1  0
M  CHG  1   5  -1
M  END
>  <UniqueID>  (44) 
41

>  <SMILES>  (44) 
O=C(/C=C\c1ccccc1Cl)[N-]c1cccc(C(=O)Nc2ccccc2N2CCOCC2)c1

>  <Energy>  (44) 
88.15556340563177

>  <Genealogy>  (44) 
O=C(C=Cc1ccccc1Cl)[N-]c1cccc(C(=O)Nc2ccccc2N2CCOCC2)c1 (protonated)
O=C(/C=C\c1ccccc1Cl)[N-]c1cccc(C(=O)Nc2ccccc2N2CCOCC2)c1 (cis-trans isomerization)
O=C(/C=C\c1ccccc1Cl)[N-]c1cccc(C(=O)Nc2ccccc2N2CCOCC2)c1 (3D coordinates assigned)
O=C(/C=C\c1ccccc1Cl)[N-]c1cccc(C(=O)Nc2ccccc2N2CCOCC2)c1 (nonaromatic ring conformer: 88.15556340563177 kcal/mol)

>  <smiles>  (44) 
O=C(C=Cc1ccccc1Cl)Nc1cccc(C(=O)Nc2ccccc2N2CCOCC2)c1

>  <score_type>  (44) 
oracle

>  <origin>  (44) 
adg

>  <m_score__min__energy>  (44) 
-11.74

>  <m_primary>  (44) 
energy

$$$$
44:0
     RDKit          3D

 57 60  0  0  0  0  0  0  0  0999 V2000
   59.4950   34.5850   54.9350 C   0  0  0  0  0  0  0  0  0  0  0  0
   58.8800   33.3720   54.3660 N   0  0  0  0  0  0  0  0  0  0  0  0
   59.7860   32.7430   53.3680 C   0  0  0  0  0  0  0  0  0  0  0  0
   59.7030   31.2010   53.3480 C   0  0  0  0  0  0  0  0  0  0  0  0
   58.3460   30.6960   53.6180 N   0  0  0  0  0  0  0  0  0  0  0  0
   57.2800   30.8860   52.2420 S   0  0  0  0  0  0  0  0  0  0  0  0
   56.4620   32.1400   52.3740 O   0  0  0  0  0  0  0  0  0  0  0  0
   56.3400   29.7140   52.1770 O   0  0  0  0  0  0  0  0  0  0  0  0
   58.2090   30.9380   50.7450 C   0  0  0  0  0  0  0  0  0  0  0  0
   58.7880   29.7650   50.2430 C   0  0  0  0  0  0  0  0  0  0  0  0
   59.5630   29.8050   49.0810 C   0  0  0  0  0  0  0  0  0  0  0  0
   59.7750   31.0220   48.4210 C   0  0  0  0  0  0  0  0  0  0  0  0
   60.8020   31.0890   46.9540 S   0  0  0  0  0  0  0  0  0  0  0  0
   60.0430   32.6110   46.3680 C   0  0  0  0  0  0  0  0  0  0  0  0
   58.8500   32.5170   45.6380 C   0  0  0  0  0  0  0  0  0  0  0  0
   58.2370   33.6650   45.1310 C   0  0  0  0  0  0  0  0  0  0  0  0
   57.0860   33.5620   44.4230 F   0  0  0  0  0  0  0  0  0  0  0  0
   58.8120   34.9170   45.3510 C   0  0  0  0  0  0  0  0  0  0  0  0
   59.9970   35.0240   46.0820 C   0  0  0  0  0  0  0  0  0  0  0  0
   60.6260   33.8780   46.5980 C   0  0  0  0  0  0  0  0  0  0  0  0
   61.8390   34.0220   47.3600 N   0  0  0  0  0  0  0  0  0  0  0  0
   61.7840   34.1870   48.8170 C   0  0  0  0  0  0  0  0  0  0  0  0
   62.5110   33.0160   49.5180 C   0  0  0  0  0  0  0  0  0  0  0  0
   63.3400   32.2530   48.6510 O   0  0  0  0  0  0  0  0  0  0  0  0
   64.0750   33.1000   47.7910 C   0  0  0  0  0  0  0  0  0  0  0  0
   63.1340   33.7080   46.7450 C   0  0  0  0  0  0  0  0  0  0  0  0
   59.1840   32.1910   48.9110 C   0  0  0  0  0  0  0  0  0  0  0  0
   58.4090   32.1530   50.0730 C   0  0  0  0  0  0  0  0  0  0  0  0
   57.7480   31.2270   54.8670 C   0  0  0  0  0  0  0  0  0  0  0  0
   58.5040   32.4390   55.4440 C   0  0  0  0  0  0  0  0  0  0  0  0
   59.4669   34.5297   56.0333 H   0  0  0  0  0  0  0  0  0  0  0  0
   60.5395   34.6591   54.5982 H   0  0  0  0  0  0  0  0  0  0  0  0
   58.9374   35.4713   54.5982 H   0  0  0  0  0  0  0  0  0  0  0  0
   58.0030   33.6790   53.8820 H   0  0  0  0  0  0  0  0  0  0  0  0
   59.5191   33.1192   52.3694 H   0  0  0  0  0  0  0  0  0  0  0  0
   60.8150   33.0085   53.6519 H   0  0  0  0  0  0  0  0  0  0  0  0
   60.0188   30.8454   52.3561 H   0  0  0  0  0  0  0  0  0  0  0  0
   60.3598   30.8249   54.1462 H   0  0  0  0  0  0  0  0  0  0  0  0
   58.6320   28.8096   50.7653 H   0  0  0  0  0  0  0  0  0  0  0  0
   60.0069   28.8800   48.6843 H   0  0  0  0  0  0  0  0  0  0  0  0
   58.3932   31.5317   45.4632 H   0  0  0  0  0  0  0  0  0  0  0  0
   58.3314   35.8208   44.9482 H   0  0  0  0  0  0  0  0  0  0  0  0
   60.4424   36.0147   46.2556 H   0  0  0  0  0  0  0  0  0  0  0  0
   62.2708   35.1339   49.0935 H   0  0  0  0  0  0  0  0  0  0  0  0
   60.7314   34.1969   49.1363 H   0  0  0  0  0  0  0  0  0  0  0  0
   63.1376   33.4288   50.3223 H   0  0  0  0  0  0  0  0  0  0  0  0
   61.7328   32.3368   49.8964 H   0  0  0  0  0  0  0  0  0  0  0  0
   64.5392   33.9056   48.3788 H   0  0  0  0  0  0  0  0  0  0  0  0
   64.8584   32.5172   47.2844 H   0  0  0  0  0  0  0  0  0  0  0  0
   63.5807   34.6301   46.3447 H   0  0  0  0  0  0  0  0  0  0  0  0
   62.9820   32.9843   45.9307 H   0  0  0  0  0  0  0  0  0  0  0  0
   59.3297   33.1433   48.3800 H   0  0  0  0  0  0  0  0  0  0  0  0
   57.9552   33.0768   50.4612 H   0  0  0  0  0  0  0  0  0  0  0  0
   56.7124   31.5314   54.6551 H   0  0  0  0  0  0  0  0  0  0  0  0
   57.8020   30.4249   55.6178 H   0  0  0  0  0  0  0  0  0  0  0  0
   57.8568   32.9601   56.1648 H   0  0  0  0  0  0  0  0  0  0  0  0
   59.4177   32.0844   55.9434 H   0  0  0  0  0  0  0  0  0  0  0  0
  1  2  1  0
  2  3  1  0
  3  4  1  0
  4  5  1  0
  5  6  1  0
  6  7  2  0
  6  8  2  0
  6  9  1  0
  9 10  2  0
 10 11  1  0
 11 12  2  0
 12 13  1  0
 13 14  1  0
 14 15  2  0
 15 16  1  0
 16 17  1  0
 16 18  2  0
 18 19  1  0
 19 20  2  0
 20 21  1  0
 21 22  1  0
 22 23  1  0
 23 24  1  0
 24 25  1  0
 25 26  1  0
 12 27  1  0
 27 28  2  0
  5 29  1  0
 29 30  1  0
 30  2  1  0
 28  9  1  0
 20 14  1  0
 26 21  1  0
  1 31  1  0
  1 32  1  0
  1 33  1  0
  2 34  1  0
  3 35  1  0
  3 36  1  0
  4 37  1  0
  4 38  1  0
 10 39  1  0
 11 40  1  0
 15 41  1  0
 18 42  1  0
 19 43  1  0
 22 44  1  0
 22 45  1  0
 23 46  1  0
 23 47  1  0
 25 48  1  0
 25 49  1  0
 26 50  1  0
 26 51  1  0
 27 52  1  0
 28 53  1  0
 29 54  1  0
 29 55  1  0
 30 56  1  0
 30 57  1  0
M  CHG  1   2   1
M  END
>  <UniqueID>  (45) 
42

>  <SMILES>  (45) 
C[NH+]1CCN(S(=O)(=O)c2ccc(Sc3cc(F)ccc3N3CCOCC3)cc2)CC1

>  <Energy>  (45) 
77.66214312430392

>  <Genealogy>  (45) 
C[NH+]1CCN(S(=O)(=O)c2ccc(Sc3cc(F)ccc3N3CCOCC3)cc2)CC1 (protonated)
C[NH+]1CCN(S(=O)(=O)c2ccc(Sc3cc(F)ccc3N3CCOCC3)cc2)CC1 (3D coordinates assigned)
C[NH+]1CCN(S(=O)(=O)c2ccc(Sc3cc(F)ccc3N3CCOCC3)cc2)CC1 (nonaromatic ring conformer: 77.66214312430392 kcal/mol)

>  <smiles>  (45) 
CN1CCN(S(=O)(=O)c2ccc(Sc3cc(F)ccc3N3CCOCC3)cc2)CC1

>  <score_type>  (45) 
oracle

>  <origin>  (45) 
adg

>  <m_score__min__energy>  (45) 
-7.9699999999999998

>  <m_primary>  (45) 
energy

$$$$
45:0
     RDKit          3D

 53 56  0  0  0  0  0  0  0  0999 V2000
   56.7070   30.8930   44.8940 O   0  0  0  0  0  0  0  0  0  0  0  0
   57.8650   31.1300   45.3350 C   0  0  0  0  0  0  0  0  0  0  0  0
   58.7870   30.0530   45.5650 N   0  0  0  0  0  0  0  0  0  0  0  0
   58.3940   28.6980   45.8500 C   0  0  0  0  0  0  0  0  0  0  0  0
   59.3440   27.6910   46.0950 C   0  0  0  0  0  0  0  0  0  0  0  0
   58.9160   26.3810   46.3250 C   0  0  0  0  0  0  0  0  0  0  0  0
   57.5910   26.0800   46.2870 N   0  0  0  0  0  0  0  0  0  0  0  0
   56.6490   27.0270   46.0310 C   0  0  0  0  0  0  0  0  0  0  0  0
   55.4330   26.7050   45.9800 O   0  0  0  0  0  0  0  0  0  0  0  0
   57.0360   28.3540   45.8050 C   0  0  0  0  0  0  0  0  0  0  0  0
   58.3040   32.5310   45.5180 C   0  0  0  0  0  0  0  0  0  0  0  0
   58.7180   33.2450   44.3790 C   0  0  0  0  0  0  0  0  0  0  0  0
   59.2480   34.5300   44.5000 C   0  0  0  0  0  0  0  0  0  0  0  0
   59.3760   35.1180   45.7580 C   0  0  0  0  0  0  0  0  0  0  0  0
   58.9460   34.4350   46.8970 C   0  0  0  0  0  0  0  0  0  0  0  0
   58.3650   33.1540   46.7960 C   0  0  0  0  0  0  0  0  0  0  0  0
   57.8450   32.4810   48.0570 C   0  0  0  0  0  0  0  0  0  0  0  0
   58.8880   32.3180   49.1370 C   0  0  0  0  0  0  0  0  0  0  0  0
   59.2700   33.3090   49.8190 O   0  0  0  0  0  0  0  0  0  0  0  0
   59.4420   30.9800   49.4450 C   0  0  0  0  0  0  0  0  0  0  0  0
   58.9270   30.2450   50.5350 C   0  0  0  0  0  0  0  0  0  0  0  0
   57.8840   30.7460   51.3060 O   0  0  0  0  0  0  0  0  0  0  0  0
   59.4790   29.0060   50.8760 C   0  0  0  0  0  0  0  0  0  0  0  0
   60.5560   28.4960   50.1550 C   0  0  0  0  0  0  0  0  0  0  0  0
   61.0840   29.2140   49.0830 C   0  0  0  0  0  0  0  0  0  0  0  0
   60.5390   30.4560   48.7130 C   0  0  0  0  0  0  0  0  0  0  0  0
   61.1060   31.1560   47.5350 C   0  0  0  0  0  0  0  0  0  0  0  0
   61.1990   30.5460   46.4380 O   0  0  0  0  0  0  0  0  0  0  0  0
   61.6510   32.4790   47.6340 N   0  0  0  0  0  0  0  0  0  0  0  0
   62.5830   32.9370   48.6230 C   0  0  0  0  0  0  0  0  0  0  0  0
   63.8720   32.3850   48.7390 C   0  0  0  0  0  0  0  0  0  0  0  0
   64.7390   32.8310   49.7420 C   0  0  0  0  0  0  0  0  0  0  0  0
   64.3270   33.8210   50.6380 C   0  0  0  0  0  0  0  0  0  0  0  0
   63.0410   34.3590   50.5400 C   0  0  0  0  0  0  0  0  0  0  0  0
   62.1690   33.9140   49.5380 C   0  0  0  0  0  0  0  0  0  0  0  0
   59.8080   30.2690   45.5030 H   0  0  0  0  0  0  0  0  0  0  0  0
   60.4170   27.9328   46.1055 H   0  0  0  0  0  0  0  0  0  0  0  0
   59.6525   25.5920   46.5372 H   0  0  0  0  0  0  0  0  0  0  0  0
   56.2779   29.1224   45.5932 H   0  0  0  0  0  0  0  0  0  0  0  0
   58.6230   32.7861   43.3838 H   0  0  0  0  0  0  0  0  0  0  0  0
   59.5653   35.0800   43.6018 H   0  0  0  0  0  0  0  0  0  0  0  0
   59.8164   36.1215   45.8529 H   0  0  0  0  0  0  0  0  0  0  0  0
   59.0619   34.9021   47.8861 H   0  0  0  0  0  0  0  0  0  0  0  0
   57.0213   33.0887   48.4596 H   0  0  0  0  0  0  0  0  0  0  0  0
   57.5216   31.4697   47.7696 H   0  0  0  0  0  0  0  0  0  0  0  0
   59.0611   28.4324   51.7165 H   0  0  0  0  0  0  0  0  0  0  0  0
   60.9910   27.5244   50.4321 H   0  0  0  0  0  0  0  0  0  0  0  0
   61.9361   28.8044   48.5207 H   0  0  0  0  0  0  0  0  0  0  0  0
   64.1985   31.6013   48.0396 H   0  0  0  0  0  0  0  0  0  0  0  0
   65.7481   32.4012   49.8257 H   0  0  0  0  0  0  0  0  0  0  0  0
   65.0144   34.1765   51.4198 H   0  0  0  0  0  0  0  0  0  0  0  0
   62.7132   35.1325   51.2502 H   0  0  0  0  0  0  0  0  0  0  0  0
   61.1545   34.3336   49.4692 H   0  0  0  0  0  0  0  0  0  0  0  0
  1  2  2  0
  2  3  1  0
  3  4  1  0
  4  5  1  0
  5  6  2  0
  6  7  1  0
  7  8  1  0
  8  9  2  0
  8 10  1  0
  2 11  1  0
 11 12  2  0
 12 13  1  0
 13 14  2  0
 14 15  1  0
 15 16  2  0
 16 17  1  0
 17 18  1  0
 18 19  2  0
 18 20  1  0
 20 21  2  0
 21 22  1  0
 21 23  1  0
 23 24  2  0
 24 25  1  0
 25 26  2  0
 26 27  1  0
 27 28  2  0
 27 29  1  0
 29 30  1  0
 30 31  2  0
 31 32  1  0
 32 33  2  0
 33 34  1  0
 34 35  2  0
 10  4  2  0
 16 11  1  0
 26 20  1  0
 35 30  1  0
  3 36  1  0
  5 37  1  0
  6 38  1  0
 10 39  1  0
 12 40  1  0
 13 41  1  0
 14 42  1  0
 15 43  1  0
 17 44  1  0
 17 45  1  0
 23 46  1  0
 24 47  1  0
 25 48  1  0
 31 49  1  0
 32 50  1  0
 33 51  1  0
 34 52  1  0
 35 53  1  0
M  CHG  3   7  -1  22  -1  29  -1
M  END
>  <UniqueID>  (46) 
43

>  <SMILES>  (46) 
O=C(Nc1cc[n-]c(=O)c1)c1ccccc1CC(=O)c1c([O-])cccc1C(=O)[N-]c1ccccc1

>  <Energy>  (46) 
86.39499970111973

>  <Genealogy>  (46) 
O=C(Nc1cc[n-]c(=O)c1)c1ccccc1CC(=O)c1c([O-])cccc1C(=O)[N-]c1ccccc1 (protonated)
O=C(Nc1cc[n-]c(=O)c1)c1ccccc1CC(=O)c1c([O-])cccc1C(=O)[N-]c1ccccc1 (3D coordinates assigned)
O=C(Nc1cc[n-]c(=O)c1)c1ccccc1CC(=O)c1c([O-])cccc1C(=O)[N-]c1ccccc1 (optimized conformer: 86.39499970111973 kcal/mol)

>  <smiles>  (46) 
O=C(Nc1cc[nH]c(=O)c1)c1ccccc1CC(=O)c1c(O)cccc1C(=O)Nc1ccccc1

>  <score_type>  (46) 
oracle

>  <origin>  (46) 
adg

>  <m_score__min__energy>  (46) 
-14.859999999999999

>  <m_primary>  (46) 
energy

$$$$
46:0
     RDKit          3D

 47 50  0  0  0  0  0  0  0  0999 V2000
   55.1520   26.3840   47.2640 H   0  0  0  0  0  0  0  0  0  0  0  0
   55.5250   26.1450   46.3550 O   0  0  0  0  0  0  0  0  0  0  0  0
   55.2640   24.9270   45.7250 C   0  0  0  0  0  0  0  0  0  0  0  0
   53.9750   24.5060   45.6380 N   0  0  0  0  0  0  0  0  0  0  0  0
   53.6480   23.3540   45.0020 C   0  0  0  0  0  0  0  0  0  0  0  0
   52.4460   22.9890   44.9380 O   0  0  0  0  0  0  0  0  0  0  0  0
   54.6160   22.5970   44.4270 N   0  0  0  0  0  0  0  0  0  0  0  0
   55.9220   22.9640   44.4870 C   0  0  0  0  0  0  0  0  0  0  0  0
   56.7940   22.2350   43.9440 O   0  0  0  0  0  0  0  0  0  0  0  0
   56.2910   24.1390   45.1630 C   0  0  0  0  0  0  0  0  0  0  0  0
   57.7160   24.5310   45.2370 C   0  0  0  0  0  0  0  0  0  0  0  0
   58.4656   23.8755   44.7697 H   0  0  0  0  0  0  0  0  0  0  0  0
   58.1370   25.6530   45.8500 C   0  0  0  0  0  0  0  0  0  0  0  0
   58.6890   25.7300   47.1230 C   0  0  0  0  0  0  0  0  0  0  0  0
   58.8546   24.8945   47.8190 H   0  0  0  0  0  0  0  0  0  0  0  0
   58.9890   27.0590   47.3440 C   0  0  0  0  0  0  0  0  0  0  0  0
   59.6190   27.5920   48.5940 C   0  0  0  0  0  0  0  0  0  0  0  0
   59.1125   27.1635   49.4714 H   0  0  0  0  0  0  0  0  0  0  0  0
   60.6837   27.3163   48.6143 H   0  0  0  0  0  0  0  0  0  0  0  0
   59.5235   28.6877   48.6143 H   0  0  0  0  0  0  0  0  0  0  0  0
   58.6640   27.8020   46.2610 N   0  0  0  0  0  0  0  0  0  0  0  0
   58.8350   29.2250   46.1390 C   0  0  0  0  0  0  0  0  0  0  0  0
   57.7940   30.0220   45.6490 C   0  0  0  0  0  0  0  0  0  0  0  0
   56.8381   29.5584   45.3637 H   0  0  0  0  0  0  0  0  0  0  0  0
   57.9620   31.4040   45.5200 C   0  0  0  0  0  0  0  0  0  0  0  0
   57.1338   32.0218   45.1427 H   0  0  0  0  0  0  0  0  0  0  0  0
   59.1820   32.0100   45.8690 C   0  0  0  0  0  0  0  0  0  0  0  0
   59.3470   33.4360   45.7470 N   0  0  0  0  0  0  0  0  0  0  0  0
   59.6310   34.3440   46.8000 C   0  0  0  0  0  0  0  0  0  0  0  0
   59.8930   33.9830   47.9780 O   0  0  0  0  0  0  0  0  0  0  0  0
   59.6740   35.7510   46.3550 C   0  0  0  0  0  0  0  0  0  0  0  0
   60.6862   36.1679   46.4628 H   0  0  0  0  0  0  0  0  0  0  0  0
   59.0185   36.4095   46.9439 H   0  0  0  0  0  0  0  0  0  0  0  0
   59.2690   35.6650   44.8770 C   0  0  0  0  0  0  0  0  0  0  0  0
   59.9924   36.2125   44.2550 H   0  0  0  0  0  0  0  0  0  0  0  0
   58.2772   36.1126   44.7160 H   0  0  0  0  0  0  0  0  0  0  0  0
   59.2660   34.1740   44.4950 C   0  0  0  0  0  0  0  0  0  0  0  0
   60.1322   33.9414   43.8581 H   0  0  0  0  0  0  0  0  0  0  0  0
   58.3618   33.9062   43.9286 H   0  0  0  0  0  0  0  0  0  0  0  0
   60.2210   31.2050   46.3710 C   0  0  0  0  0  0  0  0  0  0  0  0
   61.1753   31.6663   46.6650 H   0  0  0  0  0  0  0  0  0  0  0  0
   60.0500   29.8240   46.4990 C   0  0  0  0  0  0  0  0  0  0  0  0
   60.8729   29.2040   46.8842 H   0  0  0  0  0  0  0  0  0  0  0  0
   58.1400   26.9550   45.3400 C   0  0  0  0  0  0  0  0  0  0  0  0
   57.7240   27.3330   44.1210 C   0  0  0  0  0  0  0  0  0  0  0  0
   57.7734   28.3918   43.8268 H   0  0  0  0  0  0  0  0  0  0  0  0
   57.3337   26.5840   43.4163 H   0  0  0  0  0  0  0  0  0  0  0  0
  1  2  1  0
  2  3  1  0
  3  4  1  0
  4  5  1  0
  5  6  2  0
  5  7  1  0
  7  8  1  0
  8  9  2  0
  8 10  1  0
 10 11  1  0
 11 12  1  0
 11 13  2  0
 13 14  1  0
 14 15  1  0
 14 16  2  0
 16 17  1  0
 17 18  1  0
 17 19  1  0
 17 20  1  0
 16 21  1  0
 21 22  1  0
 22 23  2  0
 23 24  1  0
 23 25  1  0
 25 26  1  0
 25 27  2  0
 27 28  1  0
 28 29  1  0
 29 30  2  0
 29 31  1  0
 31 32  1  0
 31 33  1  0
 31 34  1  0
 34 35  1  0
 34 36  1  0
 34 37  1  0
 37 38  1  0
 37 39  1  0
 27 40  1  0
 40 41  1  0
 40 42  2  0
 42 43  1  0
 21 44  1  0
 44 45  2  0
 45 46  1  0
 45 47  1  0
 10  3  2  0
 44 13  1  0
 42 22  1  0
 37 28  1  0
M  CHG  2   4  -1   7  -1
M  END
>  <UniqueID>  (47) 
44

>  <SMILES>  (47) 
C=c1/c(=C/c2c(O)[n-]c(=O)[n-]c2=O)cc(C)n1-c1ccc(N2CCCC2=O)cc1

>  <Energy>  (47) 
106.40768812162294

>  <Genealogy>  (47) 
C=c1c(=Cc2c(O)[n-]c(=O)[n-]c2=O)cc(C)n1-c1ccc(N2CCCC2=O)cc1 (protonated)
C=c1/c(=C/c2c(O)[n-]c(=O)[n-]c2=O)cc(C)n1-c1ccc(N2CCCC2=O)cc1 (cis-trans isomerization)
C=c1/c(=C/c2c(O)[n-]c(=O)[n-]c2=O)cc(C)n1-c1ccc(N2CCCC2=O)cc1 (3D coordinates assigned)
C=c1/c(=C/c2c(O)[n-]c(=O)[n-]c2=O)cc(C)n1-c1ccc(N2CCCC2=O)cc1 (nonaromatic ring conformer: 106.40768812162294 kcal/mol)

>  <smiles>  (47) 
C=c1c(=Cc2c(O)[nH]c(=O)[nH]c2=O)cc(C)n1-c1ccc(N2CCCC2=O)cc1

>  <score_type>  (47) 
oracle

>  <origin>  (47) 
adg

>  <m_score__min__energy>  (47) 
-12.9

>  <m_primary>  (47) 
energy

$$$$
47:0
     RDKit          3D

 50 52  0  0  0  0  0  0  0  0999 V2000
   57.9070   33.0600   48.0230 H   0  0  0  0  0  0  0  0  0  0  0  0
   58.0840   32.3950   48.7670 O   0  0  0  0  0  0  0  0  0  0  0  0
   58.7560   31.2260   48.4980 N   0  0  0  0  0  0  0  0  0  0  0  0
   59.3530   30.9990   47.3670 C   0  0  0  0  0  0  0  0  0  0  0  0
   60.4500   30.9187   47.3613 H   0  0  0  0  0  0  0  0  0  0  0  0
   58.6280   30.8430   46.0840 C   0  0  0  0  0  0  0  0  0  0  0  0
   58.5440   29.5880   45.4530 C   0  0  0  0  0  0  0  0  0  0  0  0
   59.0010   28.7071   45.9275 H   0  0  0  0  0  0  0  0  0  0  0  0
   57.8850   29.4520   44.2290 C   0  0  0  0  0  0  0  0  0  0  0  0
   57.7840   27.8810   43.4550 Cl  0  0  0  0  0  0  0  0  0  0  0  0
   57.3160   30.5690   43.6160 C   0  0  0  0  0  0  0  0  0  0  0  0
   56.7905   30.4598   42.6558 H   0  0  0  0  0  0  0  0  0  0  0  0
   57.4120   31.8240   44.2180 C   0  0  0  0  0  0  0  0  0  0  0  0
   56.9675   32.7011   43.7249 H   0  0  0  0  0  0  0  0  0  0  0  0
   58.0740   31.9770   45.4530 C   0  0  0  0  0  0  0  0  0  0  0  0
   58.1940   33.2300   46.0860 O   0  0  0  0  0  0  0  0  0  0  0  0
   59.3640   34.0490   46.0950 C   0  0  0  0  0  0  0  0  0  0  0  0
   59.1014   35.0506   45.7238 H   0  0  0  0  0  0  0  0  0  0  0  0
   60.1195   33.5764   45.4501 H   0  0  0  0  0  0  0  0  0  0  0  0
   59.9410   34.1770   47.4800 C   0  0  0  0  0  0  0  0  0  0  0  0
   59.2500   34.7000   48.3960 O   0  0  0  0  0  0  0  0  0  0  0  0
   61.2390   33.6460   47.7970 N   0  0  0  0  0  0  0  0  0  0  0  0
   62.0250   32.9480   46.7900 C   0  0  0  0  0  0  0  0  0  0  0  0
   61.6078   31.9472   46.6048 H   0  0  0  0  0  0  0  0  0  0  0  0
   62.0199   33.4847   45.8299 H   0  0  0  0  0  0  0  0  0  0  0  0
   63.4320   32.8380   47.3620 C   0  0  0  0  0  0  0  0  0  0  0  0
   63.6189   31.8191   47.7321 H   0  0  0  0  0  0  0  0  0  0  0  0
   64.2006   33.0471   46.6034 H   0  0  0  0  0  0  0  0  0  0  0  0
   63.4790   33.8410   48.5110 C   0  0  0  0  0  0  0  0  0  0  0  0
   64.1149   33.4646   49.3259 H   0  0  0  0  0  0  0  0  0  0  0  0
   63.9037   34.8060   48.1973 H   0  0  0  0  0  0  0  0  0  0  0  0
   62.0290   33.9800   48.9820 C   0  0  2  0  0  0  0  0  0  0  0  0
   61.8035   34.9825   49.3747 H   0  0  0  0  0  0  0  0  0  0  0  0
   61.7340   32.9790   50.1300 C   0  0  0  0  0  0  0  0  0  0  0  0
   62.1517   31.9985   49.8576 H   0  0  0  0  0  0  0  0  0  0  0  0
   62.1954   33.3785   51.0451 H   0  0  0  0  0  0  0  0  0  0  0  0
   60.2860   32.8200   50.3930 N   0  0  0  0  0  0  0  0  0  0  0  0
   59.7550   32.8450   49.4940 H   0  0  0  0  0  0  0  0  0  0  0  0
   59.9920   31.5400   51.0490 C   0  0  0  0  0  0  0  0  0  0  0  0
   59.8812   30.7454   50.2964 H   0  0  0  0  0  0  0  0  0  0  0  0
   60.8071   31.2477   51.7274 H   0  0  0  0  0  0  0  0  0  0  0  0
   58.6870   31.7260   51.8110 C   0  0  0  0  0  0  0  0  0  0  0  0
   57.8456   31.3029   51.2427 H   0  0  0  0  0  0  0  0  0  0  0  0
   58.7043   31.2135   52.7841 H   0  0  0  0  0  0  0  0  0  0  0  0
   58.5220   33.2300   51.9660 C   0  0  0  0  0  0  0  0  0  0  0  0
   57.6054   33.5707   51.4623 H   0  0  0  0  0  0  0  0  0  0  0  0
   58.4344   33.5257   53.0219 H   0  0  0  0  0  0  0  0  0  0  0  0
   59.7500   33.8400   51.3070 C   0  0  0  0  0  0  0  0  0  0  0  0
   59.4702   34.7435   50.7455 H   0  0  0  0  0  0  0  0  0  0  0  0
   60.4988   34.1333   52.0575 H   0  0  0  0  0  0  0  0  0  0  0  0
  1  2  1  0
  2  3  1  0
  3  4  2  0
  4  5  1  0
  4  6  1  0
  6  7  2  0
  7  8  1  0
  7  9  1  0
  9 10  1  0
  9 11  2  0
 11 12  1  0
 11 13  1  0
 13 14  1  0
 13 15  2  0
 15 16  1  0
 16 17  1  0
 17 18  1  0
 17 19  1  0
 17 20  1  0
 20 21  2  0
 20 22  1  0
 22 23  1  0
 23 24  1  0
 23 25  1  0
 23 26  1  0
 26 27  1  0
 26 28  1  0
 26 29  1  0
 29 30  1  0
 29 31  1  0
 29 32  1  0
 32 33  1  1
 32 34  1  0
 34 35  1  0
 34 36  1  0
 34 37  1  0
 37 38  1  0
 37 39  1  0
 39 40  1  0
 39 41  1  0
 39 42  1  0
 42 43  1  0
 42 44  1  0
 42 45  1  0
 45 46  1  0
 45 47  1  0
 45 48  1  0
 48 49  1  0
 48 50  1  0
 15  6  1  0
 32 22  1  0
 48 37  1  0
M  CHG  1  37   1
M  END
>  <UniqueID>  (48) 
45

>  <SMILES>  (48) 
O=C(COc1ccc(Cl)cc1/C=N\O)N1CCC[C@@H]1C[NH+]1CCCC1

>  <Energy>  (48) 
59.21322114323332

>  <Genealogy>  (48) 
O=C(COc1ccc(Cl)cc1C=NO)N1CCCC1C[NH+]1CCCC1 (protonated)
O=C(COc1ccc(Cl)cc1C=NO)N1CCC[C@@H]1C[NH+]1CCCC1 (chirality)
O=C(COc1ccc(Cl)cc1/C=N\O)N1CCC[C@@H]1C[NH+]1CCCC1 (cis-trans isomerization)
O=C(COc1ccc(Cl)cc1/C=N\O)N1CCC[C@@H]1C[NH+]1CCCC1 (3D coordinates assigned)
O=C(COc1ccc(Cl)cc1/C=N\O)N1CCC[C@@H]1C[NH+]1CCCC1 (nonaromatic ring conformer: 59.21322114323332 kcal/mol)

>  <smiles>  (48) 
O=C(COc1ccc(Cl)cc1C=NO)N1CCCC1CN1CCCC1

>  <score_type>  (48) 
oracle

>  <origin>  (48) 
adg

>  <m_score__min__energy>  (48) 
-6.4699999999999998

>  <m_primary>  (48) 
energy

$$$$
48:0
     RDKit          3D

 55 58  0  0  0  0  0  0  0  0999 V2000
   59.9810   29.2180   44.6530 C   0  0  0  0  0  0  0  0  0  0  0  0
   59.5530   29.0110   45.9100 C   0  0  0  0  0  0  0  0  0  0  0  0
   58.7370   27.9530   46.3490 C   0  0  0  0  0  0  0  0  0  0  0  0
   58.0330   27.0310   45.6620 C   0  0  0  0  0  0  0  0  0  0  0  0
   57.3900   25.8380   46.2320 C   0  0  0  0  0  0  0  0  0  0  0  0
   58.0750   24.8330   46.8050 N   0  0  0  0  0  0  0  0  0  0  0  0
   57.1050   24.0150   47.2630 C   0  0  0  0  0  0  0  0  0  0  0  0
   57.3550   22.9340   47.8590 O   0  0  0  0  0  0  0  0  0  0  0  0
   55.8460   24.4470   47.0420 N   0  0  0  0  0  0  0  0  0  0  0  0
   56.0390   25.6110   46.4010 C   0  0  0  0  0  0  0  0  0  0  0  0
   54.9990   26.4510   46.0110 O   0  0  0  0  0  0  0  0  0  0  0  0
   58.7610   27.9940   47.7290 C   0  0  0  0  0  0  0  0  0  0  0  0
   59.5110   29.0930   48.0850 C   0  0  0  0  0  0  0  0  0  0  0  0
   59.8140   29.4550   49.4840 C   0  0  0  0  0  0  0  0  0  0  0  0
   60.0330   28.5460   50.3260 O   0  0  0  0  0  0  0  0  0  0  0  0
   59.8230   30.8390   49.8890 N   0  0  0  0  0  0  0  0  0  0  0  0
   58.5380   31.5510   49.9530 C   0  0  0  0  0  0  0  0  0  0  0  0
   58.6320   32.7680   50.8820 C   0  0  0  0  0  0  0  0  0  0  0  0
   59.4280   32.4170   52.0640 N   0  0  0  0  0  0  0  0  0  0  0  0
   60.8410   32.1390   51.7350 C   0  0  0  0  0  0  0  0  0  0  0  0
   61.0350   31.5730   50.3070 C   0  0  1  0  0  0  0  0  0  0  0  0
   62.3440   30.7750   50.1890 C   0  0  0  0  0  0  0  0  0  0  0  0
   59.9810   29.7300   46.9850 N   0  0  0  0  0  0  0  0  0  0  0  0
   60.9630   30.8280   46.9970 C   0  0  0  0  0  0  0  0  0  0  0  0
   60.2560   32.1520   46.8840 C   0  0  0  0  0  0  0  0  0  0  0  0
   59.0590   32.2000   46.2340 N   0  0  0  0  0  0  0  0  0  0  0  0
   58.3730   33.3610   46.0590 C   0  0  0  0  0  0  0  0  0  0  0  0
   57.0720   33.3510   45.3220 C   0  0  0  0  0  0  0  0  0  0  0  0
   58.9050   34.5610   46.5420 C   0  0  0  0  0  0  0  0  0  0  0  0
   60.1280   34.5450   47.2140 C   0  0  0  0  0  0  0  0  0  0  0  0
   60.8130   33.3400   47.3910 C   0  0  0  0  0  0  0  0  0  0  0  0
   62.0320   33.3390   48.0600 O   0  0  0  0  0  0  0  0  0  0  0  0
   60.6191   30.0845   44.4249 H   0  0  0  0  0  0  0  0  0  0  0  0
   59.6932   28.5210   43.8522 H   0  0  0  0  0  0  0  0  0  0  0  0
   57.9305   27.1852   44.5777 H   0  0  0  0  0  0  0  0  0  0  0  0
   54.0610   26.3360   46.3750 H   0  0  0  0  0  0  0  0  0  0  0  0
   58.2739   27.2841   48.4137 H   0  0  0  0  0  0  0  0  0  0  0  0
   58.2630   31.8893   48.9431 H   0  0  0  0  0  0  0  0  0  0  0  0
   57.7753   30.8645   50.3493 H   0  0  0  0  0  0  0  0  0  0  0  0
   59.1139   33.6007   50.3488 H   0  0  0  0  0  0  0  0  0  0  0  0
   57.6219   33.0708   51.1952 H   0  0  0  0  0  0  0  0  0  0  0  0
   59.3950   33.2250   52.7310 H   0  0  0  0  0  0  0  0  0  0  0  0
   61.4106   33.0762   51.8199 H   0  0  0  0  0  0  0  0  0  0  0  0
   61.1965   31.3739   52.4409 H   0  0  0  0  0  0  0  0  0  0  0  0
   61.1550   32.3999   49.5916 H   0  0  0  0  0  0  0  0  0  0  0  0
   62.7241   30.5433   51.1949 H   0  0  0  0  0  0  0  0  0  0  0  0
   62.1547   29.8385   49.6438 H   0  0  0  0  0  0  0  0  0  0  0  0
   63.0897   31.3723   49.6438 H   0  0  0  0  0  0  0  0  0  0  0  0
   61.5317   30.7978   47.9381 H   0  0  0  0  0  0  0  0  0  0  0  0
   61.6472   30.7100   46.1438 H   0  0  0  0  0  0  0  0  0  0  0  0
   56.2418   33.3446   46.0436 H   0  0  0  0  0  0  0  0  0  0  0  0
   57.0016   34.2486   44.6901 H   0  0  0  0  0  0  0  0  0  0  0  0
   57.0154   32.4524   44.6901 H   0  0  0  0  0  0  0  0  0  0  0  0
   58.3649   35.5077   46.3937 H   0  0  0  0  0  0  0  0  0  0  0  0
   60.5530   35.4814   47.6045 H   0  0  0  0  0  0  0  0  0  0  0  0
  1  2  2  0
  2  3  1  0
  3  4  2  3
  4  5  1  0
  5  6  1  0
  6  7  1  0
  7  8  2  0
  7  9  1  0
  9 10  1  0
 10 11  1  0
  3 12  1  0
 12 13  2  0
 13 14  1  0
 14 15  2  0
 14 16  1  0
 16 17  1  0
 17 18  1  0
 18 19  1  0
 19 20  1  0
 20 21  1  0
 21 22  1  0
 13 23  1  0
 23 24  1  0
 24 25  1  0
 25 26  2  0
 26 27  1  0
 27 28  1  0
 27 29  2  0
 29 30  1  0
 30 31  2  0
 31 32  1  0
 23  2  1  0
 31 25  1  0
 10  5  2  0
 21 16  1  0
  1 33  1  0
  1 34  1  0
  4 35  1  0
 11 36  1  0
 12 37  1  0
 17 38  1  0
 17 39  1  0
 18 40  1  0
 18 41  1  0
 19 42  1  0
 20 43  1  0
 20 44  1  0
 21 45  1  6
 22 46  1  0
 22 47  1  0
 22 48  1  0
 24 49  1  0
 24 50  1  0
 28 51  1  0
 28 52  1  0
 28 53  1  0
 29 54  1  0
 30 55  1  0
M  CHG  3   6  -1   9  -1  32  -1
M  END
>  <UniqueID>  (49) 
46

>  <SMILES>  (49) 
C=c1c(=Cc2[n-]c(=O)[n-]c2O)cc(C(=O)N2CCNC[C@H]2C)n1Cc1nc(C)ccc1[O-]

>  <Energy>  (49) 
139.09166048258263

>  <Genealogy>  (49) 
C=c1c(=Cc2[n-]c(=O)[n-]c2O)cc(C(=O)N2CCNCC2C)n1Cc1nc(C)ccc1[O-] (protonated)
C=c1c(=Cc2[n-]c(=O)[n-]c2O)cc(C(=O)N2CCNC[C@H]2C)n1Cc1nc(C)ccc1[O-] (chirality)
C=c1c(=Cc2[n-]c(=O)[n-]c2O)cc(C(=O)N2CCNC[C@H]2C)n1Cc1nc(C)ccc1[O-] (3D coordinates assigned)
C=c1c(=Cc2[n-]c(=O)[n-]c2O)cc(C(=O)N2CCNC[C@H]2C)n1Cc1nc(C)ccc1[O-] (nonaromatic ring conformer: 139.09166048258263 kcal/mol)

>  <smiles>  (49) 
C=c1c(=Cc2[nH]c(=O)[nH]c2O)cc(C(=O)N2CCNCC2C)n1Cc1nc(C)ccc1O

>  <score_type>  (49) 
oracle

>  <origin>  (49) 
adg

>  <m_score__min__energy>  (49) 
-13.84

>  <m_primary>  (49) 
energy

$$$$
49:0
     RDKit          3D

 69 74  0  0  0  0  0  0  0  0999 V2000
   56.6700   33.2190   45.7830 O   0  0  0  0  0  0  0  0  0  0  0  0
   57.6000   33.4510   44.9640 C   0  0  0  0  0  0  0  0  0  0  0  0
   58.5670   34.5850   45.2130 C   0  0  0  0  0  0  0  0  0  0  0  0
   59.5280   34.2800   46.3360 C   0  0  0  0  0  0  0  0  0  0  0  0
   60.8300   33.8360   46.0530 C   0  0  0  0  0  0  0  0  0  0  0  0
   61.6970   33.4950   47.0950 C   0  0  0  0  0  0  0  0  0  0  0  0
   61.2700   33.5860   48.4230 C   0  0  0  0  0  0  0  0  0  0  0  0
   59.9710   34.0190   48.7110 C   0  0  0  0  0  0  0  0  0  0  0  0
   59.1030   34.3680   47.6740 C   0  0  0  0  0  0  0  0  0  0  0  0
   57.6710   32.6550   43.7780 N   0  0  0  0  0  0  0  0  0  0  0  0
   57.0390   31.0470   43.6270 S   0  0  0  0  0  0  0  0  0  0  0  0
   55.8420   30.9000   44.5250 O   0  0  0  0  0  0  0  0  0  0  0  0
   56.6080   30.8110   42.2070 O   0  0  0  0  0  0  0  0  0  0  0  0
   58.2430   29.8790   44.0800 N   0  0  0  0  0  0  0  0  0  0  0  0
   58.9350   29.8910   45.3410 C   0  0  0  0  0  0  0  0  0  0  0  0
   59.9970   29.0000   45.5490 C   0  0  0  0  0  0  0  0  0  0  0  0
   60.6830   28.9770   46.7660 C   0  0  0  0  0  0  0  0  0  0  0  0
   60.3030   29.8330   47.8160 C   0  0  0  0  0  0  0  0  0  0  0  0
   61.0110   29.7690   49.1180 C   0  0  0  0  0  0  0  0  0  0  0  0
   60.5730   28.9280   50.1500 C   0  0  0  0  0  0  0  0  0  0  0  0
   61.2710   28.9220   51.3590 C   0  0  0  0  0  0  0  0  0  0  0  0
   60.8650   28.0380   52.4110 N   0  0  0  0  0  0  0  0  0  0  0  0
   59.8240   28.2760   53.4020 C   0  0  0  0  0  0  0  0  0  0  0  0
   60.0120   27.0350   54.2950 C   0  0  2  0  0  0  0  0  0  0  0  0
   61.5190   26.8820   54.2930 C   0  0  0  0  0  0  0  0  0  0  0  0
   61.5520   26.8040   52.7980 C   0  0  1  0  0  0  0  0  0  0  0  0
   60.5480   25.6650   52.6030 C   0  0  0  0  0  0  0  0  0  0  0  0
   59.5410   25.9000   53.5770 O   0  0  0  0  0  0  0  0  0  0  0  0
   62.3690   29.7140   51.5110 N   0  0  0  0  0  0  0  0  0  0  0  0
   62.8160   30.4990   50.4860 C   0  0  0  0  0  0  0  0  0  0  0  0
   64.0260   31.2740   50.6130 N   0  0  0  0  0  0  0  0  0  0  0  0
   65.0650   30.8280   51.5520 C   0  0  0  0  0  0  0  0  0  0  0  0
   66.4340   31.3890   51.1540 C   0  0  0  0  0  0  0  0  0  0  0  0
   66.3630   32.7900   50.9660 O   0  0  0  0  0  0  0  0  0  0  0  0
   65.5220   33.0790   49.8680 C   0  0  0  0  0  0  0  0  0  0  0  0
   64.0740   32.6710   50.1640 C   0  0  0  0  0  0  0  0  0  0  0  0
   62.1300   30.5160   49.3100 N   0  0  0  0  0  0  0  0  0  0  0  0
   59.2460   30.7370   47.6050 C   0  0  0  0  0  0  0  0  0  0  0  0
   58.5730   30.7670   46.3800 C   0  0  0  0  0  0  0  0  0  0  0  0
   59.1430   34.7674   44.2938 H   0  0  0  0  0  0  0  0  0  0  0  0
   57.9814   35.4704   45.5014 H   0  0  0  0  0  0  0  0  0  0  0  0
   61.1681   33.7564   45.0093 H   0  0  0  0  0  0  0  0  0  0  0  0
   62.7182   33.1541   46.8694 H   0  0  0  0  0  0  0  0  0  0  0  0
   61.9547   33.3174   49.2410 H   0  0  0  0  0  0  0  0  0  0  0  0
   59.6329   34.0846   49.7557 H   0  0  0  0  0  0  0  0  0  0  0  0
   58.0841   34.7127   47.9042 H   0  0  0  0  0  0  0  0  0  0  0  0
   58.4840   29.1480   43.3760 H   0  0  0  0  0  0  0  0  0  0  0  0
   60.2938   28.3108   44.7447 H   0  0  0  0  0  0  0  0  0  0  0  0
   61.5264   28.2845   46.9042 H   0  0  0  0  0  0  0  0  0  0  0  0
   59.6932   28.2829   50.0096 H   0  0  0  0  0  0  0  0  0  0  0  0
   59.9966   29.2089   53.9587 H   0  0  0  0  0  0  0  0  0  0  0  0
   58.8120   28.3992   52.9889 H   0  0  0  0  0  0  0  0  0  0  0  0
   59.5221   27.1189   55.2763 H   0  0  0  0  0  0  0  0  0  0  0  0
   62.0528   27.7522   54.7027 H   0  0  0  0  0  0  0  0  0  0  0  0
   61.9835   26.0818   54.8880 H   0  0  0  0  0  0  0  0  0  0  0  0
   62.5179   26.6771   52.2871 H   0  0  0  0  0  0  0  0  0  0  0  0
   60.1213   25.6935   51.5895 H   0  0  0  0  0  0  0  0  0  0  0  0
   61.0144   24.6754   52.7176 H   0  0  0  0  0  0  0  0  0  0  0  0
   62.9130   29.6540   52.4000 H   0  0  0  0  0  0  0  0  0  0  0  0
   64.8117   31.1785   52.5634 H   0  0  0  0  0  0  0  0  0  0  0  0
   65.1135   29.7293   51.5288 H   0  0  0  0  0  0  0  0  0  0  0  0
   67.1606   31.1674   51.9496 H   0  0  0  0  0  0  0  0  0  0  0  0
   66.7484   30.9201   50.2099 H   0  0  0  0  0  0  0  0  0  0  0  0
   65.5568   34.1591   49.6625 H   0  0  0  0  0  0  0  0  0  0  0  0
   65.8757   32.5097   48.9957 H   0  0  0  0  0  0  0  0  0  0  0  0
   63.6667   33.3209   50.9525 H   0  0  0  0  0  0  0  0  0  0  0  0
   63.4755   32.7756   49.2470 H   0  0  0  0  0  0  0  0  0  0  0  0
   58.9469   31.4250   48.4095 H   0  0  0  0  0  0  0  0  0  0  0  0
   57.7520   31.4830   46.2272 H   0  0  0  0  0  0  0  0  0  0  0  0
  1  2  2  0
  2  3  1  0
  3  4  1  0
  4  5  2  0
  5  6  1  0
  6  7  2  0
  7  8  1  0
  8  9  2  0
  2 10  1  0
 10 11  1  0
 11 12  2  0
 11 13  2  0
 11 14  1  0
 14 15  1  0
 15 16  2  0
 16 17  1  0
 17 18  2  0
 18 19  1  0
 19 20  2  0
 20 21  1  0
 21 22  1  0
 22 23  1  0
 23 24  1  0
 24 25  1  0
 25 26  1  0
 26 27  1  0
 27 28  1  0
 21 29  2  0
 29 30  1  0
 30 31  1  0
 31 32  1  0
 32 33  1  0
 33 34  1  0
 34 35  1  0
 35 36  1  0
 30 37  2  0
 18 38  1  0
 38 39  2  0
  9  4  1  0
 39 15  1  0
 37 19  1  0
 26 22  1  0
 36 31  1  0
 28 24  1  0
  3 40  1  0
  3 41  1  0
  5 42  1  0
  6 43  1  0
  7 44  1  0
  8 45  1  0
  9 46  1  0
 14 47  1  0
 16 48  1  0
 17 49  1  0
 20 50  1  0
 23 51  1  0
 23 52  1  0
 24 53  1  1
 25 54  1  0
 25 55  1  0
 26 56  1  6
 27 57  1  0
 27 58  1  0
 29 59  1  0
 32 60  1  0
 32 61  1  0
 33 62  1  0
 33 63  1  0
 35 64  1  0
 35 65  1  0
 36 66  1  0
 36 67  1  0
 38 68  1  0
 39 69  1  0
M  CHG  2  10  -1  29   1
M  END
>  <UniqueID>  (50) 
47

>  <SMILES>  (50) 
O=C(Cc1ccccc1)[N-]S(=O)(=O)Nc1ccc(-c2cc(N3C[C@@H]4C[C@H]3CO4)[nH+]c(N3CCOCC3)n2)cc1

>  <Energy>  (50) 
121.53359837003629

>  <Genealogy>  (50) 
O=C(Cc1ccccc1)[N-]S(=O)(=O)Nc1ccc(-c2cc(N3CC4CC3CO4)[nH+]c(N3CCOCC3)n2)cc1 (protonated)
O=C(Cc1ccccc1)[N-]S(=O)(=O)Nc1ccc(-c2cc(N3C[C@@H]4C[C@H]3CO4)[nH+]c(N3CCOCC3)n2)cc1 (chirality)
O=C(Cc1ccccc1)[N-]S(=O)(=O)Nc1ccc(-c2cc(N3C[C@@H]4C[C@H]3CO4)[nH+]c(N3CCOCC3)n2)cc1 (3D coordinates assigned)
O=C(Cc1ccccc1)[N-]S(=O)(=O)Nc1ccc(-c2cc(N3C[C@@H]4C[C@H]3CO4)[nH+]c(N3CCOCC3)n2)cc1 (nonaromatic ring conformer: 121.53359837003629 kcal/mol)

>  <smiles>  (50) 
O=C(Cc1ccccc1)NS(=O)(=O)Nc1ccc(-c2cc(N3CC4CC3CO4)nc(N3CCOCC3)n2)cc1

>  <score_type>  (50) 
oracle

>  <origin>  (50) 
adg

>  <m_score__min__energy>  (50) 
-10

>  <m_primary>  (50) 
energy

$$$$
50:0
     RDKit          3D

 52 55  0  0  0  0  0  0  0  0999 V2000
   61.2030   33.3630   51.2790 C   0  0  0  0  0  0  0  0  0  0  0  0
   60.7320   33.7970   50.0090 O   0  0  0  0  0  0  0  0  0  0  0  0
   61.4920   33.7970   48.8240 C   0  0  0  0  0  0  0  0  0  0  0  0
   62.9000   33.8390   48.8600 C   0  0  0  0  0  0  0  0  0  0  0  0
   63.6400   33.8350   47.6770 C   0  0  0  0  0  0  0  0  0  0  0  0
   62.9880   33.7890   46.4460 C   0  0  0  0  0  0  0  0  0  0  0  0
   61.5930   33.7360   46.3900 C   0  0  0  0  0  0  0  0  0  0  0  0
   60.8300   33.7330   47.5750 C   0  0  0  0  0  0  0  0  0  0  0  0
   59.3150   33.7110   47.5020 C   0  0  0  0  0  0  0  0  0  0  0  0
   58.7310   32.5880   46.6340 C   0  0  0  0  0  0  0  0  0  0  0  0
   57.8740   32.9080   45.5310 C   0  0  0  0  0  0  0  0  0  0  0  0
   57.5300   34.3140   45.1250 C   0  0  0  0  0  0  0  0  0  0  0  0
   57.2550   31.9080   44.8430 N   0  0  0  0  0  0  0  0  0  0  0  0
   57.3950   30.6210   45.2120 C   0  0  0  0  0  0  0  0  0  0  0  0
   56.6200   29.3150   44.4850 S   0  0  0  0  0  0  0  0  0  0  0  0
   57.2430   28.1720   45.5730 C   0  0  0  0  0  0  0  0  0  0  0  0
   56.8980   26.7370   45.5370 C   0  0  0  0  0  0  0  0  0  0  0  0
   57.7320   25.9120   45.0760 O   0  0  0  0  0  0  0  0  0  0  0  0
   55.5990   26.2660   45.9220 N   0  0  0  0  0  0  0  0  0  0  0  0
   55.1760   24.8970   46.0010 C   0  0  0  0  0  0  0  0  0  0  0  0
   53.9540   24.5350   45.4180 C   0  0  0  0  0  0  0  0  0  0  0  0
   53.5290   23.2030   45.4380 C   0  0  0  0  0  0  0  0  0  0  0  0
   54.3310   22.2180   46.0290 C   0  0  0  0  0  0  0  0  0  0  0  0
   55.5630   22.5690   46.5880 C   0  0  0  0  0  0  0  0  0  0  0  0
   55.9880   23.9030   46.5770 C   0  0  0  0  0  0  0  0  0  0  0  0
   58.0330   28.8250   46.5420 C   0  0  0  0  0  0  0  0  0  0  0  0
   58.4240   28.1750   47.7590 N   0  0  0  0  0  0  0  0  0  0  0  0
   58.1560   30.2240   46.2970 C   0  0  0  0  0  0  0  0  0  0  0  0
   58.9140   31.2080   46.9890 C   0  0  0  0  0  0  0  0  0  0  0  0
   59.9240   30.7830   48.0330 C   0  0  0  0  0  0  0  0  0  0  0  0
   60.6434   33.8786   52.0734 H   0  0  0  0  0  0  0  0  0  0  0  0
   61.0563   32.2769   51.3729 H   0  0  0  0  0  0  0  0  0  0  0  0
   62.2735   33.5979   51.3729 H   0  0  0  0  0  0  0  0  0  0  0  0
   63.4201   33.8752   49.8286 H   0  0  0  0  0  0  0  0  0  0  0  0
   64.7388   33.8682   47.7160 H   0  0  0  0  0  0  0  0  0  0  0  0
   63.5739   33.7944   45.5151 H   0  0  0  0  0  0  0  0  0  0  0  0
   61.0867   33.6963   45.4143 H   0  0  0  0  0  0  0  0  0  0  0  0
   58.9244   33.5928   48.5235 H   0  0  0  0  0  0  0  0  0  0  0  0
   59.0129   34.6575   47.0300 H   0  0  0  0  0  0  0  0  0  0  0  0
   57.3795   34.9290   46.0245 H   0  0  0  0  0  0  0  0  0  0  0  0
   58.3518   34.7343   44.5267 H   0  0  0  0  0  0  0  0  0  0  0  0
   56.6070   34.3074   44.5267 H   0  0  0  0  0  0  0  0  0  0  0  0
   53.3260   25.3026   44.9423 H   0  0  0  0  0  0  0  0  0  0  0  0
   52.5632   22.9281   44.9889 H   0  0  0  0  0  0  0  0  0  0  0  0
   53.9922   21.1718   46.0530 H   0  0  0  0  0  0  0  0  0  0  0  0
   56.2011   21.7943   47.0383 H   0  0  0  0  0  0  0  0  0  0  0  0
   56.9580   24.1742   47.0193 H   0  0  0  0  0  0  0  0  0  0  0  0
   58.5660   28.7220   48.6370 H   0  0  0  0  0  0  0  0  0  0  0  0
   58.4220   27.1330   47.8360 H   0  0  0  0  0  0  0  0  0  0  0  0
   59.5093   30.9575   49.0368 H   0  0  0  0  0  0  0  0  0  0  0  0
   60.1500   29.7135   47.9105 H   0  0  0  0  0  0  0  0  0  0  0  0
   60.8467   31.3691   47.9105 H   0  0  0  0  0  0  0  0  0  0  0  0
  1  2  1  0
  2  3  1  0
  3  4  2  0
  4  5  1  0
  5  6  2  0
  6  7  1  0
  7  8  2  0
  8  9  1  0
  9 10  1  0
 10 11  2  0
 11 12  1  0
 11 13  1  0
 13 14  2  0
 14 15  1  0
 15 16  1  0
 16 17  1  0
 17 18  2  0
 17 19  1  0
 19 20  1  0
 20 21  2  0
 21 22  1  0
 22 23  2  0
 23 24  1  0
 24 25  2  0
 16 26  2  0
 26 27  1  0
 26 28  1  0
 28 29  2  0
 29 30  1  0
  8  3  1  0
 29 10  1  0
 28 14  1  0
 25 20  1  0
  1 31  1  0
  1 32  1  0
  1 33  1  0
  4 34  1  0
  5 35  1  0
  6 36  1  0
  7 37  1  0
  9 38  1  0
  9 39  1  0
 12 40  1  0
 12 41  1  0
 12 42  1  0
 21 43  1  0
 22 44  1  0
 23 45  1  0
 24 46  1  0
 25 47  1  0
 27 48  1  0
 27 49  1  0
 30 50  1  0
 30 51  1  0
 30 52  1  0
M  CHG  1  19  -1
M  END
>  <UniqueID>  (51) 
48

>  <SMILES>  (51) 
COc1ccccc1Cc1c(C)nc2sc(C(=O)[N-]c3ccccc3)c(N)c2c1C

>  <Energy>  (51) 
111.37378526156411

>  <Genealogy>  (51) 
COc1ccccc1Cc1c(C)nc2sc(C(=O)[N-]c3ccccc3)c(N)c2c1C (protonated)
COc1ccccc1Cc1c(C)nc2sc(C(=O)[N-]c3ccccc3)c(N)c2c1C (3D coordinates assigned)
COc1ccccc1Cc1c(C)nc2sc(C(=O)[N-]c3ccccc3)c(N)c2c1C (optimized conformer: 111.37378526156411 kcal/mol)

>  <smiles>  (51) 
COc1ccccc1Cc1c(C)nc2sc(C(=O)Nc3ccccc3)c(N)c2c1C

>  <score_type>  (51) 
oracle

>  <origin>  (51) 
adg

>  <m_score__min__energy>  (51) 
-10.49

>  <m_primary>  (51) 
energy

$$$$
51:0
     RDKit          3D

 62 64  0  0  0  0  0  0  0  0999 V2000
   55.8840   30.7980   52.1380 C   0  0  0  0  0  0  0  0  0  0  0  0
   56.9410   29.8690   52.0710 O   0  0  0  0  0  0  0  0  0  0  0  0
   57.8620   30.2790   51.0860 C   0  0  0  0  0  0  0  0  0  0  0  0
   59.2580   30.4600   51.7040 C   0  0  0  0  0  0  0  0  0  0  0  0
   59.3910   31.6330   52.7270 C   0  0  0  0  0  0  0  0  0  0  0  0
   58.8880   31.1750   53.9640 O   0  0  0  0  0  0  0  0  0  0  0  0
   58.5950   32.8950   52.2820 C   0  0  0  0  0  0  0  0  0  0  0  0
   59.1130   33.4400   50.9420 C   0  0  0  0  0  0  0  0  0  0  0  0
   60.5880   33.4470   50.8820 N   0  0  0  0  0  0  0  0  0  0  0  0
   61.2380   33.9820   49.7090 C   0  0  0  0  0  0  0  0  0  0  0  0
   62.3420   34.5870   49.8150 O   0  0  0  0  0  0  0  0  0  0  0  0
   60.6140   33.8670   48.3770 C   0  0  0  0  0  0  0  0  0  0  0  0
   59.9260   34.9540   47.8270 C   0  0  0  0  0  0  0  0  0  0  0  0
   59.2810   34.8290   46.5950 C   0  0  0  0  0  0  0  0  0  0  0  0
   59.3190   33.6100   45.8950 C   0  0  0  0  0  0  0  0  0  0  0  0
   58.6570   33.4690   44.6320 N   0  0  0  0  0  0  0  0  0  0  0  0
   57.5940   32.5400   44.4050 C   0  0  0  0  0  0  0  0  0  0  0  0
   56.6300   32.4990   45.2140 O   0  0  0  0  0  0  0  0  0  0  0  0
   57.6100   31.6940   43.2430 N   0  0  0  0  0  0  0  0  0  0  0  0
   56.9510   30.3890   43.2080 C   0  0  0  0  0  0  0  0  0  0  0  0
   57.5940   29.4820   44.2220 C   0  0  0  0  0  0  0  0  0  0  0  0
   58.9210   29.6920   44.6310 C   0  0  0  0  0  0  0  0  0  0  0  0
   59.5420   28.7860   45.4990 C   0  0  0  0  0  0  0  0  0  0  0  0
   58.8480   27.6590   45.9520 C   0  0  0  0  0  0  0  0  0  0  0  0
   57.5260   27.4300   45.5390 C   0  0  0  0  0  0  0  0  0  0  0  0
   56.6420   26.0030   46.0810 S   0  0  0  0  0  0  0  0  0  0  0  0
   54.9420   26.3060   45.9890 N   0  0  0  0  0  0  0  0  0  0  0  0
   56.9930   24.8330   45.2030 O   0  0  0  0  0  0  0  0  0  0  0  0
   57.0080   25.6730   47.5010 O   0  0  0  0  0  0  0  0  0  0  0  0
   56.9000   28.3480   44.6820 C   0  0  0  0  0  0  0  0  0  0  0  0
   60.0540   32.5400   46.4160 C   0  0  0  0  0  0  0  0  0  0  0  0
   60.6900   32.6630   47.6570 C   0  0  0  0  0  0  0  0  0  0  0  0
   61.3660   33.2460   52.1130 C   0  0  0  0  0  0  0  0  0  0  0  0
   60.9070   31.9900   52.8900 C   0  0  0  0  0  0  0  0  0  0  0  0
   55.6459   31.0072   53.1914 H   0  0  0  0  0  0  0  0  0  0  0  0
   56.1833   31.7307   51.6375 H   0  0  0  0  0  0  0  0  0  0  0  0
   54.9975   30.3815   51.6375 H   0  0  0  0  0  0  0  0  0  0  0  0
   57.9113   29.5161   50.2951 H   0  0  0  0  0  0  0  0  0  0  0  0
   57.5304   31.2388   50.6631 H   0  0  0  0  0  0  0  0  0  0  0  0
   59.5236   29.5265   52.2217 H   0  0  0  0  0  0  0  0  0  0  0  0
   59.9292   30.7087   50.8688 H   0  0  0  0  0  0  0  0  0  0  0  0
   58.1050   30.5900   53.7830 H   0  0  0  0  0  0  0  0  0  0  0  0
   57.5332   32.6288   52.1738 H   0  0  0  0  0  0  0  0  0  0  0  0
   58.7256   33.6746   53.0469 H   0  0  0  0  0  0  0  0  0  0  0  0
   58.7273   32.8081   50.1284 H   0  0  0  0  0  0  0  0  0  0  0  0
   58.7634   34.4779   50.8389 H   0  0  0  0  0  0  0  0  0  0  0  0
   59.8931   35.9114   48.3676 H   0  0  0  0  0  0  0  0  0  0  0  0
   58.7408   35.6878   46.1701 H   0  0  0  0  0  0  0  0  0  0  0  0
   58.2640   31.9210   42.4610 H   0  0  0  0  0  0  0  0  0  0  0  0
   55.8839   30.5093   43.4465 H   0  0  0  0  0  0  0  0  0  0  0  0
   57.0521   29.9510   42.2040 H   0  0  0  0  0  0  0  0  0  0  0  0
   59.4741   30.5709   44.2683 H   0  0  0  0  0  0  0  0  0  0  0  0
   60.5778   28.9607   45.8255 H   0  0  0  0  0  0  0  0  0  0  0  0
   59.3398   26.9499   46.6341 H   0  0  0  0  0  0  0  0  0  0  0  0
   54.7310   27.0960   46.6400 H   0  0  0  0  0  0  0  0  0  0  0  0
   55.8594   28.1798   44.3677 H   0  0  0  0  0  0  0  0  0  0  0  0
   60.1324   31.6003   45.8496 H   0  0  0  0  0  0  0  0  0  0  0  0
   61.2521   31.8127   48.0705 H   0  0  0  0  0  0  0  0  0  0  0  0
   62.4273   33.1312   51.8476 H   0  0  0  0  0  0  0  0  0  0  0  0
   61.2101   34.1217   52.7602 H   0  0  0  0  0  0  0  0  0  0  0  0
   61.4999   31.1336   52.5365 H   0  0  0  0  0  0  0  0  0  0  0  0
   61.0590   32.2135   53.9563 H   0  0  0  0  0  0  0  0  0  0  0  0
  1  2  1  0
  2  3  1  0
  3  4  1  0
  4  5  1  0
  5  6  1  0
  5  7  1  0
  7  8  1  0
  8  9  1  0
  9 10  1  0
 10 11  2  0
 10 12  1  0
 12 13  2  0
 13 14  1  0
 14 15  2  0
 15 16  1  0
 16 17  1  0
 17 18  2  0
 17 19  1  0
 19 20  1  0
 20 21  1  0
 21 22  2  0
 22 23  1  0
 23 24  2  0
 24 25  1  0
 25 26  1  0
 26 27  1  0
 26 28  2  0
 26 29  2  0
 25 30  2  0
 15 31  1  0
 31 32  2  0
  9 33  1  0
 33 34  1  0
 34  5  1  0
 32 12  1  0
 30 21  1  0
  1 35  1  0
  1 36  1  0
  1 37  1  0
  3 38  1  0
  3 39  1  0
  4 40  1  0
  4 41  1  0
  6 42  1  0
  7 43  1  0
  7 44  1  0
  8 45  1  0
  8 46  1  0
 13 47  1  0
 14 48  1  0
 19 49  1  0
 20 50  1  0
 20 51  1  0
 22 52  1  0
 23 53  1  0
 24 54  1  0
 27 55  1  0
 30 56  1  0
 31 57  1  0
 32 58  1  0
 33 59  1  0
 33 60  1  0
 34 61  1  0
 34 62  1  0
M  CHG  2  16  -1  27  -1
M  END
>  <UniqueID>  (52) 
49

>  <SMILES>  (52) 
COCCC1(O)CCN(C(=O)c2ccc([N-]C(=O)NCc3cccc(S([NH-])(=O)=O)c3)cc2)CC1

>  <Energy>  (52) 
74.17862897114503

>  <Genealogy>  (52) 
COCCC1(O)CCN(C(=O)c2ccc([N-]C(=O)NCc3cccc(S([NH-])(=O)=O)c3)cc2)CC1 (protonated)
COCCC1(O)CCN(C(=O)c2ccc([N-]C(=O)NCc3cccc(S([NH-])(=O)=O)c3)cc2)CC1 (3D coordinates assigned)
COCCC1(O)CCN(C(=O)c2ccc([N-]C(=O)NCc3cccc(S([NH-])(=O)=O)c3)cc2)CC1 (nonaromatic ring conformer: 74.17862897114503 kcal/mol)

>  <smiles>  (52) 
COCCC1(O)CCN(C(=O)c2ccc(NC(=O)NCc3cccc(S(N)(=O)=O)c3)cc2)CC1

>  <score_type>  (52) 
oracle

>  <origin>  (52) 
adg

>  <m_score__min__energy>  (52) 
-13.68

>  <m_primary>  (52) 
energy

$$$$
52:0
     RDKit          3D

 80 85  0  0  1  0  0  0  0  0999 V2000
   60.7630   28.7200   46.7930 O   0  0  0  0  0  0  0  0  0  0  0  0
   59.9040   29.6080   47.0690 C   0  0  0  0  0  0  0  0  0  0  0  0
   59.2670   30.3180   45.9620 C   0  0  0  0  0  0  0  0  0  0  0  0
   58.4290   31.3070   46.1790 C   0  0  0  0  0  0  0  0  0  0  0  0
   58.8370   32.6850   46.4330 C   0  0  0  0  0  0  0  0  0  0  0  0
   59.2380   33.5080   45.4040 C   0  0  0  0  0  0  0  0  0  0  0  0
   59.6370   34.8070   45.6430 C   0  0  0  0  0  0  0  0  0  0  0  0
   59.6340   35.2830   46.9170 C   0  0  0  0  0  0  0  0  0  0  0  0
   59.2320   34.4520   47.9280 C   0  0  0  0  0  0  0  0  0  0  0  0
   58.8220   33.1480   47.7630 C   0  0  0  0  0  0  0  0  0  0  0  0
   58.4210   32.2950   48.7120 O   0  0  0  0  0  0  0  0  0  0  0  0
   58.0900   32.3080   50.0220 C   0  0  0  0  0  0  0  0  0  0  0  0
   59.0640   32.7390   51.0260 C   0  0  0  0  0  0  0  0  0  0  0  0
   58.7140   32.5750   52.3650 C   0  0  0  0  0  0  0  0  0  0  0  0
   59.5710   32.9310   53.3790 C   0  0  0  0  0  0  0  0  0  0  0  0
   60.7980   33.4580   53.0320 C   0  0  0  0  0  0  0  0  0  0  0  0
   61.2160   33.6500   51.7380 C   0  0  0  0  0  0  0  0  0  0  0  0
   62.3850   34.1550   51.3130 O   0  0  0  0  0  0  0  0  0  0  0  0
   62.9040   34.6450   50.1480 C   0  0  0  0  0  0  0  0  0  0  0  0
   63.0760   33.7220   49.0230 C   0  0  0  0  0  0  0  0  0  0  0  0
   63.5610   34.0280   47.7820 C   0  0  0  0  0  0  0  0  0  0  0  0
   63.6820   33.1030   46.7740 C   0  0  0  0  0  0  0  0  0  0  0  0
   63.2990   31.8090   47.0280 C   0  0  0  0  0  0  0  0  0  0  0  0
   62.8020   31.4310   48.2560 C   0  0  0  0  0  0  0  0  0  0  0  0
   62.6990   32.3930   49.2330 C   0  0  0  0  0  0  0  0  0  0  0  0
   60.2950   33.2680   50.7470 C   0  0  0  0  0  0  0  0  0  0  0  0
   59.5770   29.8940   48.4350 N   0  0  0  0  0  0  0  0  0  0  0  0
   60.2730   29.1310   49.4270 C   0  0  0  0  0  0  0  0  0  0  0  0
   60.2000   27.7500   49.2840 C   0  0  0  0  0  0  0  0  0  0  0  0
   60.8680   27.0100   50.2380 C   0  0  0  0  0  0  0  0  0  0  0  0
   61.5700   27.5890   51.2810 C   0  0  0  0  0  0  0  0  0  0  0  0
   61.6410   28.9410   51.4210 C   0  0  0  0  0  0  0  0  0  0  0  0
   62.3390   29.6900   52.4810 C   0  0  0  0  0  0  0  0  0  0  0  0
   63.5490   30.3880   52.0310 C   0  0  0  0  0  0  0  0  0  0  0  0
   63.5040   31.7460   51.9990 N   0  0  0  0  0  0  0  0  0  0  0  0
   64.5500   32.4710   51.6610 N   0  0  0  0  0  0  0  0  0  0  0  0
   65.7260   31.9440   51.3260 C   0  0  0  0  0  0  0  0  0  0  0  0
   66.6930   32.7100   51.0110 O   0  0  0  0  0  0  0  0  0  0  0  0
   65.8560   30.5850   51.3310 C   0  0  0  0  0  0  0  0  0  0  0  0
   64.7370   29.8170   51.6910 C   0  0  0  0  0  0  0  0  0  0  0  0
   64.9160   28.3610   51.6310 C   0  0  0  0  0  0  0  0  0  0  0  0
   66.2290   28.0670   52.3590 C   0  0  0  0  0  0  0  0  0  0  0  0
   67.3160   28.5550   51.4190 C   0  0  0  0  0  0  0  0  0  0  0  0
   67.1420   29.9700   50.9730 C   0  0  0  0  0  0  0  0  0  0  0  0
   60.9720   29.7150   50.4620 C   0  0  0  0  0  0  0  0  0  0  0  0
   59.4930   30.0192   44.9278 H   0  0  0  0  0  0  0  0  0  0  0  0
   57.3523   31.0819   46.1685 H   0  0  0  0  0  0  0  0  0  0  0  0
   59.2402   33.1229   44.3736 H   0  0  0  0  0  0  0  0  0  0  0  0
   59.9547   35.4519   44.8105 H   0  0  0  0  0  0  0  0  0  0  0  0
   59.9483   36.3152   47.1309 H   0  0  0  0  0  0  0  0  0  0  0  0
   59.2369   34.8572   48.9506 H   0  0  0  0  0  0  0  0  0  0  0  0
   57.2189   32.9723   50.1212 H   0  0  0  0  0  0  0  0  0  0  0  0
   57.9479   31.2421   50.2539 H   0  0  0  0  0  0  0  0  0  0  0  0
   57.7303   32.1514   52.6159 H   0  0  0  0  0  0  0  0  0  0  0  0
   59.2876   32.7999   54.4337 H   0  0  0  0  0  0  0  0  0  0  0  0
   61.4847   33.7423   53.8429 H   0  0  0  0  0  0  0  0  0  0  0  0
   62.2380   35.4520   49.8086 H   0  0  0  0  0  0  0  0  0  0  0  0
   63.9286   34.9459   50.4120 H   0  0  0  0  0  0  0  0  0  0  0  0
   63.8691   35.0647   47.5812 H   0  0  0  0  0  0  0  0  0  0  0  0
   64.0757   33.3914   45.7882 H   0  0  0  0  0  0  0  0  0  0  0  0
   63.3913   31.0559   46.2315 H   0  0  0  0  0  0  0  0  0  0  0  0
   62.4970   30.3919   48.4489 H   0  0  0  0  0  0  0  0  0  0  0  0
   62.3043   32.1051   50.2186 H   0  0  0  0  0  0  0  0  0  0  0  0
   60.5785   33.4012   49.6925 H   0  0  0  0  0  0  0  0  0  0  0  0
   58.8670   30.6210   48.6660 H   0  0  0  0  0  0  0  0  0  0  0  0
   59.6441   27.2766   48.4613 H   0  0  0  0  0  0  0  0  0  0  0  0
   60.8415   25.9126   50.1666 H   0  0  0  0  0  0  0  0  0  0  0  0
   62.0805   26.9438   52.0111 H   0  0  0  0  0  0  0  0  0  0  0  0
   61.6429   30.4367   52.8907 H   0  0  0  0  0  0  0  0  0  0  0  0
   62.6617   28.9506   53.2288 H   0  0  0  0  0  0  0  0  0  0  0  0
   64.4380   33.4970   51.6600 H   0  0  0  0  0  0  0  0  0  0  0  0
   64.0791   27.8521   52.1317 H   0  0  0  0  0  0  0  0  0  0  0  0
   64.9421   28.0008   50.5920 H   0  0  0  0  0  0  0  0  0  0  0  0
   66.2715   28.6102   53.3146 H   0  0  0  0  0  0  0  0  0  0  0  0
   66.3386   26.9991   52.5991 H   0  0  0  0  0  0  0  0  0  0  0  0
   68.2835   28.4715   51.9357 H   0  0  0  0  0  0  0  0  0  0  0  0
   67.2626   27.9277   50.5170 H   0  0  0  0  0  0  0  0  0  0  0  0
   67.9444   30.5708   51.4260 H   0  0  0  0  0  0  0  0  0  0  0  0
   67.1754   29.9500   49.8737 H   0  0  0  0  0  0  0  0  0  0  0  0
   61.0056   30.8119   50.5371 H   0  0  0  0  0  0  0  0  0  0  0  0
  1  2  2  0
  2  3  1  0
  3  4  2  0
  4  5  1  0
  5  6  2  0
  6  7  1  0
  7  8  2  0
  8  9  1  0
  9 10  2  0
 10 11  1  0
 11 12  1  0
 12 13  1  0
 13 14  2  0
 14 15  1  0
 15 16  2  0
 16 17  1  0
 17 18  1  0
 18 19  1  0
 19 20  1  0
 20 21  2  0
 21 22  1  0
 22 23  2  0
 23 24  1  0
 24 25  2  0
 17 26  2  0
  2 27  1  0
 27 28  1  0
 28 29  2  0
 29 30  1  0
 30 31  2  0
 31 32  1  0
 32 33  1  0
 33 34  1  0
 34 35  2  0
 35 36  1  0
 36 37  1  0
 37 38  2  0
 37 39  1  0
 39 40  2  0
 40 41  1  0
 41 42  1  0
 42 43  1  0
 43 44  1  0
 32 45  2  0
 10  5  1  0
 26 13  1  0
 45 28  1  0
 25 20  1  0
 40 34  1  0
 44 39  1  0
  3 46  1  0
  4 47  1  0
  6 48  1  0
  7 49  1  0
  8 50  1  0
  9 51  1  0
 12 52  1  0
 12 53  1  0
 14 54  1  0
 15 55  1  0
 16 56  1  0
 19 57  1  0
 19 58  1  0
 21 59  1  0
 22 60  1  0
 23 61  1  0
 24 62  1  0
 25 63  1  0
 26 64  1  0
 27 65  1  0
 29 66  1  0
 30 67  1  0
 31 68  1  0
 33 69  1  0
 33 70  1  0
 36 71  1  0
 41 72  1  0
 41 73  1  0
 42 74  1  0
 42 75  1  0
 43 76  1  0
 43 77  1  0
 44 78  1  0
 44 79  1  0
 45 80  1  0
M  END
>  <smiles>  (53) 
O=C(C=Cc1ccccc1OCc1cccc(OCc2ccccc2)c1)Nc1cccc(Cc2n[nH]c(=O)c3c2CCCC3)c1

>  <score_type>  (53) 
oracle

>  <origin>  (53) 
adg

>  <m_score__min__energy>  (53) 
-12.300000000000001

>  <m_primary>  (53) 
energy

$$$$
53:0
     RDKit          3D

 26 26  0  0  0  0  0  0  0  0999 V2000
   52.5350   24.4240   45.2380 N   0  0  0  0  0  0  0  0  0  0  0  0
   53.6760   23.5770   45.3990 C   0  0  0  0  0  0  0  0  0  0  0  0
   53.5000   22.3530   45.6480 O   0  0  0  0  0  0  0  0  0  0  0  0
   55.0520   24.1180   45.3190 C   0  0  0  0  0  0  0  0  0  0  0  0
   56.0930   23.2740   44.9000 C   0  0  0  0  0  0  0  0  0  0  0  0
   57.4020   23.7480   44.8250 C   0  0  0  0  0  0  0  0  0  0  0  0
   57.6900   25.0710   45.1580 C   0  0  0  0  0  0  0  0  0  0  0  0
   56.6630   25.9490   45.5570 C   0  0  0  0  0  0  0  0  0  0  0  0
   56.9390   27.3250   45.8970 N   0  0  0  0  0  0  0  0  0  0  0  0
   58.0270   28.1240   45.3280 C   0  0  0  0  0  0  0  0  0  0  0  0
   57.5040   29.0240   44.2040 C   0  0  0  0  0  0  0  0  0  0  0  0
   56.2600   29.7320   44.6380 C   0  0  0  0  0  0  0  0  0  0  0  0
   55.2140   29.0780   44.8900 O   0  0  0  0  0  0  0  0  0  0  0  0
   56.2700   31.1110   44.8100 O   0  0  0  0  0  0  0  0  0  0  0  0
   55.3400   25.4650   45.6270 C   0  0  0  0  0  0  0  0  0  0  0  0
   54.3090   26.3370   45.9680 O   0  0  0  0  0  0  0  0  0  0  0  0
   52.6320   25.4620   45.2080 H   0  0  0  0  0  0  0  0  0  0  0  0
   51.5750   24.0140   45.2440 H   0  0  0  0  0  0  0  0  0  0  0  0
   55.8740   22.2307   44.6288 H   0  0  0  0  0  0  0  0  0  0  0  0
   58.2105   23.0758   44.5019 H   0  0  0  0  0  0  0  0  0  0  0  0
   58.7278   25.4322   45.1088 H   0  0  0  0  0  0  0  0  0  0  0  0
   56.3360   27.8000   46.6060 H   0  0  0  0  0  0  0  0  0  0  0  0
   58.4667   28.7506   46.1179 H   0  0  0  0  0  0  0  0  0  0  0  0
   58.7868   27.4448   44.9141 H   0  0  0  0  0  0  0  0  0  0  0  0
   58.2732   29.7673   43.9475 H   0  0  0  0  0  0  0  0  0  0  0  0
   57.2723   28.4013   43.3273 H   0  0  0  0  0  0  0  0  0  0  0  0
  1  2  1  0
  2  3  2  0
  2  4  1  0
  4  5  2  0
  5  6  1  0
  6  7  2  0
  7  8  1  0
  8  9  1  0
  9 10  1  0
 10 11  1  0
 11 12  1  0
 12 13  2  0
 12 14  1  0
  8 15  2  0
 15 16  1  0
 15  4  1  0
  1 17  1  0
  1 18  1  0
  5 19  1  0
  6 20  1  0
  7 21  1  0
  9 22  1  0
 10 23  1  0
 10 24  1  0
 11 25  1  0
 11 26  1  0
M  CHG  2  14  -1  16  -1
M  END
>  <UniqueID>  (54) 
50

>  <SMILES>  (54) 
NC(=O)c1cccc(NCCC(=O)[O-])c1[O-]

>  <Energy>  (54) 
25.25523796414075

>  <Genealogy>  (54) 
NC(=O)c1cccc(NCCC(=O)[O-])c1[O-] (protonated)
NC(=O)c1cccc(NCCC(=O)[O-])c1[O-] (3D coordinates assigned)
NC(=O)c1cccc(NCCC(=O)[O-])c1[O-] (optimized conformer: 25.25523796414075 kcal/mol)

>  <smiles>  (54) 
NC(=O)c1cccc(NCCC(=O)O)c1O

>  <score_type>  (54) 
oracle

>  <origin>  (54) 
adg

>  <m_score__min__energy>  (54) 
-12.32

>  <m_primary>  (54) 
energy

$$$$
54:0
     RDKit          3D

 43 45  0  0  0  0  0  0  0  0999 V2000
   59.9050   28.6640   46.1830 C   0  0  0  0  0  0  0  0  0  0  0  0
   58.7560   29.0530   45.5930 C   0  0  0  0  0  0  0  0  0  0  0  0
   58.4610   30.4410   45.4820 C   0  0  0  0  0  0  0  0  0  0  0  0
   59.6080   31.7320   46.0170 S   0  0  0  0  0  0  0  0  0  0  0  0
   58.3250   33.0120   46.2900 C   0  0  0  0  0  0  0  0  0  0  0  0
   58.8970   34.2600   46.8880 C   0  0  0  0  0  0  0  0  0  0  0  0
   58.9560   35.3150   46.2010 O   0  0  0  0  0  0  0  0  0  0  0  0
   59.3470   34.2350   48.2500 N   0  0  0  0  0  0  0  0  0  0  0  0
   60.6610   33.9420   48.7470 C   0  0  0  0  0  0  0  0  0  0  0  0
   60.9500   33.8370   50.1180 C   0  0  0  0  0  0  0  0  0  0  0  0
   62.2650   33.6500   50.5540 C   0  0  0  0  0  0  0  0  0  0  0  0
   63.3210   33.5590   49.6270 C   0  0  0  0  0  0  0  0  0  0  0  0
   64.7260   33.3560   50.0720 C   0  0  0  0  0  0  0  0  0  0  0  0
   65.2250   33.8740   51.3870 C   0  0  0  0  0  0  0  0  0  0  0  0
   65.5230   32.7100   49.3390 O   0  0  0  0  0  0  0  0  0  0  0  0
   63.0240   33.6640   48.2570 C   0  0  0  0  0  0  0  0  0  0  0  0
   61.7100   33.8590   47.8260 C   0  0  0  0  0  0  0  0  0  0  0  0
   57.2370   30.8430   45.0610 N   0  0  0  0  0  0  0  0  0  0  0  0
   56.2650   29.9540   44.7630 C   0  0  0  0  0  0  0  0  0  0  0  0
   55.1270   30.3590   44.4100 O   0  0  0  0  0  0  0  0  0  0  0  0
   56.5150   28.6280   44.8400 N   0  0  0  0  0  0  0  0  0  0  0  0
   57.7320   28.1310   45.1890 C   0  0  0  0  0  0  0  0  0  0  0  0
   57.8600   26.7870   45.1000 C   0  0  0  0  0  0  0  0  0  0  0  0
   57.2160   25.7820   45.9650 C   0  0  0  0  0  0  0  0  0  0  0  0
   57.8280   24.6830   46.4400 N   0  0  0  0  0  0  0  0  0  0  0  0
   56.8360   24.0250   47.0780 C   0  0  0  0  0  0  0  0  0  0  0  0
   57.0210   22.9340   47.6760 O   0  0  0  0  0  0  0  0  0  0  0  0
   55.6280   24.6250   47.0190 N   0  0  0  0  0  0  0  0  0  0  0  0
   55.8820   25.7320   46.3030 C   0  0  0  0  0  0  0  0  0  0  0  0
   54.9110   26.6730   45.9760 O   0  0  0  0  0  0  0  0  0  0  0  0
   60.1418   27.5936   46.2735 H   0  0  0  0  0  0  0  0  0  0  0  0
   60.6051   29.4172   46.5736 H   0  0  0  0  0  0  0  0  0  0  0  0
   57.8607   33.2612   45.3244 H   0  0  0  0  0  0  0  0  0  0  0  0
   57.5841   32.6060   46.9944 H   0  0  0  0  0  0  0  0  0  0  0  0
   60.1352   33.9025   50.8540 H   0  0  0  0  0  0  0  0  0  0  0  0
   62.4766   33.5733   51.6307 H   0  0  0  0  0  0  0  0  0  0  0  0
   64.7158   33.3454   52.2064 H   0  0  0  0  0  0  0  0  0  0  0  0
   66.3095   33.7053   51.4599 H   0  0  0  0  0  0  0  0  0  0  0  0
   65.0159   34.9515   51.4599 H   0  0  0  0  0  0  0  0  0  0  0  0
   63.8347   33.5919   47.5170 H   0  0  0  0  0  0  0  0  0  0  0  0
   61.4979   33.9483   46.7503 H   0  0  0  0  0  0  0  0  0  0  0  0
   58.5114   26.4051   44.3001 H   0  0  0  0  0  0  0  0  0  0  0  0
   55.1440   27.5200   45.4730 H   0  0  0  0  0  0  0  0  0  0  0  0
  1  2  2  0
  2  3  1  0
  3  4  1  0
  4  5  1  0
  5  6  1  0
  6  7  2  0
  6  8  1  0
  8  9  1  0
  9 10  2  0
 10 11  1  0
 11 12  2  0
 12 13  1  0
 13 14  1  0
 13 15  2  0
 12 16  1  0
 16 17  2  0
  3 18  2  0
 18 19  1  0
 19 20  2  0
 19 21  1  0
 21 22  1  0
 22 23  2  3
 23 24  1  0
 24 25  1  0
 25 26  1  0
 26 27  2  0
 26 28  1  0
 28 29  1  0
 29 30  1  0
 22  2  1  0
 29 24  2  0
 17  9  1  0
  1 31  1  0
  1 32  1  0
  5 33  1  0
  5 34  1  0
 10 35  1  0
 11 36  1  0
 14 37  1  0
 14 38  1  0
 14 39  1  0
 16 40  1  0
 17 41  1  0
 23 42  1  0
 30 43  1  0
M  CHG  4   8  -1  21  -1  25  -1  28  -1
M  END
>  <UniqueID>  (55) 
51

>  <SMILES>  (55) 
C=c1c(SCC(=O)[N-]c2ccc(C(C)=O)cc2)nc(=O)[n-]c1=Cc1[n-]c(=O)[n-]c1O

>  <Energy>  (55) 
92.7523714684531

>  <Genealogy>  (55) 
C=c1c(SCC(=O)[N-]c2ccc(C(C)=O)cc2)nc(=O)[n-]c1=Cc1[n-]c(=O)[n-]c1O (protonated)
C=c1c(SCC(=O)[N-]c2ccc(C(C)=O)cc2)nc(=O)[n-]c1=Cc1[n-]c(=O)[n-]c1O (3D coordinates assigned)
C=c1c(SCC(=O)[N-]c2ccc(C(C)=O)cc2)nc(=O)[n-]c1=Cc1[n-]c(=O)[n-]c1O (optimized conformer: 92.7523714684531 kcal/mol)

>  <smiles>  (55) 
C=c1c(SCC(=O)Nc2ccc(C(C)=O)cc2)nc(=O)[nH]c1=Cc1[nH]c(=O)[nH]c1O

>  <score_type>  (55) 
oracle

>  <origin>  (55) 
adg

>  <m_score__min__energy>  (55) 
-16.41

>  <m_primary>  (55) 
energy

$$$$
55:0
     RDKit          3D

 50 53  0  0  0  0  0  0  0  0999 V2000
   60.1190   34.2953   44.6043 H   0  0  0  0  0  0  0  0  0  0  0  0
   59.2320   33.8430   45.0720 C   0  0  0  0  0  0  0  0  0  0  0  0
   58.4270   32.9630   44.4210 N   0  0  0  0  0  0  0  0  0  0  0  0
   57.4140   32.5360   45.2060 C   0  0  0  0  0  0  0  0  0  0  0  0
   56.4890   31.6970   44.8370 N   0  0  0  0  0  0  0  0  0  0  0  0
   56.6380   30.4180   44.1930 C   0  0  0  0  0  0  0  0  0  0  0  0
   57.2140   30.3790   43.0740 O   0  0  0  0  0  0  0  0  0  0  0  0
   56.1530   29.1280   44.7880 C   0  0  0  0  0  0  0  0  0  0  0  0
   55.7155   29.3243   45.7780 H   0  0  0  0  0  0  0  0  0  0  0  0
   55.3923   28.6869   44.1271 H   0  0  0  0  0  0  0  0  0  0  0  0
   57.5460   27.9650   44.9620 S   0  0  0  0  0  0  0  0  0  0  0  0
   58.4570   29.0510   46.0530 C   0  0  0  0  0  0  0  0  0  0  0  0
   58.8160   28.7500   47.2770 O   0  0  0  0  0  0  0  0  0  0  0  0
   59.4440   29.8190   47.7150 C   0  0  0  0  0  0  0  0  0  0  0  0
   60.0060   29.9560   49.0920 C   0  0  0  0  0  0  0  0  0  0  0  0
   60.2396   28.9585   49.4926 H   0  0  0  0  0  0  0  0  0  0  0  0
   60.9231   30.5621   49.0527 H   0  0  0  0  0  0  0  0  0  0  0  0
   59.0060   30.6270   49.9800 C   0  0  0  0  0  0  0  0  0  0  0  0
   58.1550   29.9120   50.7680 N   0  0  0  0  0  0  0  0  0  0  0  0
   57.3710   30.7160   51.5180 C   0  0  0  0  0  0  0  0  0  0  0  0
   56.3920   30.2090   52.5220 C   0  0  0  0  0  0  0  0  0  0  0  0
   56.7713   30.4054   53.5357 H   0  0  0  0  0  0  0  0  0  0  0  0
   55.4282   30.7213   52.3855 H   0  0  0  0  0  0  0  0  0  0  0  0
   56.2543   29.1262   52.3855 H   0  0  0  0  0  0  0  0  0  0  0  0
   57.7370   32.3370   51.2700 S   0  0  0  0  0  0  0  0  0  0  0  0
   58.9270   32.0100   50.1280 C   0  0  0  0  0  0  0  0  0  0  0  0
   59.5346   32.7550   49.5933 H   0  0  0  0  0  0  0  0  0  0  0  0
   59.4810   30.7930   46.7820 N   0  0  0  0  0  0  0  0  0  0  0  0
   58.8560   30.2920   45.7310 N   0  0  0  0  0  0  0  0  0  0  0  0
   58.7020   30.7930   44.8280 H   0  0  0  0  0  0  0  0  0  0  0  0
   57.4670   33.2270   46.7370 S   0  0  0  0  0  0  0  0  0  0  0  0
   58.8440   34.1260   46.3780 C   0  0  0  0  0  0  0  0  0  0  0  0
   59.5880   34.9930   47.3440 C   0  0  0  0  0  0  0  0  0  0  0  0
   58.9489   35.1990   48.2153 H   0  0  0  0  0  0  0  0  0  0  0  0
   59.8582   35.9367   46.8476 H   0  0  0  0  0  0  0  0  0  0  0  0
   60.8410   34.2990   47.7990 C   0  0  0  0  0  0  0  0  0  0  0  0
   61.7160   33.7270   46.8620 C   0  0  0  0  0  0  0  0  0  0  0  0
   61.4993   33.8152   45.7872 H   0  0  0  0  0  0  0  0  0  0  0  0
   62.8610   33.0460   47.2860 C   0  0  0  0  0  0  0  0  0  0  0  0
   63.5445   32.6084   46.5435 H   0  0  0  0  0  0  0  0  0  0  0  0
   63.1430   32.9180   48.6600 C   0  0  0  0  0  0  0  0  0  0  0  0
   64.2770   32.2440   49.1360 O   0  0  0  0  0  0  0  0  0  0  0  0
   65.3290   32.8630   49.8700 C   0  0  0  0  0  0  0  0  0  0  0  0
   65.1392   32.7513   50.9477 H   0  0  0  0  0  0  0  0  0  0  0  0
   66.2856   32.3838   49.6146 H   0  0  0  0  0  0  0  0  0  0  0  0
   65.3747   33.9320   49.6146 H   0  0  0  0  0  0  0  0  0  0  0  0
   62.2610   33.4790   49.5930 C   0  0  0  0  0  0  0  0  0  0  0  0
   62.4710   33.3830   50.6685 H   0  0  0  0  0  0  0  0  0  0  0  0
   61.1160   34.1600   49.1680 C   0  0  0  0  0  0  0  0  0  0  0  0
   60.4273   34.5890   49.9107 H   0  0  0  0  0  0  0  0  0  0  0  0
  1  2  1  0
  2  3  1  0
  3  4  1  0
  4  5  2  0
  5  6  1  0
  6  7  2  0
  6  8  1  0
  8  9  1  0
  8 10  1  0
  8 11  1  0
 11 12  1  0
 12 13  1  0
 13 14  1  0
 14 15  1  0
 15 16  1  0
 15 17  1  0
 15 18  1  0
 18 19  1  0
 19 20  2  0
 20 21  1  0
 21 22  1  0
 21 23  1  0
 21 24  1  0
 20 25  1  0
 25 26  1  0
 26 27  1  0
 14 28  2  0
 28 29  1  0
 29 30  1  0
  4 31  1  0
 31 32  1  0
 32 33  1  0
 33 34  1  0
 33 35  1  0
 33 36  1  0
 36 37  2  0
 37 38  1  0
 37 39  1  0
 39 40  1  0
 39 41  2  0
 41 42  1  0
 42 43  1  0
 43 44  1  0
 43 45  1  0
 43 46  1  0
 41 47  1  0
 47 48  1  0
 47 49  2  0
 49 50  1  0
 32  2  2  0
 49 36  1  0
 29 12  2  0
 26 18  2  0
M  CHG  2   3  -1  29   1
M  END
>  <UniqueID>  (56) 
52

>  <SMILES>  (56) 
COc1ccc(Cc2c[n-]/c(=N\C(=O)CSc3[nH+]nc(Cc4csc(C)n4)o3)s2)cc1

>  <Energy>  (56) 
140.50950754644137

>  <Genealogy>  (56) 
COc1ccc(Cc2c[n-]c(=NC(=O)CSc3[nH+]nc(Cc4csc(C)n4)o3)s2)cc1 (protonated)
COc1ccc(Cc2c[n-]/c(=N\C(=O)CSc3[nH+]nc(Cc4csc(C)n4)o3)s2)cc1 (cis-trans isomerization)
COc1ccc(Cc2c[n-]/c(=N\C(=O)CSc3[nH+]nc(Cc4csc(C)n4)o3)s2)cc1 (3D coordinates assigned)
COc1ccc(Cc2c[n-]/c(=N\C(=O)CSc3[nH+]nc(Cc4csc(C)n4)o3)s2)cc1 (optimized conformer: 140.50950754644137 kcal/mol)

>  <smiles>  (56) 
COc1ccc(Cc2c[nH]c(=NC(=O)CSc3nnc(Cc4csc(C)n4)o3)s2)cc1

>  <score_type>  (56) 
oracle

>  <origin>  (56) 
adg

>  <m_score__min__energy>  (56) 
-9.6099999999999994

>  <m_primary>  (56) 
energy

$$$$
56:0
     RDKit          3D

 40 42  0  0  0  0  0  0  0  0999 V2000
   63.9120   32.6730   47.1550 H   0  0  0  0  0  0  0  0  0  0  0  0
   63.4370   33.5210   46.8730 O   0  0  0  0  0  0  0  0  0  0  0  0
   62.0670   33.6650   47.0610 C   0  0  0  0  0  0  0  0  0  0  0  0
   61.2100   33.8380   46.0180 N   0  0  0  0  0  0  0  0  0  0  0  0
   59.9350   33.9560   46.4500 C   0  0  0  0  0  0  0  0  0  0  0  0
   58.9080   34.1330   45.6730 N   0  0  0  0  0  0  0  0  0  0  0  0
   58.0700   33.1020   45.1260 C   0  0  0  0  0  0  0  0  0  0  0  0
   57.0700   33.3930   44.4140 O   0  0  0  0  0  0  0  0  0  0  0  0
   58.3800   31.7300   45.4130 N   0  0  0  0  0  0  0  0  0  0  0  0
   59.1660   31.5430   46.0750 H   0  0  0  0  0  0  0  0  0  0  0  0
   57.7150   30.6140   44.8000 C   0  0  0  0  0  0  0  0  0  0  0  0
   56.9910   30.7880   43.7810 O   0  0  0  0  0  0  0  0  0  0  0  0
   57.9150   29.2410   45.3160 C   0  0  0  0  0  0  0  0  0  0  0  0
   59.2200   28.7820   45.5490 C   0  0  0  0  0  0  0  0  0  0  0  0
   60.0758   29.4412   45.3415 H   0  0  0  0  0  0  0  0  0  0  0  0
   59.4400   27.4980   46.0410 C   0  0  0  0  0  0  0  0  0  0  0  0
   60.4673   27.1513   46.2269 H   0  0  0  0  0  0  0  0  0  0  0  0
   58.3640   26.6500   46.2990 C   0  0  0  0  0  0  0  0  0  0  0  0
   58.5496   25.6408   46.6953 H   0  0  0  0  0  0  0  0  0  0  0  0
   57.0430   27.0710   46.0580 C   0  0  0  0  0  0  0  0  0  0  0  0
   55.9190   26.1280   46.3190 C   0  0  0  0  0  0  0  0  0  0  0  0
   54.7730   26.3560   45.8450 O   0  0  0  0  0  0  0  0  0  0  0  0
   56.1280   24.9800   47.1530 N   0  0  0  0  0  0  0  0  0  0  0  0
   56.3770   23.6370   46.7120 C   0  0  0  0  0  0  0  0  0  0  0  0
   56.6580   22.5950   47.6160 C   0  0  0  0  0  0  0  0  0  0  0  0
   56.7134   22.8043   48.6945 H   0  0  0  0  0  0  0  0  0  0  0  0
   56.8670   21.2940   47.1460 C   0  0  0  0  0  0  0  0  0  0  0  0
   57.0935   20.4845   47.8555 H   0  0  0  0  0  0  0  0  0  0  0  0
   56.7890   21.0200   45.7800 C   0  0  0  0  0  0  0  0  0  0  0  0
   56.9574   19.9965   45.4140 H   0  0  0  0  0  0  0  0  0  0  0  0
   56.4960   22.0490   44.8740 C   0  0  0  0  0  0  0  0  0  0  0  0
   56.4190   21.7670   43.4650 C   0  0  0  0  0  0  0  0  0  0  0  0
   56.3560   21.5420   42.3310 N   0  0  0  0  0  0  0  0  0  0  0  0
   56.2820   23.3510   45.3430 C   0  0  0  0  0  0  0  0  0  0  0  0
   56.0378   24.1545   44.6325 H   0  0  0  0  0  0  0  0  0  0  0  0
   56.8240   28.3760   45.5530 C   0  0  0  0  0  0  0  0  0  0  0  0
   55.5320   28.8060   45.2590 O   0  0  0  0  0  0  0  0  0  0  0  0
   59.8230   33.8480   48.1230 S   0  0  0  0  0  0  0  0  0  0  0  0
   61.4810   33.6420   48.3230 C   0  0  0  0  0  0  0  0  0  0  0  0
   62.0075   33.5123   49.2801 H   0  0  0  0  0  0  0  0  0  0  0  0
  1  2  1  0
  2  3  1  0
  3  4  1  0
  4  5  1  0
  5  6  2  0
  6  7  1  0
  7  8  2  0
  7  9  1  0
  9 10  1  0
  9 11  1  0
 11 12  2  0
 11 13  1  0
 13 14  2  0
 14 15  1  0
 14 16  1  0
 16 17  1  0
 16 18  2  0
 18 19  1  0
 18 20  1  0
 20 21  1  0
 21 22  2  0
 21 23  1  0
 23 24  1  0
 24 25  2  0
 25 26  1  0
 25 27  1  0
 27 28  1  0
 27 29  2  0
 29 30  1  0
 29 31  1  0
 31 32  1  0
 32 33  3  0
 31 34  2  0
 34 35  1  0
 20 36  2  0
 36 37  1  0
  5 38  1  0
 38 39  1  0
 39 40  1  0
 39  3  2  0
 36 13  1  0
 34 24  1  0
M  CHG  3   4  -1  23  -1  37  -1
M  END
>  <UniqueID>  (57) 
53

>  <SMILES>  (57) 
N#Cc1cccc([N-]C(=O)c2cccc(C(=O)NC(=O)/N=c3\[n-]c(O)cs3)c2[O-])c1

>  <Energy>  (57) 
84.50382869415311

>  <Genealogy>  (57) 
N#Cc1cccc([N-]C(=O)c2cccc(C(=O)NC(=O)N=c3[n-]c(O)cs3)c2[O-])c1 (protonated)
N#Cc1cccc([N-]C(=O)c2cccc(C(=O)NC(=O)/N=c3\[n-]c(O)cs3)c2[O-])c1 (cis-trans isomerization)
N#Cc1cccc([N-]C(=O)c2cccc(C(=O)NC(=O)/N=c3\[n-]c(O)cs3)c2[O-])c1 (3D coordinates assigned)
N#Cc1cccc([N-]C(=O)c2cccc(C(=O)NC(=O)/N=c3\[n-]c(O)cs3)c2[O-])c1 (optimized conformer: 84.50382869415311 kcal/mol)

>  <smiles>  (57) 
N#Cc1cccc(NC(=O)c2cccc(C(=O)NC(=O)N=c3[nH]c(O)cs3)c2O)c1

>  <score_type>  (57) 
oracle

>  <origin>  (57) 
adg

>  <m_score__min__energy>  (57) 
-15.74

>  <m_primary>  (57) 
energy

$$$$
57:0
     RDKit          3D

 58 61  0  0  0  0  0  0  0  0999 V2000
   54.3590   28.3560   52.7370 C   0  0  0  0  0  0  0  0  0  0  0  0
   55.0480   29.4950   52.5530 C   0  0  0  0  0  0  0  0  0  0  0  0
   54.5940   30.6620   51.9150 C   0  0  0  0  0  0  0  0  0  0  0  0
   53.4650   30.9200   51.2260 C   0  0  0  0  0  0  0  0  0  0  0  0
   52.2200   31.4650   51.7840 C   0  0  0  0  0  0  0  0  0  0  0  0
   51.8440   31.2920   53.0630 N   0  0  0  0  0  0  0  0  0  0  0  0
   50.7230   32.0380   53.1630 C   0  0  0  0  0  0  0  0  0  0  0  0
   50.0580   32.1220   54.2280 O   0  0  0  0  0  0  0  0  0  0  0  0
   50.3780   32.6990   52.0360 N   0  0  0  0  0  0  0  0  0  0  0  0
   51.3440   32.3400   51.1740 C   0  0  0  0  0  0  0  0  0  0  0  0
   51.4250   32.8250   49.8710 O   0  0  0  0  0  0  0  0  0  0  0  0
   55.5920   31.6030   52.0750 C   0  0  0  0  0  0  0  0  0  0  0  0
   56.6250   30.9860   52.7480 C   0  0  0  0  0  0  0  0  0  0  0  0
   57.9080   31.6500   53.0490 C   0  0  0  0  0  0  0  0  0  0  0  0
   58.0380   32.2980   54.1210 O   0  0  0  0  0  0  0  0  0  0  0  0
   58.9770   31.6440   52.0870 N   0  0  0  0  0  0  0  0  0  0  0  0
   59.7560   32.8710   51.8740 C   0  0  0  0  0  0  0  0  0  0  0  0
   60.7210   32.7290   50.6910 C   0  0  0  0  0  0  0  0  0  0  0  0
   60.0590   32.0200   49.5880 N   0  0  0  0  0  0  0  0  0  0  0  0
   60.2690   32.4550   48.2340 C   0  0  0  0  0  0  0  0  0  0  0  0
   61.4280   32.7860   47.8650 O   0  0  0  0  0  0  0  0  0  0  0  0
   59.1460   32.5310   47.2720 C   0  0  0  0  0  0  0  0  0  0  0  0
   58.3720   33.6980   47.1820 C   0  0  0  0  0  0  0  0  0  0  0  0
   57.3180   33.7750   46.2690 C   0  0  0  0  0  0  0  0  0  0  0  0
   57.0180   32.6870   45.4480 C   0  0  0  0  0  0  0  0  0  0  0  0
   57.7570   31.4970   45.5450 C   0  0  0  0  0  0  0  0  0  0  0  0
   57.4400   30.3460   44.6230 C   0  0  0  0  0  0  0  0  0  0  0  0
   56.1760   29.8560   44.9000 F   0  0  0  0  0  0  0  0  0  0  0  0
   57.4740   30.7890   43.3150 F   0  0  0  0  0  0  0  0  0  0  0  0
   58.3490   29.3130   44.7690 F   0  0  0  0  0  0  0  0  0  0  0  0
   58.8250   31.4280   46.4600 C   0  0  0  0  0  0  0  0  0  0  0  0
   59.3720   30.7420   49.8390 C   0  0  0  0  0  0  0  0  0  0  0  0
   59.3070   30.4250   51.3360 C   0  0  0  0  0  0  0  0  0  0  0  0
   56.2980   29.7060   53.0500 N   0  0  0  0  0  0  0  0  0  0  0  0
   57.1940   28.7050   53.6530 C   0  0  0  0  0  0  0  0  0  0  0  0
   57.3000   28.9280   55.1580 C   0  0  0  0  0  0  0  0  0  0  0  0
   54.8285   27.5068   53.2552 H   0  0  0  0  0  0  0  0  0  0  0  0
   53.3256   28.2729   52.3695 H   0  0  0  0  0  0  0  0  0  0  0  0
   53.4766   30.7028   50.1477 H   0  0  0  0  0  0  0  0  0  0  0  0
   52.3180   33.0050   49.4290 H   0  0  0  0  0  0  0  0  0  0  0  0
   55.5674   32.6474   51.7306 H   0  0  0  0  0  0  0  0  0  0  0  0
   59.0645   33.7024   51.6727 H   0  0  0  0  0  0  0  0  0  0  0  0
   60.3489   33.0637   52.7803 H   0  0  0  0  0  0  0  0  0  0  0  0
   61.0289   33.7283   50.3495 H   0  0  0  0  0  0  0  0  0  0  0  0
   61.6043   32.1568   51.0109 H   0  0  0  0  0  0  0  0  0  0  0  0
   58.5964   34.5557   47.8332 H   0  0  0  0  0  0  0  0  0  0  0  0
   56.7220   34.6967   46.1967 H   0  0  0  0  0  0  0  0  0  0  0  0
   56.1969   32.7622   44.7199 H   0  0  0  0  0  0  0  0  0  0  0  0
   59.4141   30.5026   46.5407 H   0  0  0  0  0  0  0  0  0  0  0  0
   58.3481   30.8024   49.4415 H   0  0  0  0  0  0  0  0  0  0  0  0
   59.9386   29.9416   49.3407 H   0  0  0  0  0  0  0  0  0  0  0  0
   58.5329   29.6644   51.5153 H   0  0  0  0  0  0  0  0  0  0  0  0
   60.2835   30.0446   51.6703 H   0  0  0  0  0  0  0  0  0  0  0  0
   56.7938   27.6982   53.4626 H   0  0  0  0  0  0  0  0  0  0  0  0
   58.1939   28.8039   53.2053 H   0  0  0  0  0  0  0  0  0  0  0  0
   56.8861   28.0573   55.6877 H   0  0  0  0  0  0  0  0  0  0  0  0
   58.3563   29.0582   55.4359 H   0  0  0  0  0  0  0  0  0  0  0  0
   56.7340   29.8293   55.4359 H   0  0  0  0  0  0  0  0  0  0  0  0
  1  2  2  0
  2  3  1  0
  3  4  2  3
  4  5  1  0
  5  6  1  0
  6  7  1  0
  7  8  2  0
  7  9  1  0
  9 10  1  0
 10 11  1  0
  3 12  1  0
 12 13  2  0
 13 14  1  0
 14 15  2  0
 14 16  1  0
 16 17  1  0
 17 18  1  0
 18 19  1  0
 19 20  1  0
 20 21  2  0
 20 22  1  0
 22 23  2  0
 23 24  1  0
 24 25  2  0
 25 26  1  0
 26 27  1  0
 27 28  1  0
 27 29  1  0
 27 30  1  0
 26 31  2  0
 19 32  1  0
 32 33  1  0
 13 34  1  0
 34 35  1  0
 35 36  1  0
 34  2  1  0
 10  5  2  0
 33 16  1  0
 31 22  1  0
  1 37  1  0
  1 38  1  0
  4 39  1  0
 11 40  1  0
 12 41  1  0
 17 42  1  0
 17 43  1  0
 18 44  1  0
 18 45  1  0
 23 46  1  0
 24 47  1  0
 25 48  1  0
 31 49  1  0
 32 50  1  0
 32 51  1  0
 33 52  1  0
 33 53  1  0
 35 54  1  0
 35 55  1  0
 36 56  1  0
 36 57  1  0
 36 58  1  0
M  CHG  2   6  -1   9  -1
M  END
>  <UniqueID>  (58) 
54

>  <SMILES>  (58) 
C=c1c(=Cc2[n-]c(=O)[n-]c2O)cc(C(=O)N2CCN(C(=O)c3cccc(C(F)(F)F)c3)CC2)n1CC

>  <Energy>  (58) 
138.591240886723

>  <Genealogy>  (58) 
C=c1c(=Cc2[n-]c(=O)[n-]c2O)cc(C(=O)N2CCN(C(=O)c3cccc(C(F)(F)F)c3)CC2)n1CC (protonated)
C=c1c(=Cc2[n-]c(=O)[n-]c2O)cc(C(=O)N2CCN(C(=O)c3cccc(C(F)(F)F)c3)CC2)n1CC (3D coordinates assigned)
C=c1c(=Cc2[n-]c(=O)[n-]c2O)cc(C(=O)N2CCN(C(=O)c3cccc(C(F)(F)F)c3)CC2)n1CC (nonaromatic ring conformer: 138.591240886723 kcal/mol)

>  <smiles>  (58) 
C=c1c(=Cc2[nH]c(=O)[nH]c2O)cc(C(=O)N2CCN(C(=O)c3cccc(C(F)(F)F)c3)CC2)n1CC

>  <score_type>  (58) 
oracle

>  <origin>  (58) 
adg

>  <m_score__min__energy>  (58) 
-14.17

>  <m_primary>  (58) 
energy

$$$$
58:0
     RDKit          3D

 53 55  0  0  0  0  0  0  0  0999 V2000
   58.5390   26.6370   47.1940 O   0  0  0  0  0  0  0  0  0  0  0  0
   58.1450   27.1890   46.1300 C   0  0  0  0  0  0  0  0  0  0  0  0
   59.0500   28.1570   45.4320 C   0  0  0  0  0  0  0  0  0  0  0  0
   58.2770   28.9650   44.4970 N   0  0  0  0  0  0  0  0  0  0  0  0
   57.3240   29.9680   44.8720 C   0  0  0  0  0  0  0  0  0  0  0  0
   56.1200   29.6320   45.0240 O   0  0  0  0  0  0  0  0  0  0  0  0
   57.7120   31.3700   45.1210 C   0  0  0  0  0  0  0  0  0  0  0  0
   57.4030   32.3790   44.1950 C   0  0  0  0  0  0  0  0  0  0  0  0
   57.7580   33.7050   44.4550 C   0  0  0  0  0  0  0  0  0  0  0  0
   58.4100   34.0370   45.6460 C   0  0  0  0  0  0  0  0  0  0  0  0
   58.6960   33.0450   46.5930 C   0  0  0  0  0  0  0  0  0  0  0  0
   59.5170   33.4650   48.1020 S   0  0  0  0  0  0  0  0  0  0  0  0
   58.8390   32.7590   49.2420 O   0  0  0  0  0  0  0  0  0  0  0  0
   59.3910   34.9460   48.3310 O   0  0  0  0  0  0  0  0  0  0  0  0
   61.2120   33.0330   48.0950 N   0  0  0  0  0  0  0  0  0  0  0  0
   61.8300   33.2560   46.7900 C   0  0  0  0  0  0  0  0  0  0  0  0
   63.3140   33.4460   47.0500 C   0  0  0  0  0  0  0  0  0  0  0  0
   63.4170   33.8550   48.5120 C   0  0  0  0  0  0  0  0  0  0  0  0
   61.9890   33.8360   49.0370 C   0  0  0  0  0  0  0  0  0  0  0  0
   58.3470   31.7130   46.3260 C   0  0  0  0  0  0  0  0  0  0  0  0
   56.8250   26.9380   45.6210 N   0  0  0  0  0  0  0  0  0  0  0  0
   55.9150   25.9830   46.1820 C   0  0  0  0  0  0  0  0  0  0  0  0
   56.2720   25.2400   47.1380 O   0  0  0  0  0  0  0  0  0  0  0  0
   54.6260   25.8790   45.6490 O   0  0  0  0  0  0  0  0  0  0  0  0
   54.0340   24.6400   45.2640 C   0  0  0  0  0  0  0  0  0  0  0  0
   55.0880   23.6760   44.7910 C   0  0  0  0  0  0  0  0  0  0  0  0
   55.6150   22.7050   45.6610 C   0  0  0  0  0  0  0  0  0  0  0  0
   56.5790   21.8010   45.2040 C   0  0  0  0  0  0  0  0  0  0  0  0
   57.0230   21.8590   43.8800 C   0  0  0  0  0  0  0  0  0  0  0  0
   56.5020   22.8210   43.0090 C   0  0  0  0  0  0  0  0  0  0  0  0
   55.5360   23.7260   43.4610 C   0  0  0  0  0  0  0  0  0  0  0  0
   59.5266   28.8132   46.1752 H   0  0  0  0  0  0  0  0  0  0  0  0
   59.8228   27.6010   44.8809 H   0  0  0  0  0  0  0  0  0  0  0  0
   56.8796   32.1247   43.2615 H   0  0  0  0  0  0  0  0  0  0  0  0
   57.5238   34.4897   43.7206 H   0  0  0  0  0  0  0  0  0  0  0  0
   58.6994   35.0803   45.8403 H   0  0  0  0  0  0  0  0  0  0  0  0
   61.6657   32.3863   46.1368 H   0  0  0  0  0  0  0  0  0  0  0  0
   61.3963   34.1323   46.2860 H   0  0  0  0  0  0  0  0  0  0  0  0
   63.8593   32.5072   46.8733 H   0  0  0  0  0  0  0  0  0  0  0  0
   63.7539   34.2006   46.3814 H   0  0  0  0  0  0  0  0  0  0  0  0
   64.0415   33.1407   49.0686 H   0  0  0  0  0  0  0  0  0  0  0  0
   63.8832   34.8445   48.6287 H   0  0  0  0  0  0  0  0  0  0  0  0
   61.9583   33.3825   50.0387 H   0  0  0  0  0  0  0  0  0  0  0  0
   61.5824   34.8546   49.1217 H   0  0  0  0  0  0  0  0  0  0  0  0
   58.5723   30.9309   47.0660 H   0  0  0  0  0  0  0  0  0  0  0  0
   56.4960   27.4850   44.7930 H   0  0  0  0  0  0  0  0  0  0  0  0
   53.5083   24.2064   46.1275 H   0  0  0  0  0  0  0  0  0  0  0  0
   53.3264   24.8243   44.4422 H   0  0  0  0  0  0  0  0  0  0  0  0
   55.2680   22.6565   46.7037 H   0  0  0  0  0  0  0  0  0  0  0  0
   56.9886   21.0429   45.8877 H   0  0  0  0  0  0  0  0  0  0  0  0
   57.7824   21.1478   43.5230 H   0  0  0  0  0  0  0  0  0  0  0  0
   56.8522   22.8661   41.9672 H   0  0  0  0  0  0  0  0  0  0  0  0
   55.1259   24.4794   42.7724 H   0  0  0  0  0  0  0  0  0  0  0  0
  1  2  2  0
  2  3  1  0
  3  4  1  0
  4  5  1  0
  5  6  2  0
  5  7  1  0
  7  8  2  0
  8  9  1  0
  9 10  2  0
 10 11  1  0
 11 12  1  0
 12 13  2  0
 12 14  2  0
 12 15  1  0
 15 16  1  0
 16 17  1  0
 17 18  1  0
 18 19  1  0
 11 20  2  0
  2 21  1  0
 21 22  1  0
 22 23  2  0
 22 24  1  0
 24 25  1  0
 25 26  1  0
 26 27  2  0
 27 28  1  0
 28 29  2  0
 29 30  1  0
 30 31  2  0
 20  7  1  0
 31 26  1  0
 19 15  1  0
  3 32  1  0
  3 33  1  0
  8 34  1  0
  9 35  1  0
 10 36  1  0
 16 37  1  0
 16 38  1  0
 17 39  1  0
 17 40  1  0
 18 41  1  0
 18 42  1  0
 19 43  1  0
 19 44  1  0
 20 45  1  0
 21 46  1  0
 25 47  1  0
 25 48  1  0
 27 49  1  0
 28 50  1  0
 29 51  1  0
 30 52  1  0
 31 53  1  0
M  CHG  1   4  -1
M  END
>  <UniqueID>  (59) 
55

>  <SMILES>  (59) 
O=C(C[N-]C(=O)c1cccc(S(=O)(=O)N2CCCC2)c1)NC(=O)OCc1ccccc1

>  <Energy>  (59) 
55.95091324333487

>  <Genealogy>  (59) 
O=C(C[N-]C(=O)c1cccc(S(=O)(=O)N2CCCC2)c1)NC(=O)OCc1ccccc1 (protonated)
O=C(C[N-]C(=O)c1cccc(S(=O)(=O)N2CCCC2)c1)NC(=O)OCc1ccccc1 (3D coordinates assigned)
O=C(C[N-]C(=O)c1cccc(S(=O)(=O)N2CCCC2)c1)NC(=O)OCc1ccccc1 (nonaromatic ring conformer: 55.95091324333487 kcal/mol)

>  <smiles>  (59) 
O=C(CNC(=O)c1cccc(S(=O)(=O)N2CCCC2)c1)NC(=O)OCc1ccccc1

>  <score_type>  (59) 
oracle

>  <origin>  (59) 
adg

>  <m_score__min__energy>  (59) 
-11.640000000000001

>  <m_primary>  (59) 
energy

$$$$
59:0
     RDKit          3D

 41 44  0  0  0  0  0  0  0  0999 V2000
   59.6271   30.9980   44.4923 H   0  0  0  0  0  0  0  0  0  0  0  0
   58.6080   30.5840   44.4930 C   0  0  0  0  0  0  0  0  0  0  0  0
   58.4040   29.2810   44.8200 N   0  0  0  0  0  0  0  0  0  0  0  0
   57.1590   28.7220   44.8350 C   0  0  0  0  0  0  0  0  0  0  0  0
   56.9900   27.4680   45.1440 N   0  0  0  0  0  0  0  0  0  0  0  0
   57.2210   26.8830   46.4370 C   0  0  0  0  0  0  0  0  0  0  0  0
   56.3740   26.0710   46.8930 O   0  0  0  0  0  0  0  0  0  0  0  0
   58.3940   27.2520   47.2650 C   0  0  0  0  0  0  0  0  0  0  0  0
   59.4570   26.3520   47.4340 C   0  0  0  0  0  0  0  0  0  0  0  0
   59.4088   25.3545   46.9729 H   0  0  0  0  0  0  0  0  0  0  0  0
   60.5770   26.7180   48.1860 C   0  0  0  0  0  0  0  0  0  0  0  0
   61.4059   26.0066   48.3159 H   0  0  0  0  0  0  0  0  0  0  0  0
   60.6480   27.9830   48.7730 C   0  0  0  0  0  0  0  0  0  0  0  0
   61.5348   28.2657   49.3593 H   0  0  0  0  0  0  0  0  0  0  0  0
   59.5920   28.8960   48.6180 C   0  0  0  0  0  0  0  0  0  0  0  0
   59.6640   30.2650   49.2520 C   0  0  0  0  0  0  0  0  0  0  0  0
   58.6440   30.6615   49.3637 H   0  0  0  0  0  0  0  0  0  0  0  0
   60.1549   30.1668   50.2315 H   0  0  0  0  0  0  0  0  0  0  0  0
   60.4740   31.2230   48.4090 C   0  0  0  0  0  0  0  0  0  0  0  0
   61.8290   31.1230   48.4600 N   0  0  0  0  0  0  0  0  0  0  0  0
   62.6290   31.9500   47.7880 N   0  0  0  0  0  0  0  0  0  0  0  0
   62.1360   32.9490   47.0160 C   0  0  0  0  0  0  0  0  0  0  0  0
   62.9370   33.7080   46.4060 O   0  0  0  0  0  0  0  0  0  0  0  0
   60.7480   33.1230   46.9120 C   0  0  0  0  0  0  0  0  0  0  0  0
   60.1970   34.1530   46.1270 C   0  0  0  0  0  0  0  0  0  0  0  0
   60.8601   34.8319   45.5708 H   0  0  0  0  0  0  0  0  0  0  0  0
   58.8130   34.3170   46.0510 C   0  0  0  0  0  0  0  0  0  0  0  0
   58.3895   35.1272   45.4393 H   0  0  0  0  0  0  0  0  0  0  0  0
   57.9660   33.4570   46.7480 C   0  0  0  0  0  0  0  0  0  0  0  0
   56.8760   33.5901   46.6834 H   0  0  0  0  0  0  0  0  0  0  0  0
   58.4960   32.4270   47.5280 C   0  0  0  0  0  0  0  0  0  0  0  0
   57.8195   31.7520   48.0728 H   0  0  0  0  0  0  0  0  0  0  0  0
   59.8910   32.2450   47.6230 C   0  0  0  0  0  0  0  0  0  0  0  0
   58.4530   28.5080   47.8940 C   0  0  0  0  0  0  0  0  0  0  0  0
   57.5970   29.1947   47.8181 H   0  0  0  0  0  0  0  0  0  0  0  0
   56.0500   29.5090   44.4870 C   0  0  0  0  0  0  0  0  0  0  0  0
   54.7690   28.9670   44.4780 O   0  0  0  0  0  0  0  0  0  0  0  0
   56.2390   30.8530   44.1550 C   0  0  0  0  0  0  0  0  0  0  0  0
   55.3757   31.4817   43.8915 H   0  0  0  0  0  0  0  0  0  0  0  0
   57.5240   31.3970   44.1580 C   0  0  0  0  0  0  0  0  0  0  0  0
   57.6809   32.4546   43.8993 H   0  0  0  0  0  0  0  0  0  0  0  0
  1  2  1  0
  2  3  1  0
  3  4  1  0
  4  5  2  0
  5  6  1  0
  6  7  2  0
  6  8  1  0
  8  9  2  0
  9 10  1  0
  9 11  1  0
 11 12  1  0
 11 13  2  0
 13 14  1  0
 13 15  1  0
 15 16  1  0
 16 17  1  0
 16 18  1  0
 16 19  1  0
 19 20  2  0
 20 21  1  0
 21 22  1  0
 22 23  2  0
 22 24  1  0
 24 25  2  0
 25 26  1  0
 25 27  1  0
 27 28  1  0
 27 29  2  0
 29 30  1  0
 29 31  1  0
 31 32  1  0
 31 33  2  0
 15 34  2  0
 34 35  1  0
  4 36  1  0
 36 37  1  0
 36 38  2  0
 38 39  1  0
 38 40  1  0
 40 41  1  0
 40  2  2  0
 34  8  1  0
 33 19  1  0
 33 24  1  0
M  CHG  3   3  -1  21  -1  37  -1
M  END
>  <UniqueID>  (60) 
56

>  <SMILES>  (60) 
O=C(/N=c1\[n-]cccc1[O-])c1cccc(Cc2n[n-]c(=O)c3ccccc23)c1

>  <Energy>  (60) 
57.79209136138573

>  <Genealogy>  (60) 
O=C(N=c1[n-]cccc1[O-])c1cccc(Cc2n[n-]c(=O)c3ccccc23)c1 (protonated)
O=C(/N=c1\[n-]cccc1[O-])c1cccc(Cc2n[n-]c(=O)c3ccccc23)c1 (cis-trans isomerization)
O=C(/N=c1\[n-]cccc1[O-])c1cccc(Cc2n[n-]c(=O)c3ccccc23)c1 (3D coordinates assigned)
O=C(/N=c1\[n-]cccc1[O-])c1cccc(Cc2n[n-]c(=O)c3ccccc23)c1 (optimized conformer: 57.79209136138573 kcal/mol)

>  <smiles>  (60) 
O=C(N=c1[nH]cccc1O)c1cccc(Cc2n[nH]c(=O)c3ccccc23)c1

>  <score_type>  (60) 
oracle

>  <origin>  (60) 
adg

>  <m_score__min__energy>  (60) 
-15.77

>  <m_primary>  (60) 
energy

$$$$
60:0
     RDKit          3D

 59 64  0  0  0  0  0  0  0  0999 V2000
   56.0330   29.5768   41.6858 H   0  0  0  0  0  0  0  0  0  0  0  0
   56.5770   29.8600   42.5990 C   0  0  0  0  0  0  0  0  0  0  0  0
   57.2510   28.9980   43.3990 N   0  0  0  0  0  0  0  0  0  0  0  0
   57.7430   29.7950   44.3690 C   0  0  0  0  0  0  0  0  0  0  0  0
   58.5120   29.4010   45.4630 C   0  0  0  0  0  0  0  0  0  0  0  0
   58.8600   28.1550   45.6110 N   0  0  0  0  0  0  0  0  0  0  0  0
   57.9960   27.0540   45.9400 C   0  0  0  0  0  0  0  0  0  0  0  0
   58.4910   25.8530   46.4840 C   0  0  0  0  0  0  0  0  0  0  0  0
   59.5713   25.7310   46.6514 H   0  0  0  0  0  0  0  0  0  0  0  0
   57.6130   24.8150   46.8120 C   0  0  0  0  0  0  0  0  0  0  0  0
   58.0060   23.8716   47.2188 H   0  0  0  0  0  0  0  0  0  0  0  0
   56.2380   24.9740   46.6240 C   0  0  0  0  0  0  0  0  0  0  0  0
   55.5503   24.1523   46.8727 H   0  0  0  0  0  0  0  0  0  0  0  0
   55.7360   26.1770   46.1200 C   0  0  0  0  0  0  0  0  0  0  0  0
   54.3680   26.3410   45.9510 O   0  0  0  0  0  0  0  0  0  0  0  0
   56.6130   27.2160   45.7880 C   0  0  0  0  0  0  0  0  0  0  0  0
   56.2133   28.1666   45.4050 H   0  0  0  0  0  0  0  0  0  0  0  0
   58.9190   30.3720   46.3340 N   0  0  0  0  0  0  0  0  0  0  0  0
   58.5880   31.6920   46.1730 C   0  0  0  0  0  0  0  0  0  0  0  0
   59.0480   32.6880   47.1710 C   0  0  0  0  0  0  0  0  0  0  0  0
   59.3320   34.0040   46.7680 C   0  0  0  0  0  0  0  0  0  0  0  0
   59.2131   34.2889   45.7122 H   0  0  0  0  0  0  0  0  0  0  0  0
   59.7640   34.9530   47.6970 C   0  0  0  0  0  0  0  0  0  0  0  0
   59.9803   35.9810   47.3707 H   0  0  0  0  0  0  0  0  0  0  0  0
   59.9220   34.6010   49.0380 C   0  0  0  0  0  0  0  0  0  0  0  0
   60.2573   35.3542   49.7662 H   0  0  0  0  0  0  0  0  0  0  0  0
   59.6550   33.2910   49.4610 C   0  0  0  0  0  0  0  0  0  0  0  0
   59.8100   32.9340   50.8850 C   0  0  0  0  0  0  0  0  0  0  0  0
   60.9310   32.5350   51.2960 O   0  0  0  0  0  0  0  0  0  0  0  0
   58.7210   33.0080   51.8170 N   0  0  0  0  0  0  0  0  0  0  0  0
   57.9730   31.8720   52.3530 C   0  0  0  0  0  0  0  0  0  0  0  0
   58.3554   30.9456   51.8995 H   0  0  0  0  0  0  0  0  0  0  0  0
   58.1044   31.8551   53.4450 H   0  0  0  0  0  0  0  0  0  0  0  0
   56.4750   31.9950   52.0490 C   0  0  0  0  0  0  0  0  0  0  0  0
   56.0722   32.8681   52.5833 H   0  0  0  0  0  0  0  0  0  0  0  0
   56.3513   32.1104   50.9621 H   0  0  0  0  0  0  0  0  0  0  0  0
   55.7200   30.7620   52.4840 C   0  0  0  0  0  0  0  0  0  0  0  0
   56.4190   29.7090   53.1010 C   0  0  0  0  0  0  0  0  0  0  0  0
   57.5007   29.8038   53.2769 H   0  0  0  0  0  0  0  0  0  0  0  0
   55.7550   28.5440   53.4930 C   0  0  0  0  0  0  0  0  0  0  0  0
   56.3143   27.7320   53.9807 H   0  0  0  0  0  0  0  0  0  0  0  0
   54.3850   28.4070   53.2680 C   0  0  0  0  0  0  0  0  0  0  0  0
   53.8653   27.4888   53.5793 H   0  0  0  0  0  0  0  0  0  0  0  0
   53.6710   29.4400   52.6450 C   0  0  0  0  0  0  0  0  0  0  0  0
   52.2980   29.3300   52.3990 C   0  0  0  0  0  0  0  0  0  0  0  0
   51.7532   28.4216   52.6955 H   0  0  0  0  0  0  0  0  0  0  0  0
   51.6260   30.3790   51.7760 C   0  0  0  0  0  0  0  0  0  0  0  0
   50.5470   30.3099   51.5733 H   0  0  0  0  0  0  0  0  0  0  0  0
   52.3450   31.5200   51.4130 C   0  0  0  0  0  0  0  0  0  0  0  0
   51.7550   32.4790   50.8510 O   0  0  0  0  0  0  0  0  0  0  0  0
   53.6510   31.6020   51.6580 O   0  0  0  0  0  0  0  0  0  0  0  0
   54.3370   30.6240   52.2490 C   0  0  0  0  0  0  0  0  0  0  0  0
   59.1900   32.3480   48.5300 C   0  0  0  0  0  0  0  0  0  0  0  0
   58.9339   31.3324   48.8662 H   0  0  0  0  0  0  0  0  0  0  0  0
   57.7940   32.0630   45.0670 C   0  0  0  0  0  0  0  0  0  0  0  0
   57.4957   33.1094   44.9053 H   0  0  0  0  0  0  0  0  0  0  0  0
   57.4120   31.0840   44.2110 N   0  0  0  0  0  0  0  0  0  0  0  0
   56.6720   31.1480   43.0970 C   0  0  0  0  0  0  0  0  0  0  0  0
   56.2243   32.0529   42.6602 H   0  0  0  0  0  0  0  0  0  0  0  0
  1  2  1  0
  2  3  1  0
  3  4  2  0
  4  5  1  0
  5  6  2  0
  6  7  1  0
  7  8  2  0
  8  9  1  0
  8 10  1  0
 10 11  1  0
 10 12  2  0
 12 13  1  0
 12 14  1  0
 14 15  1  0
 14 16  2  0
 16 17  1  0
  5 18  1  0
 18 19  1  0
 19 20  1  0
 20 21  2  0
 21 22  1  0
 21 23  1  0
 23 24  1  0
 23 25  2  0
 25 26  1  0
 25 27  1  0
 27 28  1  0
 28 29  2  0
 28 30  1  0
 30 31  1  0
 31 32  1  0
 31 33  1  0
 31 34  1  0
 34 35  1  0
 34 36  1  0
 34 37  1  0
 37 38  2  0
 38 39  1  0
 38 40  1  0
 40 41  1  0
 40 42  2  0
 42 43  1  0
 42 44  1  0
 44 45  1  0
 45 46  1  0
 45 47  2  0
 47 48  1  0
 47 49  1  0
 49 50  2  0
 49 51  1  0
 51 52  1  0
 27 53  2  0
 53 54  1  0
 19 55  2  0
 55 56  1  0
 55 57  1  0
 57 58  1  0
 58 59  1  0
 58  2  2  0
 57  4  1  0
 16  7  1  0
 53 20  1  0
 52 37  1  0
 52 44  2  0
M  CHG  3  15  -1  18  -1  30  -1
M  END
>  <UniqueID>  (61) 
57

>  <SMILES>  (61) 
O=C([N-]CCc1cccc2ccc(=O)oc12)c1cccc(-c2cn3ccnc3/c(=N/c3cccc([O-])c3)[n-]2)c1

>  <Energy>  (61) 
118.2628452620698

>  <Genealogy>  (61) 
O=C([N-]CCc1cccc2ccc(=O)oc12)c1cccc(-c2cn3ccnc3c(=Nc3cccc([O-])c3)[n-]2)c1 (protonated)
O=C([N-]CCc1cccc2ccc(=O)oc12)c1cccc(-c2cn3ccnc3/c(=N/c3cccc([O-])c3)[n-]2)c1 (cis-trans isomerization)
O=C([N-]CCc1cccc2ccc(=O)oc12)c1cccc(-c2cn3ccnc3/c(=N/c3cccc([O-])c3)[n-]2)c1 (3D coordinates assigned)
O=C([N-]CCc1cccc2ccc(=O)oc12)c1cccc(-c2cn3ccnc3/c(=N/c3cccc([O-])c3)[n-]2)c1 (optimized conformer: 118.2628452620698 kcal/mol)

>  <smiles>  (61) 
O=C(NCCc1cccc2ccc(=O)oc12)c1cccc(-c2cn3ccnc3c(=Nc3cccc(O)c3)[nH]2)c1

>  <score_type>  (61) 
oracle

>  <origin>  (61) 
adg

>  <m_score__min__energy>  (61) 
-17.350000000000001

>  <m_primary>  (61) 
energy

$$$$
61:0
     RDKit          3D

 49 50  0  0  0  0  0  0  0  0999 V2000
   59.2910   22.2250   44.5160 C   0  0  0  0  0  0  0  0  0  0  0  0
   58.1760   21.5040   44.6270 C   0  0  0  0  0  0  0  0  0  0  0  0
   56.7420   21.9110   43.6920 S   0  0  0  0  0  0  0  0  0  0  0  0
   56.5320   20.8580   42.6400 O   0  0  0  0  0  0  0  0  0  0  0  0
   55.5380   21.9480   44.5900 O   0  0  0  0  0  0  0  0  0  0  0  0
   56.9410   23.4560   42.9280 N   0  0  0  0  0  0  0  0  0  0  0  0
   57.1390   24.6920   43.6400 C   0  0  0  0  0  0  0  0  0  0  0  0
   56.6950   24.8710   44.9630 C   0  0  0  0  0  0  0  0  0  0  0  0
   56.9060   26.0850   45.6240 C   0  0  0  0  0  0  0  0  0  0  0  0
   57.5620   27.1450   44.9720 C   0  0  0  0  0  0  0  0  0  0  0  0
   57.7960   28.3810   45.5920 O   0  0  0  0  0  0  0  0  0  0  0  0
   58.3710   29.5110   44.9420 C   0  0  0  0  0  0  0  0  0  0  0  0
   57.5540   30.7330   45.2390 C   0  0  0  0  0  0  0  0  0  0  0  0
   56.5930   31.0300   44.4810 O   0  0  0  0  0  0  0  0  0  0  0  0
   57.8130   31.5610   46.3820 N   0  0  0  0  0  0  0  0  0  0  0  0
   58.8040   32.5910   46.4810 C   0  0  0  0  0  0  0  0  0  0  0  0
   58.4820   33.9450   46.2840 C   0  0  0  0  0  0  0  0  0  0  0  0
   59.4680   34.9270   46.4120 C   0  0  0  0  0  0  0  0  0  0  0  0
   60.7750   34.5710   46.7510 C   0  0  0  0  0  0  0  0  0  0  0  0
   61.1010   33.2270   46.9780 C   0  0  0  0  0  0  0  0  0  0  0  0
   62.7510   32.7740   47.4100 S   0  0  0  0  0  0  0  0  0  0  0  0
   62.8780   31.2760   47.3780 O   0  0  0  0  0  0  0  0  0  0  0  0
   63.7030   33.3420   46.3940 O   0  0  0  0  0  0  0  0  0  0  0  0
   63.1820   33.3580   48.9990 N   0  0  0  0  0  0  0  0  0  0  0  0
   62.3410   32.7110   50.0140 C   0  0  0  0  0  0  0  0  0  0  0  0
   64.5990   33.0800   49.2650 C   0  0  0  0  0  0  0  0  0  0  0  0
   60.1090   32.2430   46.8520 C   0  0  0  0  0  0  0  0  0  0  0  0
   58.0000   26.9670   43.6560 C   0  0  0  0  0  0  0  0  0  0  0  0
   57.7890   25.7550   42.9950 C   0  0  0  0  0  0  0  0  0  0  0  0
   60.1795   21.9583   45.1071 H   0  0  0  0  0  0  0  0  0  0  0  0
   59.3229   23.0869   43.8333 H   0  0  0  0  0  0  0  0  0  0  0  0
   58.1516   20.6435   45.3118 H   0  0  0  0  0  0  0  0  0  0  0  0
   56.9580   23.4660   41.8830 H   0  0  0  0  0  0  0  0  0  0  0  0
   56.1781   24.0499   45.4812 H   0  0  0  0  0  0  0  0  0  0  0  0
   56.5571   26.2119   46.6595 H   0  0  0  0  0  0  0  0  0  0  0  0
   59.3979   29.6598   45.3070 H   0  0  0  0  0  0  0  0  0  0  0  0
   58.3873   29.3380   43.8558 H   0  0  0  0  0  0  0  0  0  0  0  0
   57.4514   34.2323   46.0285 H   0  0  0  0  0  0  0  0  0  0  0  0
   59.2136   35.9841   46.2451 H   0  0  0  0  0  0  0  0  0  0  0  0
   61.5499   35.3466   46.8400 H   0  0  0  0  0  0  0  0  0  0  0  0
   62.6992   32.9866   51.0169 H   0  0  0  0  0  0  0  0  0  0  0  0
   61.2992   33.0427   49.8927 H   0  0  0  0  0  0  0  0  0  0  0  0
   62.3945   31.6190   49.8927 H   0  0  0  0  0  0  0  0  0  0  0  0
   64.7685   33.0468   50.3514 H   0  0  0  0  0  0  0  0  0  0  0  0
   64.8721   32.1112   48.8215 H   0  0  0  0  0  0  0  0  0  0  0  0
   65.2179   33.8738   48.8215 H   0  0  0  0  0  0  0  0  0  0  0  0
   60.3582   31.1893   47.0462 H   0  0  0  0  0  0  0  0  0  0  0  0
   58.5152   27.7887   43.1369 H   0  0  0  0  0  0  0  0  0  0  0  0
   58.1359   25.6326   41.9583 H   0  0  0  0  0  0  0  0  0  0  0  0
  1  2  2  0
  2  3  1  0
  3  4  2  0
  3  5  2  0
  3  6  1  0
  6  7  1  0
  7  8  2  0
  8  9  1  0
  9 10  2  0
 10 11  1  0
 11 12  1  0
 12 13  1  0
 13 14  2  0
 13 15  1  0
 15 16  1  0
 16 17  2  0
 17 18  1  0
 18 19  2  0
 19 20  1  0
 20 21  1  0
 21 22  2  0
 21 23  2  0
 21 24  1  0
 24 25  1  0
 24 26  1  0
 20 27  2  0
 10 28  1  0
 28 29  2  0
 29  7  1  0
 27 16  1  0
  1 30  1  0
  1 31  1  0
  2 32  1  0
  6 33  1  0
  8 34  1  0
  9 35  1  0
 12 36  1  0
 12 37  1  0
 17 38  1  0
 18 39  1  0
 19 40  1  0
 25 41  1  0
 25 42  1  0
 25 43  1  0
 26 44  1  0
 26 45  1  0
 26 46  1  0
 27 47  1  0
 28 48  1  0
 29 49  1  0
M  CHG  1  15  -1
M  END
>  <UniqueID>  (62) 
58

>  <SMILES>  (62) 
C=CS(=O)(=O)Nc1ccc(OCC(=O)[N-]c2cccc(S(=O)(=O)N(C)C)c2)cc1

>  <Energy>  (62) 
51.19842342171081

>  <Genealogy>  (62) 
C=CS(=O)(=O)Nc1ccc(OCC(=O)[N-]c2cccc(S(=O)(=O)N(C)C)c2)cc1 (protonated)
C=CS(=O)(=O)Nc1ccc(OCC(=O)[N-]c2cccc(S(=O)(=O)N(C)C)c2)cc1 (3D coordinates assigned)
C=CS(=O)(=O)Nc1ccc(OCC(=O)[N-]c2cccc(S(=O)(=O)N(C)C)c2)cc1 (optimized conformer: 51.19842342171081 kcal/mol)

>  <smiles>  (62) 
C=CS(=O)(=O)Nc1ccc(OCC(=O)Nc2cccc(S(=O)(=O)N(C)C)c2)cc1

>  <score_type>  (62) 
oracle

>  <origin>  (62) 
adg

>  <m_score__min__energy>  (62) 
-10.460000000000001

>  <m_primary>  (62) 
energy

$$$$
62:0
     RDKit          3D

 52 55  0  0  0  0  0  0  0  0999 V2000
   52.1738   28.2506   53.4435 H   0  0  0  0  0  0  0  0  0  0  0  0
   53.2560   28.1760   53.6260 C   0  0  0  0  0  0  0  0  0  0  0  0
   53.6444   27.4273   54.3322 H   0  0  0  0  0  0  0  0  0  0  0  0
   54.1000   28.9960   52.9890 C   0  0  0  0  0  0  0  0  0  0  0  0
   53.7790   30.0040   52.0740 C   0  0  0  0  0  0  0  0  0  0  0  0
   52.5460   30.3350   51.6370 C   0  0  0  0  0  0  0  0  0  0  0  0
   52.1537   29.7843   50.7693 H   0  0  0  0  0  0  0  0  0  0  0  0
   51.6780   31.3770   52.2280 C   0  0  0  0  0  0  0  0  0  0  0  0
   51.3660   31.4980   53.5310 N   0  0  0  0  0  0  0  0  0  0  0  0
   50.5150   32.5460   53.5570 C   0  0  0  0  0  0  0  0  0  0  0  0
   49.9970   32.9730   54.6220 O   0  0  0  0  0  0  0  0  0  0  0  0
   50.2580   33.0970   52.3530 N   0  0  0  0  0  0  0  0  0  0  0  0
   50.9970   32.3420   51.5230 C   0  0  0  0  0  0  0  0  0  0  0  0
   51.0470   32.5320   50.1480 O   0  0  0  0  0  0  0  0  0  0  0  0
   54.9920   30.5730   51.6990 C   0  0  0  0  0  0  0  0  0  0  0  0
   55.1377   31.4046   50.9938 H   0  0  0  0  0  0  0  0  0  0  0  0
   55.9780   29.8900   52.3850 C   0  0  0  0  0  0  0  0  0  0  0  0
   57.4260   30.1580   52.3160 C   0  0  0  0  0  0  0  0  0  0  0  0
   58.1920   29.2460   51.9010 O   0  0  0  0  0  0  0  0  0  0  0  0
   57.9750   31.4390   52.6800 N   0  0  0  0  0  0  0  0  0  0  0  0
   57.2870   32.6730   52.2690 C   0  0  0  0  0  0  0  0  0  0  0  0
   56.8524   32.5221   51.2698 H   0  0  0  0  0  0  0  0  0  0  0  0
   56.5058   32.8918   53.0118 H   0  0  0  0  0  0  0  0  0  0  0  0
   58.2460   33.8730   52.2180 C   0  0  0  0  0  0  0  0  0  0  0  0
   57.7814   34.6711   51.6203 H   0  0  0  0  0  0  0  0  0  0  0  0
   58.4303   34.1985   53.2524 H   0  0  0  0  0  0  0  0  0  0  0  0
   59.6110   33.5120   51.5880 C   0  0  0  0  0  0  0  0  0  0  0  0
   60.3083   34.3273   51.8310 H   0  0  0  0  0  0  0  0  0  0  0  0
   59.5070   33.4440   50.0700 C   0  0  0  0  0  0  0  0  0  0  0  0
   59.7480   34.5700   49.2600 C   0  0  0  0  0  0  0  0  0  0  0  0
   59.9907   35.5356   49.7277 H   0  0  0  0  0  0  0  0  0  0  0  0
   59.6820   34.4730   47.8700 C   0  0  0  0  0  0  0  0  0  0  0  0
   59.8590   35.3637   47.2493 H   0  0  0  0  0  0  0  0  0  0  0  0
   59.3920   33.2490   47.2640 C   0  0  0  0  0  0  0  0  0  0  0  0
   59.3273   33.1811   46.1680 H   0  0  0  0  0  0  0  0  0  0  0  0
   59.1830   32.1060   48.0490 C   0  0  0  0  0  0  0  0  0  0  0  0
   58.8530   30.7910   47.4000 C   0  0  0  0  0  0  0  0  0  0  0  0
   57.8348   30.8347   46.9861 H   0  0  0  0  0  0  0  0  0  0  0  0
   59.5758   30.5951   46.5943 H   0  0  0  0  0  0  0  0  0  0  0  0
   58.9290   29.7160   48.3820 N   0  0  0  0  0  0  0  0  0  0  0  0
   58.3820   30.0160   49.2220 H   0  0  0  0  0  0  0  0  0  0  0  0
   59.9250   29.6300   48.6930 H   0  0  0  0  0  0  0  0  0  0  0  0
   59.2330   32.2110   49.4480 C   0  0  0  0  0  0  0  0  0  0  0  0
   59.0558   31.3185   50.0662 H   0  0  0  0  0  0  0  0  0  0  0  0
   60.2570   32.2390   52.2150 C   0  0  0  0  0  0  0  0  0  0  0  0
   60.5028   31.5366   51.4049 H   0  0  0  0  0  0  0  0  0  0  0  0
   61.1519   32.5642   52.7658 H   0  0  0  0  0  0  0  0  0  0  0  0
   59.3390   31.5260   53.2170 C   0  0  0  0  0  0  0  0  0  0  0  0
   59.7219   30.5117   53.4030 H   0  0  0  0  0  0  0  0  0  0  0  0
   59.3197   32.0975   54.1567 H   0  0  0  0  0  0  0  0  0  0  0  0
   55.4350   28.9470   53.1760 N   0  0  0  0  0  0  0  0  0  0  0  0
   55.9540   28.2940   53.8050 H   0  0  0  0  0  0  0  0  0  0  0  0
  1  2  1  0
  2  3  1  0
  2  4  2  0
  4  5  1  0
  5  6  2  0
  6  7  1  0
  6  8  1  0
  8  9  1  0
  9 10  1  0
 10 11  2  0
 10 12  1  0
 12 13  1  0
 13 14  1  0
  5 15  1  0
 15 16  1  0
 15 17  2  0
 17 18  1  0
 18 19  2  0
 18 20  1  0
 20 21  1  0
 21 22  1  0
 21 23  1  0
 21 24  1  0
 24 25  1  0
 24 26  1  0
 24 27  1  0
 27 28  1  0
 27 29  1  0
 29 30  2  0
 30 31  1  0
 30 32  1  0
 32 33  1  0
 32 34  2  0
 34 35  1  0
 34 36  1  0
 36 37  1  0
 37 38  1  0
 37 39  1  0
 37 40  1  0
 40 41  1  0
 40 42  1  0
 36 43  2  0
 43 44  1  0
 27 45  1  0
 45 46  1  0
 45 47  1  0
 45 48  1  0
 48 49  1  0
 48 50  1  0
 17 51  1  0
 51 52  1  0
 51  4  1  0
 13  8  2  0
 48 20  1  0
 43 29  1  0
M  CHG  3   9  -1  12  -1  14  -1
M  END
>  <UniqueID>  (63) 
59

>  <SMILES>  (63) 
C=c1[nH]c(C(=O)N2CCC(c3cccc(CN)c3)CC2)c/c1=C\c1[n-]c(=O)[n-]c1[O-]

>  <Energy>  (63) 
121.87983438271803

>  <Genealogy>  (63) 
C=c1[nH]c(C(=O)N2CCC(c3cccc(CN)c3)CC2)cc1=Cc1[n-]c(=O)[n-]c1[O-] (protonated)
C=c1[nH]c(C(=O)N2CCC(c3cccc(CN)c3)CC2)c/c1=C\c1[n-]c(=O)[n-]c1[O-] (cis-trans isomerization)
C=c1[nH]c(C(=O)N2CCC(c3cccc(CN)c3)CC2)c/c1=C\c1[n-]c(=O)[n-]c1[O-] (3D coordinates assigned)
C=c1[nH]c(C(=O)N2CCC(c3cccc(CN)c3)CC2)c/c1=C\c1[n-]c(=O)[n-]c1[O-] (nonaromatic ring conformer: 121.87983438271803 kcal/mol)

>  <smiles>  (63) 
C=c1[nH]c(C(=O)N2CCC(c3cccc(CN)c3)CC2)cc1=Cc1[nH]c(=O)[nH]c1O

>  <score_type>  (63) 
oracle

>  <origin>  (63) 
adg

>  <m_score__min__energy>  (63) 
-18.489999999999998

>  <m_primary>  (63) 
energy

$$$$
63:0
     RDKit          3D

 57 60  0  0  0  0  0  0  0  0999 V2000
   55.8340   28.9060   53.0810 C   0  0  0  0  0  0  0  0  0  0  0  0
   56.6030   30.0350   52.5710 N   0  0  0  0  0  0  0  0  0  0  0  0
   57.0330   30.1310   51.3240 N   0  0  0  0  0  0  0  0  0  0  0  0
   57.7550   31.2690   51.2370 C   0  0  0  0  0  0  0  0  0  0  0  0
   58.3330   31.7280   50.0080 N   0  0  0  0  0  0  0  0  0  0  0  0
   59.0210   32.9800   49.8550 C   0  0  0  0  0  0  0  0  0  0  0  0
   59.4340   33.6050   50.8700 O   0  0  0  0  0  0  0  0  0  0  0  0
   59.3100   33.5100   48.5040 C   0  0  0  0  0  0  0  0  0  0  0  0
   60.5730   34.0500   48.2030 C   0  0  0  0  0  0  0  0  0  0  0  0
   60.8630   34.4870   46.9080 C   0  0  0  0  0  0  0  0  0  0  0  0
   59.8990   34.3890   45.9000 C   0  0  0  0  0  0  0  0  0  0  0  0
   58.6300   33.8680   46.1870 C   0  0  0  0  0  0  0  0  0  0  0  0
   57.5910   33.7610   45.1040 C   0  0  0  0  0  0  0  0  0  0  0  0
   57.8640   32.6700   44.2210 O   0  0  0  0  0  0  0  0  0  0  0  0
   57.6350   31.3150   44.5160 C   0  0  0  0  0  0  0  0  0  0  0  0
   56.3470   30.8020   44.3270 C   0  0  0  0  0  0  0  0  0  0  0  0
   56.0560   29.4740   44.6600 C   0  0  0  0  0  0  0  0  0  0  0  0
   54.7690   28.9820   44.4810 O   0  0  0  0  0  0  0  0  0  0  0  0
   57.0570   28.6430   45.1710 C   0  0  0  0  0  0  0  0  0  0  0  0
   58.3610   29.1340   45.3330 C   0  0  0  0  0  0  0  0  0  0  0  0
   59.4240   28.3060   45.8120 N   0  0  0  0  0  0  0  0  0  0  0  0
   59.4930   27.6460   47.4130 S   0  0  0  0  0  0  0  0  0  0  0  0
   60.8280   26.9840   47.6050 O   0  0  0  0  0  0  0  0  0  0  0  0
   58.4120   26.6210   47.6080 O   0  0  0  0  0  0  0  0  0  0  0  0
   59.3230   28.9650   48.6060 C   0  0  0  0  0  0  0  0  0  0  0  0
   60.5440   29.8430   48.5830 C   0  0  0  0  0  0  0  0  0  0  0  0
   61.1860   30.2010   49.7810 C   0  0  0  0  0  0  0  0  0  0  0  0
   62.2760   31.0770   49.7640 C   0  0  0  0  0  0  0  0  0  0  0  0
   62.7380   31.5960   48.5510 C   0  0  0  0  0  0  0  0  0  0  0  0
   62.1140   31.2360   47.3540 C   0  0  0  0  0  0  0  0  0  0  0  0
   61.0170   30.3680   47.3690 C   0  0  0  0  0  0  0  0  0  0  0  0
   58.6450   30.4620   44.9990 C   0  0  0  0  0  0  0  0  0  0  0  0
   58.3320   33.4600   47.4970 C   0  0  0  0  0  0  0  0  0  0  0  0
   57.7880   31.9220   52.4620 C   0  0  0  0  0  0  0  0  0  0  0  0
   57.0510   31.0900   53.2750 C   0  0  0  0  0  0  0  0  0  0  0  0
   56.8200   31.2810   54.4990 O   0  0  0  0  0  0  0  0  0  0  0  0
   55.8448   28.9219   54.1808 H   0  0  0  0  0  0  0  0  0  0  0  0
   54.7962   28.9778   52.7235 H   0  0  0  0  0  0  0  0  0  0  0  0
   56.2808   27.9666   52.7235 H   0  0  0  0  0  0  0  0  0  0  0  0
   58.3150   31.0660   49.1990 H   0  0  0  0  0  0  0  0  0  0  0  0
   61.3365   34.1288   48.9910 H   0  0  0  0  0  0  0  0  0  0  0  0
   61.8529   34.9095   46.6807 H   0  0  0  0  0  0  0  0  0  0  0  0
   60.1373   34.7217   44.8790 H   0  0  0  0  0  0  0  0  0  0  0  0
   56.6056   33.6071   45.5681 H   0  0  0  0  0  0  0  0  0  0  0  0
   57.6070   34.6915   44.5176 H   0  0  0  0  0  0  0  0  0  0  0  0
   55.5575   31.4469   43.9138 H   0  0  0  0  0  0  0  0  0  0  0  0
   56.8222   27.6041   45.4461 H   0  0  0  0  0  0  0  0  0  0  0  0
   58.4368   29.5677   48.3583 H   0  0  0  0  0  0  0  0  0  0  0  0
   59.2110   28.5301   49.6102 H   0  0  0  0  0  0  0  0  0  0  0  0
   60.8292   29.7900   50.7369 H   0  0  0  0  0  0  0  0  0  0  0  0
   62.7702   31.3578   50.7058 H   0  0  0  0  0  0  0  0  0  0  0  0
   63.5930   32.2880   48.5390 H   0  0  0  0  0  0  0  0  0  0  0  0
   62.4856   31.6354   46.3988 H   0  0  0  0  0  0  0  0  0  0  0  0
   60.5222   30.0952   46.4252 H   0  0  0  0  0  0  0  0  0  0  0  0
   59.6698   30.8444   45.1151 H   0  0  0  0  0  0  0  0  0  0  0  0
   57.3217   33.0973   47.7373 H   0  0  0  0  0  0  0  0  0  0  0  0
   58.2815   32.8707   52.7197 H   0  0  0  0  0  0  0  0  0  0  0  0
  1  2  1  0
  2  3  1  0
  3  4  1  0
  4  5  1  0
  5  6  1  0
  6  7  2  0
  6  8  1  0
  8  9  2  0
  9 10  1  0
 10 11  2  0
 11 12  1  0
 12 13  1  0
 13 14  1  0
 14 15  1  0
 15 16  2  0
 16 17  1  0
 17 18  1  0
 17 19  2  0
 19 20  1  0
 20 21  1  0
 21 22  1  0
 22 23  2  0
 22 24  2  0
 22 25  1  0
 25 26  1  0
 26 27  2  0
 27 28  1  0
 28 29  2  0
 29 30  1  0
 30 31  2  0
 20 32  2  0
 12 33  2  0
  4 34  2  0
 34 35  1  0
 35 36  2  0
 35  2  1  0
 33  8  1  0
 32 15  1  0
 31 26  1  0
  1 37  1  0
  1 38  1  0
  1 39  1  0
  5 40  1  0
  9 41  1  0
 10 42  1  0
 11 43  1  0
 13 44  1  0
 13 45  1  0
 16 46  1  0
 19 47  1  0
 25 48  1  0
 25 49  1  0
 27 50  1  0
 28 51  1  0
 29 52  1  0
 30 53  1  0
 31 54  1  0
 32 55  1  0
 33 56  1  0
 34 57  1  0
M  CHG  3   3  -1  18  -1  21  -1
M  END
>  <UniqueID>  (64) 
60

>  <SMILES>  (64) 
Cn1[n-]c(NC(=O)c2cccc(COc3cc([O-])cc([N-]S(=O)(=O)Cc4ccccc4)c3)c2)cc1=O

>  <Energy>  (64) 
93.58061325053234

>  <Genealogy>  (64) 
Cn1[n-]c(NC(=O)c2cccc(COc3cc([O-])cc([N-]S(=O)(=O)Cc4ccccc4)c3)c2)cc1=O (protonated)
Cn1[n-]c(NC(=O)c2cccc(COc3cc([O-])cc([N-]S(=O)(=O)Cc4ccccc4)c3)c2)cc1=O (3D coordinates assigned)
Cn1[n-]c(NC(=O)c2cccc(COc3cc([O-])cc([N-]S(=O)(=O)Cc4ccccc4)c3)c2)cc1=O (optimized conformer: 93.58061325053234 kcal/mol)

>  <smiles>  (64) 
Cn1[nH]c(NC(=O)c2cccc(COc3cc(O)cc(NS(=O)(=O)Cc4ccccc4)c3)c2)cc1=O

>  <score_type>  (64) 
oracle

>  <origin>  (64) 
adg

>  <m_score__min__energy>  (64) 
-14.369999999999999

>  <m_primary>  (64) 
energy

$$$$
64:0
     RDKit          3D

 27 28  0  0  0  0  0  0  0  0999 V2000
   58.2655   32.6520   43.5218 H   0  0  0  0  0  0  0  0  0  0  0  0
   57.5690   32.5420   44.3660 C   0  0  0  0  0  0  0  0  0  0  0  0
   56.7520   31.3650   44.4410 N   0  0  0  0  0  0  0  0  0  0  0  0
   57.1650   30.1370   44.5640 C   0  0  0  0  0  0  0  0  0  0  0  0
   57.3230   29.2760   46.0010 S   0  0  0  0  0  0  0  0  0  0  0  0
   57.8230   27.8540   45.2420 C   0  0  0  0  0  0  0  0  0  0  0  0
   58.1960   26.7730   45.9500 C   0  0  0  0  0  0  0  0  0  0  0  0
   59.2415   26.7328   46.2897 H   0  0  0  0  0  0  0  0  0  0  0  0
   57.3290   25.6380   46.3110 C   0  0  0  0  0  0  0  0  0  0  0  0
   57.7650   24.4720   46.8250 N   0  0  0  0  0  0  0  0  0  0  0  0
   56.6210   23.8160   47.1200 C   0  0  0  0  0  0  0  0  0  0  0  0
   56.6130   22.6600   47.6150 O   0  0  0  0  0  0  0  0  0  0  0  0
   55.4890   24.5020   46.8530 N   0  0  0  0  0  0  0  0  0  0  0  0
   55.9570   25.6570   46.3550 C   0  0  0  0  0  0  0  0  0  0  0  0
   55.1460   26.7120   45.9560 O   0  0  0  0  0  0  0  0  0  0  0  0
   57.7790   28.0800   43.8430 C   0  0  0  0  0  0  0  0  0  0  0  0
   57.9030   27.1410   42.8970 C   0  0  0  0  0  0  0  0  0  0  0  0
   58.1737   26.1119   43.1757 H   0  0  0  0  0  0  0  0  0  0  0  0
   57.7342   27.3985   41.8410 H   0  0  0  0  0  0  0  0  0  0  0  0
   57.4430   29.3580   43.4990 N   0  0  0  0  0  0  0  0  0  0  0  0
   57.3490   29.6930   42.5120 H   0  0  0  0  0  0  0  0  0  0  0  0
   57.5130   33.5100   45.2870 C   0  0  0  0  0  0  0  0  0  0  0  0
   56.5948   33.6439   45.8778 H   0  0  0  0  0  0  0  0  0  0  0  0
   58.6810   34.4130   45.5250 C   0  0  0  0  0  0  0  0  0  0  0  0
   58.8368   34.5334   46.6072 H   0  0  0  0  0  0  0  0  0  0  0  0
   59.5820   33.9743   45.0714 H   0  0  0  0  0  0  0  0  0  0  0  0
   58.4833   35.3954   45.0714 H   0  0  0  0  0  0  0  0  0  0  0  0
  1  2  1  0
  2  3  1  0
  3  4  2  3
  4  5  1  0
  5  6  1  0
  6  7  2  0
  7  8  1  0
  7  9  1  0
  9 10  1  0
 10 11  1  0
 11 12  2  0
 11 13  1  0
 13 14  1  0
 14 15  1  0
  6 16  1  0
 16 17  2  0
 17 18  1  0
 17 19  1  0
 16 20  1  0
 20 21  1  0
  2 22  2  3
 22 23  1  0
 22 24  1  0
 24 25  1  0
 24 26  1  0
 24 27  1  0
 20  4  1  0
 14  9  2  0
M  CHG  3  10  -1  13  -1  15  -1
M  END
>  <UniqueID>  (65) 
61

>  <SMILES>  (65) 
C=c1[nH]c(=NC=CC)s/c1=C/c1[n-]c(=O)[n-]c1[O-]

>  <Energy>  (65) 
102.98773999351754

>  <Genealogy>  (65) 
C=c1[nH]c(=NC=CC)sc1=Cc1[n-]c(=O)[n-]c1[O-] (protonated)
C=c1[nH]c(=NC=CC)s/c1=C/c1[n-]c(=O)[n-]c1[O-] (cis-trans isomerization)
C=c1[nH]c(=NC=CC)s/c1=C/c1[n-]c(=O)[n-]c1[O-] (3D coordinates assigned)
C=c1[nH]c(=NC=CC)s/c1=C/c1[n-]c(=O)[n-]c1[O-] (optimized conformer: 102.98773999351754 kcal/mol)

>  <smiles>  (65) 
C=c1[nH]c(=NC=CC)sc1=Cc1[nH]c(=O)[nH]c1O

>  <score_type>  (65) 
oracle

>  <origin>  (65) 
adg

>  <m_score__min__energy>  (65) 
-15.06

>  <m_primary>  (65) 
energy

$$$$
65:0
     RDKit          3D

 57 59  0  0  1  0  0  0  0  0999 V2000
   63.3530   33.8650   46.3440 C   0  0  0  0  0  0  0  0  0  0  0  0
   62.2930   33.7540   47.3950 C   0  0  0  0  0  0  0  0  0  0  0  0
   61.8040   32.0720   47.7200 S   0  0  0  0  0  0  0  0  0  0  0  0
   62.8180   31.1610   47.0800 O   0  0  0  0  0  0  0  0  0  0  0  0
   61.7120   31.7970   49.1830 O   0  0  0  0  0  0  0  0  0  0  0  0
   60.2910   31.8240   46.8800 C   0  0  0  0  0  0  0  0  0  0  0  0
   59.5090   32.9110   46.6330 C   0  0  0  0  0  0  0  0  0  0  0  0
   58.3210   32.6980   45.9700 C   0  0  0  0  0  0  0  0  0  0  0  0
   57.9390   31.4160   45.5700 C   0  0  0  0  0  0  0  0  0  0  0  0
   56.7340   31.3210   44.9160 O   0  0  0  0  0  0  0  0  0  0  0  0
   56.6660   30.8520   43.5970 C   0  0  0  0  0  0  0  0  0  0  0  0
   55.6460   29.7520   43.4020 C   0  0  0  0  0  0  0  0  0  0  0  0
   55.1920   29.3570   44.6380 F   0  0  0  0  0  0  0  0  0  0  0  0
   58.7190   30.3040   45.8100 C   0  0  0  0  0  0  0  0  0  0  0  0
   58.3680   28.9510   45.4130 C   0  0  0  0  0  0  0  0  0  0  0  0
   57.9510   28.0440   46.3750 C   0  0  0  0  0  0  0  0  0  0  0  0
   57.6010   26.7270   46.0410 C   0  0  0  0  0  0  0  0  0  0  0  0
   57.2160   25.8880   46.9330 N   0  0  0  0  0  0  0  0  0  0  0  0
   56.1570   25.0150   46.6300 C   0  0  0  0  0  0  0  0  0  0  0  0
   55.0890   25.4030   46.0470 O   0  0  0  0  0  0  0  0  0  0  0  0
   56.2250   23.5770   46.9750 C   0  0  0  0  0  0  0  0  0  0  0  0
   56.8830   22.8800   45.8400 C   0  0  0  0  0  0  0  0  0  0  0  0
   58.2420   23.1490   45.6350 C   0  0  0  0  0  0  0  0  0  0  0  0
   58.9140   22.5320   44.5940 C   0  0  0  0  0  0  0  0  0  0  0  0
   58.2430   21.6530   43.7600 C   0  0  0  0  0  0  0  0  0  0  0  0
   56.8850   21.3710   43.9480 C   0  0  0  0  0  0  0  0  0  0  0  0
   56.2340   20.4850   43.0990 O   0  0  0  0  0  0  0  0  0  0  0  0
   56.2210   22.0030   45.0040 C   0  0  0  0  0  0  0  0  0  0  0  0
   57.6660   26.3220   44.7720 N   0  0  0  0  0  0  0  0  0  0  0  0
   58.0700   27.2000   43.8360 C   0  0  0  0  0  0  0  0  0  0  0  0
   58.1350   26.7310   42.4260 C   0  0  0  0  0  0  0  0  0  0  0  0
   58.4120   28.4860   44.1590 N   0  0  0  0  0  0  0  0  0  0  0  0
   59.9140   30.5450   46.4810 C   0  0  0  0  0  0  0  0  0  0  0  0
   64.3369   33.9680   46.8250 H   0  0  0  0  0  0  0  0  0  0  0  0
   63.3441   32.9610   45.7173 H   0  0  0  0  0  0  0  0  0  0  0  0
   63.1570   34.7475   45.7173 H   0  0  0  0  0  0  0  0  0  0  0  0
   62.6773   34.1932   48.3274 H   0  0  0  0  0  0  0  0  0  0  0  0
   61.4057   34.2874   47.0234 H   0  0  0  0  0  0  0  0  0  0  0  0
   59.8141   33.9191   46.9504 H   0  0  0  0  0  0  0  0  0  0  0  0
   57.6624   33.5516   45.7520 H   0  0  0  0  0  0  0  0  0  0  0  0
   56.4004   31.6940   42.9409 H   0  0  0  0  0  0  0  0  0  0  0  0
   57.6511   30.4283   43.3520 H   0  0  0  0  0  0  0  0  0  0  0  0
   54.8053   30.1274   42.8000 H   0  0  0  0  0  0  0  0  0  0  0  0
   56.1042   28.9004   42.8778 H   0  0  0  0  0  0  0  0  0  0  0  0
   57.8931   28.3647   47.4256 H   0  0  0  0  0  0  0  0  0  0  0  0
   56.8134   23.4380   47.8940 H   0  0  0  0  0  0  0  0  0  0  0  0
   55.2178   23.1708   47.1497 H   0  0  0  0  0  0  0  0  0  0  0  0
   58.7731   23.8475   46.2983 H   0  0  0  0  0  0  0  0  0  0  0  0
   59.9815   22.7399   44.4290 H   0  0  0  0  0  0  0  0  0  0  0  0
   58.7867   21.1682   42.9358 H   0  0  0  0  0  0  0  0  0  0  0  0
   56.5530   19.5410   42.9310 H   0  0  0  0  0  0  0  0  0  0  0  0
   55.1533   21.7980   45.1714 H   0  0  0  0  0  0  0  0  0  0  0  0
   58.2860   25.6416   42.4086 H   0  0  0  0  0  0  0  0  0  0  0  0
   57.1939   26.9790   41.9133 H   0  0  0  0  0  0  0  0  0  0  0  0
   58.9732   27.2256   41.9133 H   0  0  0  0  0  0  0  0  0  0  0  0
   58.7030   29.0600   43.3670 H   0  0  0  0  0  0  0  0  0  0  0  0
   60.5810   29.6989   46.7028 H   0  0  0  0  0  0  0  0  0  0  0  0
  1  2  1  0
  2  3  1  0
  3  4  2  0
  3  5  2  0
  3  6  1  0
  6  7  2  0
  7  8  1  0
  8  9  2  0
  9 10  1  0
 10 11  1  0
 11 12  1  0
 12 13  1  0
  9 14  1  0
 14 15  1  0
 15 16  2  0
 16 17  1  0
 17 18  2  0
 18 19  1  0
 19 20  2  0
 19 21  1  0
 21 22  1  0
 22 23  2  0
 23 24  1  0
 24 25  2  0
 25 26  1  0
 26 27  1  0
 26 28  2  0
 17 29  1  0
 29 30  2  0
 30 31  1  0
 30 32  1  0
 14 33  2  0
 33  6  1  0
 32 15  1  0
 28 22  1  0
  1 34  1  0
  1 35  1  0
  1 36  1  0
  2 37  1  0
  2 38  1  0
  7 39  1  0
  8 40  1  0
 11 41  1  0
 11 42  1  0
 12 43  1  0
 12 44  1  0
 16 45  1  0
 21 46  1  0
 21 47  1  0
 23 48  1  0
 24 49  1  0
 25 50  1  0
 27 51  1  0
 28 52  1  0
 31 53  1  0
 31 54  1  0
 31 55  1  0
 32 56  1  0
 33 57  1  0
M  END
>  <smiles>  (66) 
CCS(=O)(=O)c1ccc(OCCF)c(-c2cc(=NC(=O)Cc3cccc(O)c3)nc(C)[nH]2)c1

>  <score_type>  (66) 
oracle

>  <origin>  (66) 
adg

>  <m_score__min__energy>  (66) 
-10.35

>  <m_primary>  (66) 
energy

$$$$
66:0
     RDKit          3D

 33 34  0  0  0  0  0  0  0  0999 V2000
   51.8230   23.6720   44.9230 C   0  0  0  0  0  0  0  0  0  0  0  0
   53.0480   22.9500   44.8590 O   0  0  0  0  0  0  0  0  0  0  0  0
   54.3190   23.5430   44.8060 C   0  0  0  0  0  0  0  0  0  0  0  0
   54.6630   24.6480   45.6090 C   0  0  0  0  0  0  0  0  0  0  0  0
   55.9450   25.2060   45.5130 C   0  0  0  0  0  0  0  0  0  0  0  0
   56.3240   26.3850   46.3680 C   0  0  0  0  0  0  0  0  0  0  0  0
   56.1910   27.6340   45.6140 N   0  0  0  0  0  0  0  0  0  0  0  0
   57.7020   28.0840   44.8730 S   0  0  0  0  0  0  0  0  0  0  0  0
   58.8260   27.3380   45.5370 O   0  0  0  0  0  0  0  0  0  0  0  0
   57.6530   27.7090   43.4190 O   0  0  0  0  0  0  0  0  0  0  0  0
   57.9730   29.8280   45.0020 C   0  0  0  0  0  0  0  0  0  0  0  0
   57.7100   30.6520   43.8960 C   0  0  0  0  0  0  0  0  0  0  0  0
   57.9170   32.0310   43.9740 C   0  0  0  0  0  0  0  0  0  0  0  0
   58.4000   32.6020   45.1520 C   0  0  0  0  0  0  0  0  0  0  0  0
   58.6840   34.4880   45.2550 Br  0  0  0  0  0  0  0  0  0  0  0  0
   58.6840   31.7910   46.2550 C   0  0  0  0  0  0  0  0  0  0  0  0
   58.4790   30.4070   46.1870 C   0  0  0  0  0  0  0  0  0  0  0  0
   58.8900   29.4390   47.5990 Cl  0  0  0  0  0  0  0  0  0  0  0  0
   56.8700   24.6440   44.6230 C   0  0  0  0  0  0  0  0  0  0  0  0
   56.4950   23.5510   43.8430 C   0  0  0  0  0  0  0  0  0  0  0  0
   55.2430   23.0280   43.9480 N   0  0  0  0  0  0  0  0  0  0  0  0
   51.5476   23.8343   45.9755 H   0  0  0  0  0  0  0  0  0  0  0  0
   51.9434   24.6436   44.4215 H   0  0  0  0  0  0  0  0  0  0  0  0
   51.0313   23.0961   44.4215 H   0  0  0  0  0  0  0  0  0  0  0  0
   53.9278   25.0715   46.3091 H   0  0  0  0  0  0  0  0  0  0  0  0
   55.6633   26.4213   47.2467 H   0  0  0  0  0  0  0  0  0  0  0  0
   57.3717   26.2716   46.6834 H   0  0  0  0  0  0  0  0  0  0  0  0
   57.3380   30.2080   42.9608 H   0  0  0  0  0  0  0  0  0  0  0  0
   57.6987   32.6686   43.1046 H   0  0  0  0  0  0  0  0  0  0  0  0
   59.0704   32.2421   47.1809 H   0  0  0  0  0  0  0  0  0  0  0  0
   57.8841   25.0620   44.5404 H   0  0  0  0  0  0  0  0  0  0  0  0
   57.2151   23.1089   43.1388 H   0  0  0  0  0  0  0  0  0  0  0  0
   54.9870   22.2090   43.3530 H   0  0  0  0  0  0  0  0  0  0  0  0
  1  2  1  0
  2  3  1  0
  3  4  2  0
  4  5  1  0
  5  6  1  0
  6  7  1  0
  7  8  1  0
  8  9  2  0
  8 10  2  0
  8 11  1  0
 11 12  2  0
 12 13  1  0
 13 14  2  0
 14 15  1  0
 14 16  1  0
 16 17  2  0
 17 18  1  0
  5 19  2  0
 19 20  1  0
 20 21  2  0
 21  3  1  0
 17 11  1  0
  1 22  1  0
  1 23  1  0
  1 24  1  0
  4 25  1  0
  6 26  1  0
  6 27  1  0
 12 28  1  0
 13 29  1  0
 16 30  1  0
 19 31  1  0
 20 32  1  0
 21 33  1  0
M  CHG  2   7  -1  21   1
M  END
>  <UniqueID>  (67) 
62

>  <SMILES>  (67) 
COc1cc(C[N-]S(=O)(=O)c2ccc(Br)cc2Cl)cc[nH+]1

>  <Energy>  (67) 
33.87480547899306

>  <Genealogy>  (67) 
COc1cc(C[N-]S(=O)(=O)c2ccc(Br)cc2Cl)cc[nH+]1 (protonated)
COc1cc(C[N-]S(=O)(=O)c2ccc(Br)cc2Cl)cc[nH+]1 (3D coordinates assigned)
COc1cc(C[N-]S(=O)(=O)c2ccc(Br)cc2Cl)cc[nH+]1 (optimized conformer: 33.87480547899306 kcal/mol)

>  <smiles>  (67) 
COc1cc(CNS(=O)(=O)c2ccc(Br)cc2Cl)ccn1

>  <score_type>  (67) 
oracle

>  <origin>  (67) 
adg

>  <m_score__min__energy>  (67) 
-7.7300000000000004

>  <m_primary>  (67) 
energy

$$$$
67:0
     RDKit          3D

 44 47  0  0  0  0  0  0  0  0999 V2000
   58.2924   30.7162   43.7703 H   0  0  0  0  0  0  0  0  0  0  0  0
   58.1940   29.6820   44.1320 C   0  0  0  0  0  0  0  0  0  0  0  0
   58.0104   28.8650   43.4187 H   0  0  0  0  0  0  0  0  0  0  0  0
   58.2980   29.4170   45.4440 C   0  0  0  0  0  0  0  0  0  0  0  0
   58.1960   28.1600   46.0500 C   0  0  0  0  0  0  0  0  0  0  0  0
   57.9090   26.9870   45.4530 C   0  0  0  0  0  0  0  0  0  0  0  0
   58.2260   26.8482   44.4089 H   0  0  0  0  0  0  0  0  0  0  0  0
   57.1970   25.8790   46.1120 C   0  0  0  0  0  0  0  0  0  0  0  0
   57.8230   24.8300   46.6730 N   0  0  0  0  0  0  0  0  0  0  0  0
   56.8160   24.1190   47.2230 C   0  0  0  0  0  0  0  0  0  0  0  0
   57.0060   23.0380   47.8390 O   0  0  0  0  0  0  0  0  0  0  0  0
   55.5890   24.6620   47.0700 N   0  0  0  0  0  0  0  0  0  0  0  0
   55.8480   25.7820   46.3760 C   0  0  0  0  0  0  0  0  0  0  0  0
   54.8770   26.7160   46.0360 O   0  0  0  0  0  0  0  0  0  0  0  0
   58.3970   28.3660   47.4100 C   0  0  0  0  0  0  0  0  0  0  0  0
   58.3874   27.6001   48.1995 H   0  0  0  0  0  0  0  0  0  0  0  0
   58.6110   29.7200   47.5760 C   0  0  0  0  0  0  0  0  0  0  0  0
   58.8700   30.3890   48.8910 C   0  0  0  0  0  0  0  0  0  0  0  0
   58.6047   29.7037   49.7096 H   0  0  0  0  0  0  0  0  0  0  0  0
   59.9353   30.6530   48.9645 H   0  0  0  0  0  0  0  0  0  0  0  0
   58.2602   31.3015   48.9645 H   0  0  0  0  0  0  0  0  0  0  0  0
   58.5570   30.3560   46.3860 N   0  0  0  0  0  0  0  0  0  0  0  0
   58.7370   31.7670   46.1820 C   0  0  0  0  0  0  0  0  0  0  0  0
   59.9080   32.4850   46.5490 C   0  0  0  0  0  0  0  0  0  0  0  0
   61.1210   31.8510   47.1010 C   0  0  0  0  0  0  0  0  0  0  0  0
   61.4340   30.6850   46.7370 O   0  0  0  0  0  0  0  0  0  0  0  0
   61.9730   32.5620   48.0160 N   0  0  0  0  0  0  0  0  0  0  0  0
   63.4050   32.2580   48.0470 C   0  0  0  0  0  0  0  0  0  0  0  0
   63.5782   31.3791   48.6854 H   0  0  0  0  0  0  0  0  0  0  0  0
   63.7543   32.0480   47.0253 H   0  0  0  0  0  0  0  0  0  0  0  0
   64.1770   33.4560   48.6100 C   0  0  0  0  0  0  0  0  0  0  0  0
   65.2304   33.1723   48.7506 H   0  0  0  0  0  0  0  0  0  0  0  0
   64.0970   34.2921   47.8997 H   0  0  0  0  0  0  0  0  0  0  0  0
   63.6360   33.8640   49.8540 O   0  0  0  0  0  0  0  0  0  0  0  0
   62.3150   34.3390   49.6690 C   0  0  0  0  0  0  0  0  0  0  0  0
   61.9379   34.7376   50.6224 H   0  0  0  0  0  0  0  0  0  0  0  0
   62.3274   35.1284   48.9030 H   0  0  0  0  0  0  0  0  0  0  0  0
   61.3940   33.2100   49.1970 C   0  0  0  0  0  0  0  0  0  0  0  0
   61.2811   32.4692   50.0023 H   0  0  0  0  0  0  0  0  0  0  0  0
   60.4094   33.6267   48.9383 H   0  0  0  0  0  0  0  0  0  0  0  0
   59.8670   33.8260   46.3160 N   0  0  0  0  0  0  0  0  0  0  0  0
   58.3690   34.1240   45.6550 S   0  0  0  0  0  0  0  0  0  0  0  0
   57.7530   32.5810   45.6480 C   0  0  0  0  0  0  0  0  0  0  0  0
   56.4910   32.1970   45.2130 O   0  0  0  0  0  0  0  0  0  0  0  0
  1  2  1  0
  2  3  1  0
  2  4  2  0
  4  5  1  0
  5  6  2  0
  6  7  1  0
  6  8  1  0
  8  9  1  0
  9 10  1  0
 10 11  2  0
 10 12  1  0
 12 13  1  0
 13 14  1  0
  5 15  1  0
 15 16  1  0
 15 17  2  0
 17 18  1  0
 18 19  1  0
 18 20  1  0
 18 21  1  0
 17 22  1  0
 22 23  1  0
 23 24  1  0
 24 25  1  0
 25 26  2  0
 25 27  1  0
 27 28  1  0
 28 29  1  0
 28 30  1  0
 28 31  1  0
 31 32  1  0
 31 33  1  0
 31 34  1  0
 34 35  1  0
 35 36  1  0
 35 37  1  0
 35 38  1  0
 38 39  1  0
 38 40  1  0
 24 41  2  0
 41 42  1  0
 42 43  1  0
 43 44  1  0
 22  4  1  0
 43 23  2  0
 13  8  2  0
 38 27  1  0
M  CHG  4   9  -1  12  -1  14  -1  44  -1
M  END
>  <UniqueID>  (68) 
63

>  <SMILES>  (68) 
C=c1/c(=C/c2[n-]c(=O)[n-]c2[O-])cc(C)n1-c1c(C(=O)N2CCOCC2)nsc1[O-]

>  <Energy>  (68) 
156.13989776002194

>  <Genealogy>  (68) 
C=c1c(=Cc2[n-]c(=O)[n-]c2[O-])cc(C)n1-c1c(C(=O)N2CCOCC2)nsc1[O-] (protonated)
C=c1/c(=C/c2[n-]c(=O)[n-]c2[O-])cc(C)n1-c1c(C(=O)N2CCOCC2)nsc1[O-] (cis-trans isomerization)
C=c1/c(=C/c2[n-]c(=O)[n-]c2[O-])cc(C)n1-c1c(C(=O)N2CCOCC2)nsc1[O-] (3D coordinates assigned)
C=c1/c(=C/c2[n-]c(=O)[n-]c2[O-])cc(C)n1-c1c(C(=O)N2CCOCC2)nsc1[O-] (nonaromatic ring conformer: 156.13989776002194 kcal/mol)

>  <smiles>  (68) 
C=c1c(=Cc2[nH]c(=O)[nH]c2O)cc(C)n1-c1c(C(=O)N2CCOCC2)nsc1O

>  <score_type>  (68) 
oracle

>  <origin>  (68) 
adg

>  <m_score__min__energy>  (68) 
-17.050000000000001

>  <m_primary>  (68) 
energy

$$$$
68:0
     RDKit          3D

 32 34  0  0  0  0  0  0  0  0999 V2000
   55.0380   29.3130   44.3520 O   0  0  0  0  0  0  0  0  0  0  0  0
   56.2110   29.5610   44.7390 C   0  0  0  0  0  0  0  0  0  0  0  0
   56.6240   30.9300   44.8470 N   0  0  0  0  0  0  0  0  0  0  0  0
   57.7250   31.4260   45.6240 C   0  0  0  0  0  0  0  0  0  0  0  0
   58.1480   30.6960   46.7390 C   0  0  0  0  0  0  0  0  0  0  0  0
   59.2220   31.1440   47.5150 C   0  0  0  0  0  0  0  0  0  0  0  0
   59.9000   32.3310   47.1790 C   0  0  0  0  0  0  0  0  0  0  0  0
   61.0480   32.8210   47.9860 C   0  0  0  0  0  0  0  0  0  0  0  0
   62.3390   32.9340   47.4450 C   0  0  0  0  0  0  0  0  0  0  0  0
   63.3710   33.3960   48.2630 C   0  0  0  0  0  0  0  0  0  0  0  0
   64.5390   33.5090   47.8070 O   0  0  0  0  0  0  0  0  0  0  0  0
   63.1180   33.7230   49.5570 N   0  0  0  0  0  0  0  0  0  0  0  0
   61.8680   33.6020   50.0730 C   0  0  0  0  0  0  0  0  0  0  0  0
   61.6520   33.9050   51.2740 O   0  0  0  0  0  0  0  0  0  0  0  0
   60.8500   33.1530   49.2930 N   0  0  0  0  0  0  0  0  0  0  0  0
   59.4940   33.0410   46.0340 C   0  0  0  0  0  0  0  0  0  0  0  0
   58.4200   32.5910   45.2610 C   0  0  0  0  0  0  0  0  0  0  0  0
   57.1280   28.4350   45.0320 C   0  0  0  0  0  0  0  0  0  0  0  0
   58.4950   28.5620   44.7350 C   0  0  0  0  0  0  0  0  0  0  0  0
   59.3600   27.4980   44.9970 C   0  0  0  0  0  0  0  0  0  0  0  0
   58.8860   26.3510   45.5490 N   0  0  0  0  0  0  0  0  0  0  0  0
   57.5720   26.2030   45.8650 C   0  0  0  0  0  0  0  0  0  0  0  0
   56.6690   27.2430   45.6250 C   0  0  0  0  0  0  0  0  0  0  0  0
   55.3380   27.0880   45.9980 O   0  0  0  0  0  0  0  0  0  0  0  0
   57.6323   29.7624   47.0079 H   0  0  0  0  0  0  0  0  0  0  0  0
   59.5392   30.5644   48.3945 H   0  0  0  0  0  0  0  0  0  0  0  0
   62.5331   32.6635   46.3966 H   0  0  0  0  0  0  0  0  0  0  0  0
   60.0268   33.9588   45.7446 H   0  0  0  0  0  0  0  0  0  0  0  0
   58.1178   33.1519   44.3643 H   0  0  0  0  0  0  0  0  0  0  0  0
   58.8818   29.4946   44.2984 H   0  0  0  0  0  0  0  0  0  0  0  0
   60.4293   27.5888   44.7555 H   0  0  0  0  0  0  0  0  0  0  0  0
   57.2181   25.2618   46.3110 H   0  0  0  0  0  0  0  0  0  0  0  0
  1  2  2  0
  2  3  1  0
  3  4  1  0
  4  5  2  0
  5  6  1  0
  6  7  2  0
  7  8  1  0
  8  9  2  0
  9 10  1  0
 10 11  2  0
 10 12  1  0
 12 13  1  0
 13 14  2  0
 13 15  1  0
  7 16  1  0
 16 17  2  0
  2 18  1  0
 18 19  2  0
 19 20  1  0
 20 21  2  0
 21 22  1  0
 22 23  2  0
 23 24  1  0
 17  4  1  0
 23 18  1  0
 15  8  1  0
  5 25  1  0
  6 26  1  0
  9 27  1  0
 16 28  1  0
 17 29  1  0
 19 30  1  0
 20 31  1  0
 22 32  1  0
M  CHG  4   3  -1  12  -1  15  -1  24  -1
M  END
>  <UniqueID>  (69) 
64

>  <SMILES>  (69) 
O=C([N-]c1ccc(-c2cc(=O)[n-]c(=O)[n-]2)cc1)c1ccncc1[O-]

>  <Energy>  (69) 
49.832199066674505

>  <Genealogy>  (69) 
O=C([N-]c1ccc(-c2cc(=O)[n-]c(=O)[n-]2)cc1)c1ccncc1[O-] (protonated)
O=C([N-]c1ccc(-c2cc(=O)[n-]c(=O)[n-]2)cc1)c1ccncc1[O-] (3D coordinates assigned)
O=C([N-]c1ccc(-c2cc(=O)[n-]c(=O)[n-]2)cc1)c1ccncc1[O-] (optimized conformer: 49.832199066674505 kcal/mol)

>  <smiles>  (69) 
O=C(Nc1ccc(-c2cc(=O)[nH]c(=O)[nH]2)cc1)c1ccncc1O

>  <score_type>  (69) 
oracle

>  <origin>  (69) 
adg

>  <m_score__min__energy>  (69) 
-13.82

>  <m_primary>  (69) 
energy

$$$$
69:0
     RDKit          3D

 53 56  0  0  0  0  0  0  0  0999 V2000
   58.6400   27.3310   46.1150 H   0  0  0  0  0  0  0  0  0  0  0  0
   58.7710   27.9350   45.3130 O   0  0  0  0  0  0  0  0  0  0  0  0
   57.8330   28.9100   44.9660 C   0  0  0  0  0  0  0  0  0  0  0  0
   58.2780   30.1320   44.4480 C   0  0  0  0  0  0  0  0  0  0  0  0
   59.3567   30.3322   44.3686 H   0  0  0  0  0  0  0  0  0  0  0  0
   57.3610   31.0970   44.0320 C   0  0  0  0  0  0  0  0  0  0  0  0
   57.9310   32.7000   43.4650 S   0  0  0  0  0  0  0  0  0  0  0  0
   58.3700   33.1980   45.1270 C   0  0  0  0  0  0  0  0  0  0  0  0
   59.8610   33.8270   45.5760 S   0  0  0  0  0  0  0  0  0  0  0  0
   59.5210   33.8910   47.2230 C   0  0  0  0  0  0  0  0  0  0  0  0
   60.4640   34.3160   48.2630 C   0  0  0  0  0  0  0  0  0  0  0  0
   60.0270   34.7910   49.3450 O   0  0  0  0  0  0  0  0  0  0  0  0
   61.8740   34.1950   48.0480 N   0  0  0  0  0  0  0  0  0  0  0  0
   62.5120   32.9640   47.6000 C   0  0  0  0  0  0  0  0  0  0  0  0
   62.6588   33.0036   46.5106 H   0  0  0  0  0  0  0  0  0  0  0  0
   63.4858   32.8552   48.0999 H   0  0  0  0  0  0  0  0  0  0  0  0
   61.6400   31.7870   47.9450 C   0  0  0  0  0  0  0  0  0  0  0  0
   61.0950   30.9950   46.9190 C   0  0  0  0  0  0  0  0  0  0  0  0
   61.2791   31.2580   45.8669 H   0  0  0  0  0  0  0  0  0  0  0  0
   60.3190   29.8730   47.2320 C   0  0  0  0  0  0  0  0  0  0  0  0
   59.8946   29.2560   46.4262 H   0  0  0  0  0  0  0  0  0  0  0  0
   60.0830   29.5360   48.5680 C   0  0  0  0  0  0  0  0  0  0  0  0
   59.4661   28.6587   48.8124 H   0  0  0  0  0  0  0  0  0  0  0  0
   60.6310   30.3140   49.5960 C   0  0  0  0  0  0  0  0  0  0  0  0
   60.4462   30.0463   50.6468 H   0  0  0  0  0  0  0  0  0  0  0  0
   61.4130   31.4310   49.2860 C   0  0  0  0  0  0  0  0  0  0  0  0
   61.8523   32.0336   50.0946 H   0  0  0  0  0  0  0  0  0  0  0  0
   58.2280   33.4180   47.4350 C   0  0  0  0  0  0  0  0  0  0  0  0
   57.7601   33.3599   48.4288 H   0  0  0  0  0  0  0  0  0  0  0  0
   57.5840   33.0240   46.2560 C   0  0  0  0  0  0  0  0  0  0  0  0
   56.5617   32.6189   46.2282 H   0  0  0  0  0  0  0  0  0  0  0  0
   55.9960   30.8130   44.0980 C   0  0  0  0  0  0  0  0  0  0  0  0
   55.2624   31.5474   43.7341 H   0  0  0  0  0  0  0  0  0  0  0  0
   55.5750   29.6290   44.6120 N   0  0  0  0  0  0  0  0  0  0  0  0
   56.4360   28.6830   45.0820 C   0  0  0  0  0  0  0  0  0  0  0  0
   55.9240   27.6140   45.6280 N   0  0  0  0  0  0  0  0  0  0  0  0
   56.6120   26.4320   46.0620 C   0  0  0  0  0  0  0  0  0  0  0  0
   57.4020   26.5140   47.0420 O   0  0  0  0  0  0  0  0  0  0  0  0
   56.4660   25.1480   45.3320 C   0  0  0  0  0  0  0  0  0  0  0  0
   55.1970   24.5680   45.1450 C   0  0  0  0  0  0  0  0  0  0  0  0
   54.3009   25.0824   45.5222 H   0  0  0  0  0  0  0  0  0  0  0  0
   55.0670   23.3440   44.4840 C   0  0  0  0  0  0  0  0  0  0  0  0
   54.0693   22.9002   44.3514 H   0  0  0  0  0  0  0  0  0  0  0  0
   56.1930   22.6770   43.9890 C   0  0  0  0  0  0  0  0  0  0  0  0
   56.0080   21.4490   43.3390 O   0  0  0  0  0  0  0  0  0  0  0  0
   57.0380   20.7150   42.6850 C   0  0  0  0  0  0  0  0  0  0  0  0
   57.6912   20.2495   43.4378 H   0  0  0  0  0  0  0  0  0  0  0  0
   56.5880   19.9328   42.0560 H   0  0  0  0  0  0  0  0  0  0  0  0
   57.6305   21.3956   42.0560 H   0  0  0  0  0  0  0  0  0  0  0  0
   57.4630   23.2570   44.1610 C   0  0  0  0  0  0  0  0  0  0  0  0
   58.3557   22.7457   43.7716 H   0  0  0  0  0  0  0  0  0  0  0  0
   57.5960   24.4830   44.8260 C   0  0  0  0  0  0  0  0  0  0  0  0
   58.5935   24.9289   44.9532 H   0  0  0  0  0  0  0  0  0  0  0  0
  1  2  1  0
  2  3  1  0
  3  4  2  0
  4  5  1  0
  4  6  1  0
  6  7  1  0
  7  8  1  0
  8  9  1  0
  9 10  1  0
 10 11  1  0
 11 12  2  0
 11 13  1  0
 13 14  1  0
 14 15  1  0
 14 16  1  0
 14 17  1  0
 17 18  2  0
 18 19  1  0
 18 20  1  0
 20 21  1  0
 20 22  2  0
 22 23  1  0
 22 24  1  0
 24 25  1  0
 24 26  2  0
 26 27  1  0
 10 28  2  0
 28 29  1  0
 28 30  1  0
 30 31  1  0
  6 32  2  0
 32 33  1  0
 32 34  1  0
 34 35  1  0
 35 36  2  0
 36 37  1  0
 37 38  2  0
 37 39  1  0
 39 40  2  0
 40 41  1  0
 40 42  1  0
 42 43  1  0
 42 44  2  0
 44 45  1  0
 45 46  1  0
 46 47  1  0
 46 48  1  0
 46 49  1  0
 44 50  1  0
 50 51  1  0
 50 52  2  0
 52 53  1  0
 35  3  1  0
 52 39  1  0
 30  8  2  0
 26 17  1  0
M  CHG  2  13  -1  34  -1
M  END
>  <UniqueID>  (70) 
65

>  <SMILES>  (70) 
COc1ccc(C(=O)/N=c2/[n-]cc(Sc3ccc(C(=O)[N-]Cc4ccccc4)s3)cc2O)cc1

>  <Energy>  (70) 
88.44510688773798

>  <Genealogy>  (70) 
COc1ccc(C(=O)N=c2[n-]cc(Sc3ccc(C(=O)[N-]Cc4ccccc4)s3)cc2O)cc1 (protonated)
COc1ccc(C(=O)/N=c2/[n-]cc(Sc3ccc(C(=O)[N-]Cc4ccccc4)s3)cc2O)cc1 (cis-trans isomerization)
COc1ccc(C(=O)/N=c2/[n-]cc(Sc3ccc(C(=O)[N-]Cc4ccccc4)s3)cc2O)cc1 (3D coordinates assigned)
COc1ccc(C(=O)/N=c2/[n-]cc(Sc3ccc(C(=O)[N-]Cc4ccccc4)s3)cc2O)cc1 (optimized conformer: 88.44510688773798 kcal/mol)

>  <smiles>  (70) 
COc1ccc(C(=O)N=c2[nH]cc(Sc3ccc(C(=O)NCc4ccccc4)s3)cc2O)cc1

>  <score_type>  (70) 
oracle

>  <origin>  (70) 
adg

>  <m_score__min__energy>  (70) 
-12.029999999999999

>  <m_primary>  (70) 
energy

$$$$
70:0
     RDKit          3D

 50 53  0  0  0  0  0  0  0  0999 V2000
   55.2560   29.3490   44.7160 O   0  0  0  0  0  0  0  0  0  0  0  0
   56.4560   29.7040   44.8640 C   0  0  0  0  0  0  0  0  0  0  0  0
   56.7610   31.1030   44.8760 N   0  0  0  0  0  0  0  0  0  0  0  0
   57.8870   31.7130   45.5210 C   0  0  0  0  0  0  0  0  0  0  0  0
   58.5920   30.9830   46.4840 C   0  0  0  0  0  0  0  0  0  0  0  0
   59.7150   31.5350   47.1080 C   0  0  0  0  0  0  0  0  0  0  0  0
   60.1680   32.8200   46.7610 C   0  0  0  0  0  0  0  0  0  0  0  0
   61.3580   33.4000   47.4310 C   0  0  0  0  0  0  0  0  0  0  0  0
   62.5310   33.2680   46.8780 N   0  0  0  0  0  0  0  0  0  0  0  0
   63.7510   33.8370   47.4490 C   0  0  0  0  0  0  0  0  0  0  0  0
   63.6810   33.8390   48.9760 C   0  0  0  0  0  0  0  0  0  0  0  0
   62.4110   34.5670   49.4250 C   0  0  0  0  0  0  0  0  0  0  0  0
   61.2400   34.0650   48.7050 N   0  0  0  0  0  0  0  0  0  0  0  0
   59.4670   33.5440   45.7790 C   0  0  0  0  0  0  0  0  0  0  0  0
   58.3440   32.9890   45.1560 C   0  0  0  0  0  0  0  0  0  0  0  0
   57.4990   28.7200   44.9840 N   0  0  0  0  0  0  0  0  0  0  0  0
   57.2710   27.3020   45.0170 C   0  0  0  0  0  0  0  0  0  0  0  0
   56.5010   26.7040   46.0320 C   0  0  0  0  0  0  0  0  0  0  0  0
   56.2750   25.3240   46.0240 C   0  0  0  0  0  0  0  0  0  0  0  0
   56.7950   24.5310   44.9950 C   0  0  0  0  0  0  0  0  0  0  0  0
   56.4960   22.7640   44.9830 S   0  0  0  0  0  0  0  0  0  0  0  0
   54.7470   22.9620   45.3230 C   0  0  0  0  0  0  0  0  0  0  0  0
   53.9470   23.7250   44.4650 C   0  0  0  0  0  0  0  0  0  0  0  0
   52.5810   23.8760   44.7300 C   0  0  0  0  0  0  0  0  0  0  0  0
   52.0150   23.2650   45.8530 C   0  0  0  0  0  0  0  0  0  0  0  0
   52.8130   22.5040   46.7130 C   0  0  0  0  0  0  0  0  0  0  0  0
   54.1790   22.3540   46.4510 C   0  0  0  0  0  0  0  0  0  0  0  0
   57.5430   25.1230   43.9720 C   0  0  0  0  0  0  0  0  0  0  0  0
   57.7710   26.5020   43.9770 C   0  0  0  0  0  0  0  0  0  0  0  0
   58.2609   29.9688   46.7519 H   0  0  0  0  0  0  0  0  0  0  0  0
   60.2491   30.9585   47.8776 H   0  0  0  0  0  0  0  0  0  0  0  0
   64.6147   33.2364   47.1276 H   0  0  0  0  0  0  0  0  0  0  0  0
   63.8564   34.8741   47.0978 H   0  0  0  0  0  0  0  0  0  0  0  0
   63.6596   32.8026   49.3439 H   0  0  0  0  0  0  0  0  0  0  0  0
   64.5636   34.3534   49.3840 H   0  0  0  0  0  0  0  0  0  0  0  0
   62.2665   34.4073   50.5037 H   0  0  0  0  0  0  0  0  0  0  0  0
   62.5247   35.6393   49.2075 H   0  0  0  0  0  0  0  0  0  0  0  0
   60.3000   34.3550   49.0530 H   0  0  0  0  0  0  0  0  0  0  0  0
   59.8042   34.5530   45.4993 H   0  0  0  0  0  0  0  0  0  0  0  0
   57.8159   33.5561   44.3753 H   0  0  0  0  0  0  0  0  0  0  0  0
   58.4810   29.0490   45.1260 H   0  0  0  0  0  0  0  0  0  0  0  0
   56.0754   27.3244   46.8345 H   0  0  0  0  0  0  0  0  0  0  0  0
   55.6865   24.8603   46.8293 H   0  0  0  0  0  0  0  0  0  0  0  0
   54.3920   24.2064   43.5817 H   0  0  0  0  0  0  0  0  0  0  0  0
   51.9527   24.4754   44.0547 H   0  0  0  0  0  0  0  0  0  0  0  0
   50.9412   23.3830   46.0602 H   0  0  0  0  0  0  0  0  0  0  0  0
   52.3665   22.0231   47.5958 H   0  0  0  0  0  0  0  0  0  0  0  0
   54.8073   21.7590   47.1301 H   0  0  0  0  0  0  0  0  0  0  0  0
   57.9527   24.5019   43.1618 H   0  0  0  0  0  0  0  0  0  0  0  0
   58.3460   26.9636   43.1607 H   0  0  0  0  0  0  0  0  0  0  0  0
  1  2  2  0
  2  3  1  0
  3  4  1  0
  4  5  2  0
  5  6  1  0
  6  7  2  0
  7  8  1  0
  8  9  2  0
  9 10  1  0
 10 11  1  0
 11 12  1  0
 12 13  1  0
  7 14  1  0
 14 15  2  0
  2 16  1  0
 16 17  1  0
 17 18  2  0
 18 19  1  0
 19 20  2  0
 20 21  1  0
 21 22  1  0
 22 23  2  0
 23 24  1  0
 24 25  2  0
 25 26  1  0
 26 27  2  0
 20 28  1  0
 28 29  2  0
 15  4  1  0
 29 17  1  0
 13  8  1  0
 27 22  1  0
  5 30  1  0
  6 31  1  0
 10 32  1  0
 10 33  1  0
 11 34  1  0
 11 35  1  0
 12 36  1  0
 12 37  1  0
 13 38  1  0
 14 39  1  0
 15 40  1  0
 16 41  1  0
 18 42  1  0
 19 43  1  0
 23 44  1  0
 24 45  1  0
 25 46  1  0
 26 47  1  0
 27 48  1  0
 28 49  1  0
 29 50  1  0
M  CHG  1   3  -1
M  END
>  <UniqueID>  (71) 
66

>  <SMILES>  (71) 
O=C([N-]c1ccc(C2=NCCCN2)cc1)Nc1ccc(Sc2ccccc2)cc1

>  <Energy>  (71) 
58.402512506044715

>  <Genealogy>  (71) 
O=C([N-]c1ccc(C2=NCCCN2)cc1)Nc1ccc(Sc2ccccc2)cc1 (protonated)
O=C([N-]c1ccc(C2=NCCCN2)cc1)Nc1ccc(Sc2ccccc2)cc1 (3D coordinates assigned)
O=C([N-]c1ccc(C2=NCCCN2)cc1)Nc1ccc(Sc2ccccc2)cc1 (nonaromatic ring conformer: 58.402512506044715 kcal/mol)

>  <smiles>  (71) 
O=C(Nc1ccc(Sc2ccccc2)cc1)Nc1ccc(C2=NCCCN2)cc1

>  <score_type>  (71) 
oracle

>  <origin>  (71) 
adg

>  <m_score__min__energy>  (71) 
-10

>  <m_primary>  (71) 
energy

$$$$
71:0
     RDKit          3D

 54 58  0  0  0  0  0  0  0  0999 V2000
   55.8746   21.3084   46.4339 H   0  0  0  0  0  0  0  0  0  0  0  0
   55.5690   22.3550   46.2880 C   0  0  0  0  0  0  0  0  0  0  0  0
   56.4960   23.3460   46.3390 N   0  0  0  0  0  0  0  0  0  0  0  0
   56.1790   24.6590   46.1620 C   0  0  0  0  0  0  0  0  0  0  0  0
   57.1520   25.5260   46.2260 N   0  0  0  0  0  0  0  0  0  0  0  0
   58.0750   25.7740   47.2930 C   0  0  0  0  0  0  0  0  0  0  0  0
   58.0820   25.0250   48.3050 O   0  0  0  0  0  0  0  0  0  0  0  0
   58.9430   26.9710   47.2410 C   0  0  0  0  0  0  0  0  0  0  0  0
   59.8930   27.3170   48.2160 C   0  0  0  0  0  0  0  0  0  0  0  0
   60.2200   26.5540   49.3930 N   0  0  0  0  0  0  0  0  0  0  0  0
   59.7750   25.6220   49.5290 H   0  0  0  0  0  0  0  0  0  0  0  0
   61.1000   27.0290   50.4240 C   0  0  0  0  0  0  0  0  0  0  0  0
   61.3510   28.2610   50.5270 O   0  0  0  0  0  0  0  0  0  0  0  0
   61.6890   26.0970   51.4030 C   0  0  0  0  0  0  0  0  0  0  0  0
   60.9090   24.7480   52.0360 S   0  0  0  0  0  0  0  0  0  0  0  0
   62.1680   24.2490   53.0310 C   0  0  0  0  0  0  0  0  0  0  0  0
   62.1604   23.3662   53.6871 H   0  0  0  0  0  0  0  0  0  0  0  0
   63.2190   25.1430   52.8820 C   0  0  0  0  0  0  0  0  0  0  0  0
   64.1708   25.0480   53.4252 H   0  0  0  0  0  0  0  0  0  0  0  0
   62.9550   26.1770   51.9760 C   0  0  0  0  0  0  0  0  0  0  0  0
   63.6762   26.9734   51.7404 H   0  0  0  0  0  0  0  0  0  0  0  0
   60.6230   28.7790   47.7850 S   0  0  0  0  0  0  0  0  0  0  0  0
   59.7280   29.0030   46.3870 C   0  0  0  0  0  0  0  0  0  0  0  0
   58.8740   27.9270   46.2030 C   0  0  0  0  0  0  0  0  0  0  0  0
   57.9690   27.8560   45.0030 C   0  0  0  0  0  0  0  0  0  0  0  0
   58.0292   26.8465   44.5701 H   0  0  0  0  0  0  0  0  0  0  0  0
   56.9442   28.0829   45.3320 H   0  0  0  0  0  0  0  0  0  0  0  0
   58.3690   28.8880   43.9250 C   0  0  0  0  0  0  0  0  0  0  0  0
   59.2350   28.4971   43.3708 H   0  0  0  0  0  0  0  0  0  0  0  0
   57.4950   29.0364   43.2737 H   0  0  0  0  0  0  0  0  0  0  0  0
   58.7290   30.2130   44.4900 N   0  0  0  0  0  0  0  0  0  0  0  0
   57.5960   30.8970   45.1520 C   0  0  0  0  0  0  0  0  0  0  0  0
   56.7812   31.0287   44.4249 H   0  0  0  0  0  0  0  0  0  0  0  0
   57.2615   30.2801   45.9991 H   0  0  0  0  0  0  0  0  0  0  0  0
   58.0110   32.2480   45.6770 C   0  0  0  0  0  0  0  0  0  0  0  0
   58.2440   32.4270   47.0500 C   0  0  0  0  0  0  0  0  0  0  0  0
   58.1043   31.5851   47.7441 H   0  0  0  0  0  0  0  0  0  0  0  0
   58.6530   33.6720   47.5380 C   0  0  0  0  0  0  0  0  0  0  0  0
   58.8295   33.8085   48.6151 H   0  0  0  0  0  0  0  0  0  0  0  0
   58.8380   34.7440   46.6590 C   0  0  0  0  0  0  0  0  0  0  0  0
   59.1604   35.7225   47.0444 H   0  0  0  0  0  0  0  0  0  0  0  0
   58.6130   34.5710   45.2910 C   0  0  0  0  0  0  0  0  0  0  0  0
   58.7611   35.4136   44.5995 H   0  0  0  0  0  0  0  0  0  0  0  0
   58.2000   33.3290   44.7990 C   0  0  0  0  0  0  0  0  0  0  0  0
   58.0225   33.1976   43.7214 H   0  0  0  0  0  0  0  0  0  0  0  0
   59.9020   30.1060   45.3870 C   0  0  0  0  0  0  0  0  0  0  0  0
   60.7977   29.9022   44.7819 H   0  0  0  0  0  0  0  0  0  0  0  0
   60.0072   31.0548   45.9335 H   0  0  0  0  0  0  0  0  0  0  0  0
   54.8180   25.0090   45.9660 C   0  0  0  0  0  0  0  0  0  0  0  0
   54.3900   26.3280   45.8950 O   0  0  0  0  0  0  0  0  0  0  0  0
   53.8590   23.9950   45.8940 C   0  0  0  0  0  0  0  0  0  0  0  0
   52.8047   24.2509   45.7123 H   0  0  0  0  0  0  0  0  0  0  0  0
   54.2310   22.6630   46.0510 C   0  0  0  0  0  0  0  0  0  0  0  0
   53.4781   21.8635   45.9887 H   0  0  0  0  0  0  0  0  0  0  0  0
  1  2  1  0
  2  3  1  0
  3  4  1  0
  4  5  2  0
  5  6  1  0
  6  7  2  0
  6  8  1  0
  8  9  2  0
  9 10  1  0
 10 11  1  0
 10 12  1  0
 12 13  2  0
 12 14  1  0
 14 15  1  0
 15 16  1  0
 16 17  1  0
 16 18  2  0
 18 19  1  0
 18 20  1  0
 20 21  1  0
  9 22  1  0
 22 23  1  0
 23 24  2  0
 24 25  1  0
 25 26  1  0
 25 27  1  0
 25 28  1  0
 28 29  1  0
 28 30  1  0
 28 31  1  0
 31 32  1  0
 32 33  1  0
 32 34  1  0
 32 35  1  0
 35 36  2  0
 36 37  1  0
 36 38  1  0
 38 39  1  0
 38 40  2  0
 40 41  1  0
 40 42  1  0
 42 43  1  0
 42 44  2  0
 44 45  1  0
 31 46  1  0
 46 47  1  0
 46 48  1  0
  4 49  1  0
 49 50  1  0
 49 51  2  0
 51 52  1  0
 51 53  1  0
 53 54  1  0
 53  2  2  0
 24  8  1  0
 44 35  1  0
 20 14  2  0
 46 23  1  0
M  CHG  2   3  -1  50  -1
M  END
>  <UniqueID>  (72) 
67

>  <SMILES>  (72) 
O=C(Nc1sc2c(c1C(=O)/N=c1/[n-]cccc1[O-])CCN(Cc1ccccc1)C2)c1cccs1

>  <Energy>  (72) 
136.8450971341859

>  <Genealogy>  (72) 
O=C(Nc1sc2c(c1C(=O)N=c1[n-]cccc1[O-])CCN(Cc1ccccc1)C2)c1cccs1 (protonated)
O=C(Nc1sc2c(c1C(=O)/N=c1/[n-]cccc1[O-])CCN(Cc1ccccc1)C2)c1cccs1 (cis-trans isomerization)
O=C(Nc1sc2c(c1C(=O)/N=c1/[n-]cccc1[O-])CCN(Cc1ccccc1)C2)c1cccs1 (3D coordinates assigned)
O=C(Nc1sc2c(c1C(=O)/N=c1/[n-]cccc1[O-])CCN(Cc1ccccc1)C2)c1cccs1 (nonaromatic ring conformer: 136.8450971341859 kcal/mol)

>  <smiles>  (72) 
O=C(Nc1sc2c(c1C(=O)N=c1[nH]cccc1O)CCN(Cc1ccccc1)C2)c1cccs1

>  <score_type>  (72) 
oracle

>  <origin>  (72) 
adg

>  <m_score__min__energy>  (72) 
-13.289999999999999

>  <m_primary>  (72) 
energy

$$$$
72:0
     RDKit          3D

 54 56  0  0  0  0  0  0  0  0999 V2000
   55.1500   27.0660   45.2590 H   0  0  0  0  0  0  0  0  0  0  0  0
   54.8040   26.3410   45.9240 N   0  0  0  0  0  0  0  0  0  0  0  0
   55.5810   25.1810   46.2140 C   0  0  0  0  0  0  0  0  0  0  0  0
   55.9030   24.9340   47.4080 O   0  0  0  0  0  0  0  0  0  0  0  0
   56.0760   24.3140   45.1210 C   0  0  0  0  0  0  0  0  0  0  0  0
   55.1780   23.9810   44.0920 C   0  0  0  0  0  0  0  0  0  0  0  0
   54.1727   24.4273   44.0828 H   0  0  0  0  0  0  0  0  0  0  0  0
   55.5460   23.0920   43.0830 C   0  0  0  0  0  0  0  0  0  0  0  0
   54.8371   22.8509   42.2772 H   0  0  0  0  0  0  0  0  0  0  0  0
   56.8110   22.5090   43.0950 C   0  0  0  0  0  0  0  0  0  0  0  0
   57.0893   21.7850   42.3151 H   0  0  0  0  0  0  0  0  0  0  0  0
   57.7260   22.8420   44.0950 C   0  0  0  0  0  0  0  0  0  0  0  0
   58.7177   22.3661   44.1036 H   0  0  0  0  0  0  0  0  0  0  0  0
   57.3960   23.7800   45.0940 C   0  0  0  0  0  0  0  0  0  0  0  0
   58.4600   24.1880   46.1010 C   0  0  0  0  0  0  0  0  0  0  0  0
   59.2030   23.3802   46.1749 H   0  0  0  0  0  0  0  0  0  0  0  0
   57.9567   24.3665   47.0627 H   0  0  0  0  0  0  0  0  0  0  0  0
   59.1850   25.4910   45.7050 C   0  0  0  0  0  0  0  0  0  0  0  0
   58.7808   25.8498   44.7470 H   0  0  0  0  0  0  0  0  0  0  0  0
   60.2606   25.2785   45.6163 H   0  0  0  0  0  0  0  0  0  0  0  0
   58.9990   26.5290   46.7210 N   0  0  0  0  0  0  0  0  0  0  0  0
   58.4610   27.6920   46.4810 C   0  0  0  0  0  0  0  0  0  0  0  0
   59.0410   28.8270   46.9480 N   0  0  0  0  0  0  0  0  0  0  0  0
   58.4840   30.0390   46.7170 C   0  0  0  0  0  0  0  0  0  0  0  0
   59.0520   31.1340   47.1340 N   0  0  0  0  0  0  0  0  0  0  0  0
   59.0000   32.4250   46.4990 C   0  0  0  0  0  0  0  0  0  0  0  0
   60.1390   33.2440   46.3640 C   0  0  0  0  0  0  0  0  0  0  0  0
   61.1100   32.8996   46.7494 H   0  0  0  0  0  0  0  0  0  0  0  0
   60.0400   34.4930   45.7420 C   0  0  0  0  0  0  0  0  0  0  0  0
   60.9356   35.1206   45.6235 H   0  0  0  0  0  0  0  0  0  0  0  0
   58.8040   34.9440   45.2710 C   0  0  0  0  0  0  0  0  0  0  0  0
   58.7290   35.9210   44.7712 H   0  0  0  0  0  0  0  0  0  0  0  0
   57.6640   34.1540   45.4350 C   0  0  0  0  0  0  0  0  0  0  0  0
   56.6893   34.5157   45.0757 H   0  0  0  0  0  0  0  0  0  0  0  0
   57.7590   32.9040   46.0550 C   0  0  0  0  0  0  0  0  0  0  0  0
   56.8551   32.2930   46.1952 H   0  0  0  0  0  0  0  0  0  0  0  0
   57.3390   30.1160   45.9940 N   0  0  0  0  0  0  0  0  0  0  0  0
   56.7440   28.9940   45.5120 C   0  0  0  0  0  0  0  0  0  0  0  0
   55.6440   29.1220   44.8240 N   0  0  0  0  0  0  0  0  0  0  0  0
   55.3930   30.0490   43.7190 C   0  0  0  0  0  0  0  0  0  0  0  0
   55.1653   31.0448   44.1271 H   0  0  0  0  0  0  0  0  0  0  0  0
   54.5426   29.6760   43.1293 H   0  0  0  0  0  0  0  0  0  0  0  0
   56.6220   30.1470   42.8070 C   0  0  0  0  0  0  0  0  0  0  0  0
   56.2916   30.1554   41.7578 H   0  0  0  0  0  0  0  0  0  0  0  0
   57.2713   29.2802   42.9998 H   0  0  0  0  0  0  0  0  0  0  0  0
   57.4170   31.4250   43.0920 C   0  0  0  0  0  0  0  0  0  0  0  0
   58.3659   31.1561   43.5792 H   0  0  0  0  0  0  0  0  0  0  0  0
   56.8141   32.0713   43.7468 H   0  0  0  0  0  0  0  0  0  0  0  0
   57.7170   32.1870   41.8050 C   0  0  0  0  0  0  0  0  0  0  0  0
   58.1096   33.1843   42.0524 H   0  0  0  0  0  0  0  0  0  0  0  0
   58.4646   31.6341   41.2173 H   0  0  0  0  0  0  0  0  0  0  0  0
   56.7931   32.2921   41.2173 H   0  0  0  0  0  0  0  0  0  0  0  0
   57.3090   27.7720   45.7620 N   0  0  0  0  0  0  0  0  0  0  0  0
   56.8760   26.8870   45.4180 H   0  0  0  0  0  0  0  0  0  0  0  0
  1  2  1  0
  2  3  1  0
  3  4  2  0
  3  5  1  0
  5  6  2  0
  6  7  1  0
  6  8  1  0
  8  9  1  0
  8 10  2  0
 10 11  1  0
 10 12  1  0
 12 13  1  0
 12 14  2  0
 14 15  1  0
 15 16  1  0
 15 17  1  0
 15 18  1  0
 18 19  1  0
 18 20  1  0
 18 21  1  0
 21 22  2  3
 22 23  1  0
 23 24  1  0
 24 25  2  0
 25 26  1  0
 26 27  2  0
 27 28  1  0
 27 29  1  0
 29 30  1  0
 29 31  2  0
 31 32  1  0
 31 33  1  0
 33 34  1  0
 33 35  2  0
 35 36  1  0
 24 37  1  0
 37 38  1  0
 38 39  2  0
 39 40  1  0
 40 41  1  0
 40 42  1  0
 40 43  1  0
 43 44  1  0
 43 45  1  0
 43 46  1  0
 46 47  1  0
 46 48  1  0
 46 49  1  0
 49 50  1  0
 49 51  1  0
 49 52  1  0
 38 53  1  0
 53 54  1  0
 14  5  1  0
 53 22  1  0
 35 26  1  0
M  CHG  3   2  -1  23  -1  37  -1
M  END
>  <UniqueID>  (73) 
68

>  <SMILES>  (73) 
CCCC/N=c1/[n-]/c(=N/c2ccccc2)[n-]c(=NCCc2ccccc2C([NH-])=O)[nH]1

>  <Energy>  (73) 
59.60756207596361

>  <Genealogy>  (73) 
CCCCN=c1[n-]c(=Nc2ccccc2)[n-]c(=NCCc2ccccc2C([NH-])=O)[nH]1 (protonated)
CCCC/N=c1/[n-]/c(=N/c2ccccc2)[n-]c(=NCCc2ccccc2C([NH-])=O)[nH]1 (cis-trans isomerization)
CCCC/N=c1/[n-]/c(=N/c2ccccc2)[n-]c(=NCCc2ccccc2C([NH-])=O)[nH]1 (3D coordinates assigned)
CCCC/N=c1/[n-]/c(=N/c2ccccc2)[n-]c(=NCCc2ccccc2C([NH-])=O)[nH]1 (optimized conformer: 59.60756207596361 kcal/mol)

>  <smiles>  (73) 
CCCCN=c1[nH]c(=NCCc2ccccc2C(N)=O)[nH]c(=Nc2ccccc2)[nH]1

>  <score_type>  (73) 
oracle

>  <origin>  (73) 
adg

>  <m_score__min__energy>  (73) 
-14.789999999999999

>  <m_primary>  (73) 
energy

$$$$
73:0
     RDKit          3D

 55 57  0  0  0  0  0  0  0  0999 V2000
   58.5000   24.7760   47.7270 H   0  0  0  0  0  0  0  0  0  0  0  0
   57.6320   24.2210   47.5660 N   0  0  0  0  0  0  0  0  0  0  0  0
   56.5760   24.6990   46.9880 C   0  0  0  0  0  0  0  0  0  0  0  0
   55.4120   24.0340   46.9140 N   0  0  0  0  0  0  0  0  0  0  0  0
   54.6020   24.8400   46.2850 O   0  0  0  0  0  0  0  0  0  0  0  0
   55.1440   25.9780   45.9460 N   0  0  0  0  0  0  0  0  0  0  0  0
   56.4180   25.9300   46.3790 C   0  0  0  0  0  0  0  0  0  0  0  0
   57.3920   27.0260   46.1890 C   0  0  0  0  0  0  0  0  0  0  0  0
   58.4790   27.0250   46.8250 O   0  0  0  0  0  0  0  0  0  0  0  0
   57.1040   28.0880   45.2690 N   0  0  0  0  0  0  0  0  0  0  0  0
   56.2040   28.0630   44.7360 H   0  0  0  0  0  0  0  0  0  0  0  0
   58.0850   29.1250   44.9340 C   0  0  1  0  0  0  0  0  0  0  0  0
   58.8216   28.7180   44.2256 H   0  0  0  0  0  0  0  0  0  0  0  0
   57.3820   30.2920   44.2960 C   0  0  0  0  0  0  0  0  0  0  0  0
   57.3540   30.3980   43.0400 O   0  0  0  0  0  0  0  0  0  0  0  0
   56.8310   31.3250   45.1190 N   0  0  0  0  0  0  0  0  0  0  0  0
   57.0010   32.7410   44.8230 C   0  0  0  0  0  0  0  0  0  0  0  0
   57.4340   32.8595   43.8188 H   0  0  0  0  0  0  0  0  0  0  0  0
   56.0261   33.2495   44.8551 H   0  0  0  0  0  0  0  0  0  0  0  0
   57.9240   33.3410   45.8450 C   0  0  0  0  0  0  0  0  0  0  0  0
   58.8930   34.2840   45.4650 C   0  0  0  0  0  0  0  0  0  0  0  0
   58.9043   34.6744   44.4367 H   0  0  0  0  0  0  0  0  0  0  0  0
   59.8430   34.7280   46.3890 C   0  0  0  0  0  0  0  0  0  0  0  0
   60.5862   35.4815   46.0892 H   0  0  0  0  0  0  0  0  0  0  0  0
   59.8550   34.2200   47.6940 C   0  0  0  0  0  0  0  0  0  0  0  0
   60.8450   34.6620   48.5840 O   0  0  0  0  0  0  0  0  0  0  0  0
   62.1130   34.0840   48.7450 C   0  0  0  0  0  0  0  0  0  0  0  0
   62.8810   33.6410   47.6500 C   0  0  0  0  0  0  0  0  0  0  0  0
   62.4847   33.7375   46.6284 H   0  0  0  0  0  0  0  0  0  0  0  0
   64.1430   33.0800   47.8560 C   0  0  0  0  0  0  0  0  0  0  0  0
   64.7309   32.7215   46.9982 H   0  0  0  0  0  0  0  0  0  0  0  0
   64.6610   32.9730   49.1500 C   0  0  0  0  0  0  0  0  0  0  0  0
   65.6525   32.5237   49.3082 H   0  0  0  0  0  0  0  0  0  0  0  0
   63.9200   33.4370   50.2480 C   0  0  0  0  0  0  0  0  0  0  0  0
   64.4560   33.2750   51.6400 C   0  0  0  0  0  0  0  0  0  0  0  0
   63.6660   33.5138   52.3672 H   0  0  0  0  0  0  0  0  0  0  0  0
   64.7877   32.2365   51.7867 H   0  0  0  0  0  0  0  0  0  0  0  0
   65.3073   33.9560   51.7867 H   0  0  0  0  0  0  0  0  0  0  0  0
   62.6450   33.9850   50.0380 C   0  0  0  0  0  0  0  0  0  0  0  0
   62.0571   34.3405   50.8971 H   0  0  0  0  0  0  0  0  0  0  0  0
   58.8610   33.3080   48.0860 C   0  0  0  0  0  0  0  0  0  0  0  0
   58.8296   32.9446   49.1238 H   0  0  0  0  0  0  0  0  0  0  0  0
   57.9130   32.8610   47.1640 C   0  0  0  0  0  0  0  0  0  0  0  0
   57.1529   32.1283   47.4729 H   0  0  0  0  0  0  0  0  0  0  0  0
   58.8260   29.5780   46.2080 C   0  0  0  0  0  0  0  0  0  0  0  0
   58.4237   30.5517   46.5244 H   0  0  0  0  0  0  0  0  0  0  0  0
   58.6702   28.8102   46.9802 H   0  0  0  0  0  0  0  0  0  0  0  0
   60.3390   29.7180   45.9810 C   0  0  0  0  0  0  0  0  0  0  0  0
   60.7953   28.7171   45.9888 H   0  0  0  0  0  0  0  0  0  0  0  0
   60.4972   30.2142   45.0121 H   0  0  0  0  0  0  0  0  0  0  0  0
   61.1230   30.7380   47.2810 S   0  0  0  0  0  0  0  0  0  0  0  0
   60.0800   30.1650   48.6610 C   0  0  0  0  0  0  0  0  0  0  0  0
   60.5585   30.4279   49.6160 H   0  0  0  0  0  0  0  0  0  0  0  0
   59.0935   30.6478   48.6000 H   0  0  0  0  0  0  0  0  0  0  0  0
   59.9584   29.0734   48.6000 H   0  0  0  0  0  0  0  0  0  0  0  0
  1  2  1  0
  2  3  2  0
  3  4  1  0
  4  5  1  0
  5  6  1  0
  6  7  2  0
  7  8  1  0
  8  9  2  0
  8 10  1  0
 10 11  1  0
 10 12  1  0
 12 13  1  6
 12 14  1  0
 14 15  2  0
 14 16  1  0
 16 17  1  0
 17 18  1  0
 17 19  1  0
 17 20  1  0
 20 21  2  0
 21 22  1  0
 21 23  1  0
 23 24  1  0
 23 25  2  0
 25 26  1  0
 26 27  1  0
 27 28  2  0
 28 29  1  0
 28 30  1  0
 30 31  1  0
 30 32  2  0
 32 33  1  0
 32 34  1  0
 34 35  1  0
 35 36  1  0
 35 37  1  0
 35 38  1  0
 34 39  2  0
 39 40  1  0
 25 41  1  0
 41 42  1  0
 41 43  2  0
 43 44  1  0
 12 45  1  0
 45 46  1  0
 45 47  1  0
 45 48  1  0
 48 49  1  0
 48 50  1  0
 48 51  1  0
 51 52  1  0
 52 53  1  0
 52 54  1  0
 52 55  1  0
  7  3  1  0
 43 20  1  0
 39 27  1  0
M  CHG  2   4  -1  16  -1
M  END
>  <UniqueID>  (74) 
69

>  <SMILES>  (74) 
[H]/N=c1/[n-]onc1C(=O)N[C@H](CCSC)C(=O)[N-]Cc1ccc(Oc2cccc(C)c2)cc1

>  <Energy>  (74) 
88.25326986459999

>  <Genealogy>  (74) 
CSCCC(NC(=O)c1no[n-]c1=N)C(=O)[N-]Cc1ccc(Oc2cccc(C)c2)cc1 (protonated)
CSCC[C@@H](NC(=O)c1no[n-]c1=N)C(=O)[N-]Cc1ccc(Oc2cccc(C)c2)cc1 (chirality)
[H]/N=c1/[n-]onc1C(=O)N[C@H](CCSC)C(=O)[N-]Cc1ccc(Oc2cccc(C)c2)cc1 (cis-trans isomerization)
[H]/N=c1/[n-]onc1C(=O)N[C@H](CCSC)C(=O)[N-]Cc1ccc(Oc2cccc(C)c2)cc1 (3D coordinates assigned)
[H]/N=c1/[n-]onc1C(=O)N[C@H](CCSC)C(=O)[N-]Cc1ccc(Oc2cccc(C)c2)cc1 (optimized conformer: 88.25326986459999 kcal/mol)

>  <smiles>  (74) 
CSCCC(NC(=O)c1no[nH]c1=N)C(=O)NCc1ccc(Oc2cccc(C)c2)cc1

>  <score_type>  (74) 
oracle

>  <origin>  (74) 
adg

>  <m_score__min__energy>  (74) 
-13.35

>  <m_primary>  (74) 
energy

$$$$
74:0
     RDKit          3D

 37 38  0  0  0  0  0  0  0  0999 V2000
   57.3670   23.8350   46.4790 C   0  0  0  0  0  0  0  0  0  0  0  0
   56.8630   25.0390   46.2300 C   0  0  0  0  0  0  0  0  0  0  0  0
   55.5530   25.3280   46.3080 N   0  0  0  0  0  0  0  0  0  0  0  0
   55.4340   26.6080   45.9950 N   0  0  0  0  0  0  0  0  0  0  0  0
   56.6770   27.0640   45.7340 C   0  0  0  0  0  0  0  0  0  0  0  0
   56.9500   28.3330   45.3750 C   0  0  0  0  0  0  0  0  0  0  0  0
   56.2510   28.9770   44.2020 C   0  0  0  0  0  0  0  0  0  0  0  0
   56.0540   30.4870   44.4240 C   0  0  0  0  0  0  0  0  0  0  0  0
   57.2770   31.1680   44.8980 N   0  0  0  0  0  0  0  0  0  0  0  0
   58.3100   31.3390   43.8490 C   0  0  0  0  0  0  0  0  0  0  0  0
   58.1630   32.7140   43.1940 C   0  0  0  0  0  0  0  0  0  0  0  0
   57.7500   33.6850   44.1370 O   0  0  0  0  0  0  0  0  0  0  0  0
   58.8520   34.1520   44.8860 C   0  0  0  0  0  0  0  0  0  0  0  0
   58.4790   34.1900   46.3660 C   0  0  0  0  0  0  0  0  0  0  0  0
   57.2410   33.5680   46.5780 O   0  0  0  0  0  0  0  0  0  0  0  0
   57.7910   30.5630   46.1430 C   0  0  0  0  0  0  0  0  0  0  0  0
   58.1210   29.0740   45.9750 C   0  0  0  0  0  0  0  0  0  0  0  0
   57.6130   26.1000   45.8710 N   0  0  0  0  0  0  0  0  0  0  0  0
   58.4506   23.6646   46.3969 H   0  0  0  0  0  0  0  0  0  0  0  0
   56.7006   23.0086   46.7672 H   0  0  0  0  0  0  0  0  0  0  0  0
   56.8572   28.8247   43.2968 H   0  0  0  0  0  0  0  0  0  0  0  0
   55.2603   28.5117   44.0921 H   0  0  0  0  0  0  0  0  0  0  0  0
   55.7459   30.9435   43.4718 H   0  0  0  0  0  0  0  0  0  0  0  0
   55.2886   30.6065   45.2050 H   0  0  0  0  0  0  0  0  0  0  0  0
   59.3085   31.2560   44.3031 H   0  0  0  0  0  0  0  0  0  0  0  0
   58.1835   30.5580   43.0848 H   0  0  0  0  0  0  0  0  0  0  0  0
   59.1318   33.0151   42.7689 H   0  0  0  0  0  0  0  0  0  0  0  0
   57.3996   32.6458   42.4050 H   0  0  0  0  0  0  0  0  0  0  0  0
   59.7077   33.4763   44.7403 H   0  0  0  0  0  0  0  0  0  0  0  0
   59.1234   35.1634   44.5492 H   0  0  0  0  0  0  0  0  0  0  0  0
   59.2516   33.6654   46.9473 H   0  0  0  0  0  0  0  0  0  0  0  0
   58.4086   35.2396   46.6875 H   0  0  0  0  0  0  0  0  0  0  0  0
   56.9880   33.1390   45.7190 H   0  0  0  0  0  0  0  0  0  0  0  0
   58.7050   31.0959   46.4439 H   0  0  0  0  0  0  0  0  0  0  0  0
   57.0050   30.6488   46.9078 H   0  0  0  0  0  0  0  0  0  0  0  0
   58.9925   28.9697   45.3120 H   0  0  0  0  0  0  0  0  0  0  0  0
   58.3412   28.6464   46.9643 H   0  0  0  0  0  0  0  0  0  0  0  0
  1  2  2  0
  2  3  1  0
  3  4  2  0
  4  5  1  0
  5  6  2  3
  6  7  1  0
  7  8  1  0
  8  9  1  0
  9 10  1  0
 10 11  1  0
 11 12  1  0
 12 13  1  0
 13 14  1  0
 14 15  1  0
  9 16  1  0
 16 17  1  0
  5 18  1  0
 18  2  1  0
 17  6  1  0
  1 19  1  0
  1 20  1  0
  7 21  1  0
  7 22  1  0
  8 23  1  0
  8 24  1  0
 10 25  1  0
 10 26  1  0
 11 27  1  0
 11 28  1  0
 13 29  1  0
 13 30  1  0
 14 31  1  0
 14 32  1  0
 15 33  1  0
 16 34  1  0
 16 35  1  0
 17 36  1  0
 17 37  1  0
M  CHG  1  18  -1
M  END
>  <UniqueID>  (75) 
70

>  <SMILES>  (75) 
C=c1nnc(=C2CCN(CCOCCO)CC2)[n-]1

>  <Energy>  (75) 
70.51426399394856

>  <Genealogy>  (75) 
C=c1nnc(=C2CCN(CCOCCO)CC2)[n-]1 (protonated)
C=c1nnc(=C2CCN(CCOCCO)CC2)[n-]1 (3D coordinates assigned)
C=c1nnc(=C2CCN(CCOCCO)CC2)[n-]1 (nonaromatic ring conformer: 70.51426399394856 kcal/mol)

>  <smiles>  (75) 
C=c1nnc(=C2CCN(CCOCCO)CC2)[nH]1

>  <score_type>  (75) 
oracle

>  <origin>  (75) 
adg

>  <m_score__min__energy>  (75) 
-9.0999999999999996

>  <m_primary>  (75) 
energy

$$$$
75:0
     RDKit          3D

 85 89  0  0  0  0  0  0  0  0999 V2000
   58.5220   30.4270   44.8150 C   0  0  0  0  0  0  0  0  0  0  0  0
   57.5770   29.1920   44.7880 C   0  0  0  0  0  0  0  0  0  0  0  0
   56.0920   29.6350   44.8760 C   0  0  0  0  0  0  0  0  0  0  0  0
   57.7230   28.5380   43.3840 C   0  0  0  0  0  0  0  0  0  0  0  0
   57.9180   28.1990   45.9450 C   0  0  0  0  0  0  0  0  0  0  0  0
   58.8320   28.5800   46.9530 C   0  0  0  0  0  0  0  0  0  0  0  0
   59.3010   27.6760   47.9070 C   0  0  0  0  0  0  0  0  0  0  0  0
   60.3030   28.1010   48.9150 C   0  0  0  0  0  0  0  0  0  0  0  0
   60.4690   27.4230   49.9680 O   0  0  0  0  0  0  0  0  0  0  0  0
   61.0900   29.2840   48.7270 N   0  0  0  0  0  0  0  0  0  0  0  0
   60.7140   30.4600   49.1300 C   0  0  0  0  0  0  0  0  0  0  0  0
   60.7500   31.5120   48.2720 N   0  0  0  0  0  0  0  0  0  0  0  0
   60.3720   32.7590   48.6690 C   0  0  0  0  0  0  0  0  0  0  0  0
   60.3740   33.8360   47.7770 O   0  0  0  0  0  0  0  0  0  0  0  0
   59.2570   34.1900   46.9580 C   0  0  0  0  0  0  0  0  0  0  0  0
   58.1490   33.1310   47.0590 C   0  0  0  0  0  0  0  0  0  0  0  0
   56.9910   33.4420   46.0750 C   0  0  0  0  0  0  0  0  0  0  0  0
   57.3280   34.4120   45.0940 O   0  0  0  0  0  0  0  0  0  0  0  0
   58.5710   34.0940   44.5040 C   0  0  0  0  0  0  0  0  0  0  0  0
   59.7250   34.3270   45.4980 C   0  0  0  0  0  0  0  0  0  0  0  0
   59.9560   32.9670   49.9850 C   0  0  0  0  0  0  0  0  0  0  0  0
   59.9290   31.8810   50.8580 C   0  0  0  0  0  0  0  0  0  0  0  0
   59.5540   32.0720   52.1940 O   0  0  0  0  0  0  0  0  0  0  0  0
   58.5070   31.3650   52.7980 C   0  0  0  0  0  0  0  0  0  0  0  0
   58.6160   30.9930   54.1440 C   0  0  0  0  0  0  0  0  0  0  0  0
   57.6300   30.1880   54.7320 C   0  0  0  0  0  0  0  0  0  0  0  0
   56.5210   29.7730   53.9840 C   0  0  0  0  0  0  0  0  0  0  0  0
   56.3660   30.2060   52.6610 C   0  0  0  0  0  0  0  0  0  0  0  0
   55.2240   29.7770   51.9070 N   0  0  0  0  0  0  0  0  0  0  0  0
   53.8790   29.8170   52.4040 C   0  0  0  0  0  0  0  0  0  0  0  0
   53.5750   29.1920   53.4580 O   0  0  0  0  0  0  0  0  0  0  0  0
   52.8490   30.5640   51.6630 C   0  0  0  0  0  0  0  0  0  0  0  0
   52.4270   30.1450   50.3920 C   0  0  0  0  0  0  0  0  0  0  0  0
   51.4230   30.8710   49.7490 C   0  0  0  0  0  0  0  0  0  0  0  0
   51.0250   30.5240   48.6050 O   0  0  0  0  0  0  0  0  0  0  0  0
   50.8740   31.9550   50.3570 N   0  0  0  0  0  0  0  0  0  0  0  0
   51.2920   32.3500   51.5910 C   0  0  0  0  0  0  0  0  0  0  0  0
   50.7800   33.3650   52.1340 O   0  0  0  0  0  0  0  0  0  0  0  0
   52.2700   31.6570   52.2310 N   0  0  0  0  0  0  0  0  0  0  0  0
   57.3610   31.0060   52.0720 C   0  0  0  0  0  0  0  0  0  0  0  0
   60.3010   30.6520   50.4100 N   0  0  0  0  0  0  0  0  0  0  0  0
   58.8440   26.3580   47.8870 C   0  0  0  0  0  0  0  0  0  0  0  0
   57.8540   25.9310   46.9790 C   0  0  0  0  0  0  0  0  0  0  0  0
   57.2780   24.4810   47.0500 C   0  0  0  0  0  0  0  0  0  0  0  0
   57.3780   23.9230   48.4950 C   0  0  0  0  0  0  0  0  0  0  0  0
   55.7800   24.4010   46.6570 C   0  0  0  0  0  0  0  0  0  0  0  0
   58.0480   23.5580   46.0760 C   0  0  0  0  0  0  0  0  0  0  0  0
   57.3540   26.8840   46.0410 C   0  0  0  0  0  0  0  0  0  0  0  0
   56.2770   26.4970   45.2450 O   0  0  0  0  0  0  0  0  0  0  0  0
   58.7338   30.7039   45.8583 H   0  0  0  0  0  0  0  0  0  0  0  0
   59.4635   30.1795   44.3029 H   0  0  0  0  0  0  0  0  0  0  0  0
   58.0370   31.2711   44.3029 H   0  0  0  0  0  0  0  0  0  0  0  0
   55.7975   29.7228   45.9322 H   0  0  0  0  0  0  0  0  0  0  0  0
   55.9698   30.6087   44.3791 H   0  0  0  0  0  0  0  0  0  0  0  0
   55.4563   28.8874   44.3791 H   0  0  0  0  0  0  0  0  0  0  0  0
   57.9613   27.4704   43.4998 H   0  0  0  0  0  0  0  0  0  0  0  0
   56.7789   28.6449   42.8297 H   0  0  0  0  0  0  0  0  0  0  0  0
   58.5320   29.0363   42.8297 H   0  0  0  0  0  0  0  0  0  0  0  0
   59.1847   29.6214   46.9867 H   0  0  0  0  0  0  0  0  0  0  0  0
   58.8457   35.1482   47.3081 H   0  0  0  0  0  0  0  0  0  0  0  0
   58.5713   32.1445   46.8172 H   0  0  0  0  0  0  0  0  0  0  0  0
   57.7494   33.1387   48.0838 H   0  0  0  0  0  0  0  0  0  0  0  0
   56.7102   32.5105   45.5618 H   0  0  0  0  0  0  0  0  0  0  0  0
   56.1631   33.8560   46.6692 H   0  0  0  0  0  0  0  0  0  0  0  0
   58.5655   33.0370   44.1993 H   0  0  0  0  0  0  0  0  0  0  0  0
   58.7225   34.7442   43.6297 H   0  0  0  0  0  0  0  0  0  0  0  0
   60.5153   33.5863   45.3063 H   0  0  0  0  0  0  0  0  0  0  0  0
   60.0999   35.3510   45.3533 H   0  0  0  0  0  0  0  0  0  0  0  0
   59.6553   33.9685   50.3264 H   0  0  0  0  0  0  0  0  0  0  0  0
   59.4758   31.3327   54.7402 H   0  0  0  0  0  0  0  0  0  0  0  0
   57.7278   29.8815   55.7839 H   0  0  0  0  0  0  0  0  0  0  0  0
   55.7714   29.1067   54.4358 H   0  0  0  0  0  0  0  0  0  0  0  0
   52.8777   29.2634   49.9127 H   0  0  0  0  0  0  0  0  0  0  0  0
   57.2403   31.3528   51.0351 H   0  0  0  0  0  0  0  0  0  0  0  0
   59.2672   25.6333   48.5982 H   0  0  0  0  0  0  0  0  0  0  0  0
   57.2313   24.7415   49.2151 H   0  0  0  0  0  0  0  0  0  0  0  0
   56.6027   23.1576   48.6470 H   0  0  0  0  0  0  0  0  0  0  0  0
   58.3708   23.4745   48.6470 H   0  0  0  0  0  0  0  0  0  0  0  0
   55.1634   24.3681   47.5673 H   0  0  0  0  0  0  0  0  0  0  0  0
   55.5091   25.2860   46.0625 H   0  0  0  0  0  0  0  0  0  0  0  0
   55.6049   23.4922   46.0625 H   0  0  0  0  0  0  0  0  0  0  0  0
   58.6487   22.8379   46.6509 H   0  0  0  0  0  0  0  0  0  0  0  0
   57.3317   23.0146   45.4423 H   0  0  0  0  0  0  0  0  0  0  0  0
   58.7110   24.1653   45.4423 H   0  0  0  0  0  0  0  0  0  0  0  0
   56.3350   26.2740   44.2690 H   0  0  0  0  0  0  0  0  0  0  0  0
  1  2  1  0
  2  3  1  0
  2  4  1  0
  2  5  1  0
  5  6  2  0
  6  7  1  0
  7  8  1  0
  8  9  2  0
  8 10  1  0
 10 11  2  3
 11 12  1  0
 12 13  2  0
 13 14  1  0
 14 15  1  0
 15 16  1  0
 16 17  1  0
 17 18  1  0
 18 19  1  0
 19 20  1  0
 13 21  1  0
 21 22  2  0
 22 23  1  0
 23 24  1  0
 24 25  2  0
 25 26  1  0
 26 27  2  0
 27 28  1  0
 28 29  1  0
 29 30  1  0
 30 31  2  0
 30 32  1  0
 32 33  2  0
 33 34  1  0
 34 35  2  0
 34 36  1  0
 36 37  1  0
 37 38  2  0
 37 39  1  0
 28 40  2  0
 22 41  1  0
  7 42  2  0
 42 43  1  0
 43 44  1  0
 44 45  1  0
 44 46  1  0
 44 47  1  0
 43 48  2  0
 48 49  1  0
 48  5  1  0
 41 11  1  0
 20 15  1  0
 40 24  1  0
 39 32  1  0
  1 50  1  0
  1 51  1  0
  1 52  1  0
  3 53  1  0
  3 54  1  0
  3 55  1  0
  4 56  1  0
  4 57  1  0
  4 58  1  0
  6 59  1  0
 15 60  1  0
 16 61  1  0
 16 62  1  0
 17 63  1  0
 17 64  1  0
 19 65  1  0
 19 66  1  0
 20 67  1  0
 20 68  1  0
 21 69  1  0
 25 70  1  0
 26 71  1  0
 27 72  1  0
 33 73  1  0
 40 74  1  0
 42 75  1  0
 45 76  1  0
 45 77  1  0
 45 78  1  0
 46 79  1  0
 46 80  1  0
 46 81  1  0
 47 82  1  0
 47 83  1  0
 47 84  1  0
 49 85  1  0
M  CHG  4  29  -1  36  -1  39  -1  41  -1
M  END
>  <UniqueID>  (76) 
71

>  <SMILES>  (76) 
CC(C)(C)c1cc(C(=O)N=c2nc(OC3CCOCC3)cc(Oc3cccc([N-]C(=O)c4cc(=O)[n-]c(=O)[n-]4)c3)[n-]2)cc(C(C)(C)C)c1O

>  <Energy>  (76) 
135.59745205826928

>  <Genealogy>  (76) 
CC(C)(C)c1cc(C(=O)N=c2nc(OC3CCOCC3)cc(Oc3cccc([N-]C(=O)c4cc(=O)[n-]c(=O)[n-]4)c3)[n-]2)cc(C(C)(C)C)c1O (protonated)
CC(C)(C)c1cc(C(=O)N=c2nc(OC3CCOCC3)cc(Oc3cccc([N-]C(=O)c4cc(=O)[n-]c(=O)[n-]4)c3)[n-]2)cc(C(C)(C)C)c1O (3D coordinates assigned)
CC(C)(C)c1cc(C(=O)N=c2nc(OC3CCOCC3)cc(Oc3cccc([N-]C(=O)c4cc(=O)[n-]c(=O)[n-]4)c3)[n-]2)cc(C(C)(C)C)c1O (nonaromatic ring conformer: 135.59745205826928 kcal/mol)

>  <smiles>  (76) 
CC(C)(C)c1cc(C(=O)N=c2nc(OC3CCOCC3)cc(Oc3cccc(NC(=O)c4cc(=O)[nH]c(=O)[nH]4)c3)[nH]2)cc(C(C)(C)C)c1O

>  <score_type>  (76) 
oracle

>  <origin>  (76) 
adg

>  <m_score__min__energy>  (76) 
-19

>  <m_primary>  (76) 
energy

$$$$
76:0
     RDKit          3D

 54 57  0  0  0  0  0  0  0  0999 V2000
   55.8240   22.4810   41.5600 H   0  0  0  0  0  0  0  0  0  0  0  0
   55.6420   22.2390   42.5270 O   0  0  0  0  0  0  0  0  0  0  0  0
   56.5270   22.5740   43.5500 C   0  0  0  0  0  0  0  0  0  0  0  0
   56.1720   23.5780   44.4580 C   0  0  0  0  0  0  0  0  0  0  0  0
   55.2033   24.0888   44.3550 H   0  0  0  0  0  0  0  0  0  0  0  0
   57.0450   23.9400   45.5030 C   0  0  0  0  0  0  0  0  0  0  0  0
   56.6590   24.9870   46.4760 C   0  0  0  0  0  0  0  0  0  0  0  0
   55.5490   25.5750   46.3660 O   0  0  0  0  0  0  0  0  0  0  0  0
   57.5390   25.3300   47.5510 N   0  0  0  0  0  0  0  0  0  0  0  0
   58.7090   26.1750   47.3780 C   0  0  0  0  0  0  0  0  0  0  0  0
   59.5773   25.5446   47.1357 H   0  0  0  0  0  0  0  0  0  0  0  0
   58.8880   26.7276   48.3122 H   0  0  0  0  0  0  0  0  0  0  0  0
   58.4910   27.1590   46.2700 C   0  0  0  0  0  0  0  0  0  0  0  0
   59.5010   27.4200   44.9450 S   0  0  0  0  0  0  0  0  0  0  0  0
   58.5390   28.5790   44.1990 C   0  0  0  0  0  0  0  0  0  0  0  0
   58.7673   29.1003   43.2576 H   0  0  0  0  0  0  0  0  0  0  0  0
   57.4050   28.7630   44.9800 C   0  0  0  0  0  0  0  0  0  0  0  0
   56.3090   29.6610   44.6010 C   0  0  0  0  0  0  0  0  0  0  0  0
   55.1300   29.3270   44.8880 O   0  0  0  0  0  0  0  0  0  0  0  0
   56.5310   30.9100   43.9210 N   0  0  0  0  0  0  0  0  0  0  0  0
   57.2410   31.9180   44.3380 C   0  0  0  0  0  0  0  0  0  0  0  0
   57.2070   32.4150   45.5940 N   0  0  0  0  0  0  0  0  0  0  0  0
   58.0560   33.4670   45.7380 C   0  0  0  0  0  0  0  0  0  0  0  0
   58.2750   34.1170   47.0670 C   0  0  0  0  0  0  0  0  0  0  0  0
   58.3318   33.3458   47.8493 H   0  0  0  0  0  0  0  0  0  0  0  0
   57.4396   34.7973   47.2888 H   0  0  0  0  0  0  0  0  0  0  0  0
   59.5530   34.8860   47.0300 C   0  0  0  0  0  0  0  0  0  0  0  0
   59.6560   35.8940   46.2830 O   0  0  0  0  0  0  0  0  0  0  0  0
   60.6750   34.4250   47.7870 N   0  0  0  0  0  0  0  0  0  0  0  0
   61.5070   33.2970   47.3790 C   0  0  0  0  0  0  0  0  0  0  0  0
   61.6635   33.3325   46.2908 H   0  0  0  0  0  0  0  0  0  0  0  0
   62.4777   33.3548   47.8931 H   0  0  0  0  0  0  0  0  0  0  0  0
   60.8240   32.0060   47.7450 C   0  0  0  0  0  0  0  0  0  0  0  0
   61.0430   30.8480   46.9830 C   0  0  0  0  0  0  0  0  0  0  0  0
   61.7540   30.8718   46.1440 H   0  0  0  0  0  0  0  0  0  0  0  0
   60.3630   29.6650   47.2840 C   0  0  0  0  0  0  0  0  0  0  0  0
   60.5274   28.7664   46.6712 H   0  0  0  0  0  0  0  0  0  0  0  0
   59.4760   29.6210   48.3600 C   0  0  0  0  0  0  0  0  0  0  0  0
   58.9410   28.6892   48.5955 H   0  0  0  0  0  0  0  0  0  0  0  0
   59.2690   30.7620   49.1370 C   0  0  0  0  0  0  0  0  0  0  0  0
   58.5785   30.7246   49.9924 H   0  0  0  0  0  0  0  0  0  0  0  0
   59.9360   31.9520   48.8320 C   0  0  0  0  0  0  0  0  0  0  0  0
   59.7649   32.8490   49.4452 H   0  0  0  0  0  0  0  0  0  0  0  0
   58.7860   33.7980   44.5970 C   0  0  0  0  0  0  0  0  0  0  0  0
   59.5290   34.6051   44.5158 H   0  0  0  0  0  0  0  0  0  0  0  0
   58.3300   32.7450   43.3660 S   0  0  0  0  0  0  0  0  0  0  0  0
   57.3770   27.9760   46.1390 C   0  0  0  0  0  0  0  0  0  0  0  0
   56.5558   28.0031   46.8704 H   0  0  0  0  0  0  0  0  0  0  0  0
   58.2850   23.2830   45.6130 C   0  0  0  0  0  0  0  0  0  0  0  0
   58.9816   23.5604   46.4179 H   0  0  0  0  0  0  0  0  0  0  0  0
   58.6360   22.2800   44.7050 C   0  0  0  0  0  0  0  0  0  0  0  0
   59.6059   21.7699   44.8009 H   0  0  0  0  0  0  0  0  0  0  0  0
   57.7610   21.9220   43.6760 C   0  0  0  0  0  0  0  0  0  0  0  0
   58.1140   20.9390   42.8110 F   0  0  0  0  0  0  0  0  0  0  0  0
  1  2  1  0
  2  3  1  0
  3  4  2  0
  4  5  1  0
  4  6  1  0
  6  7  1  0
  7  8  2  0
  7  9  1  0
  9 10  1  0
 10 11  1  0
 10 12  1  0
 10 13  1  0
 13 14  1  0
 14 15  1  0
 15 16  1  0
 15 17  2  0
 17 18  1  0
 18 19  2  0
 18 20  1  0
 20 21  2  0
 21 22  1  0
 22 23  1  0
 23 24  1  0
 24 25  1  0
 24 26  1  0
 24 27  1  0
 27 28  2  0
 27 29  1  0
 29 30  1  0
 30 31  1  0
 30 32  1  0
 30 33  1  0
 33 34  2  0
 34 35  1  0
 34 36  1  0
 36 37  1  0
 36 38  2  0
 38 39  1  0
 38 40  1  0
 40 41  1  0
 40 42  2  0
 42 43  1  0
 23 44  2  0
 44 45  1  0
 44 46  1  0
 17 47  1  0
 47 48  1  0
  6 49  2  0
 49 50  1  0
 49 51  1  0
 51 52  1  0
 51 53  2  0
 53 54  1  0
 53  3  1  0
 47 13  2  0
 46 21  1  0
 42 33  1  0
M  CHG  3   9  -1  22  -1  29  -1
M  END
>  <UniqueID>  (77) 
72

>  <SMILES>  (77) 
O=C(Cc1cs/c(=N/C(=O)c2csc(C[N-]C(=O)c3ccc(F)c(O)c3)c2)[n-]1)[N-]Cc1ccccc1

>  <Energy>  (77) 
113.43858784773911

>  <Genealogy>  (77) 
O=C(Cc1csc(=NC(=O)c2csc(C[N-]C(=O)c3ccc(F)c(O)c3)c2)[n-]1)[N-]Cc1ccccc1 (protonated)
O=C(Cc1cs/c(=N/C(=O)c2csc(C[N-]C(=O)c3ccc(F)c(O)c3)c2)[n-]1)[N-]Cc1ccccc1 (cis-trans isomerization)
O=C(Cc1cs/c(=N/C(=O)c2csc(C[N-]C(=O)c3ccc(F)c(O)c3)c2)[n-]1)[N-]Cc1ccccc1 (3D coordinates assigned)
O=C(Cc1cs/c(=N/C(=O)c2csc(C[N-]C(=O)c3ccc(F)c(O)c3)c2)[n-]1)[N-]Cc1ccccc1 (optimized conformer: 113.43858784773911 kcal/mol)

>  <smiles>  (77) 
O=C(Cc1csc(=NC(=O)c2csc(CNC(=O)c3ccc(F)c(O)c3)c2)[nH]1)NCc1ccccc1

>  <score_type>  (77) 
oracle

>  <origin>  (77) 
adg

>  <m_score__min__energy>  (77) 
-14.050000000000001

>  <m_primary>  (77) 
energy

$$$$
77:0
     RDKit          3D

 57 60  0  0  0  0  0  0  0  0999 V2000
   58.1510   31.7510   42.7560 O   0  0  0  0  0  0  0  0  0  0  0  0
   57.4240   32.0400   43.7440 C   0  0  0  0  0  0  0  0  0  0  0  0
   56.2970   31.1380   44.1230 C   0  0  0  0  0  0  0  0  0  0  0  0
   56.6750   29.7580   43.8520 N   0  0  0  0  0  0  0  0  0  0  0  0
   56.8730   28.7540   44.8560 C   0  0  0  0  0  0  0  0  0  0  0  0
   55.8770   28.1070   45.2730 O   0  0  0  0  0  0  0  0  0  0  0  0
   58.2140   28.4380   45.3930 C   0  0  0  0  0  0  0  0  0  0  0  0
   59.0530   29.4900   45.7980 C   0  0  0  0  0  0  0  0  0  0  0  0
   60.3000   29.2250   46.3680 C   0  0  0  0  0  0  0  0  0  0  0  0
   60.7180   27.9070   46.5530 C   0  0  0  0  0  0  0  0  0  0  0  0
   59.8920   26.8500   46.1680 C   0  0  0  0  0  0  0  0  0  0  0  0
   58.6400   27.0990   45.5820 C   0  0  0  0  0  0  0  0  0  0  0  0
   57.8060   25.9470   45.1670 C   0  0  0  0  0  0  0  0  0  0  0  0
   57.7690   25.5640   43.8160 C   0  0  0  0  0  0  0  0  0  0  0  0
   56.9880   24.4780   43.4130 C   0  0  0  0  0  0  0  0  0  0  0  0
   56.2310   23.7710   44.3510 C   0  0  0  0  0  0  0  0  0  0  0  0
   56.2510   24.1530   45.6950 C   0  0  0  0  0  0  0  0  0  0  0  0
   57.0320   25.2390   46.1060 C   0  0  0  0  0  0  0  0  0  0  0  0
   57.0120   25.6130   47.4100 F   0  0  0  0  0  0  0  0  0  0  0  0
   57.6410   33.2420   44.4950 N   0  0  0  0  0  0  0  0  0  0  0  0
   58.4760   33.3900   45.6530 C   0  0  0  0  0  0  0  0  0  0  0  0
   59.5930   34.2460   45.6650 C   0  0  0  0  0  0  0  0  0  0  0  0
   60.3940   34.3410   46.8070 C   0  0  0  0  0  0  0  0  0  0  0  0
   60.0990   33.5760   47.9430 C   0  0  0  0  0  0  0  0  0  0  0  0
   61.1300   33.7010   49.3640 S   0  0  0  0  0  0  0  0  0  0  0  0
   60.2860   33.7770   50.6060 O   0  0  0  0  0  0  0  0  0  0  0  0
   61.9430   34.9610   49.2540 O   0  0  0  0  0  0  0  0  0  0  0  0
   62.1850   32.3030   49.4270 N   0  0  0  0  0  0  0  0  0  0  0  0
   63.4500   32.5980   50.1370 C   0  0  0  0  0  0  0  0  0  0  0  0
   64.6190   32.8800   49.1770 C   0  0  0  0  0  0  0  0  0  0  0  0
   64.1510   33.5070   48.0050 O   0  0  0  0  0  0  0  0  0  0  0  0
   63.3790   32.5980   47.2390 C   0  0  0  0  0  0  0  0  0  0  0  0
   62.4140   31.7340   48.0870 C   0  0  0  0  0  0  0  0  0  0  0  0
   59.0040   32.7020   47.9230 C   0  0  0  0  0  0  0  0  0  0  0  0
   58.2030   32.6060   46.7810 C   0  0  0  0  0  0  0  0  0  0  0  0
   56.0764   31.2553   45.1943 H   0  0  0  0  0  0  0  0  0  0  0  0
   55.4031   31.3978   43.5369 H   0  0  0  0  0  0  0  0  0  0  0  0
   58.7246   30.5314   45.6649 H   0  0  0  0  0  0  0  0  0  0  0  0
   60.9533   30.0563   46.6714 H   0  0  0  0  0  0  0  0  0  0  0  0
   61.7002   27.7005   47.0031 H   0  0  0  0  0  0  0  0  0  0  0  0
   60.2242   25.8132   46.3248 H   0  0  0  0  0  0  0  0  0  0  0  0
   58.3574   26.1215   43.0723 H   0  0  0  0  0  0  0  0  0  0  0  0
   56.9689   24.1787   42.3547 H   0  0  0  0  0  0  0  0  0  0  0  0
   55.6196   22.9142   44.0315 H   0  0  0  0  0  0  0  0  0  0  0  0
   55.6513   23.5986   46.4318 H   0  0  0  0  0  0  0  0  0  0  0  0
   59.8366   34.8421   44.7732 H   0  0  0  0  0  0  0  0  0  0  0  0
   61.2598   35.0195   46.8136 H   0  0  0  0  0  0  0  0  0  0  0  0
   63.2977   33.4812   50.7748 H   0  0  0  0  0  0  0  0  0  0  0  0
   63.7136   31.7090   50.7287 H   0  0  0  0  0  0  0  0  0  0  0  0
   65.3462   33.5383   49.6748 H   0  0  0  0  0  0  0  0  0  0  0  0
   65.0963   31.9268   48.9058 H   0  0  0  0  0  0  0  0  0  0  0  0
   62.7844   33.1726   46.5135 H   0  0  0  0  0  0  0  0  0  0  0  0
   64.0838   31.9087   46.7511 H   0  0  0  0  0  0  0  0  0  0  0  0
   61.4494   31.6633   47.5631 H   0  0  0  0  0  0  0  0  0  0  0  0
   62.8745   30.7434   48.2162 H   0  0  0  0  0  0  0  0  0  0  0  0
   58.7740   32.0901   48.8077 H   0  0  0  0  0  0  0  0  0  0  0  0
   57.3518   31.9093   46.7684 H   0  0  0  0  0  0  0  0  0  0  0  0
  1  2  2  0
  2  3  1  0
  3  4  1  0
  4  5  1  0
  5  6  2  0
  5  7  1  0
  7  8  2  0
  8  9  1  0
  9 10  2  0
 10 11  1  0
 11 12  2  0
 12 13  1  0
 13 14  2  0
 14 15  1  0
 15 16  2  0
 16 17  1  0
 17 18  2  0
 18 19  1  0
  2 20  1  0
 20 21  1  0
 21 22  2  0
 22 23  1  0
 23 24  2  0
 24 25  1  0
 25 26  2  0
 25 27  2  0
 25 28  1  0
 28 29  1  0
 29 30  1  0
 30 31  1  0
 31 32  1  0
 32 33  1  0
 24 34  1  0
 34 35  2  0
 12  7  1  0
 18 13  1  0
 35 21  1  0
 33 28  1  0
  3 36  1  0
  3 37  1  0
  8 38  1  0
  9 39  1  0
 10 40  1  0
 11 41  1  0
 14 42  1  0
 15 43  1  0
 16 44  1  0
 17 45  1  0
 22 46  1  0
 23 47  1  0
 29 48  1  0
 29 49  1  0
 30 50  1  0
 30 51  1  0
 32 52  1  0
 32 53  1  0
 33 54  1  0
 33 55  1  0
 34 56  1  0
 35 57  1  0
M  CHG  2   4  -1  20  -1
M  END
>  <UniqueID>  (78) 
73

>  <SMILES>  (78) 
O=C(C[N-]C(=O)c1ccccc1-c1ccccc1F)[N-]c1ccc(S(=O)(=O)N2CCOCC2)cc1

>  <Energy>  (78) 
85.4257712378124

>  <Genealogy>  (78) 
O=C(C[N-]C(=O)c1ccccc1-c1ccccc1F)[N-]c1ccc(S(=O)(=O)N2CCOCC2)cc1 (protonated)
O=C(C[N-]C(=O)c1ccccc1-c1ccccc1F)[N-]c1ccc(S(=O)(=O)N2CCOCC2)cc1 (3D coordinates assigned)
O=C(C[N-]C(=O)c1ccccc1-c1ccccc1F)[N-]c1ccc(S(=O)(=O)N2CCOCC2)cc1 (nonaromatic ring conformer: 85.4257712378124 kcal/mol)

>  <smiles>  (78) 
O=C(CNC(=O)c1ccccc1-c1ccccc1F)Nc1ccc(S(=O)(=O)N2CCOCC2)cc1

>  <score_type>  (78) 
oracle

>  <origin>  (78) 
adg

>  <m_score__min__energy>  (78) 
-13.789999999999999

>  <m_primary>  (78) 
energy

$$$$
78:0
     RDKit          3D

 59 63  0  0  0  0  0  0  0  0999 V2000
   59.7923   30.8233   52.9568 H   0  0  0  0  0  0  0  0  0  0  0  0
   59.7120   30.2410   52.0270 C   0  0  0  0  0  0  0  0  0  0  0  0
   60.9610   29.4180   51.2600 S   0  0  0  0  0  0  0  0  0  0  0  0
   59.9880   28.8770   49.9950 C   0  0  0  0  0  0  0  0  0  0  0  0
   60.3320   28.0890   49.0160 N   0  0  0  0  0  0  0  0  0  0  0  0
   59.5270   27.5040   47.9730 C   0  0  0  0  0  0  0  0  0  0  0  0
   59.0030   26.3790   48.2050 O   0  0  0  0  0  0  0  0  0  0  0  0
   59.1880   28.2300   46.6830 C   0  0  1  0  0  0  0  0  0  0  0  0
   58.8054   29.2200   46.9720 H   0  0  0  0  0  0  0  0  0  0  0  0
   60.4190   28.4510   45.7920 C   0  0  0  0  0  0  0  0  0  0  0  0
   60.8338   27.4709   45.5138 H   0  0  0  0  0  0  0  0  0  0  0  0
   61.1434   29.0487   46.3647 H   0  0  0  0  0  0  0  0  0  0  0  0
   60.0820   29.2320   44.5000 C   0  0  0  0  0  0  0  0  0  0  0  0
   60.6695   28.8014   43.6757 H   0  0  0  0  0  0  0  0  0  0  0  0
   60.3267   30.2856   44.6999 H   0  0  0  0  0  0  0  0  0  0  0  0
   58.6500   29.1990   44.1140 N   0  0  2  0  0  0  0  0  0  0  0  0
   58.6370   29.2880   43.0710 H   0  0  0  0  0  0  0  0  0  0  0  0
   57.6790   30.5640   44.6760 S   0  0  0  0  0  0  0  0  0  0  0  0
   57.3700   31.3990   43.4660 O   0  0  0  0  0  0  0  0  0  0  0  0
   56.3660   30.0920   45.2370 O   0  0  0  0  0  0  0  0  0  0  0  0
   58.4380   31.6030   45.9020 C   0  0  0  0  0  0  0  0  0  0  0  0
   58.5160   31.3310   47.2660 C   0  0  0  0  0  0  0  0  0  0  0  0
   58.2407   30.3710   47.7271 H   0  0  0  0  0  0  0  0  0  0  0  0
   58.9750   32.4040   47.9470 N   0  0  0  0  0  0  0  0  0  0  0  0
   59.0870   32.4940   49.4040 C   0  0  0  0  0  0  0  0  0  0  0  0
   58.4062   33.2744   49.7748 H   0  0  0  0  0  0  0  0  0  0  0  0
   58.8181   31.5245   49.8488 H   0  0  0  0  0  0  0  0  0  0  0  0
   60.4970   32.8400   49.7870 C   0  0  0  0  0  0  0  0  0  0  0  0
   60.7190   33.2580   50.9540 O   0  0  0  0  0  0  0  0  0  0  0  0
   61.6360   32.6440   48.8680 C   0  0  0  0  0  0  0  0  0  0  0  0
   62.7420   33.8400   48.4520 S   0  0  0  0  0  0  0  0  0  0  0  0
   63.6820   32.8940   47.4290 C   0  0  0  0  0  0  0  0  0  0  0  0
   64.5744   33.2272   46.8789 H   0  0  0  0  0  0  0  0  0  0  0  0
   63.1350   31.6190   47.4000 C   0  0  0  0  0  0  0  0  0  0  0  0
   63.5574   30.7977   46.8025 H   0  0  0  0  0  0  0  0  0  0  0  0
   61.9950   31.4740   48.2020 C   0  0  0  0  0  0  0  0  0  0  0  0
   61.4386   30.5298   48.2964 H   0  0  0  0  0  0  0  0  0  0  0  0
   59.1500   33.3830   47.0350 C   0  0  0  0  0  0  0  0  0  0  0  0
   59.5390   34.7090   47.2620 C   0  0  0  0  0  0  0  0  0  0  0  0
   59.7818   35.0620   48.2751 H   0  0  0  0  0  0  0  0  0  0  0  0
   59.6100   35.5740   46.1600 C   0  0  0  0  0  0  0  0  0  0  0  0
   59.9205   36.6192   46.3053 H   0  0  0  0  0  0  0  0  0  0  0  0
   59.2860   35.1130   44.8670 C   0  0  0  0  0  0  0  0  0  0  0  0
   59.3468   35.8011   44.0110 H   0  0  0  0  0  0  0  0  0  0  0  0
   58.8860   33.7810   44.6640 C   0  0  0  0  0  0  0  0  0  0  0  0
   58.6202   33.4179   43.6603 H   0  0  0  0  0  0  0  0  0  0  0  0
   58.8350   32.9300   45.7720 C   0  0  0  0  0  0  0  0  0  0  0  0
   58.0080   27.8990   44.4120 C   0  0  0  0  0  0  0  0  0  0  0  0
   58.4942   27.1251   43.7999 H   0  0  0  0  0  0  0  0  0  0  0  0
   56.9385   28.0129   44.1815 H   0  0  0  0  0  0  0  0  0  0  0  0
   58.1020   27.4740   45.8980 C   0  0  0  0  0  0  0  0  0  0  0  0
   58.3274   26.3981   45.9392 H   0  0  0  0  0  0  0  0  0  0  0  0
   57.1362   27.7151   46.3661 H   0  0  0  0  0  0  0  0  0  0  0  0
   58.7140   29.3010   50.1460 N   0  0  0  0  0  0  0  0  0  0  0  0
   58.5570   30.0520   51.2720 C   0  0  0  0  0  0  0  0  0  0  0  0
   57.2420   30.6530   51.6440 C   0  0  0  0  0  0  0  0  0  0  0  0
   57.1541   30.6932   52.7397 H   0  0  0  0  0  0  0  0  0  0  0  0
   57.1749   31.6712   51.2332 H   0  0  0  0  0  0  0  0  0  0  0  0
   56.4282   30.0374   51.2332 H   0  0  0  0  0  0  0  0  0  0  0  0
  1  2  1  0
  2  3  1  0
  3  4  1  0
  4  5  2  0
  5  6  1  0
  6  7  2  0
  6  8  1  0
  8  9  1  1
  8 10  1  0
 10 11  1  0
 10 12  1  0
 10 13  1  0
 13 14  1  0
 13 15  1  0
 13 16  1  0
 16 17  1  6
 16 18  1  0
 18 19  2  0
 18 20  2  0
 18 21  1  0
 21 22  2  0
 22 23  1  0
 22 24  1  0
 24 25  1  0
 25 26  1  0
 25 27  1  0
 25 28  1  0
 28 29  2  0
 28 30  1  0
 30 31  1  0
 31 32  1  0
 32 33  1  0
 32 34  2  0
 34 35  1  0
 34 36  1  0
 36 37  1  0
 24 38  1  0
 38 39  2  0
 39 40  1  0
 39 41  1  0
 41 42  1  0
 41 43  2  0
 43 44  1  0
 43 45  1  0
 45 46  1  0
 45 47  2  0
 16 48  1  0
 48 49  1  0
 48 50  1  0
 48 51  1  0
 51 52  1  0
 51 53  1  0
  4 54  1  0
 54 55  1  0
 55 56  1  0
 56 57  1  0
 56 58  1  0
 56 59  1  0
 55  2  2  0
 51  8  1  0
 47 21  1  0
 36 30  2  0
 47 38  1  0
M  CHG  2  16   1  54  -1
M  END
>  <UniqueID>  (79) 
74

>  <SMILES>  (79) 
Cc1cs/c(=N\C(=O)C2CC[NH+](S(=O)(=O)c3cn(CC(=O)c4cccs4)c4ccccc34)CC2)[n-]1

>  <Energy>  (79) 
169.90686996912063

>  <Genealogy>  (79) 
Cc1csc(=NC(=O)C2CC[NH+](S(=O)(=O)c3cn(CC(=O)c4cccs4)c4ccccc34)CC2)[n-]1 (protonated)
Cc1cs/c(=N\C(=O)C2CC[NH+](S(=O)(=O)c3cn(CC(=O)c4cccs4)c4ccccc34)CC2)[n-]1 (cis-trans isomerization)
Cc1cs/c(=N\C(=O)C2CC[NH+](S(=O)(=O)c3cn(CC(=O)c4cccs4)c4ccccc34)CC2)[n-]1 (3D coordinates assigned)
Cc1cs/c(=N\C(=O)C2CC[NH+](S(=O)(=O)c3cn(CC(=O)c4cccs4)c4ccccc34)CC2)[n-]1 (nonaromatic ring conformer: 169.90686996912063 kcal/mol)

>  <smiles>  (79) 
Cc1csc(=NC(=O)C2CCN(S(=O)(=O)c3cn(CC(=O)c4cccs4)c4ccccc34)CC2)[nH]1

>  <score_type>  (79) 
oracle

>  <origin>  (79) 
adg

>  <m_score__min__energy>  (79) 
-11.48

>  <m_primary>  (79) 
energy

$$$$
79:0
     RDKit          3D

 58 61  0  0  0  0  0  0  0  0999 V2000
   54.7330   28.9670   45.5600 H   0  0  0  0  0  0  0  0  0  0  0  0
   55.5700   28.6120   45.1140 O   0  0  0  0  0  0  0  0  0  0  0  0
   56.2850   27.5200   45.6100 C   0  0  0  0  0  0  0  0  0  0  0  0
   55.5950   26.4860   46.1620 N   0  0  0  0  0  0  0  0  0  0  0  0
   56.2320   25.3880   46.6420 C   0  0  0  0  0  0  0  0  0  0  0  0
   55.5650   24.4460   47.1490 O   0  0  0  0  0  0  0  0  0  0  0  0
   57.5860   25.3010   46.5730 N   0  0  0  0  0  0  0  0  0  0  0  0
   58.3270   26.3040   46.0350 C   0  0  0  0  0  0  0  0  0  0  0  0
   59.5840   26.1890   45.9860 O   0  0  0  0  0  0  0  0  0  0  0  0
   57.6950   27.4610   45.5500 C   0  0  0  0  0  0  0  0  0  0  0  0
   58.4960   28.5400   44.9400 C   0  0  0  0  0  0  0  0  0  0  0  0
   58.8319   28.3917   43.9031 H   0  0  0  0  0  0  0  0  0  0  0  0
   58.8510   29.6900   45.5430 C   0  0  0  0  0  0  0  0  0  0  0  0
   58.3800   30.9270   45.1260 C   0  0  0  0  0  0  0  0  0  0  0  0
   57.7209   31.1216   44.2671 H   0  0  0  0  0  0  0  0  0  0  0  0
   58.8960   31.8650   45.9940 C   0  0  0  0  0  0  0  0  0  0  0  0
   58.6350   33.3370   45.9220 C   0  0  0  0  0  0  0  0  0  0  0  0
   58.5623   33.7467   46.9403 H   0  0  0  0  0  0  0  0  0  0  0  0
   59.4598   33.8299   45.3864 H   0  0  0  0  0  0  0  0  0  0  0  0
   57.6911   33.5163   45.3864 H   0  0  0  0  0  0  0  0  0  0  0  0
   59.6790   31.2670   46.9190 N   0  0  0  0  0  0  0  0  0  0  0  0
   60.3830   31.9430   47.9750 C   0  0  0  0  0  0  0  0  0  0  0  0
   61.7750   32.0850   47.8900 C   0  0  0  0  0  0  0  0  0  0  0  0
   62.3090   31.6977   47.0097 H   0  0  0  0  0  0  0  0  0  0  0  0
   62.4940   32.7160   48.9160 C   0  0  0  0  0  0  0  0  0  0  0  0
   63.9640   32.8640   48.8100 C   0  0  0  0  0  0  0  0  0  0  0  0
   64.4610   33.2750   47.7260 O   0  0  0  0  0  0  0  0  0  0  0  0
   64.8360   32.5730   49.9180 N   0  0  0  0  0  0  0  0  0  0  0  0
   64.5630   31.4570   50.8300 C   0  0  0  0  0  0  0  0  0  0  0  0
   64.1688   31.8515   51.7782 H   0  0  0  0  0  0  0  0  0  0  0  0
   63.8251   30.7871   50.3644 H   0  0  0  0  0  0  0  0  0  0  0  0
   65.8530   30.6650   51.1070 C   0  0  0  0  0  0  0  0  0  0  0  0
   65.7006   30.0642   52.0158 H   0  0  0  0  0  0  0  0  0  0  0  0
   66.0432   30.0489   50.2158 H   0  0  0  0  0  0  0  0  0  0  0  0
   67.0620   31.5160   51.3060 N   0  0  0  0  0  0  0  0  0  0  0  0
   67.8280   31.0820   52.4880 C   0  0  0  0  0  0  0  0  0  0  0  0
   67.2949   31.3840   53.4016 H   0  0  0  0  0  0  0  0  0  0  0  0
   67.9377   29.9876   52.4723 H   0  0  0  0  0  0  0  0  0  0  0  0
   68.8231   31.5505   52.4723 H   0  0  0  0  0  0  0  0  0  0  0  0
   66.7740   32.9610   51.3910 C   0  0  0  0  0  0  0  0  0  0  0  0
   66.1624   33.1587   52.2837 H   0  0  0  0  0  0  0  0  0  0  0  0
   67.7220   33.5149   51.4583 H   0  0  0  0  0  0  0  0  0  0  0  0
   66.0130   33.4170   50.1440 C   0  0  0  0  0  0  0  0  0  0  0  0
   65.6892   34.4595   50.2796 H   0  0  0  0  0  0  0  0  0  0  0  0
   66.6797   33.3348   49.2730 H   0  0  0  0  0  0  0  0  0  0  0  0
   61.7990   33.2300   50.0220 C   0  0  0  0  0  0  0  0  0  0  0  0
   62.3511   33.7422   50.8238 H   0  0  0  0  0  0  0  0  0  0  0  0
   60.4120   33.0960   50.1120 C   0  0  0  0  0  0  0  0  0  0  0  0
   59.8816   33.4881   50.9923 H   0  0  0  0  0  0  0  0  0  0  0  0
   59.6900   32.4650   49.0880 C   0  0  0  0  0  0  0  0  0  0  0  0
   58.1980   32.3170   49.2110 C   0  0  0  0  0  0  0  0  0  0  0  0
   57.9187   32.2893   50.2746 H   0  0  0  0  0  0  0  0  0  0  0  0
   57.7035   33.1705   48.7242 H   0  0  0  0  0  0  0  0  0  0  0  0
   57.8808   31.3830   48.7242 H   0  0  0  0  0  0  0  0  0  0  0  0
   59.6860   29.9380   46.6480 C   0  0  0  0  0  0  0  0  0  0  0  0
   60.4550   29.0620   47.3150 C   0  0  0  0  0  0  0  0  0  0  0  0
   61.0615   29.4006   48.1679 H   0  0  0  0  0  0  0  0  0  0  0  0
   60.4784   28.0059   47.0084 H   0  0  0  0  0  0  0  0  0  0  0  0
  1  2  1  0
  2  3  1  0
  3  4  1  0
  4  5  1  0
  5  6  2  0
  5  7  1  0
  7  8  1  0
  8  9  2  0
  8 10  1  0
 10 11  1  0
 11 12  1  0
 11 13  2  0
 13 14  1  0
 14 15  1  0
 14 16  2  0
 16 17  1  0
 17 18  1  0
 17 19  1  0
 17 20  1  0
 16 21  1  0
 21 22  1  0
 22 23  2  0
 23 24  1  0
 23 25  1  0
 25 26  1  0
 26 27  2  0
 26 28  1  0
 28 29  1  0
 29 30  1  0
 29 31  1  0
 29 32  1  0
 32 33  1  0
 32 34  1  0
 32 35  1  0
 35 36  1  0
 36 37  1  0
 36 38  1  0
 36 39  1  0
 35 40  1  0
 40 41  1  0
 40 42  1  0
 40 43  1  0
 43 44  1  0
 43 45  1  0
 25 46  2  0
 46 47  1  0
 46 48  1  0
 48 49  1  0
 48 50  2  0
 50 51  1  0
 51 52  1  0
 51 53  1  0
 51 54  1  0
 21 55  1  0
 55 56  2  0
 56 57  1  0
 56 58  1  0
 10  3  2  0
 55 13  1  0
 50 22  1  0
 43 28  1  0
M  CHG  2   4  -1   7  -1
M  END
>  <UniqueID>  (80) 
75

>  <SMILES>  (80) 
C=c1/c(=C\c2c(O)[n-]c(=O)[n-]c2=O)cc(C)n1-c1cc(C(=O)N2CCN(C)CC2)ccc1C

>  <Energy>  (80) 
120.00835763934113

>  <Genealogy>  (80) 
C=c1c(=Cc2c(O)[n-]c(=O)[n-]c2=O)cc(C)n1-c1cc(C(=O)N2CCN(C)CC2)ccc1C (protonated)
C=c1/c(=C\c2c(O)[n-]c(=O)[n-]c2=O)cc(C)n1-c1cc(C(=O)N2CCN(C)CC2)ccc1C (cis-trans isomerization)
C=c1/c(=C\c2c(O)[n-]c(=O)[n-]c2=O)cc(C)n1-c1cc(C(=O)N2CCN(C)CC2)ccc1C (3D coordinates assigned)
C=c1/c(=C\c2c(O)[n-]c(=O)[n-]c2=O)cc(C)n1-c1cc(C(=O)N2CCN(C)CC2)ccc1C (nonaromatic ring conformer: 120.00835763934113 kcal/mol)

>  <smiles>  (80) 
C=c1c(=Cc2c(O)[nH]c(=O)[nH]c2=O)cc(C)n1-c1cc(C(=O)N2CCN(C)CC2)ccc1C

>  <score_type>  (80) 
oracle

>  <origin>  (80) 
adg

>  <m_score__min__energy>  (80) 
-14.970000000000001

>  <m_primary>  (80) 
energy

$$$$
80:0
     RDKit          3D

 60 62  0  0  0  0  0  0  0  0999 V2000
   55.4380   26.7090   45.9700 O   0  0  0  0  0  0  0  0  0  0  0  0
   56.6970   26.6620   45.9570 C   0  0  0  0  0  0  0  0  0  0  0  0
   57.3990   26.0820   44.7650 C   0  0  0  0  0  0  0  0  0  0  0  0
   57.8610   27.1050   43.8810 O   0  0  0  0  0  0  0  0  0  0  0  0
   57.7480   28.4870   44.1070 C   0  0  0  0  0  0  0  0  0  0  0  0
   58.8750   29.1750   44.5720 C   0  0  0  0  0  0  0  0  0  0  0  0
   58.8150   30.5480   44.8240 C   0  0  0  0  0  0  0  0  0  0  0  0
   57.6220   31.2550   44.6140 C   0  0  0  0  0  0  0  0  0  0  0  0
   57.5630   32.7420   44.8530 C   0  0  0  0  0  0  0  0  0  0  0  0
   57.4380   33.0750   46.3440 C   0  0  0  0  0  0  0  0  0  0  0  0
   58.7210   32.8820   47.0270 N   0  0  0  0  0  0  0  0  0  0  0  0
   59.7970   34.1890   46.6380 S   0  0  0  0  0  0  0  0  0  0  0  0
   59.9640   34.2660   45.1470 O   0  0  0  0  0  0  0  0  0  0  0  0
   59.2190   35.4900   47.1220 O   0  0  0  0  0  0  0  0  0  0  0  0
   61.3730   33.9110   47.3750 C   0  0  0  0  0  0  0  0  0  0  0  0
   61.5590   34.0890   48.7530 C   0  0  0  0  0  0  0  0  0  0  0  0
   62.8130   33.8540   49.3290 C   0  0  0  0  0  0  0  0  0  0  0  0
   63.8820   33.4370   48.5320 C   0  0  0  0  0  0  0  0  0  0  0  0
   63.6990   33.2530   47.1590 C   0  0  0  0  0  0  0  0  0  0  0  0
   62.4470   33.4860   46.5810 C   0  0  0  0  0  0  0  0  0  0  0  0
   56.4940   30.5710   44.1380 C   0  0  0  0  0  0  0  0  0  0  0  0
   56.5520   29.1970   43.8870 C   0  0  0  0  0  0  0  0  0  0  0  0
   57.4500   27.1260   47.0830 N   0  0  0  0  0  0  0  0  0  0  0  0
   58.6960   26.5130   47.5320 C   0  0  0  0  0  0  0  0  0  0  0  0
   59.9080   27.3300   47.0670 C   0  0  0  0  0  0  0  0  0  0  0  0
   60.0840   28.5930   47.8820 C   0  0  0  0  0  0  0  0  0  0  0  0
   59.5200   28.6810   49.1080 C   0  0  0  0  0  0  0  0  0  0  0  0
   59.6730   29.8890   49.9970 C   0  0  0  0  0  0  0  0  0  0  0  0
   60.0450   31.1490   49.2110 C   0  0  0  0  0  0  0  0  0  0  0  0
   61.2010   30.8490   48.2600 C   0  0  0  0  0  0  0  0  0  0  0  0
   60.7930   29.7750   47.2450 C   0  0  0  0  0  0  0  0  0  0  0  0
   58.2606   25.4915   45.1098 H   0  0  0  0  0  0  0  0  0  0  0  0
   56.6848   25.4492   44.2177 H   0  0  0  0  0  0  0  0  0  0  0  0
   59.8156   28.6302   44.7404 H   0  0  0  0  0  0  0  0  0  0  0  0
   59.7077   31.0770   45.1889 H   0  0  0  0  0  0  0  0  0  0  0  0
   58.4821   33.2022   44.4613 H   0  0  0  0  0  0  0  0  0  0  0  0
   56.6735   33.1356   44.3393 H   0  0  0  0  0  0  0  0  0  0  0  0
   57.1239   34.1234   46.4548 H   0  0  0  0  0  0  0  0  0  0  0  0
   56.6924   32.4038   46.7952 H   0  0  0  0  0  0  0  0  0  0  0  0
   59.1660   32.0140   46.6470 H   0  0  0  0  0  0  0  0  0  0  0  0
   60.7178   34.4140   49.3829 H   0  0  0  0  0  0  0  0  0  0  0  0
   62.9568   33.9978   50.4100 H   0  0  0  0  0  0  0  0  0  0  0  0
   64.8674   33.2536   48.9852 H   0  0  0  0  0  0  0  0  0  0  0  0
   64.5409   32.9244   46.5319 H   0  0  0  0  0  0  0  0  0  0  0  0
   62.3048   33.3354   45.5007 H   0  0  0  0  0  0  0  0  0  0  0  0
   55.5571   31.1195   43.9609 H   0  0  0  0  0  0  0  0  0  0  0  0
   55.6609   28.6690   43.5166 H   0  0  0  0  0  0  0  0  0  0  0  0
   58.6965   26.4619   48.6308 H   0  0  0  0  0  0  0  0  0  0  0  0
   58.7663   25.5039   47.0999 H   0  0  0  0  0  0  0  0  0  0  0  0
   60.8128   26.7127   47.1680 H   0  0  0  0  0  0  0  0  0  0  0  0
   59.7411   27.6210   46.0194 H   0  0  0  0  0  0  0  0  0  0  0  0
   58.9225   27.8327   49.4732 H   0  0  0  0  0  0  0  0  0  0  0  0
   58.7210   30.0664   50.5188 H   0  0  0  0  0  0  0  0  0  0  0  0
   60.4888   29.6827   50.7055 H   0  0  0  0  0  0  0  0  0  0  0  0
   59.1739   31.4866   48.6303 H   0  0  0  0  0  0  0  0  0  0  0  0
   60.3518   31.9364   49.9152 H   0  0  0  0  0  0  0  0  0  0  0  0
   61.4769   31.7687   47.7233 H   0  0  0  0  0  0  0  0  0  0  0  0
   62.0573   30.4810   48.8442 H   0  0  0  0  0  0  0  0  0  0  0  0
   60.1186   30.2306   46.5050 H   0  0  0  0  0  0  0  0  0  0  0  0
   61.7151   29.3940   46.7817 H   0  0  0  0  0  0  0  0  0  0  0  0
  1  2  2  0
  2  3  1  0
  3  4  1  0
  4  5  1  0
  5  6  2  0
  6  7  1  0
  7  8  2  0
  8  9  1  0
  9 10  1  0
 10 11  1  0
 11 12  1  0
 12 13  2  0
 12 14  2  0
 12 15  1  0
 15 16  2  0
 16 17  1  0
 17 18  2  0
 18 19  1  0
 19 20  2  0
  8 21  1  0
 21 22  2  0
  2 23  1  0
 23 24  1  0
 24 25  1  0
 25 26  1  0
 26 27  2  0
 27 28  1  0
 28 29  1  0
 29 30  1  0
 30 31  1  0
 22  5  1  0
 31 26  1  0
 20 15  1  0
  3 32  1  0
  3 33  1  0
  6 34  1  0
  7 35  1  0
  9 36  1  0
  9 37  1  0
 10 38  1  0
 10 39  1  0
 11 40  1  0
 16 41  1  0
 17 42  1  0
 18 43  1  0
 19 44  1  0
 20 45  1  0
 21 46  1  0
 22 47  1  0
 24 48  1  0
 24 49  1  0
 25 50  1  0
 25 51  1  0
 27 52  1  0
 28 53  1  0
 28 54  1  0
 29 55  1  0
 29 56  1  0
 30 57  1  0
 30 58  1  0
 31 59  1  0
 31 60  1  0
M  CHG  1  23  -1
M  END
>  <UniqueID>  (81) 
76

>  <SMILES>  (81) 
O=C(COc1ccc(CCNS(=O)(=O)c2ccccc2)cc1)[N-]CCC1=CCCCC1

>  <Energy>  (81) 
47.73218102463288

>  <Genealogy>  (81) 
O=C(COc1ccc(CCNS(=O)(=O)c2ccccc2)cc1)[N-]CCC1=CCCCC1 (protonated)
O=C(COc1ccc(CCNS(=O)(=O)c2ccccc2)cc1)[N-]CCC1=CCCCC1 (3D coordinates assigned)
O=C(COc1ccc(CCNS(=O)(=O)c2ccccc2)cc1)[N-]CCC1=CCCCC1 (nonaromatic ring conformer: 47.73218102463288 kcal/mol)

>  <smiles>  (81) 
O=C(COc1ccc(CCNS(=O)(=O)c2ccccc2)cc1)NCCC1=CCCCC1

>  <score_type>  (81) 
oracle

>  <origin>  (81) 
adg

>  <m_score__min__energy>  (81) 
-11.390000000000001

>  <m_primary>  (81) 
energy

$$$$
81:0
     RDKit          3D

 66 69  0  0  0  0  0  0  0  0999 V2000
   63.6020   32.5440   47.6380 C   0  0  0  0  0  0  0  0  0  0  0  0
   62.8340   33.5580   46.8410 C   0  0  0  0  0  0  0  0  0  0  0  0
   63.4490   34.2180   45.9590 O   0  0  0  0  0  0  0  0  0  0  0  0
   61.3800   33.7940   47.0570 C   0  0  0  0  0  0  0  0  0  0  0  0
   60.8990   34.0910   48.3480 C   0  0  0  0  0  0  0  0  0  0  0  0
   59.5340   34.2940   48.5670 C   0  0  0  0  0  0  0  0  0  0  0  0
   58.6320   34.2110   47.5070 C   0  0  0  0  0  0  0  0  0  0  0  0
   59.0880   33.9450   46.2120 C   0  0  0  0  0  0  0  0  0  0  0  0
   58.1310   33.8500   45.1470 N   0  0  0  0  0  0  0  0  0  0  0  0
   57.9960   32.7470   44.2440 C   0  0  0  0  0  0  0  0  0  0  0  0
   58.5120   32.7960   43.0940 O   0  0  0  0  0  0  0  0  0  0  0  0
   57.2330   31.6050   44.6410 N   0  0  0  0  0  0  0  0  0  0  0  0
   57.0670   30.4510   43.7570 C   0  0  0  0  0  0  0  0  0  0  0  0
   55.9510   29.5630   44.2370 C   0  0  0  0  0  0  0  0  0  0  0  0
   54.7930   29.7270   43.7720 O   0  0  0  0  0  0  0  0  0  0  0  0
   56.1570   28.5760   45.2560 N   0  0  0  0  0  0  0  0  0  0  0  0
   57.4090   28.2470   45.8730 C   0  0  0  0  0  0  0  0  0  0  0  0
   58.2330   29.2490   46.4100 C   0  0  0  0  0  0  0  0  0  0  0  0
   59.4460   28.9210   47.0290 C   0  0  0  0  0  0  0  0  0  0  0  0
   60.4310   30.1820   47.7750 S   0  0  0  0  0  0  0  0  0  0  0  0
   61.5280   30.5800   46.8270 O   0  0  0  0  0  0  0  0  0  0  0  0
   59.5760   31.3930   48.0320 O   0  0  0  0  0  0  0  0  0  0  0  0
   61.1260   29.6420   49.2880 N   0  0  0  0  0  0  0  0  0  0  0  0
   61.8830   30.7210   49.9610 C   0  0  0  0  0  0  0  0  0  0  0  0
   61.1170   31.3030   51.1630 C   0  0  0  0  0  0  0  0  0  0  0  0
   60.7880   30.3330   52.1460 O   0  0  0  0  0  0  0  0  0  0  0  0
   60.5410   29.0350   51.6160 C   0  0  0  0  0  0  0  0  0  0  0  0
   60.0900   29.0400   50.1470 C   0  0  0  0  0  0  0  0  0  0  0  0
   59.8600   27.5830   47.0690 C   0  0  0  0  0  0  0  0  0  0  0  0
   59.0580   26.5830   46.5180 C   0  0  0  0  0  0  0  0  0  0  0  0
   57.8340   26.9060   45.9140 C   0  0  0  0  0  0  0  0  0  0  0  0
   57.0040   25.8600   45.3910 N   0  0  0  0  0  0  0  0  0  0  0  0
   57.4110   24.9810   44.3100 C   0  0  0  0  0  0  0  0  0  0  0  0
   56.2020   24.0960   44.0390 C   0  0  0  0  0  0  0  0  0  0  0  0
   55.3140   24.2080   45.2800 C   0  0  0  0  0  0  0  0  0  0  0  0
   55.7270   25.4980   45.9760 C   0  0  0  0  0  0  0  0  0  0  0  0
   60.4600   33.7190   45.9930 C   0  0  0  0  0  0  0  0  0  0  0  0
   63.4571   32.7353   48.7115 H   0  0  0  0  0  0  0  0  0  0  0  0
   63.2399   31.5346   47.3933 H   0  0  0  0  0  0  0  0  0  0  0  0
   64.6718   32.6191   47.3933 H   0  0  0  0  0  0  0  0  0  0  0  0
   61.6035   34.1636   49.1896 H   0  0  0  0  0  0  0  0  0  0  0  0
   59.1695   34.5202   49.5799 H   0  0  0  0  0  0  0  0  0  0  0  0
   57.5570   34.3554   47.6902 H   0  0  0  0  0  0  0  0  0  0  0  0
   56.8250   31.5940   45.6040 H   0  0  0  0  0  0  0  0  0  0  0  0
   56.8341   30.8054   42.7420 H   0  0  0  0  0  0  0  0  0  0  0  0
   58.0019   29.8713   43.7565 H   0  0  0  0  0  0  0  0  0  0  0  0
   57.9229   30.3023   46.3439 H   0  0  0  0  0  0  0  0  0  0  0  0
   62.8418   30.3142   50.3147 H   0  0  0  0  0  0  0  0  0  0  0  0
   62.0374   31.5312   49.2332 H   0  0  0  0  0  0  0  0  0  0  0  0
   61.7416   32.0772   51.6326 H   0  0  0  0  0  0  0  0  0  0  0  0
   60.1699   31.7092   50.7783 H   0  0  0  0  0  0  0  0  0  0  0  0
   61.4677   28.4472   51.6922 H   0  0  0  0  0  0  0  0  0  0  0  0
   59.7176   28.6011   52.2023 H   0  0  0  0  0  0  0  0  0  0  0  0
   59.9070   28.0053   49.8215 H   0  0  0  0  0  0  0  0  0  0  0  0
   59.1686   29.6347   50.0610 H   0  0  0  0  0  0  0  0  0  0  0  0
   60.8205   27.3201   47.5363 H   0  0  0  0  0  0  0  0  0  0  0  0
   59.3878   25.5344   46.5576 H   0  0  0  0  0  0  0  0  0  0  0  0
   57.6701   25.5650   43.4146 H   0  0  0  0  0  0  0  0  0  0  0  0
   58.3017   24.3914   44.5725 H   0  0  0  0  0  0  0  0  0  0  0  0
   55.6613   24.4490   43.1485 H   0  0  0  0  0  0  0  0  0  0  0  0
   56.4988   23.0543   43.8473 H   0  0  0  0  0  0  0  0  0  0  0  0
   54.2542   24.2531   44.9889 H   0  0  0  0  0  0  0  0  0  0  0  0
   55.4336   23.3371   45.9412 H   0  0  0  0  0  0  0  0  0  0  0  0
   54.9832   26.2879   45.7952 H   0  0  0  0  0  0  0  0  0  0  0  0
   55.7983   25.3697   47.0662 H   0  0  0  0  0  0  0  0  0  0  0  0
   60.8175   33.4813   44.9802 H   0  0  0  0  0  0  0  0  0  0  0  0
  1  2  1  0
  2  3  2  0
  2  4  1  0
  4  5  2  0
  5  6  1  0
  6  7  2  0
  7  8  1  0
  8  9  1  0
  9 10  1  0
 10 11  2  0
 10 12  1  0
 12 13  1  0
 13 14  1  0
 14 15  2  0
 14 16  1  0
 16 17  1  0
 17 18  2  0
 18 19  1  0
 19 20  1  0
 20 21  2  0
 20 22  2  0
 20 23  1  0
 23 24  1  0
 24 25  1  0
 25 26  1  0
 26 27  1  0
 27 28  1  0
 19 29  2  0
 29 30  1  0
 30 31  2  0
 31 32  1  0
 32 33  1  0
 33 34  1  0
 34 35  1  0
 35 36  1  0
  8 37  2  0
 37  4  1  0
 31 17  1  0
 36 32  1  0
 28 23  1  0
  1 38  1  0
  1 39  1  0
  1 40  1  0
  5 41  1  0
  6 42  1  0
  7 43  1  0
 12 44  1  0
 13 45  1  0
 13 46  1  0
 18 47  1  0
 24 48  1  0
 24 49  1  0
 25 50  1  0
 25 51  1  0
 27 52  1  0
 27 53  1  0
 28 54  1  0
 28 55  1  0
 29 56  1  0
 30 57  1  0
 33 58  1  0
 33 59  1  0
 34 60  1  0
 34 61  1  0
 35 62  1  0
 35 63  1  0
 36 64  1  0
 36 65  1  0
 37 66  1  0
M  CHG  2   9  -1  16  -1
M  END
>  <UniqueID>  (82) 
77

>  <SMILES>  (82) 
CC(=O)c1cccc([N-]C(=O)NCC(=O)[N-]c2cc(S(=O)(=O)N3CCOCC3)ccc2N2CCCC2)c1

>  <Energy>  (82) 
88.99393852098848

>  <Genealogy>  (82) 
CC(=O)c1cccc([N-]C(=O)NCC(=O)[N-]c2cc(S(=O)(=O)N3CCOCC3)ccc2N2CCCC2)c1 (protonated)
CC(=O)c1cccc([N-]C(=O)NCC(=O)[N-]c2cc(S(=O)(=O)N3CCOCC3)ccc2N2CCCC2)c1 (3D coordinates assigned)
CC(=O)c1cccc([N-]C(=O)NCC(=O)[N-]c2cc(S(=O)(=O)N3CCOCC3)ccc2N2CCCC2)c1 (nonaromatic ring conformer: 88.99393852098848 kcal/mol)

>  <smiles>  (82) 
CC(=O)c1cccc(NC(=O)NCC(=O)Nc2cc(S(=O)(=O)N3CCOCC3)ccc2N2CCCC2)c1

>  <score_type>  (82) 
oracle

>  <origin>  (82) 
adg

>  <m_score__min__energy>  (82) 
-14.33

>  <m_primary>  (82) 
energy

$$$$
82:0
     RDKit          3D

 43 45  0  0  0  0  0  0  0  0999 V2000
   59.1220   28.5990   44.6520 O   0  0  0  0  0  0  0  0  0  0  0  0
   58.3650   28.6060   45.6590 C   0  0  0  0  0  0  0  0  0  0  0  0
   58.3220   29.7860   46.4750 N   0  0  0  0  0  0  0  0  0  0  0  0
   58.4420   31.1380   46.0110 C   0  0  0  0  0  0  0  0  0  0  0  0
   59.0120   32.0900   46.8670 C   0  0  0  0  0  0  0  0  0  0  0  0
   59.1600   33.4200   46.4570 C   0  0  0  0  0  0  0  0  0  0  0  0
   59.8750   34.5990   47.5540 S   0  0  0  0  0  0  0  0  0  0  0  0
   59.6300   35.9780   47.0050 O   0  0  0  0  0  0  0  0  0  0  0  0
   59.2290   34.4990   48.9080 O   0  0  0  0  0  0  0  0  0  0  0  0
   61.5940   34.3180   47.6910 N   0  0  0  0  0  0  0  0  0  0  0  0
   62.0790   33.5740   46.5060 C   0  0  0  0  0  0  0  0  0  0  0  0
   63.4350   32.9140   46.7720 C   0  0  0  0  0  0  0  0  0  0  0  0
   63.3320   31.8780   47.9050 C   0  0  0  0  0  0  0  0  0  0  0  0
   62.1820   32.1780   48.8820 C   0  0  0  0  0  0  0  0  0  0  0  0
   61.9290   33.6880   48.9930 C   0  0  0  0  0  0  0  0  0  0  0  0
   58.7080   33.8090   45.1900 C   0  0  0  0  0  0  0  0  0  0  0  0
   58.1100   32.8740   44.3420 C   0  0  0  0  0  0  0  0  0  0  0  0
   57.9590   31.5420   44.7490 C   0  0  0  0  0  0  0  0  0  0  0  0
   57.3090   30.6330   43.9160 O   0  0  0  0  0  0  0  0  0  0  0  0
   57.4990   27.4320   45.9300 C   0  0  0  0  0  0  0  0  0  0  0  0
   58.0460   26.2540   46.4660 C   0  0  0  0  0  0  0  0  0  0  0  0
   57.2290   25.1530   46.7240 C   0  0  0  0  0  0  0  0  0  0  0  0
   55.8620   25.2380   46.4540 C   0  0  0  0  0  0  0  0  0  0  0  0
   55.1100   24.2540   46.6820 O   0  0  0  0  0  0  0  0  0  0  0  0
   55.3400   26.3840   45.9430 N   0  0  0  0  0  0  0  0  0  0  0  0
   56.1130   27.4720   45.6790 C   0  0  0  0  0  0  0  0  0  0  0  0
   55.5170   28.6080   45.1450 O   0  0  0  0  0  0  0  0  0  0  0  0
   59.3463   31.7891   47.8708 H   0  0  0  0  0  0  0  0  0  0  0  0
   61.3466   32.7944   46.2494 H   0  0  0  0  0  0  0  0  0  0  0  0
   62.1997   34.2871   45.6772 H   0  0  0  0  0  0  0  0  0  0  0  0
   63.7763   32.4113   45.8550 H   0  0  0  0  0  0  0  0  0  0  0  0
   64.1504   33.6931   47.0739 H   0  0  0  0  0  0  0  0  0  0  0  0
   63.1660   30.8857   47.4603 H   0  0  0  0  0  0  0  0  0  0  0  0
   64.2713   31.9162   48.4762 H   0  0  0  0  0  0  0  0  0  0  0  0
   61.2667   31.6862   48.5209 H   0  0  0  0  0  0  0  0  0  0  0  0
   62.4602   31.7970   49.8757 H   0  0  0  0  0  0  0  0  0  0  0  0
   61.0922   33.8529   49.6877 H   0  0  0  0  0  0  0  0  0  0  0  0
   62.8594   34.1516   49.3528 H   0  0  0  0  0  0  0  0  0  0  0  0
   58.8241   34.8525   44.8621 H   0  0  0  0  0  0  0  0  0  0  0  0
   57.7554   33.1855   43.3484 H   0  0  0  0  0  0  0  0  0  0  0  0
   57.1870   29.6620   44.1800 H   0  0  0  0  0  0  0  0  0  0  0  0
   59.1230   26.1997   46.6831 H   0  0  0  0  0  0  0  0  0  0  0  0
   57.6575   24.2274   47.1359 H   0  0  0  0  0  0  0  0  0  0  0  0
  1  2  2  0
  2  3  1  0
  3  4  1  0
  4  5  2  0
  5  6  1  0
  6  7  1  0
  7  8  2  0
  7  9  2  0
  7 10  1  0
 10 11  1  0
 11 12  1  0
 12 13  1  0
 13 14  1  0
 14 15  1  0
  6 16  2  0
 16 17  1  0
 17 18  2  0
 18 19  1  0
  2 20  1  0
 20 21  1  0
 21 22  2  0
 22 23  1  0
 23 24  2  0
 23 25  1  0
 25 26  1  0
 26 27  1  0
 18  4  1  0
 26 20  2  0
 15 10  1  0
  5 28  1  0
 11 29  1  0
 11 30  1  0
 12 31  1  0
 12 32  1  0
 13 33  1  0
 13 34  1  0
 14 35  1  0
 14 36  1  0
 15 37  1  0
 15 38  1  0
 16 39  1  0
 17 40  1  0
 19 41  1  0
 21 42  1  0
 22 43  1  0
M  CHG  3   3  -1  25  -1  27  -1
M  END
>  <UniqueID>  (83) 
78

>  <SMILES>  (83) 
O=C([N-]c1cc(S(=O)(=O)N2CCCCC2)ccc1O)c1ccc(=O)[n-]c1[O-]

>  <Energy>  (83) 
59.628404291687765

>  <Genealogy>  (83) 
O=C([N-]c1cc(S(=O)(=O)N2CCCCC2)ccc1O)c1ccc(=O)[n-]c1[O-] (protonated)
O=C([N-]c1cc(S(=O)(=O)N2CCCCC2)ccc1O)c1ccc(=O)[n-]c1[O-] (3D coordinates assigned)
O=C([N-]c1cc(S(=O)(=O)N2CCCCC2)ccc1O)c1ccc(=O)[n-]c1[O-] (nonaromatic ring conformer: 59.628404291687765 kcal/mol)

>  <smiles>  (83) 
O=C(Nc1cc(S(=O)(=O)N2CCCCC2)ccc1O)c1ccc(=O)[nH]c1O

>  <score_type>  (83) 
oracle

>  <origin>  (83) 
adg

>  <m_score__min__energy>  (83) 
-16.170000000000002

>  <m_primary>  (83) 
energy

$$$$
83:0
     RDKit          3D

 44 47  0  0  0  0  0  0  0  0999 V2000
   55.1510   27.4750   45.3660 H   0  0  0  0  0  0  0  0  0  0  0  0
   55.0000   26.7070   46.0080 O   0  0  0  0  0  0  0  0  0  0  0  0
   56.0090   25.7830   46.2580 C   0  0  0  0  0  0  0  0  0  0  0  0
   55.8290   24.6670   46.9850 N   0  0  0  0  0  0  0  0  0  0  0  0
   57.0310   24.0580   46.9000 C   0  0  0  0  0  0  0  0  0  0  0  0
   57.2740   22.9570   47.4570 O   0  0  0  0  0  0  0  0  0  0  0  0
   57.9500   24.7210   46.1660 N   0  0  0  0  0  0  0  0  0  0  0  0
   57.3010   25.8320   45.7730 C   0  0  0  0  0  0  0  0  0  0  0  0
   57.9110   26.8440   44.8880 C   0  0  0  0  0  0  0  0  0  0  0  0
   58.6900   26.5140   44.1849 H   0  0  0  0  0  0  0  0  0  0  0  0
   57.5710   28.1460   44.8900 C   0  0  0  0  0  0  0  0  0  0  0  0
   56.3020   28.5880   44.7490 N   0  0  0  0  0  0  0  0  0  0  0  0
   56.4060   29.9270   44.8510 C   0  0  0  0  0  0  0  0  0  0  0  0
   55.4120   30.6960   44.7500 O   0  0  0  0  0  0  0  0  0  0  0  0
   57.6670   30.3620   45.0510 N   0  0  0  0  0  0  0  0  0  0  0  0
   58.0880   31.7330   45.1720 C   0  0  0  0  0  0  0  0  0  0  0  0
   58.4380   32.4710   44.0320 C   0  0  0  0  0  0  0  0  0  0  0  0
   58.4036   31.9968   43.0401 H   0  0  0  0  0  0  0  0  0  0  0  0
   58.8300   33.8060   44.1520 C   0  0  0  0  0  0  0  0  0  0  0  0
   59.1112   34.3778   43.2553 H   0  0  0  0  0  0  0  0  0  0  0  0
   58.8660   34.4180   45.4090 C   0  0  0  0  0  0  0  0  0  0  0  0
   59.1765   35.4695   45.4985 H   0  0  0  0  0  0  0  0  0  0  0  0
   58.5060   33.6920   46.5600 C   0  0  0  0  0  0  0  0  0  0  0  0
   58.5210   34.2590   47.8420 O   0  0  0  0  0  0  0  0  0  0  0  0
   59.6430   34.2350   48.7210 C   0  0  0  0  0  0  0  0  0  0  0  0
   60.0476   35.2522   48.8292 H   0  0  0  0  0  0  0  0  0  0  0  0
   59.3318   33.8611   49.7076 H   0  0  0  0  0  0  0  0  0  0  0  0
   60.6970   33.3340   48.1500 C   0  0  0  0  0  0  0  0  0  0  0  0
   60.6490   31.9500   48.3830 C   0  0  0  0  0  0  0  0  0  0  0  0
   59.8187   31.5209   48.9630 H   0  0  0  0  0  0  0  0  0  0  0  0
   61.6520   31.1150   47.8810 C   0  0  0  0  0  0  0  0  0  0  0  0
   61.6040   30.0304   48.0581 H   0  0  0  0  0  0  0  0  0  0  0  0
   62.7160   31.6580   47.1540 C   0  0  0  0  0  0  0  0  0  0  0  0
   63.5027   31.0001   46.7561 H   0  0  0  0  0  0  0  0  0  0  0  0
   62.7800   33.0360   46.9330 C   0  0  0  0  0  0  0  0  0  0  0  0
   63.6194   33.4627   46.3643 H   0  0  0  0  0  0  0  0  0  0  0  0
   61.7780   33.8740   47.4340 C   0  0  0  0  0  0  0  0  0  0  0  0
   61.8370   34.9596   47.2666 H   0  0  0  0  0  0  0  0  0  0  0  0
   58.1150   32.3540   46.4300 C   0  0  0  0  0  0  0  0  0  0  0  0
   57.8256   31.7829   47.3245 H   0  0  0  0  0  0  0  0  0  0  0  0
   58.4190   29.2370   45.0870 C   0  0  0  0  0  0  0  0  0  0  0  0
   59.7400   29.2070   45.3180 C   0  0  0  0  0  0  0  0  0  0  0  0
   60.2955   30.1462   45.4569 H   0  0  0  0  0  0  0  0  0  0  0  0
   60.2678   28.2432   45.3685 H   0  0  0  0  0  0  0  0  0  0  0  0
  1  2  1  0
  2  3  1  0
  3  4  1  0
  4  5  1  0
  5  6  2  0
  5  7  1  0
  7  8  1  0
  8  9  1  0
  9 10  1  0
  9 11  2  0
 11 12  1  0
 12 13  1  0
 13 14  2  0
 13 15  1  0
 15 16  1  0
 16 17  2  0
 17 18  1  0
 17 19  1  0
 19 20  1  0
 19 21  2  0
 21 22  1  0
 21 23  1  0
 23 24  1  0
 24 25  1  0
 25 26  1  0
 25 27  1  0
 25 28  1  0
 28 29  2  0
 29 30  1  0
 29 31  1  0
 31 32  1  0
 31 33  2  0
 33 34  1  0
 33 35  1  0
 35 36  1  0
 35 37  2  0
 37 38  1  0
 23 39  2  0
 39 40  1  0
 15 41  1  0
 41 42  2  0
 42 43  1  0
 42 44  1  0
  8  3  2  0
 41 11  1  0
 39 16  1  0
 37 28  1  0
M  CHG  3   4  -1   7  -1  12  -1
M  END
>  <UniqueID>  (84) 
79

>  <SMILES>  (84) 
C=c1/c(=C/c2[n-]c(=O)[n-]c2O)[n-]c(=O)n1-c1cccc(OCc2ccccc2)c1

>  <Energy>  (84) 
121.36533270427789

>  <Genealogy>  (84) 
C=c1c(=Cc2[n-]c(=O)[n-]c2O)[n-]c(=O)n1-c1cccc(OCc2ccccc2)c1 (protonated)
C=c1/c(=C/c2[n-]c(=O)[n-]c2O)[n-]c(=O)n1-c1cccc(OCc2ccccc2)c1 (cis-trans isomerization)
C=c1/c(=C/c2[n-]c(=O)[n-]c2O)[n-]c(=O)n1-c1cccc(OCc2ccccc2)c1 (3D coordinates assigned)
C=c1/c(=C/c2[n-]c(=O)[n-]c2O)[n-]c(=O)n1-c1cccc(OCc2ccccc2)c1 (optimized conformer: 121.36533270427789 kcal/mol)

>  <smiles>  (84) 
C=c1c(=Cc2[nH]c(=O)[nH]c2O)[nH]c(=O)n1-c1cccc(OCc2ccccc2)c1

>  <score_type>  (84) 
oracle

>  <origin>  (84) 
adg

>  <m_score__min__energy>  (84) 
-15.84

>  <m_primary>  (84) 
energy

$$$$
84:0
     RDKit          3D

 50 53  0  0  0  0  0  0  0  0999 V2000
   60.2884   30.5787   44.5813 H   0  0  0  0  0  0  0  0  0  0  0  0
   59.6460   29.7250   44.8430 C   0  0  0  0  0  0  0  0  0  0  0  0
   59.1321   29.1602   44.0512 H   0  0  0  0  0  0  0  0  0  0  0  0
   59.4890   29.3720   46.1300 C   0  0  0  0  0  0  0  0  0  0  0  0
   58.7080   28.3140   46.6180 C   0  0  0  0  0  0  0  0  0  0  0  0
   57.7830   27.5440   46.0140 C   0  0  0  0  0  0  0  0  0  0  0  0
   57.4209   27.8733   45.0289 H   0  0  0  0  0  0  0  0  0  0  0  0
   57.2140   26.2990   46.5580 C   0  0  0  0  0  0  0  0  0  0  0  0
   57.9390   25.2720   47.0400 N   0  0  0  0  0  0  0  0  0  0  0  0
   57.0090   24.3230   47.2830 C   0  0  0  0  0  0  0  0  0  0  0  0
   57.2990   23.1970   47.7640 O   0  0  0  0  0  0  0  0  0  0  0  0
   55.7450   24.6710   46.9600 N   0  0  0  0  0  0  0  0  0  0  0  0
   55.8970   25.9200   46.4880 C   0  0  0  0  0  0  0  0  0  0  0  0
   54.8510   26.6940   46.0000 O   0  0  0  0  0  0  0  0  0  0  0  0
   59.0320   28.1810   47.9550 C   0  0  0  0  0  0  0  0  0  0  0  0
   58.6511   27.4143   48.6457 H   0  0  0  0  0  0  0  0  0  0  0  0
   59.9230   29.1900   48.2620 C   0  0  0  0  0  0  0  0  0  0  0  0
   60.4490   29.4420   49.6280 C   0  0  0  0  0  0  0  0  0  0  0  0
   61.6970   29.4700   49.8080 O   0  0  0  0  0  0  0  0  0  0  0  0
   59.5460   29.7320   50.7270 N   0  0  0  0  0  0  0  0  0  0  0  0
   59.2360   28.8150   51.1260 H   0  0  0  0  0  0  0  0  0  0  0  0
   60.2130   30.4340   51.8520 C   0  0  0  0  0  0  0  0  0  0  0  0
   59.5645   30.3617   52.7376 H   0  0  0  0  0  0  0  0  0  0  0  0
   61.1874   29.9450   51.9984 H   0  0  0  0  0  0  0  0  0  0  0  0
   60.4990   31.9230   51.5820 C   0  0  0  0  0  0  0  0  0  0  0  0
   60.7345   32.4224   52.5334 H   0  0  0  0  0  0  0  0  0  0  0  0
   61.3490   31.9965   50.8877 H   0  0  0  0  0  0  0  0  0  0  0  0
   59.3140   32.5920   50.9580 C   0  0  0  0  0  0  0  0  0  0  0  0
   59.0250   33.7400   51.2620 O   0  0  0  0  0  0  0  0  0  0  0  0
   58.5560   31.8860   49.8780 C   0  0  0  0  0  0  0  0  0  0  0  0
   57.5872   32.3850   49.7280 H   0  0  0  0  0  0  0  0  0  0  0  0
   59.1423   31.9178   48.9478 H   0  0  0  0  0  0  0  0  0  0  0  0
   58.3170   30.4220   50.2700 C   0  0  0  0  0  0  0  0  0  0  0  0
   57.5774   30.3942   51.0837 H   0  0  0  0  0  0  0  0  0  0  0  0
   57.9622   29.8966   49.3710 H   0  0  0  0  0  0  0  0  0  0  0  0
   60.2050   29.9200   47.1510 N   0  0  0  0  0  0  0  0  0  0  0  0
   61.1810   31.0170   47.0410 C   0  0  0  0  0  0  0  0  0  0  0  0
   61.9377   30.9060   47.8316 H   0  0  0  0  0  0  0  0  0  0  0  0
   61.6517   30.9693   46.0480 H   0  0  0  0  0  0  0  0  0  0  0  0
   60.5060   32.3570   47.1890 C   0  0  0  0  0  0  0  0  0  0  0  0
   59.3570   32.6580   46.4360 C   0  0  0  0  0  0  0  0  0  0  0  0
   58.9420   31.9077   45.7470 H   0  0  0  0  0  0  0  0  0  0  0  0
   58.7400   33.9060   46.5590 C   0  0  0  0  0  0  0  0  0  0  0  0
   57.8375   34.1319   45.9720 H   0  0  0  0  0  0  0  0  0  0  0  0
   59.2660   34.8670   47.4250 C   0  0  0  0  0  0  0  0  0  0  0  0
   58.7765   35.8473   47.5223 H   0  0  0  0  0  0  0  0  0  0  0  0
   60.4150   34.5820   48.1680 C   0  0  0  0  0  0  0  0  0  0  0  0
   60.8312   35.3401   48.8478 H   0  0  0  0  0  0  0  0  0  0  0  0
   61.0360   33.3360   48.0490 C   0  0  0  0  0  0  0  0  0  0  0  0
   61.9441   33.1195   48.6308 H   0  0  0  0  0  0  0  0  0  0  0  0
  1  2  1  0
  2  3  1  0
  2  4  2  0
  4  5  1  0
  5  6  2  0
  6  7  1  0
  6  8  1  0
  8  9  1  0
  9 10  1  0
 10 11  2  0
 10 12  1  0
 12 13  1  0
 13 14  1  0
  5 15  1  0
 15 16  1  0
 15 17  2  0
 17 18  1  0
 18 19  2  0
 18 20  1  0
 20 21  1  0
 20 22  1  0
 22 23  1  0
 22 24  1  0
 22 25  1  0
 25 26  1  0
 25 27  1  0
 25 28  1  0
 28 29  2  0
 28 30  1  0
 30 31  1  0
 30 32  1  0
 30 33  1  0
 33 34  1  0
 33 35  1  0
 17 36  1  0
 36 37  1  0
 37 38  1  0
 37 39  1  0
 37 40  1  0
 40 41  2  0
 41 42  1  0
 41 43  1  0
 43 44  1  0
 43 45  2  0
 45 46  1  0
 45 47  1  0
 47 48  1  0
 47 49  2  0
 49 50  1  0
 36  4  1  0
 49 40  1  0
 13  8  2  0
 33 20  1  0
M  CHG  4   9  -1  12  -1  14  -1  20   1
M  END
>  <UniqueID>  (85) 
80

>  <SMILES>  (85) 
C=c1/c(=C\c2[n-]c(=O)[n-]c2[O-])cc(C(=O)[NH+]2CCC(=O)CC2)n1Cc1ccccc1

>  <Energy>  (85) 
130.8306551067263

>  <Genealogy>  (85) 
C=c1c(=Cc2[n-]c(=O)[n-]c2[O-])cc(C(=O)[NH+]2CCC(=O)CC2)n1Cc1ccccc1 (protonated)
C=c1/c(=C\c2[n-]c(=O)[n-]c2[O-])cc(C(=O)[NH+]2CCC(=O)CC2)n1Cc1ccccc1 (cis-trans isomerization)
C=c1/c(=C\c2[n-]c(=O)[n-]c2[O-])cc(C(=O)[NH+]2CCC(=O)CC2)n1Cc1ccccc1 (3D coordinates assigned)
C=c1/c(=C\c2[n-]c(=O)[n-]c2[O-])cc(C(=O)[NH+]2CCC(=O)CC2)n1Cc1ccccc1 (nonaromatic ring conformer: 130.8306551067263 kcal/mol)

>  <smiles>  (85) 
C=c1c(=Cc2[nH]c(=O)[nH]c2O)cc(C(=O)N2CCC(=O)CC2)n1Cc1ccccc1

>  <score_type>  (85) 
oracle

>  <origin>  (85) 
adg

>  <m_score__min__energy>  (85) 
-14.630000000000001

>  <m_primary>  (85) 
energy

$$$$
85:0
     RDKit          3D

 53 56  0  0  0  0  0  0  0  0999 V2000
   60.7560   26.3870   47.1350 C   0  0  0  0  0  0  0  0  0  0  0  0
   60.2110   27.4710   47.7040 C   0  0  0  0  0  0  0  0  0  0  0  0
   60.9490   28.0920   48.6640 N   0  0  0  0  0  0  0  0  0  0  0  0
   60.6300   29.3010   49.1920 C   0  0  0  0  0  0  0  0  0  0  0  0
   61.5440   29.9000   50.2220 C   0  0  0  0  0  0  0  0  0  0  0  0
   59.5030   29.9860   48.7060 C   0  0  0  0  0  0  0  0  0  0  0  0
   59.1190   31.3170   49.2180 C   0  0  0  0  0  0  0  0  0  0  0  0
   58.7960   31.4370   50.4310 O   0  0  0  0  0  0  0  0  0  0  0  0
   59.1290   32.4700   48.3600 N   0  0  0  0  0  0  0  0  0  0  0  0
   59.5020   33.7790   48.9070 C   0  0  0  0  0  0  0  0  0  0  0  0
   59.3600   34.8590   47.8340 C   0  0  0  0  0  0  0  0  0  0  0  0
   59.9650   34.4150   46.6370 O   0  0  0  0  0  0  0  0  0  0  0  0
   59.2490   33.3380   46.0360 C   0  0  2  0  0  0  0  0  0  0  0  0
   58.2900   33.8660   44.9540 C   0  0  0  0  0  0  0  0  0  0  0  0
   57.7590   32.7450   44.0990 C   0  0  0  0  0  0  0  0  0  0  0  0
   58.0460   32.7020   42.7240 C   0  0  0  0  0  0  0  0  0  0  0  0
   57.5780   31.6450   41.9380 C   0  0  0  0  0  0  0  0  0  0  0  0
   56.8260   30.6200   42.5200 C   0  0  0  0  0  0  0  0  0  0  0  0
   56.5460   30.6490   43.8890 C   0  0  0  0  0  0  0  0  0  0  0  0
   57.0140   31.7040   44.6780 C   0  0  0  0  0  0  0  0  0  0  0  0
   58.5060   32.4070   47.0360 C   0  0  0  0  0  0  0  0  0  0  0  0
   58.7170   29.3820   47.7210 C   0  0  0  0  0  0  0  0  0  0  0  0
   58.9930   28.0780   47.2630 C   0  0  0  0  0  0  0  0  0  0  0  0
   58.0640   27.4950   46.4640 C   0  0  0  0  0  0  0  0  0  0  0  0
   57.4140   26.1900   46.7010 C   0  0  0  0  0  0  0  0  0  0  0  0
   57.9910   25.1560   47.3430 N   0  0  0  0  0  0  0  0  0  0  0  0
   56.9970   24.2470   47.4300 C   0  0  0  0  0  0  0  0  0  0  0  0
   57.1550   23.1200   47.9650 O   0  0  0  0  0  0  0  0  0  0  0  0
   55.8190   24.6440   46.9050 N   0  0  0  0  0  0  0  0  0  0  0  0
   56.0940   25.8800   46.4580 C   0  0  0  0  0  0  0  0  0  0  0  0
   55.1520   26.6980   45.8390 O   0  0  0  0  0  0  0  0  0  0  0  0
   60.2076   25.8421   46.3525 H   0  0  0  0  0  0  0  0  0  0  0  0
   61.7518   26.0421   47.4504 H   0  0  0  0  0  0  0  0  0  0  0  0
   61.1722   29.6563   51.2282 H   0  0  0  0  0  0  0  0  0  0  0  0
   62.5570   29.4900   50.0961 H   0  0  0  0  0  0  0  0  0  0  0  0
   61.5723   30.9924   50.0961 H   0  0  0  0  0  0  0  0  0  0  0  0
   58.8434   34.0198   49.7545 H   0  0  0  0  0  0  0  0  0  0  0  0
   60.5486   33.7426   49.2436 H   0  0  0  0  0  0  0  0  0  0  0  0
   58.2935   35.0590   47.6537 H   0  0  0  0  0  0  0  0  0  0  0  0
   59.8532   35.7815   48.1743 H   0  0  0  0  0  0  0  0  0  0  0  0
   60.0153   32.6986   45.5734 H   0  0  0  0  0  0  0  0  0  0  0  0
   57.4458   34.3758   45.4413 H   0  0  0  0  0  0  0  0  0  0  0  0
   58.8448   34.5624   44.3081 H   0  0  0  0  0  0  0  0  0  0  0  0
   58.6419   33.5041   42.2639 H   0  0  0  0  0  0  0  0  0  0  0  0
   57.8014   31.6196   40.8612 H   0  0  0  0  0  0  0  0  0  0  0  0
   56.4546   29.7905   41.9003 H   0  0  0  0  0  0  0  0  0  0  0  0
   55.9566   29.8406   44.3463 H   0  0  0  0  0  0  0  0  0  0  0  0
   56.7981   31.7191   45.7565 H   0  0  0  0  0  0  0  0  0  0  0  0
   57.4562   32.7259   47.1150 H   0  0  0  0  0  0  0  0  0  0  0  0
   58.5629   31.3725   46.6664 H   0  0  0  0  0  0  0  0  0  0  0  0
   57.8667   29.9348   47.2950 H   0  0  0  0  0  0  0  0  0  0  0  0
   57.7682   28.0439   45.5578 H   0  0  0  0  0  0  0  0  0  0  0  0
   54.3900   27.1140   46.3600 H   0  0  0  0  0  0  0  0  0  0  0  0
  1  2  2  0
  2  3  1  0
  3  4  2  0
  4  5  1  0
  4  6  1  0
  6  7  1  0
  7  8  2  0
  7  9  1  0
  9 10  1  0
 10 11  1  0
 11 12  1  0
 12 13  1  0
 13 14  1  0
 14 15  1  0
 15 16  2  0
 16 17  1  0
 17 18  2  0
 18 19  1  0
 19 20  2  0
 13 21  1  0
  6 22  2  0
 22 23  1  0
 23 24  2  3
 24 25  1  0
 25 26  1  0
 26 27  1  0
 27 28  2  0
 27 29  1  0
 29 30  1  0
 30 31  1  0
 23  2  1  0
 30 25  2  0
 21  9  1  0
 20 15  1  0
  1 32  1  0
  1 33  1  0
  5 34  1  0
  5 35  1  0
  5 36  1  0
 10 37  1  0
 10 38  1  0
 11 39  1  0
 11 40  1  0
 13 41  1  6
 14 42  1  0
 14 43  1  0
 16 44  1  0
 17 45  1  0
 18 46  1  0
 19 47  1  0
 20 48  1  0
 21 49  1  0
 21 50  1  0
 22 51  1  0
 24 52  1  0
 31 53  1  0
M  CHG  2  26  -1  29  -1
M  END
>  <UniqueID>  (86) 
81

>  <SMILES>  (86) 
C=c1nc(C)c(C(=O)N2CCO[C@H](Cc3ccccc3)C2)cc1=Cc1[n-]c(=O)[n-]c1O

>  <Energy>  (86) 
115.72323990468429

>  <Genealogy>  (86) 
C=c1nc(C)c(C(=O)N2CCOC(Cc3ccccc3)C2)cc1=Cc1[n-]c(=O)[n-]c1O (protonated)
C=c1nc(C)c(C(=O)N2CCO[C@H](Cc3ccccc3)C2)cc1=Cc1[n-]c(=O)[n-]c1O (chirality)
C=c1nc(C)c(C(=O)N2CCO[C@H](Cc3ccccc3)C2)cc1=Cc1[n-]c(=O)[n-]c1O (3D coordinates assigned)
C=c1nc(C)c(C(=O)N2CCO[C@H](Cc3ccccc3)C2)cc1=Cc1[n-]c(=O)[n-]c1O (nonaromatic ring conformer: 115.72323990468429 kcal/mol)

>  <smiles>  (86) 
C=c1nc(C)c(C(=O)N2CCOC(Cc3ccccc3)C2)cc1=Cc1[nH]c(=O)[nH]c1O

>  <score_type>  (86) 
oracle

>  <origin>  (86) 
adg

>  <m_score__min__energy>  (86) 
-14.35

>  <m_primary>  (86) 
energy

$$$$
86:0
     RDKit          3D

 40 42  0  0  0  0  0  0  0  0999 V2000
   60.3612   27.3107   45.0417 H   0  0  0  0  0  0  0  0  0  0  0  0
   59.2840   27.2710   45.2610 C   0  0  0  0  0  0  0  0  0  0  0  0
   58.4660   28.3500   44.9240 C   0  0  0  0  0  0  0  0  0  0  0  0
   58.9014   29.2349   44.4369 H   0  0  0  0  0  0  0  0  0  0  0  0
   57.0900   28.3130   45.2030 C   0  0  0  0  0  0  0  0  0  0  0  0
   56.2520   29.4890   44.8700 C   0  0  0  0  0  0  0  0  0  0  0  0
   54.9990   29.3670   44.8540 O   0  0  0  0  0  0  0  0  0  0  0  0
   56.8230   30.7750   44.5860 N   0  0  0  0  0  0  0  0  0  0  0  0
   57.7010   31.5080   45.4520 C   0  0  0  0  0  0  0  0  0  0  0  0
   58.0020   32.8400   45.1450 C   0  0  0  0  0  0  0  0  0  0  0  0
   57.5998   33.2939   44.2273 H   0  0  0  0  0  0  0  0  0  0  0  0
   58.8110   33.5970   45.9980 C   0  0  0  0  0  0  0  0  0  0  0  0
   59.0368   34.6449   45.7510 H   0  0  0  0  0  0  0  0  0  0  0  0
   59.3370   33.0260   47.1690 C   0  0  0  0  0  0  0  0  0  0  0  0
   60.1460   33.8440   48.1020 C   0  0  0  0  0  0  0  0  0  0  0  0
   59.5950   34.3620   49.1090 O   0  0  0  0  0  0  0  0  0  0  0  0
   61.5350   34.1160   47.8620 N   0  0  0  0  0  0  0  0  0  0  0  0
   62.4940   34.0120   48.7360 C   0  0  0  0  0  0  0  0  0  0  0  0
   64.1440   33.4400   48.3580 S   0  0  0  0  0  0  0  0  0  0  0  0
   64.3350   32.9960   50.1200 C   0  0  0  0  0  0  0  0  0  0  0  0
   65.3698   33.1899   50.4387 H   0  0  0  0  0  0  0  0  0  0  0  0
   64.1069   31.9291   50.2604 H   0  0  0  0  0  0  0  0  0  0  0  0
   63.3720   33.8450   50.9580 C   0  0  0  0  0  0  0  0  0  0  0  0
   63.8760   34.7633   51.2938 H   0  0  0  0  0  0  0  0  0  0  0  0
   63.0407   33.2899   51.8480 H   0  0  0  0  0  0  0  0  0  0  0  0
   62.2410   34.1810   50.1160 N   0  0  0  0  0  0  0  0  0  0  0  0
   61.3560   34.5940   50.4900 H   0  0  0  0  0  0  0  0  0  0  0  0
   59.0910   31.6690   47.4380 C   0  0  0  0  0  0  0  0  0  0  0  0
   59.5382   31.1977   48.3256 H   0  0  0  0  0  0  0  0  0  0  0  0
   58.2820   30.9150   46.5850 C   0  0  0  0  0  0  0  0  0  0  0  0
   58.0990   29.8521   46.8014 H   0  0  0  0  0  0  0  0  0  0  0  0
   56.5360   27.1570   45.7930 C   0  0  0  0  0  0  0  0  0  0  0  0
   55.1610   27.0650   45.9960 O   0  0  0  0  0  0  0  0  0  0  0  0
   57.3670   26.0810   46.1580 C   0  0  0  0  0  0  0  0  0  0  0  0
   56.7880   24.8380   46.7720 C   0  0  0  0  0  0  0  0  0  0  0  0
   56.8257   24.9188   47.8684 H   0  0  0  0  0  0  0  0  0  0  0  0
   55.7431   24.7218   46.4486 H   0  0  0  0  0  0  0  0  0  0  0  0
   57.3714   23.9633   46.4486 H   0  0  0  0  0  0  0  0  0  0  0  0
   58.7410   26.1420   45.8750 C   0  0  0  0  0  0  0  0  0  0  0  0
   59.3923   25.2957   46.1386 H   0  0  0  0  0  0  0  0  0  0  0  0
  1  2  1  0
  2  3  2  0
  3  4  1  0
  3  5  1  0
  5  6  1  0
  6  7  2  0
  6  8  1  0
  8  9  1  0
  9 10  2  0
 10 11  1  0
 10 12  1  0
 12 13  1  0
 12 14  2  0
 14 15  1  0
 15 16  2  0
 15 17  1  0
 17 18  2  0
 18 19  1  0
 19 20  1  0
 20 21  1  0
 20 22  1  0
 20 23  1  0
 23 24  1  0
 23 25  1  0
 23 26  1  0
 26 27  1  0
 14 28  1  0
 28 29  1  0
 28 30  2  0
 30 31  1  0
  5 32  2  0
 32 33  1  0
 32 34  1  0
 34 35  1  0
 35 36  1  0
 35 37  1  0
 35 38  1  0
 34 39  2  0
 39 40  1  0
 39  2  1  0
 30  9  1  0
 26 18  1  0
M  CHG  2   8  -1  33  -1
M  END
>  <UniqueID>  (87) 
82

>  <SMILES>  (87) 
Cc1cccc(C(=O)[N-]c2ccc(C(=O)/N=C3/NCCS3)cc2)c1[O-]

>  <Energy>  (87) 
62.268607457386736

>  <Genealogy>  (87) 
Cc1cccc(C(=O)[N-]c2ccc(C(=O)N=C3NCCS3)cc2)c1[O-] (protonated)
Cc1cccc(C(=O)[N-]c2ccc(C(=O)/N=C3/NCCS3)cc2)c1[O-] (cis-trans isomerization)
Cc1cccc(C(=O)[N-]c2ccc(C(=O)/N=C3/NCCS3)cc2)c1[O-] (3D coordinates assigned)
Cc1cccc(C(=O)[N-]c2ccc(C(=O)/N=C3/NCCS3)cc2)c1[O-] (nonaromatic ring conformer: 62.268607457386736 kcal/mol)

>  <smiles>  (87) 
Cc1cccc(C(=O)Nc2ccc(C(=O)N=C3NCCS3)cc2)c1O

>  <score_type>  (87) 
oracle

>  <origin>  (87) 
adg

>  <m_score__min__energy>  (87) 
-14.24

>  <m_primary>  (87) 
energy

$$$$
87:0
     RDKit          3D

 61 65  0  0  0  0  0  0  0  0999 V2000
   59.8890   28.7950   48.9150 C   0  0  0  0  0  0  0  0  0  0  0  0
   59.0270   30.0440   48.7080 C   0  0  0  0  0  0  0  0  0  0  0  0
   58.4970   30.6070   50.0310 C   0  0  0  0  0  0  0  0  0  0  0  0
   59.7560   31.0610   47.9280 N   0  0  0  0  0  0  0  0  0  0  0  0
   59.4810   31.6110   46.7040 C   0  0  0  0  0  0  0  0  0  0  0  0
   58.3780   31.2220   45.8150 C   0  0  0  0  0  0  0  0  0  0  0  0
   58.0440   32.0090   44.7090 C   0  0  0  0  0  0  0  0  0  0  0  0
   57.0720   31.6010   43.8520 N   0  0  0  0  0  0  0  0  0  0  0  0
   56.4080   30.4270   44.0270 C   0  0  0  0  0  0  0  0  0  0  0  0
   56.7220   29.5920   45.1050 C   0  0  0  0  0  0  0  0  0  0  0  0
   56.0180   28.3530   45.2480 N   0  0  0  0  0  0  0  0  0  0  0  0
   56.6630   26.8940   45.9260 S   0  0  0  0  0  0  0  0  0  0  0  0
   57.7020   26.0570   44.7440 C   0  0  0  0  0  0  0  0  0  0  0  0
   55.5230   25.9880   46.2920 O   0  0  0  0  0  0  0  0  0  0  0  0
   57.4440   27.2160   47.1690 O   0  0  0  0  0  0  0  0  0  0  0  0
   57.7260   29.9960   46.0000 C   0  0  0  0  0  0  0  0  0  0  0  0
   60.4470   32.5590   46.3420 C   0  0  0  0  0  0  0  0  0  0  0  0
   61.2880   32.5850   47.4230 C   0  0  0  0  0  0  0  0  0  0  0  0
   60.8590   31.7130   48.3350 C   0  0  0  0  0  0  0  0  0  0  0  0
   61.8150   31.5520   49.4780 C   0  0  2  0  0  0  0  0  0  0  0  0
   61.1860   31.9330   50.7990 C   0  0  0  0  0  0  0  0  0  0  0  0
   61.4800   31.1900   51.9570 C   0  0  0  0  0  0  0  0  0  0  0  0
   60.9240   31.5490   53.1860 C   0  0  0  0  0  0  0  0  0  0  0  0
   60.0670   32.6520   53.2770 C   0  0  0  0  0  0  0  0  0  0  0  0
   59.4860   33.0130   54.5430 C   0  0  0  0  0  0  0  0  0  0  0  0
   59.0200   33.3010   55.5630 N   0  0  0  0  0  0  0  0  0  0  0  0
   59.7860   33.4100   52.1350 C   0  0  0  0  0  0  0  0  0  0  0  0
   60.3480   33.0600   50.9040 C   0  0  0  0  0  0  0  0  0  0  0  0
   62.8930   32.5000   49.1070 N   0  0  0  0  0  0  0  0  0  0  0  0
   64.0200   32.8560   49.9310 C   0  0  0  0  0  0  0  0  0  0  0  0
   65.2340   32.1620   49.7950 C   0  0  0  0  0  0  0  0  0  0  0  0
   66.3440   32.5200   50.5660 C   0  0  0  0  0  0  0  0  0  0  0  0
   66.2550   33.5750   51.4760 C   0  0  0  0  0  0  0  0  0  0  0  0
   65.0550   34.2730   51.6220 C   0  0  0  0  0  0  0  0  0  0  0  0
   64.9590   35.5980   52.7720 Cl  0  0  0  0  0  0  0  0  0  0  0  0
   63.9380   33.9210   50.8510 C   0  0  0  0  0  0  0  0  0  0  0  0
   62.7700   34.5890   51.0300 F   0  0  0  0  0  0  0  0  0  0  0  0
   62.5530   33.1060   47.8510 C   0  0  0  0  0  0  0  0  0  0  0  0
   63.2920   33.8910   47.1970 O   0  0  0  0  0  0  0  0  0  0  0  0
   60.0157   28.6114   49.9921 H   0  0  0  0  0  0  0  0  0  0  0  0
   59.3960   27.9282   48.4508 H   0  0  0  0  0  0  0  0  0  0  0  0
   60.8744   28.9485   48.4508 H   0  0  0  0  0  0  0  0  0  0  0  0
   58.1438   29.7439   48.1250 H   0  0  0  0  0  0  0  0  0  0  0  0
   58.9839   30.0898   50.8709 H   0  0  0  0  0  0  0  0  0  0  0  0
   58.7173   31.6833   50.0859 H   0  0  0  0  0  0  0  0  0  0  0  0
   57.4094   30.4521   50.0859 H   0  0  0  0  0  0  0  0  0  0  0  0
   58.5687   32.9595   44.5324 H   0  0  0  0  0  0  0  0  0  0  0  0
   55.6204   30.1325   43.3178 H   0  0  0  0  0  0  0  0  0  0  0  0
   58.4513   25.4534   45.2771 H   0  0  0  0  0  0  0  0  0  0  0  0
   57.0845   25.4011   44.1127 H   0  0  0  0  0  0  0  0  0  0  0  0
   58.2114   26.8000   44.1127 H   0  0  0  0  0  0  0  0  0  0  0  0
   58.0005   29.3495   46.8466 H   0  0  0  0  0  0  0  0  0  0  0  0
   60.5141   33.1428   45.4121 H   0  0  0  0  0  0  0  0  0  0  0  0
   62.1541   30.5156   49.6224 H   0  0  0  0  0  0  0  0  0  0  0  0
   62.1518   30.3213   51.8935 H   0  0  0  0  0  0  0  0  0  0  0  0
   61.1602   30.9629   54.0864 H   0  0  0  0  0  0  0  0  0  0  0  0
   59.1212   34.2835   52.2061 H   0  0  0  0  0  0  0  0  0  0  0  0
   60.1346   33.6680   50.0125 H   0  0  0  0  0  0  0  0  0  0  0  0
   65.3116   31.3319   49.0775 H   0  0  0  0  0  0  0  0  0  0  0  0
   67.2897   31.9691   50.4553 H   0  0  0  0  0  0  0  0  0  0  0  0
   67.1312   33.8565   52.0785 H   0  0  0  0  0  0  0  0  0  0  0  0
  1  2  1  0
  2  3  1  0
  2  4  1  0
  4  5  1  0
  5  6  1  0
  6  7  2  0
  7  8  1  0
  8  9  2  0
  9 10  1  0
 10 11  1  0
 11 12  1  0
 12 13  1  0
 12 14  2  0
 12 15  2  0
 10 16  2  0
  5 17  2  0
 17 18  1  0
 18 19  2  0
 19 20  1  0
 20 21  1  0
 21 22  2  0
 22 23  1  0
 23 24  2  0
 24 25  1  0
 25 26  3  0
 24 27  1  0
 27 28  2  0
 20 29  1  0
 29 30  1  0
 30 31  2  0
 31 32  1  0
 32 33  2  0
 33 34  1  0
 34 35  1  0
 34 36  2  0
 36 37  1  0
 29 38  1  0
 38 39  2  0
 19  4  1  0
 28 21  1  0
 36 30  1  0
 16  6  1  0
 38 18  1  0
  1 40  1  0
  1 41  1  0
  1 42  1  0
  2 43  1  0
  3 44  1  0
  3 45  1  0
  3 46  1  0
  7 47  1  0
  9 48  1  0
 13 49  1  0
 13 50  1  0
 13 51  1  0
 16 52  1  0
 17 53  1  0
 20 54  1  1
 22 55  1  0
 23 56  1  0
 27 57  1  0
 28 58  1  0
 31 59  1  0
 32 60  1  0
 33 61  1  0
M  CHG  1  11  -1
M  END
>  <UniqueID>  (88) 
83

>  <SMILES>  (88) 
CC(C)n1c(-c2cncc([N-]S(C)(=O)=O)c2)cc2c1[C@H](c1ccc(C#N)cc1)N(c1cccc(Cl)c1F)C2=O

>  <Energy>  (88) 
139.30458413867822

>  <Genealogy>  (88) 
CC(C)n1c(-c2cncc([N-]S(C)(=O)=O)c2)cc2c1C(c1ccc(C#N)cc1)N(c1cccc(Cl)c1F)C2=O (protonated)
CC(C)n1c(-c2cncc([N-]S(C)(=O)=O)c2)cc2c1[C@H](c1ccc(C#N)cc1)N(c1cccc(Cl)c1F)C2=O (chirality)
CC(C)n1c(-c2cncc([N-]S(C)(=O)=O)c2)cc2c1[C@H](c1ccc(C#N)cc1)N(c1cccc(Cl)c1F)C2=O (3D coordinates assigned)
CC(C)n1c(-c2cncc([N-]S(C)(=O)=O)c2)cc2c1[C@H](c1ccc(C#N)cc1)N(c1cccc(Cl)c1F)C2=O (nonaromatic ring conformer: 139.30458413867822 kcal/mol)

>  <smiles>  (88) 
CC(C)n1c(-c2cncc(NS(C)(=O)=O)c2)cc2c1C(c1ccc(C#N)cc1)N(c1cccc(Cl)c1F)C2=O

>  <score_type>  (88) 
oracle

>  <origin>  (88) 
adg

>  <m_score__min__energy>  (88) 
-11.09

>  <m_primary>  (88) 
energy

$$$$
88:0
     RDKit          3D

 59 62  0  0  0  0  0  0  0  0999 V2000
   55.5620   30.4580   44.3270 O   0  0  0  0  0  0  0  0  0  0  0  0
   56.7940   30.6790   44.4860 C   0  0  0  0  0  0  0  0  0  0  0  0
   57.3640   32.0450   44.1620 C   0  0  0  0  0  0  0  0  0  0  0  0
   58.3590   32.5390   45.1510 N   0  0  0  0  0  0  0  0  0  0  0  0
   57.7650   32.7480   46.4940 C   0  0  0  0  0  0  0  0  0  0  0  0
   58.8720   32.9850   47.5330 C   0  0  0  0  0  0  0  0  0  0  0  0
   59.9270   33.8470   46.9820 N   0  0  0  0  0  0  0  0  0  0  0  0
   61.2430   33.8470   47.5650 C   0  0  0  0  0  0  0  0  0  0  0  0
   62.3600   33.5280   46.7740 C   0  0  0  0  0  0  0  0  0  0  0  0
   63.6420   33.5150   47.3310 C   0  0  0  0  0  0  0  0  0  0  0  0
   63.8200   33.8270   48.6810 C   0  0  0  0  0  0  0  0  0  0  0  0
   62.7170   34.1470   49.4770 C   0  0  0  0  0  0  0  0  0  0  0  0
   61.4300   34.1540   48.9260 C   0  0  0  0  0  0  0  0  0  0  0  0
   60.3770   34.4890   49.7100 F   0  0  0  0  0  0  0  0  0  0  0  0
   59.6410   34.6350   45.7770 C   0  0  0  0  0  0  0  0  0  0  0  0
   59.1140   33.7230   44.6490 C   0  0  0  0  0  0  0  0  0  0  0  0
   57.6440   29.6280   44.9800 N   0  0  0  0  0  0  0  0  0  0  0  0
   57.1250   28.6710   45.9570 C   0  0  0  0  0  0  0  0  0  0  0  0
   58.2400   28.2570   46.9260 C   0  0  0  0  0  0  0  0  0  0  0  0
   59.4920   27.8800   46.2360 N   0  0  0  0  0  0  0  0  0  0  0  0
   59.7170   26.4350   46.0070 C   0  0  0  0  0  0  0  0  0  0  0  0
   58.4460   25.6290   45.8980 C   0  0  0  0  0  0  0  0  0  0  0  0
   57.8220   25.4480   44.6520 C   0  0  0  0  0  0  0  0  0  0  0  0
   56.6350   24.7150   44.5570 C   0  0  0  0  0  0  0  0  0  0  0  0
   56.0580   24.1640   45.7050 C   0  0  0  0  0  0  0  0  0  0  0  0
   56.6600   24.3570   46.9490 C   0  0  0  0  0  0  0  0  0  0  0  0
   57.8440   25.0950   47.0490 C   0  0  0  0  0  0  0  0  0  0  0  0
   59.9470   28.8010   45.1740 C   0  0  0  0  0  0  0  0  0  0  0  0
   58.8230   29.2150   44.2170 C   0  0  0  0  0  0  0  0  0  0  0  0
   57.8529   31.9906   43.1781 H   0  0  0  0  0  0  0  0  0  0  0  0
   56.5216   32.7521   44.1799 H   0  0  0  0  0  0  0  0  0  0  0  0
   59.0590   31.7630   45.2530 H   0  0  0  0  0  0  0  0  0  0  0  0
   57.1004   33.6240   46.4650 H   0  0  0  0  0  0  0  0  0  0  0  0
   57.1932   31.8519   46.7769 H   0  0  0  0  0  0  0  0  0  0  0  0
   58.4370   33.4690   48.4198 H   0  0  0  0  0  0  0  0  0  0  0  0
   59.3144   32.0154   47.8052 H   0  0  0  0  0  0  0  0  0  0  0  0
   62.2245   33.2869   45.7093 H   0  0  0  0  0  0  0  0  0  0  0  0
   64.5106   33.2591   46.7064 H   0  0  0  0  0  0  0  0  0  0  0  0
   64.8295   33.8208   49.1179 H   0  0  0  0  0  0  0  0  0  0  0  0
   62.8603   34.3940   50.5393 H   0  0  0  0  0  0  0  0  0  0  0  0
   58.8816   35.3950   46.0130 H   0  0  0  0  0  0  0  0  0  0  0  0
   60.5691   35.1194   45.4394 H   0  0  0  0  0  0  0  0  0  0  0  0
   58.4471   34.3147   44.0047 H   0  0  0  0  0  0  0  0  0  0  0  0
   59.9894   33.3428   44.1020 H   0  0  0  0  0  0  0  0  0  0  0  0
   56.3043   29.1362   46.5227 H   0  0  0  0  0  0  0  0  0  0  0  0
   56.7546   27.7798   45.4293 H   0  0  0  0  0  0  0  0  0  0  0  0
   58.4509   29.1008   47.5994 H   0  0  0  0  0  0  0  0  0  0  0  0
   57.8872   27.3722   47.4761 H   0  0  0  0  0  0  0  0  0  0  0  0
   60.2838   26.3165   45.0717 H   0  0  0  0  0  0  0  0  0  0  0  0
   60.2632   26.0538   46.8824 H   0  0  0  0  0  0  0  0  0  0  0  0
   58.2694   25.8850   43.7471 H   0  0  0  0  0  0  0  0  0  0  0  0
   56.1547   24.5718   43.5778 H   0  0  0  0  0  0  0  0  0  0  0  0
   55.1299   23.5786   45.6277 H   0  0  0  0  0  0  0  0  0  0  0  0
   56.2026   23.9280   47.8527 H   0  0  0  0  0  0  0  0  0  0  0  0
   58.3059   25.2579   48.0340 H   0  0  0  0  0  0  0  0  0  0  0  0
   60.3559   29.7062   45.6467 H   0  0  0  0  0  0  0  0  0  0  0  0
   60.7050   28.2692   44.5802 H   0  0  0  0  0  0  0  0  0  0  0  0
   59.1658   30.0538   43.5934 H   0  0  0  0  0  0  0  0  0  0  0  0
   58.5587   28.3595   43.5781 H   0  0  0  0  0  0  0  0  0  0  0  0
  1  2  2  0
  2  3  1  0
  3  4  1  0
  4  5  1  0
  5  6  1  0
  6  7  1  0
  7  8  1  0
  8  9  2  0
  9 10  1  0
 10 11  2  0
 11 12  1  0
 12 13  2  0
 13 14  1  0
  7 15  1  0
 15 16  1  0
  2 17  1  0
 17 18  1  0
 18 19  1  0
 19 20  1  0
 20 21  1  0
 21 22  1  0
 22 23  2  0
 23 24  1  0
 24 25  2  0
 25 26  1  0
 26 27  2  0
 20 28  1  0
 28 29  1  0
 16  4  1  0
 29 17  1  0
 13  8  1  0
 27 22  1  0
  3 30  1  0
  3 31  1  0
  4 32  1  0
  5 33  1  0
  5 34  1  0
  6 35  1  0
  6 36  1  0
  9 37  1  0
 10 38  1  0
 11 39  1  0
 12 40  1  0
 15 41  1  0
 15 42  1  0
 16 43  1  0
 16 44  1  0
 18 45  1  0
 18 46  1  0
 19 47  1  0
 19 48  1  0
 21 49  1  0
 21 50  1  0
 23 51  1  0
 24 52  1  0
 25 53  1  0
 26 54  1  0
 27 55  1  0
 28 56  1  0
 28 57  1  0
 29 58  1  0
 29 59  1  0
M  CHG  1   4   1
M  END
>  <UniqueID>  (89) 
84

>  <SMILES>  (89) 
O=C(C[NH+]1CCN(c2ccccc2F)CC1)N1CCN(Cc2ccccc2)CC1

>  <Energy>  (89) 
87.09745973996216

>  <Genealogy>  (89) 
O=C(C[NH+]1CCN(c2ccccc2F)CC1)N1CCN(Cc2ccccc2)CC1 (protonated)
O=C(C[NH+]1CCN(c2ccccc2F)CC1)N1CCN(Cc2ccccc2)CC1 (3D coordinates assigned)
O=C(C[NH+]1CCN(c2ccccc2F)CC1)N1CCN(Cc2ccccc2)CC1 (nonaromatic ring conformer: 87.09745973996216 kcal/mol)

>  <smiles>  (89) 
O=C(CN1CCN(c2ccccc2F)CC1)N1CCN(Cc2ccccc2)CC1

>  <score_type>  (89) 
oracle

>  <origin>  (89) 
adg

>  <m_score__min__energy>  (89) 
-6.9500000000000002

>  <m_primary>  (89) 
energy

$$$$
89:0
     RDKit          3D

 47 50  0  0  0  0  0  0  0  0999 V2000
   58.2440   33.2160   47.7460 O   0  0  0  0  0  0  0  0  0  0  0  0
   59.0590   32.4990   47.1040 C   0  0  0  0  0  0  0  0  0  0  0  0
   58.9040   32.3380   45.6270 C   0  0  0  0  0  0  0  0  0  0  0  0
   58.5270   30.9170   45.3000 C   0  0  0  0  0  0  0  0  0  0  0  0
   59.4790   29.8950   45.4390 C   0  0  0  0  0  0  0  0  0  0  0  0
   59.1360   28.5660   45.1730 C   0  0  0  0  0  0  0  0  0  0  0  0
   57.8330   28.2370   44.7710 C   0  0  0  0  0  0  0  0  0  0  0  0
   57.4690   26.8260   44.4910 C   0  0  0  0  0  0  0  0  0  0  0  0
   57.7670   26.2430   43.2440 C   0  0  0  0  0  0  0  0  0  0  0  0
   58.4250   26.9790   42.2620 O   0  0  0  0  0  0  0  0  0  0  0  0
   57.4380   24.9800   42.9920 O   0  0  0  0  0  0  0  0  0  0  0  0
   56.8260   24.2030   43.8790 C   0  0  0  0  0  0  0  0  0  0  0  0
   56.5120   22.8810   43.5420 C   0  0  0  0  0  0  0  0  0  0  0  0
   55.8680   22.0540   44.4670 C   0  0  0  0  0  0  0  0  0  0  0  0
   55.5590   20.7430   44.1280 O   0  0  0  0  0  0  0  0  0  0  0  0
   55.5350   22.5450   45.7330 C   0  0  0  0  0  0  0  0  0  0  0  0
   55.8440   23.8640   46.0800 C   0  0  0  0  0  0  0  0  0  0  0  0
   56.4920   24.7040   45.1570 C   0  0  0  0  0  0  0  0  0  0  0  0
   56.8190   26.0360   45.4580 C   0  0  0  0  0  0  0  0  0  0  0  0
   56.5190   26.5280   46.5820 O   0  0  0  0  0  0  0  0  0  0  0  0
   56.8760   29.2550   44.6440 C   0  0  0  0  0  0  0  0  0  0  0  0
   57.2140   30.5860   44.9110 C   0  0  0  0  0  0  0  0  0  0  0  0
   56.2400   31.5710   44.7930 O   0  0  0  0  0  0  0  0  0  0  0  0
   60.0840   31.8110   47.7640 O   0  0  0  0  0  0  0  0  0  0  0  0
   61.3570   31.5510   47.1770 C   0  0  0  0  0  0  0  0  0  0  0  0
   62.4620   31.8670   48.1540 C   0  0  0  0  0  0  0  0  0  0  0  0
   62.5210   31.2350   49.4120 C   0  0  0  0  0  0  0  0  0  0  0  0
   61.5920   30.3130   49.7720 F   0  0  0  0  0  0  0  0  0  0  0  0
   63.5450   31.5530   50.3110 C   0  0  0  0  0  0  0  0  0  0  0  0
   64.5110   32.5010   49.9670 C   0  0  0  0  0  0  0  0  0  0  0  0
   64.4580   33.1350   48.7240 C   0  0  0  0  0  0  0  0  0  0  0  0
   63.4390   32.8230   47.8190 C   0  0  0  0  0  0  0  0  0  0  0  0
   63.4030   33.4540   46.6180 F   0  0  0  0  0  0  0  0  0  0  0  0
   58.1158   33.0158   45.2675 H   0  0  0  0  0  0  0  0  0  0  0  0
   59.8577   32.5806   45.1355 H   0  0  0  0  0  0  0  0  0  0  0  0
   60.5020   30.1414   45.7594 H   0  0  0  0  0  0  0  0  0  0  0  0
   59.8920   27.7741   45.2795 H   0  0  0  0  0  0  0  0  0  0  0  0
   58.3840   27.9910   42.2580 H   0  0  0  0  0  0  0  0  0  0  0  0
   56.7727   22.4919   42.5467 H   0  0  0  0  0  0  0  0  0  0  0  0
   55.0283   21.8916   46.4585 H   0  0  0  0  0  0  0  0  0  0  0  0
   55.5795   24.2453   47.0773 H   0  0  0  0  0  0  0  0  0  0  0  0
   55.8514   29.0045   44.3319 H   0  0  0  0  0  0  0  0  0  0  0  0
   61.4157   30.4895   46.8946 H   0  0  0  0  0  0  0  0  0  0  0  0
   61.4756   32.1865   46.2870 H   0  0  0  0  0  0  0  0  0  0  0  0
   63.5892   31.0552   51.2909 H   0  0  0  0  0  0  0  0  0  0  0  0
   65.3147   32.7486   50.6761 H   0  0  0  0  0  0  0  0  0  0  0  0
   65.2199   33.8818   48.4562 H   0  0  0  0  0  0  0  0  0  0  0  0
  1  2  2  0
  2  3  1  0
  3  4  1  0
  4  5  2  0
  5  6  1  0
  6  7  2  0
  7  8  1  0
  8  9  2  0
  9 10  1  0
  9 11  1  0
 11 12  1  0
 12 13  2  0
 13 14  1  0
 14 15  1  0
 14 16  2  0
 16 17  1  0
 17 18  2  0
 18 19  1  0
 19 20  2  0
  7 21  1  0
 21 22  2  0
 22 23  1  0
  2 24  1  0
 24 25  1  0
 25 26  1  0
 26 27  2  0
 27 28  1  0
 27 29  1  0
 29 30  2  0
 30 31  1  0
 31 32  2  0
 32 33  1  0
 22  4  1  0
 32 26  1  0
 19  8  1  0
 18 12  1  0
  3 34  1  0
  3 35  1  0
  5 36  1  0
  6 37  1  0
 10 38  1  0
 13 39  1  0
 16 40  1  0
 17 41  1  0
 21 42  1  0
 25 43  1  0
 25 44  1  0
 29 45  1  0
 30 46  1  0
 31 47  1  0
M  CHG  2  15  -1  23  -1
M  END
>  <UniqueID>  (90) 
85

>  <SMILES>  (90) 
O=C(Cc1ccc(-c2c(O)oc3cc([O-])ccc3c2=O)cc1[O-])OCc1c(F)cccc1F

>  <Energy>  (90) 
62.308508962325334

>  <Genealogy>  (90) 
O=C(Cc1ccc(-c2c(O)oc3cc([O-])ccc3c2=O)cc1[O-])OCc1c(F)cccc1F (protonated)
O=C(Cc1ccc(-c2c(O)oc3cc([O-])ccc3c2=O)cc1[O-])OCc1c(F)cccc1F (3D coordinates assigned)
O=C(Cc1ccc(-c2c(O)oc3cc([O-])ccc3c2=O)cc1[O-])OCc1c(F)cccc1F (optimized conformer: 62.308508962325334 kcal/mol)

>  <smiles>  (90) 
O=C(Cc1ccc(-c2c(O)oc3cc(O)ccc3c2=O)cc1O)OCc1c(F)cccc1F

>  <score_type>  (90) 
oracle

>  <origin>  (90) 
adg

>  <m_score__min__energy>  (90) 
-12.289999999999999

>  <m_primary>  (90) 
energy

$$$$
90:0
     RDKit          3D

 47 49  0  0  0  0  0  0  0  0999 V2000
   57.6980   24.2400   45.1100 C   0  0  0  0  0  0  0  0  0  0  0  0
   57.1790   25.4580   45.3080 C   0  0  0  0  0  0  0  0  0  0  0  0
   57.7660   26.6470   44.5850 C   0  0  0  0  0  0  0  0  0  0  0  0
   58.1330   27.7350   45.5590 C   0  0  0  0  0  0  0  0  0  0  0  0
   59.0090   27.4650   46.6210 C   0  0  0  0  0  0  0  0  0  0  0  0
   59.3760   28.4790   47.5100 C   0  0  0  0  0  0  0  0  0  0  0  0
   58.8680   29.7810   47.3550 C   0  0  0  0  0  0  0  0  0  0  0  0
   59.2690   30.8690   48.2800 C   0  0  0  0  0  0  0  0  0  0  0  0
   60.1740   30.6590   49.1280 O   0  0  0  0  0  0  0  0  0  0  0  0
   58.6180   32.1470   48.2760 N   0  0  0  0  0  0  0  0  0  0  0  0
   58.5510   33.0530   47.1640 C   0  0  0  0  0  0  0  0  0  0  0  0
   57.3740   33.1820   46.4060 C   0  0  0  0  0  0  0  0  0  0  0  0
   57.3410   34.0310   45.2960 C   0  0  0  0  0  0  0  0  0  0  0  0
   58.4820   34.7440   44.9250 C   0  0  0  0  0  0  0  0  0  0  0  0
   59.6600   34.6110   45.6630 C   0  0  0  0  0  0  0  0  0  0  0  0
   59.7020   33.7690   46.7820 C   0  0  0  0  0  0  0  0  0  0  0  0
   60.9150   33.6700   47.5410 N   0  0  0  0  0  0  0  0  0  0  0  0
   62.1870   33.4670   46.8460 C   0  0  0  0  0  0  0  0  0  0  0  0
   63.1900   32.8060   47.7950 C   0  0  0  0  0  0  0  0  0  0  0  0
   63.2810   33.5290   49.0090 O   0  0  0  0  0  0  0  0  0  0  0  0
   62.0470   33.4610   49.7010 C   0  0  0  0  0  0  0  0  0  0  0  0
   60.9380   34.1690   48.9150 C   0  0  0  0  0  0  0  0  0  0  0  0
   57.9990   30.0510   46.2850 C   0  0  0  0  0  0  0  0  0  0  0  0
   57.6340   29.0360   45.3950 C   0  0  0  0  0  0  0  0  0  0  0  0
   56.0040   25.6450   46.1910 C   0  0  0  0  0  0  0  0  0  0  0  0
   55.7710   24.8420   47.1340 O   0  0  0  0  0  0  0  0  0  0  0  0
   55.1430   26.7170   45.9930 O   0  0  0  0  0  0  0  0  0  0  0  0
   57.2749   23.3701   45.6337 H   0  0  0  0  0  0  0  0  0  0  0  0
   58.5476   24.1091   44.4237 H   0  0  0  0  0  0  0  0  0  0  0  0
   58.6682   26.3296   44.0416 H   0  0  0  0  0  0  0  0  0  0  0  0
   57.0155   27.0395   43.8831 H   0  0  0  0  0  0  0  0  0  0  0  0
   59.4094   26.4492   46.7548 H   0  0  0  0  0  0  0  0  0  0  0  0
   60.0670   28.2571   48.3366 H   0  0  0  0  0  0  0  0  0  0  0  0
   56.4758   32.6128   46.6874 H   0  0  0  0  0  0  0  0  0  0  0  0
   56.4138   34.1374   44.7137 H   0  0  0  0  0  0  0  0  0  0  0  0
   58.4533   35.4111   44.0508 H   0  0  0  0  0  0  0  0  0  0  0  0
   60.5591   35.1699   45.3644 H   0  0  0  0  0  0  0  0  0  0  0  0
   62.0274   32.8183   45.9721 H   0  0  0  0  0  0  0  0  0  0  0  0
   62.5822   34.4389   46.5154 H   0  0  0  0  0  0  0  0  0  0  0  0
   62.8607   31.7788   48.0102 H   0  0  0  0  0  0  0  0  0  0  0  0
   64.1791   32.7965   47.3138 H   0  0  0  0  0  0  0  0  0  0  0  0
   61.7709   32.4055   49.8416 H   0  0  0  0  0  0  0  0  0  0  0  0
   62.1621   33.9616   50.6737 H   0  0  0  0  0  0  0  0  0  0  0  0
   59.9671   33.9709   49.3927 H   0  0  0  0  0  0  0  0  0  0  0  0
   61.1304   35.2520   48.9070 H   0  0  0  0  0  0  0  0  0  0  0  0
   57.6029   31.0678   46.1462 H   0  0  0  0  0  0  0  0  0  0  0  0
   56.9517   29.2589   44.5615 H   0  0  0  0  0  0  0  0  0  0  0  0
  1  2  2  0
  2  3  1  0
  3  4  1  0
  4  5  2  0
  5  6  1  0
  6  7  2  0
  7  8  1  0
  8  9  2  0
  8 10  1  0
 10 11  1  0
 11 12  2  0
 12 13  1  0
 13 14  2  0
 14 15  1  0
 15 16  2  0
 16 17  1  0
 17 18  1  0
 18 19  1  0
 19 20  1  0
 20 21  1  0
 21 22  1  0
  7 23  1  0
 23 24  2  0
  2 25  1  0
 25 26  2  0
 25 27  1  0
 24  4  1  0
 16 11  1  0
 22 17  1  0
  1 28  1  0
  1 29  1  0
  3 30  1  0
  3 31  1  0
  5 32  1  0
  6 33  1  0
 12 34  1  0
 13 35  1  0
 14 36  1  0
 15 37  1  0
 18 38  1  0
 18 39  1  0
 19 40  1  0
 19 41  1  0
 21 42  1  0
 21 43  1  0
 22 44  1  0
 22 45  1  0
 23 46  1  0
 24 47  1  0
M  CHG  2  10  -1  27  -1
M  END
>  <UniqueID>  (91) 
86

>  <SMILES>  (91) 
C=C(Cc1ccc(C(=O)[N-]c2ccccc2N2CCOCC2)cc1)C(=O)[O-]

>  <Energy>  (91) 
59.65099813609302

>  <Genealogy>  (91) 
C=C(Cc1ccc(C(=O)[N-]c2ccccc2N2CCOCC2)cc1)C(=O)[O-] (protonated)
C=C(Cc1ccc(C(=O)[N-]c2ccccc2N2CCOCC2)cc1)C(=O)[O-] (3D coordinates assigned)
C=C(Cc1ccc(C(=O)[N-]c2ccccc2N2CCOCC2)cc1)C(=O)[O-] (nonaromatic ring conformer: 59.65099813609302 kcal/mol)

>  <smiles>  (91) 
C=C(Cc1ccc(C(=O)Nc2ccccc2N2CCOCC2)cc1)C(=O)O

>  <score_type>  (91) 
oracle

>  <origin>  (91) 
adg

>  <m_score__min__energy>  (91) 
-12.119999999999999

>  <m_primary>  (91) 
energy

$$$$
91:0
     RDKit          3D

 66 70  0  0  0  0  0  0  0  0999 V2000
   61.9340   29.3240   50.5410 O   0  0  0  0  0  0  0  0  0  0  0  0
   60.7840   29.1880   50.0470 C   0  0  0  0  0  0  0  0  0  0  0  0
   59.8010   30.2220   50.1920 N   0  0  0  0  0  0  0  0  0  0  0  0
   59.7270   31.4410   49.4370 C   0  0  0  0  0  0  0  0  0  0  0  0
   59.7910   32.6590   50.1220 C   0  0  0  0  0  0  0  0  0  0  0  0
   59.7230   33.8670   49.4230 C   0  0  0  0  0  0  0  0  0  0  0  0
   59.5650   33.8670   48.0350 C   0  0  0  0  0  0  0  0  0  0  0  0
   59.4480   32.6550   47.3360 C   0  0  0  0  0  0  0  0  0  0  0  0
   59.2480   32.6500   45.8390 C   0  0  0  0  0  0  0  0  0  0  0  0
   58.1890   31.6560   45.4320 C   0  0  0  0  0  0  0  0  0  0  0  0
   56.9410   32.1300   45.1620 N   0  0  0  0  0  0  0  0  0  0  0  0
   55.9430   31.3310   44.7880 N   0  0  0  0  0  0  0  0  0  0  0  0
   56.1170   29.9930   44.6510 C   0  0  0  0  0  0  0  0  0  0  0  0
   55.1410   29.2730   44.3110 O   0  0  0  0  0  0  0  0  0  0  0  0
   57.3810   29.4340   44.8910 C   0  0  0  0  0  0  0  0  0  0  0  0
   58.4370   30.2720   45.2840 C   0  0  0  0  0  0  0  0  0  0  0  0
   59.7690   29.6200   45.5790 C   0  0  0  0  0  0  0  0  0  0  0  0
   60.1270   28.6060   44.4800 C   0  0  0  0  0  0  0  0  0  0  0  0
   58.9660   27.6550   44.0880 C   0  0  0  0  0  0  0  0  0  0  0  0
   57.6340   27.9470   44.7990 C   0  0  0  0  0  0  0  0  0  0  0  0
   59.5400   31.4430   48.0420 C   0  0  0  0  0  0  0  0  0  0  0  0
   60.4170   27.9310   49.3770 C   0  0  0  0  0  0  0  0  0  0  0  0
   61.1130   26.9000   49.5820 O   0  0  0  0  0  0  0  0  0  0  0  0
   59.2610   27.8690   48.5250 N   0  0  0  0  0  0  0  0  0  0  0  0
   59.0090   26.8110   47.5840 C   0  0  0  0  0  0  0  0  0  0  0  0
   60.0870   26.2330   46.8950 C   0  0  0  0  0  0  0  0  0  0  0  0
   59.8740   25.1800   46.0010 C   0  0  0  0  0  0  0  0  0  0  0  0
   58.5830   24.6850   45.7960 C   0  0  0  0  0  0  0  0  0  0  0  0
   57.4990   25.2390   46.4890 C   0  0  0  0  0  0  0  0  0  0  0  0
   55.8820   24.5690   46.2760 S   0  0  0  0  0  0  0  0  0  0  0  0
   55.4190   23.9470   47.5650 O   0  0  0  0  0  0  0  0  0  0  0  0
   54.9370   25.6820   45.9170 O   0  0  0  0  0  0  0  0  0  0  0  0
   55.9040   23.3780   45.0000 N   0  0  0  0  0  0  0  0  0  0  0  0
   56.3240   24.0050   43.7340 C   0  0  0  0  0  0  0  0  0  0  0  0
   56.6350   22.9370   42.6660 C   0  0  0  0  0  0  0  0  0  0  0  0
   56.1560   21.6670   43.0650 O   0  0  0  0  0  0  0  0  0  0  0  0
   56.8520   21.2350   44.2220 C   0  0  0  0  0  0  0  0  0  0  0  0
   56.8180   22.2830   45.3540 C   0  0  0  0  0  0  0  0  0  0  0  0
   57.7150   26.2920   47.3900 C   0  0  0  0  0  0  0  0  0  0  0  0
   59.8954   32.6658   51.2170 H   0  0  0  0  0  0  0  0  0  0  0  0
   59.7941   34.8204   49.9671 H   0  0  0  0  0  0  0  0  0  0  0  0
   59.5321   34.8205   47.4875 H   0  0  0  0  0  0  0  0  0  0  0  0
   58.9398   33.6550   45.5151 H   0  0  0  0  0  0  0  0  0  0  0  0
   60.1967   32.3620   45.3625 H   0  0  0  0  0  0  0  0  0  0  0  0
   60.5489   30.3944   45.6251 H   0  0  0  0  0  0  0  0  0  0  0  0
   59.7015   29.0923   46.5418 H   0  0  0  0  0  0  0  0  0  0  0  0
   60.4336   29.1638   43.5829 H   0  0  0  0  0  0  0  0  0  0  0  0
   60.9306   27.9730   44.8843 H   0  0  0  0  0  0  0  0  0  0  0  0
   58.8026   27.7412   43.0036 H   0  0  0  0  0  0  0  0  0  0  0  0
   59.2711   26.6448   44.3983 H   0  0  0  0  0  0  0  0  0  0  0  0
   56.8149   27.4775   44.2345 H   0  0  0  0  0  0  0  0  0  0  0  0
   57.6851   27.5375   45.8187 H   0  0  0  0  0  0  0  0  0  0  0  0
   59.4653   30.4887   47.5000 H   0  0  0  0  0  0  0  0  0  0  0  0
   58.5280   28.6040   48.6390 H   0  0  0  0  0  0  0  0  0  0  0  0
   61.1066   26.6116   47.0599 H   0  0  0  0  0  0  0  0  0  0  0  0
   60.7235   24.7402   45.4580 H   0  0  0  0  0  0  0  0  0  0  0  0
   58.4179   23.8586   45.0890 H   0  0  0  0  0  0  0  0  0  0  0  0
   55.5151   24.6547   43.3684 H   0  0  0  0  0  0  0  0  0  0  0  0
   57.2356   24.5923   43.9188 H   0  0  0  0  0  0  0  0  0  0  0  0
   56.1519   23.2228   41.7200 H   0  0  0  0  0  0  0  0  0  0  0  0
   57.7259   22.8760   42.5384 H   0  0  0  0  0  0  0  0  0  0  0  0
   56.3892   20.3061   44.5865 H   0  0  0  0  0  0  0  0  0  0  0  0
   57.9040   21.0779   43.9416 H   0  0  0  0  0  0  0  0  0  0  0  0
   56.4713   21.8051   46.2821 H   0  0  0  0  0  0  0  0  0  0  0  0
   57.8295   22.6903   45.4985 H   0  0  0  0  0  0  0  0  0  0  0  0
   56.8673   26.7152   47.9489 H   0  0  0  0  0  0  0  0  0  0  0  0
  1  2  2  0
  2  3  1  0
  3  4  1  0
  4  5  2  0
  5  6  1  0
  6  7  2  0
  7  8  1  0
  8  9  1  0
  9 10  1  0
 10 11  2  0
 11 12  1  0
 12 13  1  0
 13 14  2  0
 13 15  1  0
 15 16  2  0
 16 17  1  0
 17 18  1  0
 18 19  1  0
 19 20  1  0
  8 21  2  0
  2 22  1  0
 22 23  2  0
 22 24  1  0
 24 25  1  0
 25 26  2  0
 26 27  1  0
 27 28  2  0
 28 29  1  0
 29 30  1  0
 30 31  2  0
 30 32  2  0
 30 33  1  0
 33 34  1  0
 34 35  1  0
 35 36  1  0
 36 37  1  0
 37 38  1  0
 29 39  2  0
 21  4  1  0
 39 25  1  0
 16 10  1  0
 38 33  1  0
 20 15  1  0
  5 40  1  0
  6 41  1  0
  7 42  1  0
  9 43  1  0
  9 44  1  0
 17 45  1  0
 17 46  1  0
 18 47  1  0
 18 48  1  0
 19 49  1  0
 19 50  1  0
 20 51  1  0
 20 52  1  0
 21 53  1  0
 24 54  1  0
 26 55  1  0
 27 56  1  0
 28 57  1  0
 34 58  1  0
 34 59  1  0
 35 60  1  0
 35 61  1  0
 37 62  1  0
 37 63  1  0
 38 64  1  0
 38 65  1  0
 39 66  1  0
M  CHG  2   3  -1  12  -1
M  END
>  <UniqueID>  (92) 
87

>  <SMILES>  (92) 
O=C([N-]c1cccc(Cc2n[n-]c(=O)c3c2CCCC3)c1)C(=O)Nc1cccc(S(=O)(=O)N2CCOCC2)c1

>  <Energy>  (92) 
90.85267930032863

>  <Genealogy>  (92) 
O=C([N-]c1cccc(Cc2n[n-]c(=O)c3c2CCCC3)c1)C(=O)Nc1cccc(S(=O)(=O)N2CCOCC2)c1 (protonated)
O=C([N-]c1cccc(Cc2n[n-]c(=O)c3c2CCCC3)c1)C(=O)Nc1cccc(S(=O)(=O)N2CCOCC2)c1 (3D coordinates assigned)
O=C([N-]c1cccc(Cc2n[n-]c(=O)c3c2CCCC3)c1)C(=O)Nc1cccc(S(=O)(=O)N2CCOCC2)c1 (nonaromatic ring conformer: 90.85267930032863 kcal/mol)

>  <smiles>  (92) 
O=C(Nc1cccc(Cc2n[nH]c(=O)c3c2CCCC3)c1)C(=O)Nc1cccc(S(=O)(=O)N2CCOCC2)c1

>  <score_type>  (92) 
oracle

>  <origin>  (92) 
adg

>  <m_score__min__energy>  (92) 
-15.65

>  <m_primary>  (92) 
energy

$$$$
92:0
     RDKit          3D

 50 53  0  0  0  0  0  0  0  0999 V2000
   58.4802   32.0130   47.7292 H   0  0  0  0  0  0  0  0  0  0  0  0
   58.2350   32.2200   46.6770 C   0  0  0  0  0  0  0  0  0  0  0  0
   57.3950   31.3920   46.0010 N   0  0  0  0  0  0  0  0  0  0  0  0
   57.0650   31.6090   44.6970 C   0  0  0  0  0  0  0  0  0  0  0  0
   56.2580   30.8050   44.0710 N   0  0  0  0  0  0  0  0  0  0  0  0
   56.1210   29.3820   44.3710 C   0  0  0  0  0  0  0  0  0  0  0  0
   55.9070   29.2555   45.4425 H   0  0  0  0  0  0  0  0  0  0  0  0
   55.2972   28.9665   43.7720 H   0  0  0  0  0  0  0  0  0  0  0  0
   57.4140   28.6420   44.0230 C   0  0  0  0  0  0  0  0  0  0  0  0
   57.1824   27.5823   43.8402 H   0  0  0  0  0  0  0  0  0  0  0  0
   57.8487   29.1057   43.1252 H   0  0  0  0  0  0  0  0  0  0  0  0
   58.4180   28.7390   45.1420 C   0  0  0  0  0  0  0  0  0  0  0  0
   59.6780   29.3190   44.9140 C   0  0  0  0  0  0  0  0  0  0  0  0
   59.9405   29.6808   43.9089 H   0  0  0  0  0  0  0  0  0  0  0  0
   60.5990   29.4380   45.9590 C   0  0  0  0  0  0  0  0  0  0  0  0
   61.5861   29.8866   45.7734 H   0  0  0  0  0  0  0  0  0  0  0  0
   60.2660   28.9870   47.2400 C   0  0  0  0  0  0  0  0  0  0  0  0
   60.9921   29.0792   48.0611 H   0  0  0  0  0  0  0  0  0  0  0  0
   59.0110   28.4190   47.4780 C   0  0  0  0  0  0  0  0  0  0  0  0
   58.7495   28.0670   48.4868 H   0  0  0  0  0  0  0  0  0  0  0  0
   58.0880   28.2980   46.4350 C   0  0  0  0  0  0  0  0  0  0  0  0
   57.0993   27.8558   46.6271 H   0  0  0  0  0  0  0  0  0  0  0  0
   57.6020   32.7100   44.0210 C   0  0  0  0  0  0  0  0  0  0  0  0
   57.3446   32.8937   42.9674 H   0  0  0  0  0  0  0  0  0  0  0  0
   58.4670   33.5730   44.6950 C   0  0  0  0  0  0  0  0  0  0  0  0
   58.8962   34.4401   44.1717 H   0  0  0  0  0  0  0  0  0  0  0  0
   58.7890   33.3360   46.0370 C   0  0  0  0  0  0  0  0  0  0  0  0
   59.9000   34.4080   46.8880 S   0  0  0  0  0  0  0  0  0  0  0  0
   59.2490   34.8900   48.1550 O   0  0  0  0  0  0  0  0  0  0  0  0
   60.1830   35.5900   46.0030 O   0  0  0  0  0  0  0  0  0  0  0  0
   61.3920   33.5880   47.2760 N   0  0  0  0  0  0  0  0  0  0  0  0
   61.4820   32.6910   48.4150 C   0  0  0  0  0  0  0  0  0  0  0  0
   60.3280   32.1790   49.0450 C   0  0  0  0  0  0  0  0  0  0  0  0
   59.3327   32.4532   48.6652 H   0  0  0  0  0  0  0  0  0  0  0  0
   60.4380   31.3260   50.1480 C   0  0  0  0  0  0  0  0  0  0  0  0
   59.5306   30.9365   50.6326 H   0  0  0  0  0  0  0  0  0  0  0  0
   61.6940   30.9680   50.6350 C   0  0  0  0  0  0  0  0  0  0  0  0
   61.7759   30.3091   51.5120 H   0  0  0  0  0  0  0  0  0  0  0  0
   62.8460   31.4440   50.0120 C   0  0  0  0  0  0  0  0  0  0  0  0
   63.8352   31.1583   50.3993 H   0  0  0  0  0  0  0  0  0  0  0  0
   62.7510   32.2860   48.8930 C   0  0  0  0  0  0  0  0  0  0  0  0
   64.0040   32.7950   48.2360 C   0  0  0  0  0  0  0  0  0  0  0  0
   64.8044   32.0498   48.3549 H   0  0  0  0  0  0  0  0  0  0  0  0
   64.2974   33.7426   48.7113 H   0  0  0  0  0  0  0  0  0  0  0  0
   63.7610   33.0400   46.7490 C   0  0  0  0  0  0  0  0  0  0  0  0
   63.5174   32.0858   46.2589 H   0  0  0  0  0  0  0  0  0  0  0  0
   64.6700   33.4706   46.3036 H   0  0  0  0  0  0  0  0  0  0  0  0
   62.6010   34.0170   46.5560 C   0  0  0  0  0  0  0  0  0  0  0  0
   62.3694   34.0854   45.4828 H   0  0  0  0  0  0  0  0  0  0  0  0
   62.9084   34.9927   46.9604 H   0  0  0  0  0  0  0  0  0  0  0  0
  1  2  1  0
  2  3  1  0
  3  4  1  0
  4  5  2  0
  5  6  1  0
  6  7  1  0
  6  8  1  0
  6  9  1  0
  9 10  1  0
  9 11  1  0
  9 12  1  0
 12 13  2  0
 13 14  1  0
 13 15  1  0
 15 16  1  0
 15 17  2  0
 17 18  1  0
 17 19  1  0
 19 20  1  0
 19 21  2  0
 21 22  1  0
  4 23  1  0
 23 24  1  0
 23 25  2  0
 25 26  1  0
 25 27  1  0
 27 28  1  0
 28 29  2  0
 28 30  2  0
 28 31  1  0
 31 32  1  0
 32 33  2  0
 33 34  1  0
 33 35  1  0
 35 36  1  0
 35 37  2  0
 37 38  1  0
 37 39  1  0
 39 40  1  0
 39 41  2  0
 41 42  1  0
 42 43  1  0
 42 44  1  0
 42 45  1  0
 45 46  1  0
 45 47  1  0
 45 48  1  0
 48 49  1  0
 48 50  1  0
 27  2  2  0
 48 31  1  0
 21 12  1  0
 41 32  1  0
M  CHG  1   3  -1
M  END
>  <UniqueID>  (93) 
88

>  <SMILES>  (93) 
O=S(=O)(c1cc/c(=N/CCc2ccccc2)[n-]c1)N1CCCc2ccccc21

>  <Energy>  (93) 
55.1469668412168

>  <Genealogy>  (93) 
O=S(=O)(c1ccc(=NCCc2ccccc2)[n-]c1)N1CCCc2ccccc21 (protonated)
O=S(=O)(c1cc/c(=N/CCc2ccccc2)[n-]c1)N1CCCc2ccccc21 (cis-trans isomerization)
O=S(=O)(c1cc/c(=N/CCc2ccccc2)[n-]c1)N1CCCc2ccccc21 (3D coordinates assigned)
O=S(=O)(c1cc/c(=N/CCc2ccccc2)[n-]c1)N1CCCc2ccccc21 (nonaromatic ring conformer: 55.1469668412168 kcal/mol)

>  <smiles>  (93) 
O=S(=O)(c1ccc(=NCCc2ccccc2)[nH]c1)N1CCCc2ccccc21

>  <score_type>  (93) 
oracle

>  <origin>  (93) 
adg

>  <m_score__min__energy>  (93) 
-10.99

>  <m_primary>  (93) 
energy

$$$$
93:0
     RDKit          3D

 49 52  0  0  0  0  0  0  0  0999 V2000
   54.0510   29.8700   54.7700 C   0  0  0  0  0  0  0  0  0  0  0  0
   54.5460   30.0990   53.5450 C   0  0  0  0  0  0  0  0  0  0  0  0
   53.8260   30.3990   52.3880 C   0  0  0  0  0  0  0  0  0  0  0  0
   52.4900   30.5170   52.2700 C   0  0  0  0  0  0  0  0  0  0  0  0
   51.8090   30.8720   51.0070 C   0  0  0  0  0  0  0  0  0  0  0  0
   51.7300   30.0910   49.9150 N   0  0  0  0  0  0  0  0  0  0  0  0
   51.0260   30.8420   49.0410 C   0  0  0  0  0  0  0  0  0  0  0  0
   50.7420   30.4460   47.8810 O   0  0  0  0  0  0  0  0  0  0  0  0
   50.6510   32.0520   49.5090 N   0  0  0  0  0  0  0  0  0  0  0  0
   51.1540   32.0550   50.7530 C   0  0  0  0  0  0  0  0  0  0  0  0
   51.0170   33.1160   51.6400 O   0  0  0  0  0  0  0  0  0  0  0  0
   54.6860   30.5610   51.3580 N   0  0  0  0  0  0  0  0  0  0  0  0
   55.8990   30.3570   51.9050 C   0  0  0  0  0  0  0  0  0  0  0  0
   56.9650   30.4180   51.2350 O   0  0  0  0  0  0  0  0  0  0  0  0
   55.8630   30.0800   53.2260 N   0  0  0  0  0  0  0  0  0  0  0  0
   57.0130   29.7380   54.0740 C   0  0  0  0  0  0  0  0  0  0  0  0
   57.9970   30.8780   54.1020 C   0  0  0  0  0  0  0  0  0  0  0  0
   57.8990   31.8690   55.0900 C   0  0  0  0  0  0  0  0  0  0  0  0
   58.7700   32.9600   55.0820 C   0  0  0  0  0  0  0  0  0  0  0  0
   59.7430   33.0750   54.0850 C   0  0  0  0  0  0  0  0  0  0  0  0
   59.8650   32.0870   53.0930 C   0  0  0  0  0  0  0  0  0  0  0  0
   60.8600   32.2340   52.0080 C   0  0  0  0  0  0  0  0  0  0  0  0
   61.5880   31.2550   51.6890 O   0  0  0  0  0  0  0  0  0  0  0  0
   61.0250   33.4870   51.3300 N   0  0  0  0  0  0  0  0  0  0  0  0
   62.3350   33.9510   50.8860 C   0  0  0  0  0  0  0  0  0  0  0  0
   62.4370   33.8200   49.3910 C   0  0  0  0  0  0  0  0  0  0  0  0
   63.6500   33.4210   48.8040 C   0  0  0  0  0  0  0  0  0  0  0  0
   63.7350   33.2350   47.4200 C   0  0  0  0  0  0  0  0  0  0  0  0
   62.6100   33.4330   46.6170 C   0  0  0  0  0  0  0  0  0  0  0  0
   61.3960   33.8190   47.1960 C   0  0  0  0  0  0  0  0  0  0  0  0
   61.3080   34.0090   48.5790 C   0  0  0  0  0  0  0  0  0  0  0  0
   58.9860   30.9890   53.1110 C   0  0  0  0  0  0  0  0  0  0  0  0
   54.7309   29.6424   55.6042 H   0  0  0  0  0  0  0  0  0  0  0  0
   52.9650   29.9098   54.9407 H   0  0  0  0  0  0  0  0  0  0  0  0
   51.8715   30.3395   53.1622 H   0  0  0  0  0  0  0  0  0  0  0  0
   56.6626   29.5355   55.0968 H   0  0  0  0  0  0  0  0  0  0  0  0
   57.5089   28.8463   53.6630 H   0  0  0  0  0  0  0  0  0  0  0  0
   57.1324   31.7861   55.8745 H   0  0  0  0  0  0  0  0  0  0  0  0
   58.6904   33.7312   55.8623 H   0  0  0  0  0  0  0  0  0  0  0  0
   60.4173   33.9441   54.0768 H   0  0  0  0  0  0  0  0  0  0  0  0
   60.2150   34.1440   51.2590 H   0  0  0  0  0  0  0  0  0  0  0  0
   62.4657   35.0054   51.1708 H   0  0  0  0  0  0  0  0  0  0  0  0
   63.1183   33.3415   51.3603 H   0  0  0  0  0  0  0  0  0  0  0  0
   64.5356   33.2544   49.4349 H   0  0  0  0  0  0  0  0  0  0  0  0
   64.6892   32.9324   46.9639 H   0  0  0  0  0  0  0  0  0  0  0  0
   62.6781   33.2855   45.5291 H   0  0  0  0  0  0  0  0  0  0  0  0
   60.5098   33.9732   46.5628 H   0  0  0  0  0  0  0  0  0  0  0  0
   60.3509   34.3075   49.0316 H   0  0  0  0  0  0  0  0  0  0  0  0
   59.0742   30.2088   52.3406 H   0  0  0  0  0  0  0  0  0  0  0  0
  1  2  2  0
  2  3  1  0
  3  4  2  3
  4  5  1  0
  5  6  1  0
  6  7  1  0
  7  8  2  0
  7  9  1  0
  9 10  1  0
 10 11  1  0
  3 12  1  0
 12 13  1  0
 13 14  2  0
 13 15  1  0
 15 16  1  0
 16 17  1  0
 17 18  2  0
 18 19  1  0
 19 20  2  0
 20 21  1  0
 21 22  1  0
 22 23  2  0
 22 24  1  0
 24 25  1  0
 25 26  1  0
 26 27  2  0
 27 28  1  0
 28 29  2  0
 29 30  1  0
 30 31  2  0
 21 32  2  0
 15  2  1  0
 32 17  1  0
 10  5  2  0
 31 26  1  0
  1 33  1  0
  1 34  1  0
  4 35  1  0
 16 36  1  0
 16 37  1  0
 18 38  1  0
 19 39  1  0
 20 40  1  0
 24 41  1  0
 25 42  1  0
 25 43  1  0
 27 44  1  0
 28 45  1  0
 29 46  1  0
 30 47  1  0
 31 48  1  0
 32 49  1  0
M  CHG  4   6  -1   9  -1  11  -1  12  -1
M  END
>  <UniqueID>  (94) 
89

>  <SMILES>  (94) 
C=c1c(=Cc2[n-]c(=O)[n-]c2[O-])[n-]c(=O)n1Cc1cccc(C(=O)NCc2ccccc2)c1

>  <Energy>  (94) 
115.9886213698172

>  <Genealogy>  (94) 
C=c1c(=Cc2[n-]c(=O)[n-]c2[O-])[n-]c(=O)n1Cc1cccc(C(=O)NCc2ccccc2)c1 (protonated)
C=c1c(=Cc2[n-]c(=O)[n-]c2[O-])[n-]c(=O)n1Cc1cccc(C(=O)NCc2ccccc2)c1 (3D coordinates assigned)
C=c1c(=Cc2[n-]c(=O)[n-]c2[O-])[n-]c(=O)n1Cc1cccc(C(=O)NCc2ccccc2)c1 (optimized conformer: 115.9886213698172 kcal/mol)

>  <smiles>  (94) 
C=c1c(=Cc2[nH]c(=O)[nH]c2O)[nH]c(=O)n1Cc1cccc(C(=O)NCc2ccccc2)c1

>  <score_type>  (94) 
oracle

>  <origin>  (94) 
adg

>  <m_score__min__energy>  (94) 
-18.890000000000001

>  <m_primary>  (94) 
energy

$$$$
