0:0
     RDKit          3D

 50 52  0  0  0  0  0  0  0  0999 V2000
   54.9330   26.3390   45.9940 N   0  0  0  0  0  0  0  0  0  0  0  0
   56.4210   25.5020   46.2580 S   0  0  0  0  0  0  0  0  0  0  0  0
   56.3760   24.8310   47.6030 O   0  0  0  0  0  0  0  0  0  0  0  0
   56.6040   24.4560   45.1970 O   0  0  0  0  0  0  0  0  0  0  0  0
   57.7580   26.6470   46.1890 C   0  0  0  0  0  0  0  0  0  0  0  0
   58.9980   26.3430   46.7680 C   0  0  0  0  0  0  0  0  0  0  0  0
   60.0370   27.2780   46.7330 C   0  0  0  0  0  0  0  0  0  0  0  0
   59.8450   28.5180   46.1180 C   0  0  0  0  0  0  0  0  0  0  0  0
   58.6150   28.8310   45.5160 C   0  0  0  0  0  0  0  0  0  0  0  0
   58.4350   30.1320   44.9240 N   0  0  0  0  0  0  0  0  0  0  0  0
   57.1580   30.7610   44.7220 C   0  0  0  0  0  0  0  0  0  0  0  0
   56.0970   30.0820   44.7590 O   0  0  0  0  0  0  0  0  0  0  0  0
   57.0870   32.2060   44.3230 C   0  0  0  0  0  0  0  0  0  0  0  0
   58.4210   32.7950   44.2290 N   0  0  0  0  0  0  0  0  0  0  0  0
   58.9200   33.8330   45.0840 C   0  0  0  0  0  0  0  0  0  0  0  0
   59.2280   34.9460   44.5830 O   0  0  0  0  0  0  0  0  0  0  0  0
   59.0500   33.6380   46.5340 C   0  0  0  0  0  0  0  0  0  0  0  0
   58.4940   32.5090   47.1460 C   0  0  0  0  0  0  0  0  0  0  0  0
   58.5790   32.3440   48.5310 C   0  0  0  0  0  0  0  0  0  0  0  0
   59.2490   33.2950   49.3150 C   0  0  0  0  0  0  0  0  0  0  0  0
   59.3410   33.1020   51.0650 S   0  0  0  0  0  0  0  0  0  0  0  0
   59.0140   34.4100   51.7290 O   0  0  0  0  0  0  0  0  0  0  0  0
   58.3380   32.0880   51.5350 O   0  0  0  0  0  0  0  0  0  0  0  0
   60.9520   32.6530   51.5330 N   0  0  0  0  0  0  0  0  0  0  0  0
   62.1410   32.6820   50.7270 C   0  0  0  0  0  0  0  0  0  0  0  0
   63.2300   33.5290   51.0110 C   0  0  0  0  0  0  0  0  0  0  0  0
   64.3640   33.5160   50.1920 C   0  0  0  0  0  0  0  0  0  0  0  0
   64.4220   32.6670   49.0850 C   0  0  0  0  0  0  0  0  0  0  0  0
   63.3430   31.8290   48.7890 C   0  0  0  0  0  0  0  0  0  0  0  0
   62.2080   31.8360   49.6070 C   0  0  0  0  0  0  0  0  0  0  0  0
   61.1690   31.0170   49.3090 F   0  0  0  0  0  0  0  0  0  0  0  0
   59.8410   34.4050   48.6940 C   0  0  0  0  0  0  0  0  0  0  0  0
   59.7400   34.5760   47.3100 C   0  0  0  0  0  0  0  0  0  0  0  0
   57.5700   27.8890   45.5660 C   0  0  0  0  0  0  0  0  0  0  0  0
   55.1410   27.3610   46.0660 H   0  0  0  0  0  0  0  0  0  0  0  0
   59.1539   25.3670   47.2508 H   0  0  0  0  0  0  0  0  0  0  0  0
   61.0078   27.0369   47.1906 H   0  0  0  0  0  0  0  0  0  0  0  0
   60.6625   29.2539   46.1052 H   0  0  0  0  0  0  0  0  0  0  0  0
   59.2740   30.6070   44.5240 H   0  0  0  0  0  0  0  0  0  0  0  0
   56.5907   32.2839   43.3444 H   0  0  0  0  0  0  0  0  0  0  0  0
   56.5189   32.7516   45.0909 H   0  0  0  0  0  0  0  0  0  0  0  0
   57.9877   31.7480   46.5340 H   0  0  0  0  0  0  0  0  0  0  0  0
   58.1192   31.4658   49.0079 H   0  0  0  0  0  0  0  0  0  0  0  0
   63.1886   34.2028   51.8795 H   0  0  0  0  0  0  0  0  0  0  0  0
   65.2130   34.1769   50.4209 H   0  0  0  0  0  0  0  0  0  0  0  0
   65.3170   32.6576   48.4456 H   0  0  0  0  0  0  0  0  0  0  0  0
   63.3863   31.1645   47.9135 H   0  0  0  0  0  0  0  0  0  0  0  0
   60.3871   35.1441   49.2986 H   0  0  0  0  0  0  0  0  0  0  0  0
   60.2041   35.4501   46.8299 H   0  0  0  0  0  0  0  0  0  0  0  0
   56.5972   28.1295   45.1122 H   0  0  0  0  0  0  0  0  0  0  0  0
  1  2  1  0
  2  3  2  0
  2  4  2  0
  2  5  1  0
  5  6  2  0
  6  7  1  0
  7  8  2  0
  8  9  1  0
  9 10  1  0
 10 11  1  0
 11 12  2  0
 11 13  1  0
 13 14  1  0
 14 15  1  0
 15 16  2  0
 15 17  1  0
 17 18  2  0
 18 19  1  0
 19 20  2  0
 20 21  1  0
 21 22  2  0
 21 23  2  0
 21 24  1  0
 24 25  1  0
 25 26  2  0
 26 27  1  0
 27 28  2  0
 28 29  1  0
 29 30  2  0
 30 31  1  0
 20 32  1  0
 32 33  2  0
  9 34  2  0
 34  5  1  0
 33 17  1  0
 30 25  1  0
  1 35  1  0
  6 36  1  0
  7 37  1  0
  8 38  1  0
 10 39  1  0
 13 40  1  0
 13 41  1  0
 18 42  1  0
 19 43  1  0
 26 44  1  0
 27 45  1  0
 28 46  1  0
 29 47  1  0
 32 48  1  0
 33 49  1  0
 34 50  1  0
M  CHG  3   1  -1  14  -1  24  -1
M  END
>  <UniqueID>  (1) 
1

>  <SMILES>  (1) 
[NH-]S(=O)(=O)c1cccc(NC(=O)C[N-]C(=O)c2ccc(S(=O)(=O)[N-]c3ccccc3F)cc2)c1

>  <Energy>  (1) 
63.97404032701518

>  <Genealogy>  (1) 
[NH-]S(=O)(=O)c1cccc(NC(=O)C[N-]C(=O)c2ccc(S(=O)(=O)[N-]c3ccccc3F)cc2)c1 (protonated)
[NH-]S(=O)(=O)c1cccc(NC(=O)C[N-]C(=O)c2ccc(S(=O)(=O)[N-]c3ccccc3F)cc2)c1 (3D coordinates assigned)
[NH-]S(=O)(=O)c1cccc(NC(=O)C[N-]C(=O)c2ccc(S(=O)(=O)[N-]c3ccccc3F)cc2)c1 (optimized conformer: 63.97404032701518 kcal/mol)

>  <smiles>  (1) 
NS(=O)(=O)c1cccc(NC(=O)CNC(=O)c2ccc(S(=O)(=O)Nc3ccccc3F)cc2)c1

>  <score_type>  (1) 
oracle

>  <origin>  (1) 
adg

>  <m_score__min__energy>  (1) 
-15.4

>  <m_primary>  (1) 
energy

$$$$
1:0
     RDKit          3D

 47 49  0  0  0  0  0  0  0  0999 V2000
   53.6256   32.2531   50.8536 H   0  0  0  0  0  0  0  0  0  0  0  0
   53.1010   31.5000   51.4600 C   0  0  0  0  0  0  0  0  0  0  0  0
   53.8060   30.4150   51.9890 C   0  0  0  0  0  0  0  0  0  0  0  0
   54.8858   30.3206   51.8019 H   0  0  0  0  0  0  0  0  0  0  0  0
   53.1430   29.4450   52.7580 C   0  0  0  0  0  0  0  0  0  0  0  0
   53.8800   28.2250   53.2490 C   0  0  0  0  0  0  0  0  0  0  0  0
   54.6997   27.9974   52.5516 H   0  0  0  0  0  0  0  0  0  0  0  0
   53.1677   27.3884   53.3012 H   0  0  0  0  0  0  0  0  0  0  0  0
   54.4670   28.4500   54.6560 C   0  0  2  0  0  0  0  0  0  0  0  0
   54.7514   27.4731   55.0741 H   0  0  0  0  0  0  0  0  0  0  0  0
   53.4420   29.0860   55.5520 C   0  0  0  0  0  0  0  0  0  0  0  0
   53.5920   30.2710   55.9570 O   0  0  0  0  0  0  0  0  0  0  0  0
   52.3040   28.3790   55.9160 O   0  0  0  0  0  0  0  0  0  0  0  0
   55.6600   29.2990   54.5830 N   0  0  0  0  0  0  0  0  0  0  0  0
   55.5810   30.2960   54.8900 H   0  0  0  0  0  0  0  0  0  0  0  0
   56.8020   28.9420   53.7940 C   0  0  0  0  0  0  0  0  0  0  0  0
   57.0000   27.7370   53.4770 O   0  0  0  0  0  0  0  0  0  0  0  0
   57.7030   29.9750   53.3680 N   0  0  0  0  0  0  0  0  0  0  0  0
   57.9670   30.3230   52.1430 C   0  0  0  0  0  0  0  0  0  0  0  0
   58.2850   29.4050   51.1970 N   0  0  0  0  0  0  0  0  0  0  0  0
   58.5620   30.0060   50.0120 C   0  0  0  0  0  0  0  0  0  0  0  0
   58.9260   29.3260   48.8520 C   0  0  0  0  0  0  0  0  0  0  0  0
   59.0025   28.2287   48.8476 H   0  0  0  0  0  0  0  0  0  0  0  0
   59.1940   30.0660   47.6870 C   0  0  0  0  0  0  0  0  0  0  0  0
   59.4838   29.5428   46.7638 H   0  0  0  0  0  0  0  0  0  0  0  0
   59.0940   31.4830   47.6910 C   0  0  0  0  0  0  0  0  0  0  0  0
   59.3520   32.2650   46.5530 O   0  0  0  0  0  0  0  0  0  0  0  0
   59.3420   33.6920   46.5040 C   0  0  0  0  0  0  0  0  0  0  0  0
   60.0166   34.0276   45.7026 H   0  0  0  0  0  0  0  0  0  0  0  0
   59.6755   34.0749   47.4798 H   0  0  0  0  0  0  0  0  0  0  0  0
   57.9330   34.2310   46.2290 C   0  0  0  0  0  0  0  0  0  0  0  0
   57.9526   35.3288   46.2958 H   0  0  0  0  0  0  0  0  0  0  0  0
   57.2509   33.8010   46.9772 H   0  0  0  0  0  0  0  0  0  0  0  0
   57.4310   33.8290   44.8430 C   0  0  0  0  0  0  0  0  0  0  0  0
   56.5762   33.1445   44.9469 H   0  0  0  0  0  0  0  0  0  0  0  0
   57.1163   34.7276   44.2921 H   0  0  0  0  0  0  0  0  0  0  0  0
   58.2391   33.3255   44.2921 H   0  0  0  0  0  0  0  0  0  0  0  0
   58.7310   32.1470   48.8760 C   0  0  0  0  0  0  0  0  0  0  0  0
   58.6534   33.2439   48.9036 H   0  0  0  0  0  0  0  0  0  0  0  0
   58.4720   31.3880   50.0130 C   0  0  0  0  0  0  0  0  0  0  0  0
   58.0300   31.9130   51.5440 S   0  0  0  0  0  0  0  0  0  0  0  0
   51.7630   29.5800   52.9920 C   0  0  0  0  0  0  0  0  0  0  0  0
   51.2325   28.8234   53.5887 H   0  0  0  0  0  0  0  0  0  0  0  0
   51.0620   30.6710   52.4700 C   0  0  0  0  0  0  0  0  0  0  0  0
   49.9844   30.7757   52.6646 H   0  0  0  0  0  0  0  0  0  0  0  0
   51.7290   31.6290   51.7010 C   0  0  0  0  0  0  0  0  0  0  0  0
   51.0290   32.7070   51.1740 O   0  0  0  0  0  0  0  0  0  0  0  0
  1  2  1  0
  2  3  2  0
  3  4  1  0
  3  5  1  0
  5  6  1  0
  6  7  1  0
  6  8  1  0
  6  9  1  0
  9 10  1  1
  9 11  1  0
 11 12  2  0
 11 13  1  0
  9 14  1  0
 14 15  1  0
 14 16  1  0
 16 17  2  0
 16 18  1  0
 18 19  2  0
 19 20  1  0
 20 21  1  0
 21 22  2  0
 22 23  1  0
 22 24  1  0
 24 25  1  0
 24 26  2  0
 26 27  1  0
 27 28  1  0
 28 29  1  0
 28 30  1  0
 28 31  1  0
 31 32  1  0
 31 33  1  0
 31 34  1  0
 34 35  1  0
 34 36  1  0
 34 37  1  0
 26 38  1  0
 38 39  1  0
 38 40  2  0
 40 41  1  0
  5 42  2  0
 42 43  1  0
 42 44  1  0
 44 45  1  0
 44 46  2  0
 46 47  1  0
 46  2  1  0
 41 19  1  0
 40 21  1  0
M  CHG  3  13  -1  20  -1  47  -1
M  END
>  <UniqueID>  (2) 
2

>  <SMILES>  (2) 
CCCOc1ccc2[n-]/c(=N/C(=O)N[C@H](Cc3ccc([O-])cc3)C(=O)[O-])sc2c1

>  <Energy>  (2) 
77.92310819612464

>  <Genealogy>  (2) 
CCCOc1ccc2[n-]c(=NC(=O)NC(Cc3ccc([O-])cc3)C(=O)[O-])sc2c1 (protonated)
CCCOc1ccc2[n-]c(=NC(=O)N[C@H](Cc3ccc([O-])cc3)C(=O)[O-])sc2c1 (chirality)
CCCOc1ccc2[n-]/c(=N/C(=O)N[C@H](Cc3ccc([O-])cc3)C(=O)[O-])sc2c1 (cis-trans isomerization)
CCCOc1ccc2[n-]/c(=N/C(=O)N[C@H](Cc3ccc([O-])cc3)C(=O)[O-])sc2c1 (3D coordinates assigned)
CCCOc1ccc2[n-]/c(=N/C(=O)N[C@H](Cc3ccc([O-])cc3)C(=O)[O-])sc2c1 (optimized conformer: 77.92310819612464 kcal/mol)

>  <smiles>  (2) 
CCCOc1ccc2[nH]c(=NC(=O)NC(Cc3ccc(O)cc3)C(=O)O)sc2c1

>  <score_type>  (2) 
oracle

>  <origin>  (2) 
adg

>  <m_score__min__energy>  (2) 
-14.07

>  <m_primary>  (2) 
energy

$$$$
2:0
     RDKit          3D

 37 39  0  0  0  0  0  0  0  0999 V2000
   58.0450   31.9520   50.6030 C   0  0  0  0  0  0  0  0  0  0  0  0
   58.8400   31.5290   49.7900 C   0  0  0  0  0  0  0  0  0  0  0  0
   59.8000   31.0000   48.8210 C   0  0  0  0  0  0  0  0  0  0  0  0
   59.1400   30.8870   47.4630 C   0  0  0  0  0  0  0  0  0  0  0  0
   58.2310   32.0860   47.2300 C   0  0  0  0  0  0  0  0  0  0  0  0
   58.0940   32.2890   45.8080 N   0  0  0  0  0  0  0  0  0  0  0  0
   58.5700   33.3380   45.1100 C   0  0  0  0  0  0  0  0  0  0  0  0
   59.4730   34.7170   45.7710 S   0  0  0  0  0  0  0  0  0  0  0  0
   60.7310   34.1670   46.9370 C   0  0  0  0  0  0  0  0  0  0  0  0
   61.8840   33.6190   46.3890 C   0  0  0  0  0  0  0  0  0  0  0  0
   62.8820   33.1800   47.2330 C   0  0  0  0  0  0  0  0  0  0  0  0
   62.6850   33.3080   48.6030 C   0  0  0  0  0  0  0  0  0  0  0  0
   63.6960   32.8610   49.3980 F   0  0  0  0  0  0  0  0  0  0  0  0
   61.5230   33.8580   49.1260 C   0  0  0  0  0  0  0  0  0  0  0  0
   60.5120   34.3030   48.2700 C   0  0  0  0  0  0  0  0  0  0  0  0
   59.3700   34.8440   48.7670 F   0  0  0  0  0  0  0  0  0  0  0  0
   58.2520   33.1880   43.7910 N   0  0  0  0  0  0  0  0  0  0  0  0
   57.5680   32.0360   43.6420 C   0  0  0  0  0  0  0  0  0  0  0  0
   57.0160   31.4120   42.5400 C   0  0  0  0  0  0  0  0  0  0  0  0
   57.0910   31.9070   41.3570 N   0  0  0  0  0  0  0  0  0  0  0  0
   56.3760   30.2380   42.7030 N   0  0  0  0  0  0  0  0  0  0  0  0
   56.2830   29.6910   43.9440 C   0  0  0  0  0  0  0  0  0  0  0  0
   56.8270   30.3100   45.0240 N   0  0  0  0  0  0  0  0  0  0  0  0
   57.4820   31.4950   44.9040 C   0  0  0  0  0  0  0  0  0  0  0  0
   57.3242   32.3355   51.3401 H   0  0  0  0  0  0  0  0  0  0  0  0
   60.6634   31.6782   48.7532 H   0  0  0  0  0  0  0  0  0  0  0  0
   60.1382   30.0053   49.1470 H   0  0  0  0  0  0  0  0  0  0  0  0
   59.9141   30.8584   46.6820 H   0  0  0  0  0  0  0  0  0  0  0  0
   58.5415   29.9648   47.4256 H   0  0  0  0  0  0  0  0  0  0  0  0
   57.2431   31.8941   47.6740 H   0  0  0  0  0  0  0  0  0  0  0  0
   58.6634   32.9826   47.6981 H   0  0  0  0  0  0  0  0  0  0  0  0
   61.9990   33.5366   45.2981 H   0  0  0  0  0  0  0  0  0  0  0  0
   63.8080   32.7408   46.8334 H   0  0  0  0  0  0  0  0  0  0  0  0
   61.3977   33.9437   50.2155 H   0  0  0  0  0  0  0  0  0  0  0  0
   57.5180   32.8100   41.1230 H   0  0  0  0  0  0  0  0  0  0  0  0
   55.9640   29.7730   41.8690 H   0  0  0  0  0  0  0  0  0  0  0  0
   55.7593   28.7327   44.0757 H   0  0  0  0  0  0  0  0  0  0  0  0
  1  2  3  0
  2  3  1  0
  3  4  1  0
  4  5  1  0
  5  6  1  0
  6  7  1  0
  7  8  1  0
  8  9  1  0
  9 10  2  0
 10 11  1  0
 11 12  2  0
 12 13  1  0
 12 14  1  0
 14 15  2  0
 15 16  1  0
  7 17  2  0
 17 18  1  0
 18 19  1  0
 19 20  2  3
 19 21  1  0
 21 22  1  0
 22 23  2  0
 23 24  1  0
 24  6  1  0
 15  9  1  0
 24 18  2  0
  1 25  1  0
  3 26  1  0
  3 27  1  0
  4 28  1  0
  4 29  1  0
  5 30  1  0
  5 31  1  0
 10 32  1  0
 11 33  1  0
 14 34  1  0
 20 35  1  0
 21 36  1  0
 22 37  1  0
M  END
>  <smiles>  (3) 
C#CCCCn1c(Sc2ccc(F)cc2F)nc2c(=N)[nH]cnc21

>  <score_type>  (3) 
oracle

>  <origin>  (3) 
adg

>  <m_score__min__energy>  (3) 
-7.0599999999999996

>  <m_primary>  (3) 
energy

$$$$
3:0
     RDKit          3D

 34 35  0  0  0  0  0  0  0  0999 V2000
   61.5150   31.2300   47.8590 C   0  0  0  0  0  0  0  0  0  0  0  0
   60.7260   29.9370   48.0330 C   0  0  0  0  0  0  0  0  0  0  0  0
   60.8310   29.1230   46.8660 O   0  0  0  0  0  0  0  0  0  0  0  0
   60.1070   27.9380   46.6850 C   0  0  0  0  0  0  0  0  0  0  0  0
   60.6130   26.8320   47.0140 O   0  0  0  0  0  0  0  0  0  0  0  0
   58.7200   28.0090   46.1610 C   0  0  0  0  0  0  0  0  0  0  0  0
   57.8500   26.9710   46.5180 C   0  0  0  0  0  0  0  0  0  0  0  0
   56.5460   26.9850   46.0450 C   0  0  0  0  0  0  0  0  0  0  0  0
   55.7540   26.0530   46.3500 O   0  0  0  0  0  0  0  0  0  0  0  0
   56.1270   28.0010   45.2530 N   0  0  0  0  0  0  0  0  0  0  0  0
   56.9600   29.0230   44.9170 C   0  0  0  0  0  0  0  0  0  0  0  0
   56.5180   29.9480   44.1810 O   0  0  0  0  0  0  0  0  0  0  0  0
   58.2620   29.0450   45.3690 N   0  0  0  0  0  0  0  0  0  0  0  0
   59.1210   30.2060   45.0390 C   0  0  0  0  0  0  0  0  0  0  0  0
   58.4770   31.5240   45.4110 C   0  0  0  0  0  0  0  0  0  0  0  0
   58.2860   31.9000   46.7540 C   0  0  0  0  0  0  0  0  0  0  0  0
   57.7230   33.1410   47.0670 C   0  0  0  0  0  0  0  0  0  0  0  0
   57.3610   34.0250   46.0480 C   0  0  0  0  0  0  0  0  0  0  0  0
   57.5700   33.6720   44.7130 C   0  0  0  0  0  0  0  0  0  0  0  0
   58.1320   32.4330   44.3940 C   0  0  0  0  0  0  0  0  0  0  0  0
   61.7664   31.6420   48.8475 H   0  0  0  0  0  0  0  0  0  0  0  0
   62.4406   31.0226   47.3020 H   0  0  0  0  0  0  0  0  0  0  0  0
   60.9072   31.9583   47.3020 H   0  0  0  0  0  0  0  0  0  0  0  0
   61.1244   29.3840   48.8964 H   0  0  0  0  0  0  0  0  0  0  0  0
   59.6674   30.1872   48.1965 H   0  0  0  0  0  0  0  0  0  0  0  0
   58.1971   26.1532   47.1667 H   0  0  0  0  0  0  0  0  0  0  0  0
   55.1430   28.0030   44.8990 H   0  0  0  0  0  0  0  0  0  0  0  0
   60.0705   30.1098   45.5861 H   0  0  0  0  0  0  0  0  0  0  0  0
   59.2813   30.2062   43.9507 H   0  0  0  0  0  0  0  0  0  0  0  0
   58.5812   31.2139   47.5615 H   0  0  0  0  0  0  0  0  0  0  0  0
   57.5647   33.4219   48.1187 H   0  0  0  0  0  0  0  0  0  0  0  0
   56.9119   34.9979   46.2966 H   0  0  0  0  0  0  0  0  0  0  0  0
   57.2915   34.3710   43.9106 H   0  0  0  0  0  0  0  0  0  0  0  0
   58.3058   32.1666   43.3410 H   0  0  0  0  0  0  0  0  0  0  0  0
  1  2  1  0
  2  3  1  0
  3  4  1  0
  4  5  2  0
  4  6  1  0
  6  7  2  0
  7  8  1  0
  8  9  2  0
  8 10  1  0
 10 11  1  0
 11 12  2  0
 11 13  1  0
 13 14  1  0
 14 15  1  0
 15 16  2  0
 16 17  1  0
 17 18  2  0
 18 19  1  0
 19 20  2  0
 13  6  1  0
 20 15  1  0
  1 21  1  0
  1 22  1  0
  1 23  1  0
  2 24  1  0
  2 25  1  0
  7 26  1  0
 10 27  1  0
 14 28  1  0
 14 29  1  0
 16 30  1  0
 17 31  1  0
 18 32  1  0
 19 33  1  0
 20 34  1  0
M  END
>  <UniqueID>  (4) 
3

>  <SMILES>  (4) 
CCOC(=O)c1cc(=O)[nH]c(=O)n1Cc1ccccc1

>  <Energy>  (4) 
40.82671202413548

>  <Genealogy>  (4) 
CCOC(=O)c1cc(=O)[nH]c(=O)n1Cc1ccccc1 (3D coordinates assigned)
CCOC(=O)c1cc(=O)[nH]c(=O)n1Cc1ccccc1 (optimized conformer: 40.82671202413548 kcal/mol)

>  <smiles>  (4) 
CCOC(=O)c1cc(=O)[nH]c(=O)n1Cc1ccccc1

>  <score_type>  (4) 
oracle

>  <origin>  (4) 
adg

>  <m_score__min__energy>  (4) 
-6.2400000000000002

>  <m_primary>  (4) 
energy

$$$$
4:0
     RDKit          3D

 43 45  0  0  0  0  0  0  0  0999 V2000
   60.4734   28.8620   45.6397 H   0  0  0  0  0  0  0  0  0  0  0  0
   59.3760   28.7870   45.6380 C   0  0  0  0  0  0  0  0  0  0  0  0
   58.6290   29.8180   45.1710 N   0  0  0  0  0  0  0  0  0  0  0  0
   55.9720   25.5440   45.8870 C   0  0  0  0  0  0  0  0  0  0  0  0
   56.6630   26.4040   46.5790 N   0  0  0  0  0  0  0  0  0  0  0  0
   57.0470   31.9940   44.1100 C   0  0  1  0  0  0  0  0  0  0  0  0
   56.1920   32.6304   43.8379 H   0  0  0  0  0  0  0  0  0  0  0  0
   57.8380   32.8160   45.1170 C   0  0  0  0  0  0  0  0  0  0  0  0
   58.6580   33.8560   44.6410 C   0  0  0  0  0  0  0  0  0  0  0  0
   58.7336   34.0377   43.5588 H   0  0  0  0  0  0  0  0  0  0  0  0
   59.3770   34.6600   45.5290 C   0  0  0  0  0  0  0  0  0  0  0  0
   60.0178   35.4666   45.1433 H   0  0  0  0  0  0  0  0  0  0  0  0
   59.2840   34.4420   46.9050 C   0  0  0  0  0  0  0  0  0  0  0  0
   59.9810   35.2250   47.7640 F   0  0  0  0  0  0  0  0  0  0  0  0
   58.4660   33.4230   47.3950 C   0  0  0  0  0  0  0  0  0  0  0  0
   58.3887   33.2554   48.4794 H   0  0  0  0  0  0  0  0  0  0  0  0
   57.7440   32.6140   46.5110 C   0  0  0  0  0  0  0  0  0  0  0  0
   57.0986   31.8150   46.9049 H   0  0  0  0  0  0  0  0  0  0  0  0
   57.7690   31.7180   42.7830 C   0  0  0  0  0  0  0  0  0  0  0  0
   58.7785   31.3321   42.9882 H   0  0  0  0  0  0  0  0  0  0  0  0
   57.2022   30.9732   42.2052 H   0  0  0  0  0  0  0  0  0  0  0  0
   57.8436   32.6510   42.2052 H   0  0  0  0  0  0  0  0  0  0  0  0
   54.6160   25.4680   45.9960 N   0  0  0  0  0  0  0  0  0  0  0  0
   57.3460   27.5760   46.0960 C   0  0  0  0  0  0  0  0  0  0  0  0
   56.5550   30.7490   44.7130 N   0  0  0  0  0  0  0  0  0  0  0  0
   57.2720   29.7560   45.1560 C   0  0  0  0  0  0  0  0  0  0  0  0
   56.6490   28.6420   45.6150 N   0  0  0  0  0  0  0  0  0  0  0  0
   53.8840   24.5710   45.2840 C   0  0  0  0  0  0  0  0  0  0  0  0
   52.7907   24.5379   45.4008 H   0  0  0  0  0  0  0  0  0  0  0  0
   54.5180   23.6920   44.4050 C   0  0  0  0  0  0  0  0  0  0  0  0
   53.9301   22.9573   43.8353 H   0  0  0  0  0  0  0  0  0  0  0  0
   55.9100   23.7530   44.2540 C   0  0  0  0  0  0  0  0  0  0  0  0
   56.6170   22.7920   43.3450 C   0  0  0  0  0  0  0  0  0  0  0  0
   57.1623   22.0508   43.9477 H   0  0  0  0  0  0  0  0  0  0  0  0
   55.8802   22.2780   42.7103 H   0  0  0  0  0  0  0  0  0  0  0  0
   57.3271   23.3424   42.7103 H   0  0  0  0  0  0  0  0  0  0  0  0
   56.6410   24.6780   45.0130 C   0  0  0  0  0  0  0  0  0  0  0  0
   57.7363   24.7233   44.9223 H   0  0  0  0  0  0  0  0  0  0  0  0
   58.7540   27.6250   46.1190 C   0  0  0  0  0  0  0  0  0  0  0  0
   59.5620   26.4600   46.6470 C   0  0  0  0  0  0  0  0  0  0  0  0
   60.9100   26.7600   46.5710 F   0  0  0  0  0  0  0  0  0  0  0  0
   59.2250   26.2250   47.9670 F   0  0  0  0  0  0  0  0  0  0  0  0
   59.3290   25.3050   45.9210 F   0  0  0  0  0  0  0  0  0  0  0  0
  1  2  1  0
  2  3  2  0
  3  4  1  0
  4  5  2  0
  5  6  1  0
  6  7  1  6
  6  8  1  0
  8  9  2  0
  9 10  1  0
  9 11  1  0
 11 12  1  0
 11 13  2  0
 13 14  1  0
 13 15  1  0
 15 16  1  0
 15 17  2  0
 17 18  1  0
  6 19  1  0
 19 20  1  0
 19 21  1  0
 19 22  1  0
  4 23  1  0
 23 24  1  0
 24 25  1  0
 25 26  2  0
 26 27  1  0
 27 28  1  0
 28 29  1  0
 28 30  2  0
 30 31  1  0
 30 32  1  0
 32 33  1  0
 33 34  1  0
 33 35  1  0
 33 36  1  0
 32 37  2  0
 37 38  1  0
 24 39  2  0
 39 40  1  0
 40 41  1  0
 40 42  1  0
 40 43  1  0
 39  2  1  0
 17  8  1  0
 37 26  1  0
M  CHG  2  23  -1  27  -1
M  END
>  <UniqueID>  (5) 
4

>  <SMILES>  (5) 
Cc1cc[n-]/c(=N\c2[n-]/c(=N/[C@H](C)c3ccc(F)cc3)ncc2C(F)(F)F)c1

>  <Energy>  (5) 
52.462821346490976

>  <Genealogy>  (5) 
Cc1cc[n-]c(=Nc2[n-]c(=NC(C)c3ccc(F)cc3)ncc2C(F)(F)F)c1 (protonated)
Cc1cc[n-]c(=Nc2[n-]c(=N[C@H](C)c3ccc(F)cc3)ncc2C(F)(F)F)c1 (chirality)
Cc1cc[n-]/c(=N\c2[n-]/c(=N/[C@H](C)c3ccc(F)cc3)ncc2C(F)(F)F)c1 (cis-trans isomerization)
Cc1cc[n-]/c(=N\c2[n-]/c(=N/[C@H](C)c3ccc(F)cc3)ncc2C(F)(F)F)c1 (3D coordinates assigned)
Cc1cc[n-]/c(=N\c2[n-]/c(=N/[C@H](C)c3ccc(F)cc3)ncc2C(F)(F)F)c1 (optimized conformer: 52.462821346490976 kcal/mol)

>  <smiles>  (5) 
Cc1cc[nH]c(=Nc2[nH]c(=NC(C)c3ccc(F)cc3)ncc2C(F)(F)F)c1

>  <score_type>  (5) 
oracle

>  <origin>  (5) 
adg

>  <m_score__min__energy>  (5) 
-11.52

>  <m_primary>  (5) 
energy

$$$$
5:0
     RDKit          3D

 56 59  0  0  0  0  0  0  0  0999 V2000
   59.1620   30.4060   49.7340 C   0  0  0  0  0  0  0  0  0  0  0  0
   59.4920   29.9010   48.3530 C   0  0  0  0  0  0  0  0  0  0  0  0
   58.5460   29.0810   47.7100 C   0  0  0  0  0  0  0  0  0  0  0  0
   58.7680   28.6090   46.4090 C   0  0  0  0  0  0  0  0  0  0  0  0
   57.5610   27.6220   45.5910 S   0  0  0  0  0  0  0  0  0  0  0  0
   58.0280   27.3490   44.1880 O   0  0  0  0  0  0  0  0  0  0  0  0
   56.2450   28.3500   45.5460 O   0  0  0  0  0  0  0  0  0  0  0  0
   57.3750   26.1310   46.4530 N   0  0  0  0  0  0  0  0  0  0  0  0
   57.7960   24.8390   45.9800 C   0  0  0  0  0  0  0  0  0  0  0  0
   59.1620   24.4960   45.9000 C   0  0  0  0  0  0  0  0  0  0  0  0
   59.5530   23.2520   45.4080 C   0  0  0  0  0  0  0  0  0  0  0  0
   58.5930   22.3360   44.9740 C   0  0  0  0  0  0  0  0  0  0  0  0
   57.2350   22.6580   45.0430 C   0  0  0  0  0  0  0  0  0  0  0  0
   56.8250   23.9030   45.5550 C   0  0  0  0  0  0  0  0  0  0  0  0
   55.1070   24.3170   45.6100 S   0  0  0  0  0  0  0  0  0  0  0  0
   54.8590   26.0180   45.8080 N   0  0  0  0  0  0  0  0  0  0  0  0
   54.4570   23.8910   44.3260 O   0  0  0  0  0  0  0  0  0  0  0  0
   54.4670   23.5910   46.7630 O   0  0  0  0  0  0  0  0  0  0  0  0
   59.9490   28.9450   45.7460 C   0  0  0  0  0  0  0  0  0  0  0  0
   60.8880   29.7740   46.3610 C   0  0  0  0  0  0  0  0  0  0  0  0
   60.6800   30.2640   47.6620 C   0  0  0  0  0  0  0  0  0  0  0  0
   61.9070   31.3750   48.3170 S   0  0  0  0  0  0  0  0  0  0  0  0
   62.2970   30.8690   49.6790 O   0  0  0  0  0  0  0  0  0  0  0  0
   63.1510   31.3670   47.4750 O   0  0  0  0  0  0  0  0  0  0  0  0
   61.3400   33.0240   48.4820 N   0  0  0  0  0  0  0  0  0  0  0  0
   61.9290   33.9730   47.5220 C   0  0  0  0  0  0  0  0  0  0  0  0
   61.3350   33.8620   46.1110 C   0  0  0  0  0  0  0  0  0  0  0  0
   59.8490   33.6460   46.1080 C   0  0  0  0  0  0  0  0  0  0  0  0
   59.1420   33.7820   44.9000 C   0  0  0  0  0  0  0  0  0  0  0  0
   57.7740   33.5160   44.8510 C   0  0  0  0  0  0  0  0  0  0  0  0
   57.0990   33.0990   45.9990 C   0  0  0  0  0  0  0  0  0  0  0  0
   57.7910   32.9580   47.2040 C   0  0  0  0  0  0  0  0  0  0  0  0
   59.1720   33.2150   47.2660 C   0  0  0  0  0  0  0  0  0  0  0  0
   59.8760   33.1360   48.5980 C   0  0  0  0  0  0  0  0  0  0  0  0
   59.6016   29.7333   50.4852 H   0  0  0  0  0  0  0  0  0  0  0  0
   59.5736   31.4180   49.8624 H   0  0  0  0  0  0  0  0  0  0  0  0
   58.0699   30.4353   49.8624 H   0  0  0  0  0  0  0  0  0  0  0  0
   57.6195   28.8067   48.2357 H   0  0  0  0  0  0  0  0  0  0  0  0
   59.9252   25.2167   46.2288 H   0  0  0  0  0  0  0  0  0  0  0  0
   60.6206   22.9913   45.3615 H   0  0  0  0  0  0  0  0  0  0  0  0
   58.9061   21.3591   44.5770 H   0  0  0  0  0  0  0  0  0  0  0  0
   56.4827   21.9347   44.6954 H   0  0  0  0  0  0  0  0  0  0  0  0
   55.1520   26.2750   46.7710 H   0  0  0  0  0  0  0  0  0  0  0  0
   55.4990   26.4990   45.1430 H   0  0  0  0  0  0  0  0  0  0  0  0
   60.1404   28.5551   44.7354 H   0  0  0  0  0  0  0  0  0  0  0  0
   61.8052   30.0483   45.8193 H   0  0  0  0  0  0  0  0  0  0  0  0
   61.7584   34.9946   47.8926 H   0  0  0  0  0  0  0  0  0  0  0  0
   62.9994   33.7321   47.4431 H   0  0  0  0  0  0  0  0  0  0  0  0
   61.5538   34.7920   45.5658 H   0  0  0  0  0  0  0  0  0  0  0  0
   61.7931   32.9838   45.6326 H   0  0  0  0  0  0  0  0  0  0  0  0
   59.6707   34.0998   43.9892 H   0  0  0  0  0  0  0  0  0  0  0  0
   57.2255   33.6352   43.9050 H   0  0  0  0  0  0  0  0  0  0  0  0
   56.0217   32.8813   45.9549 H   0  0  0  0  0  0  0  0  0  0  0  0
   57.2523   32.6439   48.1102 H   0  0  0  0  0  0  0  0  0  0  0  0
   59.6405   34.0450   49.1709 H   0  0  0  0  0  0  0  0  0  0  0  0
   59.5200   32.2237   49.0990 H   0  0  0  0  0  0  0  0  0  0  0  0
  1  2  1  0
  2  3  2  0
  3  4  1  0
  4  5  1  0
  5  6  2  0
  5  7  2  0
  5  8  1  0
  8  9  1  0
  9 10  2  0
 10 11  1  0
 11 12  2  0
 12 13  1  0
 13 14  2  0
 14 15  1  0
 15 16  1  0
 15 17  2  0
 15 18  2  0
  4 19  2  0
 19 20  1  0
 20 21  2  0
 21 22  1  0
 22 23  2  0
 22 24  2  0
 22 25  1  0
 25 26  1  0
 26 27  1  0
 27 28  1  0
 28 29  2  0
 29 30  1  0
 30 31  2  0
 31 32  1  0
 32 33  2  0
 33 34  1  0
 21  2  1  0
 34 25  1  0
 14  9  1  0
 33 28  1  0
  1 35  1  0
  1 36  1  0
  1 37  1  0
  3 38  1  0
 10 39  1  0
 11 40  1  0
 12 41  1  0
 13 42  1  0
 16 43  1  0
 16 44  1  0
 19 45  1  0
 20 46  1  0
 26 47  1  0
 26 48  1  0
 27 49  1  0
 27 50  1  0
 29 51  1  0
 30 52  1  0
 31 53  1  0
 32 54  1  0
 34 55  1  0
 34 56  1  0
M  CHG  1   8  -1
M  END
>  <UniqueID>  (6) 
5

>  <SMILES>  (6) 
Cc1cc(S(=O)(=O)[N-]c2ccccc2S(N)(=O)=O)ccc1S(=O)(=O)N1CCc2ccccc2C1

>  <Energy>  (6) 
70.61158886344623

>  <Genealogy>  (6) 
Cc1cc(S(=O)(=O)[N-]c2ccccc2S(N)(=O)=O)ccc1S(=O)(=O)N1CCc2ccccc2C1 (protonated)
Cc1cc(S(=O)(=O)[N-]c2ccccc2S(N)(=O)=O)ccc1S(=O)(=O)N1CCc2ccccc2C1 (3D coordinates assigned)
Cc1cc(S(=O)(=O)[N-]c2ccccc2S(N)(=O)=O)ccc1S(=O)(=O)N1CCc2ccccc2C1 (nonaromatic ring conformer: 70.61158886344623 kcal/mol)

>  <smiles>  (6) 
Cc1cc(S(=O)(=O)Nc2ccccc2S(N)(=O)=O)ccc1S(=O)(=O)N1CCc2ccccc2C1

>  <score_type>  (6) 
oracle

>  <origin>  (6) 
adg

>  <m_score__min__energy>  (6) 
-11.99

>  <m_primary>  (6) 
energy

$$$$
6:0
     RDKit          3D

 48 51  0  0  0  0  0  0  0  0999 V2000
   54.7510   26.0440   45.6300 O   0  0  0  0  0  0  0  0  0  0  0  0
   54.4610   24.8340   45.4300 C   0  0  0  0  0  0  0  0  0  0  0  0
   53.2450   24.3530   45.9000 O   0  0  0  0  0  0  0  0  0  0  0  0
   55.4350   23.9390   44.7600 C   0  0  0  0  0  0  0  0  0  0  0  0
   55.1410   23.5120   43.4520 C   0  0  0  0  0  0  0  0  0  0  0  0
   56.0120   22.6710   42.7600 C   0  0  0  0  0  0  0  0  0  0  0  0
   57.1850   22.2330   43.3650 C   0  0  0  0  0  0  0  0  0  0  0  0
   57.4910   22.6310   44.6670 C   0  0  0  0  0  0  0  0  0  0  0  0
   56.6330   23.4870   45.3820 C   0  0  0  0  0  0  0  0  0  0  0  0
   57.0430   23.8810   47.0640 S   0  0  0  0  0  0  0  0  0  0  0  0
   55.8820   24.5440   47.7520 O   0  0  0  0  0  0  0  0  0  0  0  0
   57.3830   22.6110   47.7930 O   0  0  0  0  0  0  0  0  0  0  0  0
   58.4240   24.9270   47.1550 N   0  0  0  0  0  0  0  0  0  0  0  0
   58.4140   26.3470   46.9500 C   0  0  0  0  0  0  0  0  0  0  0  0
   59.3270   27.1330   47.6600 C   0  0  0  0  0  0  0  0  0  0  0  0
   59.3590   28.5190   47.4870 C   0  0  0  0  0  0  0  0  0  0  0  0
   58.4760   29.1440   46.5900 C   0  0  0  0  0  0  0  0  0  0  0  0
   58.4940   30.6110   46.4040 C   0  0  0  0  0  0  0  0  0  0  0  0
   57.7830   31.4300   45.1130 S   0  0  0  0  0  0  0  0  0  0  0  0
   58.2440   32.9460   45.6670 C   0  0  0  0  0  0  0  0  0  0  0  0
   57.8890   34.3350   44.8730 S   0  0  0  0  0  0  0  0  0  0  0  0
   58.9520   32.8600   46.8260 N   0  0  0  0  0  0  0  0  0  0  0  0
   59.4750   34.0060   47.5850 C   0  0  0  0  0  0  0  0  0  0  0  0
   60.9730   33.9070   47.7210 C   0  0  0  0  0  0  0  0  0  0  0  0
   61.7880   33.7990   46.5810 C   0  0  0  0  0  0  0  0  0  0  0  0
   63.1790   33.7400   46.7100 C   0  0  0  0  0  0  0  0  0  0  0  0
   63.7670   33.7910   47.9770 C   0  0  0  0  0  0  0  0  0  0  0  0
   62.9650   33.9000   49.1160 C   0  0  0  0  0  0  0  0  0  0  0  0
   61.5740   33.9610   48.9900 C   0  0  0  0  0  0  0  0  0  0  0  0
   59.0930   31.5640   47.2340 C   0  0  0  0  0  0  0  0  0  0  0  0
   59.8150   31.2190   48.3720 O   0  0  0  0  0  0  0  0  0  0  0  0
   57.5580   28.3560   45.8790 C   0  0  0  0  0  0  0  0  0  0  0  0
   57.5320   26.9690   46.0500 C   0  0  0  0  0  0  0  0  0  0  0  0
   54.2112   23.8462   42.9685 H   0  0  0  0  0  0  0  0  0  0  0  0
   55.7709   22.3538   41.7347 H   0  0  0  0  0  0  0  0  0  0  0  0
   57.8724   21.5721   42.8166 H   0  0  0  0  0  0  0  0  0  0  0  0
   58.4159   22.2706   45.1410 H   0  0  0  0  0  0  0  0  0  0  0  0
   60.0268   26.6554   48.3615 H   0  0  0  0  0  0  0  0  0  0  0  0
   60.0796   29.1246   48.0562 H   0  0  0  0  0  0  0  0  0  0  0  0
   59.2197   34.9369   47.0575 H   0  0  0  0  0  0  0  0  0  0  0  0
   59.0248   34.0045   48.5887 H   0  0  0  0  0  0  0  0  0  0  0  0
   61.3291   33.7607   45.5820 H   0  0  0  0  0  0  0  0  0  0  0  0
   63.8110   33.6534   45.8138 H   0  0  0  0  0  0  0  0  0  0  0  0
   64.8614   33.7453   48.0775 H   0  0  0  0  0  0  0  0  0  0  0  0
   63.4286   33.9379   50.1128 H   0  0  0  0  0  0  0  0  0  0  0  0
   60.9467   34.0517   49.8890 H   0  0  0  0  0  0  0  0  0  0  0  0
   56.8536   28.8334   45.1819 H   0  0  0  0  0  0  0  0  0  0  0  0
   56.8169   26.3607   45.4767 H   0  0  0  0  0  0  0  0  0  0  0  0
  1  2  2  0
  2  3  1  0
  2  4  1  0
  4  5  2  0
  5  6  1  0
  6  7  2  0
  7  8  1  0
  8  9  2  0
  9 10  1  0
 10 11  2  0
 10 12  2  0
 10 13  1  0
 13 14  1  0
 14 15  2  0
 15 16  1  0
 16 17  2  0
 17 18  1  0
 18 19  1  0
 19 20  1  0
 20 21  2  0
 20 22  1  0
 22 23  1  0
 23 24  1  0
 24 25  2  0
 25 26  1  0
 26 27  2  0
 27 28  1  0
 28 29  2  0
 22 30  1  0
 30 31  1  0
 17 32  1  0
 32 33  2  0
  9  4  1  0
 33 14  1  0
 30 18  2  0
 29 24  1  0
  5 34  1  0
  6 35  1  0
  7 36  1  0
  8 37  1  0
 15 38  1  0
 16 39  1  0
 23 40  1  0
 23 41  1  0
 25 42  1  0
 26 43  1  0
 27 44  1  0
 28 45  1  0
 29 46  1  0
 32 47  1  0
 33 48  1  0
M  CHG  3   3  -1  13  -1  31  -1
M  END
>  <UniqueID>  (7) 
6

>  <SMILES>  (7) 
O=C([O-])c1ccccc1S(=O)(=O)[N-]c1ccc(-c2sc(=S)n(Cc3ccccc3)c2[O-])cc1

>  <Energy>  (7) 
99.22896400064445

>  <Genealogy>  (7) 
O=C([O-])c1ccccc1S(=O)(=O)[N-]c1ccc(-c2sc(=S)n(Cc3ccccc3)c2[O-])cc1 (protonated)
O=C([O-])c1ccccc1S(=O)(=O)[N-]c1ccc(-c2sc(=S)n(Cc3ccccc3)c2[O-])cc1 (3D coordinates assigned)
O=C([O-])c1ccccc1S(=O)(=O)[N-]c1ccc(-c2sc(=S)n(Cc3ccccc3)c2[O-])cc1 (optimized conformer: 99.22896400064445 kcal/mol)

>  <smiles>  (7) 
O=C(O)c1ccccc1S(=O)(=O)Nc1ccc(-c2sc(=S)n(Cc3ccccc3)c2O)cc1

>  <score_type>  (7) 
oracle

>  <origin>  (7) 
adg

>  <m_score__min__energy>  (7) 
-15.279999999999999

>  <m_primary>  (7) 
energy

$$$$
7:0
     RDKit          3D

 38 40  0  0  1  0  0  0  0  0999 V2000
   60.3760   28.1100   46.1650 C   0  0  0  0  0  0  0  0  0  0  0  0
   58.9100   27.9290   45.9760 C   0  0  0  0  0  0  0  0  0  0  0  0
   58.1390   28.9640   45.4880 C   0  0  0  0  0  0  0  0  0  0  0  0
   56.7800   28.7960   45.3130 C   0  0  0  0  0  0  0  0  0  0  0  0
   56.1340   29.8240   44.8500 N   0  0  0  0  0  0  0  0  0  0  0  0
   56.7920   30.8290   44.0950 C   0  0  0  0  0  0  0  0  0  0  0  0
   56.8180   30.6940   42.7230 C   0  0  0  0  0  0  0  0  0  0  0  0
   57.4350   31.6210   41.9120 C   0  0  0  0  0  0  0  0  0  0  0  0
   58.0310   32.6970   42.5280 C   0  0  0  0  0  0  0  0  0  0  0  0
   58.0050   32.8350   43.9120 C   0  0  0  0  0  0  0  0  0  0  0  0
   57.3800   31.8930   44.7250 C   0  0  0  0  0  0  0  0  0  0  0  0
   57.4110   32.1200   46.0800 O   0  0  0  0  0  0  0  0  0  0  0  0
   58.5370   32.6260   46.6870 C   0  0  0  0  0  0  0  0  0  0  0  0
   59.6290   31.9220   47.0770 C   0  0  0  0  0  0  0  0  0  0  0  0
   60.7190   32.5400   47.6890 C   0  0  0  0  0  0  0  0  0  0  0  0
   60.6980   33.9190   47.9090 C   0  0  0  0  0  0  0  0  0  0  0  0
   61.7520   34.5280   48.5010 F   0  0  0  0  0  0  0  0  0  0  0  0
   59.5980   34.6470   47.5180 C   0  0  0  0  0  0  0  0  0  0  0  0
   58.5500   34.0030   46.9220 C   0  0  0  0  0  0  0  0  0  0  0  0
   56.1790   27.6310   45.6110 N   0  0  0  0  0  0  0  0  0  0  0  0
   56.9400   26.6250   46.0870 C   0  0  0  0  0  0  0  0  0  0  0  0
   56.4280   25.4750   46.3940 N   0  0  0  0  0  0  0  0  0  0  0  0
   58.2740   26.7780   46.2630 N   0  0  0  0  0  0  0  0  0  0  0  0
   60.6063   28.1384   47.2402 H   0  0  0  0  0  0  0  0  0  0  0  0
   60.9123   27.2713   45.6972 H   0  0  0  0  0  0  0  0  0  0  0  0
   60.6922   29.0540   45.6972 H   0  0  0  0  0  0  0  0  0  0  0  0
   58.6089   29.9265   45.2375 H   0  0  0  0  0  0  0  0  0  0  0  0
   56.3321   29.8210   42.2628 H   0  0  0  0  0  0  0  0  0  0  0  0
   57.4505   31.5057   40.8182 H   0  0  0  0  0  0  0  0  0  0  0  0
   58.5357   33.4598   41.9170 H   0  0  0  0  0  0  0  0  0  0  0  0
   58.4890   33.7078   44.3745 H   0  0  0  0  0  0  0  0  0  0  0  0
   59.6554   30.8357   46.9061 H   0  0  0  0  0  0  0  0  0  0  0  0
   61.5910   31.9443   47.9969 H   0  0  0  0  0  0  0  0  0  0  0  0
   59.5624   35.7340   47.6830 H   0  0  0  0  0  0  0  0  0  0  0  0
   57.6767   34.5963   46.6132 H   0  0  0  0  0  0  0  0  0  0  0  0
   55.1520   27.5200   45.4720 H   0  0  0  0  0  0  0  0  0  0  0  0
   55.7560   24.9720   45.7670 H   0  0  0  0  0  0  0  0  0  0  0  0
   58.8730   26.0000   46.6330 H   0  0  0  0  0  0  0  0  0  0  0  0
  1  2  1  0
  2  3  2  0
  3  4  1  0
  4  5  2  0
  5  6  1  0
  6  7  2  0
  7  8  1  0
  8  9  2  0
  9 10  1  0
 10 11  2  0
 11 12  1  0
 12 13  1  0
 13 14  2  0
 14 15  1  0
 15 16  2  0
 16 17  1  0
 16 18  1  0
 18 19  2  0
  4 20  1  0
 20 21  1  0
 21 22  2  3
 21 23  1  0
 23  2  1  0
 11  6  1  0
 19 13  1  0
  1 24  1  0
  1 25  1  0
  1 26  1  0
  3 27  1  0
  7 28  1  0
  8 29  1  0
  9 30  1  0
 10 31  1  0
 14 32  1  0
 15 33  1  0
 18 34  1  0
 19 35  1  0
 20 36  1  0
 22 37  1  0
 23 38  1  0
M  END
>  <smiles>  (8) 
Cc1cc(=Nc2ccccc2Oc2ccc(F)cc2)[nH]c(=N)[nH]1

>  <score_type>  (8) 
oracle

>  <origin>  (8) 
adg

>  <m_score__min__energy>  (8) 
-8.0500000000000007

>  <m_primary>  (8) 
energy

$$$$
8:0
     RDKit          3D

 43 45  0  0  0  0  0  0  0  0999 V2000
   58.1909   26.6313   48.4065 H   0  0  0  0  0  0  0  0  0  0  0  0
   58.6050   27.4510   47.8010 C   0  0  0  0  0  0  0  0  0  0  0  0
   57.9670   27.8610   46.6730 N   0  0  0  0  0  0  0  0  0  0  0  0
   58.4560   28.8730   45.9050 C   0  0  0  0  0  0  0  0  0  0  0  0
   57.8440   29.2690   44.8250 N   0  0  0  0  0  0  0  0  0  0  0  0
   56.5660   29.9180   44.7360 C   0  0  0  0  0  0  0  0  0  0  0  0
   55.5270   29.2260   44.8950 O   0  0  0  0  0  0  0  0  0  0  0  0
   56.4670   31.3340   44.5280 N   0  0  0  0  0  0  0  0  0  0  0  0
   57.3610   32.3420   45.0230 C   0  0  0  0  0  0  0  0  0  0  0  0
   57.3950   33.6390   44.4830 C   0  0  0  0  0  0  0  0  0  0  0  0
   56.7124   33.9111   43.6644 H   0  0  0  0  0  0  0  0  0  0  0  0
   58.2940   34.5830   44.9840 C   0  0  0  0  0  0  0  0  0  0  0  0
   58.3082   35.6007   44.5669 H   0  0  0  0  0  0  0  0  0  0  0  0
   59.1750   34.2410   46.0120 C   0  0  0  0  0  0  0  0  0  0  0  0
   59.8741   34.9931   46.4065 H   0  0  0  0  0  0  0  0  0  0  0  0
   59.1730   32.9410   46.5450 C   0  0  0  0  0  0  0  0  0  0  0  0
   60.0940   32.5770   47.5950 N   0  0  0  0  0  0  0  0  0  0  0  0
   61.5330   32.5350   47.2980 C   0  0  0  0  0  0  0  0  0  0  0  0
   61.8538   33.5224   46.9346 H   0  0  0  0  0  0  0  0  0  0  0  0
   61.7094   31.7652   46.5323 H   0  0  0  0  0  0  0  0  0  0  0  0
   62.3410   32.1750   48.5430 C   0  0  0  0  0  0  0  0  0  0  0  0
   62.3890   33.0422   49.2180 H   0  0  0  0  0  0  0  0  0  0  0  0
   63.3647   31.8897   48.2590 H   0  0  0  0  0  0  0  0  0  0  0  0
   61.6750   31.0540   49.2220 N   0  0  0  0  0  0  0  0  0  0  0  0
   62.5570   30.4700   50.2430 C   0  0  0  0  0  0  0  0  0  0  0  0
   62.1764   30.7220   51.2438 H   0  0  0  0  0  0  0  0  0  0  0  0
   62.5814   29.3767   50.1245 H   0  0  0  0  0  0  0  0  0  0  0  0
   63.5731   30.8744   50.1245 H   0  0  0  0  0  0  0  0  0  0  0  0
   60.3890   31.4720   49.8240 C   0  0  0  0  0  0  0  0  0  0  0  0
   60.5918   31.8934   50.8196 H   0  0  0  0  0  0  0  0  0  0  0  0
   59.7490   30.5786   49.8703 H   0  0  0  0  0  0  0  0  0  0  0  0
   59.6300   32.5310   48.9900 C   0  0  0  0  0  0  0  0  0  0  0  0
   59.7845   33.5194   49.4474 H   0  0  0  0  0  0  0  0  0  0  0  0
   58.5652   32.2551   48.9826 H   0  0  0  0  0  0  0  0  0  0  0  0
   58.2640   31.9960   46.0370 C   0  0  0  0  0  0  0  0  0  0  0  0
   58.2618   30.9727   46.4406 H   0  0  0  0  0  0  0  0  0  0  0  0
   59.6440   29.5020   46.2920 C   0  0  0  0  0  0  0  0  0  0  0  0
   60.0568   30.3225   45.6867 H   0  0  0  0  0  0  0  0  0  0  0  0
   60.2870   29.0950   47.4200 N   0  0  0  0  0  0  0  0  0  0  0  0
   61.1740   29.5740   47.6970 H   0  0  0  0  0  0  0  0  0  0  0  0
   59.7920   28.0810   48.1840 C   0  0  0  0  0  0  0  0  0  0  0  0
   60.4840   27.6610   49.3750 C   0  0  0  0  0  0  0  0  0  0  0  0
   61.0400   27.3240   50.3330 N   0  0  0  0  0  0  0  0  0  0  0  0
  1  2  1  0
  2  3  1  0
  3  4  1  0
  4  5  2  0
  5  6  1  0
  6  7  2  0
  6  8  1  0
  8  9  1  0
  9 10  2  0
 10 11  1  0
 10 12  1  0
 12 13  1  0
 12 14  2  0
 14 15  1  0
 14 16  1  0
 16 17  1  0
 17 18  1  0
 18 19  1  0
 18 20  1  0
 18 21  1  0
 21 22  1  0
 21 23  1  0
 21 24  1  0
 24 25  1  0
 25 26  1  0
 25 27  1  0
 25 28  1  0
 24 29  1  0
 29 30  1  0
 29 31  1  0
 29 32  1  0
 32 33  1  0
 32 34  1  0
 16 35  2  0
 35 36  1  0
  4 37  1  0
 37 38  1  0
 37 39  2  0
 39 40  1  0
 39 41  1  0
 41 42  1  0
 42 43  3  0
 41  2  2  0
 35  9  1  0
 32 17  1  0
M  CHG  3   3  -1   8  -1  39   1
M  END
>  <UniqueID>  (9) 
7

>  <SMILES>  (9) 
CN1CCN(c2cccc([N-]C(=O)/N=c3/c[nH+]c(C#N)c[n-]3)c2)CC1

>  <Energy>  (9) 
59.537780500125436

>  <Genealogy>  (9) 
CN1CCN(c2cccc([N-]C(=O)N=c3c[nH+]c(C#N)c[n-]3)c2)CC1 (protonated)
CN1CCN(c2cccc([N-]C(=O)/N=c3/c[nH+]c(C#N)c[n-]3)c2)CC1 (cis-trans isomerization)
CN1CCN(c2cccc([N-]C(=O)/N=c3/c[nH+]c(C#N)c[n-]3)c2)CC1 (3D coordinates assigned)
CN1CCN(c2cccc([N-]C(=O)/N=c3/c[nH+]c(C#N)c[n-]3)c2)CC1 (nonaromatic ring conformer: 59.537780500125436 kcal/mol)

>  <smiles>  (9) 
CN1CCN(c2cccc(NC(=O)N=c3cnc(C#N)c[nH]3)c2)CC1

>  <score_type>  (9) 
oracle

>  <origin>  (9) 
adg

>  <m_score__min__energy>  (9) 
-9

>  <m_primary>  (9) 
energy

$$$$
9:0
     RDKit          3D

 31 33  0  0  0  0  0  0  0  0999 V2000
   57.9000   25.5470   45.8970 C   0  0  0  0  0  0  0  0  0  0  0  0
   57.3690   26.9100   45.6040 C   0  0  0  0  0  0  0  0  0  0  0  0
   58.1120   27.9980   45.1950 C   0  0  0  0  0  0  0  0  0  0  0  0
   57.1590   28.9740   44.9920 C   0  0  0  0  0  0  0  0  0  0  0  0
   57.3940   30.3520   44.5500 C   0  0  0  0  0  0  0  0  0  0  0  0
   57.9790   30.7050   43.3910 N   0  0  0  0  0  0  0  0  0  0  0  0
   58.0090   32.0260   43.3480 N   0  0  0  0  0  0  0  0  0  0  0  0
   57.4330   32.4320   44.4970 C   0  0  0  0  0  0  0  0  0  0  0  0
   57.2040   34.1490   44.9470 S   0  0  0  0  0  0  0  0  0  0  0  0
   58.9800   34.5630   44.8650 C   0  0  0  0  0  0  0  0  0  0  0  0
   59.6610   34.2750   46.1760 C   0  0  0  0  0  0  0  0  0  0  0  0
   58.9700   34.4410   47.3890 C   0  0  0  0  0  0  0  0  0  0  0  0
   59.6170   34.1970   48.6050 C   0  0  0  0  0  0  0  0  0  0  0  0
   60.9540   33.7900   48.6180 C   0  0  0  0  0  0  0  0  0  0  0  0
   61.6480   33.6260   47.4160 C   0  0  0  0  0  0  0  0  0  0  0  0
   62.9460   33.2350   47.4310 F   0  0  0  0  0  0  0  0  0  0  0  0
   61.0050   33.8690   46.1980 C   0  0  0  0  0  0  0  0  0  0  0  0
   57.0570   31.4150   45.2390 O   0  0  0  0  0  0  0  0  0  0  0  0
   55.9730   28.4740   45.2530 O   0  0  0  0  0  0  0  0  0  0  0  0
   56.0600   27.2290   45.6180 N   0  0  0  0  0  0  0  0  0  0  0  0
   57.9566   25.4018   46.9859 H   0  0  0  0  0  0  0  0  0  0  0  0
   57.2306   24.7911   45.4606 H   0  0  0  0  0  0  0  0  0  0  0  0
   58.9044   25.4431   45.4606 H   0  0  0  0  0  0  0  0  0  0  0  0
   59.2017   28.0698   45.0627 H   0  0  0  0  0  0  0  0  0  0  0  0
   58.3490   30.0760   42.6440 H   0  0  0  0  0  0  0  0  0  0  0  0
   59.4533   33.9627   44.0740 H   0  0  0  0  0  0  0  0  0  0  0  0
   59.0804   35.6362   44.6458 H   0  0  0  0  0  0  0  0  0  0  0  0
   57.9183   34.7634   47.3819 H   0  0  0  0  0  0  0  0  0  0  0  0
   59.0728   34.3256   49.5522 H   0  0  0  0  0  0  0  0  0  0  0  0
   61.4607   33.5985   49.5754 H   0  0  0  0  0  0  0  0  0  0  0  0
   61.5543   33.7416   45.2535 H   0  0  0  0  0  0  0  0  0  0  0  0
  1  2  1  0
  2  3  1  0
  3  4  2  0
  4  5  1  0
  5  6  2  0
  6  7  1  0
  7  8  2  0
  8  9  1  0
  9 10  1  0
 10 11  1  0
 11 12  2  0
 12 13  1  0
 13 14  2  0
 14 15  1  0
 15 16  1  0
 15 17  2  0
  8 18  1  0
  4 19  1  0
 19 20  1  0
 20  2  2  0
 18  5  1  0
 17 11  1  0
  1 21  1  0
  1 22  1  0
  1 23  1  0
  3 24  1  0
  6 25  1  0
 10 26  1  0
 10 27  1  0
 12 28  1  0
 13 29  1  0
 14 30  1  0
 17 31  1  0
M  CHG  1   6   1
M  END
>  <UniqueID>  (10) 
8

>  <SMILES>  (10) 
Cc1cc(-c2[nH+]nc(SCc3cccc(F)c3)o2)on1

>  <Energy>  (10) 
92.26388954955742

>  <Genealogy>  (10) 
Cc1cc(-c2[nH+]nc(SCc3cccc(F)c3)o2)on1 (protonated)
Cc1cc(-c2[nH+]nc(SCc3cccc(F)c3)o2)on1 (3D coordinates assigned)
Cc1cc(-c2[nH+]nc(SCc3cccc(F)c3)o2)on1 (optimized conformer: 92.26388954955742 kcal/mol)

>  <smiles>  (10) 
Cc1cc(-c2nnc(SCc3cccc(F)c3)o2)on1

>  <score_type>  (10) 
oracle

>  <origin>  (10) 
adg

>  <m_score__min__energy>  (10) 
-6.96

>  <m_primary>  (10) 
energy

$$$$
10:0
     RDKit          3D

 70 74  0  0  1  0  0  0  0  0999 V2000
   58.8090   33.4560   52.0380 C   0  0  0  0  0  0  0  0  0  0  0  0
   58.8860   32.2490   52.7260 O   0  0  0  0  0  0  0  0  0  0  0  0
   57.5960   31.7680   52.9390 C   0  0  0  0  0  0  0  0  0  0  0  0
   56.9650   31.2970   51.6460 C   0  0  0  0  0  0  0  0  0  0  0  0
   57.6990   30.0950   51.2330 N   0  0  0  0  0  0  0  0  0  0  0  0
   58.7680   30.2410   50.4730 C   0  0  0  0  0  0  0  0  0  0  0  0
   58.5400   30.1230   49.1590 N   0  0  0  0  0  0  0  0  0  0  0  0
   59.5560   30.2500   48.2950 C   0  0  0  0  0  0  0  0  0  0  0  0
   59.3100   30.1260   46.9000 N   0  0  0  0  0  0  0  0  0  0  0  0
   60.1150   29.2890   46.0200 C   0  0  0  0  0  0  0  0  0  0  0  0
   59.6240   27.9380   45.8040 C   0  0  0  0  0  0  0  0  0  0  0  0
   60.3420   26.9050   46.4370 C   0  0  0  0  0  0  0  0  0  0  0  0
   59.9850   25.5800   46.3230 C   0  0  0  0  0  0  0  0  0  0  0  0
   58.8660   25.2390   45.5520 C   0  0  0  0  0  0  0  0  0  0  0  0
   58.5480   23.8250   45.4780 C   0  0  0  0  0  0  0  0  0  0  0  0
   59.5200   23.0130   45.6130 O   0  0  0  0  0  0  0  0  0  0  0  0
   57.2710   23.2920   45.2670 N   0  0  0  0  0  0  0  0  0  0  0  0
   57.0470   22.4800   44.2960 C   0  0  0  0  0  0  0  0  0  0  0  0
   56.0450   22.4280   43.4060 N   0  0  0  0  0  0  0  0  0  0  0  0
   56.2680   21.4150   42.6150 N   0  0  0  0  0  0  0  0  0  0  0  0
   57.3900   20.8060   42.9700 N   0  0  0  0  0  0  0  0  0  0  0  0
   57.9030   21.4500   44.0220 N   0  0  0  0  0  0  0  0  0  0  0  0
   58.1540   26.2300   44.9290 C   0  0  0  0  0  0  0  0  0  0  0  0
   58.5370   27.5590   45.0600 C   0  0  0  0  0  0  0  0  0  0  0  0
   58.2260   30.8520   46.2740 C   0  0  0  0  0  0  0  0  0  0  0  0
   58.4690   32.2740   46.0250 C   0  0  0  0  0  0  0  0  0  0  0  0
   57.9160   33.0400   45.0470 C   0  0  0  0  0  0  0  0  0  0  0  0
   58.2370   34.3880   44.8740 C   0  0  0  0  0  0  0  0  0  0  0  0
   59.1540   34.9520   45.7370 C   0  0  0  0  0  0  0  0  0  0  0  0
   59.7460   34.2300   46.7420 C   0  0  0  0  0  0  0  0  0  0  0  0
   60.6690   34.7210   47.6360 O   0  0  0  0  0  0  0  0  0  0  0  0
   61.8050   34.0910   48.0730 C   0  0  0  0  0  0  0  0  0  0  0  0
   62.5890   33.4560   47.1230 C   0  0  0  0  0  0  0  0  0  0  0  0
   63.7480   32.7900   47.4370 C   0  0  0  0  0  0  0  0  0  0  0  0
   64.1220   32.7680   48.7580 C   0  0  0  0  0  0  0  0  0  0  0  0
   63.3350   33.4060   49.7260 C   0  0  0  0  0  0  0  0  0  0  0  0
   62.1700   34.0760   49.4000 C   0  0  0  0  0  0  0  0  0  0  0  0
   59.3970   32.8990   46.8740 C   0  0  0  0  0  0  0  0  0  0  0  0
   60.8030   30.5020   48.8310 C   0  0  0  0  0  0  0  0  0  0  0  0
   61.0170   30.6200   50.2000 C   0  0  0  0  0  0  0  0  0  0  0  0
   59.9690   30.4850   51.0220 N   0  0  0  0  0  0  0  0  0  0  0  0
   58.7561   34.2858   52.7581 H   0  0  0  0  0  0  0  0  0  0  0  0
   59.7014   33.5754   51.4060 H   0  0  0  0  0  0  0  0  0  0  0  0
   57.9087   33.4610   51.4060 H   0  0  0  0  0  0  0  0  0  0  0  0
   57.6396   30.9251   53.6445 H   0  0  0  0  0  0  0  0  0  0  0  0
   56.9833   32.5853   53.3472 H   0  0  0  0  0  0  0  0  0  0  0  0
   55.9038   31.0566   51.8074 H   0  0  0  0  0  0  0  0  0  0  0  0
   57.0164   32.0777   50.8728 H   0  0  0  0  0  0  0  0  0  0  0  0
   60.1726   29.7871   45.0410 H   0  0  0  0  0  0  0  0  0  0  0  0
   61.0862   29.1755   46.5238 H   0  0  0  0  0  0  0  0  0  0  0  0
   61.2206   27.1663   47.0451 H   0  0  0  0  0  0  0  0  0  0  0  0
   60.5707   24.7995   46.8306 H   0  0  0  0  0  0  0  0  0  0  0  0
   57.8190   19.9760   42.5340 H   0  0  0  0  0  0  0  0  0  0  0  0
   58.7720   21.2060   44.5090 H   0  0  0  0  0  0  0  0  0  0  0  0
   57.2740   25.9719   44.3216 H   0  0  0  0  0  0  0  0  0  0  0  0
   57.9473   28.3342   44.5488 H   0  0  0  0  0  0  0  0  0  0  0  0
   58.0128   30.3721   45.3074 H   0  0  0  0  0  0  0  0  0  0  0  0
   57.3902   30.8133   46.9881 H   0  0  0  0  0  0  0  0  0  0  0  0
   57.1865   32.5793   44.3647 H   0  0  0  0  0  0  0  0  0  0  0  0
   57.7726   34.9825   44.0735 H   0  0  0  0  0  0  0  0  0  0  0  0
   59.4184   36.0128   45.6154 H   0  0  0  0  0  0  0  0  0  0  0  0
   62.2688   33.4868   46.0711 H   0  0  0  0  0  0  0  0  0  0  0  0
   64.3518   32.2946   46.6624 H   0  0  0  0  0  0  0  0  0  0  0  0
   65.0434   32.2473   49.0577 H   0  0  0  0  0  0  0  0  0  0  0  0
   63.6539   33.3729   50.7782 H   0  0  0  0  0  0  0  0  0  0  0  0
   61.5613   34.5754   50.1681 H   0  0  0  0  0  0  0  0  0  0  0  0
   59.8640   32.3066   47.6747 H   0  0  0  0  0  0  0  0  0  0  0  0
   61.6594   30.6136   48.1497 H   0  0  0  0  0  0  0  0  0  0  0  0
   62.0230   30.8194   50.5978 H   0  0  0  0  0  0  0  0  0  0  0  0
   60.1050   30.5680   52.0740 H   0  0  0  0  0  0  0  0  0  0  0  0
  1  2  1  0
  2  3  1  0
  3  4  1  0
  4  5  1  0
  5  6  2  0
  6  7  1  0
  7  8  2  0
  8  9  1  0
  9 10  1  0
 10 11  1  0
 11 12  2  0
 12 13  1  0
 13 14  2  0
 14 15  1  0
 15 16  2  0
 15 17  1  0
 17 18  2  3
 18 19  1  0
 19 20  2  0
 20 21  1  0
 21 22  1  0
 14 23  1  0
 23 24  2  0
  9 25  1  0
 25 26  1  0
 26 27  2  0
 27 28  1  0
 28 29  2  0
 29 30  1  0
 30 31  1  0
 31 32  1  0
 32 33  2  0
 33 34  1  0
 34 35  2  0
 35 36  1  0
 36 37  2  0
 30 38  2  0
  8 39  1  0
 39 40  2  0
 40 41  1  0
 41  6  1  0
 24 11  1  0
 38 26  1  0
 22 18  1  0
 37 32  1  0
  1 42  1  0
  1 43  1  0
  1 44  1  0
  3 45  1  0
  3 46  1  0
  4 47  1  0
  4 48  1  0
 10 49  1  0
 10 50  1  0
 12 51  1  0
 13 52  1  0
 21 53  1  0
 22 54  1  0
 23 55  1  0
 24 56  1  0
 25 57  1  0
 25 58  1  0
 27 59  1  0
 28 60  1  0
 29 61  1  0
 33 62  1  0
 34 63  1  0
 35 64  1  0
 36 65  1  0
 37 66  1  0
 38 67  1  0
 39 68  1  0
 40 69  1  0
 41 70  1  0
M  END
>  <smiles>  (11) 
COCCN=c1nc(N(Cc2ccc(C(=O)N=c3nn[nH][nH]3)cc2)Cc2cccc(Oc3ccccc3)c2)cc[nH]1

>  <score_type>  (11) 
oracle

>  <origin>  (11) 
adg

>  <m_score__min__energy>  (11) 
-11.56

>  <m_primary>  (11) 
energy

$$$$
11:0
     RDKit          3D

 51 53  0  0  0  0  0  0  0  0999 V2000
   58.5210   27.4570   47.5450 C   0  0  0  0  0  0  0  0  0  0  0  0
   58.5240   28.6600   46.6420 C   0  0  0  0  0  0  0  0  0  0  0  0
   57.6040   28.7450   45.5830 C   0  0  0  0  0  0  0  0  0  0  0  0
   57.6050   29.8540   44.7260 C   0  0  0  0  0  0  0  0  0  0  0  0
   56.4660   29.9500   43.3860 S   0  0  0  0  0  0  0  0  0  0  0  0
   56.7320   28.6270   42.3050 N   0  0  0  0  0  0  0  0  0  0  0  0
   56.6610   31.2480   42.6520 O   0  0  0  0  0  0  0  0  0  0  0  0
   55.0550   29.8960   43.9040 O   0  0  0  0  0  0  0  0  0  0  0  0
   58.5330   30.8810   44.9260 C   0  0  0  0  0  0  0  0  0  0  0  0
   59.4550   30.8020   45.9700 C   0  0  0  0  0  0  0  0  0  0  0  0
   59.4730   29.6870   46.8220 C   0  0  0  0  0  0  0  0  0  0  0  0
   60.4210   29.5960   47.8990 N   0  0  0  0  0  0  0  0  0  0  0  0
   60.8680   30.6900   48.7120 C   0  0  0  0  0  0  0  0  0  0  0  0
   60.6510   30.6480   49.9520 O   0  0  0  0  0  0  0  0  0  0  0  0
   61.6640   31.8030   48.1430 C   0  0  0  0  0  0  0  0  0  0  0  0
   62.9560   31.5190   47.6640 C   0  0  0  0  0  0  0  0  0  0  0  0
   63.7560   32.5290   47.1310 C   0  0  0  0  0  0  0  0  0  0  0  0
   63.2790   33.8380   47.0710 C   0  0  0  0  0  0  0  0  0  0  0  0
   61.9990   34.1380   47.5360 C   0  0  0  0  0  0  0  0  0  0  0  0
   61.1770   33.1330   48.0720 C   0  0  0  0  0  0  0  0  0  0  0  0
   59.5450   33.5730   48.6060 S   0  0  0  0  0  0  0  0  0  0  0  0
   59.1420   34.9060   48.0380 O   0  0  0  0  0  0  0  0  0  0  0  0
   58.5670   32.5370   48.1230 O   0  0  0  0  0  0  0  0  0  0  0  0
   59.4870   33.6550   50.3350 N   0  0  0  0  0  0  0  0  0  0  0  0
   58.5180   32.9470   51.1070 C   0  0  0  0  0  0  0  0  0  0  0  0
   57.8930   33.5320   52.0330 O   0  0  0  0  0  0  0  0  0  0  0  0
   58.2360   31.5760   50.7930 N   0  0  0  0  0  0  0  0  0  0  0  0
   57.5300   30.6760   51.6640 C   0  0  0  0  0  0  0  0  0  0  0  0
   56.1640   30.8520   51.9530 C   0  0  0  0  0  0  0  0  0  0  0  0
   55.5080   29.9790   52.8270 C   0  0  0  0  0  0  0  0  0  0  0  0
   56.2130   28.9340   53.4340 C   0  0  0  0  0  0  0  0  0  0  0  0
   55.3890   27.8420   54.5320 Cl  0  0  0  0  0  0  0  0  0  0  0  0
   57.5740   28.7650   53.1680 C   0  0  0  0  0  0  0  0  0  0  0  0
   58.2320   29.6350   52.2930 C   0  0  0  0  0  0  0  0  0  0  0  0
   58.5218   27.7863   48.5945 H   0  0  0  0  0  0  0  0  0  0  0  0
   57.6214   26.8547   47.3504 H   0  0  0  0  0  0  0  0  0  0  0  0
   59.4176   26.8502   47.3504 H   0  0  0  0  0  0  0  0  0  0  0  0
   56.8772   27.9345   45.4254 H   0  0  0  0  0  0  0  0  0  0  0  0
   56.7460   27.7580   42.8850 H   0  0  0  0  0  0  0  0  0  0  0  0
   55.8910   28.5630   41.6880 H   0  0  0  0  0  0  0  0  0  0  0  0
   58.5359   31.7545   44.2575 H   0  0  0  0  0  0  0  0  0  0  0  0
   60.1735   31.6201   46.1266 H   0  0  0  0  0  0  0  0  0  0  0  0
   63.3392   30.4890   47.7105 H   0  0  0  0  0  0  0  0  0  0  0  0
   64.7635   32.2932   46.7578 H   0  0  0  0  0  0  0  0  0  0  0  0
   63.9134   34.6352   46.6562 H   0  0  0  0  0  0  0  0  0  0  0  0
   61.6291   35.1726   47.4825 H   0  0  0  0  0  0  0  0  0  0  0  0
   58.5250   31.2290   49.8500 H   0  0  0  0  0  0  0  0  0  0  0  0
   55.6091   31.6807   51.4890 H   0  0  0  0  0  0  0  0  0  0  0  0
   54.4368   30.1142   53.0373 H   0  0  0  0  0  0  0  0  0  0  0  0
   58.1293   27.9457   53.6479 H   0  0  0  0  0  0  0  0  0  0  0  0
   59.3062   29.5031   52.0962 H   0  0  0  0  0  0  0  0  0  0  0  0
  1  2  1  0
  2  3  2  0
  3  4  1  0
  4  5  1  0
  5  6  1  0
  5  7  2  0
  5  8  2  0
  4  9  2  0
  9 10  1  0
 10 11  2  0
 11 12  1  0
 12 13  1  0
 13 14  2  0
 13 15  1  0
 15 16  2  0
 16 17  1  0
 17 18  2  0
 18 19  1  0
 19 20  2  0
 20 21  1  0
 21 22  2  0
 21 23  2  0
 21 24  1  0
 24 25  1  0
 25 26  2  0
 25 27  1  0
 27 28  1  0
 28 29  2  0
 29 30  1  0
 30 31  2  0
 31 32  1  0
 31 33  1  0
 33 34  2  0
 11  2  1  0
 20 15  1  0
 34 28  1  0
  1 35  1  0
  1 36  1  0
  1 37  1  0
  3 38  1  0
  6 39  1  0
  6 40  1  0
  9 41  1  0
 10 42  1  0
 16 43  1  0
 17 44  1  0
 18 45  1  0
 19 46  1  0
 27 47  1  0
 29 48  1  0
 30 49  1  0
 33 50  1  0
 34 51  1  0
M  CHG  2  12  -1  24  -1
M  END
>  <UniqueID>  (12) 
9

>  <SMILES>  (12) 
Cc1cc(S(N)(=O)=O)ccc1[N-]C(=O)c1ccccc1S(=O)(=O)[N-]C(=O)Nc1ccc(Cl)cc1

>  <Energy>  (12) 
66.86064731094017

>  <Genealogy>  (12) 
Cc1cc(S(N)(=O)=O)ccc1[N-]C(=O)c1ccccc1S(=O)(=O)[N-]C(=O)Nc1ccc(Cl)cc1 (protonated)
Cc1cc(S(N)(=O)=O)ccc1[N-]C(=O)c1ccccc1S(=O)(=O)[N-]C(=O)Nc1ccc(Cl)cc1 (3D coordinates assigned)
Cc1cc(S(N)(=O)=O)ccc1[N-]C(=O)c1ccccc1S(=O)(=O)[N-]C(=O)Nc1ccc(Cl)cc1 (optimized conformer: 66.86064731094017 kcal/mol)

>  <smiles>  (12) 
Cc1cc(S(N)(=O)=O)ccc1NC(=O)c1ccccc1S(=O)(=O)NC(=O)Nc1ccc(Cl)cc1

>  <score_type>  (12) 
oracle

>  <origin>  (12) 
adg

>  <m_score__min__energy>  (12) 
-11.289999999999999

>  <m_primary>  (12) 
energy

$$$$
12:0
     RDKit          3D

 45 47  0  0  0  0  0  0  0  0999 V2000
   62.1090   31.2420   47.3510 C   0  0  0  0  0  0  0  0  0  0  0  0
   61.0990   30.9660   46.3870 O   0  0  0  0  0  0  0  0  0  0  0  0
   60.3160   29.8000   46.3650 C   0  0  0  0  0  0  0  0  0  0  0  0
   60.4860   28.8100   45.3760 C   0  0  0  0  0  0  0  0  0  0  0  0
   59.6950   27.6590   45.3850 C   0  0  0  0  0  0  0  0  0  0  0  0
   58.7210   27.4850   46.3690 C   0  0  0  0  0  0  0  0  0  0  0  0
   57.7190   26.0460   46.3670 Cl  0  0  0  0  0  0  0  0  0  0  0  0
   58.5390   28.4610   47.3520 C   0  0  0  0  0  0  0  0  0  0  0  0
   59.3440   29.6160   47.3680 C   0  0  0  0  0  0  0  0  0  0  0  0
   59.1520   30.6300   48.3700 N   0  0  0  0  0  0  0  0  0  0  0  0
   58.7010   30.3580   49.7070 C   0  0  0  0  0  0  0  0  0  0  0  0
   58.6270   29.1730   50.1310 O   0  0  0  0  0  0  0  0  0  0  0  0
   58.4000   31.4900   50.6360 C   0  0  0  0  0  0  0  0  0  0  0  0
   58.4590   32.7150   49.9150 O   0  0  0  0  0  0  0  0  0  0  0  0
   59.6580   33.2530   49.4390 C   0  0  0  0  0  0  0  0  0  0  0  0
   60.7490   32.6420   49.6040 O   0  0  0  0  0  0  0  0  0  0  0  0
   59.6400   34.5630   48.7200 C   0  0  0  0  0  0  0  0  0  0  0  0
   59.3730   34.3430   47.2670 C   0  0  0  0  0  0  0  0  0  0  0  0
   58.7680   33.2390   46.7780 N   0  0  0  0  0  0  0  0  0  0  0  0
   58.5760   33.3060   45.4290 C   0  0  0  0  0  0  0  0  0  0  0  0
   57.9260   32.1970   44.6850 C   0  0  0  0  0  0  0  0  0  0  0  0
   57.7630   32.2440   43.2850 C   0  0  0  0  0  0  0  0  0  0  0  0
   57.1540   31.1840   42.6050 C   0  0  0  0  0  0  0  0  0  0  0  0
   56.7010   30.0670   43.3090 C   0  0  0  0  0  0  0  0  0  0  0  0
   56.8600   30.0040   44.6950 C   0  0  0  0  0  0  0  0  0  0  0  0
   57.4710   31.0590   45.3810 C   0  0  0  0  0  0  0  0  0  0  0  0
   59.0190   34.4970   44.8440 C   0  0  0  0  0  0  0  0  0  0  0  0
   59.6640   35.4690   46.0550 S   0  0  0  0  0  0  0  0  0  0  0  0
   61.6916   31.1279   48.3623 H   0  0  0  0  0  0  0  0  0  0  0  0
   62.9448   30.5393   47.2179 H   0  0  0  0  0  0  0  0  0  0  0  0
   62.4713   32.2721   47.2179 H   0  0  0  0  0  0  0  0  0  0  0  0
   61.2462   28.9448   44.5925 H   0  0  0  0  0  0  0  0  0  0  0  0
   59.8402   26.8876   44.6144 H   0  0  0  0  0  0  0  0  0  0  0  0
   57.7616   28.3262   48.1185 H   0  0  0  0  0  0  0  0  0  0  0  0
   59.4330   31.6120   48.1440 H   0  0  0  0  0  0  0  0  0  0  0  0
   57.3931   31.3605   51.0596 H   0  0  0  0  0  0  0  0  0  0  0  0
   59.1381   31.5052   51.4515 H   0  0  0  0  0  0  0  0  0  0  0  0
   58.8498   35.2004   49.1434 H   0  0  0  0  0  0  0  0  0  0  0  0
   60.6174   35.0538   48.8379 H   0  0  0  0  0  0  0  0  0  0  0  0
   58.1175   33.1209   42.7234 H   0  0  0  0  0  0  0  0  0  0  0  0
   57.0318   31.2308   41.5128 H   0  0  0  0  0  0  0  0  0  0  0  0
   56.2189   29.2367   42.7722 H   0  0  0  0  0  0  0  0  0  0  0  0
   56.5039   29.1227   45.2486 H   0  0  0  0  0  0  0  0  0  0  0  0
   57.5973   31.0000   46.4721 H   0  0  0  0  0  0  0  0  0  0  0  0
   58.9562   34.7534   43.7761 H   0  0  0  0  0  0  0  0  0  0  0  0
  1  2  1  0
  2  3  1  0
  3  4  2  0
  4  5  1  0
  5  6  2  0
  6  7  1  0
  6  8  1  0
  8  9  2  0
  9 10  1  0
 10 11  1  0
 11 12  2  0
 11 13  1  0
 13 14  1  0
 14 15  1  0
 15 16  2  0
 15 17  1  0
 17 18  1  0
 18 19  2  0
 19 20  1  0
 20 21  1  0
 21 22  2  0
 22 23  1  0
 23 24  2  0
 24 25  1  0
 25 26  2  0
 20 27  2  0
 27 28  1  0
  9  3  1  0
 28 18  1  0
 26 21  1  0
  1 29  1  0
  1 30  1  0
  1 31  1  0
  4 32  1  0
  5 33  1  0
  8 34  1  0
 10 35  1  0
 13 36  1  0
 13 37  1  0
 17 38  1  0
 17 39  1  0
 22 40  1  0
 23 41  1  0
 24 42  1  0
 25 43  1  0
 26 44  1  0
 27 45  1  0
M  END
>  <UniqueID>  (13) 
10

>  <SMILES>  (13) 
COc1ccc(Cl)cc1NC(=O)COC(=O)Cc1nc(-c2ccccc2)cs1

>  <Energy>  (13) 
76.05162758816353

>  <Genealogy>  (13) 
COc1ccc(Cl)cc1NC(=O)COC(=O)Cc1nc(-c2ccccc2)cs1 (3D coordinates assigned)
COc1ccc(Cl)cc1NC(=O)COC(=O)Cc1nc(-c2ccccc2)cs1 (optimized conformer: 76.05162758816353 kcal/mol)

>  <smiles>  (13) 
COc1ccc(Cl)cc1NC(=O)COC(=O)Cc1nc(-c2ccccc2)cs1

>  <score_type>  (13) 
oracle

>  <origin>  (13) 
adg

>  <m_score__min__energy>  (13) 
-7.4100000000000001

>  <m_primary>  (13) 
energy

$$$$
13:0
     RDKit          3D

 51 53  0  0  0  0  0  0  0  0999 V2000
   56.7180   31.3460   51.9860 C   0  0  0  0  0  0  0  0  0  0  0  0
   57.8830   31.3090   50.9980 C   0  0  0  0  0  0  0  0  0  0  0  0
   58.7030   32.6130   50.9760 C   0  0  0  0  0  0  0  0  0  0  0  0
   59.2440   33.0090   49.5910 C   0  0  0  0  0  0  0  0  0  0  0  0
   60.1560   34.2410   49.6390 C   0  0  0  0  0  0  0  0  0  0  0  0
   61.3460   34.2190   48.2520 S   0  0  0  0  0  0  0  0  0  0  0  0
   60.2630   33.3030   47.1580 C   0  0  0  0  0  0  0  0  0  0  0  0
   60.2900   32.0060   47.1590 N   0  0  0  0  0  0  0  0  0  0  0  0
   59.5060   31.2180   46.2090 C   0  0  1  0  0  0  0  0  0  0  0  0
   59.2830   29.8350   46.7590 C   0  0  0  0  0  0  0  0  0  0  0  0
   59.4330   29.4470   48.0880 C   0  0  0  0  0  0  0  0  0  0  0  0
   59.2190   28.1180   48.2200 N   0  0  0  0  0  0  0  0  0  0  0  0
   58.9480   27.6600   46.9860 C   0  0  0  0  0  0  0  0  0  0  0  0
   58.6790   26.3440   46.6150 C   0  0  0  0  0  0  0  0  0  0  0  0
   58.4320   26.0810   45.2550 C   0  0  0  0  0  0  0  0  0  0  0  0
   58.4620   27.1270   44.3050 C   0  0  0  0  0  0  0  0  0  0  0  0
   58.1440   26.7820   42.6150 Cl  0  0  0  0  0  0  0  0  0  0  0  0
   58.7440   28.4460   44.7080 C   0  0  0  0  0  0  0  0  0  0  0  0
   58.9810   28.6770   46.0650 C   0  0  0  0  0  0  0  0  0  0  0  0
   58.1650   31.9200   45.8800 C   0  0  2  0  0  0  0  0  0  0  0  0
   57.5110   31.2690   44.6900 C   0  0  0  0  0  0  0  0  0  0  0  0
   58.0110   31.4190   43.5410 O   0  0  0  0  0  0  0  0  0  0  0  0
   56.3570   30.4990   44.8670 O   0  0  0  0  0  0  0  0  0  0  0  0
   55.7490   29.7740   43.8050 C   0  0  0  0  0  0  0  0  0  0  0  0
   58.4040   33.4030   45.6530 C   0  0  0  0  0  0  0  0  0  0  0  0
   57.4310   34.2340   44.8670 C   0  0  0  0  0  0  0  0  0  0  0  0
   59.3520   34.0090   46.3070 N   0  0  0  0  0  0  0  0  0  0  0  0
   57.1087   31.3336   53.0142 H   0  0  0  0  0  0  0  0  0  0  0  0
   56.1318   32.2632   51.8275 H   0  0  0  0  0  0  0  0  0  0  0  0
   56.0748   30.4678   51.8275 H   0  0  0  0  0  0  0  0  0  0  0  0
   58.5512   30.4807   51.2765 H   0  0  0  0  0  0  0  0  0  0  0  0
   57.4550   31.1755   49.9935 H   0  0  0  0  0  0  0  0  0  0  0  0
   58.0598   33.4284   51.3386 H   0  0  0  0  0  0  0  0  0  0  0  0
   59.5816   32.4383   51.6144 H   0  0  0  0  0  0  0  0  0  0  0  0
   59.8169   32.1634   49.1826 H   0  0  0  0  0  0  0  0  0  0  0  0
   58.3805   33.2608   48.9578 H   0  0  0  0  0  0  0  0  0  0  0  0
   59.5394   35.1494   49.5713 H   0  0  0  0  0  0  0  0  0  0  0  0
   60.7162   34.2294   50.5856 H   0  0  0  0  0  0  0  0  0  0  0  0
   60.0668   31.1321   45.2666 H   0  0  0  0  0  0  0  0  0  0  0  0
   59.6895   30.1261   48.9145 H   0  0  0  0  0  0  0  0  0  0  0  0
   59.2720   27.5620   49.1030 H   0  0  0  0  0  0  0  0  0  0  0  0
   58.6604   25.5364   47.3617 H   0  0  0  0  0  0  0  0  0  0  0  0
   58.2139   25.0534   44.9287 H   0  0  0  0  0  0  0  0  0  0  0  0
   58.7767   29.2681   43.9779 H   0  0  0  0  0  0  0  0  0  0  0  0
   57.4761   31.8139   46.7310 H   0  0  0  0  0  0  0  0  0  0  0  0
   55.0947   28.9938   44.2211 H   0  0  0  0  0  0  0  0  0  0  0  0
   55.1529   30.4609   43.1863 H   0  0  0  0  0  0  0  0  0  0  0  0
   56.5292   29.3066   43.1863 H   0  0  0  0  0  0  0  0  0  0  0  0
   56.7807   34.7894   45.5588 H   0  0  0  0  0  0  0  0  0  0  0  0
   57.9831   34.9436   44.2332 H   0  0  0  0  0  0  0  0  0  0  0  0
   56.8165   33.5777   44.2332 H   0  0  0  0  0  0  0  0  0  0  0  0
  1  2  1  0
  2  3  1  0
  3  4  1  0
  4  5  1  0
  5  6  1  0
  6  7  1  0
  7  8  2  0
  8  9  1  0
  9 10  1  0
 10 11  2  0
 11 12  1  0
 12 13  1  0
 13 14  2  0
 14 15  1  0
 15 16  2  0
 16 17  1  0
 16 18  1  0
 18 19  2  0
  9 20  1  0
 20 21  1  0
 21 22  2  0
 21 23  1  0
 23 24  1  0
 20 25  1  0
 25 26  1  0
 25 27  2  0
 27  7  1  0
 19 10  1  0
 19 13  1  0
  1 28  1  0
  1 29  1  0
  1 30  1  0
  2 31  1  0
  2 32  1  0
  3 33  1  0
  3 34  1  0
  4 35  1  0
  4 36  1  0
  5 37  1  0
  5 38  1  0
  9 39  1  6
 11 40  1  0
 12 41  1  0
 14 42  1  0
 15 43  1  0
 18 44  1  0
 20 45  1  1
 24 46  1  0
 24 47  1  0
 24 48  1  0
 26 49  1  0
 26 50  1  0
 26 51  1  0
M  END
>  <UniqueID>  (14) 
11

>  <SMILES>  (14) 
CCCCCSC1=N[C@@H](c2c[nH]c3ccc(Cl)cc23)[C@H](C(=O)OC)C(C)=N1

>  <Energy>  (14) 
70.4613628238466

>  <Genealogy>  (14) 
CCCCCSC1=N[C@@H](c2c[nH]c3ccc(Cl)cc23)[C@H](C(=O)OC)C(C)=N1 (chirality)
CCCCCSC1=N[C@@H](c2c[nH]c3ccc(Cl)cc23)[C@H](C(=O)OC)C(C)=N1 (3D coordinates assigned)
CCCCCSC1=N[C@@H](c2c[nH]c3ccc(Cl)cc23)[C@H](C(=O)OC)C(C)=N1 (nonaromatic ring conformer: 70.4613628238466 kcal/mol)

>  <smiles>  (14) 
CCCCCSC1=NC(c2c[nH]c3ccc(Cl)cc23)C(C(=O)OC)C(C)=N1

>  <score_type>  (14) 
oracle

>  <origin>  (14) 
adg

>  <m_score__min__energy>  (14) 
-8.3399999999999999

>  <m_primary>  (14) 
energy

$$$$
14:0
     RDKit          3D

 59 62  0  0  0  0  0  0  0  0999 V2000
   62.0250   34.2610   48.9480 N   0  0  0  0  0  0  0  0  0  0  0  0
   61.5890   32.6460   49.3900 S   0  0  0  0  0  0  0  0  0  0  0  0
   61.2580   31.8840   48.1360 O   0  0  0  0  0  0  0  0  0  0  0  0
   62.7530   31.9960   50.0810 O   0  0  0  0  0  0  0  0  0  0  0  0
   60.1920   32.6670   50.4800 C   0  0  0  0  0  0  0  0  0  0  0  0
   59.9400   33.8280   51.2310 C   0  0  0  0  0  0  0  0  0  0  0  0
   58.8330   33.9000   52.0790 C   0  0  0  0  0  0  0  0  0  0  0  0
   57.9610   32.8160   52.1880 C   0  0  0  0  0  0  0  0  0  0  0  0
   58.1990   31.6510   51.4550 C   0  0  0  0  0  0  0  0  0  0  0  0
   59.3180   31.5580   50.6080 C   0  0  0  0  0  0  0  0  0  0  0  0
   59.5410   30.2960   49.8740 C   0  0  0  0  0  0  0  0  0  0  0  0
   60.7080   29.5510   50.0930 C   0  0  0  0  0  0  0  0  0  0  0  0
   60.9030   28.3380   49.4260 C   0  0  0  0  0  0  0  0  0  0  0  0
   59.9350   27.8510   48.5400 C   0  0  0  0  0  0  0  0  0  0  0  0
   60.1650   26.5930   47.8900 N   0  0  0  0  0  0  0  0  0  0  0  0
   60.4600   26.4020   46.4990 C   0  0  0  0  0  0  0  0  0  0  0  0
   60.6420   25.2460   46.0320 O   0  0  0  0  0  0  0  0  0  0  0  0
   60.6410   27.5950   45.6120 C   0  0  0  0  0  0  0  0  0  0  0  0
   59.3520   28.2170   45.3200 N   0  0  0  0  0  0  0  0  0  0  0  0
   58.1390   27.6360   45.3840 C   0  0  0  0  0  0  0  0  0  0  0  0
   57.1390   28.4940   45.0900 N   0  0  0  0  0  0  0  0  0  0  0  0
   57.7760   29.6570   44.8360 C   0  0  0  0  0  0  0  0  0  0  0  0
   56.9570   31.1380   44.3680 S   0  0  0  0  0  0  0  0  0  0  0  0
   55.5010   30.8330   44.1500 O   0  0  0  0  0  0  0  0  0  0  0  0
   57.5430   31.6390   43.0790 O   0  0  0  0  0  0  0  0  0  0  0  0
   57.1210   32.3430   45.6220 N   0  0  0  0  0  0  0  0  0  0  0  0
   58.1930   31.9470   46.5630 C   0  0  0  0  0  0  0  0  0  0  0  0
   58.7140   33.1430   47.3680 C   0  0  0  0  0  0  0  0  0  0  0  0
   59.3330   34.2170   46.4460 C   0  0  0  0  0  0  0  0  0  0  0  0
   60.7270   34.0500   46.3740 O   0  0  0  0  0  0  0  0  0  0  0  0
   58.7480   34.1650   45.0190 C   0  0  0  0  0  0  0  0  0  0  0  0
   57.2860   33.6980   45.0380 C   0  0  0  0  0  0  0  0  0  0  0  0
   59.1330   29.4990   44.9780 C   0  0  0  0  0  0  0  0  0  0  0  0
   58.7910   28.6250   48.2790 C   0  0  0  0  0  0  0  0  0  0  0  0
   58.5960   29.8380   48.9460 C   0  0  0  0  0  0  0  0  0  0  0  0
   62.2100   34.2580   47.9200 H   0  0  0  0  0  0  0  0  0  0  0  0
   62.9330   34.4710   49.4150 H   0  0  0  0  0  0  0  0  0  0  0  0
   60.6212   34.6879   51.1500 H   0  0  0  0  0  0  0  0  0  0  0  0
   58.6478   34.8138   52.6627 H   0  0  0  0  0  0  0  0  0  0  0  0
   57.0858   32.8790   52.8514 H   0  0  0  0  0  0  0  0  0  0  0  0
   57.5066   30.8006   51.5408 H   0  0  0  0  0  0  0  0  0  0  0  0
   61.4725   29.9219   50.7916 H   0  0  0  0  0  0  0  0  0  0  0  0
   61.8240   27.7620   49.5987 H   0  0  0  0  0  0  0  0  0  0  0  0
   61.2894   28.3262   46.1169 H   0  0  0  0  0  0  0  0  0  0  0  0
   61.1002   27.2688   44.6672 H   0  0  0  0  0  0  0  0  0  0  0  0
   57.9805   26.5796   45.6466 H   0  0  0  0  0  0  0  0  0  0  0  0
   57.7951   31.1948   47.2600 H   0  0  0  0  0  0  0  0  0  0  0  0
   59.0294   31.5390   45.9765 H   0  0  0  0  0  0  0  0  0  0  0  0
   57.8783   33.5896   47.9267 H   0  0  0  0  0  0  0  0  0  0  0  0
   59.4952   32.7842   48.0543 H   0  0  0  0  0  0  0  0  0  0  0  0
   59.0884   35.1960   46.8839 H   0  0  0  0  0  0  0  0  0  0  0  0
   60.9960   33.5280   47.1730 H   0  0  0  0  0  0  0  0  0  0  0  0
   58.7986   35.1693   44.5731 H   0  0  0  0  0  0  0  0  0  0  0  0
   59.3359   33.4488   44.4262 H   0  0  0  0  0  0  0  0  0  0  0  0
   56.6972   34.4112   45.6336 H   0  0  0  0  0  0  0  0  0  0  0  0
   56.9398   33.6528   43.9949 H   0  0  0  0  0  0  0  0  0  0  0  0
   59.8984   30.2766   44.8380 H   0  0  0  0  0  0  0  0  0  0  0  0
   58.0472   28.2753   47.5479 H   0  0  0  0  0  0  0  0  0  0  0  0
   57.6959   30.4362   48.7413 H   0  0  0  0  0  0  0  0  0  0  0  0
  1  2  1  0
  2  3  2  0
  2  4  2  0
  2  5  1  0
  5  6  2  0
  6  7  1  0
  7  8  2  0
  8  9  1  0
  9 10  2  0
 10 11  1  0
 11 12  2  0
 12 13  1  0
 13 14  2  0
 14 15  1  0
 15 16  1  0
 16 17  2  0
 16 18  1  0
 18 19  1  0
 19 20  1  0
 20 21  2  0
 21 22  1  0
 22 23  1  0
 23 24  2  0
 23 25  2  0
 23 26  1  0
 26 27  1  0
 27 28  1  0
 28 29  1  0
 29 30  1  0
 29 31  1  0
 31 32  1  0
 22 33  2  0
 14 34  1  0
 34 35  2  0
 10  5  1  0
 35 11  1  0
 33 19  1  0
 32 26  1  0
  1 36  1  0
  1 37  1  0
  6 38  1  0
  7 39  1  0
  8 40  1  0
  9 41  1  0
 12 42  1  0
 13 43  1  0
 18 44  1  0
 18 45  1  0
 20 46  1  0
 27 47  1  0
 27 48  1  0
 28 49  1  0
 28 50  1  0
 29 51  1  0
 30 52  1  0
 31 53  1  0
 31 54  1  0
 32 55  1  0
 32 56  1  0
 33 57  1  0
 34 58  1  0
 35 59  1  0
M  CHG  1  15  -1
M  END
>  <UniqueID>  (15) 
12

>  <SMILES>  (15) 
NS(=O)(=O)c1ccccc1-c1ccc([N-]C(=O)Cn2cnc(S(=O)(=O)N3CCC(O)CC3)c2)cc1

>  <Energy>  (15) 
106.58016023295552

>  <Genealogy>  (15) 
NS(=O)(=O)c1ccccc1-c1ccc([N-]C(=O)Cn2cnc(S(=O)(=O)N3CCC(O)CC3)c2)cc1 (protonated)
NS(=O)(=O)c1ccccc1-c1ccc([N-]C(=O)Cn2cnc(S(=O)(=O)N3CCC(O)CC3)c2)cc1 (3D coordinates assigned)
NS(=O)(=O)c1ccccc1-c1ccc([N-]C(=O)Cn2cnc(S(=O)(=O)N3CCC(O)CC3)c2)cc1 (nonaromatic ring conformer: 106.58016023295552 kcal/mol)

>  <smiles>  (15) 
NS(=O)(=O)c1ccccc1-c1ccc(NC(=O)Cn2cnc(S(=O)(=O)N3CCC(O)CC3)c2)cc1

>  <score_type>  (15) 
oracle

>  <origin>  (15) 
adg

>  <m_score__min__energy>  (15) 
-11.92

>  <m_primary>  (15) 
energy

$$$$
15:0
     RDKit          3D

 48 50  0  0  0  0  0  0  0  0999 V2000
   59.7080   26.4140   46.3240 C   0  0  0  0  0  0  0  0  0  0  0  0
   59.3110   27.8580   46.2400 C   0  0  0  0  0  0  0  0  0  0  0  0
   60.0460   28.8370   46.9250 C   0  0  0  0  0  0  0  0  0  0  0  0
   59.6930   30.1880   46.8330 C   0  0  0  0  0  0  0  0  0  0  0  0
   60.4540   31.1320   47.5370 O   0  0  0  0  0  0  0  0  0  0  0  0
   60.2090   31.5660   48.8480 C   0  0  0  0  0  0  0  0  0  0  0  0
   61.0180   32.5290   49.4770 C   0  0  0  0  0  0  0  0  0  0  0  0
   60.7200   32.9610   50.7710 C   0  0  0  0  0  0  0  0  0  0  0  0
   59.6110   32.4440   51.4450 C   0  0  0  0  0  0  0  0  0  0  0  0
   58.7950   31.4790   50.8340 C   0  0  0  0  0  0  0  0  0  0  0  0
   57.6330   30.9990   51.5320 N   0  0  0  0  0  0  0  0  0  0  0  0
   57.6100   29.8050   52.3350 C   0  0  0  0  0  0  0  0  0  0  0  0
   58.6720   29.1690   52.5670 O   0  0  0  0  0  0  0  0  0  0  0  0
   56.3760   29.2950   52.8580 N   0  0  0  0  0  0  0  0  0  0  0  0
   55.1040   29.9500   52.7930 C   0  0  0  0  0  0  0  0  0  0  0  0
   54.2080   29.9200   53.8760 C   0  0  0  0  0  0  0  0  0  0  0  0
   52.9550   30.5310   53.7690 C   0  0  0  0  0  0  0  0  0  0  0  0
   52.5790   31.1670   52.5780 C   0  0  0  0  0  0  0  0  0  0  0  0
   50.9990   31.9300   52.4580 S   0  0  0  0  0  0  0  0  0  0  0  0
   49.9480   30.9780   52.9540 O   0  0  0  0  0  0  0  0  0  0  0  0
   50.9810   33.1800   53.2900 O   0  0  0  0  0  0  0  0  0  0  0  0
   50.6610   32.3300   50.8610 O   0  0  0  0  0  0  0  0  0  0  0  0
   53.4650   31.1810   51.4910 C   0  0  0  0  0  0  0  0  0  0  0  0
   54.7150   30.5630   51.5970 C   0  0  0  0  0  0  0  0  0  0  0  0
   59.0900   31.0630   49.5230 C   0  0  0  0  0  0  0  0  0  0  0  0
   58.6220   30.5660   46.0040 C   0  0  0  0  0  0  0  0  0  0  0  0
   57.8990   29.5990   45.2940 C   0  0  0  0  0  0  0  0  0  0  0  0
   56.5550   30.0870   44.2660 S   0  0  0  0  0  0  0  0  0  0  0  0
   55.1960   29.0660   44.5690 N   0  0  0  0  0  0  0  0  0  0  0  0
   56.9480   29.9800   42.8190 O   0  0  0  0  0  0  0  0  0  0  0  0
   56.1860   31.5130   44.5620 O   0  0  0  0  0  0  0  0  0  0  0  0
   58.2410   28.2460   45.4190 C   0  0  0  0  0  0  0  0  0  0  0  0
   59.7897   26.1170   47.3800 H   0  0  0  0  0  0  0  0  0  0  0  0
   58.9467   25.7949   45.8268 H   0  0  0  0  0  0  0  0  0  0  0  0
   60.6788   26.2711   45.8268 H   0  0  0  0  0  0  0  0  0  0  0  0
   60.9080   28.5399   47.5403 H   0  0  0  0  0  0  0  0  0  0  0  0
   61.8887   32.9435   48.9478 H   0  0  0  0  0  0  0  0  0  0  0  0
   61.3598   33.7099   51.2606 H   0  0  0  0  0  0  0  0  0  0  0  0
   59.3758   32.7952   52.4606 H   0  0  0  0  0  0  0  0  0  0  0  0
   56.7650   31.5740   51.4640 H   0  0  0  0  0  0  0  0  0  0  0  0
   54.4936   29.4144   54.8102 H   0  0  0  0  0  0  0  0  0  0  0  0
   52.2617   30.5125   54.6228 H   0  0  0  0  0  0  0  0  0  0  0  0
   53.1763   31.6789   50.5536 H   0  0  0  0  0  0  0  0  0  0  0  0
   55.3971   30.5588   50.7341 H   0  0  0  0  0  0  0  0  0  0  0  0
   58.4347   30.3348   49.0227 H   0  0  0  0  0  0  0  0  0  0  0  0
   58.3502   31.6280   45.9125 H   0  0  0  0  0  0  0  0  0  0  0  0
   55.1780   28.8770   45.5970 H   0  0  0  0  0  0  0  0  0  0  0  0
   57.6678   27.4839   44.8707 H   0  0  0  0  0  0  0  0  0  0  0  0
  1  2  1  0
  2  3  2  0
  3  4  1  0
  4  5  1  0
  5  6  1  0
  6  7  2  0
  7  8  1  0
  8  9  2  0
  9 10  1  0
 10 11  1  0
 11 12  1  0
 12 13  2  0
 12 14  1  0
 14 15  1  0
 15 16  2  0
 16 17  1  0
 17 18  2  0
 18 19  1  0
 19 20  2  0
 19 21  2  0
 19 22  1  0
 18 23  1  0
 23 24  2  0
 10 25  2  0
  4 26  2  0
 26 27  1  0
 27 28  1  0
 28 29  1  0
 28 30  2  0
 28 31  2  0
 27 32  2  0
 32  2  1  0
 25  6  1  0
 24 15  1  0
  1 33  1  0
  1 34  1  0
  1 35  1  0
  3 36  1  0
  7 37  1  0
  8 38  1  0
  9 39  1  0
 11 40  1  0
 16 41  1  0
 17 42  1  0
 23 43  1  0
 24 44  1  0
 25 45  1  0
 26 46  1  0
 29 47  1  0
 32 48  1  0
M  CHG  3  14  -1  22  -1  29  -1
M  END
>  <UniqueID>  (16) 
13

>  <SMILES>  (16) 
Cc1cc(Oc2cccc(NC(=O)[N-]c3ccc(S(=O)(=O)[O-])cc3)c2)cc(S([NH-])(=O)=O)c1

>  <Energy>  (16) 
65.08818503447688

>  <Genealogy>  (16) 
Cc1cc(Oc2cccc(NC(=O)[N-]c3ccc(S(=O)(=O)[O-])cc3)c2)cc(S([NH-])(=O)=O)c1 (protonated)
Cc1cc(Oc2cccc(NC(=O)[N-]c3ccc(S(=O)(=O)[O-])cc3)c2)cc(S([NH-])(=O)=O)c1 (3D coordinates assigned)
Cc1cc(Oc2cccc(NC(=O)[N-]c3ccc(S(=O)(=O)[O-])cc3)c2)cc(S([NH-])(=O)=O)c1 (optimized conformer: 65.08818503447688 kcal/mol)

>  <smiles>  (16) 
Cc1cc(Oc2cccc(NC(=O)Nc3ccc(S(=O)(=O)O)cc3)c2)cc(S(N)(=O)=O)c1

>  <score_type>  (16) 
oracle

>  <origin>  (16) 
adg

>  <m_score__min__energy>  (16) 
-17.09

>  <m_primary>  (16) 
energy

$$$$
16:0
     RDKit          3D

 58 60  0  0  0  0  0  0  0  0999 V2000
   56.0530   29.7370   43.9810 C   0  0  0  0  0  0  0  0  0  0  0  0
   55.5730   28.7230   44.8600 O   0  0  0  0  0  0  0  0  0  0  0  0
   56.3960   27.8670   45.6080 C   0  0  0  0  0  0  0  0  0  0  0  0
   57.7180   28.2090   45.9550 C   0  0  0  0  0  0  0  0  0  0  0  0
   58.5090   27.3250   46.7060 C   0  0  0  0  0  0  0  0  0  0  0  0
   59.9390   27.6740   47.0260 C   0  0  0  0  0  0  0  0  0  0  0  0
   60.0000   28.6270   48.2260 C   0  0  0  0  0  0  0  0  0  0  0  0
   60.6970   29.8830   47.8750 N   0  0  0  0  0  0  0  0  0  0  0  0
   60.8710   30.1390   46.4230 C   0  0  0  0  0  0  0  0  0  0  0  0
   59.5970   30.5040   45.6830 C   0  0  0  0  0  0  0  0  0  0  0  0
   59.4130   30.0900   44.5080 O   0  0  0  0  0  0  0  0  0  0  0  0
   58.6640   31.4510   46.2210 N   0  0  0  0  0  0  0  0  0  0  0  0
   58.9590   32.5370   47.1100 C   0  0  0  0  0  0  0  0  0  0  0  0
   59.3110   33.8080   46.6260 C   0  0  0  0  0  0  0  0  0  0  0  0
   59.6400   34.8330   47.5160 C   0  0  0  0  0  0  0  0  0  0  0  0
   59.6340   34.5960   48.8930 C   0  0  0  0  0  0  0  0  0  0  0  0
   59.3090   33.3250   49.3850 C   0  0  0  0  0  0  0  0  0  0  0  0
   59.3450   33.0190   51.1180 S   0  0  0  0  0  0  0  0  0  0  0  0
   60.7300   33.7830   51.8190 N   0  0  0  0  0  0  0  0  0  0  0  0
   58.1080   33.5730   51.7660 O   0  0  0  0  0  0  0  0  0  0  0  0
   59.4140   31.5380   51.3610 O   0  0  0  0  0  0  0  0  0  0  0  0
   58.9870   32.2950   48.4890 C   0  0  0  0  0  0  0  0  0  0  0  0
   61.8580   30.2430   48.7220 C   0  0  0  0  0  0  0  0  0  0  0  0
   62.4490   31.5970   48.4060 C   0  0  0  0  0  0  0  0  0  0  0  0
   63.1060   31.8190   47.1850 C   0  0  0  0  0  0  0  0  0  0  0  0
   63.6490   33.0730   46.8920 C   0  0  0  0  0  0  0  0  0  0  0  0
   63.5330   34.1180   47.8110 C   0  0  0  0  0  0  0  0  0  0  0  0
   62.8650   33.9170   49.0230 C   0  0  0  0  0  0  0  0  0  0  0  0
   62.7490   34.9700   49.9290 O   0  0  0  0  0  0  0  0  0  0  0  0
   62.3180   32.6600   49.3170 C   0  0  0  0  0  0  0  0  0  0  0  0
   57.9810   26.0840   47.0920 C   0  0  0  0  0  0  0  0  0  0  0  0
   56.6690   25.7440   46.7560 C   0  0  0  0  0  0  0  0  0  0  0  0
   55.8790   26.6310   46.0200 C   0  0  0  0  0  0  0  0  0  0  0  0
   54.5750   26.2780   45.6910 O   0  0  0  0  0  0  0  0  0  0  0  0
   56.4502   30.5760   44.5712 H   0  0  0  0  0  0  0  0  0  0  0  0
   56.8514   29.3245   43.3467 H   0  0  0  0  0  0  0  0  0  0  0  0
   55.2279   30.0931   43.3467 H   0  0  0  0  0  0  0  0  0  0  0  0
   58.1335   29.1759   45.6351 H   0  0  0  0  0  0  0  0  0  0  0  0
   60.4920   26.7537   47.2653 H   0  0  0  0  0  0  0  0  0  0  0  0
   60.3897   28.1692   46.1533 H   0  0  0  0  0  0  0  0  0  0  0  0
   58.9755   28.8632   48.5493 H   0  0  0  0  0  0  0  0  0  0  0  0
   60.5574   28.1332   49.0356 H   0  0  0  0  0  0  0  0  0  0  0  0
   61.5845   30.9678   46.3049 H   0  0  0  0  0  0  0  0  0  0  0  0
   61.2248   29.1951   45.9827 H   0  0  0  0  0  0  0  0  0  0  0  0
   59.3276   33.9966   45.5424 H   0  0  0  0  0  0  0  0  0  0  0  0
   59.9045   35.8293   47.1319 H   0  0  0  0  0  0  0  0  0  0  0  0
   59.8847   35.4080   49.5914 H   0  0  0  0  0  0  0  0  0  0  0  0
   61.0510   34.5100   51.1420 H   0  0  0  0  0  0  0  0  0  0  0  0
   58.7549   31.2903   48.8721 H   0  0  0  0  0  0  0  0  0  0  0  0
   61.5333   30.2434   49.7730 H   0  0  0  0  0  0  0  0  0  0  0  0
   62.6421   29.4977   48.5230 H   0  0  0  0  0  0  0  0  0  0  0  0
   63.1938   31.0010   46.4548 H   0  0  0  0  0  0  0  0  0  0  0  0
   64.1684   33.2370   45.9363 H   0  0  0  0  0  0  0  0  0  0  0  0
   63.9682   35.1017   47.5810 H   0  0  0  0  0  0  0  0  0  0  0  0
   62.3590   34.8330   50.8530 H   0  0  0  0  0  0  0  0  0  0  0  0
   61.7834   32.5045   50.2657 H   0  0  0  0  0  0  0  0  0  0  0  0
   58.6023   25.3767   47.6610 H   0  0  0  0  0  0  0  0  0  0  0  0
   56.2560   24.7746   47.0718 H   0  0  0  0  0  0  0  0  0  0  0  0
  1  2  1  0
  2  3  1  0
  3  4  2  0
  4  5  1  0
  5  6  1  0
  6  7  1  0
  7  8  1  0
  8  9  1  0
  9 10  1  0
 10 11  2  0
 10 12  1  0
 12 13  1  0
 13 14  2  0
 14 15  1  0
 15 16  2  0
 16 17  1  0
 17 18  1  0
 18 19  1  0
 18 20  2  0
 18 21  2  0
 17 22  2  0
  8 23  1  0
 23 24  1  0
 24 25  2  0
 25 26  1  0
 26 27  2  0
 27 28  1  0
 28 29  1  0
 28 30  2  0
  5 31  2  0
 31 32  1  0
 32 33  2  0
 33 34  1  0
 33  3  1  0
 22 13  1  0
 30 24  1  0
  1 35  1  0
  1 36  1  0
  1 37  1  0
  4 38  1  0
  6 39  1  0
  6 40  1  0
  7 41  1  0
  7 42  1  0
  9 43  1  0
  9 44  1  0
 14 45  1  0
 15 46  1  0
 16 47  1  0
 19 48  1  0
 22 49  1  0
 23 50  1  0
 23 51  1  0
 25 52  1  0
 26 53  1  0
 27 54  1  0
 29 55  1  0
 30 56  1  0
 31 57  1  0
 32 58  1  0
M  CHG  3  12  -1  19  -1  34  -1
M  END
>  <UniqueID>  (17) 
14

>  <SMILES>  (17) 
COc1cc(CCN(CC(=O)[N-]c2cccc(S([NH-])(=O)=O)c2)Cc2cccc(O)c2)ccc1[O-]

>  <Energy>  (17) 
72.34094495355163

>  <Genealogy>  (17) 
COc1cc(CCN(CC(=O)[N-]c2cccc(S([NH-])(=O)=O)c2)Cc2cccc(O)c2)ccc1[O-] (protonated)
COc1cc(CCN(CC(=O)[N-]c2cccc(S([NH-])(=O)=O)c2)Cc2cccc(O)c2)ccc1[O-] (3D coordinates assigned)
COc1cc(CCN(CC(=O)[N-]c2cccc(S([NH-])(=O)=O)c2)Cc2cccc(O)c2)ccc1[O-] (optimized conformer: 72.34094495355163 kcal/mol)

>  <smiles>  (17) 
COc1cc(CCN(CC(=O)Nc2cccc(S(N)(=O)=O)c2)Cc2cccc(O)c2)ccc1O

>  <score_type>  (17) 
oracle

>  <origin>  (17) 
adg

>  <m_score__min__energy>  (17) 
-16.219999999999999

>  <m_primary>  (17) 
energy

$$$$
17:0
     RDKit          3D

 81 85  0  0  0  0  0  0  0  0999 V2000
   63.4710   31.6890   47.7510 C   0  0  0  0  0  0  0  0  0  0  0  0
   63.6290   33.1540   47.8450 N   0  0  0  0  0  0  0  0  0  0  0  0
   63.0890   33.8380   46.6530 C   0  0  0  0  0  0  0  0  0  0  0  0
   61.5500   33.7630   46.5810 C   0  0  0  0  0  0  0  0  0  0  0  0
   60.9320   33.4810   47.8970 N   0  0  0  0  0  0  0  0  0  0  0  0
   59.4820   33.7810   47.8890 C   0  0  0  0  0  0  0  0  0  0  0  0
   59.1180   34.6240   46.6590 C   0  0  0  0  0  0  0  0  0  0  0  0
   58.2710   33.8320   45.7090 C   0  0  0  0  0  0  0  0  0  0  0  0
   57.2380   34.3560   45.2140 O   0  0  0  0  0  0  0  0  0  0  0  0
   58.6820   32.5130   45.3100 N   0  0  0  0  0  0  0  0  0  0  0  0
   57.8590   31.5770   44.5980 C   0  0  0  0  0  0  0  0  0  0  0  0
   57.7230   31.7020   43.2080 C   0  0  0  0  0  0  0  0  0  0  0  0
   56.9410   30.7900   42.4950 C   0  0  0  0  0  0  0  0  0  0  0  0
   56.3120   29.7350   43.1540 C   0  0  0  0  0  0  0  0  0  0  0  0
   56.4820   29.5610   44.5380 C   0  0  0  0  0  0  0  0  0  0  0  0
   55.8500   28.4790   45.2420 N   0  0  0  0  0  0  0  0  0  0  0  0
   56.4870   27.2530   45.6180 C   0  0  0  0  0  0  0  0  0  0  0  0
   55.9250   26.4980   46.4540 O   0  0  0  0  0  0  0  0  0  0  0  0
   57.8380   26.9260   45.1400 C   0  0  0  0  0  0  0  0  0  0  0  0
   59.0050   27.3810   45.6340 C   0  0  0  0  0  0  0  0  0  0  0  0
   59.2630   28.4640   46.6400 C   0  0  0  0  0  0  0  0  0  0  0  0
   60.3090   29.3680   46.3580 C   0  0  0  0  0  0  0  0  0  0  0  0
   60.6920   30.3280   47.2910 C   0  0  0  0  0  0  0  0  0  0  0  0
   60.0110   30.4490   48.5060 C   0  0  0  0  0  0  0  0  0  0  0  0
   58.9420   29.5980   48.7990 C   0  0  0  0  0  0  0  0  0  0  0  0
   58.2530   29.7430   50.0540 N   0  0  0  0  0  0  0  0  0  0  0  0
   58.2960   30.9160   50.8700 C   0  0  0  0  0  0  0  0  0  0  0  0
   57.5370   31.8860   50.5970 O   0  0  0  0  0  0  0  0  0  0  0  0
   59.2270   31.0320   51.9540 N   0  0  0  0  0  0  0  0  0  0  0  0
   60.6460   30.8420   51.8250 C   0  0  0  0  0  0  0  0  0  0  0  0
   61.5330   31.9370   51.8720 C   0  0  0  0  0  0  0  0  0  0  0  0
   62.9050   31.7430   51.6840 C   0  0  0  0  0  0  0  0  0  0  0  0
   63.4150   30.4420   51.4710 C   0  0  0  0  0  0  0  0  0  0  0  0
   64.7740   30.1860   51.2410 O   0  0  0  0  0  0  0  0  0  0  0  0
   65.8050   31.1320   51.1510 C   0  0  0  0  0  0  0  0  0  0  0  0
   65.7780   32.1990   50.2320 C   0  0  0  0  0  0  0  0  0  0  0  0
   66.8470   33.1020   50.1690 C   0  0  0  0  0  0  0  0  0  0  0  0
   67.9320   32.9700   51.0430 C   0  0  0  0  0  0  0  0  0  0  0  0
   67.9430   31.9420   51.9910 C   0  0  0  0  0  0  0  0  0  0  0  0
   66.8880   31.0290   52.0440 C   0  0  0  0  0  0  0  0  0  0  0  0
   62.5280   29.3610   51.4080 C   0  0  0  0  0  0  0  0  0  0  0  0
   61.1540   29.5590   51.5790 C   0  0  0  0  0  0  0  0  0  0  0  0
   58.5960   28.5880   47.8800 C   0  0  0  0  0  0  0  0  0  0  0  0
   57.2410   30.4960   45.2560 C   0  0  0  0  0  0  0  0  0  0  0  0
   61.6330   34.2240   48.9610 C   0  0  0  0  0  0  0  0  0  0  0  0
   63.0750   33.7020   49.1050 C   0  0  0  0  0  0  0  0  0  0  0  0
   63.4247   31.2595   48.7626 H   0  0  0  0  0  0  0  0  0  0  0  0
   62.5423   31.4543   47.2102 H   0  0  0  0  0  0  0  0  0  0  0  0
   64.3283   31.2617   47.2102 H   0  0  0  0  0  0  0  0  0  0  0  0
   63.3904   34.8954   46.6852 H   0  0  0  0  0  0  0  0  0  0  0  0
   63.4922   33.3319   45.7635 H   0  0  0  0  0  0  0  0  0  0  0  0
   61.1672   34.7255   46.2109 H   0  0  0  0  0  0  0  0  0  0  0  0
   61.2877   32.9356   45.9053 H   0  0  0  0  0  0  0  0  0  0  0  0
   58.9166   32.8378   47.8624 H   0  0  0  0  0  0  0  0  0  0  0  0
   59.2292   34.3470   48.7977 H   0  0  0  0  0  0  0  0  0  0  0  0
   58.5607   35.5152   46.9835 H   0  0  0  0  0  0  0  0  0  0  0  0
   60.0444   34.9208   46.1455 H   0  0  0  0  0  0  0  0  0  0  0  0
   59.6910   32.2810   45.4180 H   0  0  0  0  0  0  0  0  0  0  0  0
   58.2331   32.5198   42.6779 H   0  0  0  0  0  0  0  0  0  0  0  0
   56.8210   30.9051   41.4076 H   0  0  0  0  0  0  0  0  0  0  0  0
   55.6795   29.0353   42.5880 H   0  0  0  0  0  0  0  0  0  0  0  0
   57.9026   26.2350   44.2866 H   0  0  0  0  0  0  0  0  0  0  0  0
   59.9043   26.8842   45.2411 H   0  0  0  0  0  0  0  0  0  0  0  0
   60.8280   29.3137   45.3897 H   0  0  0  0  0  0  0  0  0  0  0  0
   61.5372   30.9966   47.0703 H   0  0  0  0  0  0  0  0  0  0  0  0
   60.3173   31.2157   49.2329 H   0  0  0  0  0  0  0  0  0  0  0  0
   61.1438   32.9490   52.0575 H   0  0  0  0  0  0  0  0  0  0  0  0
   63.5887   32.6045   51.7019 H   0  0  0  0  0  0  0  0  0  0  0  0
   64.9148   32.3236   49.5617 H   0  0  0  0  0  0  0  0  0  0  0  0
   66.8336   33.9171   49.4305 H   0  0  0  0  0  0  0  0  0  0  0  0
   68.7752   33.6740   50.9844 H   0  0  0  0  0  0  0  0  0  0  0  0
   68.7832   31.8526   52.6953 H   0  0  0  0  0  0  0  0  0  0  0  0
   66.9034   30.2215   52.7908 H   0  0  0  0  0  0  0  0  0  0  0  0
   62.9145   28.3480   51.2226 H   0  0  0  0  0  0  0  0  0  0  0  0
   60.4672   28.7018   51.5200 H   0  0  0  0  0  0  0  0  0  0  0  0
   57.7910   27.8820   48.1323 H   0  0  0  0  0  0  0  0  0  0  0  0
   57.3549   30.3841   46.3443 H   0  0  0  0  0  0  0  0  0  0  0  0
   61.6565   35.2933   48.7039 H   0  0  0  0  0  0  0  0  0  0  0  0
   61.1003   34.0810   49.9127 H   0  0  0  0  0  0  0  0  0  0  0  0
   63.7156   34.5329   49.4357 H   0  0  0  0  0  0  0  0  0  0  0  0
   63.0522   32.8798   49.8353 H   0  0  0  0  0  0  0  0  0  0  0  0
  1  2  1  0
  2  3  1  0
  3  4  1  0
  4  5  1  0
  5  6  1  0
  6  7  1  0
  7  8  1  0
  8  9  2  0
  8 10  1  0
 10 11  1  0
 11 12  2  0
 12 13  1  0
 13 14  2  0
 14 15  1  0
 15 16  1  0
 16 17  1  0
 17 18  2  0
 17 19  1  0
 19 20  2  3
 20 21  1  0
 21 22  2  0
 22 23  1  0
 23 24  2  0
 24 25  1  0
 25 26  1  0
 26 27  1  0
 27 28  2  0
 27 29  1  0
 29 30  1  0
 30 31  2  0
 31 32  1  0
 32 33  2  0
 33 34  1  0
 34 35  1  0
 35 36  2  0
 36 37  1  0
 37 38  2  0
 38 39  1  0
 39 40  2  0
 33 41  1  0
 41 42  2  0
 25 43  2  0
 15 44  2  0
  5 45  1  0
 45 46  1  0
 46  2  1  0
 44 11  1  0
 43 21  1  0
 42 30  1  0
 40 35  1  0
  1 47  1  0
  1 48  1  0
  1 49  1  0
  3 50  1  0
  3 51  1  0
  4 52  1  0
  4 53  1  0
  6 54  1  0
  6 55  1  0
  7 56  1  0
  7 57  1  0
 10 58  1  0
 12 59  1  0
 13 60  1  0
 14 61  1  0
 19 62  1  0
 20 63  1  0
 22 64  1  0
 23 65  1  0
 24 66  1  0
 31 67  1  0
 32 68  1  0
 36 69  1  0
 37 70  1  0
 38 71  1  0
 39 72  1  0
 40 73  1  0
 41 74  1  0
 42 75  1  0
 43 76  1  0
 44 77  1  0
 45 78  1  0
 45 79  1  0
 46 80  1  0
 46 81  1  0
M  CHG  3  16  -1  26  -1  29  -1
M  END
>  <UniqueID>  (18) 
15

>  <SMILES>  (18) 
CN1CCN(CCC(=O)Nc2cccc([N-]C(=O)C=Cc3cccc([N-]C(=O)[N-]c4ccc(Oc5ccccc5)cc4)c3)c2)CC1

>  <Energy>  (18) 
131.03918565151352

>  <Genealogy>  (18) 
CN1CCN(CCC(=O)Nc2cccc([N-]C(=O)C=Cc3cccc([N-]C(=O)[N-]c4ccc(Oc5ccccc5)cc4)c3)c2)CC1 (protonated)
CN1CCN(CCC(=O)Nc2cccc([N-]C(=O)C=Cc3cccc([N-]C(=O)[N-]c4ccc(Oc5ccccc5)cc4)c3)c2)CC1 (3D coordinates assigned)
CN1CCN(CCC(=O)Nc2cccc([N-]C(=O)C=Cc3cccc([N-]C(=O)[N-]c4ccc(Oc5ccccc5)cc4)c3)c2)CC1 (nonaromatic ring conformer: 131.03918565151352 kcal/mol)

>  <smiles>  (18) 
CN1CCN(CCC(=O)Nc2cccc(NC(=O)C=Cc3cccc(NC(=O)Nc4ccc(Oc5ccccc5)cc4)c3)c2)CC1

>  <score_type>  (18) 
oracle

>  <origin>  (18) 
adg

>  <m_score__min__energy>  (18) 
-14.32

>  <m_primary>  (18) 
energy

$$$$
18:0
     RDKit          3D

 42 44  0  0  0  0  0  0  0  0999 V2000
   64.8080   31.9710   49.8530 C   0  0  0  0  0  0  0  0  0  0  0  0
   63.8290   32.3950   48.7980 C   0  0  0  0  0  0  0  0  0  0  0  0
   64.1360   33.4600   47.9380 C   0  0  0  0  0  0  0  0  0  0  0  0
   63.2430   33.8280   46.9300 C   0  0  0  0  0  0  0  0  0  0  0  0
   62.0430   33.1320   46.7650 C   0  0  0  0  0  0  0  0  0  0  0  0
   61.7200   32.0550   47.6110 C   0  0  0  0  0  0  0  0  0  0  0  0
   60.4570   31.3000   47.4330 C   0  0  0  0  0  0  0  0  0  0  0  0
   59.4690   31.5560   48.1770 O   0  0  0  0  0  0  0  0  0  0  0  0
   60.3270   30.3150   46.3930 N   0  0  0  0  0  0  0  0  0  0  0  0
   59.3280   29.2800   46.3950 C   0  0  0  0  0  0  0  0  0  0  0  0
   58.3020   29.3110   45.4400 C   0  0  0  0  0  0  0  0  0  0  0  0
   57.3290   28.3080   45.4110 C   0  0  0  0  0  0  0  0  0  0  0  0
   57.3650   27.2530   46.3390 C   0  0  0  0  0  0  0  0  0  0  0  0
   56.3220   26.2000   46.3030 C   0  0  0  0  0  0  0  0  0  0  0  0
   55.1430   26.5120   45.9920 O   0  0  0  0  0  0  0  0  0  0  0  0
   56.6150   24.8250   46.5910 N   0  0  0  0  0  0  0  0  0  0  0  0
   57.0060   23.8330   45.6320 C   0  0  0  0  0  0  0  0  0  0  0  0
   58.3660   23.5100   45.5250 C   0  0  0  0  0  0  0  0  0  0  0  0
   58.7930   22.5320   44.6230 C   0  0  0  0  0  0  0  0  0  0  0  0
   57.8660   21.8820   43.8070 C   0  0  0  0  0  0  0  0  0  0  0  0
   56.5120   22.2210   43.8780 C   0  0  0  0  0  0  0  0  0  0  0  0
   56.0740   23.2000   44.7790 C   0  0  0  0  0  0  0  0  0  0  0  0
   54.2250   23.7080   44.7180 Br  0  0  0  0  0  0  0  0  0  0  0  0
   58.4190   27.2000   47.2670 C   0  0  0  0  0  0  0  0  0  0  0  0
   59.3900   28.2030   47.2960 C   0  0  0  0  0  0  0  0  0  0  0  0
   62.6320   31.6840   48.6180 C   0  0  0  0  0  0  0  0  0  0  0  0
   64.3781   32.1572   50.8482 H   0  0  0  0  0  0  0  0  0  0  0  0
   65.0249   30.8983   49.7421 H   0  0  0  0  0  0  0  0  0  0  0  0
   65.7388   32.5466   49.7421 H   0  0  0  0  0  0  0  0  0  0  0  0
   65.0830   34.0066   48.0582 H   0  0  0  0  0  0  0  0  0  0  0  0
   63.4851   34.6689   46.2634 H   0  0  0  0  0  0  0  0  0  0  0  0
   61.3454   33.4281   45.9677 H   0  0  0  0  0  0  0  0  0  0  0  0
   60.9130   30.4260   45.5360 H   0  0  0  0  0  0  0  0  0  0  0  0
   58.2625   30.1310   44.7079 H   0  0  0  0  0  0  0  0  0  0  0  0
   56.5294   28.3446   44.6565 H   0  0  0  0  0  0  0  0  0  0  0  0
   59.1021   24.0301   46.1556 H   0  0  0  0  0  0  0  0  0  0  0  0
   59.8603   22.2743   44.5560 H   0  0  0  0  0  0  0  0  0  0  0  0
   58.2013   21.1022   43.1074 H   0  0  0  0  0  0  0  0  0  0  0  0
   55.7865   21.7164   43.2230 H   0  0  0  0  0  0  0  0  0  0  0  0
   58.4796   26.3615   47.9764 H   0  0  0  0  0  0  0  0  0  0  0  0
   60.2087   28.1499   48.0287 H   0  0  0  0  0  0  0  0  0  0  0  0
   62.4040   30.8281   49.2703 H   0  0  0  0  0  0  0  0  0  0  0  0
  1  2  1  0
  2  3  2  0
  3  4  1  0
  4  5  2  0
  5  6  1  0
  6  7  1  0
  7  8  2  0
  7  9  1  0
  9 10  1  0
 10 11  2  0
 11 12  1  0
 12 13  2  0
 13 14  1  0
 14 15  2  0
 14 16  1  0
 16 17  1  0
 17 18  2  0
 18 19  1  0
 19 20  2  0
 20 21  1  0
 21 22  2  0
 22 23  1  0
 13 24  1  0
 24 25  2  0
  6 26  2  0
 26  2  1  0
 25 10  1  0
 22 17  1  0
  1 27  1  0
  1 28  1  0
  1 29  1  0
  3 30  1  0
  4 31  1  0
  5 32  1  0
  9 33  1  0
 11 34  1  0
 12 35  1  0
 18 36  1  0
 19 37  1  0
 20 38  1  0
 21 39  1  0
 24 40  1  0
 25 41  1  0
 26 42  1  0
M  CHG  1  16  -1
M  END
>  <UniqueID>  (19) 
16

>  <SMILES>  (19) 
Cc1cccc(C(=O)Nc2ccc(C(=O)[N-]c3ccccc3Br)cc2)c1

>  <Energy>  (19) 
59.78868918966345

>  <Genealogy>  (19) 
Cc1cccc(C(=O)Nc2ccc(C(=O)[N-]c3ccccc3Br)cc2)c1 (protonated)
Cc1cccc(C(=O)Nc2ccc(C(=O)[N-]c3ccccc3Br)cc2)c1 (3D coordinates assigned)
Cc1cccc(C(=O)Nc2ccc(C(=O)[N-]c3ccccc3Br)cc2)c1 (optimized conformer: 59.78868918966345 kcal/mol)

>  <smiles>  (19) 
Cc1cccc(C(=O)Nc2ccc(C(=O)Nc3ccccc3Br)cc2)c1

>  <score_type>  (19) 
oracle

>  <origin>  (19) 
adg

>  <m_score__min__energy>  (19) 
-9.9100000000000001

>  <m_primary>  (19) 
energy

$$$$
19:0
     RDKit          3D

 40 42  0  0  0  0  0  0  0  0999 V2000
   51.0280   32.3390   50.0390 O   0  0  0  0  0  0  0  0  0  0  0  0
   51.1940   32.2380   51.2840 C   0  0  0  0  0  0  0  0  0  0  0  0
   50.2720   32.8330   52.1370 O   0  0  0  0  0  0  0  0  0  0  0  0
   52.3520   31.4970   51.8310 C   0  0  0  0  0  0  0  0  0  0  0  0
   53.4320   31.1400   51.0030 C   0  0  0  0  0  0  0  0  0  0  0  0
   54.5240   30.4400   51.5240 C   0  0  0  0  0  0  0  0  0  0  0  0
   54.5540   30.0830   52.8800 C   0  0  0  0  0  0  0  0  0  0  0  0
   55.7370   29.3520   53.4540 C   0  0  0  0  0  0  0  0  0  0  0  0
   56.9610   30.1130   53.2270 N   0  0  0  0  0  0  0  0  0  0  0  0
   58.0440   29.6470   52.4150 C   0  0  0  0  0  0  0  0  0  0  0  0
   58.6810   28.6090   52.7400 O   0  0  0  0  0  0  0  0  0  0  0  0
   58.4150   30.3850   51.1990 C   0  0  0  0  0  0  0  0  0  0  0  0
   58.5930   31.7540   51.1120 C   0  0  0  0  0  0  0  0  0  0  0  0
   58.9360   32.0110   49.7960 C   0  0  0  0  0  0  0  0  0  0  0  0
   59.2760   33.3350   49.2350 C   0  0  0  0  0  0  0  0  0  0  0  0
   59.8420   34.1810   49.9800 O   0  0  0  0  0  0  0  0  0  0  0  0
   58.9870   33.6960   47.8290 C   0  0  0  0  0  0  0  0  0  0  0  0
   57.8530   33.1650   47.1890 C   0  0  0  0  0  0  0  0  0  0  0  0
   57.5780   33.4840   45.8550 C   0  0  0  0  0  0  0  0  0  0  0  0
   58.4380   34.3240   45.1450 C   0  0  0  0  0  0  0  0  0  0  0  0
   59.5790   34.8410   45.7640 C   0  0  0  0  0  0  0  0  0  0  0  0
   59.8570   34.5250   47.0980 C   0  0  0  0  0  0  0  0  0  0  0  0
   58.9690   30.7890   49.1450 C   0  0  0  0  0  0  0  0  0  0  0  0
   58.6440   29.8060   50.0050 N   0  0  0  0  0  0  0  0  0  0  0  0
   53.4820   30.4420   53.7100 C   0  0  0  0  0  0  0  0  0  0  0  0
   52.3890   31.1410   53.1890 C   0  0  0  0  0  0  0  0  0  0  0  0
   53.4169   31.4138   49.9377 H   0  0  0  0  0  0  0  0  0  0  0  0
   55.3636   30.1679   50.8675 H   0  0  0  0  0  0  0  0  0  0  0  0
   55.5896   29.2158   54.5355 H   0  0  0  0  0  0  0  0  0  0  0  0
   55.8272   28.3733   52.9599 H   0  0  0  0  0  0  0  0  0  0  0  0
   58.4841   32.4887   51.9234 H   0  0  0  0  0  0  0  0  0  0  0  0
   57.1779   32.4945   47.7409 H   0  0  0  0  0  0  0  0  0  0  0  0
   56.6833   33.0726   45.3649 H   0  0  0  0  0  0  0  0  0  0  0  0
   58.2172   34.5789   44.0980 H   0  0  0  0  0  0  0  0  0  0  0  0
   60.2595   35.4973   45.2016 H   0  0  0  0  0  0  0  0  0  0  0  0
   60.7613   34.9272   47.5782 H   0  0  0  0  0  0  0  0  0  0  0  0
   59.2227   30.6437   48.0846 H   0  0  0  0  0  0  0  0  0  0  0  0
   58.5960   28.7860   49.7810 H   0  0  0  0  0  0  0  0  0  0  0  0
   53.5013   30.1723   54.7762 H   0  0  0  0  0  0  0  0  0  0  0  0
   51.5516   31.4142   53.8478 H   0  0  0  0  0  0  0  0  0  0  0  0
  1  2  2  0
  2  3  1  0
  2  4  1  0
  4  5  2  0
  5  6  1  0
  6  7  2  0
  7  8  1  0
  8  9  1  0
  9 10  1  0
 10 11  2  0
 10 12  1  0
 12 13  2  0
 13 14  1  0
 14 15  1  0
 15 16  2  0
 15 17  1  0
 17 18  2  0
 18 19  1  0
 19 20  2  0
 20 21  1  0
 21 22  2  0
 14 23  2  0
 23 24  1  0
  7 25  1  0
 25 26  2  0
 26  4  1  0
 24 12  1  0
 22 17  1  0
  5 27  1  0
  6 28  1  0
  8 29  1  0
  8 30  1  0
 13 31  1  0
 18 32  1  0
 19 33  1  0
 20 34  1  0
 21 35  1  0
 22 36  1  0
 23 37  1  0
 24 38  1  0
 25 39  1  0
 26 40  1  0
M  CHG  2   3  -1   9  -1
M  END
>  <UniqueID>  (20) 
17

>  <SMILES>  (20) 
O=C([O-])c1ccc(C[N-]C(=O)c2cc(C(=O)c3ccccc3)c[nH]2)cc1

>  <Energy>  (20) 
70.03654856146652

>  <Genealogy>  (20) 
O=C([O-])c1ccc(C[N-]C(=O)c2cc(C(=O)c3ccccc3)c[nH]2)cc1 (protonated)
O=C([O-])c1ccc(C[N-]C(=O)c2cc(C(=O)c3ccccc3)c[nH]2)cc1 (3D coordinates assigned)
O=C([O-])c1ccc(C[N-]C(=O)c2cc(C(=O)c3ccccc3)c[nH]2)cc1 (optimized conformer: 70.03654856146652 kcal/mol)

>  <smiles>  (20) 
O=C(O)c1ccc(CNC(=O)c2cc(C(=O)c3ccccc3)c[nH]2)cc1

>  <score_type>  (20) 
oracle

>  <origin>  (20) 
adg

>  <m_score__min__energy>  (20) 
-12.949999999999999

>  <m_primary>  (20) 
energy

$$$$
20:0
     RDKit          3D

 33 34  0  0  0  0  0  0  0  0999 V2000
   55.1750   26.4490   45.9860 N   0  0  0  0  0  0  0  0  0  0  0  0
   56.8620   26.8040   45.8830 S   0  0  0  0  0  0  0  0  0  0  0  0
   57.5200   26.5010   47.1990 O   0  0  0  0  0  0  0  0  0  0  0  0
   57.4930   25.9460   44.8210 O   0  0  0  0  0  0  0  0  0  0  0  0
   57.0780   28.5050   45.4860 C   0  0  0  0  0  0  0  0  0  0  0  0
   58.0130   29.2780   46.1880 C   0  0  0  0  0  0  0  0  0  0  0  0
   58.1500   30.6400   45.9070 C   0  0  0  0  0  0  0  0  0  0  0  0
   57.3400   31.2450   44.9340 C   0  0  0  0  0  0  0  0  0  0  0  0
   57.4270   32.6480   44.6670 N   0  0  0  0  0  0  0  0  0  0  0  0
   58.4800   33.5130   45.1180 C   0  0  0  0  0  0  0  0  0  0  0  0
   59.1870   34.1040   44.2600 O   0  0  0  0  0  0  0  0  0  0  0  0
   58.7410   33.7740   46.5820 C   0  0  0  0  0  0  0  0  0  0  0  0
   60.1630   33.4470   46.9660 C   0  0  0  0  0  0  0  0  0  0  0  0
   61.2340   34.1770   46.4230 C   0  0  0  0  0  0  0  0  0  0  0  0
   62.5530   33.8420   46.7450 C   0  0  0  0  0  0  0  0  0  0  0  0
   62.8140   32.7850   47.6270 C   0  0  0  0  0  0  0  0  0  0  0  0
   64.1230   32.4400   47.9530 O   0  0  0  0  0  0  0  0  0  0  0  0
   61.7510   32.0690   48.1880 C   0  0  0  0  0  0  0  0  0  0  0  0
   60.4320   32.3980   47.8620 C   0  0  0  0  0  0  0  0  0  0  0  0
   56.4330   30.4640   44.2080 C   0  0  0  0  0  0  0  0  0  0  0  0
   56.2920   29.1030   44.4920 C   0  0  0  0  0  0  0  0  0  0  0  0
   54.7730   27.0830   46.7120 H   0  0  0  0  0  0  0  0  0  0  0  0
   58.6403   28.8115   46.9618 H   0  0  0  0  0  0  0  0  0  0  0  0
   58.8951   31.2397   46.4503 H   0  0  0  0  0  0  0  0  0  0  0  0
   58.5507   34.8366   46.7934 H   0  0  0  0  0  0  0  0  0  0  0  0
   58.0718   33.1275   47.1686 H   0  0  0  0  0  0  0  0  0  0  0  0
   61.0338   35.0165   45.7410 H   0  0  0  0  0  0  0  0  0  0  0  0
   63.3867   34.4091   46.3053 H   0  0  0  0  0  0  0  0  0  0  0  0
   64.8470   32.3830   47.2460 H   0  0  0  0  0  0  0  0  0  0  0  0
   61.9537   31.2447   48.8877 H   0  0  0  0  0  0  0  0  0  0  0  0
   59.6006   31.8332   48.3089 H   0  0  0  0  0  0  0  0  0  0  0  0
   55.8293   30.9231   43.4113 H   0  0  0  0  0  0  0  0  0  0  0  0
   55.5616   28.4992   43.9334 H   0  0  0  0  0  0  0  0  0  0  0  0
  1  2  1  0
  2  3  2  0
  2  4  2  0
  2  5  1  0
  5  6  2  0
  6  7  1  0
  7  8  2  0
  8  9  1  0
  9 10  1  0
 10 11  2  0
 10 12  1  0
 12 13  1  0
 13 14  2  0
 14 15  1  0
 15 16  2  0
 16 17  1  0
 16 18  1  0
 18 19  2  0
  8 20  1  0
 20 21  2  0
 21  5  1  0
 19 13  1  0
  1 22  1  0
  6 23  1  0
  7 24  1  0
 12 25  1  0
 12 26  1  0
 14 27  1  0
 15 28  1  0
 17 29  1  0
 18 30  1  0
 19 31  1  0
 20 32  1  0
 21 33  1  0
M  CHG  2   1  -1   9  -1
M  END
>  <UniqueID>  (21) 
18

>  <SMILES>  (21) 
[NH-]S(=O)(=O)c1ccc([N-]C(=O)Cc2ccc(O)cc2)cc1

>  <Energy>  (21) 
35.496247458301184

>  <Genealogy>  (21) 
[NH-]S(=O)(=O)c1ccc([N-]C(=O)Cc2ccc(O)cc2)cc1 (protonated)
[NH-]S(=O)(=O)c1ccc([N-]C(=O)Cc2ccc(O)cc2)cc1 (3D coordinates assigned)
[NH-]S(=O)(=O)c1ccc([N-]C(=O)Cc2ccc(O)cc2)cc1 (optimized conformer: 35.496247458301184 kcal/mol)

>  <smiles>  (21) 
NS(=O)(=O)c1ccc(NC(=O)Cc2ccc(O)cc2)cc1

>  <score_type>  (21) 
oracle

>  <origin>  (21) 
adg

>  <m_score__min__energy>  (21) 
-10.98

>  <m_primary>  (21) 
energy

$$$$
21:0
     RDKit          3D

 42 44  0  0  0  0  0  0  0  0999 V2000
   58.9680   33.8270   47.8970 C   0  0  0  0  0  0  0  0  0  0  0  0
   58.9700   34.7200   46.6600 C   0  0  0  0  0  0  0  0  0  0  0  0
   59.6990   34.0450   45.4970 C   0  0  0  0  0  0  0  0  0  0  0  0
   58.5080   33.3530   44.2940 S   0  0  0  0  0  0  0  0  0  0  0  0
   58.4990   31.7130   45.0240 C   0  0  0  0  0  0  0  0  0  0  0  0
   59.5720   31.3090   45.8230 C   0  0  0  0  0  0  0  0  0  0  0  0
   59.5510   30.0670   46.4820 C   0  0  0  0  0  0  0  0  0  0  0  0
   60.5970   29.7050   47.4000 N   0  0  0  0  0  0  0  0  0  0  0  0
   60.9900   30.5960   48.8350 S   0  0  0  0  0  0  0  0  0  0  0  0
   59.7260   31.0980   49.4740 O   0  0  0  0  0  0  0  0  0  0  0  0
   61.7040   29.6880   49.7970 O   0  0  0  0  0  0  0  0  0  0  0  0
   62.0000   31.9780   48.4110 C   0  0  0  0  0  0  0  0  0  0  0  0
   62.7920   31.9330   47.2530 C   0  0  0  0  0  0  0  0  0  0  0  0
   63.6390   33.0000   46.9390 C   0  0  0  0  0  0  0  0  0  0  0  0
   63.6950   34.1190   47.7770 C   0  0  0  0  0  0  0  0  0  0  0  0
   62.9040   34.1720   48.9280 C   0  0  0  0  0  0  0  0  0  0  0  0
   62.0560   33.1050   49.2460 C   0  0  0  0  0  0  0  0  0  0  0  0
   58.4670   29.1880   46.2650 C   0  0  0  0  0  0  0  0  0  0  0  0
   58.4120   27.9250   46.8870 C   0  0  0  0  0  0  0  0  0  0  0  0
   57.3200   27.0800   46.6770 C   0  0  0  0  0  0  0  0  0  0  0  0
   56.2690   27.4790   45.8490 C   0  0  0  0  0  0  0  0  0  0  0  0
   55.1850   26.6320   45.6460 O   0  0  0  0  0  0  0  0  0  0  0  0
   56.3060   28.7270   45.2230 C   0  0  0  0  0  0  0  0  0  0  0  0
   57.3960   29.5890   45.4250 C   0  0  0  0  0  0  0  0  0  0  0  0
   57.4190   30.8520   44.8160 C   0  0  0  0  0  0  0  0  0  0  0  0
   58.9694   34.4533   48.8013 H   0  0  0  0  0  0  0  0  0  0  0  0
   58.0684   33.1940   47.8908 H   0  0  0  0  0  0  0  0  0  0  0  0
   59.8647   33.1899   47.8908 H   0  0  0  0  0  0  0  0  0  0  0  0
   57.9309   34.9249   46.3627 H   0  0  0  0  0  0  0  0  0  0  0  0
   59.4929   35.6563   46.9049 H   0  0  0  0  0  0  0  0  0  0  0  0
   60.3330   34.7872   44.9899 H   0  0  0  0  0  0  0  0  0  0  0  0
   60.3128   33.2240   45.8960 H   0  0  0  0  0  0  0  0  0  0  0  0
   60.4434   31.9705   45.9378 H   0  0  0  0  0  0  0  0  0  0  0  0
   62.7461   31.0559   46.5908 H   0  0  0  0  0  0  0  0  0  0  0  0
   64.2615   32.9598   46.0330 H   0  0  0  0  0  0  0  0  0  0  0  0
   64.3622   34.9578   47.5297 H   0  0  0  0  0  0  0  0  0  0  0  0
   62.9480   35.0534   49.5847 H   0  0  0  0  0  0  0  0  0  0  0  0
   61.4327   33.1496   50.1513 H   0  0  0  0  0  0  0  0  0  0  0  0
   59.2345   27.6024   47.5423 H   0  0  0  0  0  0  0  0  0  0  0  0
   57.2878   26.0953   47.1663 H   0  0  0  0  0  0  0  0  0  0  0  0
   55.4775   29.0361   44.5687 H   0  0  0  0  0  0  0  0  0  0  0  0
   56.5838   31.1656   44.1725 H   0  0  0  0  0  0  0  0  0  0  0  0
  1  2  1  0
  2  3  1  0
  3  4  1  0
  4  5  1  0
  5  6  2  0
  6  7  1  0
  7  8  1  0
  8  9  1  0
  9 10  2  0
  9 11  2  0
  9 12  1  0
 12 13  2  0
 13 14  1  0
 14 15  2  0
 15 16  1  0
 16 17  2  0
  7 18  2  0
 18 19  1  0
 19 20  2  0
 20 21  1  0
 21 22  1  0
 21 23  2  0
 23 24  1  0
 24 25  2  0
 25  5  1  0
 17 12  1  0
 24 18  1  0
  1 26  1  0
  1 27  1  0
  1 28  1  0
  2 29  1  0
  2 30  1  0
  3 31  1  0
  3 32  1  0
  6 33  1  0
 13 34  1  0
 14 35  1  0
 15 36  1  0
 16 37  1  0
 17 38  1  0
 19 39  1  0
 20 40  1  0
 23 41  1  0
 25 42  1  0
M  CHG  2   8  -1  22  -1
M  END
>  <UniqueID>  (22) 
19

>  <SMILES>  (22) 
CCCSc1cc([N-]S(=O)(=O)c2ccccc2)c2ccc([O-])cc2c1

>  <Energy>  (22) 
41.21844793543682

>  <Genealogy>  (22) 
CCCSc1cc([N-]S(=O)(=O)c2ccccc2)c2ccc([O-])cc2c1 (protonated)
CCCSc1cc([N-]S(=O)(=O)c2ccccc2)c2ccc([O-])cc2c1 (3D coordinates assigned)
CCCSc1cc([N-]S(=O)(=O)c2ccccc2)c2ccc([O-])cc2c1 (optimized conformer: 41.21844793543682 kcal/mol)

>  <smiles>  (22) 
CCCSc1cc(NS(=O)(=O)c2ccccc2)c2ccc(O)cc2c1

>  <score_type>  (22) 
oracle

>  <origin>  (22) 
adg

>  <m_score__min__energy>  (22) 
-11.42

>  <m_primary>  (22) 
energy

$$$$
22:0
     RDKit          3D

 32 33  0  0  0  0  0  0  0  0999 V2000
   54.8060   26.3400   45.9890 N   0  0  0  0  0  0  0  0  0  0  0  0
   56.3440   25.5700   46.1640 S   0  0  0  0  0  0  0  0  0  0  0  0
   56.4120   24.8870   47.5000 O   0  0  0  0  0  0  0  0  0  0  0  0
   56.4990   24.5490   45.0730 O   0  0  0  0  0  0  0  0  0  0  0  0
   57.6310   26.7680   46.0530 C   0  0  0  0  0  0  0  0  0  0  0  0
   58.9700   26.3610   45.9980 C   0  0  0  0  0  0  0  0  0  0  0  0
   59.9900   27.3140   45.9350 C   0  0  0  0  0  0  0  0  0  0  0  0
   59.6770   28.6760   45.9230 C   0  0  0  0  0  0  0  0  0  0  0  0
   58.3400   29.0990   45.9610 C   0  0  0  0  0  0  0  0  0  0  0  0
   58.0470   30.5050   45.9680 N   0  0  0  0  0  0  0  0  0  0  0  0
   57.3980   31.1960   44.8880 C   0  0  0  0  0  0  0  0  0  0  0  0
   57.1780   30.6150   43.7920 O   0  0  0  0  0  0  0  0  0  0  0  0
   57.0420   32.6440   45.0340 C   0  0  0  0  0  0  0  0  0  0  0  0
   58.5120   33.7000   44.7910 S   0  0  0  0  0  0  0  0  0  0  0  0
   59.1000   33.5400   46.4780 C   0  0  0  0  0  0  0  0  0  0  0  0
   60.2740   34.1790   46.8800 C   0  0  0  0  0  0  0  0  0  0  0  0
   60.6930   34.0290   48.2040 C   0  0  0  0  0  0  0  0  0  0  0  0
   61.7440   34.5940   48.6040 O   0  0  0  0  0  0  0  0  0  0  0  0
   59.9650   33.2670   49.0610 N   0  0  0  0  0  0  0  0  0  0  0  0
   58.8270   32.6460   48.6490 C   0  0  0  0  0  0  0  0  0  0  0  0
   58.1670   31.9440   49.4580 O   0  0  0  0  0  0  0  0  0  0  0  0
   58.4020   32.7840   47.3670 N   0  0  0  0  0  0  0  0  0  0  0  0
   57.3190   28.1350   46.0490 C   0  0  0  0  0  0  0  0  0  0  0  0
   54.7570   27.0930   46.7130 H   0  0  0  0  0  0  0  0  0  0  0  0
   59.2191   25.2896   46.0044 H   0  0  0  0  0  0  0  0  0  0  0  0
   61.0410   26.9917   45.8948 H   0  0  0  0  0  0  0  0  0  0  0  0
   60.4848   29.4216   45.8835 H   0  0  0  0  0  0  0  0  0  0  0  0
   58.4210   31.0800   46.7560 H   0  0  0  0  0  0  0  0  0  0  0  0
   56.2816   32.9060   44.2836 H   0  0  0  0  0  0  0  0  0  0  0  0
   56.6515   32.8108   46.0487 H   0  0  0  0  0  0  0  0  0  0  0  0
   60.8555   34.7864   46.1709 H   0  0  0  0  0  0  0  0  0  0  0  0
   56.2689   28.4559   46.1151 H   0  0  0  0  0  0  0  0  0  0  0  0
  1  2  1  0
  2  3  2  0
  2  4  2  0
  2  5  1  0
  5  6  2  0
  6  7  1  0
  7  8  2  0
  8  9  1  0
  9 10  1  0
 10 11  1  0
 11 12  2  0
 11 13  1  0
 13 14  1  0
 14 15  1  0
 15 16  2  0
 16 17  1  0
 17 18  2  0
 17 19  1  0
 19 20  1  0
 20 21  2  0
 20 22  1  0
  9 23  2  0
 23  5  1  0
 22 15  1  0
  1 24  1  0
  6 25  1  0
  7 26  1  0
  8 27  1  0
 10 28  1  0
 13 29  1  0
 13 30  1  0
 16 31  1  0
 23 32  1  0
M  CHG  3   1  -1  19  -1  22  -1
M  END
>  <UniqueID>  (23) 
20

>  <SMILES>  (23) 
[NH-]S(=O)(=O)c1cccc(NC(=O)CSc2cc(=O)[n-]c(=O)[n-]2)c1

>  <Energy>  (23) 
31.469096635668304

>  <Genealogy>  (23) 
[NH-]S(=O)(=O)c1cccc(NC(=O)CSc2cc(=O)[n-]c(=O)[n-]2)c1 (protonated)
[NH-]S(=O)(=O)c1cccc(NC(=O)CSc2cc(=O)[n-]c(=O)[n-]2)c1 (3D coordinates assigned)
[NH-]S(=O)(=O)c1cccc(NC(=O)CSc2cc(=O)[n-]c(=O)[n-]2)c1 (optimized conformer: 31.469096635668304 kcal/mol)

>  <smiles>  (23) 
NS(=O)(=O)c1cccc(NC(=O)CSc2cc(=O)[nH]c(=O)[nH]2)c1

>  <score_type>  (23) 
oracle

>  <origin>  (23) 
adg

>  <m_score__min__energy>  (23) 
-13.460000000000001

>  <m_primary>  (23) 
energy

$$$$
23:0
     RDKit          3D

 47 49  0  0  0  0  0  0  0  0999 V2000
   57.0150   31.2870   42.1840 C   0  0  0  0  0  0  0  0  0  0  0  0
   57.5630   31.9960   43.3920 C   0  0  0  0  0  0  0  0  0  0  0  0
   58.4510   33.0710   43.2300 C   0  0  0  0  0  0  0  0  0  0  0  0
   58.9930   33.7130   44.3450 C   0  0  0  0  0  0  0  0  0  0  0  0
   58.6660   33.2840   45.6350 C   0  0  0  0  0  0  0  0  0  0  0  0
   59.4530   34.0300   47.0230 S   0  0  0  0  0  0  0  0  0  0  0  0
   59.3870   33.1210   48.2180 O   0  0  0  0  0  0  0  0  0  0  0  0
   58.7360   35.3070   47.3530 O   0  0  0  0  0  0  0  0  0  0  0  0
   61.1140   34.3940   46.6390 N   0  0  0  0  0  0  0  0  0  0  0  0
   61.9680   33.2100   46.7650 C   0  0  0  0  0  0  0  0  0  0  0  0
   62.7280   33.2150   48.0600 C   0  0  0  0  0  0  0  0  0  0  0  0
   62.3790   34.0970   49.0940 C   0  0  0  0  0  0  0  0  0  0  0  0
   63.1290   34.1020   50.2720 C   0  0  0  0  0  0  0  0  0  0  0  0
   64.2050   33.2240   50.4140 C   0  0  0  0  0  0  0  0  0  0  0  0
   64.5110   32.3440   49.3740 C   0  0  0  0  0  0  0  0  0  0  0  0
   63.7740   32.3590   48.2300 N   0  0  0  0  0  0  0  0  0  0  0  0
   57.7730   32.2200   45.8040 C   0  0  0  0  0  0  0  0  0  0  0  0
   57.2030   31.5790   44.6890 C   0  0  0  0  0  0  0  0  0  0  0  0
   56.3380   30.4450   44.8560 N   0  0  0  0  0  0  0  0  0  0  0  0
   56.7370   29.0690   44.8880 C   0  0  0  0  0  0  0  0  0  0  0  0
   55.8930   28.2010   45.2390 O   0  0  0  0  0  0  0  0  0  0  0  0
   58.1460   28.6430   44.5680 C   0  0  0  0  0  0  0  0  0  0  0  0
   59.0330   28.7810   45.7810 C   0  0  0  0  0  0  0  0  0  0  0  0
   59.8490   29.9200   45.8990 C   0  0  0  0  0  0  0  0  0  0  0  0
   60.6650   30.0960   47.0190 C   0  0  0  0  0  0  0  0  0  0  0  0
   60.6670   29.1440   48.0390 C   0  0  0  0  0  0  0  0  0  0  0  0
   59.8510   28.0160   47.9450 C   0  0  0  0  0  0  0  0  0  0  0  0
   59.0290   27.8270   46.8260 C   0  0  0  0  0  0  0  0  0  0  0  0
   57.9180   26.2620   46.7870 Br  0  0  0  0  0  0  0  0  0  0  0  0
   56.3720   30.4551   42.5074 H   0  0  0  0  0  0  0  0  0  0  0  0
   56.4255   31.9929   41.5806 H   0  0  0  0  0  0  0  0  0  0  0  0
   57.8467   30.8944   41.5806 H   0  0  0  0  0  0  0  0  0  0  0  0
   58.7213   33.4095   42.2189 H   0  0  0  0  0  0  0  0  0  0  0  0
   59.6807   34.5605   44.2080 H   0  0  0  0  0  0  0  0  0  0  0  0
   61.3383   32.3090   46.7236 H   0  0  0  0  0  0  0  0  0  0  0  0
   62.6940   33.2186   45.9387 H   0  0  0  0  0  0  0  0  0  0  0  0
   61.5229   34.7779   48.9778 H   0  0  0  0  0  0  0  0  0  0  0  0
   62.8726   34.7960   51.0860 H   0  0  0  0  0  0  0  0  0  0  0  0
   64.8055   33.2254   51.3356 H   0  0  0  0  0  0  0  0  0  0  0  0
   65.3482   31.6383   49.4794 H   0  0  0  0  0  0  0  0  0  0  0  0
   57.5143   31.8817   46.8182 H   0  0  0  0  0  0  0  0  0  0  0  0
   58.1405   27.5924   44.2422 H   0  0  0  0  0  0  0  0  0  0  0  0
   58.5377   29.2884   43.7680 H   0  0  0  0  0  0  0  0  0  0  0  0
   59.8447   30.6788   45.1027 H   0  0  0  0  0  0  0  0  0  0  0  0
   61.3067   30.9861   47.0969 H   0  0  0  0  0  0  0  0  0  0  0  0
   61.3128   29.2829   48.9186 H   0  0  0  0  0  0  0  0  0  0  0  0
   59.8530   27.2708   48.7541 H   0  0  0  0  0  0  0  0  0  0  0  0
  1  2  1  0
  2  3  2  0
  3  4  1  0
  4  5  2  0
  5  6  1  0
  6  7  2  0
  6  8  2  0
  6  9  1  0
  9 10  1  0
 10 11  1  0
 11 12  2  0
 12 13  1  0
 13 14  2  0
 14 15  1  0
 15 16  2  0
  5 17  1  0
 17 18  2  0
 18 19  1  0
 19 20  1  0
 20 21  2  0
 20 22  1  0
 22 23  1  0
 23 24  2  0
 24 25  1  0
 25 26  2  0
 26 27  1  0
 27 28  2  0
 28 29  1  0
 18  2  1  0
 28 23  1  0
 16 11  1  0
  1 30  1  0
  1 31  1  0
  1 32  1  0
  3 33  1  0
  4 34  1  0
 10 35  1  0
 10 36  1  0
 12 37  1  0
 13 38  1  0
 14 39  1  0
 15 40  1  0
 17 41  1  0
 22 42  1  0
 22 43  1  0
 24 44  1  0
 25 45  1  0
 26 46  1  0
 27 47  1  0
M  CHG  2   9  -1  19  -1
M  END
>  <UniqueID>  (24) 
21

>  <SMILES>  (24) 
Cc1ccc(S(=O)(=O)[N-]Cc2ccccn2)cc1[N-]C(=O)Cc1ccccc1Br

>  <Energy>  (24) 
50.484837341152996

>  <Genealogy>  (24) 
Cc1ccc(S(=O)(=O)[N-]Cc2ccccn2)cc1[N-]C(=O)Cc1ccccc1Br (protonated)
Cc1ccc(S(=O)(=O)[N-]Cc2ccccn2)cc1[N-]C(=O)Cc1ccccc1Br (3D coordinates assigned)
Cc1ccc(S(=O)(=O)[N-]Cc2ccccn2)cc1[N-]C(=O)Cc1ccccc1Br (optimized conformer: 50.484837341152996 kcal/mol)

>  <smiles>  (24) 
Cc1ccc(S(=O)(=O)NCc2ccccn2)cc1NC(=O)Cc1ccccc1Br

>  <score_type>  (24) 
oracle

>  <origin>  (24) 
adg

>  <m_score__min__energy>  (24) 
-12.34

>  <m_primary>  (24) 
energy

$$$$
24:0
     RDKit          3D

 49 51  0  0  0  0  0  0  0  0999 V2000
   59.0970   34.8330   46.9310 C   0  0  0  0  0  0  0  0  0  0  0  0
   59.4630   34.3740   45.5230 C   0  0  0  0  0  0  0  0  0  0  0  0
   58.6650   33.1590   45.1330 C   0  0  0  0  0  0  0  0  0  0  0  0
   58.4840   32.1080   46.0460 C   0  0  0  0  0  0  0  0  0  0  0  0
   57.7700   30.9660   45.6730 C   0  0  0  0  0  0  0  0  0  0  0  0
   57.2330   30.8590   44.3830 C   0  0  0  0  0  0  0  0  0  0  0  0
   56.3240   29.4230   43.9220 S   0  0  0  0  0  0  0  0  0  0  0  0
   57.0230   28.7560   42.7720 O   0  0  0  0  0  0  0  0  0  0  0  0
   54.9280   29.7930   43.5030 O   0  0  0  0  0  0  0  0  0  0  0  0
   56.2400   28.3150   45.2540 N   0  0  0  0  0  0  0  0  0  0  0  0
   57.3440   27.5640   45.7770 C   0  0  0  0  0  0  0  0  0  0  0  0
   57.6850   26.3580   45.1580 C   0  0  0  0  0  0  0  0  0  0  0  0
   58.7630   25.6030   45.6260 C   0  0  0  0  0  0  0  0  0  0  0  0
   59.5120   26.0490   46.7180 C   0  0  0  0  0  0  0  0  0  0  0  0
   59.1780   27.2570   47.3560 C   0  0  0  0  0  0  0  0  0  0  0  0
   59.9170   27.7570   48.4810 N   0  0  0  0  0  0  0  0  0  0  0  0
   60.2900   29.4220   48.7860 S   0  0  0  0  0  0  0  0  0  0  0  0
   61.3130   29.4930   49.8840 O   0  0  0  0  0  0  0  0  0  0  0  0
   59.0510   30.1470   49.2340 O   0  0  0  0  0  0  0  0  0  0  0  0
   60.9660   30.1700   47.3110 C   0  0  0  0  0  0  0  0  0  0  0  0
   61.6960   31.4370   47.6550 C   0  0  0  0  0  0  0  0  0  0  0  0
   61.0860   32.4140   48.4600 C   0  0  0  0  0  0  0  0  0  0  0  0
   61.7570   33.6050   48.7520 C   0  0  0  0  0  0  0  0  0  0  0  0
   63.0350   33.8340   48.2360 C   0  0  0  0  0  0  0  0  0  0  0  0
   63.6450   32.8720   47.4250 C   0  0  0  0  0  0  0  0  0  0  0  0
   62.9780   31.6790   47.1320 C   0  0  0  0  0  0  0  0  0  0  0  0
   58.0930   28.0050   46.8850 C   0  0  0  0  0  0  0  0  0  0  0  0
   57.4290   31.8980   43.4640 C   0  0  0  0  0  0  0  0  0  0  0  0
   58.1440   33.0410   43.8350 C   0  0  0  0  0  0  0  0  0  0  0  0
   59.6058   34.1949   47.6685 H   0  0  0  0  0  0  0  0  0  0  0  0
   59.4129   35.8775   47.0699 H   0  0  0  0  0  0  0  0  0  0  0  0
   58.0084   34.7576   47.0699 H   0  0  0  0  0  0  0  0  0  0  0  0
   59.2527   35.1870   44.8125 H   0  0  0  0  0  0  0  0  0  0  0  0
   60.5320   34.1153   45.5030 H   0  0  0  0  0  0  0  0  0  0  0  0
   58.9059   32.1837   47.0591 H   0  0  0  0  0  0  0  0  0  0  0  0
   57.6290   30.1480   46.3948 H   0  0  0  0  0  0  0  0  0  0  0  0
   57.1008   26.0013   44.2969 H   0  0  0  0  0  0  0  0  0  0  0  0
   59.0231   24.6545   45.1334 H   0  0  0  0  0  0  0  0  0  0  0  0
   60.3641   25.4544   47.0792 H   0  0  0  0  0  0  0  0  0  0  0  0
   61.6651   29.4664   46.8353 H   0  0  0  0  0  0  0  0  0  0  0  0
   60.1426   30.4081   46.6216 H   0  0  0  0  0  0  0  0  0  0  0  0
   60.0768   32.2409   48.8618 H   0  0  0  0  0  0  0  0  0  0  0  0
   61.2781   34.3631   49.3891 H   0  0  0  0  0  0  0  0  0  0  0  0
   63.5616   34.7715   48.4678 H   0  0  0  0  0  0  0  0  0  0  0  0
   64.6503   33.0541   47.0174 H   0  0  0  0  0  0  0  0  0  0  0  0
   63.4584   30.9265   46.4895 H   0  0  0  0  0  0  0  0  0  0  0  0
   57.8226   28.9466   47.3852 H   0  0  0  0  0  0  0  0  0  0  0  0
   57.0189   31.8144   42.4467 H   0  0  0  0  0  0  0  0  0  0  0  0
   58.2988   33.8508   43.1068 H   0  0  0  0  0  0  0  0  0  0  0  0
  1  2  1  0
  2  3  1  0
  3  4  2  0
  4  5  1  0
  5  6  2  0
  6  7  1  0
  7  8  2  0
  7  9  2  0
  7 10  1  0
 10 11  1  0
 11 12  2  0
 12 13  1  0
 13 14  2  0
 14 15  1  0
 15 16  1  0
 16 17  1  0
 17 18  2  0
 17 19  2  0
 17 20  1  0
 20 21  1  0
 21 22  2  0
 22 23  1  0
 23 24  2  0
 24 25  1  0
 25 26  2  0
 15 27  2  0
  6 28  1  0
 28 29  2  0
 29  3  1  0
 27 11  1  0
 26 21  1  0
  1 30  1  0
  1 31  1  0
  1 32  1  0
  2 33  1  0
  2 34  1  0
  4 35  1  0
  5 36  1  0
 12 37  1  0
 13 38  1  0
 14 39  1  0
 20 40  1  0
 20 41  1  0
 22 42  1  0
 23 43  1  0
 24 44  1  0
 25 45  1  0
 26 46  1  0
 27 47  1  0
 28 48  1  0
 29 49  1  0
M  CHG  2  10  -1  16  -1
M  END
>  <UniqueID>  (25) 
22

>  <SMILES>  (25) 
CCc1ccc(S(=O)(=O)[N-]c2cccc([N-]S(=O)(=O)Cc3ccccc3)c2)cc1

>  <Energy>  (25) 
49.111927547270085

>  <Genealogy>  (25) 
CCc1ccc(S(=O)(=O)[N-]c2cccc([N-]S(=O)(=O)Cc3ccccc3)c2)cc1 (protonated)
CCc1ccc(S(=O)(=O)[N-]c2cccc([N-]S(=O)(=O)Cc3ccccc3)c2)cc1 (3D coordinates assigned)
CCc1ccc(S(=O)(=O)[N-]c2cccc([N-]S(=O)(=O)Cc3ccccc3)c2)cc1 (optimized conformer: 49.111927547270085 kcal/mol)

>  <smiles>  (25) 
CCc1ccc(S(=O)(=O)Nc2cccc(NS(=O)(=O)Cc3ccccc3)c2)cc1

>  <score_type>  (25) 
oracle

>  <origin>  (25) 
adg

>  <m_score__min__energy>  (25) 
-12.52

>  <m_primary>  (25) 
energy

$$$$
25:0
     RDKit          3D

 33 34  0  0  0  0  0  0  0  0999 V2000
   59.6580   34.3410   45.6750 C   0  0  0  0  0  0  0  0  0  0  0  0
   58.8330   33.1820   45.2020 C   0  0  0  0  0  0  0  0  0  0  0  0
   58.4040   33.1170   43.8680 C   0  0  0  0  0  0  0  0  0  0  0  0
   57.6670   32.0190   43.4180 C   0  0  0  0  0  0  0  0  0  0  0  0
   57.3670   30.9620   44.2890 C   0  0  0  0  0  0  0  0  0  0  0  0
   56.4450   29.5780   43.6960 S   0  0  0  0  0  0  0  0  0  0  0  0
   55.1780   29.3960   44.4850 O   0  0  0  0  0  0  0  0  0  0  0  0
   56.0940   29.8180   42.2550 O   0  0  0  0  0  0  0  0  0  0  0  0
   57.3930   28.1280   43.8170 N   0  0  0  0  0  0  0  0  0  0  0  0
   58.2500   27.8200   44.9370 C   0  0  0  0  0  0  0  0  0  0  0  0
   59.5630   28.3210   45.0110 C   0  0  0  0  0  0  0  0  0  0  0  0
   60.3780   28.0090   46.0990 C   0  0  0  0  0  0  0  0  0  0  0  0
   59.8790   27.1980   47.1210 C   0  0  0  0  0  0  0  0  0  0  0  0
   60.7370   26.8460   48.2950 C   0  0  0  0  0  0  0  0  0  0  0  0
   58.6080   26.7210   47.0430 N   0  0  0  0  0  0  0  0  0  0  0  0
   57.7890   27.0070   45.9960 C   0  0  0  0  0  0  0  0  0  0  0  0
   56.4630   26.4450   45.9960 C   0  0  0  0  0  0  0  0  0  0  0  0
   55.3960   25.9960   45.9960 N   0  0  0  0  0  0  0  0  0  0  0  0
   57.8000   31.0210   45.6240 C   0  0  0  0  0  0  0  0  0  0  0  0
   57.5120   30.0210   46.4930 F   0  0  0  0  0  0  0  0  0  0  0  0
   58.5360   32.1230   46.0730 C   0  0  0  0  0  0  0  0  0  0  0  0
   59.6700   34.3579   46.7748 H   0  0  0  0  0  0  0  0  0  0  0  0
   60.6864   34.2369   45.2986 H   0  0  0  0  0  0  0  0  0  0  0  0
   59.2229   35.2786   45.2986 H   0  0  0  0  0  0  0  0  0  0  0  0
   58.6490   33.9340   43.1734 H   0  0  0  0  0  0  0  0  0  0  0  0
   57.3201   31.9834   42.3747 H   0  0  0  0  0  0  0  0  0  0  0  0
   57.3670   27.4930   42.9890 H   0  0  0  0  0  0  0  0  0  0  0  0
   59.9491   28.9629   44.2055 H   0  0  0  0  0  0  0  0  0  0  0  0
   61.4054   28.3984   46.1518 H   0  0  0  0  0  0  0  0  0  0  0  0
   60.1944   27.0686   49.2256 H   0  0  0  0  0  0  0  0  0  0  0  0
   60.9828   25.7744   48.2613 H   0  0  0  0  0  0  0  0  0  0  0  0
   61.6646   27.4362   48.2613 H   0  0  0  0  0  0  0  0  0  0  0  0
   58.8841   32.1593   47.1158 H   0  0  0  0  0  0  0  0  0  0  0  0
  1  2  1  0
  2  3  2  0
  3  4  1  0
  4  5  2  0
  5  6  1  0
  6  7  2  0
  6  8  2  0
  6  9  1  0
  9 10  1  0
 10 11  2  0
 11 12  1  0
 12 13  2  0
 13 14  1  0
 13 15  1  0
 15 16  2  0
 16 17  1  0
 17 18  3  0
  5 19  1  0
 19 20  1  0
 19 21  2  0
 21  2  1  0
 16 10  1  0
  1 22  1  0
  1 23  1  0
  1 24  1  0
  3 25  1  0
  4 26  1  0
  9 27  1  0
 11 28  1  0
 12 29  1  0
 14 30  1  0
 14 31  1  0
 14 32  1  0
 21 33  1  0
M  END
>  <UniqueID>  (26) 
23

>  <SMILES>  (26) 
Cc1ccc(S(=O)(=O)Nc2ccc(C)nc2C#N)c(F)c1

>  <Energy>  (26) 
35.81648192178214

>  <Genealogy>  (26) 
Cc1ccc(S(=O)(=O)Nc2ccc(C)nc2C#N)c(F)c1 (3D coordinates assigned)
Cc1ccc(S(=O)(=O)Nc2ccc(C)nc2C#N)c(F)c1 (optimized conformer: 35.81648192178214 kcal/mol)

>  <smiles>  (26) 
Cc1ccc(S(=O)(=O)Nc2ccc(C)nc2C#N)c(F)c1

>  <score_type>  (26) 
oracle

>  <origin>  (26) 
adg

>  <m_score__min__energy>  (26) 
-8.2300000000000004

>  <m_primary>  (26) 
energy

$$$$
26:0
     RDKit          3D

 36 37  0  0  0  0  0  0  0  0999 V2000
   54.7950   29.3720   44.6880 O   0  0  0  0  0  0  0  0  0  0  0  0
   55.9320   28.8650   44.8720 C   0  0  0  0  0  0  0  0  0  0  0  0
   56.0540   27.6990   45.6180 O   0  0  0  0  0  0  0  0  0  0  0  0
   57.1460   29.5080   44.2770 C   0  0  0  0  0  0  0  0  0  0  0  0
   57.6790   30.5420   45.1880 N   0  0  0  0  0  0  0  0  0  0  0  0
   59.1520   30.6360   45.0740 C   0  0  0  0  0  0  0  0  0  0  0  0
   59.7830   30.4400   46.4330 C   0  0  0  0  0  0  0  0  0  0  0  0
   60.9000   31.2350   46.7500 C   0  0  0  0  0  0  0  0  0  0  0  0
   61.5310   31.1220   47.9910 C   0  0  0  0  0  0  0  0  0  0  0  0
   63.0440   32.2140   48.3940 Br  0  0  0  0  0  0  0  0  0  0  0  0
   61.0530   30.2120   48.9340 C   0  0  0  0  0  0  0  0  0  0  0  0
   59.9420   29.4200   48.6400 C   0  0  0  0  0  0  0  0  0  0  0  0
   59.2930   29.5270   47.4030 C   0  0  0  0  0  0  0  0  0  0  0  0
   58.1740   28.7160   47.1940 O   0  0  0  0  0  0  0  0  0  0  0  0
   57.0400   31.8520   44.9380 C   0  0  0  0  0  0  0  0  0  0  0  0
   57.9370   32.9680   45.4140 C   0  0  0  0  0  0  0  0  0  0  0  0
   58.4490   33.9040   44.5020 C   0  0  0  0  0  0  0  0  0  0  0  0
   59.3060   34.9190   44.9390 C   0  0  0  0  0  0  0  0  0  0  0  0
   59.6580   35.0060   46.2880 C   0  0  0  0  0  0  0  0  0  0  0  0
   59.1520   34.0800   47.2060 C   0  0  0  0  0  0  0  0  0  0  0  0
   59.6510   34.2080   49.0470 Br  0  0  0  0  0  0  0  0  0  0  0  0
   58.2890   33.0650   46.7740 C   0  0  0  0  0  0  0  0  0  0  0  0
   57.8030   32.1680   47.6710 F   0  0  0  0  0  0  0  0  0  0  0  0
   57.9165   28.7413   44.1083 H   0  0  0  0  0  0  0  0  0  0  0  0
   56.8686   29.9808   43.3233 H   0  0  0  0  0  0  0  0  0  0  0  0
   59.5157   29.8580   44.3867 H   0  0  0  0  0  0  0  0  0  0  0  0
   59.4241   31.6289   44.6865 H   0  0  0  0  0  0  0  0  0  0  0  0
   61.2812   31.9549   46.0108 H   0  0  0  0  0  0  0  0  0  0  0  0
   61.5520   30.1185   49.9099 H   0  0  0  0  0  0  0  0  0  0  0  0
   59.5717   28.7036   49.3881 H   0  0  0  0  0  0  0  0  0  0  0  0
   57.4720   28.8840   46.4890 H   0  0  0  0  0  0  0  0  0  0  0  0
   56.8574   31.9674   43.8594 H   0  0  0  0  0  0  0  0  0  0  0  0
   56.0878   31.8977   45.4868 H   0  0  0  0  0  0  0  0  0  0  0  0
   58.1749   33.8389   43.4387 H   0  0  0  0  0  0  0  0  0  0  0  0
   59.7035   35.6499   44.2194 H   0  0  0  0  0  0  0  0  0  0  0  0
   60.3341   35.8039   46.6288 H   0  0  0  0  0  0  0  0  0  0  0  0
  1  2  2  0
  2  3  1  0
  2  4  1  0
  4  5  1  0
  5  6  1  0
  6  7  1  0
  7  8  2  0
  8  9  1  0
  9 10  1  0
  9 11  2  0
 11 12  1  0
 12 13  2  0
 13 14  1  0
  5 15  1  0
 15 16  1  0
 16 17  2  0
 17 18  1  0
 18 19  2  0
 19 20  1  0
 20 21  1  0
 20 22  2  0
 22 23  1  0
 13  7  1  0
 22 16  1  0
  4 24  1  0
  4 25  1  0
  6 26  1  0
  6 27  1  0
  8 28  1  0
 11 29  1  0
 12 30  1  0
 14 31  1  0
 15 32  1  0
 15 33  1  0
 17 34  1  0
 18 35  1  0
 19 36  1  0
M  CHG  1   3  -1
M  END
>  <UniqueID>  (27) 
24

>  <SMILES>  (27) 
O=C([O-])CN(Cc1cc(Br)ccc1O)Cc1cccc(Br)c1F

>  <Energy>  (27) 
39.55918922260876

>  <Genealogy>  (27) 
O=C([O-])CN(Cc1cc(Br)ccc1O)Cc1cccc(Br)c1F (protonated)
O=C([O-])CN(Cc1cc(Br)ccc1O)Cc1cccc(Br)c1F (3D coordinates assigned)
O=C([O-])CN(Cc1cc(Br)ccc1O)Cc1cccc(Br)c1F (optimized conformer: 39.55918922260876 kcal/mol)

>  <smiles>  (27) 
O=C(O)CN(Cc1cc(Br)ccc1O)Cc1cccc(Br)c1F

>  <score_type>  (27) 
oracle

>  <origin>  (27) 
adg

>  <m_score__min__energy>  (27) 
-10.5

>  <m_primary>  (27) 
energy

$$$$
27:0
     RDKit          3D

 57 60  0  0  1  0  0  0  0  0999 V2000
   63.4500   30.0400   52.2760 C   0  0  0  0  0  0  0  0  0  0  0  0
   62.7500   30.3240   51.0220 C   0  0  0  0  0  0  0  0  0  0  0  0
   61.6210   29.6320   50.6470 C   0  0  0  0  0  0  0  0  0  0  0  0
   60.9590   29.9100   49.4470 C   0  0  0  0  0  0  0  0  0  0  0  0
   61.3950   30.8850   48.5770 C   0  0  0  0  0  0  0  0  0  0  0  0
   60.6100   31.2520   47.0620 S   0  0  0  0  0  0  0  0  0  0  0  0
   61.1480   30.1220   46.1400 O   0  0  0  0  0  0  0  0  0  0  0  0
   61.1500   32.4480   46.3560 O   0  0  0  0  0  0  0  0  0  0  0  0
   58.9520   30.9860   47.0160 N   0  0  0  0  0  0  0  0  0  0  0  0
   58.2980   30.0990   46.4250 C   0  0  0  0  0  0  0  0  0  0  0  0
   58.3560   28.7300   46.8980 C   0  0  0  0  0  0  0  0  0  0  0  0
   59.0540   28.4730   47.8770 O   0  0  0  0  0  0  0  0  0  0  0  0
   57.6040   27.6870   46.2270 C   0  0  0  0  0  0  0  0  0  0  0  0
   57.6610   26.4420   46.6140 C   0  0  0  0  0  0  0  0  0  0  0  0
   57.1240   25.3000   45.9100 C   0  0  0  0  0  0  0  0  0  0  0  0
   57.8430   24.1990   45.5180 C   0  0  0  0  0  0  0  0  0  0  0  0
   57.2460   23.1190   44.8630 C   0  0  0  0  0  0  0  0  0  0  0  0
   55.8970   23.1160   44.5780 C   0  0  0  0  0  0  0  0  0  0  0  0
   55.1740   24.2190   44.9690 C   0  0  0  0  0  0  0  0  0  0  0  0
   55.7570   25.2910   45.6180 C   0  0  0  0  0  0  0  0  0  0  0  0
   54.9220   26.3420   45.9590 O   0  0  0  0  0  0  0  0  0  0  0  0
   56.8130   28.0330   45.1030 N   0  0  0  0  0  0  0  0  0  0  0  0
   56.7810   29.3670   44.6750 C   0  0  0  0  0  0  0  0  0  0  0  0
   55.9910   29.6970   43.5560 O   0  0  0  0  0  0  0  0  0  0  0  0
   57.4520   30.3610   45.2540 C   0  0  0  0  0  0  0  0  0  0  0  0
   57.3430   31.6440   44.7420 O   0  0  0  0  0  0  0  0  0  0  0  0
   56.7690   32.7090   45.5040 C   0  0  0  0  0  0  0  0  0  0  0  0
   57.8650   33.6500   45.8370 C   0  0  0  0  0  0  0  0  0  0  0  0
   58.1980   33.7430   47.1930 C   0  0  0  0  0  0  0  0  0  0  0  0
   59.2000   34.5910   47.6050 C   0  0  0  0  0  0  0  0  0  0  0  0
   59.8680   35.3400   46.6630 C   0  0  0  0  0  0  0  0  0  0  0  0
   59.5550   35.2630   45.3230 C   0  0  0  0  0  0  0  0  0  0  0  0
   58.5430   34.4060   44.9250 C   0  0  0  0  0  0  0  0  0  0  0  0
   62.5440   31.5750   48.9810 C   0  0  0  0  0  0  0  0  0  0  0  0
   63.1970   31.3040   50.1600 C   0  0  0  0  0  0  0  0  0  0  0  0
   62.8021   30.3028   53.1252 H   0  0  0  0  0  0  0  0  0  0  0  0
   63.6993   28.9696   52.3225 H   0  0  0  0  0  0  0  0  0  0  0  0
   64.3746   30.6341   52.3225 H   0  0  0  0  0  0  0  0  0  0  0  0
   61.2306   28.8425   51.3060 H   0  0  0  0  0  0  0  0  0  0  0  0
   60.0601   29.3308   49.1892 H   0  0  0  0  0  0  0  0  0  0  0  0
   58.1675   26.2423   47.5698 H   0  0  0  0  0  0  0  0  0  0  0  0
   58.9227   24.1657   45.7259 H   0  0  0  0  0  0  0  0  0  0  0  0
   57.8626   22.2565   44.5697 H   0  0  0  0  0  0  0  0  0  0  0  0
   55.4205   22.2699   44.0613 H   0  0  0  0  0  0  0  0  0  0  0  0
   54.0949   24.2489   44.7579 H   0  0  0  0  0  0  0  0  0  0  0  0
   54.0110   26.1180   46.3680 H   0  0  0  0  0  0  0  0  0  0  0  0
   56.2700   27.3290   44.5760 H   0  0  0  0  0  0  0  0  0  0  0  0
   56.1360   30.6560   43.2190 H   0  0  0  0  0  0  0  0  0  0  0  0
   55.9978   33.2231   44.9116 H   0  0  0  0  0  0  0  0  0  0  0  0
   56.2943   32.3232   46.4182 H   0  0  0  0  0  0  0  0  0  0  0  0
   57.6562   33.1354   47.9328 H   0  0  0  0  0  0  0  0  0  0  0  0
   59.4631   34.6692   48.6702 H   0  0  0  0  0  0  0  0  0  0  0  0
   60.6718   36.0170   46.9878 H   0  0  0  0  0  0  0  0  0  0  0  0
   60.0985   35.8704   44.5843 H   0  0  0  0  0  0  0  0  0  0  0  0
   58.2818   34.3334   43.8589 H   0  0  0  0  0  0  0  0  0  0  0  0
   62.9407   32.3666   48.3283 H   0  0  0  0  0  0  0  0  0  0  0  0
   64.0959   31.8814   50.4219 H   0  0  0  0  0  0  0  0  0  0  0  0
  1  2  1  0
  2  3  2  0
  3  4  1  0
  4  5  2  0
  5  6  1  0
  6  7  2  0
  6  8  2  0
  6  9  1  0
  9 10  2  0
 10 11  1  0
 11 12  2  0
 11 13  1  0
 13 14  2  0
 14 15  1  0
 15 16  2  0
 16 17  1  0
 17 18  2  0
 18 19  1  0
 19 20  2  0
 20 21  1  0
 13 22  1  0
 22 23  1  0
 23 24  1  0
 23 25  2  0
 25 26  1  0
 26 27  1  0
 27 28  1  0
 28 29  2  0
 29 30  1  0
 30 31  2  0
 31 32  1  0
 32 33  2  0
  5 34  1  0
 34 35  2  0
 35  2  1  0
 25 10  1  0
 33 28  1  0
 20 15  1  0
  1 36  1  0
  1 37  1  0
  1 38  1  0
  3 39  1  0
  4 40  1  0
 14 41  1  0
 16 42  1  0
 17 43  1  0
 18 44  1  0
 19 45  1  0
 21 46  1  0
 22 47  1  0
 24 48  1  0
 27 49  1  0
 27 50  1  0
 29 51  1  0
 30 52  1  0
 31 53  1  0
 32 54  1  0
 33 55  1  0
 34 56  1  0
 35 57  1  0
M  END
>  <smiles>  (28) 
Cc1ccc(S(=O)(=O)N=C2C(=O)C(=Cc3ccccc3O)NC(O)=C2OCc2ccccc2)cc1

>  <score_type>  (28) 
oracle

>  <origin>  (28) 
adg

>  <m_score__min__energy>  (28) 
-11.69

>  <m_primary>  (28) 
energy

$$$$
28:0
     RDKit          3D

 53 56  0  0  0  0  0  0  0  0999 V2000
   64.6650   31.4150   51.2560 C   0  0  0  0  0  0  0  0  0  0  0  0
   65.8320   31.9640   50.4420 C   0  0  0  0  0  0  0  0  0  0  0  0
   65.3620   32.7570   49.3530 O   0  0  0  0  0  0  0  0  0  0  0  0
   64.0130   32.9920   49.0370 C   0  0  0  0  0  0  0  0  0  0  0  0
   63.3370   34.1700   49.4090 C   0  0  0  0  0  0  0  0  0  0  0  0
   61.9860   34.3360   49.0910 C   0  0  0  0  0  0  0  0  0  0  0  0
   61.2900   33.3260   48.4090 C   0  0  0  0  0  0  0  0  0  0  0  0
   59.9210   33.4360   48.1240 O   0  0  0  0  0  0  0  0  0  0  0  0
   59.2390   32.6640   47.1700 C   0  0  0  0  0  0  0  0  0  0  0  0
   58.9590   33.2500   45.9300 C   0  0  0  0  0  0  0  0  0  0  0  0
   58.2510   32.5470   44.9550 C   0  0  0  0  0  0  0  0  0  0  0  0
   57.8270   31.2360   45.2010 C   0  0  0  0  0  0  0  0  0  0  0  0
   56.9110   30.3550   43.9830 S   0  0  0  0  0  0  0  0  0  0  0  0
   57.0320   31.2060   42.4260 C   0  0  0  0  0  0  0  0  0  0  0  0
   55.4700   30.2660   44.3990 O   0  0  0  0  0  0  0  0  0  0  0  0
   57.4580   28.9620   43.8370 O   0  0  0  0  0  0  0  0  0  0  0  0
   58.1220   30.6310   46.4280 C   0  0  0  0  0  0  0  0  0  0  0  0
   58.8460   31.3230   47.4120 C   0  0  0  0  0  0  0  0  0  0  0  0
   59.2000   30.6170   48.6650 C   0  0  0  0  0  0  0  0  0  0  0  0
   59.8400   29.3590   48.6290 C   0  0  0  0  0  0  0  0  0  0  0  0
   60.1130   28.6630   49.7880 N   0  0  0  0  0  0  0  0  0  0  0  0
   60.7960   27.3670   49.6940 C   0  0  0  0  0  0  0  0  0  0  0  0
   59.8070   29.1990   51.0170 C   0  0  0  0  0  0  0  0  0  0  0  0
   60.0780   28.5830   52.0840 O   0  0  0  0  0  0  0  0  0  0  0  0
   59.1920   30.4480   51.0690 C   0  0  0  0  0  0  0  0  0  0  0  0
   58.8190   31.1400   52.1580 N   0  0  0  0  0  0  0  0  0  0  0  0
   58.2850   32.2930   51.6970 C   0  0  0  0  0  0  0  0  0  0  0  0
   58.3230   32.3310   50.3090 C   0  0  0  0  0  0  0  0  0  0  0  0
   58.9030   31.1370   49.9270 C   0  0  0  0  0  0  0  0  0  0  0  0
   61.9740   32.1780   47.9980 C   0  0  0  0  0  0  0  0  0  0  0  0
   63.3240   32.0100   48.3170 C   0  0  0  0  0  0  0  0  0  0  0  0
   64.8853   31.5186   52.3287 H   0  0  0  0  0  0  0  0  0  0  0  0
   63.7517   31.9779   51.0132 H   0  0  0  0  0  0  0  0  0  0  0  0
   64.5163   30.3525   51.0132 H   0  0  0  0  0  0  0  0  0  0  0  0
   66.4653   32.5846   51.0930 H   0  0  0  0  0  0  0  0  0  0  0  0
   66.4091   31.1187   50.0391 H   0  0  0  0  0  0  0  0  0  0  0  0
   63.8738   34.9621   49.9516 H   0  0  0  0  0  0  0  0  0  0  0  0
   61.4661   35.2623   49.3766 H   0  0  0  0  0  0  0  0  0  0  0  0
   59.3006   34.2748   45.7223 H   0  0  0  0  0  0  0  0  0  0  0  0
   58.0253   33.0244   43.9900 H   0  0  0  0  0  0  0  0  0  0  0  0
   57.1848   32.2803   42.6062 H   0  0  0  0  0  0  0  0  0  0  0  0
   57.8822   30.8056   41.8544 H   0  0  0  0  0  0  0  0  0  0  0  0
   56.1038   31.0584   41.8544 H   0  0  0  0  0  0  0  0  0  0  0  0
   57.7832   29.6029   46.6235 H   0  0  0  0  0  0  0  0  0  0  0  0
   60.1261   28.9262   47.6590 H   0  0  0  0  0  0  0  0  0  0  0  0
   60.9976   26.9845   50.7055 H   0  0  0  0  0  0  0  0  0  0  0  0
   60.1566   26.6539   49.1530 H   0  0  0  0  0  0  0  0  0  0  0  0
   61.7457   27.4914   49.1530 H   0  0  0  0  0  0  0  0  0  0  0  0
   58.9200   30.8540   53.1580 H   0  0  0  0  0  0  0  0  0  0  0  0
   57.8764   33.0916   52.3336 H   0  0  0  0  0  0  0  0  0  0  0  0
   57.9671   33.1396   49.6537 H   0  0  0  0  0  0  0  0  0  0  0  0
   61.4471   31.4037   47.4210 H   0  0  0  0  0  0  0  0  0  0  0  0
   63.8497   31.0975   47.9992 H   0  0  0  0  0  0  0  0  0  0  0  0
  1  2  1  0
  2  3  1  0
  3  4  1  0
  4  5  2  0
  5  6  1  0
  6  7  2  0
  7  8  1  0
  8  9  1  0
  9 10  2  0
 10 11  1  0
 11 12  2  0
 12 13  1  0
 13 14  1  0
 13 15  2  0
 13 16  2  0
 12 17  1  0
 17 18  2  0
 18 19  1  0
 19 20  2  0
 20 21  1  0
 21 22  1  0
 21 23  1  0
 23 24  2  0
 23 25  1  0
 25 26  1  0
 26 27  1  0
 27 28  2  0
 28 29  1  0
  7 30  1  0
 30 31  2  0
 31  4  1  0
 18  9  1  0
 29 19  1  0
 29 25  2  0
  1 32  1  0
  1 33  1  0
  1 34  1  0
  2 35  1  0
  2 36  1  0
  5 37  1  0
  6 38  1  0
 10 39  1  0
 11 40  1  0
 14 41  1  0
 14 42  1  0
 14 43  1  0
 17 44  1  0
 20 45  1  0
 22 46  1  0
 22 47  1  0
 22 48  1  0
 26 49  1  0
 27 50  1  0
 28 51  1  0
 30 52  1  0
 31 53  1  0
M  END
>  <UniqueID>  (29) 
25

>  <SMILES>  (29) 
CCOc1ccc(Oc2ccc(S(C)(=O)=O)cc2-c2cn(C)c(=O)c3[nH]ccc23)cc1

>  <Energy>  (29) 
97.59216531362817

>  <Genealogy>  (29) 
CCOc1ccc(Oc2ccc(S(C)(=O)=O)cc2-c2cn(C)c(=O)c3[nH]ccc23)cc1 (3D coordinates assigned)
CCOc1ccc(Oc2ccc(S(C)(=O)=O)cc2-c2cn(C)c(=O)c3[nH]ccc23)cc1 (optimized conformer: 97.59216531362817 kcal/mol)

>  <smiles>  (29) 
CCOc1ccc(Oc2ccc(S(C)(=O)=O)cc2-c2cn(C)c(=O)c3[nH]ccc23)cc1

>  <score_type>  (29) 
oracle

>  <origin>  (29) 
adg

>  <m_score__min__energy>  (29) 
-8.5

>  <m_primary>  (29) 
energy

$$$$
29:0
     RDKit          3D

 62 66  0  0  0  0  0  0  0  0999 V2000
   55.5240   28.8530   44.8540 O   0  0  0  0  0  0  0  0  0  0  0  0
   56.6810   28.6730   45.3170 C   0  0  0  0  0  0  0  0  0  0  0  0
   57.5430   29.7990   45.5070 N   0  0  0  0  0  0  0  0  0  0  0  0
   57.3640   31.3060   44.6660 S   0  0  0  0  0  0  0  0  0  0  0  0
   55.8990   31.5910   44.4780 O   0  0  0  0  0  0  0  0  0  0  0  0
   58.0150   31.2040   43.3140 O   0  0  0  0  0  0  0  0  0  0  0  0
   58.0960   32.6010   45.6150 C   0  0  0  0  0  0  0  0  0  0  0  0
   57.9390   32.6130   47.0110 C   0  0  0  0  0  0  0  0  0  0  0  0
   58.5190   33.6300   47.7770 C   0  0  0  0  0  0  0  0  0  0  0  0
   59.2520   34.6450   47.1540 C   0  0  0  0  0  0  0  0  0  0  0  0
   59.4040   34.6460   45.7640 C   0  0  0  0  0  0  0  0  0  0  0  0
   58.8280   33.6280   44.9910 C   0  0  0  0  0  0  0  0  0  0  0  0
   58.9800   33.6510   43.6420 F   0  0  0  0  0  0  0  0  0  0  0  0
   57.1210   27.3080   45.6490 C   0  0  0  0  0  0  0  0  0  0  0  0
   56.1710   26.3680   46.0760 C   0  0  0  0  0  0  0  0  0  0  0  0
   56.5750   25.0890   46.4700 C   0  0  0  0  0  0  0  0  0  0  0  0
   57.9290   24.7420   46.4370 C   0  0  0  0  0  0  0  0  0  0  0  0
   58.8810   25.6710   46.0100 C   0  0  0  0  0  0  0  0  0  0  0  0
   58.4870   26.9530   45.6060 C   0  0  0  0  0  0  0  0  0  0  0  0
   59.7490   28.1370   45.1070 S   0  0  0  0  0  0  0  0  0  0  0  0
   60.0620   28.6890   46.7840 C   0  0  0  0  0  0  0  0  0  0  0  0
   60.3900   27.7650   47.8000 C   0  0  0  0  0  0  0  0  0  0  0  0
   60.6350   28.2040   49.1110 C   0  0  0  0  0  0  0  0  0  0  0  0
   60.5660   29.5730   49.3500 C   0  0  0  0  0  0  0  0  0  0  0  0
   60.8050   30.2130   50.5050 N   0  0  0  0  0  0  0  0  0  0  0  0
   60.6780   31.5140   50.1480 C   0  0  0  0  0  0  0  0  0  0  0  0
   60.8630   32.5720   51.0420 O   0  0  0  0  0  0  0  0  0  0  0  0
   61.8030   33.6240   50.8240 C   0  0  0  0  0  0  0  0  0  0  0  0
   61.7910   34.1070   49.3650 C   0  0  0  0  0  0  0  0  0  0  0  0
   63.1560   34.1860   48.7870 N   0  0  0  0  0  0  0  0  0  0  0  0
   64.1510   33.3870   49.5330 C   0  0  0  0  0  0  0  0  0  0  0  0
   63.9290   31.8650   49.3480 C   0  0  0  0  0  0  0  0  0  0  0  0
   63.0540   31.5610   48.2740 O   0  0  0  0  0  0  0  0  0  0  0  0
   63.4170   32.3040   47.1290 C   0  0  0  0  0  0  0  0  0  0  0  0
   63.1730   33.8140   47.3500 C   0  0  0  0  0  0  0  0  0  0  0  0
   60.3640   31.6700   48.8370 N   0  0  0  0  0  0  0  0  0  0  0  0
   60.2950   30.4380   48.3650 N   0  0  0  0  0  0  0  0  0  0  0  0
   60.0320   30.0610   47.0890 C   0  0  0  0  0  0  0  0  0  0  0  0
   57.3578   31.8197   47.5038 H   0  0  0  0  0  0  0  0  0  0  0  0
   58.3983   33.6312   48.8704 H   0  0  0  0  0  0  0  0  0  0  0  0
   59.7092   35.4429   47.7576 H   0  0  0  0  0  0  0  0  0  0  0  0
   59.9772   35.4478   45.2756 H   0  0  0  0  0  0  0  0  0  0  0  0
   55.1050   26.6382   46.1008 H   0  0  0  0  0  0  0  0  0  0  0  0
   55.8274   24.3554   46.8061 H   0  0  0  0  0  0  0  0  0  0  0  0
   58.2453   23.7354   46.7479 H   0  0  0  0  0  0  0  0  0  0  0  0
   59.9455   25.3943   45.9910 H   0  0  0  0  0  0  0  0  0  0  0  0
   60.4541   26.6928   47.5626 H   0  0  0  0  0  0  0  0  0  0  0  0
   60.8720   27.4939   49.9170 H   0  0  0  0  0  0  0  0  0  0  0  0
   61.0560   29.8130   51.4370 H   0  0  0  0  0  0  0  0  0  0  0  0
   61.5501   34.4693   51.4810 H   0  0  0  0  0  0  0  0  0  0  0  0
   62.8079   33.2363   51.0475 H   0  0  0  0  0  0  0  0  0  0  0  0
   61.1927   33.4055   48.7650 H   0  0  0  0  0  0  0  0  0  0  0  0
   61.3594   35.1186   49.3487 H   0  0  0  0  0  0  0  0  0  0  0  0
   65.1573   33.6457   49.1718 H   0  0  0  0  0  0  0  0  0  0  0  0
   64.0406   33.6191   50.6025 H   0  0  0  0  0  0  0  0  0  0  0  0
   64.9017   31.3896   49.1535 H   0  0  0  0  0  0  0  0  0  0  0  0
   63.4644   31.4849   50.2698 H   0  0  0  0  0  0  0  0  0  0  0  0
   64.4835   32.1391   46.9161 H   0  0  0  0  0  0  0  0  0  0  0  0
   62.7994   31.9688   46.2827 H   0  0  0  0  0  0  0  0  0  0  0  0
   63.9747   34.3772   46.8499 H   0  0  0  0  0  0  0  0  0  0  0  0
   62.1848   34.0562   46.9318 H   0  0  0  0  0  0  0  0  0  0  0  0
   59.8018   30.8076   46.3147 H   0  0  0  0  0  0  0  0  0  0  0  0
  1  2  2  0
  2  3  1  0
  3  4  1  0
  4  5  2  0
  4  6  2  0
  4  7  1  0
  7  8  2  0
  8  9  1  0
  9 10  2  0
 10 11  1  0
 11 12  2  0
 12 13  1  0
  2 14  1  0
 14 15  2  0
 15 16  1  0
 16 17  2  0
 17 18  1  0
 18 19  2  0
 19 20  1  0
 20 21  1  0
 21 22  1  0
 22 23  2  0
 23 24  1  0
 24 25  2  0
 25 26  1  0
 26 27  1  0
 27 28  1  0
 28 29  1  0
 29 30  1  0
 30 31  1  0
 31 32  1  0
 32 33  1  0
 33 34  1  0
 34 35  1  0
 26 36  2  0
 36 37  1  0
 37 38  1  0
 12  7  1  0
 19 14  1  0
 38 21  2  0
 37 24  1  0
 35 30  1  0
  8 39  1  0
  9 40  1  0
 10 41  1  0
 11 42  1  0
 15 43  1  0
 16 44  1  0
 17 45  1  0
 18 46  1  0
 22 47  1  0
 23 48  1  0
 25 49  1  0
 28 50  1  0
 28 51  1  0
 29 52  1  0
 29 53  1  0
 31 54  1  0
 31 55  1  0
 32 56  1  0
 32 57  1  0
 34 58  1  0
 34 59  1  0
 35 60  1  0
 35 61  1  0
 38 62  1  0
M  CHG  2   3  -1  25   1
M  END
>  <UniqueID>  (30) 
26

>  <SMILES>  (30) 
O=C([N-]S(=O)(=O)c1ccccc1F)c1ccccc1Sc1ccc2[nH+]c(OCCN3CCOCC3)nn2c1

>  <Energy>  (30) 
124.27030931344987

>  <Genealogy>  (30) 
O=C([N-]S(=O)(=O)c1ccccc1F)c1ccccc1Sc1ccc2[nH+]c(OCCN3CCOCC3)nn2c1 (protonated)
O=C([N-]S(=O)(=O)c1ccccc1F)c1ccccc1Sc1ccc2[nH+]c(OCCN3CCOCC3)nn2c1 (3D coordinates assigned)
O=C([N-]S(=O)(=O)c1ccccc1F)c1ccccc1Sc1ccc2[nH+]c(OCCN3CCOCC3)nn2c1 (nonaromatic ring conformer: 124.27030931344987 kcal/mol)

>  <smiles>  (30) 
O=C(NS(=O)(=O)c1ccccc1F)c1ccccc1Sc1ccc2nc(OCCN3CCOCC3)nn2c1

>  <score_type>  (30) 
oracle

>  <origin>  (30) 
adg

>  <m_score__min__energy>  (30) 
-11.77

>  <m_primary>  (30) 
energy

$$$$
30:0
     RDKit          3D

 37 39  0  0  0  0  0  0  0  0999 V2000
   59.3010   28.5420   47.3550 C   0  0  0  0  0  0  0  0  0  0  0  0
   58.9160   29.8280   46.6960 C   0  0  0  0  0  0  0  0  0  0  0  0
   59.2950   31.0950   47.1120 C   0  0  0  0  0  0  0  0  0  0  0  0
   58.8290   32.0100   46.2360 N   0  0  0  0  0  0  0  0  0  0  0  0
   58.9910   33.3680   46.2240 C   0  0  0  0  0  0  0  0  0  0  0  0
   59.6780   34.0810   47.3270 C   0  0  0  0  0  0  0  0  0  0  0  0
   59.0290   34.9280   47.9990 O   0  0  0  0  0  0  0  0  0  0  0  0
   61.1090   33.8470   47.6440 C   0  0  0  0  0  0  0  0  0  0  0  0
   61.5670   33.9660   48.9690 C   0  0  0  0  0  0  0  0  0  0  0  0
   62.9110   33.7330   49.2790 C   0  0  0  0  0  0  0  0  0  0  0  0
   63.8100   33.3720   48.2730 C   0  0  0  0  0  0  0  0  0  0  0  0
   63.3660   33.2410   46.9560 C   0  0  0  0  0  0  0  0  0  0  0  0
   62.0230   33.4710   46.6410 C   0  0  0  0  0  0  0  0  0  0  0  0
   58.4410   34.0880   45.1460 C   0  0  0  0  0  0  0  0  0  0  0  0
   57.7640   33.4070   44.1230 C   0  0  0  0  0  0  0  0  0  0  0  0
   57.6270   32.0140   44.1710 C   0  0  0  0  0  0  0  0  0  0  0  0
   58.1790   31.3410   45.2620 C   0  0  0  0  0  0  0  0  0  0  0  0
   58.1970   29.9780   45.5140 C   0  0  0  0  0  0  0  0  0  0  0  0
   57.6680   28.8830   44.6310 C   0  0  0  0  0  0  0  0  0  0  0  0
   56.3050   28.4690   45.0850 C   0  0  0  0  0  0  0  0  0  0  0  0
   55.1930   29.3400   44.8910 N   0  0  0  0  0  0  0  0  0  0  0  0
   56.1430   27.3650   45.6710 O   0  0  0  0  0  0  0  0  0  0  0  0
   59.2643   28.6645   48.4475 H   0  0  0  0  0  0  0  0  0  0  0  0
   58.6005   27.7502   47.0511 H   0  0  0  0  0  0  0  0  0  0  0  0
   60.3213   28.2654   47.0511 H   0  0  0  0  0  0  0  0  0  0  0  0
   59.8830   31.3193   48.0142 H   0  0  0  0  0  0  0  0  0  0  0  0
   60.8630   34.2443   49.7671 H   0  0  0  0  0  0  0  0  0  0  0  0
   63.2605   33.8343   50.3171 H   0  0  0  0  0  0  0  0  0  0  0  0
   64.8670   33.1911   48.5182 H   0  0  0  0  0  0  0  0  0  0  0  0
   64.0743   32.9562   46.1640 H   0  0  0  0  0  0  0  0  0  0  0  0
   61.6783   33.3574   45.6026 H   0  0  0  0  0  0  0  0  0  0  0  0
   58.5420   35.1826   45.1060 H   0  0  0  0  0  0  0  0  0  0  0  0
   57.3387   33.9700   43.2791 H   0  0  0  0  0  0  0  0  0  0  0  0
   57.1011   31.4677   43.3742 H   0  0  0  0  0  0  0  0  0  0  0  0
   57.6111   29.2472   43.5946 H   0  0  0  0  0  0  0  0  0  0  0  0
   58.3442   28.0172   44.6874 H   0  0  0  0  0  0  0  0  0  0  0  0
   54.3920   29.3420   45.5590 H   0  0  0  0  0  0  0  0  0  0  0  0
  1  2  1  0
  2  3  2  0
  3  4  1  0
  4  5  1  0
  5  6  1  0
  6  7  2  0
  6  8  1  0
  8  9  2  0
  9 10  1  0
 10 11  2  0
 11 12  1  0
 12 13  2  0
  5 14  2  0
 14 15  1  0
 15 16  2  0
 16 17  1  0
 17 18  2  0
 18 19  1  0
 19 20  1  0
 20 21  1  0
 20 22  2  0
 18  2  1  0
 17  4  1  0
 13  8  1  0
  1 23  1  0
  1 24  1  0
  1 25  1  0
  3 26  1  0
  9 27  1  0
 10 28  1  0
 11 29  1  0
 12 30  1  0
 13 31  1  0
 14 32  1  0
 15 33  1  0
 16 34  1  0
 19 35  1  0
 19 36  1  0
 21 37  1  0
M  CHG  1  21  -1
M  END
>  <UniqueID>  (31) 
27

>  <SMILES>  (31) 
Cc1cn2c(C(=O)c3ccccc3)cccc2c1CC([NH-])=O

>  <Energy>  (31) 
74.35227168535366

>  <Genealogy>  (31) 
Cc1cn2c(C(=O)c3ccccc3)cccc2c1CC([NH-])=O (protonated)
Cc1cn2c(C(=O)c3ccccc3)cccc2c1CC([NH-])=O (3D coordinates assigned)
Cc1cn2c(C(=O)c3ccccc3)cccc2c1CC([NH-])=O (optimized conformer: 74.35227168535366 kcal/mol)

>  <smiles>  (31) 
Cc1cn2c(C(=O)c3ccccc3)cccc2c1CC(N)=O

>  <score_type>  (31) 
oracle

>  <origin>  (31) 
adg

>  <m_score__min__energy>  (31) 
-11.779999999999999

>  <m_primary>  (31) 
energy

$$$$
31:0
     RDKit          3D

 70 74  0  0  0  0  0  0  0  0999 V2000
   59.6290   29.8330   53.4420 C   0  0  0  0  0  0  0  0  0  0  0  0
   59.5640   31.3350   53.1300 C   0  0  1  0  0  0  0  0  0  0  0  0
   60.9210   31.9120   52.6600 C   0  0  0  0  0  0  0  0  0  0  0  0
   60.7320   33.0430   51.7190 N   0  0  0  0  0  0  0  0  0  0  0  0
   61.9780   33.7850   51.4280 C   0  0  0  0  0  0  0  0  0  0  0  0
   62.4220   33.6970   49.9820 C   0  0  0  0  0  0  0  0  0  0  0  0
   63.7460   33.3470   49.6650 C   0  0  0  0  0  0  0  0  0  0  0  0
   64.1520   33.2570   48.3300 C   0  0  0  0  0  0  0  0  0  0  0  0
   63.2400   33.5090   47.3010 C   0  0  0  0  0  0  0  0  0  0  0  0
   63.6360   33.4190   46.0060 F   0  0  0  0  0  0  0  0  0  0  0  0
   61.9190   33.8460   47.6060 C   0  0  0  0  0  0  0  0  0  0  0  0
   61.5090   33.9370   48.9410 C   0  0  0  0  0  0  0  0  0  0  0  0
   59.5980   33.9130   52.0920 C   0  0  0  0  0  0  0  0  0  0  0  0
   58.2780   33.1270   51.9660 C   0  0  0  0  0  0  0  0  0  0  0  0
   58.5190   31.6880   52.1550 N   0  0  0  0  0  0  0  0  0  0  0  0
   58.1090   30.7890   51.1080 C   0  0  0  0  0  0  0  0  0  0  0  0
   57.0550   30.1110   51.2500 O   0  0  0  0  0  0  0  0  0  0  0  0
   58.9410   30.6130   49.8940 C   0  0  0  0  0  0  0  0  0  0  0  0
   60.1530   29.9040   49.9600 C   0  0  0  0  0  0  0  0  0  0  0  0
   60.9530   29.7670   48.8220 C   0  0  0  0  0  0  0  0  0  0  0  0
   60.5540   30.3320   47.6090 C   0  0  0  0  0  0  0  0  0  0  0  0
   59.3340   31.0200   47.5190 C   0  0  0  0  0  0  0  0  0  0  0  0
   58.8920   31.6370   46.2200 C   0  0  0  0  0  0  0  0  0  0  0  0
   57.8360   30.8750   45.6310 O   0  0  0  0  0  0  0  0  0  0  0  0
   57.8600   29.4900   45.4010 C   0  0  0  0  0  0  0  0  0  0  0  0
   57.7540   28.9300   44.1150 C   0  0  0  0  0  0  0  0  0  0  0  0
   57.7620   27.5430   43.9440 C   0  0  0  0  0  0  0  0  0  0  0  0
   57.8730   26.6900   45.0530 C   0  0  0  0  0  0  0  0  0  0  0  0
   57.8440   25.1920   44.8600 C   0  0  0  0  0  0  0  0  0  0  0  0
   56.4270   24.6600   44.7950 C   0  0  0  0  0  0  0  0  0  0  0  0
   56.0470   23.7440   43.7960 C   0  0  0  0  0  0  0  0  0  0  0  0
   56.9760   23.2910   42.8600 O   0  0  0  0  0  0  0  0  0  0  0  0
   54.7680   23.2890   43.7430 N   0  0  0  0  0  0  0  0  0  0  0  0
   53.8360   23.7060   44.6380 C   0  0  0  0  0  0  0  0  0  0  0  0
   52.6580   23.2700   44.5690 O   0  0  0  0  0  0  0  0  0  0  0  0
   54.1760   24.5870   45.6130 N   0  0  0  0  0  0  0  0  0  0  0  0
   55.4410   25.0710   45.7130 C   0  0  0  0  0  0  0  0  0  0  0  0
   55.7140   25.8840   46.6360 O   0  0  0  0  0  0  0  0  0  0  0  0
   57.9760   27.2480   46.3390 C   0  0  0  0  0  0  0  0  0  0  0  0
   58.0670   26.4510   47.4320 F   0  0  0  0  0  0  0  0  0  0  0  0
   57.9790   28.6380   46.5050 C   0  0  0  0  0  0  0  0  0  0  0  0
   58.5330   31.1570   48.6620 C   0  0  0  0  0  0  0  0  0  0  0  0
   59.6354   29.6849   54.5320 H   0  0  0  0  0  0  0  0  0  0  0  0
   58.7518   29.3302   53.0088 H   0  0  0  0  0  0  0  0  0  0  0  0
   60.5464   29.4079   53.0088 H   0  0  0  0  0  0  0  0  0  0  0  0
   59.2998   31.7965   54.0929 H   0  0  0  0  0  0  0  0  0  0  0  0
   61.4822   32.2663   53.5372 H   0  0  0  0  0  0  0  0  0  0  0  0
   61.4732   31.1164   52.1383 H   0  0  0  0  0  0  0  0  0  0  0  0
   61.8163   34.8442   51.6767 H   0  0  0  0  0  0  0  0  0  0  0  0
   62.7723   33.3251   52.0343 H   0  0  0  0  0  0  0  0  0  0  0  0
   64.4662   33.1429   50.4711 H   0  0  0  0  0  0  0  0  0  0  0  0
   65.1909   32.9874   48.0891 H   0  0  0  0  0  0  0  0  0  0  0  0
   61.2004   34.0400   46.7961 H   0  0  0  0  0  0  0  0  0  0  0  0
   60.4667   34.1977   49.1767 H   0  0  0  0  0  0  0  0  0  0  0  0
   59.7238   34.2527   53.1306 H   0  0  0  0  0  0  0  0  0  0  0  0
   59.5697   34.7834   51.4200 H   0  0  0  0  0  0  0  0  0  0  0  0
   57.5713   33.4799   52.7315 H   0  0  0  0  0  0  0  0  0  0  0  0
   57.8595   33.2903   50.9619 H   0  0  0  0  0  0  0  0  0  0  0  0
   60.4734   29.4549   50.9117 H   0  0  0  0  0  0  0  0  0  0  0  0
   61.9007   29.2118   48.8822 H   0  0  0  0  0  0  0  0  0  0  0  0
   61.1974   30.2376   46.7218 H   0  0  0  0  0  0  0  0  0  0  0  0
   58.5363   32.6605   46.4092 H   0  0  0  0  0  0  0  0  0  0  0  0
   59.7462   31.6512   45.5271 H   0  0  0  0  0  0  0  0  0  0  0  0
   57.6642   29.5881   43.2382 H   0  0  0  0  0  0  0  0  0  0  0  0
   57.6807   27.1169   42.9332 H   0  0  0  0  0  0  0  0  0  0  0  0
   58.3608   24.9440   43.9212 H   0  0  0  0  0  0  0  0  0  0  0  0
   58.3445   24.7267   45.7219 H   0  0  0  0  0  0  0  0  0  0  0  0
   56.7720   23.3190   41.8680 H   0  0  0  0  0  0  0  0  0  0  0  0
   58.0759   29.0652   47.5140 H   0  0  0  0  0  0  0  0  0  0  0  0
   57.5760   31.6952   48.5948 H   0  0  0  0  0  0  0  0  0  0  0  0
  1  2  1  0
  2  3  1  0
  3  4  1  0
  4  5  1  0
  5  6  1  0
  6  7  2  0
  7  8  1  0
  8  9  2  0
  9 10  1  0
  9 11  1  0
 11 12  2  0
  4 13  1  0
 13 14  1  0
 14 15  1  0
 15 16  1  0
 16 17  2  0
 16 18  1  0
 18 19  2  0
 19 20  1  0
 20 21  2  0
 21 22  1  0
 22 23  1  0
 23 24  1  0
 24 25  1  0
 25 26  2  0
 26 27  1  0
 27 28  2  0
 28 29  1  0
 29 30  1  0
 30 31  2  0
 31 32  1  0
 31 33  1  0
 33 34  1  0
 34 35  2  0
 34 36  1  0
 36 37  1  0
 37 38  2  0
 28 39  1  0
 39 40  1  0
 39 41  2  0
 22 42  2  0
 15  2  1  0
 42 18  1  0
 12  6  1  0
 41 25  1  0
 37 30  1  0
  1 43  1  0
  1 44  1  0
  1 45  1  0
  2 46  1  1
  3 47  1  0
  3 48  1  0
  5 49  1  0
  5 50  1  0
  7 51  1  0
  8 52  1  0
 11 53  1  0
 12 54  1  0
 13 55  1  0
 13 56  1  0
 14 57  1  0
 14 58  1  0
 19 59  1  0
 20 60  1  0
 21 61  1  0
 23 62  1  0
 23 63  1  0
 26 64  1  0
 27 65  1  0
 29 66  1  0
 29 67  1  0
 32 68  1  0
 41 69  1  0
 42 70  1  0
M  CHG  2  33  -1  36  -1
M  END
>  <UniqueID>  (32) 
28

>  <SMILES>  (32) 
C[C@H]1CN(Cc2ccc(F)cc2)CCN1C(=O)c1cccc(COc2ccc(Cc3c(O)[n-]c(=O)[n-]c3=O)c(F)c2)c1

>  <Energy>  (32) 
94.53878244848468

>  <Genealogy>  (32) 
CC1CN(Cc2ccc(F)cc2)CCN1C(=O)c1cccc(COc2ccc(Cc3c(O)[n-]c(=O)[n-]c3=O)c(F)c2)c1 (protonated)
C[C@H]1CN(Cc2ccc(F)cc2)CCN1C(=O)c1cccc(COc2ccc(Cc3c(O)[n-]c(=O)[n-]c3=O)c(F)c2)c1 (chirality)
C[C@H]1CN(Cc2ccc(F)cc2)CCN1C(=O)c1cccc(COc2ccc(Cc3c(O)[n-]c(=O)[n-]c3=O)c(F)c2)c1 (3D coordinates assigned)
C[C@H]1CN(Cc2ccc(F)cc2)CCN1C(=O)c1cccc(COc2ccc(Cc3c(O)[n-]c(=O)[n-]c3=O)c(F)c2)c1 (nonaromatic ring conformer: 94.53878244848468 kcal/mol)

>  <smiles>  (32) 
CC1CN(Cc2ccc(F)cc2)CCN1C(=O)c1cccc(COc2ccc(Cc3c(O)[nH]c(=O)[nH]c3=O)c(F)c2)c1

>  <score_type>  (32) 
oracle

>  <origin>  (32) 
adg

>  <m_score__min__energy>  (32) 
-14.32

>  <m_primary>  (32) 
energy

$$$$
32:0
     RDKit          3D

 43 47  0  0  0  0  0  0  0  0999 V2000
   53.5180   30.8677   50.2856 H   0  0  0  0  0  0  0  0  0  0  0  0
   53.3670   30.8860   51.3750 C   0  0  0  0  0  0  0  0  0  0  0  0
   52.1240   31.4850   51.8910 C   0  0  0  0  0  0  0  0  0  0  0  0
   51.7130   31.3460   53.1640 N   0  0  0  0  0  0  0  0  0  0  0  0
   50.5980   32.1060   53.2200 C   0  0  0  0  0  0  0  0  0  0  0  0
   49.9070   32.2210   54.2660 O   0  0  0  0  0  0  0  0  0  0  0  0
   50.2870   32.7410   52.0700 N   0  0  0  0  0  0  0  0  0  0  0  0
   51.2690   32.3490   51.2410 C   0  0  0  0  0  0  0  0  0  0  0  0
   51.4040   32.8120   49.9390 O   0  0  0  0  0  0  0  0  0  0  0  0
   54.3250   30.3620   52.1520 C   0  0  0  0  0  0  0  0  0  0  0  0
   54.2190   29.3970   53.1610 C   0  0  0  0  0  0  0  0  0  0  0  0
   53.2951   28.8760   53.4524 H   0  0  0  0  0  0  0  0  0  0  0  0
   55.4380   29.2090   53.7200 N   0  0  0  0  0  0  0  0  0  0  0  0
   55.6690   28.5600   54.5060 H   0  0  0  0  0  0  0  0  0  0  0  0
   56.2930   30.0150   53.1120 N   0  0  0  0  0  0  0  0  0  0  0  0
   57.6170   30.1830   53.3490 C   0  0  0  0  0  0  0  0  0  0  0  0
   58.2200   29.4890   54.2680 N   0  0  0  0  0  0  0  0  0  0  0  0
   59.4970   28.8160   54.0570 C   0  0  0  0  0  0  0  0  0  0  0  0
   60.1108   29.4535   54.7103 H   0  0  0  0  0  0  0  0  0  0  0  0
   59.3450   27.3240   53.8330 C   0  0  0  0  0  0  0  0  0  0  0  0
   60.1104   26.6301   54.2108 H   0  0  0  0  0  0  0  0  0  0  0  0
   58.5642   26.5800   54.0494 H   0  0  0  0  0  0  0  0  0  0  0  0
   59.6620   28.2430   52.6620 C   0  0  0  0  0  0  0  0  0  0  0  0
   60.6566   28.2139   52.1931 H   0  0  0  0  0  0  0  0  0  0  0  0
   59.2056   28.4394   51.6806 H   0  0  0  0  0  0  0  0  0  0  0  0
   58.2900   31.0990   52.5950 N   0  0  0  0  0  0  0  0  0  0  0  0
   57.6420   31.8240   51.6310 C   0  0  0  0  0  0  0  0  0  0  0  0
   58.3110   32.6940   50.9340 N   0  0  0  0  0  0  0  0  0  0  0  0
   59.5290   32.4020   50.1800 C   0  0  0  0  0  0  0  0  0  0  0  0
   59.8021   33.2824   49.5798 H   0  0  0  0  0  0  0  0  0  0  0  0
   60.3344   32.1590   50.8888 H   0  0  0  0  0  0  0  0  0  0  0  0
   59.3180   31.2250   49.2640 C   0  0  0  0  0  0  0  0  0  0  0  0
   59.4810   29.9110   49.7270 C   0  0  0  0  0  0  0  0  0  0  0  0
   59.7840   29.7310   50.7690 H   0  0  0  0  0  0  0  0  0  0  0  0
   59.2660   28.8590   48.8930 N   0  0  0  0  0  0  0  0  0  0  0  0
   58.8920   29.0390   47.5990 C   0  0  0  0  0  0  0  0  0  0  0  0
   58.7284   28.1673   46.9483 H   0  0  0  0  0  0  0  0  0  0  0  0
   58.7150   30.3290   47.0940 C   0  0  0  0  0  0  0  0  0  0  0  0
   58.4097   30.4799   46.0480 H   0  0  0  0  0  0  0  0  0  0  0  0
   58.9300   31.4250   47.9320 C   0  0  0  0  0  0  0  0  0  0  0  0
   58.7948   32.4463   47.5465 H   0  0  0  0  0  0  0  0  0  0  0  0
   56.3050   31.6310   51.4150 N   0  0  0  0  0  0  0  0  0  0  0  0
   55.6580   30.7180   52.1750 C   0  0  0  0  0  0  0  0  0  0  0  0
  1  2  1  0
  2  3  1  0
  3  4  1  0
  4  5  1  0
  5  6  2  0
  5  7  1  0
  7  8  1  0
  8  9  1  0
  2 10  2  0
 10 11  1  0
 11 12  1  0
 11 13  2  0
 13 14  1  0
 13 15  1  0
 15 16  1  0
 16 17  2  0
 17 18  1  0
 18 19  1  0
 18 20  1  0
 20 21  1  0
 20 22  1  0
 20 23  1  0
 23 24  1  0
 23 25  1  0
 16 26  1  0
 26 27  1  0
 27 28  2  3
 28 29  1  0
 29 30  1  0
 29 31  1  0
 29 32  1  0
 32 33  2  0
 33 34  1  0
 33 35  1  0
 35 36  2  0
 36 37  1  0
 36 38  1  0
 38 39  1  0
 38 40  2  0
 40 41  1  0
 27 42  1  0
 42 43  2  0
  8  3  2  0
 43 10  1  0
 43 15  1  0
 23 18  1  0
 40 32  1  0
M  CHG  5   4  -1   7  -1   9  -1  13   1  26  -1
M  END
>  <UniqueID>  (33) 
29

>  <SMILES>  (33) 
O=c1[n-]c([O-])c(/C=c2\c[nH+]n3/c(=N/C4CC4)[n-]c(=NCc4cccnc4)nc23)[n-]1

>  <Energy>  (33) 
386.7942931615339

>  <Genealogy>  (33) 
O=c1[n-]c([O-])c(C=c2c[nH+]n3c(=NC4CC4)[n-]c(=NCc4cccnc4)nc23)[n-]1 (protonated)
O=c1[n-]c([O-])c(/C=c2\c[nH+]n3/c(=N/C4CC4)[n-]c(=NCc4cccnc4)nc23)[n-]1 (cis-trans isomerization)
O=c1[n-]c([O-])c(/C=c2\c[nH+]n3/c(=N/C4CC4)[n-]c(=NCc4cccnc4)nc23)[n-]1 (3D coordinates assigned)
O=c1[n-]c([O-])c(/C=c2\c[nH+]n3/c(=N/C4CC4)[n-]c(=NCc4cccnc4)nc23)[n-]1 (nonaromatic ring conformer: 386.7942931615339 kcal/mol)

>  <smiles>  (33) 
O=c1[nH]c(O)c(C=c2cnn3c(=NC4CC4)[nH]c(=NCc4cccnc4)nc23)[nH]1

>  <score_type>  (33) 
oracle

>  <origin>  (33) 
adg

>  <m_score__min__energy>  (33) 
-15.06

>  <m_primary>  (33) 
energy

$$$$
33:0
     RDKit          3D

 35 36  0  0  0  0  0  0  0  0999 V2000
   63.0930   32.3590   47.1470 C   0  0  0  0  0  0  0  0  0  0  0  0
   61.7010   32.3670   47.6030 N   0  0  0  0  0  0  0  0  0  0  0  0
   61.0940   33.7090   47.5490 C   0  0  0  0  0  0  0  0  0  0  0  0
   59.7840   33.7990   46.7640 C   0  0  0  0  0  0  0  0  0  0  0  0
   59.7000   34.6340   45.6250 C   0  0  0  0  0  0  0  0  0  0  0  0
   58.5220   34.7290   44.8850 C   0  0  0  0  0  0  0  0  0  0  0  0
   57.4120   33.9710   45.2350 C   0  0  0  0  0  0  0  0  0  0  0  0
   57.4840   33.0920   46.3120 C   0  0  0  0  0  0  0  0  0  0  0  0
   58.6610   32.9710   47.0740 C   0  0  0  0  0  0  0  0  0  0  0  0
   58.6590   31.9150   48.1600 C   0  0  0  0  0  0  0  0  0  0  0  0
   59.3050   30.6930   47.6920 N   0  0  0  0  0  0  0  0  0  0  0  0
   59.3890   30.3000   46.3170 C   0  0  0  0  0  0  0  0  0  0  0  0
   60.5160   30.1190   45.7830 O   0  0  0  0  0  0  0  0  0  0  0  0
   58.1540   30.1030   45.5230 C   0  0  0  0  0  0  0  0  0  0  0  0
   57.9770   30.7590   44.2930 C   0  0  0  0  0  0  0  0  0  0  0  0
   56.8090   30.5640   43.5550 C   0  0  0  0  0  0  0  0  0  0  0  0
   55.8200   29.7110   44.0500 C   0  0  0  0  0  0  0  0  0  0  0  0
   54.7610   29.5240   43.3960 O   0  0  0  0  0  0  0  0  0  0  0  0
   56.0010   29.0810   45.2390 N   0  0  0  0  0  0  0  0  0  0  0  0
   57.1300   29.2530   45.9790 C   0  0  0  0  0  0  0  0  0  0  0  0
   63.7643   32.3551   48.0184 H   0  0  0  0  0  0  0  0  0  0  0  0
   63.2749   31.4598   46.5401 H   0  0  0  0  0  0  0  0  0  0  0  0
   63.2852   33.2561   46.5401 H   0  0  0  0  0  0  0  0  0  0  0  0
   61.1360   31.6630   47.0790 H   0  0  0  0  0  0  0  0  0  0  0  0
   60.8958   34.0348   48.5808 H   0  0  0  0  0  0  0  0  0  0  0  0
   61.8136   34.3489   47.0174 H   0  0  0  0  0  0  0  0  0  0  0  0
   60.5796   35.2187   45.3177 H   0  0  0  0  0  0  0  0  0  0  0  0
   58.4716   35.4071   44.0204 H   0  0  0  0  0  0  0  0  0  0  0  0
   56.4777   34.0651   44.6621 H   0  0  0  0  0  0  0  0  0  0  0  0
   56.6064   32.4818   46.5718 H   0  0  0  0  0  0  0  0  0  0  0  0
   59.2021   32.2976   49.0368 H   0  0  0  0  0  0  0  0  0  0  0  0
   57.6172   31.6844   48.4273 H   0  0  0  0  0  0  0  0  0  0  0  0
   58.7617   31.4284   43.9107 H   0  0  0  0  0  0  0  0  0  0  0  0
   56.6684   31.0773   42.5923 H   0  0  0  0  0  0  0  0  0  0  0  0
   57.2424   28.7253   46.9376 H   0  0  0  0  0  0  0  0  0  0  0  0
  1  2  1  0
  2  3  1  0
  3  4  1  0
  4  5  2  0
  5  6  1  0
  6  7  2  0
  7  8  1  0
  8  9  2  0
  9 10  1  0
 10 11  1  0
 11 12  1  0
 12 13  2  0
 12 14  1  0
 14 15  1  0
 15 16  2  0
 16 17  1  0
 17 18  2  0
 17 19  1  0
 19 20  1  0
  9  4  1  0
 20 14  2  0
  1 21  1  0
  1 22  1  0
  1 23  1  0
  2 24  1  0
  3 25  1  0
  3 26  1  0
  5 27  1  0
  6 28  1  0
  7 29  1  0
  8 30  1  0
 10 31  1  0
 10 32  1  0
 15 33  1  0
 16 34  1  0
 20 35  1  0
M  CHG  2  11  -1  19  -1
M  END
>  <UniqueID>  (34) 
30

>  <SMILES>  (34) 
CNCc1ccccc1C[N-]C(=O)c1ccc(=O)[n-]c1

>  <Energy>  (34) 
42.101125703923294

>  <Genealogy>  (34) 
CNCc1ccccc1C[N-]C(=O)c1ccc(=O)[n-]c1 (protonated)
CNCc1ccccc1C[N-]C(=O)c1ccc(=O)[n-]c1 (3D coordinates assigned)
CNCc1ccccc1C[N-]C(=O)c1ccc(=O)[n-]c1 (optimized conformer: 42.101125703923294 kcal/mol)

>  <smiles>  (34) 
CNCc1ccccc1CNC(=O)c1ccc(=O)[nH]c1

>  <score_type>  (34) 
oracle

>  <origin>  (34) 
adg

>  <m_score__min__energy>  (34) 
-9.6999999999999993

>  <m_primary>  (34) 
energy

$$$$
34:0
     RDKit          3D

 83 86  0  0  0  0  0  0  0  0999 V2000
   57.3526   33.8153   43.3739 H   0  0  0  0  0  0  0  0  0  0  0  0
   57.4350   33.0130   44.1220 C   0  0  0  0  0  0  0  0  0  0  0  0
   57.2540   33.2890   45.4180 C   0  0  0  0  0  0  0  0  0  0  0  0
   56.2235   33.4682   45.7584 H   0  0  0  0  0  0  0  0  0  0  0  0
   58.3370   33.3730   46.4370 C   0  0  0  0  0  0  0  0  0  0  0  0
   59.5940   33.9530   46.1810 C   0  0  0  0  0  0  0  0  0  0  0  0
   59.8184   34.3468   45.1787 H   0  0  0  0  0  0  0  0  0  0  0  0
   60.5580   34.0330   47.1870 C   0  0  0  0  0  0  0  0  0  0  0  0
   61.5310   34.4989   46.9721 H   0  0  0  0  0  0  0  0  0  0  0  0
   60.2990   33.5240   48.4740 C   0  0  0  0  0  0  0  0  0  0  0  0
   61.2180   33.6290   49.5350 O   0  0  0  0  0  0  0  0  0  0  0  0
   62.2810   34.5770   49.6600 C   0  0  0  0  0  0  0  0  0  0  0  0
   62.0427   35.4696   49.0630 H   0  0  0  0  0  0  0  0  0  0  0  0
   62.3930   34.8500   50.7197 H   0  0  0  0  0  0  0  0  0  0  0  0
   63.6040   33.9690   49.1580 C   0  0  0  0  0  0  0  0  0  0  0  0
   64.1791   34.7565   48.6490 H   0  0  0  0  0  0  0  0  0  0  0  0
   64.1333   33.5708   50.0362 H   0  0  0  0  0  0  0  0  0  0  0  0
   63.4040   32.8010   48.1790 C   0  0  0  0  0  0  0  0  0  0  0  0
   62.6193   33.0781   47.4597 H   0  0  0  0  0  0  0  0  0  0  0  0
   64.3702   32.6183   47.6860 H   0  0  0  0  0  0  0  0  0  0  0  0
   62.9880   31.4850   48.8780 C   0  0  0  0  0  0  0  0  0  0  0  0
   61.9192   31.5467   49.1309 H   0  0  0  0  0  0  0  0  0  0  0  0
   63.2017   30.6631   48.1789 H   0  0  0  0  0  0  0  0  0  0  0  0
   63.7800   31.2040   50.1680 C   0  0  0  0  0  0  0  0  0  0  0  0
   63.7961   30.1171   50.3366 H   0  0  0  0  0  0  0  0  0  0  0  0
   64.7883   31.6197   50.0249 H   0  0  0  0  0  0  0  0  0  0  0  0
   63.1860   31.8800   51.4130 C   0  0  0  0  0  0  0  0  0  0  0  0
   63.9935   32.0745   52.1342 H   0  0  0  0  0  0  0  0  0  0  0  0
   62.7064   32.8195   51.1011 H   0  0  0  0  0  0  0  0  0  0  0  0
   62.1690   31.0310   52.0510 N   0  0  0  0  0  0  0  0  0  0  0  0
   61.5050   31.4860   53.1560 C   0  0  0  0  0  0  0  0  0  0  0  0
   61.7536   32.4731   53.5728 H   0  0  0  0  0  0  0  0  0  0  0  0
   60.5120   30.7080   53.7620 C   0  0  0  0  0  0  0  0  0  0  0  0
   59.9778   31.0886   54.6451 H   0  0  0  0  0  0  0  0  0  0  0  0
   60.1980   29.4440   53.2440 C   0  0  0  0  0  0  0  0  0  0  0  0
   59.2040   28.6200   53.9010 N   0  0  0  0  0  0  0  0  0  0  0  0
   59.2570   28.7530   54.9400 H   0  0  0  0  0  0  0  0  0  0  0  0
   59.4220   27.6150   53.7010 H   0  0  0  0  0  0  0  0  0  0  0  0
   57.8610   28.9580   53.4840 C   0  0  0  0  0  0  0  0  0  0  0  0
   56.7600   28.2230   53.9640 C   0  0  0  0  0  0  0  0  0  0  0  0
   56.9249   27.3580   54.6233 H   0  0  0  0  0  0  0  0  0  0  0  0
   55.4590   28.5870   53.6070 C   0  0  0  0  0  0  0  0  0  0  0  0
   54.6031   28.0093   53.9862 H   0  0  0  0  0  0  0  0  0  0  0  0
   55.2440   29.6850   52.7680 C   0  0  0  0  0  0  0  0  0  0  0  0
   54.2185   29.9694   52.4897 H   0  0  0  0  0  0  0  0  0  0  0  0
   56.3310   30.4250   52.2800 C   0  0  0  0  0  0  0  0  0  0  0  0
   56.1100   31.5490   51.4210 N   0  0  0  0  0  0  0  0  0  0  0  0
   56.8990   31.9770   50.8860 H   0  0  0  0  0  0  0  0  0  0  0  0
   55.1570   31.9620   51.3140 H   0  0  0  0  0  0  0  0  0  0  0  0
   57.6370   30.0600   52.6400 C   0  0  0  0  0  0  0  0  0  0  0  0
   58.4910   30.6396   52.2596 H   0  0  0  0  0  0  0  0  0  0  0  0
   60.9370   28.9720   52.1460 C   0  0  0  0  0  0  0  0  0  0  0  0
   60.7574   27.9591   51.7564 H   0  0  0  0  0  0  0  0  0  0  0  0
   61.8990   29.7890   51.5500 C   0  0  0  0  0  0  0  0  0  0  0  0
   62.4462   29.4286   50.6665 H   0  0  0  0  0  0  0  0  0  0  0  0
   59.0600   32.9150   48.7310 C   0  0  0  0  0  0  0  0  0  0  0  0
   58.8410   32.3700   50.0060 O   0  0  0  0  0  0  0  0  0  0  0  0
   58.9520   33.0970   51.2250 C   0  0  0  0  0  0  0  0  0  0  0  0
   58.8466   32.4064   52.0747 H   0  0  0  0  0  0  0  0  0  0  0  0
   59.9355   33.5876   51.2711 H   0  0  0  0  0  0  0  0  0  0  0  0
   58.1597   33.8587   51.2711 H   0  0  0  0  0  0  0  0  0  0  0  0
   58.0830   32.8570   47.7170 C   0  0  0  0  0  0  0  0  0  0  0  0
   57.1059   32.4000   47.9323 H   0  0  0  0  0  0  0  0  0  0  0  0
   57.7450   31.6350   43.6920 C   0  0  0  0  0  0  0  0  0  0  0  0
   58.8059   31.3506   43.6314 H   0  0  0  0  0  0  0  0  0  0  0  0
   56.8360   30.7010   43.3690 C   0  0  0  0  0  0  0  0  0  0  0  0
   56.6416   30.5474   42.2973 H   0  0  0  0  0  0  0  0  0  0  0  0
   56.0710   29.8590   44.3130 C   0  0  0  0  0  0  0  0  0  0  0  0
   54.9640   29.3490   43.9880 O   0  0  0  0  0  0  0  0  0  0  0  0
   56.6090   29.6360   45.6220 N   0  0  0  0  0  0  0  0  0  0  0  0
   57.9940   29.4540   45.9440 C   0  0  0  0  0  0  0  0  0  0  0  0
   58.8550   28.9640   44.9540 C   0  0  0  0  0  0  0  0  0  0  0  0
   58.4565   28.7132   43.9599 H   0  0  0  0  0  0  0  0  0  0  0  0
   60.2170   28.7910   45.2190 C   0  0  0  0  0  0  0  0  0  0  0  0
   60.8825   28.3919   44.4394 H   0  0  0  0  0  0  0  0  0  0  0  0
   60.7330   29.1250   46.4740 C   0  0  0  0  0  0  0  0  0  0  0  0
   61.8037   28.9829   46.6823 H   0  0  0  0  0  0  0  0  0  0  0  0
   59.8910   29.6400   47.4670 C   0  0  0  0  0  0  0  0  0  0  0  0
   60.4240   30.0060   48.7430 N   0  0  0  0  0  0  0  0  0  0  0  0
   60.9990   29.3310   49.2960 H   0  0  0  0  0  0  0  0  0  0  0  0
   60.2330   30.9500   49.1500 H   0  0  0  0  0  0  0  0  0  0  0  0
   58.5220   29.8080   47.2010 C   0  0  0  0  0  0  0  0  0  0  0  0
   57.8594   30.2177   47.9776 H   0  0  0  0  0  0  0  0  0  0  0  0
  1  2  1  0
  2  3  2  0
  3  4  1  0
  3  5  1  0
  5  6  2  0
  6  7  1  0
  6  8  1  0
  8  9  1  0
  8 10  2  0
 10 11  1  0
 11 12  1  0
 12 13  1  0
 12 14  1  0
 12 15  1  0
 15 16  1  0
 15 17  1  0
 15 18  1  0
 18 19  1  0
 18 20  1  0
 18 21  1  0
 21 22  1  0
 21 23  1  0
 21 24  1  0
 24 25  1  0
 24 26  1  0
 24 27  1  0
 27 28  1  0
 27 29  1  0
 27 30  1  0
 30 31  2  0
 31 32  1  0
 31 33  1  0
 33 34  1  0
 33 35  2  0
 35 36  1  0
 36 37  1  0
 36 38  1  0
 36 39  1  0
 39 40  2  0
 40 41  1  0
 40 42  1  0
 42 43  1  0
 42 44  2  0
 44 45  1  0
 44 46  1  0
 46 47  1  0
 47 48  1  0
 47 49  1  0
 46 50  2  0
 50 51  1  0
 35 52  1  0
 52 53  1  0
 52 54  2  0
 54 55  1  0
 10 56  1  0
 56 57  1  0
 57 58  1  0
 58 59  1  0
 58 60  1  0
 58 61  1  0
 56 62  2  0
 62 63  1  0
  2 64  1  0
 64 65  1  0
 64 66  2  0
 66 67  1  0
 66 68  1  0
 68 69  2  0
 68 70  1  0
 70 71  1  0
 71 72  2  0
 72 73  1  0
 72 74  1  0
 74 75  1  0
 74 76  2  0
 76 77  1  0
 76 78  1  0
 78 79  1  0
 79 80  1  0
 79 81  1  0
 78 82  2  0
 82 83  1  0
 62  5  1  0
 82 71  1  0
 54 30  1  0
 50 39  1  0
M  CHG  3  30   1  36   1  70  -1
M  END
>  <UniqueID>  (35) 
31

>  <SMILES>  (35) 
COc1cc(C=C/C=C\C(=O)[N-]c2cccc(N)c2)ccc1OCCCCCC[n+]1ccc([NH2+]c2cccc(N)c2)cc1

>  <Energy>  (35) 
93.14780130076419

>  <Genealogy>  (35) 
COc1cc(C=CC=CC(=O)[N-]c2cccc(N)c2)ccc1OCCCCCC[n+]1ccc([NH2+]c2cccc(N)c2)cc1 (protonated)
COc1cc(C=C/C=C\C(=O)[N-]c2cccc(N)c2)ccc1OCCCCCC[n+]1ccc([NH2+]c2cccc(N)c2)cc1 (cis-trans isomerization)
COc1cc(C=C/C=C\C(=O)[N-]c2cccc(N)c2)ccc1OCCCCCC[n+]1ccc([NH2+]c2cccc(N)c2)cc1 (3D coordinates assigned)
COc1cc(C=C/C=C\C(=O)[N-]c2cccc(N)c2)ccc1OCCCCCC[n+]1ccc([NH2+]c2cccc(N)c2)cc1 (optimized conformer: 93.14780130076419 kcal/mol)

>  <smiles>  (35) 
COc1cc(C=CC=CC(=O)Nc2cccc(N)c2)ccc1OCCCCCC[n+]1ccc(Nc2cccc(N)c2)cc1

>  <score_type>  (35) 
oracle

>  <origin>  (35) 
adg

>  <m_score__min__energy>  (35) 
-9.6300000000000008

>  <m_primary>  (35) 
energy

$$$$
35:0
     RDKit          3D

 60 62  0  0  0  0  0  0  0  0999 V2000
   64.9895   32.8629   47.8321 H   0  0  0  0  0  0  0  0  0  0  0  0
   63.9220   33.1180   47.9050 C   0  0  0  0  0  0  0  0  0  0  0  0
   63.1950   33.4180   46.7500 C   0  0  0  0  0  0  0  0  0  0  0  0
   63.6907   33.3987   45.7682 H   0  0  0  0  0  0  0  0  0  0  0  0
   61.8370   33.7430   46.8410 C   0  0  0  0  0  0  0  0  0  0  0  0
   61.2665   33.9742   45.9294 H   0  0  0  0  0  0  0  0  0  0  0  0
   61.2000   33.7750   48.0920 C   0  0  0  0  0  0  0  0  0  0  0  0
   59.7270   34.0790   48.1840 C   0  0  0  0  0  0  0  0  0  0  0  0
   59.5193   34.5494   49.1564 H   0  0  0  0  0  0  0  0  0  0  0  0
   59.1729   33.1346   48.0790 H   0  0  0  0  0  0  0  0  0  0  0  0
   59.2770   35.0270   47.0660 C   0  0  0  0  0  0  0  0  0  0  0  0
   60.1396   35.6230   46.7332 H   0  0  0  0  0  0  0  0  0  0  0  0
   58.4830   35.6772   47.4619 H   0  0  0  0  0  0  0  0  0  0  0  0
   58.7360   34.2820   45.9150 N   0  0  0  0  0  0  0  0  0  0  0  0
   57.7800   33.2180   46.0970 C   0  0  0  0  0  0  0  0  0  0  0  0
   56.6550   33.4730   46.6060 O   0  0  0  0  0  0  0  0  0  0  0  0
   58.0770   31.8280   45.6920 C   0  0  0  0  0  0  0  0  0  0  0  0
   58.5420   30.9020   46.6320 C   0  0  0  0  0  0  0  0  0  0  0  0
   58.6768   31.2058   47.6806 H   0  0  0  0  0  0  0  0  0  0  0  0
   58.8350   29.5960   46.2440 C   0  0  0  0  0  0  0  0  0  0  0  0
   59.1889   28.8646   46.9855 H   0  0  0  0  0  0  0  0  0  0  0  0
   58.6750   29.2180   44.8950 C   0  0  0  0  0  0  0  0  0  0  0  0
   58.9340   28.0100   44.4790 N   0  0  0  0  0  0  0  0  0  0  0  0
   58.8800   26.7870   45.2780 C   0  0  0  0  0  0  0  0  0  0  0  0
   59.4571   26.9313   46.2033 H   0  0  0  0  0  0  0  0  0  0  0  0
   59.3074   25.9575   44.6955 H   0  0  0  0  0  0  0  0  0  0  0  0
   57.4300   26.4540   45.6330 C   0  0  0  0  0  0  0  0  0  0  0  0
   56.7696   27.2168   45.1948 H   0  0  0  0  0  0  0  0  0  0  0  0
   57.3352   26.4402   46.7288 H   0  0  0  0  0  0  0  0  0  0  0  0
   57.0340   25.0990   45.1040 C   0  0  0  0  0  0  0  0  0  0  0  0
   58.0100   24.2130   44.6280 C   0  0  0  0  0  0  0  0  0  0  0  0
   59.0666   24.5185   44.6135 H   0  0  0  0  0  0  0  0  0  0  0  0
   57.6470   22.9440   44.1720 C   0  0  0  0  0  0  0  0  0  0  0  0
   58.4193   22.2572   43.7954 H   0  0  0  0  0  0  0  0  0  0  0  0
   56.3000   22.5380   44.1910 C   0  0  0  0  0  0  0  0  0  0  0  0
   55.8970   21.2710   43.7390 O   0  0  0  0  0  0  0  0  0  0  0  0
   56.2200   20.0450   44.3870 C   0  0  0  0  0  0  0  0  0  0  0  0
   56.1829   20.1857   45.4773 H   0  0  0  0  0  0  0  0  0  0  0  0
   55.4948   19.2723   44.0921 H   0  0  0  0  0  0  0  0  0  0  0  0
   57.2318   19.7299   44.0921 H   0  0  0  0  0  0  0  0  0  0  0  0
   55.3180   23.4160   44.6760 C   0  0  0  0  0  0  0  0  0  0  0  0
   53.9830   22.9810   44.6880 O   0  0  0  0  0  0  0  0  0  0  0  0
   52.8650   23.8150   44.9730 C   0  0  0  0  0  0  0  0  0  0  0  0
   52.7435   23.9057   46.0625 H   0  0  0  0  0  0  0  0  0  0  0  0
   53.0309   24.8118   44.5384 H   0  0  0  0  0  0  0  0  0  0  0  0
   51.9568   23.3720   44.5384 H   0  0  0  0  0  0  0  0  0  0  0  0
   55.6920   24.6940   45.1340 C   0  0  0  0  0  0  0  0  0  0  0  0
   54.9241   25.3811   45.5189 H   0  0  0  0  0  0  0  0  0  0  0  0
   58.2400   30.1440   43.9940 N   0  0  0  0  0  0  0  0  0  0  0  0
   58.1280   29.8760   42.9900 H   0  0  0  0  0  0  0  0  0  0  0  0
   57.9470   31.4230   44.3580 C   0  0  0  0  0  0  0  0  0  0  0  0
   57.6060   32.1426   43.5992 H   0  0  0  0  0  0  0  0  0  0  0  0
   59.2680   34.5230   44.5690 C   0  0  0  0  0  0  0  0  0  0  0  0
   60.2676   34.9758   44.6455 H   0  0  0  0  0  0  0  0  0  0  0  0
   59.3382   33.5688   44.0262 H   0  0  0  0  0  0  0  0  0  0  0  0
   58.5970   35.2051   44.0262 H   0  0  0  0  0  0  0  0  0  0  0  0
   61.9370   33.4670   49.2480 C   0  0  0  0  0  0  0  0  0  0  0  0
   61.4448   33.4817   50.2316 H   0  0  0  0  0  0  0  0  0  0  0  0
   63.2930   33.1420   49.1530 C   0  0  0  0  0  0  0  0  0  0  0  0
   63.8660   32.9048   50.0615 H   0  0  0  0  0  0  0  0  0  0  0  0
  1  2  1  0
  2  3  2  0
  3  4  1  0
  3  5  1  0
  5  6  1  0
  5  7  2  0
  7  8  1  0
  8  9  1  0
  8 10  1  0
  8 11  1  0
 11 12  1  0
 11 13  1  0
 11 14  1  0
 14 15  1  0
 15 16  2  0
 15 17  1  0
 17 18  1  0
 18 19  1  0
 18 20  2  0
 20 21  1  0
 20 22  1  0
 22 23  2  0
 23 24  1  0
 24 25  1  0
 24 26  1  0
 24 27  1  0
 27 28  1  0
 27 29  1  0
 27 30  1  0
 30 31  2  0
 31 32  1  0
 31 33  1  0
 33 34  1  0
 33 35  2  0
 35 36  1  0
 36 37  1  0
 37 38  1  0
 37 39  1  0
 37 40  1  0
 35 41  1  0
 41 42  1  0
 42 43  1  0
 43 44  1  0
 43 45  1  0
 43 46  1  0
 41 47  2  0
 47 48  1  0
 22 49  1  0
 49 50  1  0
 49 51  1  0
 51 52  1  0
 14 53  1  0
 53 54  1  0
 53 55  1  0
 53 56  1  0
  7 57  1  0
 57 58  1  0
 57 59  2  0
 59 60  1  0
 59  2  1  0
 51 17  2  0
 47 30  1  0
M  END
>  <UniqueID>  (36) 
32

>  <SMILES>  (36) 
COc1ccc(CC/N=c2\ccc(C(=O)N(C)CCc3ccccc3)c[nH]2)cc1OC

>  <Energy>  (36) 
59.26286023801555

>  <Genealogy>  (36) 
COc1ccc(CC/N=c2\ccc(C(=O)N(C)CCc3ccccc3)c[nH]2)cc1OC (cis-trans isomerization)
COc1ccc(CC/N=c2\ccc(C(=O)N(C)CCc3ccccc3)c[nH]2)cc1OC (3D coordinates assigned)
COc1ccc(CC/N=c2\ccc(C(=O)N(C)CCc3ccccc3)c[nH]2)cc1OC (optimized conformer: 59.26286023801555 kcal/mol)

>  <smiles>  (36) 
COc1ccc(CCN=c2ccc(C(=O)N(C)CCc3ccccc3)c[nH]2)cc1OC

>  <score_type>  (36) 
oracle

>  <origin>  (36) 
adg

>  <m_score__min__energy>  (36) 
-8.2400000000000002

>  <m_primary>  (36) 
energy

$$$$
36:0
     RDKit          3D

 30 31  0  0  0  0  0  0  0  0999 V2000
   60.1190   26.7100   47.3070 N   0  0  0  0  0  0  0  0  0  0  0  0
   60.2750   27.4540   46.3400 N   0  0  0  0  0  0  0  0  0  0  0  0
   60.4300   28.1960   45.3690 N   0  0  0  0  0  0  0  0  0  0  0  0
   59.3220   28.7380   44.5680 C   0  0  1  0  0  0  0  0  0  0  0  0
   58.5460   27.6030   43.9480 C   0  0  0  0  0  0  0  0  0  0  0  0
   57.2810   27.4980   44.8030 C   0  0  1  0  0  0  0  0  0  0  0  0
   57.1930   26.1700   45.4470 N   0  0  0  0  0  0  0  0  0  0  0  0
   58.1790   25.2430   45.2380 C   0  0  0  0  0  0  0  0  0  0  0  0
   58.0990   23.9620   45.8060 C   0  0  0  0  0  0  0  0  0  0  0  0
   59.1690   22.9650   45.5870 C   0  0  0  0  0  0  0  0  0  0  0  0
   60.3840   23.2950   45.6300 O   0  0  0  0  0  0  0  0  0  0  0  0
   56.9720   23.6610   46.5800 C   0  0  0  0  0  0  0  0  0  0  0  0
   56.8420   22.5300   47.1210 O   0  0  0  0  0  0  0  0  0  0  0  0
   56.0020   24.5920   46.7500 N   0  0  0  0  0  0  0  0  0  0  0  0
   56.0930   25.8250   46.1920 C   0  0  0  0  0  0  0  0  0  0  0  0
   55.1500   26.6440   46.3680 O   0  0  0  0  0  0  0  0  0  0  0  0
   57.2780   28.5250   45.7740 O   0  0  0  0  0  0  0  0  0  0  0  0
   58.2510   29.4700   45.3920 C   0  0  2  0  0  0  0  0  0  0  0  0
   57.5900   30.6030   44.5850 C   0  0  0  0  0  0  0  0  0  0  0  0
   56.2110   30.6450   44.8410 O   0  0  0  0  0  0  0  0  0  0  0  0
   59.8082   29.4224   43.8571 H   0  0  0  0  0  0  0  0  0  0  0  0
   58.2917   27.8304   42.9022 H   0  0  0  0  0  0  0  0  0  0  0  0
   59.1187   26.6641   43.9279 H   0  0  0  0  0  0  0  0  0  0  0  0
   56.4008   27.6165   44.1541 H   0  0  0  0  0  0  0  0  0  0  0  0
   59.0469   25.5063   44.6155 H   0  0  0  0  0  0  0  0  0  0  0  0
   58.8996   21.9181   45.3832 H   0  0  0  0  0  0  0  0  0  0  0  0
   58.7231   29.9292   46.2731 H   0  0  0  0  0  0  0  0  0  0  0  0
   58.0415   31.5640   44.8724 H   0  0  0  0  0  0  0  0  0  0  0  0
   57.7486   30.4170   43.5125 H   0  0  0  0  0  0  0  0  0  0  0  0
   56.0550   30.0960   45.6530 H   0  0  0  0  0  0  0  0  0  0  0  0
  1  2  2  0
  2  3  2  0
  3  4  1  0
  4  5  1  0
  5  6  1  0
  6  7  1  0
  7  8  1  0
  8  9  2  0
  9 10  1  0
 10 11  2  0
  9 12  1  0
 12 13  2  0
 12 14  1  0
 14 15  1  0
 15 16  2  0
  6 17  1  0
 17 18  1  0
 18 19  1  0
 19 20  1  0
 18  4  1  0
 15  7  1  0
  4 21  1  6
  5 22  1  0
  5 23  1  0
  6 24  1  6
  8 25  1  0
 10 26  1  0
 18 27  1  1
 19 28  1  0
 19 29  1  0
 20 30  1  0
M  CHG  3   1  -1   2   1  14  -1
M  END
>  <UniqueID>  (37) 
33

>  <SMILES>  (37) 
[N-]=[N+]=N[C@H]1C[C@@H](n2cc(C=O)c(=O)[n-]c2=O)OC1CO

>  <Energy>  (37) 
36.07441224539516

>  <Genealogy>  (37) 
[N-]=[N+]=NC1CC(n2cc(C=O)c(=O)[n-]c2=O)OC1CO (protonated)
[N-]=[N+]=N[C@H]1C[C@@H](n2cc(C=O)c(=O)[n-]c2=O)OC1CO (chirality)
[N-]=[N+]=N[C@H]1C[C@@H](n2cc(C=O)c(=O)[n-]c2=O)OC1CO (3D coordinates assigned)
[N-]=[N+]=N[C@H]1C[C@@H](n2cc(C=O)c(=O)[n-]c2=O)OC1CO (nonaromatic ring conformer: 36.07441224539516 kcal/mol)

>  <smiles>  (37) 
[N-]=[N+]=NC1CC(n2cc(C=O)c(=O)[nH]c2=O)OC1CO

>  <score_type>  (37) 
oracle

>  <origin>  (37) 
adg

>  <m_score__min__energy>  (37) 
-8.3900000000000006

>  <m_primary>  (37) 
energy

$$$$
37:0
     RDKit          3D

 33 34  0  0  0  0  0  0  0  0999 V2000
   58.8540   31.0060   47.4410 C   0  0  0  0  0  0  0  0  0  0  0  0
   58.3630   32.0100   46.4330 C   0  0  0  0  0  0  0  0  0  0  0  0
   58.3240   33.3720   46.7790 C   0  0  0  0  0  0  0  0  0  0  0  0
   57.8710   34.3230   45.8620 C   0  0  0  0  0  0  0  0  0  0  0  0
   57.4410   33.9250   44.5970 C   0  0  0  0  0  0  0  0  0  0  0  0
   57.4630   32.5750   44.2410 C   0  0  0  0  0  0  0  0  0  0  0  0
   57.9290   31.6040   45.1470 C   0  0  0  0  0  0  0  0  0  0  0  0
   57.9110   30.2110   44.7850 N   0  0  0  0  0  0  0  0  0  0  0  0
   56.7380   29.3870   44.8680 C   0  0  0  0  0  0  0  0  0  0  0  0
   55.5950   29.9160   44.9150 O   0  0  0  0  0  0  0  0  0  0  0  0
   56.8360   27.9600   44.8040 N   0  0  0  0  0  0  0  0  0  0  0  0
   57.8530   27.1570   45.4240 C   0  0  0  0  0  0  0  0  0  0  0  0
   59.2020   27.5570   45.3650 C   0  0  0  0  0  0  0  0  0  0  0  0
   60.1940   26.8100   45.9980 C   0  0  0  0  0  0  0  0  0  0  0  0
   59.8540   25.6650   46.7150 C   0  0  0  0  0  0  0  0  0  0  0  0
   58.5200   25.2670   46.8080 C   0  0  0  0  0  0  0  0  0  0  0  0
   57.5000   26.0040   46.1740 C   0  0  0  0  0  0  0  0  0  0  0  0
   56.0900   25.5390   46.2970 C   0  0  0  0  0  0  0  0  0  0  0  0
   55.0100   26.4280   46.0110 N   0  0  0  0  0  0  0  0  0  0  0  0
   55.8240   24.3610   46.6590 O   0  0  0  0  0  0  0  0  0  0  0  0
   58.6685   31.3854   48.4567 H   0  0  0  0  0  0  0  0  0  0  0  0
   58.3194   30.0548   47.3015 H   0  0  0  0  0  0  0  0  0  0  0  0
   59.9330   30.8440   47.3015 H   0  0  0  0  0  0  0  0  0  0  0  0
   58.6526   33.6910   47.7791 H   0  0  0  0  0  0  0  0  0  0  0  0
   57.8535   35.3876   46.1383 H   0  0  0  0  0  0  0  0  0  0  0  0
   57.0835   34.6764   43.8775 H   0  0  0  0  0  0  0  0  0  0  0  0
   57.1133   32.2679   43.2443 H   0  0  0  0  0  0  0  0  0  0  0  0
   58.7750   29.7840   44.3810 H   0  0  0  0  0  0  0  0  0  0  0  0
   59.4757   28.4686   44.8135 H   0  0  0  0  0  0  0  0  0  0  0  0
   61.2459   27.1247   45.9314 H   0  0  0  0  0  0  0  0  0  0  0  0
   60.6389   25.0734   47.2089 H   0  0  0  0  0  0  0  0  0  0  0  0
   58.2612   24.3662   47.3837 H   0  0  0  0  0  0  0  0  0  0  0  0
   55.1550   27.4610   45.9910 H   0  0  0  0  0  0  0  0  0  0  0  0
  1  2  1  0
  2  3  2  0
  3  4  1  0
  4  5  2  0
  5  6  1  0
  6  7  2  0
  7  8  1  0
  8  9  1  0
  9 10  2  0
  9 11  1  0
 11 12  1  0
 12 13  2  0
 13 14  1  0
 14 15  2  0
 15 16  1  0
 16 17  2  0
 17 18  1  0
 18 19  1  0
 18 20  2  0
  7  2  1  0
 17 12  1  0
  1 21  1  0
  1 22  1  0
  1 23  1  0
  3 24  1  0
  4 25  1  0
  5 26  1  0
  6 27  1  0
  8 28  1  0
 13 29  1  0
 14 30  1  0
 15 31  1  0
 16 32  1  0
 19 33  1  0
M  CHG  2  11  -1  19  -1
M  END
>  <UniqueID>  (38) 
34

>  <SMILES>  (38) 
Cc1ccccc1NC(=O)[N-]c1ccccc1C([NH-])=O

>  <Energy>  (38) 
43.90313151912147

>  <Genealogy>  (38) 
Cc1ccccc1NC(=O)[N-]c1ccccc1C([NH-])=O (protonated)
Cc1ccccc1NC(=O)[N-]c1ccccc1C([NH-])=O (3D coordinates assigned)
Cc1ccccc1NC(=O)[N-]c1ccccc1C([NH-])=O (optimized conformer: 43.90313151912147 kcal/mol)

>  <smiles>  (38) 
Cc1ccccc1NC(=O)Nc1ccccc1C(N)=O

>  <score_type>  (38) 
oracle

>  <origin>  (38) 
adg

>  <m_score__min__energy>  (38) 
-12.779999999999999

>  <m_primary>  (38) 
energy

$$$$
38:0
     RDKit          3D

 32 34  0  0  0  0  0  0  0  0999 V2000
   56.9330   24.7670   44.7240 C   0  0  0  0  0  0  0  0  0  0  0  0
   55.9360   25.7240   45.8450 S   0  0  0  0  0  0  0  0  0  0  0  0
   56.3460   25.4590   47.2670 O   0  0  0  0  0  0  0  0  0  0  0  0
   54.4990   25.3240   45.6740 O   0  0  0  0  0  0  0  0  0  0  0  0
   56.0900   27.4130   45.4880 N   0  0  0  0  0  0  0  0  0  0  0  0
   57.1090   28.2830   46.0020 C   0  0  0  0  0  0  0  0  0  0  0  0
   58.1080   27.8520   46.9050 C   0  0  0  0  0  0  0  0  0  0  0  0
   59.0730   28.7620   47.3920 C   0  0  0  0  0  0  0  0  0  0  0  0
   59.0610   30.1060   46.9820 C   0  0  0  0  0  0  0  0  0  0  0  0
   58.0770   30.4970   46.0710 C   0  0  0  0  0  0  0  0  0  0  0  0
   57.1300   29.6250   45.6160 C   0  0  0  0  0  0  0  0  0  0  0  0
   56.2580   30.2560   44.8060 N   0  0  0  0  0  0  0  0  0  0  0  0
   56.7180   31.5350   44.7940 C   0  0  0  0  0  0  0  0  0  0  0  0
   57.8290   31.7130   45.5510 N   0  0  0  0  0  0  0  0  0  0  0  0
   58.5540   32.9410   45.7280 C   0  0  0  0  0  0  0  0  0  0  0  0
   59.2420   33.1870   46.9270 C   0  0  0  0  0  0  0  0  0  0  0  0
   59.9380   34.3860   47.1110 C   0  0  0  0  0  0  0  0  0  0  0  0
   59.9430   35.3540   46.1020 C   0  0  0  0  0  0  0  0  0  0  0  0
   59.2480   35.1240   44.9120 C   0  0  0  0  0  0  0  0  0  0  0  0
   58.5520   33.9260   44.7250 C   0  0  0  0  0  0  0  0  0  0  0  0
   57.6098   24.1174   45.2984 H   0  0  0  0  0  0  0  0  0  0  0  0
   56.2808   24.1481   44.0903 H   0  0  0  0  0  0  0  0  0  0  0  0
   57.5247   25.4440   44.0903 H   0  0  0  0  0  0  0  0  0  0  0  0
   58.1341   26.8016   47.2305 H   0  0  0  0  0  0  0  0  0  0  0  0
   59.8410   28.4150   48.0989 H   0  0  0  0  0  0  0  0  0  0  0  0
   59.8004   30.8248   47.3649 H   0  0  0  0  0  0  0  0  0  0  0  0
   56.2368   32.3453   44.2266 H   0  0  0  0  0  0  0  0  0  0  0  0
   59.2335   32.4318   47.7267 H   0  0  0  0  0  0  0  0  0  0  0  0
   60.4817   34.5676   48.0498 H   0  0  0  0  0  0  0  0  0  0  0  0
   60.4935   36.2955   46.2450 H   0  0  0  0  0  0  0  0  0  0  0  0
   59.2484   35.8875   44.1201 H   0  0  0  0  0  0  0  0  0  0  0  0
   58.0005   33.7534   43.7890 H   0  0  0  0  0  0  0  0  0  0  0  0
  1  2  1  0
  2  3  2  0
  2  4  2  0
  2  5  1  0
  5  6  1  0
  6  7  2  0
  7  8  1  0
  8  9  2  0
  9 10  1  0
 10 11  2  0
 11 12  1  0
 12 13  2  0
 13 14  1  0
 14 15  1  0
 15 16  2  0
 16 17  1  0
 17 18  2  0
 18 19  1  0
 19 20  2  0
 11  6  1  0
 20 15  1  0
 14 10  1  0
  1 21  1  0
  1 22  1  0
  1 23  1  0
  7 24  1  0
  8 25  1  0
  9 26  1  0
 13 27  1  0
 16 28  1  0
 17 29  1  0
 18 30  1  0
 19 31  1  0
 20 32  1  0
M  CHG  1   5  -1
M  END
>  <UniqueID>  (39) 
35

>  <SMILES>  (39) 
CS(=O)(=O)[N-]c1cccc2c1ncn2-c1ccccc1

>  <Energy>  (39) 
76.14319912877228

>  <Genealogy>  (39) 
CS(=O)(=O)[N-]c1cccc2c1ncn2-c1ccccc1 (protonated)
CS(=O)(=O)[N-]c1cccc2c1ncn2-c1ccccc1 (3D coordinates assigned)
CS(=O)(=O)[N-]c1cccc2c1ncn2-c1ccccc1 (optimized conformer: 76.14319912877228 kcal/mol)

>  <smiles>  (39) 
CS(=O)(=O)Nc1cccc2c1ncn2-c1ccccc1

>  <score_type>  (39) 
oracle

>  <origin>  (39) 
adg

>  <m_score__min__energy>  (39) 
-9.4199999999999999

>  <m_primary>  (39) 
energy

$$$$
39:0
     RDKit          3D

 44 45  0  0  0  0  0  0  0  0999 V2000
   60.4090   26.8330   46.3070 C   0  0  0  0  0  0  0  0  0  0  0  0
   59.6870   27.9030   45.4770 C   0  0  0  0  0  0  0  0  0  0  0  0
   60.7060   28.8980   44.8930 C   0  0  0  0  0  0  0  0  0  0  0  0
   58.5320   28.6310   46.2360 C   0  0  2  0  0  0  0  0  0  0  0  0
   58.5200   28.4010   47.7620 C   0  0  0  0  0  0  0  0  0  0  0  0
   57.2140   28.3750   45.6060 N   0  0  0  0  0  0  0  0  0  0  0  0
   56.6760   27.0120   45.6950 C   0  0  0  0  0  0  0  0  0  0  0  0
   56.4270   29.4220   44.9780 C   0  0  0  0  0  0  0  0  0  0  0  0
   55.1810   29.2810   44.8520 O   0  0  0  0  0  0  0  0  0  0  0  0
   57.0400   30.6670   44.4610 C   0  0  0  0  0  0  0  0  0  0  0  0
   57.2810   30.8860   43.1050 C   0  0  0  0  0  0  0  0  0  0  0  0
   57.9660   32.4150   42.9410 S   0  0  0  0  0  0  0  0  0  0  0  0
   57.9160   32.7400   44.5910 C   0  0  0  0  0  0  0  0  0  0  0  0
   58.3900   33.9780   45.2270 C   0  0  0  0  0  0  0  0  0  0  0  0
   58.4910   35.0320   44.5410 O   0  0  0  0  0  0  0  0  0  0  0  0
   58.7200   34.0230   46.6920 C   0  0  0  0  0  0  0  0  0  0  0  0
   59.9730   33.2500   46.9730 C   0  0  0  0  0  0  0  0  0  0  0  0
   61.2370   33.8580   46.8860 C   0  0  0  0  0  0  0  0  0  0  0  0
   62.3850   33.0930   47.1170 C   0  0  0  0  0  0  0  0  0  0  0  0
   62.2620   31.7400   47.4380 C   0  0  0  0  0  0  0  0  0  0  0  0
   60.9890   31.1690   47.5230 C   0  0  0  0  0  0  0  0  0  0  0  0
   59.8850   31.9260   47.2840 N   0  0  0  0  0  0  0  0  0  0  0  0
   57.3880   31.7030   45.2740 N   0  0  0  0  0  0  0  0  0  0  0  0
   60.2678   27.0423   47.3776 H   0  0  0  0  0  0  0  0  0  0  0  0
   59.9939   25.8425   46.0692 H   0  0  0  0  0  0  0  0  0  0  0  0
   61.4829   26.8472   46.0692 H   0  0  0  0  0  0  0  0  0  0  0  0
   59.1864   27.3742   44.6525 H   0  0  0  0  0  0  0  0  0  0  0  0
   61.2302   29.4099   45.7134 H   0  0  0  0  0  0  0  0  0  0  0  0
   61.4354   28.3550   44.2741 H   0  0  0  0  0  0  0  0  0  0  0  0
   60.1805   29.6402   44.2741 H   0  0  0  0  0  0  0  0  0  0  0  0
   58.7461   29.7047   46.1295 H   0  0  0  0  0  0  0  0  0  0  0  0
   58.5706   29.3704   48.2793 H   0  0  0  0  0  0  0  0  0  0  0  0
   57.5935   27.8811   48.0472 H   0  0  0  0  0  0  0  0  0  0  0  0
   59.3874   27.7875   48.0472 H   0  0  0  0  0  0  0  0  0  0  0  0
   56.5647   26.7301   46.7524 H   0  0  0  0  0  0  0  0  0  0  0  0
   55.6947   26.9721   45.1996 H   0  0  0  0  0  0  0  0  0  0  0  0
   57.3655   26.3126   45.1996 H   0  0  0  0  0  0  0  0  0  0  0  0
   57.0622   30.1838   42.2871 H   0  0  0  0  0  0  0  0  0  0  0  0
   58.8642   35.0696   46.9984 H   0  0  0  0  0  0  0  0  0  0  0  0
   57.8905   33.5727   47.2570 H   0  0  0  0  0  0  0  0  0  0  0  0
   61.3228   34.9263   46.6384 H   0  0  0  0  0  0  0  0  0  0  0  0
   63.3805   33.5555   47.0460 H   0  0  0  0  0  0  0  0  0  0  0  0
   63.1581   31.1292   47.6222 H   0  0  0  0  0  0  0  0  0  0  0  0
   60.8801   30.1059   47.7836 H   0  0  0  0  0  0  0  0  0  0  0  0
  1  2  1  0
  2  3  1  0
  2  4  1  0
  4  5  1  0
  4  6  1  0
  6  7  1  0
  6  8  1  0
  8  9  2  0
  8 10  1  0
 10 11  2  0
 11 12  1  0
 12 13  1  0
 13 14  1  0
 14 15  2  0
 14 16  1  0
 16 17  1  0
 17 18  2  0
 18 19  1  0
 19 20  2  0
 20 21  1  0
 21 22  2  0
 13 23  2  0
 23 10  1  0
 22 17  1  0
  1 24  1  0
  1 25  1  0
  1 26  1  0
  2 27  1  0
  3 28  1  0
  3 29  1  0
  3 30  1  0
  4 31  1  1
  5 32  1  0
  5 33  1  0
  5 34  1  0
  7 35  1  0
  7 36  1  0
  7 37  1  0
 11 38  1  0
 16 39  1  0
 16 40  1  0
 18 41  1  0
 19 42  1  0
 20 43  1  0
 21 44  1  0
M  END
>  <UniqueID>  (40) 
36

>  <SMILES>  (40) 
CC(C)[C@H](C)N(C)C(=O)c1csc(C(=O)Cc2ccccn2)n1

>  <Energy>  (40) 
71.69185720621918

>  <Genealogy>  (40) 
CC(C)[C@H](C)N(C)C(=O)c1csc(C(=O)Cc2ccccn2)n1 (chirality)
CC(C)[C@H](C)N(C)C(=O)c1csc(C(=O)Cc2ccccn2)n1 (3D coordinates assigned)
CC(C)[C@H](C)N(C)C(=O)c1csc(C(=O)Cc2ccccn2)n1 (optimized conformer: 71.69185720621918 kcal/mol)

>  <smiles>  (40) 
CC(C)C(C)N(C)C(=O)c1csc(C(=O)Cc2ccccn2)n1

>  <score_type>  (40) 
oracle

>  <origin>  (40) 
adg

>  <m_score__min__energy>  (40) 
-8.0999999999999996

>  <m_primary>  (40) 
energy

$$$$
40:0
     RDKit          3D

 58 61  0  0  0  0  0  0  0  0999 V2000
   55.5130   29.2880   44.8940 O   0  0  0  0  0  0  0  0  0  0  0  0
   56.7180   28.9580   44.7230 C   0  0  0  0  0  0  0  0  0  0  0  0
   57.6080   29.9090   43.9600 C   0  0  0  0  0  0  0  0  0  0  0  0
   58.2200   30.9830   44.8870 C   0  0  1  0  0  0  0  0  0  0  0  0
   57.1660   31.7610   45.5690 N   0  0  0  0  0  0  0  0  0  0  0  0
   57.2130   33.2110   45.3080 C   0  0  0  0  0  0  0  0  0  0  0  0
   58.6360   33.6400   44.9370 C   0  0  0  0  0  0  0  0  0  0  0  0
   59.4910   33.8580   46.1570 C   0  0  0  0  0  0  0  0  0  0  0  0
   60.8880   33.7340   46.0790 C   0  0  0  0  0  0  0  0  0  0  0  0
   61.6750   33.9050   47.2230 C   0  0  0  0  0  0  0  0  0  0  0  0
   61.0750   34.1960   48.4510 C   0  0  0  0  0  0  0  0  0  0  0  0
   59.6860   34.3150   48.5380 C   0  0  0  0  0  0  0  0  0  0  0  0
   58.8940   34.1430   47.3970 C   0  0  0  0  0  0  0  0  0  0  0  0
   59.2400   30.4180   45.8540 C   0  0  0  0  0  0  0  0  0  0  0  0
   60.3500   29.9980   45.4260 O   0  0  0  0  0  0  0  0  0  0  0  0
   58.9040   30.2890   47.2430 N   0  0  0  0  0  0  0  0  0  0  0  0
   59.8730   30.1250   48.2940 C   0  0  0  0  0  0  0  0  0  0  0  0
   59.6880   29.1060   49.2440 C   0  0  0  0  0  0  0  0  0  0  0  0
   60.5930   28.9440   50.2980 C   0  0  0  0  0  0  0  0  0  0  0  0
   61.6790   29.8130   50.4210 C   0  0  0  0  0  0  0  0  0  0  0  0
   61.8780   30.8280   49.4770 C   0  0  0  0  0  0  0  0  0  0  0  0
   60.9690   30.9990   48.4290 C   0  0  0  0  0  0  0  0  0  0  0  0
   62.9880   31.6680   49.6050 O   0  0  0  0  0  0  0  0  0  0  0  0
   64.0600   31.3450   50.4940 C   0  0  0  0  0  0  0  0  0  0  0  0
   63.5140   30.7270   51.7880 C   0  0  0  0  0  0  0  0  0  0  0  0
   62.5780   29.6880   51.4860 O   0  0  0  0  0  0  0  0  0  0  0  0
   57.2130   27.6780   45.3060 C   0  0  0  0  0  0  0  0  0  0  0  0
   56.3520   26.7840   45.9780 C   0  0  0  0  0  0  0  0  0  0  0  0
   56.8450   25.5890   46.5110 C   0  0  0  0  0  0  0  0  0  0  0  0
   58.1970   25.2690   46.3860 C   0  0  0  0  0  0  0  0  0  0  0  0
   59.0610   26.1420   45.7250 C   0  0  0  0  0  0  0  0  0  0  0  0
   58.5760   27.3390   45.1900 C   0  0  0  0  0  0  0  0  0  0  0  0
   58.4218   29.3371   43.4903 H   0  0  0  0  0  0  0  0  0  0  0  0
   56.9964   30.4181   43.2006 H   0  0  0  0  0  0  0  0  0  0  0  0
   58.7804   31.6782   44.2447 H   0  0  0  0  0  0  0  0  0  0  0  0
   56.2390   31.4040   45.2370 H   0  0  0  0  0  0  0  0  0  0  0  0
   56.5334   33.4521   44.4774 H   0  0  0  0  0  0  0  0  0  0  0  0
   56.9036   33.7478   46.2169 H   0  0  0  0  0  0  0  0  0  0  0  0
   59.0941   32.8553   44.3169 H   0  0  0  0  0  0  0  0  0  0  0  0
   58.5739   34.5917   44.3888 H   0  0  0  0  0  0  0  0  0  0  0  0
   61.3648   33.5017   45.1153 H   0  0  0  0  0  0  0  0  0  0  0  0
   62.7688   33.8101   47.1556 H   0  0  0  0  0  0  0  0  0  0  0  0
   61.6962   34.3313   49.3487 H   0  0  0  0  0  0  0  0  0  0  0  0
   59.2139   34.5442   49.5047 H   0  0  0  0  0  0  0  0  0  0  0  0
   57.8000   34.2312   47.4710 H   0  0  0  0  0  0  0  0  0  0  0  0
   57.8910   30.2740   47.4990 H   0  0  0  0  0  0  0  0  0  0  0  0
   58.8243   28.4303   49.1579 H   0  0  0  0  0  0  0  0  0  0  0  0
   60.4496   28.1340   51.0283 H   0  0  0  0  0  0  0  0  0  0  0  0
   61.1100   31.8179   47.7082 H   0  0  0  0  0  0  0  0  0  0  0  0
   64.7326   30.6254   50.0043 H   0  0  0  0  0  0  0  0  0  0  0  0
   64.6078   32.2661   50.7419 H   0  0  0  0  0  0  0  0  0  0  0  0
   64.3479   30.3064   52.3692 H   0  0  0  0  0  0  0  0  0  0  0  0
   63.0048   31.5088   52.3707 H   0  0  0  0  0  0  0  0  0  0  0  0
   55.2849   27.0293   46.0832 H   0  0  0  0  0  0  0  0  0  0  0  0
   56.1643   24.8988   47.0308 H   0  0  0  0  0  0  0  0  0  0  0  0
   58.5815   24.3289   46.8084 H   0  0  0  0  0  0  0  0  0  0  0  0
   60.1265   25.8880   45.6244 H   0  0  0  0  0  0  0  0  0  0  0  0
   59.2652   28.0232   44.6733 H   0  0  0  0  0  0  0  0  0  0  0  0
  1  2  2  0
  2  3  1  0
  3  4  1  0
  4  5  1  0
  5  6  1  0
  6  7  1  0
  7  8  1  0
  8  9  2  0
  9 10  1  0
 10 11  2  0
 11 12  1  0
 12 13  2  0
  4 14  1  0
 14 15  2  0
 14 16  1  0
 16 17  1  0
 17 18  2  0
 18 19  1  0
 19 20  2  0
 20 21  1  0
 21 22  2  0
 21 23  1  0
 23 24  1  0
 24 25  1  0
 25 26  1  0
  2 27  1  0
 27 28  2  0
 28 29  1  0
 29 30  2  0
 30 31  1  0
 31 32  2  0
 13  8  1  0
 22 17  1  0
 32 27  1  0
 26 20  1  0
  3 33  1  0
  3 34  1  0
  4 35  1  6
  5 36  1  0
  6 37  1  0
  6 38  1  0
  7 39  1  0
  7 40  1  0
  9 41  1  0
 10 42  1  0
 11 43  1  0
 12 44  1  0
 13 45  1  0
 16 46  1  0
 18 47  1  0
 19 48  1  0
 22 49  1  0
 24 50  1  0
 24 51  1  0
 25 52  1  0
 25 53  1  0
 28 54  1  0
 29 55  1  0
 30 56  1  0
 31 57  1  0
 32 58  1  0
M  END
>  <UniqueID>  (41) 
37

>  <SMILES>  (41) 
O=C(C[C@@H](NCCc1ccccc1)C(=O)Nc1ccc2c(c1)OCCO2)c1ccccc1

>  <Energy>  (41) 
65.85977589541854

>  <Genealogy>  (41) 
O=C(C[C@@H](NCCc1ccccc1)C(=O)Nc1ccc2c(c1)OCCO2)c1ccccc1 (chirality)
O=C(C[C@@H](NCCc1ccccc1)C(=O)Nc1ccc2c(c1)OCCO2)c1ccccc1 (3D coordinates assigned)
O=C(C[C@@H](NCCc1ccccc1)C(=O)Nc1ccc2c(c1)OCCO2)c1ccccc1 (nonaromatic ring conformer: 65.85977589541854 kcal/mol)

>  <smiles>  (41) 
O=C(CC(NCCc1ccccc1)C(=O)Nc1ccc2c(c1)OCCO2)c1ccccc1

>  <score_type>  (41) 
oracle

>  <origin>  (41) 
adg

>  <m_score__min__energy>  (41) 
-9.1600000000000001

>  <m_primary>  (41) 
energy

$$$$
41:0
     RDKit          3D

 45 48  0  0  0  0  0  0  0  0999 V2000
   55.1600   28.3180   44.5080 H   0  0  0  0  0  0  0  0  0  0  0  0
   55.1190   29.3560   44.3990 N   0  0  0  0  0  0  0  0  0  0  0  0
   56.5860   29.8410   43.6240 S   0  0  0  0  0  0  0  0  0  0  0  0
   56.2550   30.4200   42.2770 O   0  0  0  0  0  0  0  0  0  0  0  0
   57.4820   28.6470   43.4460 O   0  0  0  0  0  0  0  0  0  0  0  0
   57.4050   31.0440   44.6140 C   0  0  0  0  0  0  0  0  0  0  0  0
   57.7040   32.3090   44.0920 C   0  0  0  0  0  0  0  0  0  0  0  0
   57.4307   32.5522   43.0546 H   0  0  0  0  0  0  0  0  0  0  0  0
   59.1980   28.5870   48.6170 C   0  0  0  0  0  0  0  0  0  0  0  0
   58.4723   27.9754   49.1731 H   0  0  0  0  0  0  0  0  0  0  0  0
   59.8490   29.6490   49.2590 C   0  0  0  0  0  0  0  0  0  0  0  0
   59.3160   33.9360   47.0760 N   0  0  0  0  0  0  0  0  0  0  0  0
   59.5800   33.7660   48.3390 C   0  0  0  0  0  0  0  0  0  0  0  0
   58.8330   32.9250   49.1000 N   0  0  0  0  0  0  0  0  0  0  0  0
   59.1170   32.6690   50.4040 C   0  0  0  0  0  0  0  0  0  0  0  0
   58.2430   31.7230   51.1690 C   0  0  0  0  0  0  0  0  0  0  0  0
   57.0760   32.1850   51.8090 C   0  0  0  0  0  0  0  0  0  0  0  0
   56.8160   33.2528   51.7626 H   0  0  0  0  0  0  0  0  0  0  0  0
   56.2480   31.3030   52.5000 C   0  0  0  0  0  0  0  0  0  0  0  0
   55.3411   31.6714   53.0018 H   0  0  0  0  0  0  0  0  0  0  0  0
   56.5780   29.9520   52.5500 C   0  0  0  0  0  0  0  0  0  0  0  0
   55.9351   29.2485   53.0993 H   0  0  0  0  0  0  0  0  0  0  0  0
   57.6930   29.5030   51.9210 N   0  0  0  0  0  0  0  0  0  0  0  0
   58.5260   30.3300   51.2280 C   0  0  0  0  0  0  0  0  0  0  0  0
   59.5980   29.8570   50.6580 N   0  0  0  0  0  0  0  0  0  0  0  0
   58.6890   32.9650   46.2180 C   0  0  0  0  0  0  0  0  0  0  0  0
   58.3480   33.2630   44.8840 C   0  0  0  0  0  0  0  0  0  0  0  0
   58.5897   34.2506   44.4643 H   0  0  0  0  0  0  0  0  0  0  0  0
   59.4640   28.2990   47.2750 C   0  0  0  0  0  0  0  0  0  0  0  0
   58.9340   27.4755   46.7741 H   0  0  0  0  0  0  0  0  0  0  0  0
   60.4020   29.0560   46.5700 C   0  0  0  0  0  0  0  0  0  0  0  0
   60.6670   28.7700   45.2720 F   0  0  0  0  0  0  0  0  0  0  0  0
   61.0830   30.0950   47.2110 C   0  0  0  0  0  0  0  0  0  0  0  0
   61.8292   30.6849   46.6586 H   0  0  0  0  0  0  0  0  0  0  0  0
   58.4310   31.6840   46.7190 C   0  0  0  0  0  0  0  0  0  0  0  0
   58.7389   31.4255   47.7429 H   0  0  0  0  0  0  0  0  0  0  0  0
   60.2360   33.2970   50.9760 C   0  0  0  0  0  0  0  0  0  0  0  0
   60.5116   33.1057   52.0236 H   0  0  0  0  0  0  0  0  0  0  0  0
   60.9920   34.1690   50.1890 C   0  0  0  0  0  0  0  0  0  0  0  0
   61.8624   34.6834   50.6223 H   0  0  0  0  0  0  0  0  0  0  0  0
   60.6560   34.3840   48.8900 N   0  0  0  0  0  0  0  0  0  0  0  0
   60.8180   30.3860   48.5520 C   0  0  0  0  0  0  0  0  0  0  0  0
   61.3684   31.1936   49.0568 H   0  0  0  0  0  0  0  0  0  0  0  0
   57.7840   30.7300   45.9260 C   0  0  0  0  0  0  0  0  0  0  0  0
   57.5722   29.7305   46.3337 H   0  0  0  0  0  0  0  0  0  0  0  0
  1  2  1  0
  2  3  1  0
  3  4  2  0
  3  5  2  0
  3  6  1  0
  6  7  2  0
  7  8  1  0
  7  9  1  0
  9 10  1  0
  9 11  2  0
 11 12  1  0
 12 13  2  0
 13 14  1  0
 14 15  2  0
 15 16  1  0
 16 17  2  0
 17 18  1  0
 17 19  1  0
 19 20  1  0
 19 21  2  0
 21 22  1  0
 21 23  1  0
 23 24  1  0
 24 25  2  0
 25 26  1  0
 26 27  2  0
 27 28  1  0
 27 29  1  0
 29 30  1  0
 29 31  2  0
 31 32  1  0
 31 33  1  0
 33 34  1  0
 33 35  2  0
 35 36  1  0
 15 37  1  0
 37 38  1  0
 37 39  2  0
 39 40  1  0
 39 41  1  0
 11 42  1  0
 42 43  1  0
 42 44  2  0
 44 45  1  0
 44  6  1  0
 41 13  1  0
 24 16  1  0
 35 26  1  0
M  CHG  3   2  -1  23  -1  41  -1
M  END
>  <UniqueID>  (42) 
38

>  <SMILES>  (42) 
[NH-]S(=O)(=O)c1ccc(/N=c2\nc(-c3ccc[n-]/c3=N\c3ccc(F)cc3)cc[n-]2)cc1

>  <Energy>  (42) 
65.42996888360511

>  <Genealogy>  (42) 
[NH-]S(=O)(=O)c1ccc(N=c2nc(-c3ccc[n-]c3=Nc3ccc(F)cc3)cc[n-]2)cc1 (protonated)
[NH-]S(=O)(=O)c1ccc(/N=c2\nc(-c3ccc[n-]/c3=N\c3ccc(F)cc3)cc[n-]2)cc1 (cis-trans isomerization)
[NH-]S(=O)(=O)c1ccc(/N=c2\nc(-c3ccc[n-]/c3=N\c3ccc(F)cc3)cc[n-]2)cc1 (3D coordinates assigned)
[NH-]S(=O)(=O)c1ccc(/N=c2\nc(-c3ccc[n-]/c3=N\c3ccc(F)cc3)cc[n-]2)cc1 (optimized conformer: 65.42996888360511 kcal/mol)

>  <smiles>  (42) 
NS(=O)(=O)c1ccc(N=c2nc(-c3ccc[nH]c3=Nc3ccc(F)cc3)cc[nH]2)cc1

>  <score_type>  (42) 
oracle

>  <origin>  (42) 
adg

>  <m_score__min__energy>  (42) 
-13.380000000000001

>  <m_primary>  (42) 
energy

$$$$
42:0
     RDKit          3D

 49 52  0  0  0  0  0  0  0  0999 V2000
   55.8930   35.2990   45.3350 H   0  0  0  0  0  0  0  0  0  0  0  0
   56.6700   34.8250   44.8890 O   0  0  0  0  0  0  0  0  0  0  0  0
   57.6710   34.2080   45.6340 C   0  0  0  0  0  0  0  0  0  0  0  0
   57.3250   33.3010   46.6410 C   0  0  0  0  0  0  0  0  0  0  0  0
   56.2658   33.0798   46.8392 H   0  0  0  0  0  0  0  0  0  0  0  0
   58.3200   32.6750   47.3960 C   0  0  0  0  0  0  0  0  0  0  0  0
   58.0409   31.9588   48.1828 H   0  0  0  0  0  0  0  0  0  0  0  0
   59.6760   32.9560   47.1550 C   0  0  0  0  0  0  0  0  0  0  0  0
   60.7530   32.2450   47.9350 C   0  0  0  0  0  0  0  0  0  0  0  0
   60.3489   31.9457   48.9133 H   0  0  0  0  0  0  0  0  0  0  0  0
   61.6031   32.9318   48.0595 H   0  0  0  0  0  0  0  0  0  0  0  0
   61.2420   31.0000   47.1960 C   0  0  0  0  0  0  0  0  0  0  0  0
   61.2136   30.1374   47.8780 H   0  0  0  0  0  0  0  0  0  0  0  0
   62.2720   31.1687   46.8487 H   0  0  0  0  0  0  0  0  0  0  0  0
   60.3880   30.7330   46.0450 N   0  0  0  0  0  0  0  0  0  0  0  0
   60.0090   29.4150   45.6400 C   0  0  0  0  0  0  0  0  0  0  0  0
   60.8910   28.5850   45.2940 O   0  0  0  0  0  0  0  0  0  0  0  0
   58.5710   29.0620   45.5620 C   0  0  0  0  0  0  0  0  0  0  0  0
   57.6950   30.0110   45.0130 C   0  0  0  0  0  0  0  0  0  0  0  0
   58.0752   30.9950   44.7012 H   0  0  0  0  0  0  0  0  0  0  0  0
   56.3450   29.7070   44.8630 C   0  0  0  0  0  0  0  0  0  0  0  0
   55.5570   30.5540   44.3690 O   0  0  0  0  0  0  0  0  0  0  0  0
   55.8760   28.4940   45.2430 N   0  0  0  0  0  0  0  0  0  0  0  0
   56.6740   27.5320   45.7800 C   0  0  0  0  0  0  0  0  0  0  0  0
   56.1450   26.2730   46.1830 C   0  0  0  0  0  0  0  0  0  0  0  0
   54.9080   25.9010   45.9820 N   0  0  0  0  0  0  0  0  0  0  0  0
   54.4150   24.6640   45.4470 C   0  0  0  0  0  0  0  0  0  0  0  0
   53.1830   24.4200   45.5280 O   0  0  0  0  0  0  0  0  0  0  0  0
   55.3350   23.6420   44.8830 C   0  0  0  0  0  0  0  0  0  0  0  0
   55.7900   22.5790   45.6840 C   0  0  0  0  0  0  0  0  0  0  0  0
   55.4757   22.5144   46.7361 H   0  0  0  0  0  0  0  0  0  0  0  0
   56.6390   21.6040   45.1520 C   0  0  0  0  0  0  0  0  0  0  0  0
   56.9864   20.7740   45.7848 H   0  0  0  0  0  0  0  0  0  0  0  0
   57.0470   21.6820   43.8180 C   0  0  0  0  0  0  0  0  0  0  0  0
   57.7135   20.9130   43.4005 H   0  0  0  0  0  0  0  0  0  0  0  0
   56.6080   22.7370   43.0150 C   0  0  0  0  0  0  0  0  0  0  0  0
   56.9312   22.7991   41.9654 H   0  0  0  0  0  0  0  0  0  0  0  0
   55.7590   23.7140   43.5420 C   0  0  0  0  0  0  0  0  0  0  0  0
   55.4198   24.5444   42.9054 H   0  0  0  0  0  0  0  0  0  0  0  0
   56.9590   25.4010   46.8340 N   0  0  0  0  0  0  0  0  0  0  0  0
   58.2650   25.6620   47.0870 C   0  0  0  0  0  0  0  0  0  0  0  0
   58.8770   24.9222   47.6238 H   0  0  0  0  0  0  0  0  0  0  0  0
   58.8350   26.8610   46.6710 C   0  0  0  0  0  0  0  0  0  0  0  0
   59.8968   27.0656   46.8727 H   0  0  0  0  0  0  0  0  0  0  0  0
   58.0510   27.8110   45.9920 C   0  0  0  0  0  0  0  0  0  0  0  0
   60.0200   33.8590   46.1360 C   0  0  0  0  0  0  0  0  0  0  0  0
   61.0787   34.0747   45.9294 H   0  0  0  0  0  0  0  0  0  0  0  0
   59.0220   34.4850   45.3830 C   0  0  0  0  0  0  0  0  0  0  0  0
   59.2978   35.1970   44.5912 H   0  0  0  0  0  0  0  0  0  0  0  0
  1  2  1  0
  2  3  1  0
  3  4  2  0
  4  5  1  0
  4  6  1  0
  6  7  1  0
  6  8  2  0
  8  9  1  0
  9 10  1  0
  9 11  1  0
  9 12  1  0
 12 13  1  0
 12 14  1  0
 12 15  1  0
 15 16  1  0
 16 17  2  0
 16 18  1  0
 18 19  2  0
 19 20  1  0
 19 21  1  0
 21 22  2  0
 21 23  1  0
 23 24  1  0
 24 25  1  0
 25 26  2  0
 26 27  1  0
 27 28  2  0
 27 29  1  0
 29 30  2  0
 30 31  1  0
 30 32  1  0
 32 33  1  0
 32 34  2  0
 34 35  1  0
 34 36  1  0
 36 37  1  0
 36 38  2  0
 38 39  1  0
 25 40  1  0
 40 41  1  0
 41 42  1  0
 41 43  2  0
 43 44  1  0
 43 45  1  0
  8 46  1  0
 46 47  1  0
 46 48  2  0
 48 49  1  0
 48  3  1  0
 45 18  1  0
 45 24  2  0
 38 29  1  0
M  CHG  3  15  -1  23  -1  40  -1
M  END
>  <UniqueID>  (43) 
39

>  <SMILES>  (43) 
O=C(/N=c1/[n-]ccc2c(C(=O)[N-]CCc3ccc(O)cc3)cc(=O)[n-]c12)c1ccccc1

>  <Energy>  (43) 
73.25227551075295

>  <Genealogy>  (43) 
O=C(N=c1[n-]ccc2c(C(=O)[N-]CCc3ccc(O)cc3)cc(=O)[n-]c12)c1ccccc1 (protonated)
O=C(/N=c1/[n-]ccc2c(C(=O)[N-]CCc3ccc(O)cc3)cc(=O)[n-]c12)c1ccccc1 (cis-trans isomerization)
O=C(/N=c1/[n-]ccc2c(C(=O)[N-]CCc3ccc(O)cc3)cc(=O)[n-]c12)c1ccccc1 (3D coordinates assigned)
O=C(/N=c1/[n-]ccc2c(C(=O)[N-]CCc3ccc(O)cc3)cc(=O)[n-]c12)c1ccccc1 (optimized conformer: 73.25227551075295 kcal/mol)

>  <smiles>  (43) 
O=C(N=c1[nH]ccc2c(C(=O)NCCc3ccc(O)cc3)cc(=O)[nH]c12)c1ccccc1

>  <score_type>  (43) 
oracle

>  <origin>  (43) 
adg

>  <m_score__min__energy>  (43) 
-14.18

>  <m_primary>  (43) 
energy

$$$$
43:0
     RDKit          3D

 51 54  0  0  0  0  0  0  0  0999 V2000
   55.9450   30.7020   44.8030 O   0  0  0  0  0  0  0  0  0  0  0  0
   57.1250   31.0540   44.5260 C   0  0  0  0  0  0  0  0  0  0  0  0
   57.4520   32.5060   44.3640 C   0  0  0  0  0  0  0  0  0  0  0  0
   57.6370   33.2050   45.7160 C   0  0  0  0  0  0  0  0  0  0  0  0
   58.8980   32.7620   46.3960 C   0  0  0  0  0  0  0  0  0  0  0  0
   58.8810   31.7040   47.2520 N   0  0  0  0  0  0  0  0  0  0  0  0
   60.0060   31.2980   47.8980 C   0  0  0  0  0  0  0  0  0  0  0  0
   59.9460   30.3090   48.6780 O   0  0  0  0  0  0  0  0  0  0  0  0
   61.2140   31.9870   47.6910 C   0  0  0  0  0  0  0  0  0  0  0  0
   62.4120   31.6270   48.3360 C   0  0  0  0  0  0  0  0  0  0  0  0
   63.5820   32.3560   48.0980 C   0  0  0  0  0  0  0  0  0  0  0  0
   63.5680   33.4420   47.2160 C   0  0  0  0  0  0  0  0  0  0  0  0
   62.3850   33.8040   46.5660 C   0  0  0  0  0  0  0  0  0  0  0  0
   61.2070   33.0830   46.8010 C   0  0  0  0  0  0  0  0  0  0  0  0
   60.0550   33.4430   46.1800 N   0  0  0  0  0  0  0  0  0  0  0  0
   58.1510   30.0750   44.3130 N   0  0  0  0  0  0  0  0  0  0  0  0
   58.3270   28.8590   45.0520 C   0  0  0  0  0  0  0  0  0  0  0  0
   59.5360   28.6540   45.7310 C   0  0  0  0  0  0  0  0  0  0  0  0
   59.7360   27.4930   46.4820 C   0  0  0  0  0  0  0  0  0  0  0  0
   58.7230   26.5350   46.5760 C   0  0  0  0  0  0  0  0  0  0  0  0
   57.4980   26.7400   45.9250 C   0  0  0  0  0  0  0  0  0  0  0  0
   56.1870   25.5740   46.1020 S   0  0  0  0  0  0  0  0  0  0  0  0
   56.2760   24.9570   47.4710 O   0  0  0  0  0  0  0  0  0  0  0  0
   54.8660   26.2810   45.9840 O   0  0  0  0  0  0  0  0  0  0  0  0
   56.3470   24.3400   44.8660 N   0  0  0  0  0  0  0  0  0  0  0  0
   55.6990   23.0720   45.2600 C   0  0  0  0  0  0  0  0  0  0  0  0
   56.6870   22.0590   45.8660 C   0  0  0  0  0  0  0  0  0  0  0  0
   57.7580   22.7250   46.4950 O   0  0  0  0  0  0  0  0  0  0  0  0
   58.5670   23.3710   45.5260 C   0  0  0  0  0  0  0  0  0  0  0  0
   57.7520   24.1440   44.4640 C   0  0  0  0  0  0  0  0  0  0  0  0
   57.3000   27.9050   45.1690 C   0  0  0  0  0  0  0  0  0  0  0  0
   58.3831   32.5984   43.7856 H   0  0  0  0  0  0  0  0  0  0  0  0
   56.6118   32.9885   43.8431 H   0  0  0  0  0  0  0  0  0  0  0  0
   57.6816   34.2920   45.5532 H   0  0  0  0  0  0  0  0  0  0  0  0
   56.7860   32.9401   46.3607 H   0  0  0  0  0  0  0  0  0  0  0  0
   62.4283   30.7719   49.0277 H   0  0  0  0  0  0  0  0  0  0  0  0
   64.5162   32.0744   48.6060 H   0  0  0  0  0  0  0  0  0  0  0  0
   64.4907   34.0125   47.0337 H   0  0  0  0  0  0  0  0  0  0  0  0
   62.3788   34.6554   45.8696 H   0  0  0  0  0  0  0  0  0  0  0  0
   60.3316   29.4113   45.6722 H   0  0  0  0  0  0  0  0  0  0  0  0
   60.6929   27.3327   47.0004 H   0  0  0  0  0  0  0  0  0  0  0  0
   58.8868   25.6184   47.1617 H   0  0  0  0  0  0  0  0  0  0  0  0
   54.9204   23.2922   46.0052 H   0  0  0  0  0  0  0  0  0  0  0  0
   55.2776   22.6193   44.3503 H   0  0  0  0  0  0  0  0  0  0  0  0
   56.1607   21.4402   46.6077 H   0  0  0  0  0  0  0  0  0  0  0  0
   57.0872   21.4280   45.0587 H   0  0  0  0  0  0  0  0  0  0  0  0
   59.2297   24.0812   46.0422 H   0  0  0  0  0  0  0  0  0  0  0  0
   59.1294   22.5873   44.9973 H   0  0  0  0  0  0  0  0  0  0  0  0
   58.2163   25.1294   44.3109 H   0  0  0  0  0  0  0  0  0  0  0  0
   57.7560   23.5482   43.5394 H   0  0  0  0  0  0  0  0  0  0  0  0
   56.3368   28.0733   44.6652 H   0  0  0  0  0  0  0  0  0  0  0  0
  1  2  2  0
  2  3  1  0
  3  4  1  0
  4  5  1  0
  5  6  2  0
  6  7  1  0
  7  8  2  0
  7  9  1  0
  9 10  2  0
 10 11  1  0
 11 12  2  0
 12 13  1  0
 13 14  2  0
 14 15  1  0
  2 16  1  0
 16 17  1  0
 17 18  2  0
 18 19  1  0
 19 20  2  0
 20 21  1  0
 21 22  1  0
 22 23  2  0
 22 24  2  0
 22 25  1  0
 25 26  1  0
 26 27  1  0
 27 28  1  0
 28 29  1  0
 29 30  1  0
 21 31  2  0
 15  5  1  0
 31 17  1  0
 14  9  1  0
 30 25  1  0
  3 32  1  0
  3 33  1  0
  4 34  1  0
  4 35  1  0
 10 36  1  0
 11 37  1  0
 12 38  1  0
 13 39  1  0
 18 40  1  0
 19 41  1  0
 20 42  1  0
 26 43  1  0
 26 44  1  0
 27 45  1  0
 27 46  1  0
 29 47  1  0
 29 48  1  0
 30 49  1  0
 30 50  1  0
 31 51  1  0
M  CHG  2  15  -1  16  -1
M  END
>  <UniqueID>  (44) 
40

>  <SMILES>  (44) 
O=C(CCc1nc(=O)c2ccccc2[n-]1)[N-]c1cccc(S(=O)(=O)N2CCOCC2)c1

>  <Energy>  (44) 
69.83902490088151

>  <Genealogy>  (44) 
O=C(CCc1nc(=O)c2ccccc2[n-]1)[N-]c1cccc(S(=O)(=O)N2CCOCC2)c1 (protonated)
O=C(CCc1nc(=O)c2ccccc2[n-]1)[N-]c1cccc(S(=O)(=O)N2CCOCC2)c1 (3D coordinates assigned)
O=C(CCc1nc(=O)c2ccccc2[n-]1)[N-]c1cccc(S(=O)(=O)N2CCOCC2)c1 (nonaromatic ring conformer: 69.83902490088151 kcal/mol)

>  <smiles>  (44) 
O=C(CCc1nc(=O)c2ccccc2[nH]1)Nc1cccc(S(=O)(=O)N2CCOCC2)c1

>  <score_type>  (44) 
oracle

>  <origin>  (44) 
adg

>  <m_score__min__energy>  (44) 
-13.4

>  <m_primary>  (44) 
energy

$$$$
44:0
     RDKit          3D

 30 31  0  0  0  0  0  0  0  0999 V2000
   55.2550   24.6020   45.5770 C   0  0  0  0  0  0  0  0  0  0  0  0
   56.5030   25.1750   46.7720 S   0  0  0  0  0  0  0  0  0  0  0  0
   57.2940   26.2770   45.5970 C   0  0  0  0  0  0  0  0  0  0  0  0
   57.5440   25.8440   44.2900 C   0  0  0  0  0  0  0  0  0  0  0  0
   58.1430   26.7080   43.3700 C   0  0  0  0  0  0  0  0  0  0  0  0
   58.5060   28.0020   43.7570 C   0  0  0  0  0  0  0  0  0  0  0  0
   58.2880   28.4380   45.0720 C   0  0  0  0  0  0  0  0  0  0  0  0
   58.6470   29.7810   45.4380 N   0  0  0  0  0  0  0  0  0  0  0  0
   57.7870   30.9210   45.2460 C   0  0  0  0  0  0  0  0  0  0  0  0
   56.6080   30.7570   44.8270 O   0  0  0  0  0  0  0  0  0  0  0  0
   58.2560   32.2970   45.5390 C   0  0  0  0  0  0  0  0  0  0  0  0
   58.1580   33.3270   44.5850 C   0  0  0  0  0  0  0  0  0  0  0  0
   58.6120   34.6160   44.8850 C   0  0  0  0  0  0  0  0  0  0  0  0
   59.1740   34.8890   46.1330 C   0  0  0  0  0  0  0  0  0  0  0  0
   59.2890   33.8730   47.0850 C   0  0  0  0  0  0  0  0  0  0  0  0
   60.0010   34.2160   48.6520 Cl  0  0  0  0  0  0  0  0  0  0  0  0
   58.8370   32.5820   46.7900 C   0  0  0  0  0  0  0  0  0  0  0  0
   57.6610   27.5720   45.9870 C   0  0  0  0  0  0  0  0  0  0  0  0
   54.3849   24.2025   46.1187 H   0  0  0  0  0  0  0  0  0  0  0  0
   54.9382   25.4448   44.9451 H   0  0  0  0  0  0  0  0  0  0  0  0
   55.6877   23.8124   44.9451 H   0  0  0  0  0  0  0  0  0  0  0  0
   57.2688   24.8230   43.9869 H   0  0  0  0  0  0  0  0  0  0  0  0
   58.3294   26.3701   42.3399 H   0  0  0  0  0  0  0  0  0  0  0  0
   58.9656   28.6824   43.0250 H   0  0  0  0  0  0  0  0  0  0  0  0
   59.5660   29.9100   45.9130 H   0  0  0  0  0  0  0  0  0  0  0  0
   57.7217   33.1173   43.5972 H   0  0  0  0  0  0  0  0  0  0  0  0
   58.5258   35.4163   44.1353 H   0  0  0  0  0  0  0  0  0  0  0  0
   59.5265   35.9044   46.3671 H   0  0  0  0  0  0  0  0  0  0  0  0
   58.9361   31.7840   47.5405 H   0  0  0  0  0  0  0  0  0  0  0  0
   57.4581   27.9131   47.0129 H   0  0  0  0  0  0  0  0  0  0  0  0
  1  2  1  0
  2  3  1  0
  3  4  2  0
  4  5  1  0
  5  6  2  0
  6  7  1  0
  7  8  1  0
  8  9  1  0
  9 10  2  0
  9 11  1  0
 11 12  2  0
 12 13  1  0
 13 14  2  0
 14 15  1  0
 15 16  1  0
 15 17  2  0
  7 18  2  0
 18  3  1  0
 17 11  1  0
  1 19  1  0
  1 20  1  0
  1 21  1  0
  4 22  1  0
  5 23  1  0
  6 24  1  0
  8 25  1  0
 12 26  1  0
 13 27  1  0
 14 28  1  0
 17 29  1  0
 18 30  1  0
M  END
>  <UniqueID>  (45) 
41

>  <SMILES>  (45) 
CSc1cccc(NC(=O)c2cccc(Cl)c2)c1

>  <Energy>  (45) 
33.13859267884189

>  <Genealogy>  (45) 
CSc1cccc(NC(=O)c2cccc(Cl)c2)c1 (3D coordinates assigned)
CSc1cccc(NC(=O)c2cccc(Cl)c2)c1 (optimized conformer: 33.13859267884189 kcal/mol)

>  <smiles>  (45) 
CSc1cccc(NC(=O)c2cccc(Cl)c2)c1

>  <score_type>  (45) 
oracle

>  <origin>  (45) 
adg

>  <m_score__min__energy>  (45) 
-6.9900000000000002

>  <m_primary>  (45) 
energy

$$$$
45:0
     RDKit          3D

 48 51  0  0  0  0  0  0  0  0999 V2000
   59.6760   28.7060   49.8710 C   0  0  0  0  0  0  0  0  0  0  0  0
   59.1700   30.1060   49.6820 C   0  0  0  0  0  0  0  0  0  0  0  0
   59.1140   30.6960   48.4020 C   0  0  0  0  0  0  0  0  0  0  0  0
   58.6320   32.0220   48.2450 C   0  0  0  0  0  0  0  0  0  0  0  0
   58.5570   32.6670   46.9090 C   0  0  0  0  0  0  0  0  0  0  0  0
   58.0140   31.9600   45.8190 C   0  0  0  0  0  0  0  0  0  0  0  0
   57.9290   32.5550   44.5580 C   0  0  0  0  0  0  0  0  0  0  0  0
   58.3750   33.8650   44.3690 C   0  0  0  0  0  0  0  0  0  0  0  0
   58.9040   34.5830   45.4440 C   0  0  0  0  0  0  0  0  0  0  0  0
   58.9930   33.9920   46.7080 C   0  0  0  0  0  0  0  0  0  0  0  0
   58.2100   32.7180   49.3430 N   0  0  0  0  0  0  0  0  0  0  0  0
   58.2670   32.1480   50.5700 C   0  0  0  0  0  0  0  0  0  0  0  0
   57.8060   32.8300   52.0290 S   0  0  0  0  0  0  0  0  0  0  0  0
   58.2350   31.4240   52.8730 C   0  0  0  0  0  0  0  0  0  0  0  0
   58.0660   31.2290   54.6430 S   0  0  0  0  0  0  0  0  0  0  0  0
   57.9300   29.4170   54.5430 C   0  0  0  0  0  0  0  0  0  0  0  0
   56.5180   29.0460   54.2220 C   0  0  0  0  0  0  0  0  0  0  0  0
   55.9210   28.2000   54.9410 O   0  0  0  0  0  0  0  0  0  0  0  0
   55.8560   29.6490   53.0980 N   0  0  0  0  0  0  0  0  0  0  0  0
   54.4470   29.5410   52.8390 C   0  0  0  0  0  0  0  0  0  0  0  0
   53.7520   28.4030   53.2770 C   0  0  0  0  0  0  0  0  0  0  0  0
   52.3850   28.2690   53.0240 C   0  0  0  0  0  0  0  0  0  0  0  0
   51.7020   29.2600   52.3140 C   0  0  0  0  0  0  0  0  0  0  0  0
   52.3890   30.3850   51.8410 C   0  0  0  0  0  0  0  0  0  0  0  0
   51.5370   31.6340   50.9370 S   0  0  0  0  0  0  0  0  0  0  0  0
   50.2790   32.2980   51.9170 N   0  0  0  0  0  0  0  0  0  0  0  0
   50.9380   31.0480   49.6890 O   0  0  0  0  0  0  0  0  0  0  0  0
   52.4990   32.7210   50.5460 O   0  0  0  0  0  0  0  0  0  0  0  0
   53.7600   30.5240   52.1020 C   0  0  0  0  0  0  0  0  0  0  0  0
   58.7230   30.4520   52.0640 N   0  0  0  0  0  0  0  0  0  0  0  0
   58.7370   30.8670   50.7710 C   0  0  0  0  0  0  0  0  0  0  0  0
   59.7552   28.4868   50.9460 H   0  0  0  0  0  0  0  0  0  0  0  0
   58.9772   27.9972   49.4028 H   0  0  0  0  0  0  0  0  0  0  0  0
   60.6665   28.6078   49.4028 H   0  0  0  0  0  0  0  0  0  0  0  0
   59.4453   30.1260   47.5215 H   0  0  0  0  0  0  0  0  0  0  0  0
   57.6537   30.9305   45.9617 H   0  0  0  0  0  0  0  0  0  0  0  0
   57.5099   31.9905   43.7120 H   0  0  0  0  0  0  0  0  0  0  0  0
   58.3097   34.3308   43.3746 H   0  0  0  0  0  0  0  0  0  0  0  0
   59.2515   35.6161   45.2958 H   0  0  0  0  0  0  0  0  0  0  0  0
   59.4061   34.5651   47.5512 H   0  0  0  0  0  0  0  0  0  0  0  0
   58.5975   29.0412   53.7536 H   0  0  0  0  0  0  0  0  0  0  0  0
   58.2188   28.9714   55.5064 H   0  0  0  0  0  0  0  0  0  0  0  0
   56.4520   30.1270   52.3830 H   0  0  0  0  0  0  0  0  0  0  0  0
   54.2871   27.6119   53.8228 H   0  0  0  0  0  0  0  0  0  0  0  0
   51.8447   27.3812   53.3845 H   0  0  0  0  0  0  0  0  0  0  0  0
   50.6231   29.1563   52.1263 H   0  0  0  0  0  0  0  0  0  0  0  0
   50.4640   33.3230   51.9990 H   0  0  0  0  0  0  0  0  0  0  0  0
   54.3013   31.4059   51.7288 H   0  0  0  0  0  0  0  0  0  0  0  0
  1  2  1  0
  2  3  2  0
  3  4  1  0
  4  5  1  0
  5  6  2  0
  6  7  1  0
  7  8  2  0
  8  9  1  0
  9 10  2  0
  4 11  2  0
 11 12  1  0
 12 13  1  0
 13 14  1  0
 14 15  1  0
 15 16  1  0
 16 17  1  0
 17 18  2  0
 17 19  1  0
 19 20  1  0
 20 21  2  0
 21 22  1  0
 22 23  2  0
 23 24  1  0
 24 25  1  0
 25 26  1  0
 25 27  2  0
 25 28  2  0
 24 29  2  0
 14 30  2  0
 30 31  1  0
 31  2  1  0
 10  5  1  0
 31 12  2  0
 29 20  1  0
  1 32  1  0
  1 33  1  0
  1 34  1  0
  3 35  1  0
  6 36  1  0
  7 37  1  0
  8 38  1  0
  9 39  1  0
 10 40  1  0
 16 41  1  0
 16 42  1  0
 19 43  1  0
 21 44  1  0
 22 45  1  0
 23 46  1  0
 26 47  1  0
 29 48  1  0
M  CHG  1  26  -1
M  END
>  <UniqueID>  (46) 
42

>  <SMILES>  (46) 
Cc1cc(-c2ccccc2)nc2sc(SCC(=O)Nc3cccc(S([NH-])(=O)=O)c3)nc12

>  <Energy>  (46) 
89.9660857406871

>  <Genealogy>  (46) 
Cc1cc(-c2ccccc2)nc2sc(SCC(=O)Nc3cccc(S([NH-])(=O)=O)c3)nc12 (protonated)
Cc1cc(-c2ccccc2)nc2sc(SCC(=O)Nc3cccc(S([NH-])(=O)=O)c3)nc12 (3D coordinates assigned)
Cc1cc(-c2ccccc2)nc2sc(SCC(=O)Nc3cccc(S([NH-])(=O)=O)c3)nc12 (optimized conformer: 89.9660857406871 kcal/mol)

>  <smiles>  (46) 
Cc1cc(-c2ccccc2)nc2sc(SCC(=O)Nc3cccc(S(N)(=O)=O)c3)nc12

>  <score_type>  (46) 
oracle

>  <origin>  (46) 
adg

>  <m_score__min__energy>  (46) 
-13.18

>  <m_primary>  (46) 
energy

$$$$
46:0
     RDKit          3D

 57 60  0  0  0  0  0  0  0  0999 V2000
   60.3240   28.2690   45.2780 C   0  0  0  0  0  0  0  0  0  0  0  0
   59.1550   28.9850   44.7520 N   0  0  0  0  0  0  0  0  0  0  0  0
   59.0900   30.3470   44.8660 C   0  0  0  0  0  0  0  0  0  0  0  0
   57.9810   31.0610   44.3840 C   0  0  0  0  0  0  0  0  0  0  0  0
   57.9130   32.5380   44.4990 C   0  0  0  0  0  0  0  0  0  0  0  0
   57.4160   33.2030   43.5490 O   0  0  0  0  0  0  0  0  0  0  0  0
   58.4180   33.2330   45.6570 N   0  0  0  0  0  0  0  0  0  0  0  0
   58.0920   32.7660   47.0070 C   0  0  0  0  0  0  0  0  0  0  0  0
   59.3160   32.8530   47.9380 C   0  0  0  0  0  0  0  0  0  0  0  0
   60.3520   33.9730   47.5580 C   0  0  0  0  0  0  0  0  0  0  0  0
   61.5220   33.3860   46.6860 C   0  0  0  0  0  0  0  0  0  0  0  0
   62.9090   33.4960   47.3460 C   0  0  0  0  0  0  0  0  0  0  0  0
   62.9130   33.0050   48.7410 N   0  0  0  0  0  0  0  0  0  0  0  0
   62.9490   31.5280   48.8050 C   0  0  0  0  0  0  0  0  0  0  0  0
   61.5630   30.9740   49.0080 C   0  0  0  0  0  0  0  0  0  0  0  0
   60.9390   31.0460   50.2660 C   0  0  0  0  0  0  0  0  0  0  0  0
   59.6570   30.5190   50.4470 C   0  0  0  0  0  0  0  0  0  0  0  0
   58.9900   29.9160   49.3770 C   0  0  0  0  0  0  0  0  0  0  0  0
   59.6040   29.8390   48.1230 C   0  0  0  0  0  0  0  0  0  0  0  0
   60.8870   30.3650   47.9380 C   0  0  0  0  0  0  0  0  0  0  0  0
   61.8470   33.5930   49.5970 C   0  0  0  0  0  0  0  0  0  0  0  0
   60.9320   34.5900   48.8610 C   0  0  0  0  0  0  0  0  0  0  0  0
   59.6210   35.1030   46.7820 C   0  0  0  0  0  0  0  0  0  0  0  0
   58.9440   34.5940   45.4930 C   0  0  0  0  0  0  0  0  0  0  0  0
   56.9520   30.3510   43.7530 C   0  0  0  0  0  0  0  0  0  0  0  0
   57.0290   28.9660   43.6360 C   0  0  0  0  0  0  0  0  0  0  0  0
   58.1410   28.2900   44.1440 C   0  0  0  0  0  0  0  0  0  0  0  0
   58.1990   27.0350   44.0320 O   0  0  0  0  0  0  0  0  0  0  0  0
   60.2991   28.2842   46.3776 H   0  0  0  0  0  0  0  0  0  0  0  0
   60.3052   27.2273   44.9252 H   0  0  0  0  0  0  0  0  0  0  0  0
   61.2434   28.7591   44.9252 H   0  0  0  0  0  0  0  0  0  0  0  0
   59.9190   30.8909   45.3424 H   0  0  0  0  0  0  0  0  0  0  0  0
   57.2843   33.3901   47.4171 H   0  0  0  0  0  0  0  0  0  0  0  0
   57.7763   31.7141   46.9446 H   0  0  0  0  0  0  0  0  0  0  0  0
   58.9568   33.0506   48.9587 H   0  0  0  0  0  0  0  0  0  0  0  0
   59.8467   31.8940   47.8441 H   0  0  0  0  0  0  0  0  0  0  0  0
   61.3124   32.3230   46.4959 H   0  0  0  0  0  0  0  0  0  0  0  0
   61.5605   33.9812   45.7617 H   0  0  0  0  0  0  0  0  0  0  0  0
   63.6262   32.9017   46.7608 H   0  0  0  0  0  0  0  0  0  0  0  0
   63.1864   34.5603   47.3655 H   0  0  0  0  0  0  0  0  0  0  0  0
   63.3615   31.1350   47.8641 H   0  0  0  0  0  0  0  0  0  0  0  0
   63.5808   31.2243   49.6527 H   0  0  0  0  0  0  0  0  0  0  0  0
   61.4615   31.5187   51.1107 H   0  0  0  0  0  0  0  0  0  0  0  0
   59.1725   30.5790   51.4328 H   0  0  0  0  0  0  0  0  0  0  0  0
   57.9813   29.5017   49.5214 H   0  0  0  0  0  0  0  0  0  0  0  0
   59.0778   29.3646   47.2815 H   0  0  0  0  0  0  0  0  0  0  0  0
   61.3682   30.3014   46.9509 H   0  0  0  0  0  0  0  0  0  0  0  0
   61.2242   32.7738   49.9857 H   0  0  0  0  0  0  0  0  0  0  0  0
   62.3535   34.1551   50.3954 H   0  0  0  0  0  0  0  0  0  0  0  0
   60.1009   34.8702   49.5249 H   0  0  0  0  0  0  0  0  0  0  0  0
   61.5298   35.4726   48.5895 H   0  0  0  0  0  0  0  0  0  0  0  0
   58.8513   35.5387   47.4360 H   0  0  0  0  0  0  0  0  0  0  0  0
   60.3749   35.8491   46.4906 H   0  0  0  0  0  0  0  0  0  0  0  0
   58.1139   35.2685   45.2361 H   0  0  0  0  0  0  0  0  0  0  0  0
   59.6990   34.5758   44.6933 H   0  0  0  0  0  0  0  0  0  0  0  0
   56.0814   30.8886   43.3491 H   0  0  0  0  0  0  0  0  0  0  0  0
   56.2184   28.4067   43.1460 H   0  0  0  0  0  0  0  0  0  0  0  0
  1  2  1  0
  2  3  1  0
  3  4  2  0
  4  5  1  0
  5  6  2  0
  5  7  1  0
  7  8  1  0
  8  9  1  0
  9 10  1  0
 10 11  1  0
 11 12  1  0
 12 13  1  0
 13 14  1  0
 14 15  1  0
 15 16  2  0
 16 17  1  0
 17 18  2  0
 18 19  1  0
 19 20  2  0
 13 21  1  0
 21 22  1  0
 10 23  1  0
 23 24  1  0
  4 25  1  0
 25 26  2  0
 26 27  1  0
 27 28  2  0
 27  2  1  0
 24  7  1  0
 22 10  1  0
 20 15  1  0
  1 29  1  0
  1 30  1  0
  1 31  1  0
  3 32  1  0
  8 33  1  0
  8 34  1  0
  9 35  1  0
  9 36  1  0
 11 37  1  0
 11 38  1  0
 12 39  1  0
 12 40  1  0
 14 41  1  0
 14 42  1  0
 16 43  1  0
 17 44  1  0
 18 45  1  0
 19 46  1  0
 20 47  1  0
 21 48  1  0
 21 49  1  0
 22 50  1  0
 22 51  1  0
 23 52  1  0
 23 53  1  0
 24 54  1  0
 24 55  1  0
 25 56  1  0
 26 57  1  0
M  END
>  <UniqueID>  (47) 
43

>  <SMILES>  (47) 
Cn1cc(C(=O)N2CCC3(CCN(Cc4ccccc4)CC3)CC2)ccc1=O

>  <Energy>  (47) 
82.64801637733841

>  <Genealogy>  (47) 
Cn1cc(C(=O)N2CCC3(CCN(Cc4ccccc4)CC3)CC2)ccc1=O (3D coordinates assigned)
Cn1cc(C(=O)N2CCC3(CCN(Cc4ccccc4)CC3)CC2)ccc1=O (nonaromatic ring conformer: 82.64801637733841 kcal/mol)

>  <smiles>  (47) 
Cn1cc(C(=O)N2CCC3(CCN(Cc4ccccc4)CC3)CC2)ccc1=O

>  <score_type>  (47) 
oracle

>  <origin>  (47) 
adg

>  <m_score__min__energy>  (47) 
-8.5500000000000007

>  <m_primary>  (47) 
energy

$$$$
47:0
     RDKit          3D

 41 43  0  0  0  0  0  0  0  0999 V2000
   56.9167   32.4811   47.1462 H   0  0  0  0  0  0  0  0  0  0  0  0
   57.8250   33.0970   47.2220 C   0  0  0  0  0  0  0  0  0  0  0  0
   58.5380   33.1120   48.3800 N   0  0  0  0  0  0  0  0  0  0  0  0
   59.6740   33.8520   48.5210 C   0  0  0  0  0  0  0  0  0  0  0  0
   60.3470   33.8470   49.6350 N   0  0  0  0  0  0  0  0  0  0  0  0
   60.6620   32.6880   50.4260 C   0  0  0  0  0  0  0  0  0  0  0  0
   61.1490   32.8610   51.5760 O   0  0  0  0  0  0  0  0  0  0  0  0
   60.3760   31.3110   49.9590 C   0  0  0  0  0  0  0  0  0  0  0  0
   59.2230   30.6320   50.3850 C   0  0  0  0  0  0  0  0  0  0  0  0
   58.5186   31.1286   51.0685 H   0  0  0  0  0  0  0  0  0  0  0  0
   58.9630   29.3290   49.9470 C   0  0  0  0  0  0  0  0  0  0  0  0
   58.0494   28.8122   50.2761 H   0  0  0  0  0  0  0  0  0  0  0  0
   59.8650   28.6780   49.0880 C   0  0  0  0  0  0  0  0  0  0  0  0
   59.6440   27.3400   48.6210 N   0  0  0  0  0  0  0  0  0  0  0  0
   59.3810   26.8900   46.9660 S   0  0  0  0  0  0  0  0  0  0  0  0
   60.7080   26.6010   46.3210 O   0  0  0  0  0  0  0  0  0  0  0  0
   58.5340   25.6500   46.9230 O   0  0  0  0  0  0  0  0  0  0  0  0
   58.5440   28.1820   46.1120 C   0  0  0  0  0  0  0  0  0  0  0  0
   59.2410   29.3290   45.7040 C   0  0  0  0  0  0  0  0  0  0  0  0
   60.3177   29.4197   45.9099 H   0  0  0  0  0  0  0  0  0  0  0  0
   58.5690   30.3570   45.0360 C   0  0  0  0  0  0  0  0  0  0  0  0
   59.1171   31.2574   44.7215 H   0  0  0  0  0  0  0  0  0  0  0  0
   57.2020   30.2430   44.7670 C   0  0  0  0  0  0  0  0  0  0  0  0
   56.6754   31.0529   44.2408 H   0  0  0  0  0  0  0  0  0  0  0  0
   56.5040   29.0990   45.1670 C   0  0  0  0  0  0  0  0  0  0  0  0
   55.1450   28.9850   44.9000 O   0  0  0  0  0  0  0  0  0  0  0  0
   57.1730   28.0700   45.8370 C   0  0  0  0  0  0  0  0  0  0  0  0
   56.6227   27.1702   46.1493 H   0  0  0  0  0  0  0  0  0  0  0  0
   61.0230   29.3470   48.6780 C   0  0  0  0  0  0  0  0  0  0  0  0
   61.7357   28.8433   48.0084 H   0  0  0  0  0  0  0  0  0  0  0  0
   61.2820   30.6500   49.1120 C   0  0  0  0  0  0  0  0  0  0  0  0
   62.2007   31.1614   48.7886 H   0  0  0  0  0  0  0  0  0  0  0  0
   60.1450   34.6010   47.4390 C   0  0  0  0  0  0  0  0  0  0  0  0
   61.0710   35.1873   47.5327 H   0  0  0  0  0  0  0  0  0  0  0  0
   59.4320   34.6000   46.2380 C   0  0  0  0  0  0  0  0  0  0  0  0
   59.8039   35.1782   45.3793 H   0  0  0  0  0  0  0  0  0  0  0  0
   58.2430   33.8640   46.1230 C   0  0  0  0  0  0  0  0  0  0  0  0
   57.4870   33.8150   44.8200 C   0  0  0  0  0  0  0  0  0  0  0  0
   56.9390   35.0590   44.5650 F   0  0  0  0  0  0  0  0  0  0  0  0
   58.3330   33.4730   43.7800 F   0  0  0  0  0  0  0  0  0  0  0  0
   56.4710   32.8780   44.8790 F   0  0  0  0  0  0  0  0  0  0  0  0
  1  2  1  0
  2  3  1  0
  3  4  1  0
  4  5  2  0
  5  6  1  0
  6  7  2  0
  6  8  1  0
  8  9  2  0
  9 10  1  0
  9 11  1  0
 11 12  1  0
 11 13  2  0
 13 14  1  0
 14 15  1  0
 15 16  2  0
 15 17  2  0
 15 18  1  0
 18 19  2  0
 19 20  1  0
 19 21  1  0
 21 22  1  0
 21 23  2  0
 23 24  1  0
 23 25  1  0
 25 26  1  0
 25 27  2  0
 27 28  1  0
 13 29  1  0
 29 30  1  0
 29 31  2  0
 31 32  1  0
  4 33  1  0
 33 34  1  0
 33 35  2  0
 35 36  1  0
 35 37  1  0
 37 38  1  0
 38 39  1  0
 38 40  1  0
 38 41  1  0
 37  2  2  0
 31  8  1  0
 27 18  1  0
M  CHG  3   3  -1  14  -1  26  -1
M  END
>  <UniqueID>  (48) 
44

>  <SMILES>  (48) 
O=C(/N=c1/ccc(C(F)(F)F)c[n-]1)c1ccc([N-]S(=O)(=O)c2cccc([O-])c2)cc1

>  <Energy>  (48) 
55.990274472434606

>  <Genealogy>  (48) 
O=C(N=c1ccc(C(F)(F)F)c[n-]1)c1ccc([N-]S(=O)(=O)c2cccc([O-])c2)cc1 (protonated)
O=C(/N=c1/ccc(C(F)(F)F)c[n-]1)c1ccc([N-]S(=O)(=O)c2cccc([O-])c2)cc1 (cis-trans isomerization)
O=C(/N=c1/ccc(C(F)(F)F)c[n-]1)c1ccc([N-]S(=O)(=O)c2cccc([O-])c2)cc1 (3D coordinates assigned)
O=C(/N=c1/ccc(C(F)(F)F)c[n-]1)c1ccc([N-]S(=O)(=O)c2cccc([O-])c2)cc1 (optimized conformer: 55.990274472434606 kcal/mol)

>  <smiles>  (48) 
O=C(N=c1ccc(C(F)(F)F)c[nH]1)c1ccc(NS(=O)(=O)c2cccc(O)c2)cc1

>  <score_type>  (48) 
oracle

>  <origin>  (48) 
adg

>  <m_score__min__energy>  (48) 
-13.67

>  <m_primary>  (48) 
energy

$$$$
48:0
     RDKit          3D

 33 34  0  0  0  0  0  0  0  0999 V2000
   58.3628   28.6711   46.7500 H   0  0  0  0  0  0  0  0  0  0  0  0
   58.6870   29.6220   46.3020 C   0  0  0  0  0  0  0  0  0  0  0  0
   58.3610   29.8520   45.0230 C   0  0  0  0  0  0  0  0  0  0  0  0
   58.9827   29.3808   44.2475 H   0  0  0  0  0  0  0  0  0  0  0  0
   57.0080   30.8550   44.4870 S   0  0  0  0  0  0  0  0  0  0  0  0
   55.7490   30.0370   44.5110 O   0  0  0  0  0  0  0  0  0  0  0  0
   57.2640   31.3110   43.0800 O   0  0  0  0  0  0  0  0  0  0  0  0
   56.7890   32.2470   45.5040 N   0  0  0  0  0  0  0  0  0  0  0  0
   57.6940   33.1550   45.7040 C   0  0  0  0  0  0  0  0  0  0  0  0
   57.9130   33.6650   46.9500 N   0  0  0  0  0  0  0  0  0  0  0  0
   58.8820   34.5880   47.1880 C   0  0  0  0  0  0  0  0  0  0  0  0
   59.0306   34.9797   48.2051 H   0  0  0  0  0  0  0  0  0  0  0  0
   59.6890   35.0390   46.1410 C   0  0  0  0  0  0  0  0  0  0  0  0
   60.4774   35.7831   46.3274 H   0  0  0  0  0  0  0  0  0  0  0  0
   59.4840   34.5350   44.8550 C   0  0  0  0  0  0  0  0  0  0  0  0
   60.1115   34.8812   44.0205 H   0  0  0  0  0  0  0  0  0  0  0  0
   58.4800   33.5900   44.6310 C   0  0  0  0  0  0  0  0  0  0  0  0
   58.3087   33.1913   43.6202 H   0  0  0  0  0  0  0  0  0  0  0  0
   59.4500   30.5550   47.1500 C   0  0  0  0  0  0  0  0  0  0  0  0
   58.9100   31.0650   48.3400 C   0  0  0  0  0  0  0  0  0  0  0  0
   57.8888   30.7891   48.6419 H   0  0  0  0  0  0  0  0  0  0  0  0
   59.6660   31.9220   49.1420 C   0  0  0  0  0  0  0  0  0  0  0  0
   59.2416   32.3128   50.0786 H   0  0  0  0  0  0  0  0  0  0  0  0
   60.9600   32.2850   48.7590 C   0  0  0  0  0  0  0  0  0  0  0  0
   61.5553   32.9514   49.4005 H   0  0  0  0  0  0  0  0  0  0  0  0
   61.5040   31.8000   47.5540 C   0  0  0  0  0  0  0  0  0  0  0  0
   62.7990   32.1290   47.1290 O   0  0  0  0  0  0  0  0  0  0  0  0
   63.3140   33.4540   47.0700 C   0  0  0  0  0  0  0  0  0  0  0  0
   63.4623   33.8355   48.0910 H   0  0  0  0  0  0  0  0  0  0  0  0
   64.2761   33.4500   46.5367 H   0  0  0  0  0  0  0  0  0  0  0  0
   62.6018   34.1008   46.5367 H   0  0  0  0  0  0  0  0  0  0  0  0
   60.7340   30.9530   46.7490 C   0  0  0  0  0  0  0  0  0  0  0  0
   61.1400   30.5954   45.7913 H   0  0  0  0  0  0  0  0  0  0  0  0
  1  2  1  0
  2  3  2  0
  3  4  1  0
  3  5  1  0
  5  6  2  0
  5  7  2  0
  5  8  1  0
  8  9  2  3
  9 10  1  0
 10 11  1  0
 11 12  1  0
 11 13  2  0
 13 14  1  0
 13 15  1  0
 15 16  1  0
 15 17  2  0
 17 18  1  0
  2 19  1  0
 19 20  2  0
 20 21  1  0
 20 22  1  0
 22 23  1  0
 22 24  2  0
 24 25  1  0
 24 26  1  0
 26 27  1  0
 27 28  1  0
 28 29  1  0
 28 30  1  0
 28 31  1  0
 26 32  2  0
 32 33  1  0
 17  9  1  0
 32 19  1  0
M  CHG  1  10  -1
M  END
>  <UniqueID>  (49) 
45

>  <SMILES>  (49) 
COc1cccc(/C=C\S(=O)(=O)N=c2cccc[n-]2)c1

>  <Energy>  (49) 
40.75542141207038

>  <Genealogy>  (49) 
COc1cccc(C=CS(=O)(=O)N=c2cccc[n-]2)c1 (protonated)
COc1cccc(/C=C\S(=O)(=O)N=c2cccc[n-]2)c1 (cis-trans isomerization)
COc1cccc(/C=C\S(=O)(=O)N=c2cccc[n-]2)c1 (3D coordinates assigned)
COc1cccc(/C=C\S(=O)(=O)N=c2cccc[n-]2)c1 (optimized conformer: 40.75542141207038 kcal/mol)

>  <smiles>  (49) 
COc1cccc(C=CS(=O)(=O)N=c2cccc[nH]2)c1

>  <score_type>  (49) 
oracle

>  <origin>  (49) 
adg

>  <m_score__min__energy>  (49) 
-9.25

>  <m_primary>  (49) 
energy

$$$$
49:0
     RDKit          3D

 45 46  0  0  0  0  0  0  0  0999 V2000
   59.8940   29.2580   45.1340 C   0  0  0  0  0  0  0  0  0  0  0  0
   58.6970   29.5100   45.9500 N   0  0  0  0  0  0  0  0  0  0  0  0
   58.9030   29.0850   47.3440 C   0  0  0  0  0  0  0  0  0  0  0  0
   57.4610   28.9580   45.3520 C   0  0  0  0  0  0  0  0  0  0  0  0
   57.3220   29.2100   43.8320 C   0  0  0  0  0  0  0  0  0  0  0  0
   56.5740   30.5180   43.5260 C   0  0  0  0  0  0  0  0  0  0  0  0
   57.4080   31.4850   42.6680 C   0  0  0  0  0  0  0  0  0  0  0  0
   58.0690   32.5950   43.5000 C   0  0  0  0  0  0  0  0  0  0  0  0
   57.8410   32.4250   45.0070 C   0  0  0  0  0  0  0  0  0  0  0  0
   57.7340   33.7680   45.6790 C   0  0  0  0  0  0  0  0  0  0  0  0
   56.9290   34.5840   45.2480 O   0  0  0  0  0  0  0  0  0  0  0  0
   58.5660   34.0940   46.8180 N   0  0  0  0  0  0  0  0  0  0  0  0
   58.9620   32.8990   47.5250 C   0  0  0  0  0  0  0  0  0  0  0  0
   58.1490   32.1480   48.1250 O   0  0  0  0  0  0  0  0  0  0  0  0
   60.4030   32.6900   47.4900 C   0  0  0  0  0  0  0  0  0  0  0  0
   61.1940   31.6770   48.0300 C   0  0  0  0  0  0  0  0  0  0  0  0
   62.5860   31.7560   47.8360 C   0  0  0  0  0  0  0  0  0  0  0  0
   63.1460   32.8330   47.1160 C   0  0  0  0  0  0  0  0  0  0  0  0
   62.3190   33.8390   46.5850 C   0  0  0  0  0  0  0  0  0  0  0  0
   60.9450   33.7330   46.7930 C   0  0  0  0  0  0  0  0  0  0  0  0
   59.8460   34.5960   46.3840 C   0  0  0  0  0  0  0  0  0  0  0  0
   59.9880   35.6740   45.7460 O   0  0  0  0  0  0  0  0  0  0  0  0
   60.7557   29.0766   45.7933 H   0  0  0  0  0  0  0  0  0  0  0  0
   59.7259   28.3756   44.4991 H   0  0  0  0  0  0  0  0  0  0  0  0
   60.0959   30.1333   44.4991 H   0  0  0  0  0  0  0  0  0  0  0  0
   58.5259   29.8630   48.0241 H   0  0  0  0  0  0  0  0  0  0  0  0
   58.3603   28.1454   47.5249 H   0  0  0  0  0  0  0  0  0  0  0  0
   59.9767   28.9289   47.5249 H   0  0  0  0  0  0  0  0  0  0  0  0
   57.4507   27.8715   45.5235 H   0  0  0  0  0  0  0  0  0  0  0  0
   56.6189   29.4749   45.8354 H   0  0  0  0  0  0  0  0  0  0  0  0
   58.3272   29.2647   43.3886 H   0  0  0  0  0  0  0  0  0  0  0  0
   56.7402   28.3803   43.4040 H   0  0  0  0  0  0  0  0  0  0  0  0
   55.6469   30.2764   42.9855 H   0  0  0  0  0  0  0  0  0  0  0  0
   56.3646   31.0160   44.4842 H   0  0  0  0  0  0  0  0  0  0  0  0
   58.1955   30.9121   42.1564 H   0  0  0  0  0  0  0  0  0  0  0  0
   56.7261   31.9671   41.9521 H   0  0  0  0  0  0  0  0  0  0  0  0
   59.1515   32.5829   43.3049 H   0  0  0  0  0  0  0  0  0  0  0  0
   57.6108   33.5495   43.2017 H   0  0  0  0  0  0  0  0  0  0  0  0
   56.9098   31.8629   45.1711 H   0  0  0  0  0  0  0  0  0  0  0  0
   58.6941   31.8793   45.4365 H   0  0  0  0  0  0  0  0  0  0  0  0
   58.1180   34.7730   47.4770 H   0  0  0  0  0  0  0  0  0  0  0  0
   60.7450   30.8431   48.5895 H   0  0  0  0  0  0  0  0  0  0  0  0
   63.2409   30.9740   48.2478 H   0  0  0  0  0  0  0  0  0  0  0  0
   64.2349   32.8858   46.9694 H   0  0  0  0  0  0  0  0  0  0  0  0
   62.7436   34.6837   46.0227 H   0  0  0  0  0  0  0  0  0  0  0  0
  1  2  1  0
  2  3  1  0
  2  4  1  0
  4  5  1  0
  5  6  1  0
  6  7  1  0
  7  8  1  0
  8  9  1  0
  9 10  1  0
 10 11  2  0
 10 12  1  0
 12 13  1  0
 13 14  2  0
 13 15  1  0
 15 16  2  0
 16 17  1  0
 17 18  2  0
 18 19  1  0
 19 20  2  0
 20 21  1  0
 21 22  2  0
 21 12  1  0
 20 15  1  0
  1 23  1  0
  1 24  1  0
  1 25  1  0
  3 26  1  0
  3 27  1  0
  3 28  1  0
  4 29  1  0
  4 30  1  0
  5 31  1  0
  5 32  1  0
  6 33  1  0
  6 34  1  0
  7 35  1  0
  7 36  1  0
  8 37  1  0
  8 38  1  0
  9 39  1  0
  9 40  1  0
 12 41  1  0
 16 42  1  0
 17 43  1  0
 18 44  1  0
 19 45  1  0
M  CHG  1  12   1
M  END
>  <UniqueID>  (50) 
46

>  <SMILES>  (50) 
CN(C)CCCCCCC(=O)[NH+]1C(=O)c2ccccc2C1=O

>  <Energy>  (50) 
64.44262532996834

>  <Genealogy>  (50) 
CN(C)CCCCCCC(=O)[NH+]1C(=O)c2ccccc2C1=O (protonated)
CN(C)CCCCCCC(=O)[NH+]1C(=O)c2ccccc2C1=O (3D coordinates assigned)
CN(C)CCCCCCC(=O)[NH+]1C(=O)c2ccccc2C1=O (nonaromatic ring conformer: 64.44262532996834 kcal/mol)

>  <smiles>  (50) 
CN(C)CCCCCCC(=O)N1C(=O)c2ccccc2C1=O

>  <score_type>  (50) 
oracle

>  <origin>  (50) 
adg

>  <m_score__min__energy>  (50) 
-6.04

>  <m_primary>  (50) 
energy

$$$$
50:0
     RDKit          3D

 42 44  0  0  0  0  0  0  0  0999 V2000
   55.9850   25.2960   47.1280 O   0  0  0  0  0  0  0  0  0  0  0  0
   55.6190   26.0630   46.1960 C   0  0  0  0  0  0  0  0  0  0  0  0
   54.3000   25.9640   45.6570 N   0  0  0  0  0  0  0  0  0  0  0  0
   53.6740   24.7030   45.2730 C   0  0  0  0  0  0  0  0  0  0  0  0
   54.3640   23.5130   45.9550 C   0  0  0  0  0  0  0  0  0  0  0  0
   55.4340   22.9110   45.0770 C   0  0  0  0  0  0  0  0  0  0  0  0
   56.2260   21.8520   45.5510 C   0  0  0  0  0  0  0  0  0  0  0  0
   57.1830   21.2610   44.7180 C   0  0  0  0  0  0  0  0  0  0  0  0
   57.3490   21.7190   43.4080 C   0  0  0  0  0  0  0  0  0  0  0  0
   56.5610   22.7670   42.9280 C   0  0  0  0  0  0  0  0  0  0  0  0
   55.6060   23.3620   43.7560 C   0  0  0  0  0  0  0  0  0  0  0  0
   56.5380   26.9800   45.6000 N   0  0  0  0  0  0  0  0  0  0  0  0
   57.9560   27.0150   45.8090 C   0  0  0  0  0  0  0  0  0  0  0  0
   58.5990   26.0050   46.5470 C   0  0  0  0  0  0  0  0  0  0  0  0
   59.9830   26.0410   46.7360 C   0  0  0  0  0  0  0  0  0  0  0  0
   60.7350   27.0830   46.1940 C   0  0  0  0  0  0  0  0  0  0  0  0
   60.1080   28.0990   45.4690 C   0  0  0  0  0  0  0  0  0  0  0  0
   58.7150   28.0840   45.2790 C   0  0  0  0  0  0  0  0  0  0  0  0
   58.0760   29.1580   44.4810 C   0  0  0  0  0  0  0  0  0  0  0  0
   58.3260   30.5120   44.7690 C   0  0  0  0  0  0  0  0  0  0  0  0
   57.7020   31.5200   44.0260 C   0  0  0  0  0  0  0  0  0  0  0  0
   56.8330   31.1850   42.9840 C   0  0  0  0  0  0  0  0  0  0  0  0
   56.5890   29.8430   42.6810 C   0  0  0  0  0  0  0  0  0  0  0  0
   57.2070   28.8330   43.4240 C   0  0  0  0  0  0  0  0  0  0  0  0
   52.6150   24.7226   45.5699 H   0  0  0  0  0  0  0  0  0  0  0  0
   53.7680   24.5838   44.1835 H   0  0  0  0  0  0  0  0  0  0  0  0
   54.8242   23.8573   46.8929 H   0  0  0  0  0  0  0  0  0  0  0  0
   53.6047   22.7411   46.1491 H   0  0  0  0  0  0  0  0  0  0  0  0
   56.0937   21.4861   46.5799 H   0  0  0  0  0  0  0  0  0  0  0  0
   57.8049   20.4355   45.0946 H   0  0  0  0  0  0  0  0  0  0  0  0
   58.1013   21.2533   42.7544 H   0  0  0  0  0  0  0  0  0  0  0  0
   56.6924   23.1247   41.8961 H   0  0  0  0  0  0  0  0  0  0  0  0
   54.9863   24.1863   43.3733 H   0  0  0  0  0  0  0  0  0  0  0  0
   58.0092   25.1824   46.9777 H   0  0  0  0  0  0  0  0  0  0  0  0
   60.4798   25.2469   47.3127 H   0  0  0  0  0  0  0  0  0  0  0  0
   61.8253   27.1048   46.3379 H   0  0  0  0  0  0  0  0  0  0  0  0
   60.7084   28.9167   45.0437 H   0  0  0  0  0  0  0  0  0  0  0  0
   59.0159   30.7798   45.5829 H   0  0  0  0  0  0  0  0  0  0  0  0
   57.8955   32.5768   44.2621 H   0  0  0  0  0  0  0  0  0  0  0  0
   56.3409   31.9782   42.4021 H   0  0  0  0  0  0  0  0  0  0  0  0
   55.9096   29.5809   41.8566 H   0  0  0  0  0  0  0  0  0  0  0  0
   57.0125   27.7780   43.1806 H   0  0  0  0  0  0  0  0  0  0  0  0
  1  2  2  0
  2  3  1  0
  3  4  1  0
  4  5  1  0
  5  6  1  0
  6  7  2  0
  7  8  1  0
  8  9  2  0
  9 10  1  0
 10 11  2  0
  2 12  1  0
 12 13  1  0
 13 14  2  0
 14 15  1  0
 15 16  2  0
 16 17  1  0
 17 18  2  0
 18 19  1  0
 19 20  2  0
 20 21  1  0
 21 22  2  0
 22 23  1  0
 23 24  2  0
 11  6  1  0
 18 13  1  0
 24 19  1  0
  4 25  1  0
  4 26  1  0
  5 27  1  0
  5 28  1  0
  7 29  1  0
  8 30  1  0
  9 31  1  0
 10 32  1  0
 11 33  1  0
 14 34  1  0
 15 35  1  0
 16 36  1  0
 17 37  1  0
 20 38  1  0
 21 39  1  0
 22 40  1  0
 23 41  1  0
 24 42  1  0
M  CHG  2   3  -1  12  -1
M  END
>  <UniqueID>  (51) 
47

>  <SMILES>  (51) 
O=C([N-]CCc1ccccc1)[N-]c1ccccc1-c1ccccc1

>  <Energy>  (51) 
49.36499424804687

>  <Genealogy>  (51) 
O=C([N-]CCc1ccccc1)[N-]c1ccccc1-c1ccccc1 (protonated)
O=C([N-]CCc1ccccc1)[N-]c1ccccc1-c1ccccc1 (3D coordinates assigned)
O=C([N-]CCc1ccccc1)[N-]c1ccccc1-c1ccccc1 (optimized conformer: 49.36499424804687 kcal/mol)

>  <smiles>  (51) 
O=C(NCCc1ccccc1)Nc1ccccc1-c1ccccc1

>  <score_type>  (51) 
oracle

>  <origin>  (51) 
adg

>  <m_score__min__energy>  (51) 
-12.01

>  <m_primary>  (51) 
energy

$$$$
51:0
     RDKit          3D

 44 45  0  0  0  0  0  0  0  0999 V2000
   57.4110   32.0520   43.5340 C   0  0  0  0  0  0  0  0  0  0  0  0
   57.7800   32.4300   44.8920 N   0  0  0  0  0  0  0  0  0  0  0  0
   57.6680   33.7810   45.3550 C   0  0  0  0  0  0  0  0  0  0  0  0
   57.2410   34.6850   44.5860 O   0  0  0  0  0  0  0  0  0  0  0  0
   58.1230   34.1400   46.7380 C   0  0  0  0  0  0  0  0  0  0  0  0
   59.4320   34.9440   46.6700 C   0  0  0  0  0  0  0  0  0  0  0  0
   60.5390   34.3470   47.4490 N   0  0  0  0  0  0  0  0  0  0  0  0
   60.2410   34.1980   48.8890 C   0  0  0  0  0  0  0  0  0  0  0  0
   60.7830   32.8750   49.4390 C   0  0  0  0  0  0  0  0  0  0  0  0
   60.0030   31.6830   48.9580 C   0  0  0  0  0  0  0  0  0  0  0  0
   59.4150   30.8260   49.8200 N   0  0  0  0  0  0  0  0  0  0  0  0
   58.8510   29.8880   49.0330 C   0  0  0  0  0  0  0  0  0  0  0  0
   59.1100   30.1860   47.7140 C   0  0  0  0  0  0  0  0  0  0  0  0
   58.6070   29.4070   46.5310 C   0  0  0  0  0  0  0  0  0  0  0  0
   57.3640   29.9880   46.0280 N   0  0  0  0  0  0  0  0  0  0  0  0
   56.5050   28.8520   45.0300 S   0  0  0  0  0  0  0  0  0  0  0  0
   57.4330   28.5770   43.5390 C   0  0  0  0  0  0  0  0  0  0  0  0
   56.3490   27.5480   45.7600 O   0  0  0  0  0  0  0  0  0  0  0  0
   55.1490   29.3930   44.6720 O   0  0  0  0  0  0  0  0  0  0  0  0
   59.8610   31.3060   47.6630 N   0  0  0  0  0  0  0  0  0  0  0  0
   60.2840   32.0240   46.4530 C   0  0  0  0  0  0  0  0  0  0  0  0
   61.2130   33.2040   46.7850 C   0  0  0  0  0  0  0  0  0  0  0  0
   56.6430   31.2652   43.5683 H   0  0  0  0  0  0  0  0  0  0  0  0
   57.0130   32.9301   43.0043 H   0  0  0  0  0  0  0  0  0  0  0  0
   58.2984   31.6753   43.0043 H   0  0  0  0  0  0  0  0  0  0  0  0
   58.1320   31.6930   45.5420 H   0  0  0  0  0  0  0  0  0  0  0  0
   57.3484   34.7464   47.2302 H   0  0  0  0  0  0  0  0  0  0  0  0
   58.2958   33.2175   47.3117 H   0  0  0  0  0  0  0  0  0  0  0  0
   59.7445   35.0100   45.6174 H   0  0  0  0  0  0  0  0  0  0  0  0
   59.2257   35.9309   47.1099 H   0  0  0  0  0  0  0  0  0  0  0  0
   60.7048   35.0305   49.4383 H   0  0  0  0  0  0  0  0  0  0  0  0
   59.1487   34.2047   49.0185 H   0  0  0  0  0  0  0  0  0  0  0  0
   61.8294   32.7632   49.1188 H   0  0  0  0  0  0  0  0  0  0  0  0
   60.6941   32.9097   50.5349 H   0  0  0  0  0  0  0  0  0  0  0  0
   58.2747   29.0211   49.3886 H   0  0  0  0  0  0  0  0  0  0  0  0
   59.3652   29.4284   45.7343 H   0  0  0  0  0  0  0  0  0  0  0  0
   58.4148   28.3699   46.8431 H   0  0  0  0  0  0  0  0  0  0  0  0
   58.4584   28.2731   43.7961 H   0  0  0  0  0  0  0  0  0  0  0  0
   56.9522   27.7827   42.9491 H   0  0  0  0  0  0  0  0  0  0  0  0
   57.4626   29.5050   42.9491 H   0  0  0  0  0  0  0  0  0  0  0  0
   60.8182   31.3251   45.7926 H   0  0  0  0  0  0  0  0  0  0  0  0
   59.3853   32.4241   45.9608 H   0  0  0  0  0  0  0  0  0  0  0  0
   62.0080   32.8389   47.4518 H   0  0  0  0  0  0  0  0  0  0  0  0
   61.5972   33.5805   45.8255 H   0  0  0  0  0  0  0  0  0  0  0  0
  1  2  1  0
  2  3  1  0
  3  4  2  0
  3  5  1  0
  5  6  1  0
  6  7  1  0
  7  8  1  0
  8  9  1  0
  9 10  1  0
 10 11  2  0
 11 12  1  0
 12 13  2  0
 13 14  1  0
 14 15  1  0
 15 16  1  0
 16 17  1  0
 16 18  2  0
 16 19  2  0
 13 20  1  0
 20 21  1  0
 21 22  1  0
 22  7  1  0
 20 10  1  0
  1 23  1  0
  1 24  1  0
  1 25  1  0
  2 26  1  0
  5 27  1  0
  5 28  1  0
  6 29  1  0
  6 30  1  0
  8 31  1  0
  8 32  1  0
  9 33  1  0
  9 34  1  0
 12 35  1  0
 14 36  1  0
 14 37  1  0
 17 38  1  0
 17 39  1  0
 17 40  1  0
 21 41  1  0
 21 42  1  0
 22 43  1  0
 22 44  1  0
M  CHG  1  15  -1
M  END
>  <UniqueID>  (52) 
48

>  <SMILES>  (52) 
CNC(=O)CCN1CCc2ncc(C[N-]S(C)(=O)=O)n2CC1

>  <Energy>  (52) 
71.6387815838602

>  <Genealogy>  (52) 
CNC(=O)CCN1CCc2ncc(C[N-]S(C)(=O)=O)n2CC1 (protonated)
CNC(=O)CCN1CCc2ncc(C[N-]S(C)(=O)=O)n2CC1 (3D coordinates assigned)
CNC(=O)CCN1CCc2ncc(C[N-]S(C)(=O)=O)n2CC1 (nonaromatic ring conformer: 71.6387815838602 kcal/mol)

>  <smiles>  (52) 
CNC(=O)CCN1CCc2ncc(CNS(C)(=O)=O)n2CC1

>  <score_type>  (52) 
oracle

>  <origin>  (52) 
adg

>  <m_score__min__energy>  (52) 
-7.5800000000000001

>  <m_primary>  (52) 
energy

$$$$
52:0
     RDKit          3D

 40 42  0  0  0  0  0  0  0  0999 V2000
   57.3770   31.6340   43.3020 C   0  0  0  0  0  0  0  0  0  0  0  0
   56.8940   30.4430   44.0630 C   0  0  0  0  0  0  0  0  0  0  0  0
   55.5980   30.0830   44.1480 N   0  0  0  0  0  0  0  0  0  0  0  0
   55.5490   29.0020   44.8710 O   0  0  0  0  0  0  0  0  0  0  0  0
   56.7480   28.6300   45.2590 C   0  0  0  0  0  0  0  0  0  0  0  0
   57.0090   27.4100   46.0840 C   0  0  0  0  0  0  0  0  0  0  0  0
   57.6690   29.5430   44.7730 C   0  0  0  0  0  0  0  0  0  0  0  0
   59.1390   29.5420   44.9220 C   0  0  0  0  0  0  0  0  0  0  0  0
   59.8270   28.7320   44.2480 O   0  0  0  0  0  0  0  0  0  0  0  0
   59.8020   30.4130   45.8450 N   0  0  0  0  0  0  0  0  0  0  0  0
   59.4740   30.5600   47.2340 C   0  0  0  0  0  0  0  0  0  0  0  0
   59.6770   29.5060   48.1430 C   0  0  0  0  0  0  0  0  0  0  0  0
   59.3760   29.6740   49.4970 C   0  0  0  0  0  0  0  0  0  0  0  0
   58.8660   30.8900   49.9540 C   0  0  0  0  0  0  0  0  0  0  0  0
   58.6460   31.9390   49.0580 C   0  0  0  0  0  0  0  0  0  0  0  0
   58.9350   31.7770   47.6940 C   0  0  0  0  0  0  0  0  0  0  0  0
   58.7300   32.8670   46.7820 N   0  0  0  0  0  0  0  0  0  0  0  0
   59.8780   33.6210   46.2740 C   0  0  0  0  0  0  0  0  0  0  0  0
   59.5330   34.2150   44.9050 C   0  0  0  0  0  0  0  0  0  0  0  0
   58.3190   34.9440   44.9620 O   0  0  0  0  0  0  0  0  0  0  0  0
   57.2470   34.0690   45.2560 C   0  0  0  0  0  0  0  0  0  0  0  0
   57.4020   33.4700   46.6570 C   0  0  0  0  0  0  0  0  0  0  0  0
   57.6941   32.4160   44.0076 H   0  0  0  0  0  0  0  0  0  0  0  0
   58.2286   31.3440   42.6690 H   0  0  0  0  0  0  0  0  0  0  0  0
   56.5640   32.0191   42.6690 H   0  0  0  0  0  0  0  0  0  0  0  0
   56.9533   27.6703   47.1513 H   0  0  0  0  0  0  0  0  0  0  0  0
   56.2545   26.6433   45.8537 H   0  0  0  0  0  0  0  0  0  0  0  0
   58.0111   27.0191   45.8537 H   0  0  0  0  0  0  0  0  0  0  0  0
   60.0748   28.5446   47.7861 H   0  0  0  0  0  0  0  0  0  0  0  0
   59.5412   28.8471   50.2034 H   0  0  0  0  0  0  0  0  0  0  0  0
   58.6368   31.0227   51.0216 H   0  0  0  0  0  0  0  0  0  0  0  0
   58.2446   32.8959   49.4229 H   0  0  0  0  0  0  0  0  0  0  0  0
   60.1228   34.4327   46.9748 H   0  0  0  0  0  0  0  0  0  0  0  0
   60.7433   32.9491   46.1748 H   0  0  0  0  0  0  0  0  0  0  0  0
   60.3434   34.8889   44.5901 H   0  0  0  0  0  0  0  0  0  0  0  0
   59.4157   33.3924   44.1842 H   0  0  0  0  0  0  0  0  0  0  0  0
   56.3010   34.6281   45.2055 H   0  0  0  0  0  0  0  0  0  0  0  0
   57.2481   33.2508   44.5208 H   0  0  0  0  0  0  0  0  0  0  0  0
   57.2863   34.2631   47.4104 H   0  0  0  0  0  0  0  0  0  0  0  0
   56.6319   32.7007   46.8157 H   0  0  0  0  0  0  0  0  0  0  0  0
  1  2  1  0
  2  3  2  0
  3  4  1  0
  4  5  1  0
  5  6  1  0
  5  7  2  0
  7  8  1  0
  8  9  2  0
  8 10  1  0
 10 11  1  0
 11 12  2  0
 12 13  1  0
 13 14  2  0
 14 15  1  0
 15 16  2  0
 16 17  1  0
 17 18  1  0
 18 19  1  0
 19 20  1  0
 20 21  1  0
 21 22  1  0
  7  2  1  0
 16 11  1  0
 22 17  1  0
  1 23  1  0
  1 24  1  0
  1 25  1  0
  6 26  1  0
  6 27  1  0
  6 28  1  0
 12 29  1  0
 13 30  1  0
 14 31  1  0
 15 32  1  0
 18 33  1  0
 18 34  1  0
 19 35  1  0
 19 36  1  0
 21 37  1  0
 21 38  1  0
 22 39  1  0
 22 40  1  0
M  CHG  1  10  -1
M  END
>  <UniqueID>  (53) 
49

>  <SMILES>  (53) 
Cc1noc(C)c1C(=O)[N-]c1ccccc1N1CCOCC1

>  <Energy>  (53) 
81.53422766921176

>  <Genealogy>  (53) 
Cc1noc(C)c1C(=O)[N-]c1ccccc1N1CCOCC1 (protonated)
Cc1noc(C)c1C(=O)[N-]c1ccccc1N1CCOCC1 (3D coordinates assigned)
Cc1noc(C)c1C(=O)[N-]c1ccccc1N1CCOCC1 (nonaromatic ring conformer: 81.53422766921176 kcal/mol)

>  <smiles>  (53) 
Cc1noc(C)c1C(=O)Nc1ccccc1N1CCOCC1

>  <score_type>  (53) 
oracle

>  <origin>  (53) 
adg

>  <m_score__min__energy>  (53) 
-8.2899999999999991

>  <m_primary>  (53) 
energy

$$$$
53:0
     RDKit          3D

 34 34  0  0  0  0  0  0  0  0999 V2000
   58.4960   21.7010   43.9910 C   0  0  0  0  0  0  0  0  0  0  0  0
   59.0380   22.2100   45.2920 C   0  0  0  0  0  0  0  0  0  0  0  0
   60.2380   21.9760   45.5940 O   0  0  0  0  0  0  0  0  0  0  0  0
   58.2240   22.9610   46.2020 N   0  0  0  0  0  0  0  0  0  0  0  0
   57.8890   24.3440   46.0390 C   0  0  0  0  0  0  0  0  0  0  0  0
   58.9370   25.2880   46.0010 C   0  0  0  0  0  0  0  0  0  0  0  0
   60.2770   24.8970   45.9630 O   0  0  0  0  0  0  0  0  0  0  0  0
   58.6550   26.6460   45.9800 C   0  0  0  0  0  0  0  0  0  0  0  0
   57.3390   27.0970   45.9840 C   0  0  0  0  0  0  0  0  0  0  0  0
   57.0600   28.5760   45.9990 C   0  0  0  0  0  0  0  0  0  0  0  0
   56.2780   26.1750   45.9620 C   0  0  0  0  0  0  0  0  0  0  0  0
   54.9920   26.7010   45.9950 O   0  0  0  0  0  0  0  0  0  0  0  0
   56.5230   24.7630   45.9250 C   0  0  0  0  0  0  0  0  0  0  0  0
   55.3750   23.6970   45.8220 C   0  0  0  0  0  0  0  0  0  0  0  0
   54.0010   24.3950   45.6220 C   0  0  0  0  0  0  0  0  0  0  0  0
   55.6550   22.7460   44.6390 C   0  0  0  0  0  0  0  0  0  0  0  0
   55.2090   22.8090   47.0830 C   0  0  0  0  0  0  0  0  0  0  0  0
   57.7070   20.9601   44.1873 H   0  0  0  0  0  0  0  0  0  0  0  0
   58.0767   22.5394   43.4154 H   0  0  0  0  0  0  0  0  0  0  0  0
   59.3064   21.2299   43.4154 H   0  0  0  0  0  0  0  0  0  0  0  0
   60.5670   23.9370   45.8340 H   0  0  0  0  0  0  0  0  0  0  0  0
   59.4800   27.3733   45.9600 H   0  0  0  0  0  0  0  0  0  0  0  0
   56.9940   28.9261   47.0397 H   0  0  0  0  0  0  0  0  0  0  0  0
   57.8737   29.1079   45.4841 H   0  0  0  0  0  0  0  0  0  0  0  0
   56.1085   28.7749   45.4841 H   0  0  0  0  0  0  0  0  0  0  0  0
   53.5578   24.6201   46.6033 H   0  0  0  0  0  0  0  0  0  0  0  0
   54.1431   25.3302   45.0606 H   0  0  0  0  0  0  0  0  0  0  0  0
   53.3295   23.7287   45.0606 H   0  0  0  0  0  0  0  0  0  0  0  0
   55.9460   21.7576   45.0241 H   0  0  0  0  0  0  0  0  0  0  0  0
   54.7477   22.6477   44.0249 H   0  0  0  0  0  0  0  0  0  0  0  0
   56.4708   23.1550   44.0249 H   0  0  0  0  0  0  0  0  0  0  0  0
   55.3247   23.4278   47.9850 H   0  0  0  0  0  0  0  0  0  0  0  0
   54.2095   22.3498   47.0791 H   0  0  0  0  0  0  0  0  0  0  0  0
   55.9752   22.0197   47.0791 H   0  0  0  0  0  0  0  0  0  0  0  0
  1  2  1  0
  2  3  2  0
  2  4  1  0
  4  5  1  0
  5  6  2  0
  6  7  1  0
  6  8  1  0
  8  9  2  0
  9 10  1  0
  9 11  1  0
 11 12  1  0
 11 13  2  0
 13 14  1  0
 14 15  1  0
 14 16  1  0
 14 17  1  0
 13  5  1  0
  1 18  1  0
  1 19  1  0
  1 20  1  0
  7 21  1  0
  8 22  1  0
 10 23  1  0
 10 24  1  0
 10 25  1  0
 15 26  1  0
 15 27  1  0
 15 28  1  0
 16 29  1  0
 16 30  1  0
 16 31  1  0
 17 32  1  0
 17 33  1  0
 17 34  1  0
M  CHG  2   4  -1  12  -1
M  END
>  <UniqueID>  (54) 
50

>  <SMILES>  (54) 
CC(=O)[N-]c1c(O)cc(C)c([O-])c1C(C)(C)C

>  <Energy>  (54) 
50.59754716105575

>  <Genealogy>  (54) 
CC(=O)[N-]c1c(O)cc(C)c([O-])c1C(C)(C)C (protonated)
CC(=O)[N-]c1c(O)cc(C)c([O-])c1C(C)(C)C (3D coordinates assigned)
CC(=O)[N-]c1c(O)cc(C)c([O-])c1C(C)(C)C (optimized conformer: 50.59754716105575 kcal/mol)

>  <smiles>  (54) 
CC(=O)Nc1c(O)cc(C)c(O)c1C(C)(C)C

>  <score_type>  (54) 
oracle

>  <origin>  (54) 
adg

>  <m_score__min__energy>  (54) 
-9.8599999999999994

>  <m_primary>  (54) 
energy

$$$$
54:0
     RDKit          3D

 43 44  0  0  0  0  0  0  0  0999 V2000
   63.0740   33.8460   46.4700 C   0  0  0  0  0  0  0  0  0  0  0  0
   63.7370   32.6470   47.1440 C   0  0  0  0  0  0  0  0  0  0  0  0
   63.3990   32.5750   48.6340 C   0  0  0  0  0  0  0  0  0  0  0  0
   61.9890   32.4850   48.8080 O   0  0  0  0  0  0  0  0  0  0  0  0
   61.3240   31.2720   48.9880 C   0  0  0  0  0  0  0  0  0  0  0  0
   61.7950   30.3820   49.7470 O   0  0  0  0  0  0  0  0  0  0  0  0
   59.7990   30.9820   48.1290 S   0  0  1  0  0  4  0  0  0  0  0  0
   59.0880   29.5820   48.7910 O   0  0  0  0  0  0  0  0  0  0  0  0
   58.6690   32.3710   48.3950 C   0  0  0  0  0  0  0  0  0  0  0  0
   58.6200   33.2600   47.1830 C   0  0  0  0  0  0  0  0  0  0  0  0
   57.5020   33.2360   46.3310 C   0  0  0  0  0  0  0  0  0  0  0  0
   57.4740   34.0360   45.1850 C   0  0  0  0  0  0  0  0  0  0  0  0
   58.5570   34.8680   44.8830 C   0  0  0  0  0  0  0  0  0  0  0  0
   59.6670   34.9030   45.7300 C   0  0  0  0  0  0  0  0  0  0  0  0
   59.6990   34.1050   46.8770 C   0  0  0  0  0  0  0  0  0  0  0  0
   60.1130   30.6640   46.3770 C   0  0  0  0  0  0  0  0  0  0  0  0
   58.8390   30.3800   45.6460 C   0  0  0  0  0  0  0  0  0  0  0  0
   58.6290   30.6880   44.3480 N   0  0  0  0  0  0  0  0  0  0  0  0
   57.3650   30.2460   44.1700 C   0  0  0  0  0  0  0  0  0  0  0  0
   56.6100   30.3870   42.8940 C   0  0  0  0  0  0  0  0  0  0  0  0
   56.8710   29.7200   45.2650 O   0  0  0  0  0  0  0  0  0  0  0  0
   57.7690   29.7810   46.1970 N   0  0  0  0  0  0  0  0  0  0  0  0
   62.6933   34.5345   47.2387 H   0  0  0  0  0  0  0  0  0  0  0  0
   63.8115   34.3682   45.8429 H   0  0  0  0  0  0  0  0  0  0  0  0
   62.2396   33.4990   45.8429 H   0  0  0  0  0  0  0  0  0  0  0  0
   63.3883   31.7256   46.6548 H   0  0  0  0  0  0  0  0  0  0  0  0
   64.8269   32.7585   47.0454 H   0  0  0  0  0  0  0  0  0  0  0  0
   63.8780   31.6879   49.0740 H   0  0  0  0  0  0  0  0  0  0  0  0
   63.7679   33.4833   49.1329 H   0  0  0  0  0  0  0  0  0  0  0  0
   59.7450   29.2530   49.4560 H   0  0  0  0  0  0  0  0  0  0  0  0
   57.6604   31.9815   48.5974 H   0  0  0  0  0  0  0  0  0  0  0  0
   59.0308   32.9608   49.2501 H   0  0  0  0  0  0  0  0  0  0  0  0
   56.6467   32.5858   46.5669 H   0  0  0  0  0  0  0  0  0  0  0  0
   56.5985   34.0111   44.5194 H   0  0  0  0  0  0  0  0  0  0  0  0
   58.5345   35.4943   43.9790 H   0  0  0  0  0  0  0  0  0  0  0  0
   60.5174   35.5596   45.4940 H   0  0  0  0  0  0  0  0  0  0  0  0
   60.5736   34.1390   47.5432 H   0  0  0  0  0  0  0  0  0  0  0  0
   60.5937   31.5475   45.9317 H   0  0  0  0  0  0  0  0  0  0  0  0
   60.7684   29.7846   46.2928 H   0  0  0  0  0  0  0  0  0  0  0  0
   55.5507   30.5848   43.1147 H   0  0  0  0  0  0  0  0  0  0  0  0
   57.0257   31.2230   42.3124 H   0  0  0  0  0  0  0  0  0  0  0  0
   56.6960   29.4573   42.3124 H   0  0  0  0  0  0  0  0  0  0  0  0
   57.6550   29.4360   47.1770 H   0  0  0  0  0  0  0  0  0  0  0  0
  1  2  1  0
  2  3  1  0
  3  4  1  0
  4  5  1  0
  5  6  2  0
  5  7  1  0
  7  8  1  1
  7  9  1  0
  9 10  1  0
 10 11  2  0
 11 12  1  0
 12 13  2  0
 13 14  1  0
 14 15  2  0
  7 16  1  0
 16 17  1  0
 17 18  1  0
 18 19  2  0
 19 20  1  0
 19 21  1  0
 21 22  1  0
 15 10  1  0
 22 17  2  0
  1 23  1  0
  1 24  1  0
  1 25  1  0
  2 26  1  0
  2 27  1  0
  3 28  1  0
  3 29  1  0
  8 30  1  0
  9 31  1  0
  9 32  1  0
 11 33  1  0
 12 34  1  0
 13 35  1  0
 14 36  1  0
 15 37  1  0
 16 38  1  0
 16 39  1  0
 20 40  1  0
 20 41  1  0
 20 42  1  0
 22 43  1  0
M  CHG  2   7   1  22   1
M  RAD  1   7   2
M  END
>  <UniqueID>  (55) 
51

>  <SMILES>  (55) 
CCCOC(=O)[S@@+](O)(Cc1ccccc1)Cc1nc(C)o[nH+]1

>  <Energy>  (55) 
63.24416813088953

>  <Genealogy>  (55) 
CCCOC(=O)[S+](O)(Cc1ccccc1)Cc1nc(C)o[nH+]1 (protonated)
CCCOC(=O)[S@@+](O)(Cc1ccccc1)Cc1nc(C)o[nH+]1 (chirality)
CCCOC(=O)[S@@+](O)(Cc1ccccc1)Cc1nc(C)o[nH+]1 (3D coordinates assigned)
CCCOC(=O)[S@@+](O)(Cc1ccccc1)Cc1nc(C)o[nH+]1 (optimized conformer: 63.24416813088953 kcal/mol)

>  <smiles>  (55) 
CCCOC(=O)[S+]([O-])(Cc1ccccc1)Cc1noc(C)n1

>  <score_type>  (55) 
oracle

>  <origin>  (55) 
adg

>  <m_score__min__energy>  (55) 
-3.8500000000000001

>  <m_primary>  (55) 
energy

$$$$
55:0
     RDKit          3D

 65 68  0  0  0  0  0  0  0  0999 V2000
   57.5600   26.1920   45.9920 C   0  0  0  0  0  0  0  0  0  0  0  0
   58.7060   26.8520   46.6980 C   0  0  0  0  0  0  0  0  0  0  0  0
   59.1870   26.3280   47.9120 C   0  0  0  0  0  0  0  0  0  0  0  0
   60.2590   26.9370   48.5790 C   0  0  0  0  0  0  0  0  0  0  0  0
   60.7090   26.3800   49.8230 N   0  0  0  0  0  0  0  0  0  0  0  0
   61.2310   27.1240   50.9320 C   0  0  0  0  0  0  0  0  0  0  0  0
   62.0530   26.5670   51.7030 O   0  0  0  0  0  0  0  0  0  0  0  0
   60.7910   28.4650   51.1780 N   0  0  0  0  0  0  0  0  0  0  0  0
   61.4960   29.4880   51.8950 C   0  0  0  0  0  0  0  0  0  0  0  0
   61.6720   29.4240   53.2860 C   0  0  0  0  0  0  0  0  0  0  0  0
   62.3870   30.4230   53.9480 C   0  0  0  0  0  0  0  0  0  0  0  0
   62.9330   31.4900   53.2300 C   0  0  0  0  0  0  0  0  0  0  0  0
   62.7860   31.5670   51.8380 C   0  0  0  0  0  0  0  0  0  0  0  0
   63.3820   32.6920   51.1700 N   0  0  0  0  0  0  0  0  0  0  0  0
   64.7160   32.6980   50.0600 S   0  0  0  0  0  0  0  0  0  0  0  0
   64.1390   32.9230   48.3880 C   0  0  0  0  0  0  0  0  0  0  0  0
   65.5010   31.4210   50.1810 O   0  0  0  0  0  0  0  0  0  0  0  0
   65.6200   33.8450   50.4120 O   0  0  0  0  0  0  0  0  0  0  0  0
   62.0750   30.5440   51.1690 C   0  0  0  0  0  0  0  0  0  0  0  0
   61.9240   30.5490   49.8220 F   0  0  0  0  0  0  0  0  0  0  0  0
   60.8190   28.1090   48.0480 C   0  0  0  0  0  0  0  0  0  0  0  0
   60.3730   28.6120   46.8260 C   0  0  0  0  0  0  0  0  0  0  0  0
   59.3330   27.9780   46.1310 C   0  0  0  0  0  0  0  0  0  0  0  0
   58.9090   28.4660   44.8870 O   0  0  0  0  0  0  0  0  0  0  0  0
   58.0010   29.5230   44.7540 C   0  0  0  0  0  0  0  0  0  0  0  0
   56.8440   29.3560   43.9940 C   0  0  0  0  0  0  0  0  0  0  0  0
   55.9570   30.4280   43.8850 C   0  0  0  0  0  0  0  0  0  0  0  0
   56.2440   31.6080   44.4950 N   0  0  0  0  0  0  0  0  0  0  0  0
   57.3930   31.7730   45.2060 C   0  0  0  0  0  0  0  0  0  0  0  0
   57.6810   32.8990   45.7920 N   0  0  0  0  0  0  0  0  0  0  0  0
   58.8040   33.2200   46.6340 C   0  0  0  0  0  0  0  0  0  0  0  0
   60.0750   33.5490   46.1210 C   0  0  0  0  0  0  0  0  0  0  0  0
   61.1360   33.8180   46.9880 C   0  0  0  0  0  0  0  0  0  0  0  0
   60.9580   33.7230   48.3700 C   0  0  0  0  0  0  0  0  0  0  0  0
   59.7140   33.3420   48.8950 C   0  0  0  0  0  0  0  0  0  0  0  0
   59.5270   33.2080   50.3810 C   0  0  0  0  0  0  0  0  0  0  0  0
   58.6260   31.7210   50.7720 S   0  0  0  0  0  0  0  0  0  0  0  0
   59.0050   30.4710   49.5620 C   0  0  0  0  0  0  0  0  0  0  0  0
   59.0170   31.2330   52.1360 O   0  0  0  0  0  0  0  0  0  0  0  0
   57.1520   31.9980   50.7470 O   0  0  0  0  0  0  0  0  0  0  0  0
   58.6410   33.1030   48.0230 C   0  0  0  0  0  0  0  0  0  0  0  0
   58.2490   30.7270   45.3390 N   0  0  0  0  0  0  0  0  0  0  0  0
   56.8565   25.7868   46.7342 H   0  0  0  0  0  0  0  0  0  0  0  0
   57.0431   26.9307   45.3619 H   0  0  0  0  0  0  0  0  0  0  0  0
   57.9396   25.3741   45.3619 H   0  0  0  0  0  0  0  0  0  0  0  0
   58.7170   25.4313   48.3421 H   0  0  0  0  0  0  0  0  0  0  0  0
   61.2456   28.5849   53.8553 H   0  0  0  0  0  0  0  0  0  0  0  0
   62.5211   30.3702   55.0385 H   0  0  0  0  0  0  0  0  0  0  0  0
   63.4844   32.2785   53.7630 H   0  0  0  0  0  0  0  0  0  0  0  0
   63.1143   33.3226   48.4044 H   0  0  0  0  0  0  0  0  0  0  0  0
   64.7997   33.6294   47.8640 H   0  0  0  0  0  0  0  0  0  0  0  0
   64.1471   31.9558   47.8640 H   0  0  0  0  0  0  0  0  0  0  0  0
   61.6138   28.6337   48.5984 H   0  0  0  0  0  0  0  0  0  0  0  0
   60.8409   29.5136   46.4038 H   0  0  0  0  0  0  0  0  0  0  0  0
   56.6349   28.4002   43.4913 H   0  0  0  0  0  0  0  0  0  0  0  0
   55.0278   30.3181   43.3067 H   0  0  0  0  0  0  0  0  0  0  0  0
   60.2317   33.5940   45.0331 H   0  0  0  0  0  0  0  0  0  0  0  0
   62.1164   34.1060   46.5807 H   0  0  0  0  0  0  0  0  0  0  0  0
   61.7946   33.9473   49.0480 H   0  0  0  0  0  0  0  0  0  0  0  0
   60.5131   33.1708   50.8670 H   0  0  0  0  0  0  0  0  0  0  0  0
   58.9543   34.0740   50.7445 H   0  0  0  0  0  0  0  0  0  0  0  0
   59.2875   29.5391   50.0736 H   0  0  0  0  0  0  0  0  0  0  0  0
   58.1213   30.2902   48.9324 H   0  0  0  0  0  0  0  0  0  0  0  0
   59.8403   30.8114   48.9324 H   0  0  0  0  0  0  0  0  0  0  0  0
   57.6602   32.8205   48.4331 H   0  0  0  0  0  0  0  0  0  0  0  0
  1  2  1  0
  2  3  2  0
  3  4  1  0
  4  5  1  0
  5  6  1  0
  6  7  2  0
  6  8  1  0
  8  9  1  0
  9 10  2  0
 10 11  1  0
 11 12  2  0
 12 13  1  0
 13 14  1  0
 14 15  1  0
 15 16  1  0
 15 17  2  0
 15 18  2  0
 13 19  2  0
 19 20  1  0
  4 21  2  0
 21 22  1  0
 22 23  2  0
 23 24  1  0
 24 25  1  0
 25 26  1  0
 26 27  2  0
 27 28  1  0
 28 29  1  0
 29 30  2  3
 30 31  1  0
 31 32  2  0
 32 33  1  0
 33 34  2  0
 34 35  1  0
 35 36  1  0
 36 37  1  0
 37 38  1  0
 37 39  2  0
 37 40  2  0
 35 41  2  0
 29 42  1  0
 23  2  1  0
 42 25  2  0
 19  9  1  0
 41 31  1  0
  1 43  1  0
  1 44  1  0
  1 45  1  0
  3 46  1  0
 10 47  1  0
 11 48  1  0
 12 49  1  0
 16 50  1  0
 16 51  1  0
 16 52  1  0
 21 53  1  0
 22 54  1  0
 26 55  1  0
 27 56  1  0
 32 57  1  0
 33 58  1  0
 34 59  1  0
 36 60  1  0
 36 61  1  0
 38 62  1  0
 38 63  1  0
 38 64  1  0
 41 65  1  0
M  CHG  4   5  -1   8  -1  14  -1  28  -1
M  END
>  <UniqueID>  (56) 
52

>  <SMILES>  (56) 
Cc1cc([N-]C(=O)[N-]c2cccc([N-]S(C)(=O)=O)c2F)ccc1Oc1cc[n-]c(=Nc2cccc(CS(C)(=O)=O)c2)n1

>  <Energy>  (56) 
81.83599745990387

>  <Genealogy>  (56) 
Cc1cc([N-]C(=O)[N-]c2cccc([N-]S(C)(=O)=O)c2F)ccc1Oc1cc[n-]c(=Nc2cccc(CS(C)(=O)=O)c2)n1 (protonated)
Cc1cc([N-]C(=O)[N-]c2cccc([N-]S(C)(=O)=O)c2F)ccc1Oc1cc[n-]c(=Nc2cccc(CS(C)(=O)=O)c2)n1 (3D coordinates assigned)
Cc1cc([N-]C(=O)[N-]c2cccc([N-]S(C)(=O)=O)c2F)ccc1Oc1cc[n-]c(=Nc2cccc(CS(C)(=O)=O)c2)n1 (optimized conformer: 81.83599745990387 kcal/mol)

>  <smiles>  (56) 
Cc1cc(NC(=O)Nc2cccc(NS(C)(=O)=O)c2F)ccc1Oc1cc[nH]c(=Nc2cccc(CS(C)(=O)=O)c2)n1

>  <score_type>  (56) 
oracle

>  <origin>  (56) 
adg

>  <m_score__min__energy>  (56) 
-15.199999999999999

>  <m_primary>  (56) 
energy

$$$$
56:0
     RDKit          3D

 47 48  0  0  0  0  0  0  0  0999 V2000
   56.6340   30.3750   43.1170 C   0  0  0  0  0  0  0  0  0  0  0  0
   56.6410   30.7670   44.4860 O   0  0  0  0  0  0  0  0  0  0  0  0
   57.4110   31.8180   45.0070 C   0  0  0  0  0  0  0  0  0  0  0  0
   57.3700   33.1160   44.4630 C   0  0  0  0  0  0  0  0  0  0  0  0
   58.1410   34.1390   45.0160 C   0  0  0  0  0  0  0  0  0  0  0  0
   58.9660   33.8880   46.1220 C   0  0  0  0  0  0  0  0  0  0  0  0
   59.7750   34.9750   46.7240 C   0  0  0  0  0  0  0  0  0  0  0  0
   60.0120   36.0140   46.0520 O   0  0  0  0  0  0  0  0  0  0  0  0
   60.2530   34.9060   48.0740 N   0  0  0  0  0  0  0  0  0  0  0  0
   61.4270   34.2090   48.5180 C   0  0  0  0  0  0  0  0  0  0  0  0
   62.2440   33.5830   47.5710 C   0  0  0  0  0  0  0  0  0  0  0  0
   63.3940   32.8970   47.9700 C   0  0  0  0  0  0  0  0  0  0  0  0
   63.7280   32.8060   49.3300 C   0  0  0  0  0  0  0  0  0  0  0  0
   64.9900   32.1100   49.7570 C   0  0  0  0  0  0  0  0  0  0  0  0
   66.1000   32.9260   49.4990 O   0  0  0  0  0  0  0  0  0  0  0  0
   62.9060   33.4250   50.2830 C   0  0  0  0  0  0  0  0  0  0  0  0
   61.7550   34.1100   49.8820 C   0  0  0  0  0  0  0  0  0  0  0  0
   59.0280   32.5890   46.6520 C   0  0  0  0  0  0  0  0  0  0  0  0
   58.2400   31.5550   46.1100 C   0  0  0  0  0  0  0  0  0  0  0  0
   58.2430   30.2510   46.6360 O   0  0  0  0  0  0  0  0  0  0  0  0
   59.3980   29.4350   46.8350 C   0  0  0  0  0  0  0  0  0  0  0  0
   59.5090   28.3290   45.7690 C   0  0  0  0  0  0  0  0  0  0  0  0
   58.2330   28.0500   45.0910 N   0  0  0  0  0  0  0  0  0  0  0  0
   57.4620   26.9830   45.7410 C   0  0  0  0  0  0  0  0  0  0  0  0
   56.0040   27.2880   45.6280 C   0  0  0  0  0  0  0  0  0  0  0  0
   55.6240   28.4110   45.1960 O   0  0  0  0  0  0  0  0  0  0  0  0
   55.0620   26.3480   46.0370 O   0  0  0  0  0  0  0  0  0  0  0  0
   56.6144   29.2772   43.0500 H   0  0  0  0  0  0  0  0  0  0  0  0
   55.7431   30.7885   42.6217 H   0  0  0  0  0  0  0  0  0  0  0  0
   57.5391   30.7565   42.6217 H   0  0  0  0  0  0  0  0  0  0  0  0
   56.7258   33.3250   43.5962 H   0  0  0  0  0  0  0  0  0  0  0  0
   58.1015   35.1489   44.5817 H   0  0  0  0  0  0  0  0  0  0  0  0
   61.9793   33.6311   46.5044 H   0  0  0  0  0  0  0  0  0  0  0  0
   64.0404   32.4262   47.2147 H   0  0  0  0  0  0  0  0  0  0  0  0
   64.9398   31.8938   50.8344 H   0  0  0  0  0  0  0  0  0  0  0  0
   65.0931   31.1719   49.1919 H   0  0  0  0  0  0  0  0  0  0  0  0
   66.1340   33.0570   48.5150 H   0  0  0  0  0  0  0  0  0  0  0  0
   63.1679   33.3713   51.3500 H   0  0  0  0  0  0  0  0  0  0  0  0
   61.1030   34.5737   50.6369 H   0  0  0  0  0  0  0  0  0  0  0  0
   59.6981   32.3771   47.4982 H   0  0  0  0  0  0  0  0  0  0  0  0
   60.2951   30.0696   46.7841 H   0  0  0  0  0  0  0  0  0  0  0  0
   59.3096   28.9525   47.8196 H   0  0  0  0  0  0  0  0  0  0  0  0
   60.2451   28.6429   45.0142 H   0  0  0  0  0  0  0  0  0  0  0  0
   59.8150   27.4066   46.2843 H   0  0  0  0  0  0  0  0  0  0  0  0
   57.6530   28.9220   45.0530 H   0  0  0  0  0  0  0  0  0  0  0  0
   57.6758   26.0230   45.2484 H   0  0  0  0  0  0  0  0  0  0  0  0
   57.7438   26.9191   46.8024 H   0  0  0  0  0  0  0  0  0  0  0  0
  1  2  1  0
  2  3  1  0
  3  4  2  0
  4  5  1  0
  5  6  2  0
  6  7  1  0
  7  8  2  0
  7  9  1  0
  9 10  1  0
 10 11  2  0
 11 12  1  0
 12 13  2  0
 13 14  1  0
 14 15  1  0
 13 16  1  0
 16 17  2  0
  6 18  1  0
 18 19  2  0
 19 20  1  0
 20 21  1  0
 21 22  1  0
 22 23  1  0
 23 24  1  0
 24 25  1  0
 25 26  2  0
 25 27  1  0
 19  3  1  0
 17 10  1  0
  1 28  1  0
  1 29  1  0
  1 30  1  0
  4 31  1  0
  5 32  1  0
 11 33  1  0
 12 34  1  0
 14 35  1  0
 14 36  1  0
 15 37  1  0
 16 38  1  0
 17 39  1  0
 18 40  1  0
 21 41  1  0
 21 42  1  0
 22 43  1  0
 22 44  1  0
 23 45  1  0
 24 46  1  0
 24 47  1  0
M  CHG  2   9  -1  27  -1
M  END
>  <UniqueID>  (57) 
53

>  <SMILES>  (57) 
COc1ccc(C(=O)[N-]c2ccc(CO)cc2)cc1OCCNCC(=O)[O-]

>  <Energy>  (57) 
50.72070326397593

>  <Genealogy>  (57) 
COc1ccc(C(=O)[N-]c2ccc(CO)cc2)cc1OCCNCC(=O)[O-] (protonated)
COc1ccc(C(=O)[N-]c2ccc(CO)cc2)cc1OCCNCC(=O)[O-] (3D coordinates assigned)
COc1ccc(C(=O)[N-]c2ccc(CO)cc2)cc1OCCNCC(=O)[O-] (optimized conformer: 50.72070326397593 kcal/mol)

>  <smiles>  (57) 
COc1ccc(C(=O)Nc2ccc(CO)cc2)cc1OCCNCC(=O)O

>  <score_type>  (57) 
oracle

>  <origin>  (57) 
adg

>  <m_score__min__energy>  (57) 
-12.779999999999999

>  <m_primary>  (57) 
energy

$$$$
57:0
     RDKit          3D

 47 49  0  0  0  0  0  0  0  0999 V2000
   60.7360   31.3490   50.7200 O   0  0  0  0  0  0  0  0  0  0  0  0
   59.4790   31.3080   50.7960 C   0  0  0  0  0  0  0  0  0  0  0  0
   58.8050   29.9920   51.0420 C   0  0  0  0  0  0  0  0  0  0  0  0
   57.3880   30.1470   50.9920 O   0  0  0  0  0  0  0  0  0  0  0  0
   56.6330   30.6720   52.0490 C   0  0  0  0  0  0  0  0  0  0  0  0
   56.2030   31.8560   51.9890 O   0  0  0  0  0  0  0  0  0  0  0  0
   56.3160   29.8130   53.2180 C   0  0  0  0  0  0  0  0  0  0  0  0
   57.2150   29.7910   54.3010 C   0  0  0  0  0  0  0  0  0  0  0  0
   56.9860   28.9630   55.4020 C   0  0  0  0  0  0  0  0  0  0  0  0
   55.8570   28.1470   55.4410 C   0  0  0  0  0  0  0  0  0  0  0  0
   54.9480   28.1610   54.3830 C   0  0  0  0  0  0  0  0  0  0  0  0
   55.1640   28.9850   53.2640 C   0  0  0  0  0  0  0  0  0  0  0  0
   54.1640   29.0440   52.2330 N   0  0  0  0  0  0  0  0  0  0  0  0
   53.1600   30.0700   52.1500 C   0  0  0  0  0  0  0  0  0  0  0  0
   52.4360   30.4220   53.2990 C   0  0  0  0  0  0  0  0  0  0  0  0
   51.4730   31.4350   53.2470 C   0  0  0  0  0  0  0  0  0  0  0  0
   51.2340   32.1130   52.0480 C   0  0  0  0  0  0  0  0  0  0  0  0
   50.2810   33.1240   51.9990 O   0  0  0  0  0  0  0  0  0  0  0  0
   51.9590   31.7800   50.9000 C   0  0  0  0  0  0  0  0  0  0  0  0
   52.9230   30.7680   50.9490 C   0  0  0  0  0  0  0  0  0  0  0  0
   58.7010   32.5020   50.6270 N   0  0  0  0  0  0  0  0  0  0  0  0
   59.3100   33.7960   50.3280 C   0  0  0  0  0  0  0  0  0  0  0  0
   59.8530   33.8100   48.9260 C   0  0  0  0  0  0  0  0  0  0  0  0
   58.9750   33.8850   47.8330 C   0  0  0  0  0  0  0  0  0  0  0  0
   59.4750   33.9060   46.5270 C   0  0  0  0  0  0  0  0  0  0  0  0
   60.8540   33.8580   46.3040 C   0  0  0  0  0  0  0  0  0  0  0  0
   61.7350   33.7910   47.3870 C   0  0  0  0  0  0  0  0  0  0  0  0
   61.2390   33.7690   48.6950 C   0  0  0  0  0  0  0  0  0  0  0  0
   59.1193   29.2731   50.2710 H   0  0  0  0  0  0  0  0  0  0  0  0
   59.0907   29.6233   52.0382 H   0  0  0  0  0  0  0  0  0  0  0  0
   58.1078   30.4332   54.2798 H   0  0  0  0  0  0  0  0  0  0  0  0
   57.6983   28.9549   56.2402 H   0  0  0  0  0  0  0  0  0  0  0  0
   55.6825   27.4913   56.3068 H   0  0  0  0  0  0  0  0  0  0  0  0
   54.0539   27.5216   54.4243 H   0  0  0  0  0  0  0  0  0  0  0  0
   54.2070   28.3280   51.4730 H   0  0  0  0  0  0  0  0  0  0  0  0
   52.6270   29.8978   54.2470 H   0  0  0  0  0  0  0  0  0  0  0  0
   50.9032   31.6984   54.1503 H   0  0  0  0  0  0  0  0  0  0  0  0
   51.7710   32.3145   49.9572 H   0  0  0  0  0  0  0  0  0  0  0  0
   53.4987   30.5158   50.0462 H   0  0  0  0  0  0  0  0  0  0  0  0
   57.6590   32.4460   50.6880 H   0  0  0  0  0  0  0  0  0  0  0  0
   58.5511   34.5857   50.4304 H   0  0  0  0  0  0  0  0  0  0  0  0
   60.1368   33.9717   51.0319 H   0  0  0  0  0  0  0  0  0  0  0  0
   57.8893   33.9274   48.0045 H   0  0  0  0  0  0  0  0  0  0  0  0
   58.7822   33.9604   45.6743 H   0  0  0  0  0  0  0  0  0  0  0  0
   61.2459   33.8730   45.2763 H   0  0  0  0  0  0  0  0  0  0  0  0
   62.8202   33.7555   47.2106 H   0  0  0  0  0  0  0  0  0  0  0  0
   61.9355   33.7195   49.5450 H   0  0  0  0  0  0  0  0  0  0  0  0
  1  2  2  0
  2  3  1  0
  3  4  1  0
  4  5  1  0
  5  6  2  0
  5  7  1  0
  7  8  2  0
  8  9  1  0
  9 10  2  0
 10 11  1  0
 11 12  2  0
 12 13  1  0
 13 14  1  0
 14 15  2  0
 15 16  1  0
 16 17  2  0
 17 18  1  0
 17 19  1  0
 19 20  2  0
  2 21  1  0
 21 22  1  0
 22 23  1  0
 23 24  2  0
 24 25  1  0
 25 26  2  0
 26 27  1  0
 27 28  2  0
 12  7  1  0
 20 14  1  0
 28 23  1  0
  3 29  1  0
  3 30  1  0
  8 31  1  0
  9 32  1  0
 10 33  1  0
 11 34  1  0
 13 35  1  0
 15 36  1  0
 16 37  1  0
 19 38  1  0
 20 39  1  0
 21 40  1  0
 22 41  1  0
 22 42  1  0
 24 43  1  0
 25 44  1  0
 26 45  1  0
 27 46  1  0
 28 47  1  0
M  CHG  1  18  -1
M  END
>  <UniqueID>  (58) 
54

>  <SMILES>  (58) 
O=C(COC(=O)c1ccccc1Nc1ccc([O-])cc1)NCc1ccccc1

>  <Energy>  (58) 
53.681157298484166

>  <Genealogy>  (58) 
O=C(COC(=O)c1ccccc1Nc1ccc([O-])cc1)NCc1ccccc1 (protonated)
O=C(COC(=O)c1ccccc1Nc1ccc([O-])cc1)NCc1ccccc1 (3D coordinates assigned)
O=C(COC(=O)c1ccccc1Nc1ccc([O-])cc1)NCc1ccccc1 (optimized conformer: 53.681157298484166 kcal/mol)

>  <smiles>  (58) 
O=C(COC(=O)c1ccccc1Nc1ccc(O)cc1)NCc1ccccc1

>  <score_type>  (58) 
oracle

>  <origin>  (58) 
adg

>  <m_score__min__energy>  (58) 
-12.789999999999999

>  <m_primary>  (58) 
energy

$$$$
58:0
     RDKit          3D

 48 51  0  0  0  0  0  0  0  0999 V2000
   54.0250   29.4710   53.7320 H   0  0  0  0  0  0  0  0  0  0  0  0
   53.0920   29.5870   54.1080 O   0  0  0  0  0  0  0  0  0  0  0  0
   52.1820   30.4830   53.5520 C   0  0  0  0  0  0  0  0  0  0  0  0
   50.9990   30.8610   54.1550 C   0  0  0  0  0  0  0  0  0  0  0  0
   50.6123   30.5146   55.1248 H   0  0  0  0  0  0  0  0  0  0  0  0
   50.3970   31.7630   53.2950 C   0  0  0  0  0  0  0  0  0  0  0  0
   49.4365   32.2784   53.4425 H   0  0  0  0  0  0  0  0  0  0  0  0
   51.2470   31.8840   52.2150 C   0  0  0  0  0  0  0  0  0  0  0  0
   51.0190   32.7070   51.1180 O   0  0  0  0  0  0  0  0  0  0  0  0
   52.3330   31.1000   52.3610 N   0  0  0  0  0  0  0  0  0  0  0  0
   53.4720   31.0080   51.4440 C   0  0  0  0  0  0  0  0  0  0  0  0
   53.3455   31.7438   50.6362 H   0  0  0  0  0  0  0  0  0  0  0  0
   53.5113   29.9896   51.0300 H   0  0  0  0  0  0  0  0  0  0  0  0
   54.7850   31.2910   52.1810 C   0  0  0  0  0  0  0  0  0  0  0  0
   54.5565   31.6898   53.1804 H   0  0  0  0  0  0  0  0  0  0  0  0
   55.3629   32.0204   51.5945 H   0  0  0  0  0  0  0  0  0  0  0  0
   55.5660   30.1040   52.3210 O   0  0  0  0  0  0  0  0  0  0  0  0
   56.9480   30.0010   52.0960 C   0  0  0  0  0  0  0  0  0  0  0  0
   57.7150   29.2870   53.0240 C   0  0  0  0  0  0  0  0  0  0  0  0
   57.2253   28.8129   53.8874 H   0  0  0  0  0  0  0  0  0  0  0  0
   59.0970   29.1720   52.8620 C   0  0  0  0  0  0  0  0  0  0  0  0
   59.6924   28.6206   53.6046 H   0  0  0  0  0  0  0  0  0  0  0  0
   59.7250   29.7550   51.7600 C   0  0  0  0  0  0  0  0  0  0  0  0
   60.8160   29.6748   51.6450 H   0  0  0  0  0  0  0  0  0  0  0  0
   58.9680   30.4440   50.7970 C   0  0  0  0  0  0  0  0  0  0  0  0
   59.5790   31.0760   49.6610 N   0  0  0  0  0  0  0  0  0  0  0  0
   58.9520   31.5830   48.6420 C   0  0  0  0  0  0  0  0  0  0  0  0
   58.1960   32.6900   48.7240 N   0  0  0  0  0  0  0  0  0  0  0  0
   57.6990   32.8770   47.5110 N   0  0  0  0  0  0  0  0  0  0  0  0
   58.1680   31.8730   46.7420 C   0  0  0  0  0  0  0  0  0  0  0  0
   57.8420   31.7000   45.3120 C   0  0  0  0  0  0  0  0  0  0  0  0
   57.0510   30.6630   44.8020 C   0  0  0  0  0  0  0  0  0  0  0  0
   56.5500   29.5220   45.5080 N   0  0  0  0  0  0  0  0  0  0  0  0
   57.0290   28.1890   45.3180 C   0  0  0  0  0  0  0  0  0  0  0  0
   56.3010   27.2190   45.6590 O   0  0  0  0  0  0  0  0  0  0  0  0
   58.2820   27.9690   44.7360 O   0  0  0  0  0  0  0  0  0  0  0  0
   59.4930   28.4290   45.3250 C   0  0  0  0  0  0  0  0  0  0  0  0
   59.4037   28.3951   46.4208 H   0  0  0  0  0  0  0  0  0  0  0  0
   60.3246   27.7841   45.0047 H   0  0  0  0  0  0  0  0  0  0  0  0
   59.6867   29.4634   45.0047 H   0  0  0  0  0  0  0  0  0  0  0  0
   56.7880   30.9150   43.1650 S   0  0  0  0  0  0  0  0  0  0  0  0
   57.6990   32.3210   43.0530 C   0  0  0  0  0  0  0  0  0  0  0  0
   57.8620   32.9081   42.1372 H   0  0  0  0  0  0  0  0  0  0  0  0
   58.2130   32.6200   44.3090 C   0  0  0  0  0  0  0  0  0  0  0  0
   59.2550   34.1990   44.5930 Br  0  0  0  0  0  0  0  0  0  0  0  0
   58.9460   31.0730   47.4330 O   0  0  0  0  0  0  0  0  0  0  0  0
   57.5860   30.5830   50.9820 C   0  0  0  0  0  0  0  0  0  0  0  0
   56.9932   31.1519   50.2506 H   0  0  0  0  0  0  0  0  0  0  0  0
  1  2  1  0
  2  3  1  0
  3  4  2  0
  4  5  1  0
  4  6  1  0
  6  7  1  0
  6  8  2  0
  8  9  1  0
  8 10  1  0
 10 11  1  0
 11 12  1  0
 11 13  1  0
 11 14  1  0
 14 15  1  0
 14 16  1  0
 14 17  1  0
 17 18  1  0
 18 19  2  0
 19 20  1  0
 19 21  1  0
 21 22  1  0
 21 23  2  0
 23 24  1  0
 23 25  1  0
 25 26  1  0
 26 27  2  0
 27 28  1  0
 28 29  1  0
 29 30  2  0
 30 31  1  0
 31 32  2  0
 32 33  1  0
 33 34  1  0
 34 35  2  0
 34 36  1  0
 36 37  1  0
 37 38  1  0
 37 39  1  0
 37 40  1  0
 32 41  1  0
 41 42  1  0
 42 43  1  0
 42 44  2  0
 44 45  1  0
 30 46  1  0
 25 47  2  0
 47 48  1  0
 10  3  1  0
 47 18  1  0
 46 27  1  0
 44 31  1  0
M  CHG  3   9  -1  28  -1  33  -1
M  END
>  <UniqueID>  (59) 
55

>  <SMILES>  (59) 
COC(=O)[N-]c1scc(Br)c1-c1n[n-]/c(=N/c2cccc(OCCn3c([O-])ccc3O)c2)o1

>  <Energy>  (59) 
147.78731229249956

>  <Genealogy>  (59) 
COC(=O)[N-]c1scc(Br)c1-c1n[n-]c(=Nc2cccc(OCCn3c([O-])ccc3O)c2)o1 (protonated)
COC(=O)[N-]c1scc(Br)c1-c1n[n-]/c(=N/c2cccc(OCCn3c([O-])ccc3O)c2)o1 (cis-trans isomerization)
COC(=O)[N-]c1scc(Br)c1-c1n[n-]/c(=N/c2cccc(OCCn3c([O-])ccc3O)c2)o1 (3D coordinates assigned)
COC(=O)[N-]c1scc(Br)c1-c1n[n-]/c(=N/c2cccc(OCCn3c([O-])ccc3O)c2)o1 (optimized conformer: 147.78731229249956 kcal/mol)

>  <smiles>  (59) 
COC(=O)Nc1scc(Br)c1-c1n[nH]c(=Nc2cccc(OCCn3c(O)ccc3O)c2)o1

>  <score_type>  (59) 
oracle

>  <origin>  (59) 
adg

>  <m_score__min__energy>  (59) 
-14.539999999999999

>  <m_primary>  (59) 
energy

$$$$
59:0
     RDKit          3D

 55 59  0  0  0  0  0  0  0  0999 V2000
   64.8921   27.5360   52.1441 H   0  0  0  0  0  0  0  0  0  0  0  0
   65.5430   28.4220   52.1080 C   0  0  0  0  0  0  0  0  0  0  0  0
   66.6720   28.4260   51.2840 C   0  0  0  0  0  0  0  0  0  0  0  0
   66.9115   27.5409   50.6763 H   0  0  0  0  0  0  0  0  0  0  0  0
   67.4980   29.5540   51.2310 C   0  0  0  0  0  0  0  0  0  0  0  0
   68.3876   29.5513   50.5840 H   0  0  0  0  0  0  0  0  0  0  0  0
   67.1960   30.6910   52.0010 C   0  0  0  0  0  0  0  0  0  0  0  0
   68.0730   31.9170   51.9230 C   0  0  0  0  0  0  0  0  0  0  0  0
   68.9418   31.6949   51.2860 H   0  0  0  0  0  0  0  0  0  0  0  0
   68.3915   32.1786   52.9429 H   0  0  0  0  0  0  0  0  0  0  0  0
   67.3280   33.0950   51.3430 C   0  0  0  0  0  0  0  0  0  0  0  0
   67.9380   33.8770   50.5710 O   0  0  0  0  0  0  0  0  0  0  0  0
   65.9300   33.3120   51.5810 N   0  0  0  0  0  0  0  0  0  0  0  0
   64.8820   33.1480   50.6170 C   0  0  0  0  0  0  0  0  0  0  0  0
   64.7430   31.9570   49.8900 C   0  0  0  0  0  0  0  0  0  0  0  0
   65.4189   31.1116   50.0860 H   0  0  0  0  0  0  0  0  0  0  0  0
   63.7470   31.8430   48.9170 C   0  0  0  0  0  0  0  0  0  0  0  0
   63.6453   30.9096   48.3439 H   0  0  0  0  0  0  0  0  0  0  0  0
   62.8730   32.9180   48.6670 C   0  0  0  0  0  0  0  0  0  0  0  0
   61.8300   32.8250   47.6850 N   0  0  0  0  0  0  0  0  0  0  0  0
   61.0250   31.8180   47.5210 C   0  0  0  0  0  0  0  0  0  0  0  0
   61.2640   30.8700   46.5740 N   0  0  0  0  0  0  0  0  0  0  0  0
   60.4120   29.8270   46.3990 C   0  0  0  0  0  0  0  0  0  0  0  0
   60.6530   28.8470   45.4180 C   0  0  0  0  0  0  0  0  0  0  0  0
   61.8450   28.9500   44.5040 C   0  0  0  0  0  0  0  0  0  0  0  0
   62.7625   29.0293   45.1055 H   0  0  0  0  0  0  0  0  0  0  0  0
   61.8990   28.0532   43.8693 H   0  0  0  0  0  0  0  0  0  0  0  0
   61.7444   29.8428   43.8693 H   0  0  0  0  0  0  0  0  0  0  0  0
   59.7470   27.7810   45.2780 C   0  0  0  0  0  0  0  0  0  0  0  0
   59.9206   27.0175   44.5054 H   0  0  0  0  0  0  0  0  0  0  0  0
   58.6210   27.6800   46.1150 C   0  0  0  0  0  0  0  0  0  0  0  0
   57.6770   26.5500   45.9680 C   0  0  0  0  0  0  0  0  0  0  0  0
   56.2960   26.8120   45.9270 C   0  0  0  0  0  0  0  0  0  0  0  0
   55.9338   27.8476   46.0072 H   0  0  0  0  0  0  0  0  0  0  0  0
   55.3800   25.7650   45.7850 C   0  0  0  0  0  0  0  0  0  0  0  0
   54.0190   26.0350   45.7360 O   0  0  0  0  0  0  0  0  0  0  0  0
   55.8330   24.4470   45.6930 C   0  0  0  0  0  0  0  0  0  0  0  0
   55.1113   23.6243   45.5826 H   0  0  0  0  0  0  0  0  0  0  0  0
   57.2010   24.1730   45.7410 C   0  0  0  0  0  0  0  0  0  0  0  0
   57.5530   23.1332   45.6709 H   0  0  0  0  0  0  0  0  0  0  0  0
   58.1290   25.2150   45.8780 C   0  0  0  0  0  0  0  0  0  0  0  0
   59.8370   24.8010   45.9940 Cl  0  0  0  0  0  0  0  0  0  0  0  0
   58.3800   28.6760   47.0750 C   0  0  0  0  0  0  0  0  0  0  0  0
   57.4883   28.6168   47.7164 H   0  0  0  0  0  0  0  0  0  0  0  0
   59.2710   29.7410   47.2160 C   0  0  0  0  0  0  0  0  0  0  0  0
   59.0530   30.7100   48.1410 N   0  0  0  0  0  0  0  0  0  0  0  0
   59.9060   31.7260   48.2860 N   0  0  0  0  0  0  0  0  0  0  0  0
   62.9680   34.0740   49.4510 C   0  0  0  0  0  0  0  0  0  0  0  0
   62.2515   34.8955   49.3034 H   0  0  0  0  0  0  0  0  0  0  0  0
   63.9680   34.1900   50.4200 C   0  0  0  0  0  0  0  0  0  0  0  0
   64.0373   35.1028   51.0299 H   0  0  0  0  0  0  0  0  0  0  0  0
   66.0670   30.6720   52.8390 C   0  0  0  0  0  0  0  0  0  0  0  0
   65.8325   31.5488   53.4604 H   0  0  0  0  0  0  0  0  0  0  0  0
   65.2400   29.5440   52.8870 C   0  0  0  0  0  0  0  0  0  0  0  0
   64.3524   29.5395   53.5367 H   0  0  0  0  0  0  0  0  0  0  0  0
  1  2  1  0
  2  3  2  0
  3  4  1  0
  3  5  1  0
  5  6  1  0
  5  7  2  0
  7  8  1  0
  8  9  1  0
  8 10  1  0
  8 11  1  0
 11 12  2  0
 11 13  1  0
 13 14  1  0
 14 15  2  0
 15 16  1  0
 15 17  1  0
 17 18  1  0
 17 19  2  0
 19 20  1  0
 20 21  2  0
 21 22  1  0
 22 23  2  0
 23 24  1  0
 24 25  1  0
 25 26  1  0
 25 27  1  0
 25 28  1  0
 24 29  2  0
 29 30  1  0
 29 31  1  0
 31 32  1  0
 32 33  2  0
 33 34  1  0
 33 35  1  0
 35 36  1  0
 35 37  2  0
 37 38  1  0
 37 39  1  0
 39 40  1  0
 39 41  2  0
 41 42  1  0
 31 43  2  0
 43 44  1  0
 43 45  1  0
 45 46  2  0
 46 47  1  0
 19 48  1  0
 48 49  1  0
 48 50  2  0
 50 51  1  0
  7 52  1  0
 52 53  1  0
 52 54  2  0
 54 55  1  0
 54  2  1  0
 50 14  1  0
 47 21  1  0
 45 23  1  0
 41 32  1  0
M  CHG  3  13  -1  36  -1  47  -1
M  END
>  <UniqueID>  (60) 
56

>  <SMILES>  (60) 
Cc1cc(-c2cc([O-])ccc2Cl)cc2n[n-]/c(=N/c3ccc([N-]C(=O)Cc4ccccc4)cc3)nc12

>  <Energy>  (60) 
80.97839252759267

>  <Genealogy>  (60) 
Cc1cc(-c2cc([O-])ccc2Cl)cc2n[n-]c(=Nc3ccc([N-]C(=O)Cc4ccccc4)cc3)nc12 (protonated)
Cc1cc(-c2cc([O-])ccc2Cl)cc2n[n-]/c(=N/c3ccc([N-]C(=O)Cc4ccccc4)cc3)nc12 (cis-trans isomerization)
Cc1cc(-c2cc([O-])ccc2Cl)cc2n[n-]/c(=N/c3ccc([N-]C(=O)Cc4ccccc4)cc3)nc12 (3D coordinates assigned)
Cc1cc(-c2cc([O-])ccc2Cl)cc2n[n-]/c(=N/c3ccc([N-]C(=O)Cc4ccccc4)cc3)nc12 (optimized conformer: 80.97839252759267 kcal/mol)

>  <smiles>  (60) 
Cc1cc(-c2cc(O)ccc2Cl)cc2n[nH]c(=Nc3ccc(NC(=O)Cc4ccccc4)cc3)nc12

>  <score_type>  (60) 
oracle

>  <origin>  (60) 
adg

>  <m_score__min__energy>  (60) 
-13.369999999999999

>  <m_primary>  (60) 
energy

$$$$
60:0
     RDKit          3D

 53 57  0  0  0  0  0  0  0  0999 V2000
   55.3790   28.9620   44.8650 O   0  0  0  0  0  0  0  0  0  0  0  0
   56.5280   29.4770   44.9100 C   0  0  0  0  0  0  0  0  0  0  0  0
   56.6810   30.8500   44.5310 N   0  0  0  0  0  0  0  0  0  0  0  0
   57.6900   31.7480   45.0130 C   0  0  0  0  0  0  0  0  0  0  0  0
   58.6460   31.3410   45.9610 C   0  0  0  0  0  0  0  0  0  0  0  0
   59.6410   32.2280   46.3820 C   0  0  0  0  0  0  0  0  0  0  0  0
   59.7160   33.5170   45.8430 C   0  0  0  0  0  0  0  0  0  0  0  0
   60.7200   34.3830   46.3010 O   0  0  0  0  0  0  0  0  0  0  0  0
   61.5710   34.1360   47.3900 C   0  0  0  0  0  0  0  0  0  0  0  0
   62.9480   33.9070   47.2190 C   0  0  0  0  0  0  0  0  0  0  0  0
   63.7570   33.6340   48.3250 C   0  0  0  0  0  0  0  0  0  0  0  0
   63.2010   33.5860   49.6060 C   0  0  0  0  0  0  0  0  0  0  0  0
   61.8320   33.8140   49.7920 C   0  0  0  0  0  0  0  0  0  0  0  0
   61.3070   33.7380   51.0900 O   0  0  0  0  0  0  0  0  0  0  0  0
   60.0370   33.2440   51.4230 C   0  0  0  0  0  0  0  0  0  0  0  0
   59.4800   32.1250   50.7760 C   0  0  0  0  0  0  0  0  0  0  0  0
   58.2020   31.6750   51.1240 C   0  0  0  0  0  0  0  0  0  0  0  0
   57.4680   32.3430   52.1090 C   0  0  0  0  0  0  0  0  0  0  0  0
   58.0080   33.4660   52.7410 C   0  0  0  0  0  0  0  0  0  0  0  0
   59.2860   33.9180   52.3940 C   0  0  0  0  0  0  0  0  0  0  0  0
   61.0170   34.0670   48.6730 C   0  0  0  0  0  0  0  0  0  0  0  0
   58.7630   33.9220   44.8910 C   0  0  0  0  0  0  0  0  0  0  0  0
   57.7680   33.0350   44.4690 C   0  0  0  0  0  0  0  0  0  0  0  0
   57.6570   28.7080   45.3660 N   0  0  0  0  0  0  0  0  0  0  0  0
   57.5960   27.3140   45.7100 C   0  0  0  0  0  0  0  0  0  0  0  0
   57.7790   26.8730   47.0460 C   0  0  0  0  0  0  0  0  0  0  0  0
   57.7400   25.5030   47.3590 C   0  0  0  0  0  0  0  0  0  0  0  0
   57.5320   24.5890   46.3280 C   0  0  0  0  0  0  0  0  0  0  0  0
   57.3780   25.0150   45.0320 C   0  0  0  0  0  0  0  0  0  0  0  0
   57.4130   26.3640   44.6860 C   0  0  0  0  0  0  0  0  0  0  0  0
   57.2030   23.8400   44.2200 C   0  0  0  0  0  0  0  0  0  0  0  0
   57.0360   23.8270   42.9730 O   0  0  0  0  0  0  0  0  0  0  0  0
   57.2490   22.6670   45.0240 N   0  0  0  0  0  0  0  0  0  0  0  0
   57.4620   23.0920   46.4120 C   0  0  0  0  0  0  0  0  0  0  0  0
   58.6106   30.3215   46.3724 H   0  0  0  0  0  0  0  0  0  0  0  0
   60.3699   31.9105   47.1422 H   0  0  0  0  0  0  0  0  0  0  0  0
   63.3892   33.9429   46.2120 H   0  0  0  0  0  0  0  0  0  0  0  0
   64.8338   33.4565   48.1870 H   0  0  0  0  0  0  0  0  0  0  0  0
   63.8421   33.3680   50.4729 H   0  0  0  0  0  0  0  0  0  0  0  0
   60.0513   31.6028   49.9944 H   0  0  0  0  0  0  0  0  0  0  0  0
   57.7740   30.7947   50.6222 H   0  0  0  0  0  0  0  0  0  0  0  0
   56.4657   31.9845   52.3862 H   0  0  0  0  0  0  0  0  0  0  0  0
   57.4282   33.9950   53.5117 H   0  0  0  0  0  0  0  0  0  0  0  0
   59.7034   34.8083   52.8870 H   0  0  0  0  0  0  0  0  0  0  0  0
   59.9350   34.2118   48.8082 H   0  0  0  0  0  0  0  0  0  0  0  0
   58.8007   34.9404   44.4770 H   0  0  0  0  0  0  0  0  0  0  0  0
   57.0423   33.3506   43.7050 H   0  0  0  0  0  0  0  0  0  0  0  0
   58.5970   29.1620   45.3750 H   0  0  0  0  0  0  0  0  0  0  0  0
   57.9530   27.6097   47.8441 H   0  0  0  0  0  0  0  0  0  0  0  0
   57.8709   25.1598   48.3959 H   0  0  0  0  0  0  0  0  0  0  0  0
   57.3004   26.6798   43.6383 H   0  0  0  0  0  0  0  0  0  0  0  0
   56.6243   22.7752   47.0506 H   0  0  0  0  0  0  0  0  0  0  0  0
   58.3668   22.6506   46.8553 H   0  0  0  0  0  0  0  0  0  0  0  0
  1  2  2  0
  2  3  1  0
  3  4  1  0
  4  5  2  0
  5  6  1  0
  6  7  2  0
  7  8  1  0
  8  9  1  0
  9 10  2  0
 10 11  1  0
 11 12  2  0
 12 13  1  0
 13 14  1  0
 14 15  1  0
 15 16  2  0
 16 17  1  0
 17 18  2  0
 18 19  1  0
 19 20  2  0
 13 21  2  0
  7 22  1  0
 22 23  2  0
  2 24  1  0
 24 25  1  0
 25 26  2  0
 26 27  1  0
 27 28  2  0
 28 29  1  0
 29 30  2  0
 29 31  1  0
 31 32  2  0
 31 33  1  0
 33 34  1  0
 23  4  1  0
 30 25  1  0
 21  9  1  0
 34 28  1  0
 20 15  1  0
  5 35  1  0
  6 36  1  0
 10 37  1  0
 11 38  1  0
 12 39  1  0
 16 40  1  0
 17 41  1  0
 18 42  1  0
 19 43  1  0
 20 44  1  0
 21 45  1  0
 22 46  1  0
 23 47  1  0
 24 48  1  0
 26 49  1  0
 27 50  1  0
 30 51  1  0
 34 52  1  0
 34 53  1  0
M  CHG  2   3  -1  33  -1
M  END
>  <UniqueID>  (61) 
57

>  <SMILES>  (61) 
O=C([N-]c1ccc(Oc2cccc(Oc3ccccc3)c2)cc1)Nc1ccc2c(c1)C(=O)[N-]C2

>  <Energy>  (61) 
103.16588443906133

>  <Genealogy>  (61) 
O=C([N-]c1ccc(Oc2cccc(Oc3ccccc3)c2)cc1)Nc1ccc2c(c1)C(=O)[N-]C2 (protonated)
O=C([N-]c1ccc(Oc2cccc(Oc3ccccc3)c2)cc1)Nc1ccc2c(c1)C(=O)[N-]C2 (3D coordinates assigned)
O=C([N-]c1ccc(Oc2cccc(Oc3ccccc3)c2)cc1)Nc1ccc2c(c1)C(=O)[N-]C2 (nonaromatic ring conformer: 103.16588443906133 kcal/mol)

>  <smiles>  (61) 
O=C(Nc1ccc(Oc2cccc(Oc3ccccc3)c2)cc1)Nc1ccc2c(c1)C(=O)NC2

>  <score_type>  (61) 
oracle

>  <origin>  (61) 
adg

>  <m_score__min__energy>  (61) 
-12.880000000000001

>  <m_primary>  (61) 
energy

$$$$
61:0
     RDKit          3D

 45 47  0  0  0  0  0  0  0  0999 V2000
   55.1400   29.6670   44.4550 O   0  0  0  0  0  0  0  0  0  0  0  0
   56.1220   28.9680   44.8230 C   0  0  0  0  0  0  0  0  0  0  0  0
   57.5070   29.3820   44.4430 C   0  0  0  0  0  0  0  0  0  0  0  0
   58.0480   30.3090   45.4440 N   0  0  0  0  0  0  0  0  0  0  0  0
   58.7850   29.8060   46.5730 C   0  0  0  0  0  0  0  0  0  0  0  0
   59.7560   28.8050   46.4020 C   0  0  0  0  0  0  0  0  0  0  0  0
   60.4680   28.3180   47.5020 C   0  0  0  0  0  0  0  0  0  0  0  0
   60.2170   28.8260   48.7790 C   0  0  0  0  0  0  0  0  0  0  0  0
   59.2540   29.8230   48.9580 C   0  0  0  0  0  0  0  0  0  0  0  0
   58.5400   30.3120   47.8610 C   0  0  0  0  0  0  0  0  0  0  0  0
   57.9980   32.0230   45.1430 S   0  0  0  0  0  0  0  0  0  0  0  0
   56.5780   32.5020   45.2650 O   0  0  0  0  0  0  0  0  0  0  0  0
   58.4940   32.3120   43.7540 O   0  0  0  0  0  0  0  0  0  0  0  0
   59.0330   32.8730   46.2860 C   0  0  0  0  0  0  0  0  0  0  0  0
   58.5160   33.8890   47.1030 C   0  0  0  0  0  0  0  0  0  0  0  0
   59.3460   34.5470   48.0150 C   0  0  0  0  0  0  0  0  0  0  0  0
   60.6960   34.1980   48.1110 C   0  0  0  0  0  0  0  0  0  0  0  0
   61.2180   33.1920   47.2910 C   0  0  0  0  0  0  0  0  0  0  0  0
   60.3910   32.5320   46.3780 C   0  0  0  0  0  0  0  0  0  0  0  0
   55.9230   27.7920   45.6130 N   0  0  0  0  0  0  0  0  0  0  0  0
   56.9700   26.8120   45.8750 C   0  0  0  0  0  0  0  0  0  0  0  0
   56.5910   25.4840   45.2820 C   0  0  0  0  0  0  0  0  0  0  0  0
   57.3590   24.9120   44.2570 C   0  0  0  0  0  0  0  0  0  0  0  0
   56.9530   23.7020   43.6870 C   0  0  0  0  0  0  0  0  0  0  0  0
   55.8210   23.0890   44.1220 N   0  0  0  0  0  0  0  0  0  0  0  0
   55.0550   23.6240   45.1110 C   0  0  0  0  0  0  0  0  0  0  0  0
   55.4250   24.8320   45.7080 C   0  0  0  0  0  0  0  0  0  0  0  0
   58.1504   28.4916   44.3862 H   0  0  0  0  0  0  0  0  0  0  0  0
   57.4773   29.8848   43.4651 H   0  0  0  0  0  0  0  0  0  0  0  0
   59.9568   28.4027   45.3981 H   0  0  0  0  0  0  0  0  0  0  0  0
   61.2267   27.5340   47.3620 H   0  0  0  0  0  0  0  0  0  0  0  0
   60.7774   28.4412   49.6438 H   0  0  0  0  0  0  0  0  0  0  0  0
   59.0580   30.2232   49.9637 H   0  0  0  0  0  0  0  0  0  0  0  0
   57.7827   31.0965   48.0062 H   0  0  0  0  0  0  0  0  0  0  0  0
   57.4549   34.1686   47.0259 H   0  0  0  0  0  0  0  0  0  0  0  0
   58.9364   35.3402   48.6577 H   0  0  0  0  0  0  0  0  0  0  0  0
   61.3478   34.7142   48.8311 H   0  0  0  0  0  0  0  0  0  0  0  0
   62.2813   32.9200   47.3650 H   0  0  0  0  0  0  0  0  0  0  0  0
   60.8050   31.7446   45.7310 H   0  0  0  0  0  0  0  0  0  0  0  0
   57.9125   27.1565   45.4244 H   0  0  0  0  0  0  0  0  0  0  0  0
   57.0955   26.6995   46.9620 H   0  0  0  0  0  0  0  0  0  0  0  0
   58.2734   25.4116   43.9046 H   0  0  0  0  0  0  0  0  0  0  0  0
   57.5510   23.2451   42.8847 H   0  0  0  0  0  0  0  0  0  0  0  0
   54.1431   23.1049   45.4411 H   0  0  0  0  0  0  0  0  0  0  0  0
   54.8063   25.2681   46.5061 H   0  0  0  0  0  0  0  0  0  0  0  0
  1  2  2  0
  2  3  1  0
  3  4  1  0
  4  5  1  0
  5  6  2  0
  6  7  1  0
  7  8  2  0
  8  9  1  0
  9 10  2  0
  4 11  1  0
 11 12  2  0
 11 13  2  0
 11 14  1  0
 14 15  2  0
 15 16  1  0
 16 17  2  0
 17 18  1  0
 18 19  2  0
  2 20  1  0
 20 21  1  0
 21 22  1  0
 22 23  2  0
 23 24  1  0
 24 25  2  0
 25 26  1  0
 26 27  2  0
 10  5  1  0
 19 14  1  0
 27 22  1  0
  3 28  1  0
  3 29  1  0
  6 30  1  0
  7 31  1  0
  8 32  1  0
  9 33  1  0
 10 34  1  0
 15 35  1  0
 16 36  1  0
 17 37  1  0
 18 38  1  0
 19 39  1  0
 21 40  1  0
 21 41  1  0
 23 42  1  0
 24 43  1  0
 26 44  1  0
 27 45  1  0
M  CHG  1  20  -1
M  END
>  <UniqueID>  (62) 
58

>  <SMILES>  (62) 
O=C(CN(c1ccccc1)S(=O)(=O)c1ccccc1)[N-]Cc1ccncc1

>  <Energy>  (62) 
47.76696984466819

>  <Genealogy>  (62) 
O=C(CN(c1ccccc1)S(=O)(=O)c1ccccc1)[N-]Cc1ccncc1 (protonated)
O=C(CN(c1ccccc1)S(=O)(=O)c1ccccc1)[N-]Cc1ccncc1 (3D coordinates assigned)
O=C(CN(c1ccccc1)S(=O)(=O)c1ccccc1)[N-]Cc1ccncc1 (optimized conformer: 47.76696984466819 kcal/mol)

>  <smiles>  (62) 
O=C(CN(c1ccccc1)S(=O)(=O)c1ccccc1)NCc1ccncc1

>  <score_type>  (62) 
oracle

>  <origin>  (62) 
adg

>  <m_score__min__energy>  (62) 
-10.75

>  <m_primary>  (62) 
energy

$$$$
62:0
     RDKit          3D

 63 66  0  0  0  0  0  0  0  0999 V2000
   67.4640   30.7440   51.5180 C   0  0  0  0  0  0  0  0  0  0  0  0
   67.1650   31.9740   50.8640 O   0  0  0  0  0  0  0  0  0  0  0  0
   65.8880   32.5540   50.8100 C   0  0  0  0  0  0  0  0  0  0  0  0
   65.5620   33.7250   51.5170 C   0  0  0  0  0  0  0  0  0  0  0  0
   64.2790   34.2660   51.4250 C   0  0  0  0  0  0  0  0  0  0  0  0
   63.3120   33.6530   50.6250 C   0  0  0  0  0  0  0  0  0  0  0  0
   63.6150   32.4760   49.9190 C   0  0  0  0  0  0  0  0  0  0  0  0
   62.5990   31.8320   49.0440 C   0  0  0  0  0  0  0  0  0  0  0  0
   61.6510   30.9630   49.6160 C   0  0  0  0  0  0  0  0  0  0  0  0
   60.7030   30.3000   48.8200 C   0  0  0  0  0  0  0  0  0  0  0  0
   59.7450   29.3560   49.4350 C   0  0  0  0  0  0  0  0  0  0  0  0
   58.7150   29.7880   50.0220 O   0  0  0  0  0  0  0  0  0  0  0  0
   59.9780   27.9460   49.3500 N   0  0  0  0  0  0  0  0  0  0  0  0
   60.3130   27.2490   48.1110 C   0  0  0  0  0  0  0  0  0  0  0  0
   59.0880   27.1550   47.2380 C   0  0  0  0  0  0  0  0  0  0  0  0
   58.2880   26.0050   47.2430 C   0  0  0  0  0  0  0  0  0  0  0  0
   57.1900   25.9330   46.4460 N   0  0  0  0  0  0  0  0  0  0  0  0
   56.8280   26.9550   45.6250 C   0  0  0  0  0  0  0  0  0  0  0  0
   57.5890   28.1340   45.5840 C   0  0  0  0  0  0  0  0  0  0  0  0
   57.2550   29.2320   44.6520 C   0  0  0  0  0  0  0  0  0  0  0  0
   57.3460   29.0540   43.4060 O   0  0  0  0  0  0  0  0  0  0  0  0
   56.7960   30.4890   45.1720 N   0  0  0  0  0  0  0  0  0  0  0  0
   57.5660   31.6840   45.3690 C   0  0  0  0  0  0  0  0  0  0  0  0
   57.7790   32.2150   46.6540 C   0  0  0  0  0  0  0  0  0  0  0  0
   58.5240   33.3840   46.8220 C   0  0  0  0  0  0  0  0  0  0  0  0
   59.0710   34.0410   45.7130 C   0  0  0  0  0  0  0  0  0  0  0  0
   59.8420   35.3160   45.8920 C   0  0  0  0  0  0  0  0  0  0  0  0
   58.8170   33.5460   44.4260 C   0  0  0  0  0  0  0  0  0  0  0  0
   58.0610   32.3780   44.2460 C   0  0  0  0  0  0  0  0  0  0  0  0
   57.7910   31.9120   42.9180 N   0  0  0  0  0  0  0  0  0  0  0  0
   58.7050   28.2350   46.4280 C   0  0  0  0  0  0  0  0  0  0  0  0
   60.7090   30.5100   47.4350 C   0  0  0  0  0  0  0  0  0  0  0  0
   61.6270   31.3870   46.8560 C   0  0  0  0  0  0  0  0  0  0  0  0
   62.5730   32.0640   47.6510 C   0  0  0  0  0  0  0  0  0  0  0  0
   63.4800   32.9800   47.0910 O   0  0  0  0  0  0  0  0  0  0  0  0
   63.1100   34.1400   46.3530 C   0  0  0  0  0  0  0  0  0  0  0  0
   64.9110   31.9370   50.0190 C   0  0  0  0  0  0  0  0  0  0  0  0
   67.4285   30.8900   52.6077 H   0  0  0  0  0  0  0  0  0  0  0  0
   66.7244   29.9840   51.2256 H   0  0  0  0  0  0  0  0  0  0  0  0
   68.4699   30.4083   51.2256 H   0  0  0  0  0  0  0  0  0  0  0  0
   66.3205   34.2160   52.1444 H   0  0  0  0  0  0  0  0  0  0  0  0
   64.0281   35.1790   51.9849 H   0  0  0  0  0  0  0  0  0  0  0  0
   62.3073   34.0940   50.5470 H   0  0  0  0  0  0  0  0  0  0  0  0
   61.6527   30.8006   50.7039 H   0  0  0  0  0  0  0  0  0  0  0  0
   61.0998   27.8044   47.5795 H   0  0  0  0  0  0  0  0  0  0  0  0
   60.6728   26.2366   48.3466 H   0  0  0  0  0  0  0  0  0  0  0  0
   58.5495   25.1578   47.8941 H   0  0  0  0  0  0  0  0  0  0  0  0
   55.9349   26.8574   44.9902 H   0  0  0  0  0  0  0  0  0  0  0  0
   57.3558   31.7059   47.5325 H   0  0  0  0  0  0  0  0  0  0  0  0
   58.6821   33.7912   47.8315 H   0  0  0  0  0  0  0  0  0  0  0  0
   59.9664   35.5217   46.9654 H   0  0  0  0  0  0  0  0  0  0  0  0
   60.8309   35.2157   45.4209 H   0  0  0  0  0  0  0  0  0  0  0  0
   59.2938   36.1452   45.4209 H   0  0  0  0  0  0  0  0  0  0  0  0
   59.2142   34.0785   43.5492 H   0  0  0  0  0  0  0  0  0  0  0  0
   57.3280   32.5340   42.2190 H   0  0  0  0  0  0  0  0  0  0  0  0
   58.0230   30.9380   42.6200 H   0  0  0  0  0  0  0  0  0  0  0  0
   59.2851   29.1692   46.4551 H   0  0  0  0  0  0  0  0  0  0  0  0
   59.9847   29.9797   46.7992 H   0  0  0  0  0  0  0  0  0  0  0  0
   61.6120   31.5514   45.7685 H   0  0  0  0  0  0  0  0  0  0  0  0
   62.8514   34.9509   47.0498 H   0  0  0  0  0  0  0  0  0  0  0  0
   63.9521   34.4556   45.7195 H   0  0  0  0  0  0  0  0  0  0  0  0
   62.2407   33.9097   45.7195 H   0  0  0  0  0  0  0  0  0  0  0  0
   65.1601   31.0181   49.4681 H   0  0  0  0  0  0  0  0  0  0  0  0
  1  2  1  0
  2  3  1  0
  3  4  2  0
  4  5  1  0
  5  6  2  0
  6  7  1  0
  7  8  1  0
  8  9  2  0
  9 10  1  0
 10 11  1  0
 11 12  2  0
 11 13  1  0
 13 14  1  0
 14 15  1  0
 15 16  2  0
 16 17  1  0
 17 18  2  0
 18 19  1  0
 19 20  1  0
 20 21  2  0
 20 22  1  0
 22 23  1  0
 23 24  2  0
 24 25  1  0
 25 26  2  0
 26 27  1  0
 26 28  1  0
 28 29  2  0
 29 30  1  0
 19 31  2  0
 10 32  2  0
 32 33  1  0
 33 34  2  0
 34 35  1  0
 35 36  1  0
  7 37  2  0
 37  3  1  0
 34  8  1  0
 31 15  1  0
 29 23  1  0
  1 38  1  0
  1 39  1  0
  1 40  1  0
  4 41  1  0
  5 42  1  0
  6 43  1  0
  9 44  1  0
 14 45  1  0
 14 46  1  0
 16 47  1  0
 18 48  1  0
 24 49  1  0
 25 50  1  0
 27 51  1  0
 27 52  1  0
 27 53  1  0
 28 54  1  0
 30 55  1  0
 30 56  1  0
 31 57  1  0
 32 58  1  0
 33 59  1  0
 36 60  1  0
 36 61  1  0
 36 62  1  0
 37 63  1  0
M  CHG  2  13  -1  22  -1
M  END
>  <UniqueID>  (63) 
59

>  <SMILES>  (63) 
COc1cccc(-c2cc(C(=O)[N-]Cc3cncc(C(=O)[N-]c4ccc(C)cc4N)c3)ccc2OC)c1

>  <Energy>  (63) 
73.47067825299095

>  <Genealogy>  (63) 
COc1cccc(-c2cc(C(=O)[N-]Cc3cncc(C(=O)[N-]c4ccc(C)cc4N)c3)ccc2OC)c1 (protonated)
COc1cccc(-c2cc(C(=O)[N-]Cc3cncc(C(=O)[N-]c4ccc(C)cc4N)c3)ccc2OC)c1 (3D coordinates assigned)
COc1cccc(-c2cc(C(=O)[N-]Cc3cncc(C(=O)[N-]c4ccc(C)cc4N)c3)ccc2OC)c1 (optimized conformer: 73.47067825299095 kcal/mol)

>  <smiles>  (63) 
COc1cccc(-c2cc(C(=O)NCc3cncc(C(=O)Nc4ccc(C)cc4N)c3)ccc2OC)c1

>  <score_type>  (63) 
oracle

>  <origin>  (63) 
adg

>  <m_score__min__energy>  (63) 
-11.82

>  <m_primary>  (63) 
energy

$$$$
63:0
     RDKit          3D

 53 56  0  0  0  0  0  0  0  0999 V2000
   60.2550   27.0510   46.0140 N   0  0  0  0  0  0  0  0  0  0  0  0
   60.3940   27.6270   47.0080 C   0  0  0  0  0  0  0  0  0  0  0  0
   60.5630   28.3460   48.2460 C   0  0  0  0  0  0  0  0  0  0  0  0
   60.5420   27.6330   49.4540 C   0  0  0  0  0  0  0  0  0  0  0  0
   60.6740   28.3070   50.6720 C   0  0  0  0  0  0  0  0  0  0  0  0
   60.8140   29.6950   50.6910 C   0  0  0  0  0  0  0  0  0  0  0  0
   60.8320   30.4130   49.4930 C   0  0  0  0  0  0  0  0  0  0  0  0
   60.7300   29.7470   48.2650 C   0  0  0  0  0  0  0  0  0  0  0  0
   60.7880   30.7130   46.7450 S   0  0  0  0  0  0  0  0  0  0  0  0
   61.7120   32.0650   47.4990 C   0  0  0  0  0  0  0  0  0  0  0  0
   63.1130   31.9940   47.5030 C   0  0  0  0  0  0  0  0  0  0  0  0
   63.8720   32.9940   48.1150 C   0  0  0  0  0  0  0  0  0  0  0  0
   63.2390   34.0780   48.7220 C   0  0  0  0  0  0  0  0  0  0  0  0
   61.8460   34.1700   48.7120 C   0  0  0  0  0  0  0  0  0  0  0  0
   61.0690   33.1720   48.1000 C   0  0  0  0  0  0  0  0  0  0  0  0
   59.5980   33.3290   48.0840 C   0  0  0  0  0  0  0  0  0  0  0  0
   58.9380   33.0690   49.1260 O   0  0  0  0  0  0  0  0  0  0  0  0
   58.9060   33.7120   46.8810 N   0  0  0  0  0  0  0  0  0  0  0  0
   59.4550   34.7260   45.9760 C   0  0  0  0  0  0  0  0  0  0  0  0
   59.3530   34.2200   44.5360 C   0  0  0  0  0  0  0  0  0  0  0  0
   57.9920   33.7470   44.1840 N   0  0  0  0  0  0  0  0  0  0  0  0
   57.9590   32.6170   43.2290 C   0  0  0  0  0  0  0  0  0  0  0  0
   57.6110   31.2880   43.8670 C   0  0  0  0  0  0  0  0  0  0  0  0
   58.6020   30.5100   44.4950 C   0  0  0  0  0  0  0  0  0  0  0  0
   58.2670   29.2960   45.1020 C   0  0  0  0  0  0  0  0  0  0  0  0
   56.9490   28.8360   45.0710 C   0  0  0  0  0  0  0  0  0  0  0  0
   55.9640   29.5830   44.4190 C   0  0  0  0  0  0  0  0  0  0  0  0
   56.2930   30.7990   43.8130 C   0  0  0  0  0  0  0  0  0  0  0  0
   57.0010   33.6820   45.2840 C   0  0  0  0  0  0  0  0  0  0  0  0
   57.5940   33.1270   46.5920 C   0  0  0  0  0  0  0  0  0  0  0  0
   60.4212   26.5397   49.4430 H   0  0  0  0  0  0  0  0  0  0  0  0
   60.6675   27.7424   51.6160 H   0  0  0  0  0  0  0  0  0  0  0  0
   60.9103   30.2244   51.6504 H   0  0  0  0  0  0  0  0  0  0  0  0
   60.9269   31.5087   49.5141 H   0  0  0  0  0  0  0  0  0  0  0  0
   63.6177   31.1441   47.0204 H   0  0  0  0  0  0  0  0  0  0  0  0
   64.9699   32.9264   48.1182 H   0  0  0  0  0  0  0  0  0  0  0  0
   63.8379   34.8615   49.2093 H   0  0  0  0  0  0  0  0  0  0  0  0
   61.3527   35.0308   49.1871 H   0  0  0  0  0  0  0  0  0  0  0  0
   58.8835   35.6602   46.0795 H   0  0  0  0  0  0  0  0  0  0  0  0
   60.5087   34.9161   46.2281 H   0  0  0  0  0  0  0  0  0  0  0  0
   59.6260   35.0403   43.8559 H   0  0  0  0  0  0  0  0  0  0  0  0
   60.0352   33.3625   44.4390 H   0  0  0  0  0  0  0  0  0  0  0  0
   57.2082   32.8379   42.4560 H   0  0  0  0  0  0  0  0  0  0  0  0
   58.9731   32.5179   42.8145 H   0  0  0  0  0  0  0  0  0  0  0  0
   59.6451   30.8590   44.5082 H   0  0  0  0  0  0  0  0  0  0  0  0
   59.0438   28.7016   45.6053 H   0  0  0  0  0  0  0  0  0  0  0  0
   56.6861   27.8861   45.5595 H   0  0  0  0  0  0  0  0  0  0  0  0
   54.9285   29.2136   44.3826 H   0  0  0  0  0  0  0  0  0  0  0  0
   55.5165   31.3771   43.2907 H   0  0  0  0  0  0  0  0  0  0  0  0
   56.6201   34.6964   45.4738 H   0  0  0  0  0  0  0  0  0  0  0  0
   56.2006   32.9971   44.9674 H   0  0  0  0  0  0  0  0  0  0  0  0
   56.9093   33.3592   47.4210 H   0  0  0  0  0  0  0  0  0  0  0  0
   57.7197   32.0401   46.4785 H   0  0  0  0  0  0  0  0  0  0  0  0
  1  2  3  0
  2  3  1  0
  3  4  2  0
  4  5  1  0
  5  6  2  0
  6  7  1  0
  7  8  2  0
  8  9  1  0
  9 10  1  0
 10 11  2  0
 11 12  1  0
 12 13  2  0
 13 14  1  0
 14 15  2  0
 15 16  1  0
 16 17  2  0
 16 18  1  0
 18 19  1  0
 19 20  1  0
 20 21  1  0
 21 22  1  0
 22 23  1  0
 23 24  2  0
 24 25  1  0
 25 26  2  0
 26 27  1  0
 27 28  2  0
 21 29  1  0
 29 30  1  0
  8  3  1  0
 15 10  1  0
 30 18  1  0
 28 23  1  0
  4 31  1  0
  5 32  1  0
  6 33  1  0
  7 34  1  0
 11 35  1  0
 12 36  1  0
 13 37  1  0
 14 38  1  0
 19 39  1  0
 19 40  1  0
 20 41  1  0
 20 42  1  0
 22 43  1  0
 22 44  1  0
 24 45  1  0
 25 46  1  0
 26 47  1  0
 27 48  1  0
 28 49  1  0
 29 50  1  0
 29 51  1  0
 30 52  1  0
 30 53  1  0
M  END
>  <UniqueID>  (64) 
60

>  <SMILES>  (64) 
N#Cc1ccccc1Sc1ccccc1C(=O)N1CCN(Cc2ccccc2)CC1

>  <Energy>  (64) 
67.46845298769135

>  <Genealogy>  (64) 
N#Cc1ccccc1Sc1ccccc1C(=O)N1CCN(Cc2ccccc2)CC1 (3D coordinates assigned)
N#Cc1ccccc1Sc1ccccc1C(=O)N1CCN(Cc2ccccc2)CC1 (nonaromatic ring conformer: 67.46845298769135 kcal/mol)

>  <smiles>  (64) 
N#Cc1ccccc1Sc1ccccc1C(=O)N1CCN(Cc2ccccc2)CC1

>  <score_type>  (64) 
oracle

>  <origin>  (64) 
adg

>  <m_score__min__energy>  (64) 
-9.0299999999999994

>  <m_primary>  (64) 
energy

$$$$
64:0
     RDKit          3D

 32 34  0  0  0  0  0  0  0  0999 V2000
   58.7164   31.9057   51.5618 H   0  0  0  0  0  0  0  0  0  0  0  0
   58.9530   32.5590   50.7090 C   0  0  0  0  0  0  0  0  0  0  0  0
   59.6770   33.6930   50.7770 N   0  0  0  0  0  0  0  0  0  0  0  0
   59.7010   34.1510   49.5070 C   0  0  0  0  0  0  0  0  0  0  0  0
   60.2133   35.0752   49.2012 H   0  0  0  0  0  0  0  0  0  0  0  0
   59.0270   33.3500   48.6530 N   0  0  0  0  0  0  0  0  0  0  0  0
   58.8520   33.5330   47.2340 C   0  0  0  0  0  0  0  0  0  0  0  0
   59.2700   34.7230   46.6110 C   0  0  0  0  0  0  0  0  0  0  0  0
   59.7356   35.5192   47.2105 H   0  0  0  0  0  0  0  0  0  0  0  0
   59.0980   34.9000   45.2380 C   0  0  0  0  0  0  0  0  0  0  0  0
   59.4275   35.8352   44.7617 H   0  0  0  0  0  0  0  0  0  0  0  0
   58.5100   33.8970   44.4650 C   0  0  0  0  0  0  0  0  0  0  0  0
   58.3792   34.0462   43.3830 H   0  0  0  0  0  0  0  0  0  0  0  0
   58.0840   32.6970   45.0620 C   0  0  0  0  0  0  0  0  0  0  0  0
   57.4630   31.6300   44.2400 C   0  0  0  0  0  0  0  0  0  0  0  0
   57.3920   31.7690   42.9890 O   0  0  0  0  0  0  0  0  0  0  0  0
   56.9480   30.4470   44.8780 N   0  0  0  0  0  0  0  0  0  0  0  0
   57.2550   29.2070   44.6240 C   0  0  0  0  0  0  0  0  0  0  0  0
   57.0820   27.8880   45.6660 S   0  0  0  0  0  0  0  0  0  0  0  0
   57.7020   26.7970   44.5420 C   0  0  0  0  0  0  0  0  0  0  0  0
   57.7960   25.3210   44.7340 C   0  0  0  0  0  0  0  0  0  0  0  0
   57.8106   25.0914   45.8097 H   0  0  0  0  0  0  0  0  0  0  0  0
   56.9270   24.8344   44.2670 H   0  0  0  0  0  0  0  0  0  0  0  0
   58.7197   24.9486   44.2670 H   0  0  0  0  0  0  0  0  0  0  0  0
   58.0070   27.4870   43.3730 C   0  0  0  0  0  0  0  0  0  0  0  0
   58.4107   26.9931   42.4768 H   0  0  0  0  0  0  0  0  0  0  0  0
   57.7640   28.8230   43.4320 N   0  0  0  0  0  0  0  0  0  0  0  0
   57.9440   29.4750   42.6370 H   0  0  0  0  0  0  0  0  0  0  0  0
   58.2610   32.5250   46.4480 C   0  0  0  0  0  0  0  0  0  0  0  0
   57.9328   31.5893   46.9241 H   0  0  0  0  0  0  0  0  0  0  0  0
   58.5550   32.3430   49.4110 C   0  0  0  0  0  0  0  0  0  0  0  0
   57.9544   31.4936   49.0536 H   0  0  0  0  0  0  0  0  0  0  0  0
  1  2  1  0
  2  3  1  0
  3  4  2  0
  4  5  1  0
  4  6  1  0
  6  7  1  0
  7  8  2  0
  8  9  1  0
  8 10  1  0
 10 11  1  0
 10 12  2  0
 12 13  1  0
 12 14  1  0
 14 15  1  0
 15 16  2  0
 15 17  1  0
 17 18  2  0
 18 19  1  0
 19 20  1  0
 20 21  1  0
 21 22  1  0
 21 23  1  0
 21 24  1  0
 20 25  2  0
 25 26  1  0
 25 27  1  0
 27 28  1  0
 14 29  2  0
 29 30  1  0
  6 31  1  0
 31 32  1  0
 31  2  2  0
 29  7  1  0
 27 18  1  0
M  END
>  <UniqueID>  (65) 
61

>  <SMILES>  (65) 
Cc1c[nH]/c(=N/C(=O)c2cccc(-n3ccnc3)c2)s1

>  <Energy>  (65) 
99.98835498445452

>  <Genealogy>  (65) 
Cc1c[nH]/c(=N/C(=O)c2cccc(-n3ccnc3)c2)s1 (cis-trans isomerization)
Cc1c[nH]/c(=N/C(=O)c2cccc(-n3ccnc3)c2)s1 (3D coordinates assigned)
Cc1c[nH]/c(=N/C(=O)c2cccc(-n3ccnc3)c2)s1 (optimized conformer: 99.98835498445452 kcal/mol)

>  <smiles>  (65) 
Cc1c[nH]c(=NC(=O)c2cccc(-n3ccnc3)c2)s1

>  <score_type>  (65) 
oracle

>  <origin>  (65) 
adg

>  <m_score__min__energy>  (65) 
-7.3799999999999999

>  <m_primary>  (65) 
energy

$$$$
65:0
     RDKit          3D

 58 61  0  0  0  0  0  0  0  0999 V2000
   56.6620   22.7650   43.2430 C   0  0  0  0  0  0  0  0  0  0  0  0
   55.9390   21.7060   43.8660 O   0  0  0  0  0  0  0  0  0  0  0  0
   56.3600   21.0280   45.0200 C   0  0  0  0  0  0  0  0  0  0  0  0
   57.7210   20.7820   45.2880 C   0  0  0  0  0  0  0  0  0  0  0  0
   58.0980   20.0690   46.4290 C   0  0  0  0  0  0  0  0  0  0  0  0
   57.1260   19.5920   47.3110 C   0  0  0  0  0  0  0  0  0  0  0  0
   55.7750   19.8350   47.0570 C   0  0  0  0  0  0  0  0  0  0  0  0
   55.3880   20.5660   45.9280 C   0  0  0  0  0  0  0  0  0  0  0  0
   53.9990   20.8040   45.6980 N   0  0  0  0  0  0  0  0  0  0  0  0
   53.2220   22.2620   46.2150 S   0  0  0  0  0  0  0  0  0  0  0  0
   52.6540   22.0520   47.5910 O   0  0  0  0  0  0  0  0  0  0  0  0
   52.0960   22.6200   45.2850 O   0  0  0  0  0  0  0  0  0  0  0  0
   54.4050   23.5640   46.2290 C   0  0  0  0  0  0  0  0  0  0  0  0
   54.1410   24.7790   45.5840 C   0  0  0  0  0  0  0  0  0  0  0  0
   55.0830   25.8120   45.6200 C   0  0  0  0  0  0  0  0  0  0  0  0
   56.2910   25.6510   46.3160 C   0  0  0  0  0  0  0  0  0  0  0  0
   57.2460   26.7250   46.3230 N   0  0  0  0  0  0  0  0  0  0  0  0
   58.3850   26.7890   47.1940 C   0  0  0  0  0  0  0  0  0  0  0  0
   58.5020   25.9830   48.1540 O   0  0  0  0  0  0  0  0  0  0  0  0
   59.3380   27.8440   47.0160 N   0  0  0  0  0  0  0  0  0  0  0  0
   59.0420   29.2170   46.7200 C   0  0  0  0  0  0  0  0  0  0  0  0
   58.8500   29.5900   45.3830 C   0  0  0  0  0  0  0  0  0  0  0  0
   58.5760   30.9190   45.0510 C   0  0  0  0  0  0  0  0  0  0  0  0
   58.5150   31.8980   46.0510 C   0  0  0  0  0  0  0  0  0  0  0  0
   58.1500   33.5670   45.6230 S   0  0  0  0  0  0  0  0  0  0  0  0
   58.4020   33.8080   44.1620 O   0  0  0  0  0  0  0  0  0  0  0  0
   56.7010   33.8420   45.9080 O   0  0  0  0  0  0  0  0  0  0  0  0
   59.1310   34.6400   46.5670 N   0  0  0  0  0  0  0  0  0  0  0  0
   60.2600   34.2860   47.0950 C   0  0  0  0  0  0  0  0  0  0  0  0
   61.3560   33.8560   46.3830 C   0  0  0  0  0  0  0  0  0  0  0  0
   62.2840   33.6090   47.3740 C   0  0  0  0  0  0  0  0  0  0  0  0
   63.6710   33.1020   47.1740 C   0  0  0  0  0  0  0  0  0  0  0  0
   61.7470   33.8740   48.5440 O   0  0  0  0  0  0  0  0  0  0  0  0
   60.5210   34.2890   48.4160 N   0  0  0  0  0  0  0  0  0  0  0  0
   58.7270   31.5340   47.3880 C   0  0  0  0  0  0  0  0  0  0  0  0
   58.9970   30.2030   47.7220 C   0  0  0  0  0  0  0  0  0  0  0  0
   56.5590   24.4220   46.9450 C   0  0  0  0  0  0  0  0  0  0  0  0
   55.6170   23.3890   46.9060 C   0  0  0  0  0  0  0  0  0  0  0  0
   57.1035   23.4117   44.0156 H   0  0  0  0  0  0  0  0  0  0  0  0
   57.4619   22.3438   42.6164 H   0  0  0  0  0  0  0  0  0  0  0  0
   55.9784   23.3566   42.6164 H   0  0  0  0  0  0  0  0  0  0  0  0
   58.4908   21.1531   44.5955 H   0  0  0  0  0  0  0  0  0  0  0  0
   59.1628   19.8830   46.6330 H   0  0  0  0  0  0  0  0  0  0  0  0
   57.4247   19.0252   48.2052 H   0  0  0  0  0  0  0  0  0  0  0  0
   55.0106   19.4499   47.7479 H   0  0  0  0  0  0  0  0  0  0  0  0
   53.1909   24.9209   45.0481 H   0  0  0  0  0  0  0  0  0  0  0  0
   54.8755   26.7581   45.0987 H   0  0  0  0  0  0  0  0  0  0  0  0
   57.0590   27.5560   45.7180 H   0  0  0  0  0  0  0  0  0  0  0  0
   58.9155   28.8311   44.5894 H   0  0  0  0  0  0  0  0  0  0  0  0
   58.4075   31.1977   44.0003 H   0  0  0  0  0  0  0  0  0  0  0  0
   61.4653   33.7384   45.2948 H   0  0  0  0  0  0  0  0  0  0  0  0
   64.1430   32.9295   48.1525 H   0  0  0  0  0  0  0  0  0  0  0  0
   63.6386   32.1576   46.6109 H   0  0  0  0  0  0  0  0  0  0  0  0
   64.2553   33.8447   46.6109 H   0  0  0  0  0  0  0  0  0  0  0  0
   58.6808   32.2984   48.1777 H   0  0  0  0  0  0  0  0  0  0  0  0
   59.1747   29.9264   48.7717 H   0  0  0  0  0  0  0  0  0  0  0  0
   57.5140   24.2725   47.4701 H   0  0  0  0  0  0  0  0  0  0  0  0
   55.8299   22.4346   47.4098 H   0  0  0  0  0  0  0  0  0  0  0  0
  1  2  1  0
  2  3  1  0
  3  4  2  0
  4  5  1  0
  5  6  2  0
  6  7  1  0
  7  8  2  0
  8  9  1  0
  9 10  1  0
 10 11  2  0
 10 12  2  0
 10 13  1  0
 13 14  2  0
 14 15  1  0
 15 16  2  0
 16 17  1  0
 17 18  1  0
 18 19  2  0
 18 20  1  0
 20 21  1  0
 21 22  2  0
 22 23  1  0
 23 24  2  0
 24 25  1  0
 25 26  2  0
 25 27  2  0
 25 28  1  0
 28 29  2  3
 29 30  1  0
 30 31  2  0
 31 32  1  0
 31 33  1  0
 33 34  1  0
 24 35  1  0
 35 36  2  0
 16 37  1  0
 37 38  2  0
  8  3  1  0
 38 13  1  0
 36 21  1  0
 34 29  1  0
  1 39  1  0
  1 40  1  0
  1 41  1  0
  4 42  1  0
  5 43  1  0
  6 44  1  0
  7 45  1  0
 14 46  1  0
 15 47  1  0
 17 48  1  0
 22 49  1  0
 23 50  1  0
 30 51  1  0
 32 52  1  0
 32 53  1  0
 32 54  1  0
 35 55  1  0
 36 56  1  0
 37 57  1  0
 38 58  1  0
M  CHG  3   9  -1  20  -1  34  -1
M  END
>  <UniqueID>  (66) 
62

>  <SMILES>  (66) 
COc1ccccc1[N-]S(=O)(=O)c1ccc(NC(=O)[N-]c2ccc(S(=O)(=O)N=c3cc(C)o[n-]3)cc2)cc1

>  <Energy>  (66) 
110.64124909234638

>  <Genealogy>  (66) 
COc1ccccc1[N-]S(=O)(=O)c1ccc(NC(=O)[N-]c2ccc(S(=O)(=O)N=c3cc(C)o[n-]3)cc2)cc1 (protonated)
COc1ccccc1[N-]S(=O)(=O)c1ccc(NC(=O)[N-]c2ccc(S(=O)(=O)N=c3cc(C)o[n-]3)cc2)cc1 (3D coordinates assigned)
COc1ccccc1[N-]S(=O)(=O)c1ccc(NC(=O)[N-]c2ccc(S(=O)(=O)N=c3cc(C)o[n-]3)cc2)cc1 (optimized conformer: 110.64124909234638 kcal/mol)

>  <smiles>  (66) 
COc1ccccc1NS(=O)(=O)c1ccc(NC(=O)Nc2ccc(S(=O)(=O)N=c3cc(C)o[nH]3)cc2)cc1

>  <score_type>  (66) 
oracle

>  <origin>  (66) 
adg

>  <m_score__min__energy>  (66) 
-12.710000000000001

>  <m_primary>  (66) 
energy

$$$$
66:0
     RDKit          3D

 42 44  0  0  0  0  0  0  0  0999 V2000
   61.5070   31.0020   47.2640 C   0  0  0  0  0  0  0  0  0  0  0  0
   60.6370   30.0750   46.5560 N   0  0  0  0  0  0  0  0  0  0  0  0
   59.3820   29.7440   46.9140 C   0  0  0  0  0  0  0  0  0  0  0  0
   58.9300   28.7900   46.0280 C   0  0  0  0  0  0  0  0  0  0  0  0
   57.5770   28.1370   46.0050 C   0  0  0  0  0  0  0  0  0  0  0  0
   56.9540   28.1980   44.6720 N   0  0  0  0  0  0  0  0  0  0  0  0
   56.0530   29.3480   44.5140 C   0  0  0  0  0  0  0  0  0  0  0  0
   56.8060   30.5540   44.0150 C   0  0  0  0  0  0  0  0  0  0  0  0
   56.9190   30.8030   42.6410 C   0  0  0  0  0  0  0  0  0  0  0  0
   57.6030   31.9300   42.1860 C   0  0  0  0  0  0  0  0  0  0  0  0
   58.1780   32.8200   43.0970 C   0  0  0  0  0  0  0  0  0  0  0  0
   58.0740   32.5940   44.4840 C   0  0  0  0  0  0  0  0  0  0  0  0
   58.6660   33.5160   45.4290 N   0  0  0  0  0  0  0  0  0  0  0  0
   59.2630   34.7910   45.0560 C   0  0  0  0  0  0  0  0  0  0  0  0
   59.9070   35.3380   46.3230 C   0  0  0  0  0  0  0  0  0  0  0  0
   59.2730   34.5650   47.4740 C   0  0  0  0  0  0  0  0  0  0  0  0
   58.7380   33.2780   46.8630 C   0  0  0  0  0  0  0  0  0  0  0  0
   57.3810   31.4510   44.9300 C   0  0  0  0  0  0  0  0  0  0  0  0
   59.9770   28.5790   45.1500 C   0  0  0  0  0  0  0  0  0  0  0  0
   61.0120   29.3680   45.5000 N   0  0  0  0  0  0  0  0  0  0  0  0
   61.3809   30.8676   48.3485 H   0  0  0  0  0  0  0  0  0  0  0  0
   62.5538   30.8049   46.9894 H   0  0  0  0  0  0  0  0  0  0  0  0
   61.2440   32.0342   46.9894 H   0  0  0  0  0  0  0  0  0  0  0  0
   58.8183   30.1604   47.7619 H   0  0  0  0  0  0  0  0  0  0  0  0
   57.6874   27.0822   46.2968 H   0  0  0  0  0  0  0  0  0  0  0  0
   56.9273   28.6799   46.7072 H   0  0  0  0  0  0  0  0  0  0  0  0
   56.4050   27.3200   44.5130 H   0  0  0  0  0  0  0  0  0  0  0  0
   55.2641   29.0913   43.7917 H   0  0  0  0  0  0  0  0  0  0  0  0
   55.6129   29.5878   45.4932 H   0  0  0  0  0  0  0  0  0  0  0  0
   56.4668   30.1074   41.9187 H   0  0  0  0  0  0  0  0  0  0  0  0
   57.6902   32.1190   41.1059 H   0  0  0  0  0  0  0  0  0  0  0  0
   58.7168   33.7052   42.7280 H   0  0  0  0  0  0  0  0  0  0  0  0
   60.0224   34.6435   44.2740 H   0  0  0  0  0  0  0  0  0  0  0  0
   58.5115   35.4859   44.6530 H   0  0  0  0  0  0  0  0  0  0  0  0
   60.9943   35.1728   46.3028 H   0  0  0  0  0  0  0  0  0  0  0  0
   59.7474   36.4216   46.4247 H   0  0  0  0  0  0  0  0  0  0  0  0
   60.0250   34.3397   48.2445 H   0  0  0  0  0  0  0  0  0  0  0  0
   58.4749   35.1449   47.9606 H   0  0  0  0  0  0  0  0  0  0  0  0
   59.4184   32.4408   47.0781 H   0  0  0  0  0  0  0  0  0  0  0  0
   57.7544   33.0128   47.2779 H   0  0  0  0  0  0  0  0  0  0  0  0
   57.2892   31.2587   46.0092 H   0  0  0  0  0  0  0  0  0  0  0  0
   59.9668   27.8791   44.3015 H   0  0  0  0  0  0  0  0  0  0  0  0
  1  2  1  0
  2  3  1  0
  3  4  2  0
  4  5  1  0
  5  6  1  0
  6  7  1  0
  7  8  1  0
  8  9  2  0
  9 10  1  0
 10 11  2  0
 11 12  1  0
 12 13  1  0
 13 14  1  0
 14 15  1  0
 15 16  1  0
 16 17  1  0
 12 18  2  0
  4 19  1  0
 19 20  2  0
 20  2  1  0
 18  8  1  0
 17 13  1  0
  1 21  1  0
  1 22  1  0
  1 23  1  0
  3 24  1  0
  5 25  1  0
  5 26  1  0
  6 27  1  0
  7 28  1  0
  7 29  1  0
  9 30  1  0
 10 31  1  0
 11 32  1  0
 14 33  1  0
 14 34  1  0
 15 35  1  0
 15 36  1  0
 16 37  1  0
 16 38  1  0
 17 39  1  0
 17 40  1  0
 18 41  1  0
 19 42  1  0
M  END
>  <UniqueID>  (67) 
63

>  <SMILES>  (67) 
Cn1cc(CNCc2cccc(N3CCCC3)c2)cn1

>  <Energy>  (67) 
71.71751807345898

>  <Genealogy>  (67) 
Cn1cc(CNCc2cccc(N3CCCC3)c2)cn1 (3D coordinates assigned)
Cn1cc(CNCc2cccc(N3CCCC3)c2)cn1 (nonaromatic ring conformer: 71.71751807345898 kcal/mol)

>  <smiles>  (67) 
Cn1cc(CNCc2cccc(N3CCCC3)c2)cn1

>  <score_type>  (67) 
oracle

>  <origin>  (67) 
adg

>  <m_score__min__energy>  (67) 
-6.9299999999999997

>  <m_primary>  (67) 
energy

$$$$
67:0
     RDKit          3D

 64 67  0  0  1  0  0  0  0  0999 V2000
   64.1950   32.7320   47.5900 N   0  0  0  0  0  0  0  0  0  0  0  0
   62.5830   33.3090   47.3960 S   0  0  0  0  0  0  0  0  0  0  0  0
   62.3330   33.8370   46.0320 O   0  0  0  0  0  0  0  0  0  0  0  0
   62.4240   34.4800   48.3550 O   0  0  0  0  0  0  0  0  0  0  0  0
   61.4660   32.0270   47.8210 C   0  0  0  0  0  0  0  0  0  0  0  0
   61.4250   30.9110   46.9850 C   0  0  0  0  0  0  0  0  0  0  0  0
   60.5470   29.8940   47.3100 C   0  0  0  0  0  0  0  0  0  0  0  0
   59.7300   29.9770   48.4340 C   0  0  0  0  0  0  0  0  0  0  0  0
   56.6730   29.2940   44.7240 N   0  0  0  0  0  0  0  0  0  0  0  0
   57.2280   28.5100   45.5700 C   0  0  0  0  0  0  0  0  0  0  0  0
   58.4570   26.9090   47.4720 C   0  0  0  0  0  0  0  0  0  0  0  0
   57.9000   26.3680   46.3290 C   0  0  0  0  0  0  0  0  0  0  0  0
   57.9400   25.0010   46.0980 O   0  0  0  0  0  0  0  0  0  0  0  0
   57.0720   24.3560   45.2350 C   0  0  0  0  0  0  0  0  0  0  0  0
   57.5900   23.4500   44.3560 C   0  0  0  0  0  0  0  0  0  0  0  0
   56.7820   22.7640   43.4600 C   0  0  0  0  0  0  0  0  0  0  0  0
   55.4180   23.0510   43.5080 C   0  0  0  0  0  0  0  0  0  0  0  0
   54.9090   23.9670   44.3980 C   0  0  0  0  0  0  0  0  0  0  0  0
   55.7360   24.6500   45.2960 C   0  0  0  0  0  0  0  0  0  0  0  0
   55.1830   25.5640   46.1760 O   0  0  0  0  0  0  0  0  0  0  0  0
   57.3150   27.1760   45.4320 N   0  0  0  0  0  0  0  0  0  0  0  0
   58.3760   28.2770   47.6280 C   0  0  0  0  0  0  0  0  0  0  0  0
   58.8680   28.8630   48.6640 N   0  0  0  0  0  0  0  0  0  0  0  0
   56.9340   30.7180   44.8150 C   0  0  0  0  0  0  0  0  0  0  0  0
   58.3480   31.0560   44.3880 C   0  0  0  0  0  0  0  0  0  0  0  0
   58.4440   32.5280   44.0430 C   0  0  0  0  0  0  0  0  0  0  0  0
   58.0340   33.3470   45.1470 N   0  0  0  0  0  0  0  0  0  0  0  0
   58.2860   34.7460   44.9460 C   0  0  0  0  0  0  0  0  0  0  0  0
   59.5840   35.2260   45.5570 C   0  0  0  0  0  0  0  0  0  0  0  0
   59.7010   34.8890   46.9450 N   0  0  0  0  0  0  0  0  0  0  0  0
   58.6270   34.0310   47.3760 C   0  0  0  0  0  0  0  0  0  0  0  0
   58.5060   32.8740   46.4330 C   0  0  0  0  0  0  0  0  0  0  0  0
   57.7740   29.0470   46.6940 N   0  0  0  0  0  0  0  0  0  0  0  0
   59.7650   31.0790   49.2690 C   0  0  0  0  0  0  0  0  0  0  0  0
   60.6530   32.1020   48.9340 C   0  0  0  0  0  0  0  0  0  0  0  0
   64.8570   33.4190   47.1690 H   0  0  0  0  0  0  0  0  0  0  0  0
   64.3180   31.7670   47.2110 H   0  0  0  0  0  0  0  0  0  0  0  0
   62.0700   30.8426   46.0966 H   0  0  0  0  0  0  0  0  0  0  0  0
   60.4929   29.0022   46.6683 H   0  0  0  0  0  0  0  0  0  0  0  0
   58.9450   26.2746   48.2266 H   0  0  0  0  0  0  0  0  0  0  0  0
   58.6733   23.2589   44.3575 H   0  0  0  0  0  0  0  0  0  0  0  0
   57.1954   22.0328   42.7498 H   0  0  0  0  0  0  0  0  0  0  0  0
   54.7346   22.5333   42.8188 H   0  0  0  0  0  0  0  0  0  0  0  0
   53.8274   24.1672   44.4041 H   0  0  0  0  0  0  0  0  0  0  0  0
   55.5070   25.6710   47.1340 H   0  0  0  0  0  0  0  0  0  0  0  0
   56.9100   26.7380   44.5900 H   0  0  0  0  0  0  0  0  0  0  0  0
   56.2272   31.2525   44.1633 H   0  0  0  0  0  0  0  0  0  0  0  0
   56.8100   31.0234   45.8644 H   0  0  0  0  0  0  0  0  0  0  0  0
   59.0418   30.8281   45.2106 H   0  0  0  0  0  0  0  0  0  0  0  0
   58.6119   30.4584   43.5030 H   0  0  0  0  0  0  0  0  0  0  0  0
   59.4858   32.7689   43.7849 H   0  0  0  0  0  0  0  0  0  0  0  0
   57.7770   32.7307   43.1921 H   0  0  0  0  0  0  0  0  0  0  0  0
   58.3191   34.9405   43.8638 H   0  0  0  0  0  0  0  0  0  0  0  0
   57.4740   35.2933   45.4472 H   0  0  0  0  0  0  0  0  0  0  0  0
   60.4209   34.7656   45.0115 H   0  0  0  0  0  0  0  0  0  0  0  0
   59.6015   36.3231   45.4793 H   0  0  0  0  0  0  0  0  0  0  0  0
   60.6260   34.4820   47.1610 H   0  0  0  0  0  0  0  0  0  0  0  0
   58.8390   33.6583   48.3890 H   0  0  0  0  0  0  0  0  0  0  0  0
   57.6845   34.5981   47.3848 H   0  0  0  0  0  0  0  0  0  0  0  0
   59.4894   32.3968   46.3099 H   0  0  0  0  0  0  0  0  0  0  0  0
   57.7921   32.1425   46.8395 H   0  0  0  0  0  0  0  0  0  0  0  0
   57.7200   30.0930   46.8270 H   0  0  0  0  0  0  0  0  0  0  0  0
   59.1210   31.1461   50.1583 H   0  0  0  0  0  0  0  0  0  0  0  0
   60.7067   32.9940   49.5754 H   0  0  0  0  0  0  0  0  0  0  0  0
  1  2  1  0
  2  3  2  0
  2  4  2  0
  2  5  1  0
  5  6  2  0
  6  7  1  0
  7  8  2  0
  8  9  1  0
  9 10  2  0
 10 11  1  0
 11 12  2  0
 12 13  1  0
 13 14  1  0
 14 15  2  0
 15 16  1  0
 16 17  2  0
 17 18  1  0
 18 19  2  0
 19 20  1  0
 12 21  1  0
 21 22  1  0
 22 23  2  0
 23 24  1  0
 24 25  1  0
 25 26  1  0
 26 27  1  0
 27 28  1  0
 28 29  1  0
 29 30  1  0
 30 31  1  0
 31 32  1  0
 22 33  1  0
  8 34  1  0
 34 35  2  0
 35  5  1  0
 33 10  1  0
 19 14  1  0
 32 27  1  0
  1 36  1  0
  1 37  1  0
  6 38  1  0
  7 39  1  0
 11 40  1  0
 15 41  1  0
 16 42  1  0
 17 43  1  0
 18 44  1  0
 20 45  1  0
 21 46  1  0
 24 47  1  0
 24 48  1  0
 25 49  1  0
 25 50  1  0
 26 51  1  0
 26 52  1  0
 28 53  1  0
 28 54  1  0
 29 55  1  0
 29 56  1  0
 30 57  1  0
 31 58  1  0
 31 59  1  0
 32 60  1  0
 32 61  1  0
 33 62  1  0
 34 63  1  0
 35 64  1  0
M  END
>  <smiles>  (68) 
NS(=O)(=O)c1ccc(N=c2cc(Oc3ccccc3O)[nH]c(=NCCCN3CCNCC3)[nH]2)cc1

>  <score_type>  (68) 
oracle

>  <origin>  (68) 
adg

>  <m_score__min__energy>  (68) 
-9.9499999999999993

>  <m_primary>  (68) 
energy

$$$$
68:0
     RDKit          3D

 33 34  0  0  1  0  0  0  0  0999 V2000
   57.5040   34.2490   45.4400 C   0  0  0  0  0  0  0  0  0  0  0  0
   58.8010   34.1960   46.1600 C   0  0  0  0  0  0  0  0  0  0  0  0
   59.8890   33.4190   45.8240 C   0  0  0  0  0  0  0  0  0  0  0  0
   60.9020   33.6460   46.7320 C   0  0  0  0  0  0  0  0  0  0  0  0
   62.0780   33.0800   46.7210 N   0  0  0  0  0  0  0  0  0  0  0  0
   62.3940   31.9770   47.5500 C   0  0  0  0  0  0  0  0  0  0  0  0
   63.7000   32.1970   48.5490 S   0  0  0  0  0  0  0  0  0  0  0  0
   61.7070   30.7490   47.5910 N   0  0  0  0  0  0  0  0  0  0  0  0
   60.5840   30.3780   46.8260 C   0  0  0  0  0  0  0  0  0  0  0  0
   59.3040   30.7240   47.2950 C   0  0  0  0  0  0  0  0  0  0  0  0
   58.1620   30.3950   46.6020 C   0  0  0  0  0  0  0  0  0  0  0  0
   58.2270   29.7080   45.4120 C   0  0  0  0  0  0  0  0  0  0  0  0
   56.7460   29.3260   44.5910 S   0  0  0  0  0  0  0  0  0  0  0  0
   57.0560   28.8530   42.9580 N   0  0  0  0  0  0  0  0  0  0  0  0
   55.9730   28.2230   45.2400 O   0  0  0  0  0  0  0  0  0  0  0  0
   55.9300   30.5930   44.5320 O   0  0  0  0  0  0  0  0  0  0  0  0
   59.4570   29.3570   44.9300 C   0  0  0  0  0  0  0  0  0  0  0  0
   60.6090   29.6960   45.6420 C   0  0  0  0  0  0  0  0  0  0  0  0
   60.4230   34.5460   47.5950 N   0  0  0  0  0  0  0  0  0  0  0  0
   59.1680   34.8820   47.2610 N   0  0  0  0  0  0  0  0  0  0  0  0
   56.6810   34.2826   46.1691 H   0  0  0  0  0  0  0  0  0  0  0  0
   57.4716   35.1492   44.8087 H   0  0  0  0  0  0  0  0  0  0  0  0
   57.3983   33.3544   44.8087 H   0  0  0  0  0  0  0  0  0  0  0  0
   59.9409   32.7288   44.9690 H   0  0  0  0  0  0  0  0  0  0  0  0
   62.0700   30.0310   48.2660 H   0  0  0  0  0  0  0  0  0  0  0  0
   59.2134   31.2737   48.2435 H   0  0  0  0  0  0  0  0  0  0  0  0
   57.1811   30.6860   47.0060 H   0  0  0  0  0  0  0  0  0  0  0  0
   58.0690   29.0280   42.7140 H   0  0  0  0  0  0  0  0  0  0  0  0
   56.9490   27.8040   42.8710 H   0  0  0  0  0  0  0  0  0  0  0  0
   59.5392   28.8072   43.9808 H   0  0  0  0  0  0  0  0  0  0  0  0
   61.5848   29.3996   45.2297 H   0  0  0  0  0  0  0  0  0  0  0  0
   60.9030   34.9530   48.4060 H   0  0  0  0  0  0  0  0  0  0  0  0
   58.5320   35.5580   47.7410 H   0  0  0  0  0  0  0  0  0  0  0  0
  1  2  1  0
  2  3  2  0
  3  4  1  0
  4  5  2  0
  5  6  1  0
  6  7  2  0
  6  8  1  0
  8  9  1  0
  9 10  2  0
 10 11  1  0
 11 12  2  0
 12 13  1  0
 13 14  1  0
 13 15  2  0
 13 16  2  0
 12 17  1  0
 17 18  2  0
  4 19  1  0
 19 20  1  0
 20  2  1  0
 18  9  1  0
  1 21  1  0
  1 22  1  0
  1 23  1  0
  3 24  1  0
  8 25  1  0
 10 26  1  0
 11 27  1  0
 14 28  1  0
 14 29  1  0
 17 30  1  0
 18 31  1  0
 19 32  1  0
 20 33  1  0
M  END
>  <smiles>  (69) 
Cc1cc(=NC(=S)Nc2ccc(S(N)(=O)=O)cc2)[nH][nH]1

>  <score_type>  (69) 
oracle

>  <origin>  (69) 
adg

>  <m_score__min__energy>  (69) 
-7.6299999999999999

>  <m_primary>  (69) 
energy

$$$$
69:0
     RDKit          3D

 56 60  0  0  0  0  0  0  0  0999 V2000
   60.5630   34.1880   49.6380 C   0  0  0  0  0  0  0  0  0  0  0  0
   61.2660   33.5220   50.8160 C   0  0  0  0  0  0  0  0  0  0  0  0
   62.7220   33.2610   50.5080 C   0  0  0  0  0  0  0  0  0  0  0  0
   63.6980   34.0370   51.1600 C   0  0  0  0  0  0  0  0  0  0  0  0
   65.0570   33.8180   50.9210 C   0  0  0  0  0  0  0  0  0  0  0  0
   65.4590   32.8180   50.0350 C   0  0  0  0  0  0  0  0  0  0  0  0
   64.5040   32.0310   49.3890 C   0  0  0  0  0  0  0  0  0  0  0  0
   63.1370   32.2390   49.6180 C   0  0  0  0  0  0  0  0  0  0  0  0
   62.1960   31.4100   48.9250 N   0  0  0  0  0  0  0  0  0  0  0  0
   61.3720   30.4150   49.5080 C   0  0  0  0  0  0  0  0  0  0  0  0
   61.6160   29.8340   50.5990 O   0  0  0  0  0  0  0  0  0  0  0  0
   60.2160   30.1900   48.6510 C   0  0  0  0  0  0  0  0  0  0  0  0
   59.1380   29.1800   48.8790 C   0  0  0  0  0  0  0  0  0  0  0  0
   59.1630   28.1490   47.7930 C   0  0  0  0  0  0  0  0  0  0  0  0
   59.7770   26.9030   47.8260 C   0  0  0  0  0  0  0  0  0  0  0  0
   60.4320   26.3730   48.9290 O   0  0  0  0  0  0  0  0  0  0  0  0
   59.6790   26.2510   46.6440 N   0  0  0  0  0  0  0  0  0  0  0  0
   58.9990   27.1050   45.8550 C   0  0  0  0  0  0  0  0  0  0  0  0
   58.6560   26.9070   44.5190 C   0  0  0  0  0  0  0  0  0  0  0  0
   57.9640   27.9340   43.8540 C   0  0  0  0  0  0  0  0  0  0  0  0
   57.6360   29.1350   44.5300 C   0  0  0  0  0  0  0  0  0  0  0  0
   56.8050   30.4410   43.6930 S   0  0  0  0  0  0  0  0  0  0  0  0
   55.5980   30.8330   44.4980 O   0  0  0  0  0  0  0  0  0  0  0  0
   56.3550   30.0080   42.3250 O   0  0  0  0  0  0  0  0  0  0  0  0
   57.8650   31.8080   43.5470 N   0  0  0  0  0  0  0  0  0  0  0  0
   58.1670   32.7000   44.6330 C   0  0  0  0  0  0  0  0  0  0  0  0
   58.9620   33.8310   44.3890 C   0  0  0  0  0  0  0  0  0  0  0  0
   59.2610   34.7240   45.4240 C   0  0  0  0  0  0  0  0  0  0  0  0
   58.7710   34.4940   46.7110 C   0  0  0  0  0  0  0  0  0  0  0  0
   57.9920   33.3650   46.9690 C   0  0  0  0  0  0  0  0  0  0  0  0
   57.6940   32.4670   45.9390 C   0  0  0  0  0  0  0  0  0  0  0  0
   57.9990   29.3060   45.8790 C   0  0  0  0  0  0  0  0  0  0  0  0
   58.6760   28.2650   46.5120 C   0  0  0  0  0  0  0  0  0  0  0  0
   60.2640   30.9610   47.6090 N   0  0  0  0  0  0  0  0  0  0  0  0
   61.4580   31.7380   47.7490 C   0  0  0  0  0  0  0  0  0  0  0  0
   61.8470   32.9620   46.7380 S   0  0  0  0  0  0  0  0  0  0  0  0
   59.8124   34.8991   50.0133 H   0  0  0  0  0  0  0  0  0  0  0  0
   61.3025   34.7247   49.0255 H   0  0  0  0  0  0  0  0  0  0  0  0
   60.0671   33.4206   49.0255 H   0  0  0  0  0  0  0  0  0  0  0  0
   61.1977   34.1814   51.6938 H   0  0  0  0  0  0  0  0  0  0  0  0
   60.7743   32.5584   51.0150 H   0  0  0  0  0  0  0  0  0  0  0  0
   63.3882   34.8232   51.8642 H   0  0  0  0  0  0  0  0  0  0  0  0
   65.8110   34.4348   51.4320 H   0  0  0  0  0  0  0  0  0  0  0  0
   66.5294   32.6496   49.8453 H   0  0  0  0  0  0  0  0  0  0  0  0
   64.8269   31.2413   48.6947 H   0  0  0  0  0  0  0  0  0  0  0  0
   59.2981   28.6895   49.8505 H   0  0  0  0  0  0  0  0  0  0  0  0
   58.1617   29.6868   48.8729 H   0  0  0  0  0  0  0  0  0  0  0  0
   58.9192   25.9737   43.9996 H   0  0  0  0  0  0  0  0  0  0  0  0
   57.6749   27.8042   42.8006 H   0  0  0  0  0  0  0  0  0  0  0  0
   58.1820   32.0570   42.5830 H   0  0  0  0  0  0  0  0  0  0  0  0
   59.3525   34.0165   43.3775 H   0  0  0  0  0  0  0  0  0  0  0  0
   59.8831   35.6087   45.2233 H   0  0  0  0  0  0  0  0  0  0  0  0
   58.9988   35.2022   47.5212 H   0  0  0  0  0  0  0  0  0  0  0  0
   57.6116   33.1811   47.9846 H   0  0  0  0  0  0  0  0  0  0  0  0
   57.0871   31.5742   46.1500 H   0  0  0  0  0  0  0  0  0  0  0  0
   57.7557   30.2336   46.4178 H   0  0  0  0  0  0  0  0  0  0  0  0
  1  2  1  0
  2  3  1  0
  3  4  2  0
  4  5  1  0
  5  6  2  0
  6  7  1  0
  7  8  2  0
  8  9  1  0
  9 10  1  0
 10 11  2  0
 10 12  1  0
 12 13  1  0
 13 14  1  0
 14 15  2  0
 15 16  1  0
 15 17  1  0
 17 18  1  0
 18 19  2  0
 19 20  1  0
 20 21  2  0
 21 22  1  0
 22 23  2  0
 22 24  2  0
 22 25  1  0
 25 26  1  0
 26 27  2  0
 27 28  1  0
 28 29  2  0
 29 30  1  0
 30 31  2  0
 21 32  1  0
 32 33  2  0
 12 34  2  0
 34 35  1  0
 35 36  2  0
  8  3  1  0
 35  9  1  0
 33 14  1  0
 33 18  1  0
 31 26  1  0
  1 37  1  0
  1 38  1  0
  1 39  1  0
  2 40  1  0
  2 41  1  0
  4 42  1  0
  5 43  1  0
  6 44  1  0
  7 45  1  0
 13 46  1  0
 13 47  1  0
 19 48  1  0
 20 49  1  0
 25 50  1  0
 27 51  1  0
 28 52  1  0
 29 53  1  0
 30 54  1  0
 31 55  1  0
 32 56  1  0
M  CHG  2  16  -1  17  -1
M  END
>  <UniqueID>  (70) 
64

>  <SMILES>  (70) 
CCc1ccccc1N1C(=O)C(Cc2c([O-])[n-]c3ccc(S(=O)(=O)Nc4ccccc4)cc23)=NC1=S

>  <Energy>  (70) 
126.73696653652848

>  <Genealogy>  (70) 
CCc1ccccc1N1C(=O)C(Cc2c([O-])[n-]c3ccc(S(=O)(=O)Nc4ccccc4)cc23)=NC1=S (protonated)
CCc1ccccc1N1C(=O)C(Cc2c([O-])[n-]c3ccc(S(=O)(=O)Nc4ccccc4)cc23)=NC1=S (3D coordinates assigned)
CCc1ccccc1N1C(=O)C(Cc2c([O-])[n-]c3ccc(S(=O)(=O)Nc4ccccc4)cc23)=NC1=S (nonaromatic ring conformer: 126.73696653652848 kcal/mol)

>  <smiles>  (70) 
CCc1ccccc1N1C(=O)C(Cc2c(O)[nH]c3ccc(S(=O)(=O)Nc4ccccc4)cc23)=NC1=S

>  <score_type>  (70) 
oracle

>  <origin>  (70) 
adg

>  <m_score__min__energy>  (70) 
-13.460000000000001

>  <m_primary>  (70) 
energy

$$$$
70:0
     RDKit          3D

 45 47  0  0  0  0  0  0  0  0999 V2000
   54.6860   26.3350   45.9540 N   0  0  0  0  0  0  0  0  0  0  0  0
   56.1590   25.4330   46.0130 S   0  0  0  0  0  0  0  0  0  0  0  0
   56.1600   24.5760   47.2500 O   0  0  0  0  0  0  0  0  0  0  0  0
   56.2570   24.5380   44.8090 O   0  0  0  0  0  0  0  0  0  0  0  0
   57.5310   26.5480   46.0440 C   0  0  0  0  0  0  0  0  0  0  0  0
   58.7680   26.0910   46.5290 C   0  0  0  0  0  0  0  0  0  0  0  0
   59.8870   26.9250   46.5110 C   0  0  0  0  0  0  0  0  0  0  0  0
   59.7820   28.2270   46.0240 C   0  0  0  0  0  0  0  0  0  0  0  0
   58.5550   28.7000   45.5540 C   0  0  0  0  0  0  0  0  0  0  0  0
   57.4190   27.8720   45.5550 C   0  0  0  0  0  0  0  0  0  0  0  0
   56.1670   28.3790   45.0660 N   0  0  0  0  0  0  0  0  0  0  0  0
   56.0920   29.3780   43.6510 S   0  0  0  0  0  0  0  0  0  0  0  0
   54.6620   29.7290   43.3500 O   0  0  0  0  0  0  0  0  0  0  0  0
   56.6700   28.6360   42.4790 O   0  0  0  0  0  0  0  0  0  0  0  0
   57.0480   30.8270   43.9400 C   0  0  0  0  0  0  0  0  0  0  0  0
   57.5230   31.5960   42.8700 C   0  0  0  0  0  0  0  0  0  0  0  0
   58.1500   32.8210   43.1150 C   0  0  0  0  0  0  0  0  0  0  0  0
   58.2880   33.2910   44.4230 C   0  0  0  0  0  0  0  0  0  0  0  0
   57.8170   32.5240   45.5020 C   0  0  0  0  0  0  0  0  0  0  0  0
   57.8980   32.9920   46.8520 N   0  0  0  0  0  0  0  0  0  0  0  0
   58.8040   32.1870   48.0890 S   0  0  0  0  0  0  0  0  0  0  0  0
   58.4230   32.7470   49.4310 O   0  0  0  0  0  0  0  0  0  0  0  0
   58.4990   30.7140   48.0730 O   0  0  0  0  0  0  0  0  0  0  0  0
   60.5180   32.4890   47.8150 C   0  0  0  0  0  0  0  0  0  0  0  0
   61.4690   31.6500   48.4120 C   0  0  0  0  0  0  0  0  0  0  0  0
   62.8340   31.8970   48.2370 C   0  0  0  0  0  0  0  0  0  0  0  0
   63.2550   32.9930   47.4770 C   0  0  0  0  0  0  0  0  0  0  0  0
   64.5790   33.2380   47.3150 F   0  0  0  0  0  0  0  0  0  0  0  0
   62.3100   33.8340   46.8810 C   0  0  0  0  0  0  0  0  0  0  0  0
   60.9420   33.5850   47.0490 C   0  0  0  0  0  0  0  0  0  0  0  0
   57.2190   31.2840   45.2540 C   0  0  0  0  0  0  0  0  0  0  0  0
   54.7620   27.0900   46.6740 H   0  0  0  0  0  0  0  0  0  0  0  0
   58.8551   25.0687   46.9257 H   0  0  0  0  0  0  0  0  0  0  0  0
   60.8539   26.5541   46.8819 H   0  0  0  0  0  0  0  0  0  0  0  0
   60.6657   28.8818   46.0099 H   0  0  0  0  0  0  0  0  0  0  0  0
   58.4766   29.7312   45.1791 H   0  0  0  0  0  0  0  0  0  0  0  0
   55.2680   28.0010   45.4400 H   0  0  0  0  0  0  0  0  0  0  0  0
   57.4027   31.2361   41.8375 H   0  0  0  0  0  0  0  0  0  0  0  0
   58.5361   33.4169   42.2748 H   0  0  0  0  0  0  0  0  0  0  0  0
   58.7665   34.2639   44.6089 H   0  0  0  0  0  0  0  0  0  0  0  0
   61.1403   30.7944   49.0202 H   0  0  0  0  0  0  0  0  0  0  0  0
   63.5770   31.2291   48.6972 H   0  0  0  0  0  0  0  0  0  0  0  0
   62.6417   34.6928   46.2790 H   0  0  0  0  0  0  0  0  0  0  0  0
   60.2004   34.2486   46.5804 H   0  0  0  0  0  0  0  0  0  0  0  0
   56.8804   30.6629   46.0964 H   0  0  0  0  0  0  0  0  0  0  0  0
  1  2  1  0
  2  3  2  0
  2  4  2  0
  2  5  1  0
  5  6  2  0
  6  7  1  0
  7  8  2  0
  8  9  1  0
  9 10  2  0
 10 11  1  0
 11 12  1  0
 12 13  2  0
 12 14  2  0
 12 15  1  0
 15 16  2  0
 16 17  1  0
 17 18  2  0
 18 19  1  0
 19 20  1  0
 20 21  1  0
 21 22  2  0
 21 23  2  0
 21 24  1  0
 24 25  2  0
 25 26  1  0
 26 27  2  0
 27 28  1  0
 27 29  1  0
 29 30  2  0
 19 31  2  0
 10  5  1  0
 31 15  1  0
 30 24  1  0
  1 32  1  0
  6 33  1  0
  7 34  1  0
  8 35  1  0
  9 36  1  0
 11 37  1  0
 16 38  1  0
 17 39  1  0
 18 40  1  0
 25 41  1  0
 26 42  1  0
 29 43  1  0
 30 44  1  0
 31 45  1  0
M  CHG  2   1  -1  20  -1
M  END
>  <UniqueID>  (71) 
65

>  <SMILES>  (71) 
[NH-]S(=O)(=O)c1ccccc1NS(=O)(=O)c1cccc([N-]S(=O)(=O)c2ccc(F)cc2)c1

>  <Energy>  (71) 
54.13973851592559

>  <Genealogy>  (71) 
[NH-]S(=O)(=O)c1ccccc1NS(=O)(=O)c1cccc([N-]S(=O)(=O)c2ccc(F)cc2)c1 (protonated)
[NH-]S(=O)(=O)c1ccccc1NS(=O)(=O)c1cccc([N-]S(=O)(=O)c2ccc(F)cc2)c1 (3D coordinates assigned)
[NH-]S(=O)(=O)c1ccccc1NS(=O)(=O)c1cccc([N-]S(=O)(=O)c2ccc(F)cc2)c1 (optimized conformer: 54.13973851592559 kcal/mol)

>  <smiles>  (71) 
NS(=O)(=O)c1ccccc1NS(=O)(=O)c1cccc(NS(=O)(=O)c2ccc(F)cc2)c1

>  <score_type>  (71) 
oracle

>  <origin>  (71) 
adg

>  <m_score__min__energy>  (71) 
-14.630000000000001

>  <m_primary>  (71) 
energy

$$$$
71:0
     RDKit          3D

 36 37  0  0  0  0  0  0  0  0999 V2000
   57.7640   32.3810   42.8870 C   0  0  0  0  0  0  0  0  0  0  0  0
   58.3310   31.1270   43.3680 N   0  0  0  0  0  0  0  0  0  0  0  0
   57.6570   30.3250   44.3510 C   0  0  0  0  0  0  0  0  0  0  0  0
   56.4870   30.6350   44.7060 O   0  0  0  0  0  0  0  0  0  0  0  0
   58.3050   29.1310   44.9450 C   0  0  0  0  0  0  0  0  0  0  0  0
   59.7060   29.0260   45.0220 C   0  0  0  0  0  0  0  0  0  0  0  0
   60.3000   27.8990   45.5950 C   0  0  0  0  0  0  0  0  0  0  0  0
   59.5070   26.8750   46.1140 C   0  0  0  0  0  0  0  0  0  0  0  0
   58.1080   26.9810   46.0800 C   0  0  0  0  0  0  0  0  0  0  0  0
   57.2730   25.9620   46.6410 N   0  0  0  0  0  0  0  0  0  0  0  0
   55.9030   25.7250   46.2880 C   0  0  0  0  0  0  0  0  0  0  0  0
   55.1700   26.7050   45.9990 O   0  0  0  0  0  0  0  0  0  0  0  0
   55.3340   24.4070   46.2860 N   0  0  0  0  0  0  0  0  0  0  0  0
   55.7100   23.3380   45.4050 C   0  0  0  0  0  0  0  0  0  0  0  0
   56.3240   23.6740   44.1930 C   0  0  0  0  0  0  0  0  0  0  0  0
   56.8200   22.6800   43.3490 C   0  0  0  0  0  0  0  0  0  0  0  0
   56.6980   21.3390   43.7050 C   0  0  0  0  0  0  0  0  0  0  0  0
   56.0440   20.9760   44.8860 C   0  0  0  0  0  0  0  0  0  0  0  0
   55.9360   19.2630   45.2810 Cl  0  0  0  0  0  0  0  0  0  0  0  0
   55.5000   21.9720   45.7310 C   0  0  0  0  0  0  0  0  0  0  0  0
   54.7110   21.5680   46.9520 C   0  0  0  0  0  0  0  0  0  0  0  0
   57.5150   28.0950   45.4740 C   0  0  0  0  0  0  0  0  0  0  0  0
   57.4804   33.0082   43.7450 H   0  0  0  0  0  0  0  0  0  0  0  0
   58.5103   32.9105   42.2765 H   0  0  0  0  0  0  0  0  0  0  0  0
   56.8735   32.1705   42.2765 H   0  0  0  0  0  0  0  0  0  0  0  0
   59.2270   30.7980   42.9440 H   0  0  0  0  0  0  0  0  0  0  0  0
   60.3374   29.8363   44.6286 H   0  0  0  0  0  0  0  0  0  0  0  0
   61.3962   27.8186   45.6372 H   0  0  0  0  0  0  0  0  0  0  0  0
   59.9794   25.9827   46.5507 H   0  0  0  0  0  0  0  0  0  0  0  0
   56.4163   24.7312   43.9033 H   0  0  0  0  0  0  0  0  0  0  0  0
   57.3075   22.9554   42.4022 H   0  0  0  0  0  0  0  0  0  0  0  0
   57.1192   20.5601   43.0523 H   0  0  0  0  0  0  0  0  0  0  0  0
   55.2663   21.8523   47.8580 H   0  0  0  0  0  0  0  0  0  0  0  0
   53.7364   22.0780   46.9441 H   0  0  0  0  0  0  0  0  0  0  0  0
   54.5551   20.4791   46.9441 H   0  0  0  0  0  0  0  0  0  0  0  0
   56.4188   28.1606   45.4110 H   0  0  0  0  0  0  0  0  0  0  0  0
  1  2  1  0
  2  3  1  0
  3  4  2  0
  3  5  1  0
  5  6  2  0
  6  7  1  0
  7  8  2  0
  8  9  1  0
  9 10  1  0
 10 11  1  0
 11 12  2  0
 11 13  1  0
 13 14  1  0
 14 15  2  0
 15 16  1  0
 16 17  2  0
 17 18  1  0
 18 19  1  0
 18 20  2  0
 20 21  1  0
  9 22  2  0
 22  5  1  0
 20 14  1  0
  1 23  1  0
  1 24  1  0
  1 25  1  0
  2 26  1  0
  6 27  1  0
  7 28  1  0
  8 29  1  0
 15 30  1  0
 16 31  1  0
 17 32  1  0
 21 33  1  0
 21 34  1  0
 21 35  1  0
 22 36  1  0
M  CHG  2  10  -1  13  -1
M  END
>  <UniqueID>  (72) 
66

>  <SMILES>  (72) 
CNC(=O)c1cccc([N-]C(=O)[N-]c2cccc(Cl)c2C)c1

>  <Energy>  (72) 
46.912149814111295

>  <Genealogy>  (72) 
CNC(=O)c1cccc([N-]C(=O)[N-]c2cccc(Cl)c2C)c1 (protonated)
CNC(=O)c1cccc([N-]C(=O)[N-]c2cccc(Cl)c2C)c1 (3D coordinates assigned)
CNC(=O)c1cccc([N-]C(=O)[N-]c2cccc(Cl)c2C)c1 (optimized conformer: 46.912149814111295 kcal/mol)

>  <smiles>  (72) 
CNC(=O)c1cccc(NC(=O)Nc2cccc(Cl)c2C)c1

>  <score_type>  (72) 
oracle

>  <origin>  (72) 
adg

>  <m_score__min__energy>  (72) 
-10.99

>  <m_primary>  (72) 
energy

$$$$
72:0
     RDKit          3D

 58 61  0  0  0  0  0  0  0  0999 V2000
   52.7850   23.4370   45.0550 C   0  0  0  0  0  0  0  0  0  0  0  0
   53.9830   22.6100   44.9650 N   0  0  0  0  0  0  0  0  0  0  0  0
   55.2030   23.0010   44.3220 C   0  0  0  0  0  0  0  0  0  0  0  0
   55.7020   22.2350   43.4570 O   0  0  0  0  0  0  0  0  0  0  0  0
   55.9160   24.2480   44.6710 C   0  0  0  0  0  0  0  0  0  0  0  0
   57.0330   24.6440   43.9190 C   0  0  0  0  0  0  0  0  0  0  0  0
   57.7070   25.8320   44.2250 C   0  0  0  0  0  0  0  0  0  0  0  0
   57.2690   26.6410   45.2900 C   0  0  0  0  0  0  0  0  0  0  0  0
   57.9060   27.8840   45.6160 N   0  0  0  0  0  0  0  0  0  0  0  0
   57.3040   29.1860   45.6230 C   0  0  0  0  0  0  0  0  0  0  0  0
   56.1130   29.3350   45.2330 O   0  0  0  0  0  0  0  0  0  0  0  0
   58.0950   30.3650   46.0530 C   0  0  0  0  0  0  0  0  0  0  0  0
   58.0100   31.5740   45.3470 C   0  0  0  0  0  0  0  0  0  0  0  0
   58.7790   32.6710   45.7330 C   0  0  0  0  0  0  0  0  0  0  0  0
   59.6420   32.5800   46.8300 C   0  0  0  0  0  0  0  0  0  0  0  0
   59.7300   31.3900   47.5770 C   0  0  0  0  0  0  0  0  0  0  0  0
   58.9530   30.2830   47.1650 C   0  0  0  0  0  0  0  0  0  0  0  0
   60.5970   31.2960   48.7420 N   0  0  0  0  0  0  0  0  0  0  0  0
   60.2650   30.3820   49.8500 C   0  0  0  0  0  0  0  0  0  0  0  0
   59.1140   30.8850   50.6960 C   0  0  0  0  0  0  0  0  0  0  0  0
   59.0180   32.2280   51.1060 C   0  0  0  0  0  0  0  0  0  0  0  0
   57.9610   32.6440   51.9180 C   0  0  0  0  0  0  0  0  0  0  0  0
   56.9940   31.7290   52.3390 C   0  0  0  0  0  0  0  0  0  0  0  0
   57.0820   30.3790   51.9510 C   0  0  0  0  0  0  0  0  0  0  0  0
   56.1410   29.4200   52.3520 O   0  0  0  0  0  0  0  0  0  0  0  0
   54.7880   29.7120   52.6890 C   0  0  0  0  0  0  0  0  0  0  0  0
   58.1450   29.9680   51.1380 C   0  0  0  0  0  0  0  0  0  0  0  0
   61.8020   32.0900   48.8690 C   0  0  0  0  0  0  0  0  0  0  0  0
   62.7310   31.6910   49.6250 O   0  0  0  0  0  0  0  0  0  0  0  0
   61.9500   33.3410   48.1820 N   0  0  0  0  0  0  0  0  0  0  0  0
   63.1730   34.1300   48.3180 C   0  0  0  0  0  0  0  0  0  0  0  0
   60.6300   33.9520   47.2560 S   0  0  0  0  0  0  0  0  0  0  0  0
   59.8380   34.9340   48.0720 O   0  0  0  0  0  0  0  0  0  0  0  0
   61.1480   34.6090   46.0070 O   0  0  0  0  0  0  0  0  0  0  0  0
   56.1280   26.2650   46.0080 C   0  0  0  0  0  0  0  0  0  0  0  0
   55.4540   25.0790   45.7030 C   0  0  0  0  0  0  0  0  0  0  0  0
   52.5365   23.6085   46.1127 H   0  0  0  0  0  0  0  0  0  0  0  0
   52.9677   24.4022   44.5601 H   0  0  0  0  0  0  0  0  0  0  0  0
   51.9473   22.9240   44.5601 H   0  0  0  0  0  0  0  0  0  0  0  0
   57.3807   24.0173   43.0845 H   0  0  0  0  0  0  0  0  0  0  0  0
   58.5821   26.1343   43.6310 H   0  0  0  0  0  0  0  0  0  0  0  0
   57.3329   31.6571   44.4841 H   0  0  0  0  0  0  0  0  0  0  0  0
   58.7066   33.6140   45.1713 H   0  0  0  0  0  0  0  0  0  0  0  0
   59.0207   29.3387   47.7251 H   0  0  0  0  0  0  0  0  0  0  0  0
   59.9913   29.4033   49.4291 H   0  0  0  0  0  0  0  0  0  0  0  0
   61.1497   30.3116   50.4998 H   0  0  0  0  0  0  0  0  0  0  0  0
   59.7797   32.9538   50.7850 H   0  0  0  0  0  0  0  0  0  0  0  0
   57.8898   33.6972   52.2274 H   0  0  0  0  0  0  0  0  0  0  0  0
   56.1616   32.0640   52.9753 H   0  0  0  0  0  0  0  0  0  0  0  0
   54.6796   29.7354   53.7834 H   0  0  0  0  0  0  0  0  0  0  0  0
   54.5093   30.6910   52.2719 H   0  0  0  0  0  0  0  0  0  0  0  0
   54.1304   28.9351   52.2719 H   0  0  0  0  0  0  0  0  0  0  0  0
   58.2230   28.9118   50.8408 H   0  0  0  0  0  0  0  0  0  0  0  0
   63.3987   34.2756   49.3847 H   0  0  0  0  0  0  0  0  0  0  0  0
   64.0072   33.5994   47.8358 H   0  0  0  0  0  0  0  0  0  0  0  0
   63.0334   35.1088   47.8358 H   0  0  0  0  0  0  0  0  0  0  0  0
   55.7582   26.9087   46.8198 H   0  0  0  0  0  0  0  0  0  0  0  0
   54.5577   24.7959   46.2744 H   0  0  0  0  0  0  0  0  0  0  0  0
  1  2  1  0
  2  3  1  0
  3  4  2  0
  3  5  1  0
  5  6  2  0
  6  7  1  0
  7  8  2  0
  8  9  1  0
  9 10  1  0
 10 11  2  0
 10 12  1  0
 12 13  2  0
 13 14  1  0
 14 15  2  0
 15 16  1  0
 16 17  2  0
 16 18  1  0
 18 19  1  0
 19 20  1  0
 20 21  2  0
 21 22  1  0
 22 23  2  0
 23 24  1  0
 24 25  1  0
 25 26  1  0
 24 27  2  0
 18 28  1  0
 28 29  2  0
 28 30  1  0
 30 31  1  0
 30 32  1  0
 32 33  2  0
 32 34  2  0
  8 35  1  0
 35 36  2  0
 36  5  1  0
 17 12  1  0
 27 20  1  0
 32 15  1  0
  1 37  1  0
  1 38  1  0
  1 39  1  0
  6 40  1  0
  7 41  1  0
 13 42  1  0
 14 43  1  0
 17 44  1  0
 19 45  1  0
 19 46  1  0
 21 47  1  0
 22 48  1  0
 23 49  1  0
 26 50  1  0
 26 51  1  0
 26 52  1  0
 27 53  1  0
 31 54  1  0
 31 55  1  0
 31 56  1  0
 35 57  1  0
 36 58  1  0
M  CHG  2   2  -1   9  -1
M  END
>  <UniqueID>  (73) 
67

>  <SMILES>  (73) 
C[N-]C(=O)c1ccc([N-]C(=O)c2ccc3c(c2)N(Cc2cccc(OC)c2)C(=O)N(C)S3(=O)=O)cc1

>  <Energy>  (73) 
78.19838342080642

>  <Genealogy>  (73) 
C[N-]C(=O)c1ccc([N-]C(=O)c2ccc3c(c2)N(Cc2cccc(OC)c2)C(=O)N(C)S3(=O)=O)cc1 (protonated)
C[N-]C(=O)c1ccc([N-]C(=O)c2ccc3c(c2)N(Cc2cccc(OC)c2)C(=O)N(C)S3(=O)=O)cc1 (3D coordinates assigned)
C[N-]C(=O)c1ccc([N-]C(=O)c2ccc3c(c2)N(Cc2cccc(OC)c2)C(=O)N(C)S3(=O)=O)cc1 (nonaromatic ring conformer: 78.19838342080642 kcal/mol)

>  <smiles>  (73) 
CNC(=O)c1ccc(NC(=O)c2ccc3c(c2)N(Cc2cccc(OC)c2)C(=O)N(C)S3(=O)=O)cc1

>  <score_type>  (73) 
oracle

>  <origin>  (73) 
adg

>  <m_score__min__energy>  (73) 
-12.630000000000001

>  <m_primary>  (73) 
energy

$$$$
73:0
     RDKit          3D

 53 55  0  0  0  0  0  0  0  0999 V2000
   64.8250   33.0640   48.9560 N   0  0  0  0  0  0  0  0  0  0  0  0
   63.3480   33.1920   48.0620 S   0  0  0  0  0  0  0  0  0  0  0  0
   62.5170   34.3090   48.6270 O   0  0  0  0  0  0  0  0  0  0  0  0
   63.6640   33.4930   46.6260 O   0  0  0  0  0  0  0  0  0  0  0  0
   62.4470   31.6480   48.1500 C   0  0  0  0  0  0  0  0  0  0  0  0
   60.9730   31.8700   48.4930 C   0  0  0  0  0  0  0  0  0  0  0  0
   59.8940   30.9420   47.3520 S   0  0  0  0  0  0  0  0  0  0  0  0
   59.3810   32.4080   46.4420 C   0  0  0  0  0  0  0  0  0  0  0  0
   60.1070   33.5920   46.6150 C   0  0  0  0  0  0  0  0  0  0  0  0
   59.8100   34.7190   45.8480 C   0  0  0  0  0  0  0  0  0  0  0  0
   58.7990   34.6670   44.8880 C   0  0  0  0  0  0  0  0  0  0  0  0
   58.0590   33.4940   44.7170 C   0  0  0  0  0  0  0  0  0  0  0  0
   58.3110   32.3710   45.5150 C   0  0  0  0  0  0  0  0  0  0  0  0
   57.4840   31.2100   45.3460 N   0  0  0  0  0  0  0  0  0  0  0  0
   57.7660   30.1160   44.4570 C   0  0  0  0  0  0  0  0  0  0  0  0
   57.6880   30.3080   43.2160 O   0  0  0  0  0  0  0  0  0  0  0  0
   58.0830   28.7620   44.9670 C   0  0  0  0  0  0  0  0  0  0  0  0
   59.4210   28.3700   45.0980 C   0  0  0  0  0  0  0  0  0  0  0  0
   59.7400   27.1040   45.5730 C   0  0  0  0  0  0  0  0  0  0  0  0
   58.7310   26.1970   45.8950 C   0  0  0  0  0  0  0  0  0  0  0  0
   57.3760   26.5420   45.7420 C   0  0  0  0  0  0  0  0  0  0  0  0
   56.0870   25.3470   46.0520 S   0  0  0  0  0  0  0  0  0  0  0  0
   54.7580   26.0430   45.9330 O   0  0  0  0  0  0  0  0  0  0  0  0
   56.2420   24.8420   47.4610 O   0  0  0  0  0  0  0  0  0  0  0  0
   56.0340   23.9750   44.9680 N   0  0  0  0  0  0  0  0  0  0  0  0
   56.6460   24.2740   43.6630 C   0  0  0  0  0  0  0  0  0  0  0  0
   56.5640   23.0520   42.7200 C   0  0  0  0  0  0  0  0  0  0  0  0
   56.2550   21.8420   43.3870 O   0  0  0  0  0  0  0  0  0  0  0  0
   57.0210   21.7290   44.5650 C   0  0  0  0  0  0  0  0  0  0  0  0
   56.5160   22.7350   45.6070 C   0  0  0  0  0  0  0  0  0  0  0  0
   57.0530   27.8640   45.3280 C   0  0  0  0  0  0  0  0  0  0  0  0
   55.7310   28.3100   45.2560 O   0  0  0  0  0  0  0  0  0  0  0  0
   65.6030   33.0600   48.2560 H   0  0  0  0  0  0  0  0  0  0  0  0
   62.5136   31.1407   47.1762 H   0  0  0  0  0  0  0  0  0  0  0  0
   62.8951   31.0352   48.9461 H   0  0  0  0  0  0  0  0  0  0  0  0
   60.7872   31.5291   49.5222 H   0  0  0  0  0  0  0  0  0  0  0  0
   60.7469   32.9423   48.3975 H   0  0  0  0  0  0  0  0  0  0  0  0
   60.9158   33.6342   47.3594 H   0  0  0  0  0  0  0  0  0  0  0  0
   60.3743   35.6508   46.0006 H   0  0  0  0  0  0  0  0  0  0  0  0
   58.5845   35.5487   44.2662 H   0  0  0  0  0  0  0  0  0  0  0  0
   57.2722   33.4523   43.9494 H   0  0  0  0  0  0  0  0  0  0  0  0
   60.2246   29.0690   44.8230 H   0  0  0  0  0  0  0  0  0  0  0  0
   60.7944   26.8155   45.6958 H   0  0  0  0  0  0  0  0  0  0  0  0
   58.9980   25.1992   46.2734 H   0  0  0  0  0  0  0  0  0  0  0  0
   56.1154   25.1202   43.2022 H   0  0  0  0  0  0  0  0  0  0  0  0
   57.7054   24.5239   43.8217 H   0  0  0  0  0  0  0  0  0  0  0  0
   55.7839   23.2441   41.9686 H   0  0  0  0  0  0  0  0  0  0  0  0
   57.5585   22.9262   42.2672 H   0  0  0  0  0  0  0  0  0  0  0  0
   56.9274   20.7089   44.9659 H   0  0  0  0  0  0  0  0  0  0  0  0
   58.0760   21.9398   44.3358 H   0  0  0  0  0  0  0  0  0  0  0  0
   55.6902   22.2797   46.1733 H   0  0  0  0  0  0  0  0  0  0  0  0
   57.3519   22.9915   46.2745 H   0  0  0  0  0  0  0  0  0  0  0  0
   55.0480   28.1770   45.9900 H   0  0  0  0  0  0  0  0  0  0  0  0
  1  2  1  0
  2  3  2  0
  2  4  2  0
  2  5  1  0
  5  6  1  0
  6  7  1  0
  7  8  1  0
  8  9  2  0
  9 10  1  0
 10 11  2  0
 11 12  1  0
 12 13  2  0
 13 14  1  0
 14 15  1  0
 15 16  2  0
 15 17  1  0
 17 18  2  0
 18 19  1  0
 19 20  2  0
 20 21  1  0
 21 22  1  0
 22 23  2  0
 22 24  2  0
 22 25  1  0
 25 26  1  0
 26 27  1  0
 27 28  1  0
 28 29  1  0
 29 30  1  0
 21 31  2  0
 31 32  1  0
 13  8  1  0
 31 17  1  0
 30 25  1  0
  1 33  1  0
  5 34  1  0
  5 35  1  0
  6 36  1  0
  6 37  1  0
  9 38  1  0
 10 39  1  0
 11 40  1  0
 12 41  1  0
 18 42  1  0
 19 43  1  0
 20 44  1  0
 26 45  1  0
 26 46  1  0
 27 47  1  0
 27 48  1  0
 29 49  1  0
 29 50  1  0
 30 51  1  0
 30 52  1  0
 32 53  1  0
M  CHG  2   1  -1  14  -1
M  END
>  <UniqueID>  (74) 
68

>  <SMILES>  (74) 
[NH-]S(=O)(=O)CCSc1ccccc1[N-]C(=O)c1cccc(S(=O)(=O)N2CCOCC2)c1O

>  <Energy>  (74) 
69.81409281739985

>  <Genealogy>  (74) 
[NH-]S(=O)(=O)CCSc1ccccc1[N-]C(=O)c1cccc(S(=O)(=O)N2CCOCC2)c1O (protonated)
[NH-]S(=O)(=O)CCSc1ccccc1[N-]C(=O)c1cccc(S(=O)(=O)N2CCOCC2)c1O (3D coordinates assigned)
[NH-]S(=O)(=O)CCSc1ccccc1[N-]C(=O)c1cccc(S(=O)(=O)N2CCOCC2)c1O (nonaromatic ring conformer: 69.81409281739985 kcal/mol)

>  <smiles>  (74) 
NS(=O)(=O)CCSc1ccccc1NC(=O)c1cccc(S(=O)(=O)N2CCOCC2)c1O

>  <score_type>  (74) 
oracle

>  <origin>  (74) 
adg

>  <m_score__min__energy>  (74) 
-14.27

>  <m_primary>  (74) 
energy

$$$$
74:0
     RDKit          3D

 44 47  0  0  0  0  0  0  0  0999 V2000
   57.0750   31.2120   53.7440 N   0  0  0  0  0  0  0  0  0  0  0  0
   56.8860   30.4610   52.1990 S   0  0  0  0  0  0  0  0  0  0  0  0
   56.8520   28.9670   52.3680 O   0  0  0  0  0  0  0  0  0  0  0  0
   55.5880   30.9050   51.5830 O   0  0  0  0  0  0  0  0  0  0  0  0
   58.2300   30.9140   51.1560 C   0  0  0  0  0  0  0  0  0  0  0  0
   58.3760   32.2420   50.7350 C   0  0  0  0  0  0  0  0  0  0  0  0
   59.4360   32.6020   49.8980 C   0  0  0  0  0  0  0  0  0  0  0  0
   60.3550   31.6350   49.4620 C   0  0  0  0  0  0  0  0  0  0  0  0
   61.5150   32.0290   48.5910 C   0  0  0  0  0  0  0  0  0  0  0  0
   61.8390   30.9140   47.5880 C   0  0  0  0  0  0  0  0  0  0  0  0
   60.9530   30.9650   46.4240 N   0  0  0  0  0  0  0  0  0  0  0  0
   59.6570   30.8930   46.2250 C   0  0  0  0  0  0  0  0  0  0  0  0
   58.8860   29.6770   46.2470 C   0  0  0  0  0  0  0  0  0  0  0  0
   59.3140   28.4570   46.8250 C   0  0  0  0  0  0  0  0  0  0  0  0
   58.5340   27.3030   46.7470 C   0  0  0  0  0  0  0  0  0  0  0  0
   57.2880   27.3350   46.1330 C   0  0  0  0  0  0  0  0  0  0  0  0
   56.7950   28.5360   45.6300 C   0  0  0  0  0  0  0  0  0  0  0  0
   55.5260   28.5710   45.0660 O   0  0  0  0  0  0  0  0  0  0  0  0
   57.5700   29.7040   45.7080 C   0  0  0  0  0  0  0  0  0  0  0  0
   57.0230   30.8680   45.2890 N   0  0  0  0  0  0  0  0  0  0  0  0
   57.6730   32.0500   45.3710 C   0  0  0  0  0  0  0  0  0  0  0  0
   57.0130   33.2110   44.9520 C   0  0  0  0  0  0  0  0  0  0  0  0
   57.6500   34.4460   45.0200 C   0  0  0  0  0  0  0  0  0  0  0  0
   58.9500   34.5320   45.5090 C   0  0  0  0  0  0  0  0  0  0  0  0
   59.6310   33.3850   45.9300 C   0  0  0  0  0  0  0  0  0  0  0  0
   60.9210   33.5430   46.4270 O   0  0  0  0  0  0  0  0  0  0  0  0
   59.0000   32.1070   45.8610 C   0  0  0  0  0  0  0  0  0  0  0  0
   60.2080   30.3060   49.8890 C   0  0  0  0  0  0  0  0  0  0  0  0
   59.1470   29.9470   50.7260 C   0  0  0  0  0  0  0  0  0  0  0  0
   56.1340   31.2110   54.2000 H   0  0  0  0  0  0  0  0  0  0  0  0
   57.6542   33.0040   51.0641 H   0  0  0  0  0  0  0  0  0  0  0  0
   59.5505   33.6486   49.5794 H   0  0  0  0  0  0  0  0  0  0  0  0
   61.2592   32.9469   48.0413 H   0  0  0  0  0  0  0  0  0  0  0  0
   62.3952   32.2004   49.2280 H   0  0  0  0  0  0  0  0  0  0  0  0
   62.8796   31.0284   47.2503 H   0  0  0  0  0  0  0  0  0  0  0  0
   61.6941   29.9459   48.0897 H   0  0  0  0  0  0  0  0  0  0  0  0
   60.2818   28.4185   47.3464 H   0  0  0  0  0  0  0  0  0  0  0  0
   58.9081   26.3611   47.1746 H   0  0  0  0  0  0  0  0  0  0  0  0
   56.6928   26.4142   46.0446 H   0  0  0  0  0  0  0  0  0  0  0  0
   55.9847   33.1466   44.5667 H   0  0  0  0  0  0  0  0  0  0  0  0
   57.1262   35.3542   44.6873 H   0  0  0  0  0  0  0  0  0  0  0  0
   59.4470   35.5117   45.5650 H   0  0  0  0  0  0  0  0  0  0  0  0
   60.9308   29.5433   49.5637 H   0  0  0  0  0  0  0  0  0  0  0  0
   59.0323   28.9014   51.0478 H   0  0  0  0  0  0  0  0  0  0  0  0
  1  2  1  0
  2  3  2  0
  2  4  2  0
  2  5  1  0
  5  6  2  0
  6  7  1  0
  7  8  2  0
  8  9  1  0
  9 10  1  0
 10 11  1  0
 11 12  2  3
 12 13  1  0
 13 14  2  0
 14 15  1  0
 15 16  2  0
 16 17  1  0
 17 18  1  0
 17 19  2  0
 19 20  1  0
 20 21  1  0
 21 22  2  0
 22 23  1  0
 23 24  2  0
 24 25  1  0
 25 26  1  0
 25 27  2  0
  8 28  1  0
 28 29  2  0
 29  5  1  0
 27 12  1  0
 19 13  1  0
 27 21  1  0
  1 30  1  0
  6 31  1  0
  7 32  1  0
  9 33  1  0
  9 34  1  0
 10 35  1  0
 10 36  1  0
 14 37  1  0
 15 38  1  0
 16 39  1  0
 22 40  1  0
 23 41  1  0
 24 42  1  0
 28 43  1  0
 29 44  1  0
M  CHG  4   1  -1  18  -1  20  -1  26  -1
M  END
>  <UniqueID>  (75) 
69

>  <SMILES>  (75) 
[NH-]S(=O)(=O)c1ccc(CCN=c2c3cccc([O-])c3[n-]c3cccc([O-])c23)cc1

>  <Energy>  (75) 
75.66784213268089

>  <Genealogy>  (75) 
[NH-]S(=O)(=O)c1ccc(CCN=c2c3cccc([O-])c3[n-]c3cccc([O-])c23)cc1 (protonated)
[NH-]S(=O)(=O)c1ccc(CCN=c2c3cccc([O-])c3[n-]c3cccc([O-])c23)cc1 (3D coordinates assigned)
[NH-]S(=O)(=O)c1ccc(CCN=c2c3cccc([O-])c3[n-]c3cccc([O-])c23)cc1 (optimized conformer: 75.66784213268089 kcal/mol)

>  <smiles>  (75) 
NS(=O)(=O)c1ccc(CCN=c2c3cccc(O)c3[nH]c3cccc(O)c23)cc1

>  <score_type>  (75) 
oracle

>  <origin>  (75) 
adg

>  <m_score__min__energy>  (75) 
-15.85

>  <m_primary>  (75) 
energy

$$$$
75:0
     RDKit          3D

 67 71  0  0  0  0  0  0  0  0999 V2000
   57.7090   33.7330   44.8700 C   0  0  0  0  0  0  0  0  0  0  0  0
   57.6240   32.4070   44.3540 O   0  0  0  0  0  0  0  0  0  0  0  0
   58.1480   31.2690   44.9930 C   0  0  0  0  0  0  0  0  0  0  0  0
   59.0780   31.3640   46.0460 C   0  0  0  0  0  0  0  0  0  0  0  0
   59.5700   30.2090   46.6940 C   0  0  0  0  0  0  0  0  0  0  0  0
   59.1400   28.9390   46.2290 C   0  0  0  0  0  0  0  0  0  0  0  0
   58.2420   28.8540   45.1590 C   0  0  0  0  0  0  0  0  0  0  0  0
   57.7370   30.0060   44.5560 C   0  0  0  0  0  0  0  0  0  0  0  0
   56.5970   29.8470   43.2260 Cl  0  0  0  0  0  0  0  0  0  0  0  0
   59.6720   27.7210   46.7740 N   0  0  0  0  0  0  0  0  0  0  0  0
   59.4880   27.3460   48.1750 C   0  0  0  0  0  0  0  0  0  0  0  0
   60.4330   28.1230   49.0950 C   0  0  0  0  0  0  0  0  0  0  0  0
   60.1560   29.5590   48.9980 N   0  0  0  0  0  0  0  0  0  0  0  0
   59.0980   30.0850   49.8200 C   0  0  0  0  0  0  0  0  0  0  0  0
   58.1610   30.7470   49.2930 O   0  0  0  0  0  0  0  0  0  0  0  0
   59.0550   29.7740   51.2880 C   0  0  0  0  0  0  0  0  0  0  0  0
   57.6920   30.0600   51.8560 C   0  0  0  0  0  0  0  0  0  0  0  0
   57.0210   29.0870   52.6130 C   0  0  0  0  0  0  0  0  0  0  0  0
   55.7400   29.3410   53.1120 C   0  0  0  0  0  0  0  0  0  0  0  0
   55.1010   30.5600   52.8380 C   0  0  0  0  0  0  0  0  0  0  0  0
   53.7210   30.8440   53.3820 C   0  0  0  0  0  0  0  0  0  0  0  0
   52.6250   30.4610   52.4650 N   0  0  0  0  0  0  0  0  0  0  0  0
   51.2880   30.2680   53.0690 C   0  0  0  0  0  0  0  0  0  0  0  0
   50.4700   31.5690   53.1370 C   0  0  0  0  0  0  0  0  0  0  0  0
   50.5300   32.2970   51.8800 N   0  0  0  0  0  0  0  0  0  0  0  0
   51.6560   32.2210   51.0110 C   0  0  0  0  0  0  0  0  0  0  0  0
   51.7690   33.0520   50.0720 O   0  0  0  0  0  0  0  0  0  0  0  0
   52.6370   31.0920   51.1290 C   0  0  0  0  0  0  0  0  0  0  0  0
   55.7760   31.5340   52.0810 C   0  0  0  0  0  0  0  0  0  0  0  0
   57.0600   31.2840   51.5910 C   0  0  0  0  0  0  0  0  0  0  0  0
   60.6240   30.2720   47.7970 C   0  0  2  0  0  0  0  0  0  0  0  0
   61.1970   31.6470   48.1510 C   0  0  0  0  0  0  0  0  0  0  0  0
   62.5620   31.9650   47.9820 C   0  0  0  0  0  0  0  0  0  0  0  0
   63.0390   33.2420   48.2980 C   0  0  0  0  0  0  0  0  0  0  0  0
   62.1660   34.2210   48.7690 C   0  0  0  0  0  0  0  0  0  0  0  0
   60.8110   33.9290   48.9250 C   0  0  0  0  0  0  0  0  0  0  0  0
   60.3290   32.6540   48.6210 C   0  0  0  0  0  0  0  0  0  0  0  0
   57.7068   33.6994   45.9695 H   0  0  0  0  0  0  0  0  0  0  0  0
   58.6392   34.2040   44.5194 H   0  0  0  0  0  0  0  0  0  0  0  0
   56.8466   34.3189   44.5194 H   0  0  0  0  0  0  0  0  0  0  0  0
   59.4277   32.3553   46.3699 H   0  0  0  0  0  0  0  0  0  0  0  0
   57.9304   27.8661   44.7888 H   0  0  0  0  0  0  0  0  0  0  0  0
   59.8980   26.9470   46.1060 H   0  0  0  0  0  0  0  0  0  0  0  0
   58.4494   27.5589   48.4681 H   0  0  0  0  0  0  0  0  0  0  0  0
   59.7130   26.2741   48.2767 H   0  0  0  0  0  0  0  0  0  0  0  0
   60.2844   27.7924   50.1335 H   0  0  0  0  0  0  0  0  0  0  0  0
   61.4725   27.9336   48.7892 H   0  0  0  0  0  0  0  0  0  0  0  0
   59.2921   28.7104   51.4382 H   0  0  0  0  0  0  0  0  0  0  0  0
   59.7915   30.4076   51.8039 H   0  0  0  0  0  0  0  0  0  0  0  0
   57.5053   28.1201   52.8146 H   0  0  0  0  0  0  0  0  0  0  0  0
   55.2302   28.5813   53.7227 H   0  0  0  0  0  0  0  0  0  0  0  0
   53.5974   30.2857   54.3217 H   0  0  0  0  0  0  0  0  0  0  0  0
   53.6519   31.9324   53.5254 H   0  0  0  0  0  0  0  0  0  0  0  0
   50.7325   29.5349   52.4656 H   0  0  0  0  0  0  0  0  0  0  0  0
   51.4386   29.9177   54.1008 H   0  0  0  0  0  0  0  0  0  0  0  0
   49.4212   31.3217   53.3582 H   0  0  0  0  0  0  0  0  0  0  0  0
   50.8948   32.2053   53.9274 H   0  0  0  0  0  0  0  0  0  0  0  0
   52.3867   30.3288   50.3775 H   0  0  0  0  0  0  0  0  0  0  0  0
   53.6424   31.5084   50.9681 H   0  0  0  0  0  0  0  0  0  0  0  0
   55.2899   32.4987   51.8734 H   0  0  0  0  0  0  0  0  0  0  0  0
   57.5776   32.0500   50.9949 H   0  0  0  0  0  0  0  0  0  0  0  0
   61.4916   29.7617   47.3532 H   0  0  0  0  0  0  0  0  0  0  0  0
   63.2563   31.2027   47.5988 H   0  0  0  0  0  0  0  0  0  0  0  0
   64.1071   33.4740   48.1742 H   0  0  0  0  0  0  0  0  0  0  0  0
   62.5453   35.2232   49.0175 H   0  0  0  0  0  0  0  0  0  0  0  0
   60.1207   34.7046   49.2882 H   0  0  0  0  0  0  0  0  0  0  0  0
   59.2592   32.4326   48.7498 H   0  0  0  0  0  0  0  0  0  0  0  0
  1  2  1  0
  2  3  1  0
  3  4  2  0
  4  5  1  0
  5  6  2  0
  6  7  1  0
  7  8  2  0
  8  9  1  0
  6 10  1  0
 10 11  1  0
 11 12  1  0
 12 13  1  0
 13 14  1  0
 14 15  2  0
 14 16  1  0
 16 17  1  0
 17 18  2  0
 18 19  1  0
 19 20  2  0
 20 21  1  0
 21 22  1  0
 22 23  1  0
 23 24  1  0
 24 25  1  0
 25 26  1  0
 26 27  2  0
 26 28  1  0
 20 29  1  0
 29 30  2  0
 13 31  1  0
 31 32  1  0
 32 33  2  0
 33 34  1  0
 34 35  2  0
 35 36  1  0
 36 37  2  0
  8  3  1  0
 30 17  1  0
 37 32  1  0
 31  5  1  0
 28 22  1  0
  1 38  1  0
  1 39  1  0
  1 40  1  0
  4 41  1  0
  7 42  1  0
 10 43  1  0
 11 44  1  0
 11 45  1  0
 12 46  1  0
 12 47  1  0
 16 48  1  0
 16 49  1  0
 18 50  1  0
 19 51  1  0
 21 52  1  0
 21 53  1  0
 23 54  1  0
 23 55  1  0
 24 56  1  0
 24 57  1  0
 28 58  1  0
 28 59  1  0
 29 60  1  0
 30 61  1  0
 31 62  1  6
 33 63  1  0
 34 64  1  0
 35 65  1  0
 36 66  1  0
 37 67  1  0
M  CHG  1  25  -1
M  END
>  <UniqueID>  (76) 
70

>  <SMILES>  (76) 
COc1cc2c(cc1Cl)NCCN(C(=O)Cc1ccc(CN3CC[N-]C(=O)C3)cc1)[C@@H]2c1ccccc1

>  <Energy>  (76) 
93.3451713464052

>  <Genealogy>  (76) 
COc1cc2c(cc1Cl)NCCN(C(=O)Cc1ccc(CN3CC[N-]C(=O)C3)cc1)C2c1ccccc1 (protonated)
COc1cc2c(cc1Cl)NCCN(C(=O)Cc1ccc(CN3CC[N-]C(=O)C3)cc1)[C@@H]2c1ccccc1 (chirality)
COc1cc2c(cc1Cl)NCCN(C(=O)Cc1ccc(CN3CC[N-]C(=O)C3)cc1)[C@@H]2c1ccccc1 (3D coordinates assigned)
COc1cc2c(cc1Cl)NCCN(C(=O)Cc1ccc(CN3CC[N-]C(=O)C3)cc1)[C@@H]2c1ccccc1 (nonaromatic ring conformer: 93.3451713464052 kcal/mol)

>  <smiles>  (76) 
COc1cc2c(cc1Cl)NCCN(C(=O)Cc1ccc(CN3CCNC(=O)C3)cc1)C2c1ccccc1

>  <score_type>  (76) 
oracle

>  <origin>  (76) 
adg

>  <m_score__min__energy>  (76) 
-10.48

>  <m_primary>  (76) 
energy

$$$$
76:0
     RDKit          3D

 40 42  0  0  1  0  0  0  0  0999 V2000
   63.4010   31.9600   47.4500 C   0  0  0  0  0  0  0  0  0  0  0  0
   62.0540   32.5090   47.2640 C   0  0  0  0  0  0  0  0  0  0  0  0
   60.9140   31.7940   47.5670 C   0  0  0  0  0  0  0  0  0  0  0  0
   59.6610   32.3670   47.3690 C   0  0  0  0  0  0  0  0  0  0  0  0
   59.5120   33.6450   46.8730 C   0  0  0  0  0  0  0  0  0  0  0  0
   58.1590   34.2650   46.6580 C   0  0  0  0  0  0  0  0  0  0  0  0
   56.3330   29.8040   44.9160 N   0  0  0  0  0  0  0  0  0  0  0  0
   56.8930   30.8120   44.3770 C   0  0  0  0  0  0  0  0  0  0  0  0
   58.0560   33.0280   43.3750 N   0  0  0  0  0  0  0  0  0  0  0  0
   57.9750   31.9690   42.5740 C   0  0  0  0  0  0  0  0  0  0  0  0
   57.3800   30.8290   43.0780 C   0  0  0  0  0  0  0  0  0  0  0  0
   57.5930   33.0430   44.6370 C   0  0  0  0  0  0  0  0  0  0  0  0
   57.7240   34.1090   45.3100 N   0  0  0  0  0  0  0  0  0  0  0  0
   57.1330   28.8210   45.5570 C   0  0  0  0  0  0  0  0  0  0  0  0
   58.3390   29.2470   46.1230 C   0  0  0  0  0  0  0  0  0  0  0  0
   59.1780   28.3460   46.7680 C   0  0  0  0  0  0  0  0  0  0  0  0
   58.8160   27.0130   46.8520 C   0  0  0  0  0  0  0  0  0  0  0  0
   57.6150   26.5920   46.2880 C   0  0  0  0  0  0  0  0  0  0  0  0
   56.7710   27.4890   45.6410 C   0  0  0  0  0  0  0  0  0  0  0  0
   57.0120   31.9300   45.1310 N   0  0  0  0  0  0  0  0  0  0  0  0
   60.6790   34.3310   46.5800 C   0  0  0  0  0  0  0  0  0  0  0  0
   61.9340   33.7900   46.7640 C   0  0  0  0  0  0  0  0  0  0  0  0
   63.6160   31.8724   48.5252 H   0  0  0  0  0  0  0  0  0  0  0  0
   63.4597   30.9662   46.9822 H   0  0  0  0  0  0  0  0  0  0  0  0
   64.1377   32.6296   46.9822 H   0  0  0  0  0  0  0  0  0  0  0  0
   60.9950   30.7717   47.9648 H   0  0  0  0  0  0  0  0  0  0  0  0
   58.7623   31.7826   47.6157 H   0  0  0  0  0  0  0  0  0  0  0  0
   57.4327   33.7801   47.3269 H   0  0  0  0  0  0  0  0  0  0  0  0
   58.2325   35.3407   46.8758 H   0  0  0  0  0  0  0  0  0  0  0  0
   58.5050   33.8880   42.9920 H   0  0  0  0  0  0  0  0  0  0  0  0
   58.3678   32.0001   41.5470 H   0  0  0  0  0  0  0  0  0  0  0  0
   57.2920   29.9319   42.4476 H   0  0  0  0  0  0  0  0  0  0  0  0
   58.6266   30.3067   46.0569 H   0  0  0  0  0  0  0  0  0  0  0  0
   60.1248   28.6907   47.2094 H   0  0  0  0  0  0  0  0  0  0  0  0
   59.4723   26.2915   47.3606 H   0  0  0  0  0  0  0  0  0  0  0  0
   57.3284   25.5321   46.3550 H   0  0  0  0  0  0  0  0  0  0  0  0
   55.8247   27.1420   45.2004 H   0  0  0  0  0  0  0  0  0  0  0  0
   56.6490   31.9470   46.1250 H   0  0  0  0  0  0  0  0  0  0  0  0
   60.6012   35.3537   46.1825 H   0  0  0  0  0  0  0  0  0  0  0  0
   62.8319   34.3744   46.5144 H   0  0  0  0  0  0  0  0  0  0  0  0
  1  2  1  0
  2  3  2  0
  3  4  1  0
  4  5  2  0
  5  6  1  0
  6  7  1  0
  7  8  2  0
  8  9  1  0
  9 10  1  0
 10 11  2  0
 11 12  1  0
 12 13  2  0
 13 14  1  0
 14 15  2  0
 15 16  1  0
 16 17  2  0
 17 18  1  0
 18 19  2  0
 12 20  1  0
  5 21  1  0
 21 22  2  0
 22  2  1  0
 20  8  1  0
 19 14  1  0
  1 23  1  0
  1 24  1  0
  1 25  1  0
  3 26  1  0
  4 27  1  0
  6 28  1  0
  6 29  1  0
  9 30  1  0
 10 31  1  0
 11 32  1  0
 15 33  1  0
 16 34  1  0
 17 35  1  0
 18 36  1  0
 19 37  1  0
 20 38  1  0
 21 39  1  0
 22 40  1  0
M  END
>  <smiles>  (77) 
Cc1ccc(CN=c2[nH]ccc(=Nc3ccccc3)[nH]2)cc1

>  <score_type>  (77) 
oracle

>  <origin>  (77) 
adg

>  <m_score__min__energy>  (77) 
-8.1099999999999994

>  <m_primary>  (77) 
energy

$$$$
77:0
     RDKit          3D

 67 68  0  0  0  0  0  0  0  0999 V2000
   57.0750   30.2130   44.3340 H   0  0  0  0  0  0  0  0  0  0  0  0
   56.4600   29.6070   44.8550 O   0  0  0  0  0  0  0  0  0  0  0  0
   56.8490   28.3750   45.3880 C   0  0  0  0  0  0  0  0  0  0  0  0
   55.8970   27.4840   45.6220 O   0  0  0  0  0  0  0  0  0  0  0  0
   56.1300   26.2770   46.1150 C   0  0  0  0  0  0  0  0  0  0  0  0
   55.1590   25.4850   46.2590 O   0  0  0  0  0  0  0  0  0  0  0  0
   57.4360   25.8840   46.4610 C   0  0  0  0  0  0  0  0  0  0  0  0
   57.6850   24.5220   46.9960 C   0  0  0  0  0  0  0  0  0  0  0  0
   57.4070   24.2610   48.1980 O   0  0  0  0  0  0  0  0  0  0  0  0
   58.2920   23.5240   46.1640 N   0  0  0  0  0  0  0  0  0  0  0  0
   57.7360   22.9720   44.9620 C   0  0  0  0  0  0  0  0  0  0  0  0
   57.9750   21.6400   44.5730 C   0  0  0  0  0  0  0  0  0  0  0  0
   58.6194   20.9957   45.1891 H   0  0  0  0  0  0  0  0  0  0  0  0
   57.3950   21.1340   43.4050 C   0  0  0  0  0  0  0  0  0  0  0  0
   57.5914   20.0956   43.0997 H   0  0  0  0  0  0  0  0  0  0  0  0
   56.5660   21.9460   42.6250 C   0  0  0  0  0  0  0  0  0  0  0  0
   56.1193   21.5494   41.7014 H   0  0  0  0  0  0  0  0  0  0  0  0
   56.3050   23.2600   43.0180 C   0  0  0  0  0  0  0  0  0  0  0  0
   55.6453   23.8953   42.4088 H   0  0  0  0  0  0  0  0  0  0  0  0
   56.8820   23.7690   44.1860 C   0  0  0  0  0  0  0  0  0  0  0  0
   56.6645   24.8012   44.4980 H   0  0  0  0  0  0  0  0  0  0  0  0
   58.4850   26.8180   46.2820 C   0  0  0  0  0  0  0  0  0  0  0  0
   59.8730   26.5120   46.8070 C   0  0  0  0  0  0  0  0  0  0  0  0
   59.8580   26.5153   47.9069 H   0  0  0  0  0  0  0  0  0  0  0  0
   60.1910   25.5222   46.4476 H   0  0  0  0  0  0  0  0  0  0  0  0
   60.5777   27.2763   46.4476 H   0  0  0  0  0  0  0  0  0  0  0  0
   58.2010   28.0620   45.6620 C   0  0  0  0  0  0  0  0  0  0  0  0
   59.2850   29.0160   45.3100 C   0  0  0  0  0  0  0  0  0  0  0  0
   59.3340   29.5030   44.1490 O   0  0  0  0  0  0  0  0  0  0  0  0
   60.2850   29.4760   46.3420 C   0  0  0  0  0  0  0  0  0  0  0  0
   61.2739   29.0766   46.0728 H   0  0  0  0  0  0  0  0  0  0  0  0
   59.9410   29.1046   47.3186 H   0  0  0  0  0  0  0  0  0  0  0  0
   60.3880   31.0060   46.4460 C   0  0  0  0  0  0  0  0  0  0  0  0
   60.5355   31.4146   45.4354 H   0  0  0  0  0  0  0  0  0  0  0  0
   61.2335   31.2290   47.1134 H   0  0  0  0  0  0  0  0  0  0  0  0
   59.1390   31.6650   47.0610 C   0  0  0  0  0  0  0  0  0  0  0  0
   58.2732   31.4392   46.4212 H   0  0  0  0  0  0  0  0  0  0  0  0
   59.3353   32.7456   47.1226 H   0  0  0  0  0  0  0  0  0  0  0  0
   58.8420   31.1820   48.4580 C   0  0  0  0  0  0  0  0  0  0  0  0
   58.0463   30.4321   48.5788 H   0  0  0  0  0  0  0  0  0  0  0  0
   59.4780   31.6000   49.5690 C   0  0  0  0  0  0  0  0  0  0  0  0
   60.2780   30.9605   49.9704 H   0  0  0  0  0  0  0  0  0  0  0  0
   59.1720   32.8830   50.3030 C   0  0  0  0  0  0  0  0  0  0  0  0
   59.3835   32.7447   51.3736 H   0  0  0  0  0  0  0  0  0  0  0  0
   58.1114   33.1311   50.1498 H   0  0  0  0  0  0  0  0  0  0  0  0
   60.0280   34.0380   49.7670 C   0  0  0  0  0  0  0  0  0  0  0  0
   61.0701   33.6952   49.6867 H   0  0  0  0  0  0  0  0  0  0  0  0
   59.9278   34.8783   50.4697 H   0  0  0  0  0  0  0  0  0  0  0  0
   59.5650   34.5320   48.3850 C   0  0  0  0  0  0  0  0  0  0  0  0
   59.2416   35.5790   48.4804 H   0  0  0  0  0  0  0  0  0  0  0  0
   58.7482   33.8695   48.0626 H   0  0  0  0  0  0  0  0  0  0  0  0
   60.6630   34.4570   47.3020 C   0  0  0  0  0  0  0  0  0  0  0  0
   60.8026   35.4587   46.8695 H   0  0  0  0  0  0  0  0  0  0  0  0
   60.3365   33.7332   46.5407 H   0  0  0  0  0  0  0  0  0  0  0  0
   62.0070   33.9710   47.8680 C   0  0  0  0  0  0  0  0  0  0  0  0
   61.8271   33.1152   48.5353 H   0  0  0  0  0  0  0  0  0  0  0  0
   62.4737   34.8007   48.4192 H   0  0  0  0  0  0  0  0  0  0  0  0
   62.9560   33.5390   46.7460 C   0  0  0  0  0  0  0  0  0  0  0  0
   63.6692   34.3521   46.5453 H   0  0  0  0  0  0  0  0  0  0  0  0
   62.3595   33.3186   45.8484 H   0  0  0  0  0  0  0  0  0  0  0  0
   63.7330   32.2760   47.1380 C   0  0  0  0  0  0  0  0  0  0  0  0
   64.8080   32.4548   46.9885 H   0  0  0  0  0  0  0  0  0  0  0  0
   63.3878   31.4438   46.5069 H   0  0  0  0  0  0  0  0  0  0  0  0
   63.4870   31.9100   48.6000 C   0  0  0  0  0  0  0  0  0  0  0  0
   63.9818   32.6462   49.2505 H   0  0  0  0  0  0  0  0  0  0  0  0
   62.4056   31.9111   48.8013 H   0  0  0  0  0  0  0  0  0  0  0  0
   63.8964   30.9091   48.8013 H   0  0  0  0  0  0  0  0  0  0  0  0
  1  2  1  0
  2  3  1  0
  3  4  1  0
  4  5  1  0
  5  6  2  0
  5  7  1  0
  7  8  1  0
  8  9  2  0
  8 10  1  0
 10 11  1  0
 11 12  2  0
 12 13  1  0
 12 14  1  0
 14 15  1  0
 14 16  2  0
 16 17  1  0
 16 18  1  0
 18 19  1  0
 18 20  2  0
 20 21  1  0
  7 22  2  0
 22 23  1  0
 23 24  1  0
 23 25  1  0
 23 26  1  0
 22 27  1  0
 27 28  1  0
 28 29  2  0
 28 30  1  0
 30 31  1  0
 30 32  1  0
 30 33  1  0
 33 34  1  0
 33 35  1  0
 33 36  1  0
 36 37  1  0
 36 38  1  0
 36 39  1  0
 39 40  1  0
 39 41  2  0
 41 42  1  0
 41 43  1  0
 43 44  1  0
 43 45  1  0
 43 46  1  0
 46 47  1  0
 46 48  1  0
 46 49  1  0
 49 50  1  0
 49 51  1  0
 49 52  1  0
 52 53  1  0
 52 54  1  0
 52 55  1  0
 55 56  1  0
 55 57  1  0
 55 58  1  0
 58 59  1  0
 58 60  1  0
 58 61  1  0
 61 62  1  0
 61 63  1  0
 61 64  1  0
 64 65  1  0
 64 66  1  0
 64 67  1  0
 27  3  2  0
 20 11  1  0
M  CHG  1  10  -1
M  END
>  <UniqueID>  (78) 
71

>  <SMILES>  (78) 
CCCCCCCC/C=C\CCCC(=O)c1c(O)oc(=O)c(C(=O)[N-]c2ccccc2)c1C

>  <Energy>  (78) 
70.96700438750295

>  <Genealogy>  (78) 
CCCCCCCCC=CCCCC(=O)c1c(O)oc(=O)c(C(=O)[N-]c2ccccc2)c1C (protonated)
CCCCCCCC/C=C\CCCC(=O)c1c(O)oc(=O)c(C(=O)[N-]c2ccccc2)c1C (cis-trans isomerization)
CCCCCCCC/C=C\CCCC(=O)c1c(O)oc(=O)c(C(=O)[N-]c2ccccc2)c1C (3D coordinates assigned)
CCCCCCCC/C=C\CCCC(=O)c1c(O)oc(=O)c(C(=O)[N-]c2ccccc2)c1C (optimized conformer: 70.96700438750295 kcal/mol)

>  <smiles>  (78) 
CCCCCCCCC=CCCCC(=O)c1c(O)oc(=O)c(C(=O)Nc2ccccc2)c1C

>  <score_type>  (78) 
oracle

>  <origin>  (78) 
adg

>  <m_score__min__energy>  (78) 
-9.9100000000000001

>  <m_primary>  (78) 
energy

$$$$
78:0
     RDKit          3D

 61 65  0  0  0  0  0  0  0  0999 V2000
   53.7293   29.6668   52.0068 H   0  0  0  0  0  0  0  0  0  0  0  0
   54.6870   29.9730   52.4530 C   0  0  0  0  0  0  0  0  0  0  0  0
   55.6910   30.4290   51.6590 N   0  0  0  0  0  0  0  0  0  0  0  0
   56.8970   30.8240   52.1620 C   0  0  0  0  0  0  0  0  0  0  0  0
   57.9490   31.3100   51.2330 C   0  0  0  0  0  0  0  0  0  0  0  0
   58.3030   32.6670   51.1790 C   0  0  0  0  0  0  0  0  0  0  0  0
   57.8077   33.3881   51.8459 H   0  0  0  0  0  0  0  0  0  0  0  0
   59.2790   33.1070   50.2850 C   0  0  0  0  0  0  0  0  0  0  0  0
   59.5438   34.1741   50.2522 H   0  0  0  0  0  0  0  0  0  0  0  0
   59.9250   32.2090   49.4300 C   0  0  0  0  0  0  0  0  0  0  0  0
   61.0840   32.8870   48.2910 Cl  0  0  0  0  0  0  0  0  0  0  0  0
   59.5900   30.8330   49.4700 C   0  0  0  0  0  0  0  0  0  0  0  0
   60.2340   29.8230   48.5900 C   0  0  0  0  0  0  0  0  0  0  0  0
   61.1250   29.0650   49.0650 O   0  0  0  0  0  0  0  0  0  0  0  0
   59.9530   29.7840   47.1850 N   0  0  0  0  0  0  0  0  0  0  0  0
   58.8980   29.2970   46.5920 C   0  0  0  0  0  0  0  0  0  0  0  0
   58.6320   27.9480   46.5150 C   0  0  0  0  0  0  0  0  0  0  0  0
   59.2575   27.1126   46.8627 H   0  0  0  0  0  0  0  0  0  0  0  0
   57.3940   27.8880   45.8980 C   0  0  0  0  0  0  0  0  0  0  0  0
   56.6170   26.6740   45.5970 C   0  0  0  0  0  0  0  0  0  0  0  0
   55.4340   26.5860   46.0260 O   0  0  0  0  0  0  0  0  0  0  0  0
   57.1730   25.6200   44.7960 N   0  0  0  0  0  0  0  0  0  0  0  0
   58.0330   25.8130   44.2380 H   0  0  0  0  0  0  0  0  0  0  0  0
   56.5830   24.3130   44.7050 C   0  0  0  0  0  0  0  0  0  0  0  0
   56.0900   23.7060   43.5670 C   0  0  0  0  0  0  0  0  0  0  0  0
   56.1550   24.1118   42.5467 H   0  0  0  0  0  0  0  0  0  0  0  0
   55.5170   22.5370   43.9090 N   0  0  0  0  0  0  0  0  0  0  0  0
   55.6270   22.3900   45.2210 N   0  0  0  0  0  0  0  0  0  0  0  0
   55.1260   21.2130   45.9240 C   0  0  0  0  0  0  0  0  0  0  0  0
   55.1958   21.3769   47.0095 H   0  0  0  0  0  0  0  0  0  0  0  0
   54.0759   21.0393   45.6462 H   0  0  0  0  0  0  0  0  0  0  0  0
   55.7287   20.3358   45.6462 H   0  0  0  0  0  0  0  0  0  0  0  0
   56.2650   23.4620   45.7520 C   0  0  0  0  0  0  0  0  0  0  0  0
   56.6040   23.6540   47.1820 C   0  0  0  0  0  0  0  0  0  0  0  0
   56.2630   24.7140   47.7710 O   0  0  0  0  0  0  0  0  0  0  0  0
   57.3240   22.6470   47.8990 N   0  0  0  0  0  0  0  0  0  0  0  0
   56.9350   22.1930   49.2260 C   0  0  0  0  0  0  0  0  0  0  0  0
   57.4522   22.7967   49.9863 H   0  0  0  0  0  0  0  0  0  0  0  0
   55.8474   22.3040   49.3473 H   0  0  0  0  0  0  0  0  0  0  0  0
   57.2114   21.1352   49.3473 H   0  0  0  0  0  0  0  0  0  0  0  0
   56.9700   29.1330   45.5950 N   0  0  0  0  0  0  0  0  0  0  0  0
   57.8870   29.9930   46.0100 N   0  0  0  0  0  0  0  0  0  0  0  0
   57.8350   31.3780   45.6370 C   0  0  0  0  0  0  0  0  0  0  0  0
   57.8600   31.7370   44.2810 C   0  0  0  0  0  0  0  0  0  0  0  0
   57.9010   30.9560   43.5075 H   0  0  0  0  0  0  0  0  0  0  0  0
   57.8330   33.0850   43.9100 C   0  0  0  0  0  0  0  0  0  0  0  0
   57.8377   33.3624   42.8456 H   0  0  0  0  0  0  0  0  0  0  0  0
   57.8000   34.0810   44.8920 C   0  0  0  0  0  0  0  0  0  0  0  0
   57.7701   35.1409   44.5993 H   0  0  0  0  0  0  0  0  0  0  0  0
   57.8050   33.7300   46.2440 C   0  0  0  0  0  0  0  0  0  0  0  0
   57.7861   34.5141   47.0153 H   0  0  0  0  0  0  0  0  0  0  0  0
   57.8340   32.3830   46.6180 C   0  0  0  0  0  0  0  0  0  0  0  0
   57.8561   32.1098   47.6833 H   0  0  0  0  0  0  0  0  0  0  0  0
   58.5910   30.4060   50.3680 C   0  0  0  0  0  0  0  0  0  0  0  0
   58.3076   29.3434   50.3927 H   0  0  0  0  0  0  0  0  0  0  0  0
   57.1150   30.7440   53.5500 C   0  0  0  0  0  0  0  0  0  0  0  0
   58.0829   31.0456   53.9768 H   0  0  0  0  0  0  0  0  0  0  0  0
   56.0940   30.2790   54.3820 C   0  0  0  0  0  0  0  0  0  0  0  0
   56.2542   30.2170   55.4685 H   0  0  0  0  0  0  0  0  0  0  0  0
   54.8700   29.8930   53.8330 C   0  0  0  0  0  0  0  0  0  0  0  0
   54.0591   29.5299   54.4816 H   0  0  0  0  0  0  0  0  0  0  0  0
  1  2  1  0
  2  3  2  0
  3  4  1  0
  4  5  1  0
  5  6  2  0
  6  7  1  0
  6  8  1  0
  8  9  1  0
  8 10  2  0
 10 11  1  0
 10 12  1  0
 12 13  1  0
 13 14  2  0
 13 15  1  0
 15 16  2  0
 16 17  1  0
 17 18  1  0
 17 19  2  0
 19 20  1  0
 20 21  2  0
 20 22  1  0
 22 23  1  0
 22 24  1  0
 24 25  1  0
 25 26  1  0
 25 27  2  0
 27 28  1  0
 28 29  1  0
 29 30  1  0
 29 31  1  0
 29 32  1  0
 28 33  1  0
 33 34  1  0
 34 35  2  0
 34 36  1  0
 36 37  1  0
 37 38  1  0
 37 39  1  0
 37 40  1  0
 19 41  1  0
 41 42  1  0
 42 43  1  0
 43 44  2  0
 44 45  1  0
 44 46  1  0
 46 47  1  0
 46 48  2  0
 48 49  1  0
 48 50  1  0
 50 51  1  0
 50 52  2  0
 52 53  1  0
 12 54  2  0
 54 55  1  0
  4 56  2  0
 56 57  1  0
 56 58  1  0
 58 59  1  0
 58 60  2  0
 60 61  1  0
 60  2  1  0
 54  5  1  0
 42 16  1  0
 52 43  1  0
 33 24  2  0
M  CHG  2  36  -1  41  -1
M  END
>  <UniqueID>  (79) 
72

>  <SMILES>  (79) 
C[N-]C(=O)c1c(NC(=O)c2c/c(=N/C(=O)c3cc(-c4ccccn4)ccc3Cl)n(-c3ccccc3)[n-]2)cnn1C

>  <Energy>  (79) 
155.59330864721593

>  <Genealogy>  (79) 
C[N-]C(=O)c1c(NC(=O)c2cc(=NC(=O)c3cc(-c4ccccn4)ccc3Cl)n(-c3ccccc3)[n-]2)cnn1C (protonated)
C[N-]C(=O)c1c(NC(=O)c2c/c(=N/C(=O)c3cc(-c4ccccn4)ccc3Cl)n(-c3ccccc3)[n-]2)cnn1C (cis-trans isomerization)
C[N-]C(=O)c1c(NC(=O)c2c/c(=N/C(=O)c3cc(-c4ccccn4)ccc3Cl)n(-c3ccccc3)[n-]2)cnn1C (3D coordinates assigned)
C[N-]C(=O)c1c(NC(=O)c2c/c(=N/C(=O)c3cc(-c4ccccn4)ccc3Cl)n(-c3ccccc3)[n-]2)cnn1C (optimized conformer: 155.59330864721593 kcal/mol)

>  <smiles>  (79) 
CNC(=O)c1c(NC(=O)c2cc(=NC(=O)c3cc(-c4ccccn4)ccc3Cl)n(-c3ccccc3)[nH]2)cnn1C

>  <score_type>  (79) 
oracle

>  <origin>  (79) 
adg

>  <m_score__min__energy>  (79) 
-14.01

>  <m_primary>  (79) 
energy

$$$$
79:0
     RDKit          3D

 34 36  0  0  0  0  0  0  0  0999 V2000
   55.1500   26.4950   45.9930 O   0  0  0  0  0  0  0  0  0  0  0  0
   56.2760   27.0360   45.8100 C   0  0  0  0  0  0  0  0  0  0  0  0
   56.3320   28.3280   45.2690 C   0  0  0  0  0  0  0  0  0  0  0  0
   55.1500   28.9820   44.9280 O   0  0  0  0  0  0  0  0  0  0  0  0
   57.5780   28.9410   45.0540 C   0  0  0  0  0  0  0  0  0  0  0  0
   57.6810   30.3120   44.4950 C   0  0  0  0  0  0  0  0  0  0  0  0
   57.3240   30.5690   43.1600 C   0  0  0  0  0  0  0  0  0  0  0  0
   57.4140   31.8650   42.6420 C   0  0  0  0  0  0  0  0  0  0  0  0
   57.8550   32.9140   43.4510 C   0  0  0  0  0  0  0  0  0  0  0  0
   58.2060   32.6700   44.7820 C   0  0  0  0  0  0  0  0  0  0  0  0
   58.6350   33.6900   45.5660 F   0  0  0  0  0  0  0  0  0  0  0  0
   58.1180   31.3760   45.3040 C   0  0  0  0  0  0  0  0  0  0  0  0
   58.7410   28.2290   45.3670 C   0  0  0  0  0  0  0  0  0  0  0  0
   58.6490   26.9440   45.9020 C   0  0  0  0  0  0  0  0  0  0  0  0
   57.4300   26.3660   46.1310 N   0  0  0  0  0  0  0  0  0  0  0  0
   57.3820   24.9980   46.6700 C   0  0  0  0  0  0  0  0  0  0  0  0
   57.3780   23.9980   45.5510 C   0  0  0  0  0  0  0  0  0  0  0  0
   56.2810   23.9000   44.6830 C   0  0  0  0  0  0  0  0  0  0  0  0
   56.2890   22.9350   43.6740 C   0  0  0  0  0  0  0  0  0  0  0  0
   57.3820   22.0760   43.5440 C   0  0  0  0  0  0  0  0  0  0  0  0
   58.4540   22.1950   44.4320 C   0  0  0  0  0  0  0  0  0  0  0  0
   58.4270   23.1420   45.4090 N   0  0  0  0  0  0  0  0  0  0  0  0
   56.9721   29.7468   42.5195 H   0  0  0  0  0  0  0  0  0  0  0  0
   57.1368   32.0582   41.5952 H   0  0  0  0  0  0  0  0  0  0  0  0
   57.9262   33.9323   43.0411 H   0  0  0  0  0  0  0  0  0  0  0  0
   58.3920   31.1892   46.3528 H   0  0  0  0  0  0  0  0  0  0  0  0
   59.7277   28.6824   45.1913 H   0  0  0  0  0  0  0  0  0  0  0  0
   59.5675   26.3886   46.1427 H   0  0  0  0  0  0  0  0  0  0  0  0
   58.2630   24.8274   47.3062 H   0  0  0  0  0  0  0  0  0  0  0  0
   56.4620   24.8779   47.2609 H   0  0  0  0  0  0  0  0  0  0  0  0
   55.4218   24.5774   44.7961 H   0  0  0  0  0  0  0  0  0  0  0  0
   55.4367   22.8517   42.9835 H   0  0  0  0  0  0  0  0  0  0  0  0
   57.3989   21.3138   42.7510 H   0  0  0  0  0  0  0  0  0  0  0  0
   59.3202   21.5230   44.3414 H   0  0  0  0  0  0  0  0  0  0  0  0
  1  2  2  0
  2  3  1  0
  3  4  1  0
  3  5  2  0
  5  6  1  0
  6  7  2  0
  7  8  1  0
  8  9  2  0
  9 10  1  0
 10 11  1  0
 10 12  2  0
  5 13  1  0
 13 14  2  0
 14 15  1  0
 15 16  1  0
 16 17  1  0
 17 18  2  0
 18 19  1  0
 19 20  2  0
 20 21  1  0
 21 22  2  0
 15  2  1  0
 22 17  1  0
 12  6  1  0
  7 23  1  0
  8 24  1  0
  9 25  1  0
 12 26  1  0
 13 27  1  0
 14 28  1  0
 16 29  1  0
 16 30  1  0
 18 31  1  0
 19 32  1  0
 20 33  1  0
 21 34  1  0
M  CHG  1   4  -1
M  END
>  <UniqueID>  (80) 
73

>  <SMILES>  (80) 
O=c1c([O-])c(-c2cccc(F)c2)ccn1Cc1ccccn1

>  <Energy>  (80) 
45.94283863159098

>  <Genealogy>  (80) 
O=c1c([O-])c(-c2cccc(F)c2)ccn1Cc1ccccn1 (protonated)
O=c1c([O-])c(-c2cccc(F)c2)ccn1Cc1ccccn1 (3D coordinates assigned)
O=c1c([O-])c(-c2cccc(F)c2)ccn1Cc1ccccn1 (optimized conformer: 45.94283863159098 kcal/mol)

>  <smiles>  (80) 
O=c1c(O)c(-c2cccc(F)c2)ccn1Cc1ccccn1

>  <score_type>  (80) 
oracle

>  <origin>  (80) 
adg

>  <m_score__min__energy>  (80) 
-11.33

>  <m_primary>  (80) 
energy

$$$$
80:0
     RDKit          3D

 41 43  0  0  0  0  0  0  0  0999 V2000
   58.9480   29.2020   48.6070 C   0  0  0  0  0  0  0  0  0  0  0  0
   60.1490   30.0200   48.2730 C   0  0  0  0  0  0  0  0  0  0  0  0
   60.9530   30.5930   49.1940 N   0  0  0  0  0  0  0  0  0  0  0  0
   62.0440   31.1890   48.6340 C   0  0  0  0  0  0  0  0  0  0  0  0
   63.0800   31.9080   49.4490 C   0  0  0  0  0  0  0  0  0  0  0  0
   63.5260   33.5190   48.7050 S   0  0  0  0  0  0  0  0  0  0  0  0
   62.0070   34.4290   49.1720 C   0  0  0  0  0  0  0  0  0  0  0  0
   60.9520   34.2000   48.1270 C   0  0  0  0  0  0  0  0  0  0  0  0
   59.6320   33.9080   48.5010 C   0  0  0  0  0  0  0  0  0  0  0  0
   58.6730   33.6080   47.5320 C   0  0  0  0  0  0  0  0  0  0  0  0
   59.0150   33.6090   46.1690 C   0  0  0  0  0  0  0  0  0  0  0  0
   58.0020   33.2780   45.1390 C   0  0  0  0  0  0  0  0  0  0  0  0
   57.0320   34.0570   44.9450 O   0  0  0  0  0  0  0  0  0  0  0  0
   58.0600   32.0510   44.3970 N   0  0  0  0  0  0  0  0  0  0  0  0
   57.3380   30.9830   44.6010 C   0  0  0  0  0  0  0  0  0  0  0  0
   56.0380   30.8310   44.0720 C   0  0  0  0  0  0  0  0  0  0  0  0
   55.3140   29.6690   44.3500 C   0  0  0  0  0  0  0  0  0  0  0  0
   55.8560   28.6930   45.1250 N   0  0  0  0  0  0  0  0  0  0  0  0
   57.1010   28.8150   45.6530 C   0  0  0  0  0  0  0  0  0  0  0  0
   57.8590   29.9640   45.4080 C   0  0  0  0  0  0  0  0  0  0  0  0
   60.3300   33.9260   45.7950 C   0  0  0  0  0  0  0  0  0  0  0  0
   61.2950   34.2070   46.7670 C   0  0  0  0  0  0  0  0  0  0  0  0
   62.1080   31.0960   47.2450 C   0  0  0  0  0  0  0  0  0  0  0  0
   60.7690   30.2210   46.7230 S   0  0  0  0  0  0  0  0  0  0  0  0
   58.8447   29.1316   49.6999 H   0  0  0  0  0  0  0  0  0  0  0  0
   58.0510   29.6778   48.1838 H   0  0  0  0  0  0  0  0  0  0  0  0
   59.0622   28.1931   48.1838 H   0  0  0  0  0  0  0  0  0  0  0  0
   60.7670   30.5680   50.2210 H   0  0  0  0  0  0  0  0  0  0  0  0
   62.6823   32.0799   50.4601 H   0  0  0  0  0  0  0  0  0  0  0  0
   63.9847   31.2832   49.4829 H   0  0  0  0  0  0  0  0  0  0  0  0
   61.6454   34.0660   50.1454 H   0  0  0  0  0  0  0  0  0  0  0  0
   62.2281   35.5041   49.2441 H   0  0  0  0  0  0  0  0  0  0  0  0
   59.3508   33.9155   49.5644 H   0  0  0  0  0  0  0  0  0  0  0  0
   57.6435   33.3694   47.8372 H   0  0  0  0  0  0  0  0  0  0  0  0
   55.5985   31.6214   43.4458 H   0  0  0  0  0  0  0  0  0  0  0  0
   54.3010   29.5435   43.9399 H   0  0  0  0  0  0  0  0  0  0  0  0
   57.5144   28.0076   46.2752 H   0  0  0  0  0  0  0  0  0  0  0  0
   58.8619   30.0673   45.8480 H   0  0  0  0  0  0  0  0  0  0  0  0
   60.6034   33.9536   44.7299 H   0  0  0  0  0  0  0  0  0  0  0  0
   62.3276   34.4345   46.4638 H   0  0  0  0  0  0  0  0  0  0  0  0
   62.8947   31.5197   46.6034 H   0  0  0  0  0  0  0  0  0  0  0  0
  1  2  1  0
  2  3  2  0
  3  4  1  0
  4  5  1  0
  5  6  1  0
  6  7  1  0
  7  8  1  0
  8  9  2  0
  9 10  1  0
 10 11  2  0
 11 12  1  0
 12 13  2  0
 12 14  1  0
 14 15  2  3
 15 16  1  0
 16 17  2  0
 17 18  1  0
 18 19  1  0
 19 20  2  0
 11 21  1  0
 21 22  2  0
  4 23  2  0
 23 24  1  0
 24  2  1  0
 22  8  1  0
 20 15  1  0
  1 25  1  0
  1 26  1  0
  1 27  1  0
  3 28  1  0
  5 29  1  0
  5 30  1  0
  7 31  1  0
  7 32  1  0
  9 33  1  0
 10 34  1  0
 16 35  1  0
 17 36  1  0
 19 37  1  0
 20 38  1  0
 21 39  1  0
 22 40  1  0
 23 41  1  0
M  CHG  2   3   1  18  -1
M  END
>  <UniqueID>  (81) 
74

>  <SMILES>  (81) 
Cc1[nH+]c(CSCc2ccc(C(=O)N=c3cc[n-]cc3)cc2)cs1

>  <Energy>  (81) 
75.18933166488696

>  <Genealogy>  (81) 
Cc1[nH+]c(CSCc2ccc(C(=O)N=c3cc[n-]cc3)cc2)cs1 (protonated)
Cc1[nH+]c(CSCc2ccc(C(=O)N=c3cc[n-]cc3)cc2)cs1 (3D coordinates assigned)
Cc1[nH+]c(CSCc2ccc(C(=O)N=c3cc[n-]cc3)cc2)cs1 (optimized conformer: 75.18933166488696 kcal/mol)

>  <smiles>  (81) 
Cc1nc(CSCc2ccc(C(=O)N=c3cc[nH]cc3)cc2)cs1

>  <score_type>  (81) 
oracle

>  <origin>  (81) 
adg

>  <m_score__min__energy>  (81) 
-8.4199999999999999

>  <m_primary>  (81) 
energy

$$$$
81:0
     RDKit          3D

 43 44  0  0  0  0  0  0  0  0999 V2000
   54.7300   22.6470   48.5270 C   0  0  0  0  0  0  0  0  0  0  0  0
   55.8410   23.3580   47.3310 S   0  0  0  0  0  0  0  0  0  0  0  0
   57.0250   22.4470   47.1700 O   0  0  0  0  0  0  0  0  0  0  0  0
   56.3100   24.6940   47.8370 O   0  0  0  0  0  0  0  0  0  0  0  0
   54.9880   23.5290   45.7530 C   0  0  2  0  0  0  0  0  0  0  0  0
   55.9100   23.2690   44.5390 C   0  0  0  0  0  0  0  0  0  0  0  0
   57.4180   23.5130   44.7580 C   0  0  0  0  0  0  0  0  0  0  0  0
   57.7790   24.9750   44.8500 C   0  0  0  0  0  0  0  0  0  0  0  0
   58.2150   25.5250   46.0640 C   0  0  0  0  0  0  0  0  0  0  0  0
   58.5370   26.8820   46.1510 C   0  0  0  0  0  0  0  0  0  0  0  0
   58.4240   27.7130   45.0230 C   0  0  0  0  0  0  0  0  0  0  0  0
   58.7680   29.1070   45.0800 N   0  0  0  0  0  0  0  0  0  0  0  0
   57.8020   30.1670   45.1980 C   0  0  0  0  0  0  0  0  0  0  0  0
   56.5700   29.9150   45.1000 O   0  0  0  0  0  0  0  0  0  0  0  0
   58.2420   31.5680   45.3880 C   0  0  0  0  0  0  0  0  0  0  0  0
   58.6370   32.0030   46.6660 C   0  0  0  0  0  0  0  0  0  0  0  0
   59.0740   33.3140   46.8670 C   0  0  0  0  0  0  0  0  0  0  0  0
   59.1230   34.2090   45.7950 C   0  0  0  0  0  0  0  0  0  0  0  0
   59.6710   35.8550   46.0520 Cl  0  0  0  0  0  0  0  0  0  0  0  0
   58.7350   33.7910   44.5210 C   0  0  0  0  0  0  0  0  0  0  0  0
   58.2970   32.4780   44.3070 C   0  0  0  0  0  0  0  0  0  0  0  0
   57.7720   32.0350   42.6840 Cl  0  0  0  0  0  0  0  0  0  0  0  0
   58.0310   27.1510   43.7990 C   0  0  0  0  0  0  0  0  0  0  0  0
   57.7080   25.7950   43.7120 C   0  0  0  0  0  0  0  0  0  0  0  0
   54.2240   24.8230   45.6290 C   0  0  0  0  0  0  0  0  0  0  0  0
   54.7690   25.9330   45.8670 O   0  0  0  0  0  0  0  0  0  0  0  0
   52.8920   24.7930   45.2340 O   0  0  0  0  0  0  0  0  0  0  0  0
   55.0880   22.8761   49.5416 H   0  0  0  0  0  0  0  0  0  0  0  0
   53.7237   23.0693   48.3892 H   0  0  0  0  0  0  0  0  0  0  0  0
   54.6920   21.5563   48.3892 H   0  0  0  0  0  0  0  0  0  0  0  0
   54.2322   22.7299   45.7416 H   0  0  0  0  0  0  0  0  0  0  0  0
   55.7810   22.2184   44.2397 H   0  0  0  0  0  0  0  0  0  0  0  0
   55.6032   24.0007   43.7771 H   0  0  0  0  0  0  0  0  0  0  0  0
   57.7192   23.0195   45.6938 H   0  0  0  0  0  0  0  0  0  0  0  0
   57.9447   23.1018   43.8842 H   0  0  0  0  0  0  0  0  0  0  0  0
   58.3041   24.8841   46.9536 H   0  0  0  0  0  0  0  0  0  0  0  0
   58.8808   27.3023   47.1076 H   0  0  0  0  0  0  0  0  0  0  0  0
   59.7770   29.3590   44.9740 H   0  0  0  0  0  0  0  0  0  0  0  0
   58.6014   31.3042   47.5148 H   0  0  0  0  0  0  0  0  0  0  0  0
   59.3802   33.6427   47.8711 H   0  0  0  0  0  0  0  0  0  0  0  0
   58.7735   34.4979   43.6791 H   0  0  0  0  0  0  0  0  0  0  0  0
   57.9768   27.7835   42.9006 H   0  0  0  0  0  0  0  0  0  0  0  0
   57.3965   25.3672   42.7476 H   0  0  0  0  0  0  0  0  0  0  0  0
  1  2  1  0
  2  3  2  0
  2  4  2  0
  2  5  1  0
  5  6  1  0
  6  7  1  0
  7  8  1  0
  8  9  2  0
  9 10  1  0
 10 11  2  0
 11 12  1  0
 12 13  1  0
 13 14  2  0
 13 15  1  0
 15 16  2  0
 16 17  1  0
 17 18  2  0
 18 19  1  0
 18 20  1  0
 20 21  2  0
 21 22  1  0
 11 23  1  0
 23 24  2  0
  5 25  1  0
 25 26  2  0
 25 27  1  0
 24  8  1  0
 21 15  1  0
  1 28  1  0
  1 29  1  0
  1 30  1  0
  5 31  1  1
  6 32  1  0
  6 33  1  0
  7 34  1  0
  7 35  1  0
  9 36  1  0
 10 37  1  0
 12 38  1  0
 16 39  1  0
 17 40  1  0
 20 41  1  0
 23 42  1  0
 24 43  1  0
M  CHG  1  27  -1
M  END
>  <UniqueID>  (82) 
75

>  <SMILES>  (82) 
CS(=O)(=O)[C@H](CCc1ccc(NC(=O)c2ccc(Cl)cc2Cl)cc1)C(=O)[O-]

>  <Energy>  (82) 
45.12479277232442

>  <Genealogy>  (82) 
CS(=O)(=O)C(CCc1ccc(NC(=O)c2ccc(Cl)cc2Cl)cc1)C(=O)[O-] (protonated)
CS(=O)(=O)[C@H](CCc1ccc(NC(=O)c2ccc(Cl)cc2Cl)cc1)C(=O)[O-] (chirality)
CS(=O)(=O)[C@H](CCc1ccc(NC(=O)c2ccc(Cl)cc2Cl)cc1)C(=O)[O-] (3D coordinates assigned)
CS(=O)(=O)[C@H](CCc1ccc(NC(=O)c2ccc(Cl)cc2Cl)cc1)C(=O)[O-] (optimized conformer: 45.12479277232442 kcal/mol)

>  <smiles>  (82) 
CS(=O)(=O)C(CCc1ccc(NC(=O)c2ccc(Cl)cc2Cl)cc1)C(=O)O

>  <score_type>  (82) 
oracle

>  <origin>  (82) 
adg

>  <m_score__min__energy>  (82) 
-11.68

>  <m_primary>  (82) 
energy

$$$$
82:0
     RDKit          3D

 51 54  0  0  0  0  0  0  0  0999 V2000
   58.1530   31.9870   51.3480 C   0  0  0  0  0  0  0  0  0  0  0  0
   58.6330   30.3130   51.7240 S   0  0  0  0  0  0  0  0  0  0  0  0
   57.4660   29.3850   51.5520 O   0  0  0  0  0  0  0  0  0  0  0  0
   59.0880   30.2550   53.1540 O   0  0  0  0  0  0  0  0  0  0  0  0
   59.9440   29.8190   50.7000 N   0  0  0  0  0  0  0  0  0  0  0  0
   60.6040   30.6330   49.7190 C   0  0  0  0  0  0  0  0  0  0  0  0
   61.8300   31.2650   49.9910 C   0  0  0  0  0  0  0  0  0  0  0  0
   62.4680   32.0360   49.0070 C   0  0  0  0  0  0  0  0  0  0  0  0
   63.6900   32.6680   49.2780 C   0  0  0  0  0  0  0  0  0  0  0  0
   64.3200   33.4320   48.2900 C   0  0  0  0  0  0  0  0  0  0  0  0
   63.7360   33.5670   47.0270 C   0  0  0  0  0  0  0  0  0  0  0  0
   62.5200   32.9420   46.7460 C   0  0  0  0  0  0  0  0  0  0  0  0
   61.8780   32.1740   47.7310 C   0  0  0  0  0  0  0  0  0  0  0  0
   60.6560   31.5460   47.4620 C   0  0  0  0  0  0  0  0  0  0  0  0
   60.0110   30.7930   48.4530 C   0  0  0  0  0  0  0  0  0  0  0  0
   58.4290   30.0250   48.0600 S   0  0  0  0  0  0  0  0  0  0  0  0
   59.0330   29.2880   46.5240 C   0  0  0  0  0  0  0  0  0  0  0  0
   60.2690   28.6240   46.5790 C   0  0  0  0  0  0  0  0  0  0  0  0
   60.8470   28.0970   45.4240 C   0  0  0  0  0  0  0  0  0  0  0  0
   60.1940   28.2200   44.2000 C   0  0  0  0  0  0  0  0  0  0  0  0
   58.9460   28.8410   44.1310 C   0  0  0  0  0  0  0  0  0  0  0  0
   58.3280   29.3640   45.2890 C   0  0  0  0  0  0  0  0  0  0  0  0
   56.9410   29.9050   45.1700 C   0  0  0  0  0  0  0  0  0  0  0  0
   55.9400   29.1450   45.2190 O   0  0  0  0  0  0  0  0  0  0  0  0
   56.7370   31.3020   44.9280 N   0  0  0  0  0  0  0  0  0  0  0  0
   57.7340   32.1590   44.2990 C   0  0  0  0  0  0  0  0  0  0  0  0
   58.2710   33.1210   45.3180 C   0  0  0  0  0  0  0  0  0  0  0  0
   59.2050   34.0980   44.9420 C   0  0  0  0  0  0  0  0  0  0  0  0
   59.7340   34.9650   45.8990 C   0  0  0  0  0  0  0  0  0  0  0  0
   59.3340   34.8370   47.2300 C   0  0  0  0  0  0  0  0  0  0  0  0
   58.4340   33.8790   47.5850 N   0  0  0  0  0  0  0  0  0  0  0  0
   57.9010   33.0250   46.6700 C   0  0  0  0  0  0  0  0  0  0  0  0
   57.9939   32.5419   52.2843 H   0  0  0  0  0  0  0  0  0  0  0  0
   58.9477   32.4739   50.7637 H   0  0  0  0  0  0  0  0  0  0  0  0
   57.2210   31.9788   50.7637 H   0  0  0  0  0  0  0  0  0  0  0  0
   62.2928   31.1544   50.9827 H   0  0  0  0  0  0  0  0  0  0  0  0
   64.1542   32.5628   50.2697 H   0  0  0  0  0  0  0  0  0  0  0  0
   65.2775   33.9279   48.5074 H   0  0  0  0  0  0  0  0  0  0  0  0
   64.2361   34.1673   46.2527 H   0  0  0  0  0  0  0  0  0  0  0  0
   62.0637   33.0512   45.7511 H   0  0  0  0  0  0  0  0  0  0  0  0
   60.1989   31.6441   46.4663 H   0  0  0  0  0  0  0  0  0  0  0  0
   60.7872   28.5182   47.5435 H   0  0  0  0  0  0  0  0  0  0  0  0
   61.8186   27.5843   45.4799 H   0  0  0  0  0  0  0  0  0  0  0  0
   60.6628   27.8269   43.2858 H   0  0  0  0  0  0  0  0  0  0  0  0
   58.4357   28.9246   43.1601 H   0  0  0  0  0  0  0  0  0  0  0  0
   58.5556   31.5414   43.9072 H   0  0  0  0  0  0  0  0  0  0  0  0
   57.2724   32.7170   43.4711 H   0  0  0  0  0  0  0  0  0  0  0  0
   59.5207   34.1807   43.8915 H   0  0  0  0  0  0  0  0  0  0  0  0
   60.4579   35.7403   45.6077 H   0  0  0  0  0  0  0  0  0  0  0  0
   59.7469   35.5119   47.9942 H   0  0  0  0  0  0  0  0  0  0  0  0
   57.1795   32.2584   46.9890 H   0  0  0  0  0  0  0  0  0  0  0  0
  1  2  1  0
  2  3  2  0
  2  4  2  0
  2  5  1  0
  5  6  1  0
  6  7  2  0
  7  8  1  0
  8  9  2  0
  9 10  1  0
 10 11  2  0
 11 12  1  0
 12 13  2  0
 13 14  1  0
 14 15  2  0
 15 16  1  0
 16 17  1  0
 17 18  2  0
 18 19  1  0
 19 20  2  0
 20 21  1  0
 21 22  2  0
 22 23  1  0
 23 24  2  0
 23 25  1  0
 25 26  1  0
 26 27  1  0
 27 28  2  0
 28 29  1  0
 29 30  2  0
 30 31  1  0
 31 32  2  0
 15  6  1  0
 22 17  1  0
 32 27  1  0
 13  8  1  0
  1 33  1  0
  1 34  1  0
  1 35  1  0
  7 36  1  0
  9 37  1  0
 10 38  1  0
 11 39  1  0
 12 40  1  0
 14 41  1  0
 18 42  1  0
 19 43  1  0
 20 44  1  0
 21 45  1  0
 26 46  1  0
 26 47  1  0
 28 48  1  0
 29 49  1  0
 30 50  1  0
 32 51  1  0
M  CHG  2   5  -1  25  -1
M  END
>  <UniqueID>  (83) 
76

>  <SMILES>  (83) 
CS(=O)(=O)[N-]c1cc2ccccc2cc1Sc1ccccc1C(=O)[N-]Cc1cccnc1

>  <Energy>  (83) 
56.53087729152556

>  <Genealogy>  (83) 
CS(=O)(=O)[N-]c1cc2ccccc2cc1Sc1ccccc1C(=O)[N-]Cc1cccnc1 (protonated)
CS(=O)(=O)[N-]c1cc2ccccc2cc1Sc1ccccc1C(=O)[N-]Cc1cccnc1 (3D coordinates assigned)
CS(=O)(=O)[N-]c1cc2ccccc2cc1Sc1ccccc1C(=O)[N-]Cc1cccnc1 (optimized conformer: 56.53087729152556 kcal/mol)

>  <smiles>  (83) 
CS(=O)(=O)Nc1cc2ccccc2cc1Sc1ccccc1C(=O)NCc1cccnc1

>  <score_type>  (83) 
oracle

>  <origin>  (83) 
adg

>  <m_score__min__energy>  (83) 
-12.789999999999999

>  <m_primary>  (83) 
energy

$$$$
83:0
     RDKit          3D

 65 69  0  0  0  0  0  0  0  0999 V2000
   66.7230   34.6040   51.6570 C   0  0  0  0  0  0  0  0  0  0  0  0
   66.1700   33.2430   51.5270 N   0  0  0  0  0  0  0  0  0  0  0  0
   65.9890   32.8460   50.1100 C   0  0  0  0  0  0  0  0  0  0  0  0
   64.5530   33.0620   49.5930 C   0  0  0  0  0  0  0  0  0  0  0  0
   63.9280   34.1870   50.3100 N   0  0  0  0  0  0  0  0  0  0  0  0
   62.6470   34.5780   49.6890 C   0  0  0  0  0  0  0  0  0  0  0  0
   61.9800   33.3780   49.0720 C   0  0  0  0  0  0  0  0  0  0  0  0
   61.3480   32.4180   49.8760 C   0  0  0  0  0  0  0  0  0  0  0  0
   60.7750   31.2810   49.2990 C   0  0  0  0  0  0  0  0  0  0  0  0
   60.8120   31.0880   47.9070 C   0  0  0  0  0  0  0  0  0  0  0  0
   60.2240   29.8600   47.3150 C   0  0  0  0  0  0  0  0  0  0  0  0
   60.2780   28.6230   47.9770 C   0  0  0  0  0  0  0  0  0  0  0  0
   59.6940   27.5000   47.3870 C   0  0  0  0  0  0  0  0  0  0  0  0
   59.0490   27.6060   46.1500 C   0  0  0  0  0  0  0  0  0  0  0  0
   58.4420   26.4450   45.5580 N   0  0  0  0  0  0  0  0  0  0  0  0
   58.9960   25.1210   45.6560 C   0  0  0  0  0  0  0  0  0  0  0  0
   60.1910   24.9650   46.0330 O   0  0  0  0  0  0  0  0  0  0  0  0
   58.2050   23.9350   45.2460 C   0  0  0  0  0  0  0  0  0  0  0  0
   56.8010   24.0180   45.2060 C   0  0  0  0  0  0  0  0  0  0  0  0
   56.0230   22.9040   44.8400 C   0  0  0  0  0  0  0  0  0  0  0  0
   54.5880   22.9770   44.7870 N   0  0  0  0  0  0  0  0  0  0  0  0
   53.7260   22.7590   45.9170 C   0  0  0  0  0  0  0  0  0  0  0  0
   54.2580   22.7980   47.2090 C   0  0  0  0  0  0  0  0  0  0  0  0
   53.4450   22.5970   48.2790 N   0  0  0  0  0  0  0  0  0  0  0  0
   52.1370   22.3780   48.1300 N   0  0  0  0  0  0  0  0  0  0  0  0
   51.5580   22.3550   46.9020 C   0  0  0  0  0  0  0  0  0  0  0  0
   50.3190   22.1560   46.7980 O   0  0  0  0  0  0  0  0  0  0  0  0
   52.3440   22.5590   45.7650 C   0  0  0  0  0  0  0  0  0  0  0  0
   51.7530   22.5850   44.5060 O   0  0  0  0  0  0  0  0  0  0  0  0
   56.6660   21.7160   44.4670 C   0  0  0  0  0  0  0  0  0  0  0  0
   58.0580   21.6300   44.4850 C   0  0  0  0  0  0  0  0  0  0  0  0
   58.8300   22.7290   44.8720 C   0  0  0  0  0  0  0  0  0  0  0  0
   60.1820   22.6230   44.8320 F   0  0  0  0  0  0  0  0  0  0  0  0
   59.0530   28.8490   45.4990 C   0  0  0  0  0  0  0  0  0  0  0  0
   59.6280   29.9290   46.0910 N   0  0  0  0  0  0  0  0  0  0  0  0
   61.4510   32.0530   47.1040 C   0  0  0  0  0  0  0  0  0  0  0  0
   62.0310   33.1850   47.6840 C   0  0  0  0  0  0  0  0  0  0  0  0
   63.7360   33.8450   51.7350 C   0  0  0  0  0  0  0  0  0  0  0  0
   64.9390   33.0690   52.3220 C   0  0  0  0  0  0  0  0  0  0  0  0
   66.8261   34.8577   52.7224 H   0  0  0  0  0  0  0  0  0  0  0  0
   67.7098   34.6466   51.1728 H   0  0  0  0  0  0  0  0  0  0  0  0
   66.0456   35.3228   51.1728 H   0  0  0  0  0  0  0  0  0  0  0  0
   66.6760   33.4413   49.4905 H   0  0  0  0  0  0  0  0  0  0  0  0
   66.1991   31.7682   50.0451 H   0  0  0  0  0  0  0  0  0  0  0  0
   64.5824   33.2863   48.5165 H   0  0  0  0  0  0  0  0  0  0  0  0
   63.9639   32.1493   49.7657 H   0  0  0  0  0  0  0  0  0  0  0  0
   61.9864   35.0056   50.4575 H   0  0  0  0  0  0  0  0  0  0  0  0
   62.8418   35.3233   48.9038 H   0  0  0  0  0  0  0  0  0  0  0  0
   61.3031   32.5605   50.9658 H   0  0  0  0  0  0  0  0  0  0  0  0
   60.2905   30.5301   49.9403 H   0  0  0  0  0  0  0  0  0  0  0  0
   60.7769   28.5390   48.9537 H   0  0  0  0  0  0  0  0  0  0  0  0
   59.7414   26.5268   47.8976 H   0  0  0  0  0  0  0  0  0  0  0  0
   57.6430   26.5950   44.9010 H   0  0  0  0  0  0  0  0  0  0  0  0
   56.3053   24.9655   45.4640 H   0  0  0  0  0  0  0  0  0  0  0  0
   54.1430   23.2820   43.8910 H   0  0  0  0  0  0  0  0  0  0  0  0
   55.3306   22.9906   47.3589 H   0  0  0  0  0  0  0  0  0  0  0  0
   56.0689   20.8454   44.1579 H   0  0  0  0  0  0  0  0  0  0  0  0
   58.5514   20.6913   44.1928 H   0  0  0  0  0  0  0  0  0  0  0  0
   58.5894   28.9497   44.5066 H   0  0  0  0  0  0  0  0  0  0  0  0
   61.4939   31.9149   46.0135 H   0  0  0  0  0  0  0  0  0  0  0  0
   62.5309   33.9296   47.0471 H   0  0  0  0  0  0  0  0  0  0  0  0
   63.6026   34.7752   52.3068 H   0  0  0  0  0  0  0  0  0  0  0  0
   62.8504   33.1967   51.8082 H   0  0  0  0  0  0  0  0  0  0  0  0
   65.1260   33.4299   53.3442 H   0  0  0  0  0  0  0  0  0  0  0  0
   64.6831   31.9992   52.3094 H   0  0  0  0  0  0  0  0  0  0  0  0
  1  2  1  0
  2  3  1  0
  3  4  1  0
  4  5  1  0
  5  6  1  0
  6  7  1  0
  7  8  2  0
  8  9  1  0
  9 10  2  0
 10 11  1  0
 11 12  2  0
 12 13  1  0
 13 14  2  0
 14 15  1  0
 15 16  1  0
 16 17  2  0
 16 18  1  0
 18 19  2  0
 19 20  1  0
 20 21  1  0
 21 22  1  0
 22 23  1  0
 23 24  2  0
 24 25  1  0
 25 26  1  0
 26 27  2  0
 26 28  1  0
 28 29  1  0
 20 30  2  0
 30 31  1  0
 31 32  2  0
 32 33  1  0
 14 34  1  0
 34 35  2  0
 10 36  1  0
 36 37  2  0
  5 38  1  0
 38 39  1  0
 39  2  1  0
 37  7  1  0
 35 11  1  0
 32 18  1  0
 28 22  2  0
  1 40  1  0
  1 41  1  0
  1 42  1  0
  3 43  1  0
  3 44  1  0
  4 45  1  0
  4 46  1  0
  6 47  1  0
  6 48  1  0
  8 49  1  0
  9 50  1  0
 12 51  1  0
 13 52  1  0
 15 53  1  0
 19 54  1  0
 21 55  1  0
 23 56  1  0
 30 57  1  0
 31 58  1  0
 34 59  1  0
 36 60  1  0
 37 61  1  0
 38 62  1  0
 38 63  1  0
 39 64  1  0
 39 65  1  0
M  CHG  2  25  -1  29  -1
M  END
>  <UniqueID>  (84) 
77

>  <SMILES>  (84) 
CN1CCN(Cc2ccc(-c3ccc(NC(=O)c4cc(Nc5cn[n-]c(=O)c5[O-])ccc4F)cn3)cc2)CC1

>  <Energy>  (84) 
101.20340914938303

>  <Genealogy>  (84) 
CN1CCN(Cc2ccc(-c3ccc(NC(=O)c4cc(Nc5cn[n-]c(=O)c5[O-])ccc4F)cn3)cc2)CC1 (protonated)
CN1CCN(Cc2ccc(-c3ccc(NC(=O)c4cc(Nc5cn[n-]c(=O)c5[O-])ccc4F)cn3)cc2)CC1 (3D coordinates assigned)
CN1CCN(Cc2ccc(-c3ccc(NC(=O)c4cc(Nc5cn[n-]c(=O)c5[O-])ccc4F)cn3)cc2)CC1 (nonaromatic ring conformer: 101.20340914938303 kcal/mol)

>  <smiles>  (84) 
CN1CCN(Cc2ccc(-c3ccc(NC(=O)c4cc(Nc5cn[nH]c(=O)c5O)ccc4F)cn3)cc2)CC1

>  <score_type>  (84) 
oracle

>  <origin>  (84) 
adg

>  <m_score__min__energy>  (84) 
-13.609999999999999

>  <m_primary>  (84) 
energy

$$$$
84:0
     RDKit          3D

 42 43  0  0  0  0  0  0  0  0999 V2000
   60.4050   26.8270   47.3100 C   0  0  0  0  0  0  0  0  0  0  0  0
   59.7500   28.0270   46.9130 O   0  0  0  0  0  0  0  0  0  0  0  0
   59.7590   28.4930   45.5940 C   0  0  0  0  0  0  0  0  0  0  0  0
   60.7630   28.2810   44.8590 O   0  0  0  0  0  0  0  0  0  0  0  0
   58.5920   29.2320   45.0650 C   0  0  0  0  0  0  0  0  0  0  0  0
   57.3200   28.6300   45.0210 C   0  0  0  0  0  0  0  0  0  0  0  0
   56.2170   29.3410   44.5480 C   0  0  0  0  0  0  0  0  0  0  0  0
   56.3680   30.6580   44.1100 C   0  0  0  0  0  0  0  0  0  0  0  0
   57.6310   31.2710   44.1310 C   0  0  0  0  0  0  0  0  0  0  0  0
   57.7850   32.7170   43.7400 C   0  0  0  0  0  0  0  0  0  0  0  0
   57.8210   33.5600   44.9770 C   0  0  0  0  0  0  0  0  0  0  0  0
   57.9290   34.8130   44.8740 O   0  0  0  0  0  0  0  0  0  0  0  0
   57.8410   32.9360   46.2680 N   0  0  0  0  0  0  0  0  0  0  0  0
   58.5610   33.5280   47.3940 C   0  0  0  0  0  0  0  0  0  0  0  0
   60.0230   33.1310   47.3400 C   0  0  0  0  0  0  0  0  0  0  0  0
   60.9210   34.0220   46.7280 C   0  0  0  0  0  0  0  0  0  0  0  0
   62.2920   33.7640   46.7210 C   0  0  0  0  0  0  0  0  0  0  0  0
   62.7850   32.6060   47.3140 C   0  0  0  0  0  0  0  0  0  0  0  0
   61.9090   31.6890   47.8940 C   0  0  0  0  0  0  0  0  0  0  0  0
   60.5230   31.9310   47.9140 C   0  0  0  0  0  0  0  0  0  0  0  0
   59.6200   30.8950   48.5420 C   0  0  0  0  0  0  0  0  0  0  0  0
   58.5610   30.5790   47.6810 O   0  0  0  0  0  0  0  0  0  0  0  0
   58.7380   30.5540   44.6110 C   0  0  0  0  0  0  0  0  0  0  0  0
   60.4351   26.7718   48.4082 H   0  0  0  0  0  0  0  0  0  0  0  0
   59.8546   25.9607   46.9143 H   0  0  0  0  0  0  0  0  0  0  0  0
   61.4313   26.8213   46.9143 H   0  0  0  0  0  0  0  0  0  0  0  0
   57.1951   27.5917   45.3620 H   0  0  0  0  0  0  0  0  0  0  0  0
   55.2266   28.8632   44.5201 H   0  0  0  0  0  0  0  0  0  0  0  0
   55.4936   31.2179   43.7468 H   0  0  0  0  0  0  0  0  0  0  0  0
   58.7213   32.8485   43.1777 H   0  0  0  0  0  0  0  0  0  0  0  0
   56.9368   33.0218   43.1094 H   0  0  0  0  0  0  0  0  0  0  0  0
   57.5300   31.9430   46.3510 H   0  0  0  0  0  0  0  0  0  0  0  0
   58.4788   34.6238   47.3435 H   0  0  0  0  0  0  0  0  0  0  0  0
   58.1223   33.1643   48.3349 H   0  0  0  0  0  0  0  0  0  0  0  0
   60.5379   34.9347   46.2482 H   0  0  0  0  0  0  0  0  0  0  0  0
   62.9832   34.4761   46.2466 H   0  0  0  0  0  0  0  0  0  0  0  0
   63.8679   32.4134   47.3254 H   0  0  0  0  0  0  0  0  0  0  0  0
   62.3061   30.7657   48.3411 H   0  0  0  0  0  0  0  0  0  0  0  0
   60.2023   29.9849   48.7484 H   0  0  0  0  0  0  0  0  0  0  0  0
   59.2082   31.3026   49.4770 H   0  0  0  0  0  0  0  0  0  0  0  0
   58.6080   29.5990   47.5250 H   0  0  0  0  0  0  0  0  0  0  0  0
   59.7289   31.0312   44.6320 H   0  0  0  0  0  0  0  0  0  0  0  0
  1  2  1  0
  2  3  1  0
  3  4  2  0
  3  5  1  0
  5  6  2  0
  6  7  1  0
  7  8  2  0
  8  9  1  0
  9 10  1  0
 10 11  1  0
 11 12  2  0
 11 13  1  0
 13 14  1  0
 14 15  1  0
 15 16  2  0
 16 17  1  0
 17 18  2  0
 18 19  1  0
 19 20  2  0
 20 21  1  0
 21 22  1  0
  9 23  2  0
 23  5  1  0
 20 15  1  0
  1 24  1  0
  1 25  1  0
  1 26  1  0
  6 27  1  0
  7 28  1  0
  8 29  1  0
 10 30  1  0
 10 31  1  0
 13 32  1  0
 14 33  1  0
 14 34  1  0
 16 35  1  0
 17 36  1  0
 18 37  1  0
 19 38  1  0
 21 39  1  0
 21 40  1  0
 22 41  1  0
 23 42  1  0
M  END
>  <UniqueID>  (85) 
78

>  <SMILES>  (85) 
COC(=O)c1cccc(CC(=O)NCc2ccccc2CO)c1

>  <Energy>  (85) 
35.21860067222655

>  <Genealogy>  (85) 
COC(=O)c1cccc(CC(=O)NCc2ccccc2CO)c1 (3D coordinates assigned)
COC(=O)c1cccc(CC(=O)NCc2ccccc2CO)c1 (optimized conformer: 35.21860067222655 kcal/mol)

>  <smiles>  (85) 
COC(=O)c1cccc(CC(=O)NCc2ccccc2CO)c1

>  <score_type>  (85) 
oracle

>  <origin>  (85) 
adg

>  <m_score__min__energy>  (85) 
-8.2899999999999991

>  <m_primary>  (85) 
energy

$$$$
85:0
     RDKit          3D

 42 44  0  0  0  0  0  0  0  0999 V2000
   55.8610   25.6210   46.3170 O   0  0  0  0  0  0  0  0  0  0  0  0
   56.5660   26.6510   46.1510 C   0  0  0  0  0  0  0  0  0  0  0  0
   55.9500   27.8270   45.6150 N   0  0  0  0  0  0  0  0  0  0  0  0
   56.7640   29.0430   44.6820 S   0  0  0  0  0  0  0  0  0  0  0  0
   57.0940   28.4870   43.3250 O   0  0  0  0  0  0  0  0  0  0  0  0
   55.8570   30.2280   44.5190 O   0  0  0  0  0  0  0  0  0  0  0  0
   58.2250   29.5730   45.5120 C   0  0  0  0  0  0  0  0  0  0  0  0
   58.1460   30.3880   46.6510 C   0  0  0  0  0  0  0  0  0  0  0  0
   59.3130   30.8180   47.2880 C   0  0  0  0  0  0  0  0  0  0  0  0
   60.5710   30.4240   46.8040 C   0  0  0  0  0  0  0  0  0  0  0  0
   61.8230   30.8310   47.5360 C   0  0  0  0  0  0  0  0  0  0  0  0
   61.5310   31.8070   48.5900 N   0  0  0  0  0  0  0  0  0  0  0  0
   61.5950   33.4410   47.9870 S   0  0  0  0  0  0  0  0  0  0  0  0
   61.6680   34.4140   49.1320 O   0  0  0  0  0  0  0  0  0  0  0  0
   62.8280   33.6020   47.1420 O   0  0  0  0  0  0  0  0  0  0  0  0
   60.1790   33.7680   46.9900 C   0  0  0  0  0  0  0  0  0  0  0  0
   60.3270   33.9000   45.6020 C   0  0  0  0  0  0  0  0  0  0  0  0
   59.2060   34.0980   44.7910 C   0  0  0  0  0  0  0  0  0  0  0  0
   57.9330   34.1710   45.3620 C   0  0  0  0  0  0  0  0  0  0  0  0
   57.7800   34.0510   46.7470 C   0  0  0  0  0  0  0  0  0  0  0  0
   58.9000   33.8530   47.5610 C   0  0  0  0  0  0  0  0  0  0  0  0
   60.6460   29.6190   45.6580 C   0  0  0  0  0  0  0  0  0  0  0  0
   59.4800   29.1930   45.0190 C   0  0  0  0  0  0  0  0  0  0  0  0
   57.9900   26.6060   46.5270 C   0  0  0  0  0  0  0  0  0  0  0  0
   58.9980   26.0020   45.7850 C   0  0  0  0  0  0  0  0  0  0  0  0
   60.2690   26.1410   46.3610 C   0  0  0  0  0  0  0  0  0  0  0  0
   60.2700   26.8720   47.5410 C   0  0  0  0  0  0  0  0  0  0  0  0
   58.6900   27.3440   47.8680 S   0  0  0  0  0  0  0  0  0  0  0  0
   57.1635   30.6892   47.0435 H   0  0  0  0  0  0  0  0  0  0  0  0
   59.2460   31.4682   48.1727 H   0  0  0  0  0  0  0  0  0  0  0  0
   62.2784   29.9387   47.9903 H   0  0  0  0  0  0  0  0  0  0  0  0
   62.5114   31.2952   46.8144 H   0  0  0  0  0  0  0  0  0  0  0  0
   61.3284   33.8476   45.1499 H   0  0  0  0  0  0  0  0  0  0  0  0
   59.3262   34.1965   43.7020 H   0  0  0  0  0  0  0  0  0  0  0  0
   57.0511   34.3229   44.7223 H   0  0  0  0  0  0  0  0  0  0  0  0
   56.7779   34.1124   47.1965 H   0  0  0  0  0  0  0  0  0  0  0  0
   58.7781   33.7638   48.6506 H   0  0  0  0  0  0  0  0  0  0  0  0
   61.6278   29.3219   45.2608 H   0  0  0  0  0  0  0  0  0  0  0  0
   59.5471   28.5562   44.1246 H   0  0  0  0  0  0  0  0  0  0  0  0
   58.8170   25.4683   44.8404 H   0  0  0  0  0  0  0  0  0  0  0  0
   61.1799   25.7110   45.9191 H   0  0  0  0  0  0  0  0  0  0  0  0
   61.1524   27.1026   48.1560 H   0  0  0  0  0  0  0  0  0  0  0  0
  1  2  2  0
  2  3  1  0
  3  4  1  0
  4  5  2  0
  4  6  2  0
  4  7  1  0
  7  8  2  0
  8  9  1  0
  9 10  2  0
 10 11  1  0
 11 12  1  0
 12 13  1  0
 13 14  2  0
 13 15  2  0
 13 16  1  0
 16 17  2  0
 17 18  1  0
 18 19  2  0
 19 20  1  0
 20 21  2  0
 10 22  1  0
 22 23  2  0
  2 24  1  0
 24 25  2  0
 25 26  1  0
 26 27  2  0
 27 28  1  0
 23  7  1  0
 28 24  1  0
 21 16  1  0
  8 29  1  0
  9 30  1  0
 11 31  1  0
 11 32  1  0
 17 33  1  0
 18 34  1  0
 19 35  1  0
 20 36  1  0
 21 37  1  0
 22 38  1  0
 23 39  1  0
 25 40  1  0
 26 41  1  0
 27 42  1  0
M  CHG  2   3  -1  12  -1
M  END
>  <UniqueID>  (86) 
79

>  <SMILES>  (86) 
O=C([N-]S(=O)(=O)c1ccc(C[N-]S(=O)(=O)c2ccccc2)cc1)c1cccs1

>  <Energy>  (86) 
70.54732723093427

>  <Genealogy>  (86) 
O=C([N-]S(=O)(=O)c1ccc(C[N-]S(=O)(=O)c2ccccc2)cc1)c1cccs1 (protonated)
O=C([N-]S(=O)(=O)c1ccc(C[N-]S(=O)(=O)c2ccccc2)cc1)c1cccs1 (3D coordinates assigned)
O=C([N-]S(=O)(=O)c1ccc(C[N-]S(=O)(=O)c2ccccc2)cc1)c1cccs1 (optimized conformer: 70.54732723093427 kcal/mol)

>  <smiles>  (86) 
O=C(NS(=O)(=O)c1ccc(CNS(=O)(=O)c2ccccc2)cc1)c1cccs1

>  <score_type>  (86) 
oracle

>  <origin>  (86) 
adg

>  <m_score__min__energy>  (86) 
-11.98

>  <m_primary>  (86) 
energy

$$$$
86:0
     RDKit          3D

 45 47  0  0  0  0  0  0  0  0999 V2000
   57.5730   32.1500   41.6390 N   0  0  0  0  0  0  0  0  0  0  0  0
   57.0310   31.3350   42.2550 C   0  0  0  0  0  0  0  0  0  0  0  0
   56.3430   30.3020   43.0350 C   0  0  0  0  0  0  0  0  0  0  0  0
   57.2490   29.7880   44.1180 C   0  0  0  0  0  0  0  0  0  0  0  0
   58.4510   30.4510   44.4110 C   0  0  0  0  0  0  0  0  0  0  0  0
   59.2770   29.9950   45.4420 C   0  0  0  0  0  0  0  0  0  0  0  0
   58.9100   28.8670   46.2010 C   0  0  0  0  0  0  0  0  0  0  0  0
   59.7030   28.3620   47.2440 O   0  0  0  0  0  0  0  0  0  0  0  0
   59.6040   28.7470   48.6150 C   0  0  0  0  0  0  0  0  0  0  0  0
   60.4020   29.9910   48.8740 C   0  0  0  0  0  0  0  0  0  0  0  0
   60.5330   30.4010   50.0580 O   0  0  0  0  0  0  0  0  0  0  0  0
   61.0240   30.6900   47.7850 N   0  0  0  0  0  0  0  0  0  0  0  0
   61.8230   31.8730   47.9590 C   0  0  0  0  0  0  0  0  0  0  0  0
   63.1800   31.8700   47.5910 C   0  0  0  0  0  0  0  0  0  0  0  0
   63.9580   33.0200   47.7450 C   0  0  0  0  0  0  0  0  0  0  0  0
   63.3910   34.1830   48.2650 C   0  0  0  0  0  0  0  0  0  0  0  0
   62.0470   34.1970   48.6430 C   0  0  0  0  0  0  0  0  0  0  0  0
   61.2630   33.0410   48.5170 C   0  0  0  0  0  0  0  0  0  0  0  0
   59.5350   33.1070   49.0240 S   0  0  0  0  0  0  0  0  0  0  0  0
   58.9460   33.5210   47.3770 C   0  0  0  0  0  0  0  0  0  0  0  0
   57.7070   33.0500   46.9240 C   0  0  0  0  0  0  0  0  0  0  0  0
   57.2530   33.3890   45.6450 C   0  0  0  0  0  0  0  0  0  0  0  0
   58.0420   34.1880   44.8110 C   0  0  0  0  0  0  0  0  0  0  0  0
   59.2870   34.6400   45.2510 C   0  0  0  0  0  0  0  0  0  0  0  0
   59.7410   34.3070   46.5320 C   0  0  0  0  0  0  0  0  0  0  0  0
   57.7030   28.2170   45.9150 C   0  0  0  0  0  0  0  0  0  0  0  0
   56.8750   28.6740   44.8860 C   0  0  0  0  0  0  0  0  0  0  0  0
   55.4381   30.7312   43.4901 H   0  0  0  0  0  0  0  0  0  0  0  0
   56.0672   29.4705   42.3697 H   0  0  0  0  0  0  0  0  0  0  0  0
   58.7446   31.3348   43.8256 H   0  0  0  0  0  0  0  0  0  0  0  0
   60.2185   30.5198   45.6617 H   0  0  0  0  0  0  0  0  0  0  0  0
   58.5489   28.9366   48.8618 H   0  0  0  0  0  0  0  0  0  0  0  0
   60.0016   27.9344   49.2408 H   0  0  0  0  0  0  0  0  0  0  0  0
   60.9840   30.2530   46.8390 H   0  0  0  0  0  0  0  0  0  0  0  0
   63.6322   30.9558   47.1790 H   0  0  0  0  0  0  0  0  0  0  0  0
   65.0192   33.0081   47.4557 H   0  0  0  0  0  0  0  0  0  0  0  0
   64.0030   35.0901   48.3775 H   0  0  0  0  0  0  0  0  0  0  0  0
   61.6006   35.1198   49.0418 H   0  0  0  0  0  0  0  0  0  0  0  0
   57.0903   32.4128   47.5748 H   0  0  0  0  0  0  0  0  0  0  0  0
   56.2750   33.0270   45.2950 H   0  0  0  0  0  0  0  0  0  0  0  0
   57.6812   34.4602   43.8081 H   0  0  0  0  0  0  0  0  0  0  0  0
   59.9119   35.2586   44.5901 H   0  0  0  0  0  0  0  0  0  0  0  0
   60.7233   34.6627   46.8762 H   0  0  0  0  0  0  0  0  0  0  0  0
   57.4038   27.3386   46.5057 H   0  0  0  0  0  0  0  0  0  0  0  0
   55.9260   28.1585   44.6770 H   0  0  0  0  0  0  0  0  0  0  0  0
  1  2  3  0
  2  3  1  0
  3  4  1  0
  4  5  2  0
  5  6  1  0
  6  7  2  0
  7  8  1  0
  8  9  1  0
  9 10  1  0
 10 11  2  0
 10 12  1  0
 12 13  1  0
 13 14  2  0
 14 15  1  0
 15 16  2  0
 16 17  1  0
 17 18  2  0
 18 19  1  0
 19 20  1  0
 20 21  2  0
 21 22  1  0
 22 23  2  0
 23 24  1  0
 24 25  2  0
  7 26  1  0
 26 27  2  0
 27  4  1  0
 18 13  1  0
 25 20  1  0
  3 28  1  0
  3 29  1  0
  5 30  1  0
  6 31  1  0
  9 32  1  0
  9 33  1  0
 12 34  1  0
 14 35  1  0
 15 36  1  0
 16 37  1  0
 17 38  1  0
 21 39  1  0
 22 40  1  0
 23 41  1  0
 24 42  1  0
 25 43  1  0
 26 44  1  0
 27 45  1  0
M  END
>  <UniqueID>  (87) 
80

>  <SMILES>  (87) 
N#CCc1ccc(OCC(=O)Nc2ccccc2Sc2ccccc2)cc1

>  <Energy>  (87) 
44.48043053138457

>  <Genealogy>  (87) 
N#CCc1ccc(OCC(=O)Nc2ccccc2Sc2ccccc2)cc1 (3D coordinates assigned)
N#CCc1ccc(OCC(=O)Nc2ccccc2Sc2ccccc2)cc1 (optimized conformer: 44.48043053138457 kcal/mol)

>  <smiles>  (87) 
N#CCc1ccc(OCC(=O)Nc2ccccc2Sc2ccccc2)cc1

>  <score_type>  (87) 
oracle

>  <origin>  (87) 
adg

>  <m_score__min__energy>  (87) 
-7.7599999999999998

>  <m_primary>  (87) 
energy

$$$$
87:0
     RDKit          3D

 43 45  0  0  0  0  0  0  0  0999 V2000
   55.1440   27.4510   46.0000 H   0  0  0  0  0  0  0  0  0  0  0  0
   55.2090   26.4080   46.0010 N   0  0  0  0  0  0  0  0  0  0  0  0
   56.8710   26.0070   46.2510 S   0  0  0  0  0  0  0  0  0  0  0  0
   57.0030   25.1500   47.4780 O   0  0  0  0  0  0  0  0  0  0  0  0
   57.3700   25.2350   45.0620 O   0  0  0  0  0  0  0  0  0  0  0  0
   57.8090   27.4860   46.4650 C   0  0  0  0  0  0  0  0  0  0  0  0
   58.8540   27.5290   47.4000 C   0  0  0  0  0  0  0  0  0  0  0  0
   59.0870   26.6333   47.9946 H   0  0  0  0  0  0  0  0  0  0  0  0
   59.6050   28.6970   47.5870 C   0  0  0  0  0  0  0  0  0  0  0  0
   60.6700   28.6710   48.5530 N   0  0  0  0  0  0  0  0  0  0  0  0
   61.0310   29.6430   49.3350 C   0  0  0  0  0  0  0  0  0  0  0  0
   61.0906   29.4669   50.4192 H   0  0  0  0  0  0  0  0  0  0  0  0
   61.3650   30.9860   48.7990 C   0  0  0  0  0  0  0  0  0  0  0  0
   62.4850   31.1020   47.9620 C   0  0  0  0  0  0  0  0  0  0  0  0
   63.0820   30.2091   47.7247 H   0  0  0  0  0  0  0  0  0  0  0  0
   62.8490   32.3370   47.4280 C   0  0  0  0  0  0  0  0  0  0  0  0
   63.7297   32.4125   46.7733 H   0  0  0  0  0  0  0  0  0  0  0  0
   62.1020   33.4760   47.7200 C   0  0  0  0  0  0  0  0  0  0  0  0
   62.3965   34.4464   47.2937 H   0  0  0  0  0  0  0  0  0  0  0  0
   60.9740   33.3940   48.5560 C   0  0  0  0  0  0  0  0  0  0  0  0
   60.1810   34.6070   48.8690 C   0  0  0  0  0  0  0  0  0  0  0  0
   60.4390   35.2139   49.7494 H   0  0  0  0  0  0  0  0  0  0  0  0
   59.1830   34.9610   48.1130 N   0  0  0  0  0  0  0  0  0  0  0  0
   58.8040   34.3640   46.8610 C   0  0  0  0  0  0  0  0  0  0  0  0
   57.7360   33.4500   46.7400 C   0  0  0  0  0  0  0  0  0  0  0  0
   57.1594   33.1595   47.6306 H   0  0  0  0  0  0  0  0  0  0  0  0
   57.4080   32.9120   45.4910 C   0  0  0  0  0  0  0  0  0  0  0  0
   56.5792   32.1941   45.4035 H   0  0  0  0  0  0  0  0  0  0  0  0
   58.1300   33.2840   44.3550 C   0  0  0  0  0  0  0  0  0  0  0  0
   57.8732   32.8556   43.3749 H   0  0  0  0  0  0  0  0  0  0  0  0
   59.1780   34.2000   44.4640 C   0  0  0  0  0  0  0  0  0  0  0  0
   59.7434   34.4966   43.5683 H   0  0  0  0  0  0  0  0  0  0  0  0
   59.5100   34.7410   45.7100 C   0  0  0  0  0  0  0  0  0  0  0  0
   60.3317   35.4682   45.7876 H   0  0  0  0  0  0  0  0  0  0  0  0
   60.6060   32.1440   49.0980 C   0  0  0  0  0  0  0  0  0  0  0  0
   59.4920   32.0610   49.9300 O   0  0  0  0  0  0  0  0  0  0  0  0
   59.3130   29.8300   46.8030 C   0  0  0  0  0  0  0  0  0  0  0  0
   59.9061   30.7483   46.9250 H   0  0  0  0  0  0  0  0  0  0  0  0
   58.2730   29.7920   45.8710 C   0  0  0  0  0  0  0  0  0  0  0  0
   58.0465   30.6839   45.2683 H   0  0  0  0  0  0  0  0  0  0  0  0
   57.5170   28.6260   45.6990 C   0  0  0  0  0  0  0  0  0  0  0  0
   56.4800   28.5980   44.7670 O   0  0  0  0  0  0  0  0  0  0  0  0
   56.0160   27.7330   44.5150 H   0  0  0  0  0  0  0  0  0  0  0  0
  1  2  1  0
  2  3  1  0
  3  4  2  0
  3  5  2  0
  3  6  1  0
  6  7  2  0
  7  8  1  0
  7  9  1  0
  9 10  1  0
 10 11  2  3
 11 12  1  0
 11 13  1  0
 13 14  2  0
 14 15  1  0
 14 16  1  0
 16 17  1  0
 16 18  2  0
 18 19  1  0
 18 20  1  0
 20 21  1  0
 21 22  1  0
 21 23  2  0
 23 24  1  0
 24 25  2  0
 25 26  1  0
 25 27  1  0
 27 28  1  0
 27 29  2  0
 29 30  1  0
 29 31  1  0
 31 32  1  0
 31 33  2  0
 33 34  1  0
 20 35  2  0
 35 36  1  0
  9 37  2  0
 37 38  1  0
 37 39  1  0
 39 40  1  0
 39 41  2  0
 41 42  1  0
 42 43  1  0
 41  6  1  0
 35 13  1  0
 33 24  1  0
M  CHG  2   2  -1  36  -1
M  END
>  <UniqueID>  (88) 
81

>  <SMILES>  (88) 
[NH-]S(=O)(=O)c1cc(N=Cc2cccc(/C=N/c3ccccc3)c2[O-])ccc1O

>  <Energy>  (88) 
54.54480106078543

>  <Genealogy>  (88) 
[NH-]S(=O)(=O)c1cc(N=Cc2cccc(C=Nc3ccccc3)c2[O-])ccc1O (protonated)
[NH-]S(=O)(=O)c1cc(N=Cc2cccc(/C=N/c3ccccc3)c2[O-])ccc1O (cis-trans isomerization)
[NH-]S(=O)(=O)c1cc(N=Cc2cccc(/C=N/c3ccccc3)c2[O-])ccc1O (3D coordinates assigned)
[NH-]S(=O)(=O)c1cc(N=Cc2cccc(/C=N/c3ccccc3)c2[O-])ccc1O (optimized conformer: 54.54480106078543 kcal/mol)

>  <smiles>  (88) 
NS(=O)(=O)c1cc(N=Cc2cccc(C=Nc3ccccc3)c2O)ccc1O

>  <score_type>  (88) 
oracle

>  <origin>  (88) 
adg

>  <m_score__min__energy>  (88) 
-14.09

>  <m_primary>  (88) 
energy

$$$$
88:0
     RDKit          3D

 58 61  0  0  0  0  0  0  0  0999 V2000
   62.7300   32.0440   47.4970 C   0  0  0  0  0  0  0  0  0  0  0  0
   61.4540   31.5750   47.0780 O   0  0  0  0  0  0  0  0  0  0  0  0
   60.8430   30.4020   47.5480 C   0  0  0  0  0  0  0  0  0  0  0  0
   60.7560   29.2380   46.7600 C   0  0  0  0  0  0  0  0  0  0  0  0
   60.1510   28.0850   47.2700 C   0  0  0  0  0  0  0  0  0  0  0  0
   59.6310   28.0820   48.5660 C   0  0  0  0  0  0  0  0  0  0  0  0
   59.7070   29.2340   49.3530 C   0  0  0  0  0  0  0  0  0  0  0  0
   60.3040   30.3940   48.8460 C   0  0  0  0  0  0  0  0  0  0  0  0
   60.3510   31.5700   49.6540 N   0  0  0  0  0  0  0  0  0  0  0  0
   59.1750   32.8250   49.4560 S   0  0  0  0  0  0  0  0  0  0  0  0
   59.5520   33.9960   50.3190 O   0  0  0  0  0  0  0  0  0  0  0  0
   57.8260   32.3230   49.8920 O   0  0  0  0  0  0  0  0  0  0  0  0
   59.1180   33.3300   47.7700 C   0  0  0  0  0  0  0  0  0  0  0  0
   59.7290   34.5260   47.3790 C   0  0  0  0  0  0  0  0  0  0  0  0
   59.6250   34.9690   46.0600 C   0  0  0  0  0  0  0  0  0  0  0  0
   58.9050   34.2240   45.1240 C   0  0  0  0  0  0  0  0  0  0  0  0
   58.2790   33.0210   45.4990 C   0  0  0  0  0  0  0  0  0  0  0  0
   57.4980   32.2380   44.5130 C   0  0  0  0  0  0  0  0  0  0  0  0
   57.4520   32.6110   43.3080 O   0  0  0  0  0  0  0  0  0  0  0  0
   56.8450   31.0270   44.9150 N   0  0  0  0  0  0  0  0  0  0  0  0
   57.3720   29.6980   44.8010 C   0  0  0  0  0  0  0  0  0  0  0  0
   58.6400   29.5240   44.2310 C   0  0  0  0  0  0  0  0  0  0  0  0
   59.1970   28.2480   44.1220 C   0  0  0  0  0  0  0  0  0  0  0  0
   58.4990   27.1360   44.5960 C   0  0  0  0  0  0  0  0  0  0  0  0
   57.2400   27.2950   45.1890 C   0  0  0  0  0  0  0  0  0  0  0  0
   56.3830   25.8840   45.8040 S   0  0  0  0  0  0  0  0  0  0  0  0
   54.9260   26.2130   45.9940 O   0  0  0  0  0  0  0  0  0  0  0  0
   56.9760   25.4960   47.1300 O   0  0  0  0  0  0  0  0  0  0  0  0
   56.5550   24.5630   44.6760 N   0  0  0  0  0  0  0  0  0  0  0  0
   55.5440   23.5310   44.9060 C   0  0  0  0  0  0  0  0  0  0  0  0
   56.1430   22.2210   44.4180 C   0  0  0  0  0  0  0  0  0  0  0  0
   57.6440   22.4570   44.3720 C   0  0  0  0  0  0  0  0  0  0  0  0
   57.8430   23.8910   44.8380 C   0  0  0  0  0  0  0  0  0  0  0  0
   56.6830   28.5770   45.3020 C   0  0  0  0  0  0  0  0  0  0  0  0
   58.3960   32.5790   46.8310 C   0  0  0  0  0  0  0  0  0  0  0  0
   62.7722   32.0595   48.5961 H   0  0  0  0  0  0  0  0  0  0  0  0
   63.5121   31.3746   47.1095 H   0  0  0  0  0  0  0  0  0  0  0  0
   62.8924   33.0606   47.1095 H   0  0  0  0  0  0  0  0  0  0  0  0
   61.1656   29.2358   45.7391 H   0  0  0  0  0  0  0  0  0  0  0  0
   60.0846   27.1792   46.6495 H   0  0  0  0  0  0  0  0  0  0  0  0
   59.1612   27.1720   48.9676 H   0  0  0  0  0  0  0  0  0  0  0  0
   59.2966   29.2293   50.3736 H   0  0  0  0  0  0  0  0  0  0  0  0
   60.2933   35.1192   48.1137 H   0  0  0  0  0  0  0  0  0  0  0  0
   60.1116   35.9078   45.7567 H   0  0  0  0  0  0  0  0  0  0  0  0
   58.8266   34.5801   44.0862 H   0  0  0  0  0  0  0  0  0  0  0  0
   59.2003   30.3979   43.8671 H   0  0  0  0  0  0  0  0  0  0  0  0
   60.1877   28.1190   43.6617 H   0  0  0  0  0  0  0  0  0  0  0  0
   58.9389   26.1320   44.5036 H   0  0  0  0  0  0  0  0  0  0  0  0
   55.3068   23.4640   45.9780 H   0  0  0  0  0  0  0  0  0  0  0  0
   54.6104   23.7638   44.3728 H   0  0  0  0  0  0  0  0  0  0  0  0
   55.9028   21.4045   45.1149 H   0  0  0  0  0  0  0  0  0  0  0  0
   55.7441   21.9293   43.4353 H   0  0  0  0  0  0  0  0  0  0  0  0
   58.1640   21.7585   45.0441 H   0  0  0  0  0  0  0  0  0  0  0  0
   58.0525   22.2946   43.3636 H   0  0  0  0  0  0  0  0  0  0  0  0
   58.1503   23.9081   45.8941 H   0  0  0  0  0  0  0  0  0  0  0  0
   58.6294   24.3929   44.2553 H   0  0  0  0  0  0  0  0  0  0  0  0
   55.7031   28.7074   45.7844 H   0  0  0  0  0  0  0  0  0  0  0  0
   57.9173   31.6372   47.1374 H   0  0  0  0  0  0  0  0  0  0  0  0
  1  2  1  0
  2  3  1  0
  3  4  2  0
  4  5  1  0
  5  6  2  0
  6  7  1  0
  7  8  2  0
  8  9  1  0
  9 10  1  0
 10 11  2  0
 10 12  2  0
 10 13  1  0
 13 14  2  0
 14 15  1  0
 15 16  2  0
 16 17  1  0
 17 18  1  0
 18 19  2  0
 18 20  1  0
 20 21  1  0
 21 22  2  0
 22 23  1  0
 23 24  2  0
 24 25  1  0
 25 26  1  0
 26 27  2  0
 26 28  2  0
 26 29  1  0
 29 30  1  0
 30 31  1  0
 31 32  1  0
 32 33  1  0
 25 34  2  0
 17 35  2  0
  8  3  1  0
 35 13  1  0
 34 21  1  0
 33 29  1  0
  1 36  1  0
  1 37  1  0
  1 38  1  0
  4 39  1  0
  5 40  1  0
  6 41  1  0
  7 42  1  0
 14 43  1  0
 15 44  1  0
 16 45  1  0
 22 46  1  0
 23 47  1  0
 24 48  1  0
 30 49  1  0
 30 50  1  0
 31 51  1  0
 31 52  1  0
 32 53  1  0
 32 54  1  0
 33 55  1  0
 33 56  1  0
 34 57  1  0
 35 58  1  0
M  CHG  2   9  -1  20  -1
M  END
>  <UniqueID>  (89) 
82

>  <SMILES>  (89) 
COc1ccccc1[N-]S(=O)(=O)c1cccc(C(=O)[N-]c2cccc(S(=O)(=O)N3CCCC3)c2)c1

>  <Energy>  (89) 
73.37169465066894

>  <Genealogy>  (89) 
COc1ccccc1[N-]S(=O)(=O)c1cccc(C(=O)[N-]c2cccc(S(=O)(=O)N3CCCC3)c2)c1 (protonated)
COc1ccccc1[N-]S(=O)(=O)c1cccc(C(=O)[N-]c2cccc(S(=O)(=O)N3CCCC3)c2)c1 (3D coordinates assigned)
COc1ccccc1[N-]S(=O)(=O)c1cccc(C(=O)[N-]c2cccc(S(=O)(=O)N3CCCC3)c2)c1 (nonaromatic ring conformer: 73.37169465066894 kcal/mol)

>  <smiles>  (89) 
COc1ccccc1NS(=O)(=O)c1cccc(C(=O)Nc2cccc(S(=O)(=O)N3CCCC3)c2)c1

>  <score_type>  (89) 
oracle

>  <origin>  (89) 
adg

>  <m_score__min__energy>  (89) 
-13.800000000000001

>  <m_primary>  (89) 
energy

$$$$
89:0
     RDKit          3D

 64 67  0  0  0  0  0  0  0  0999 V2000
   56.6170   31.6290   52.9660 C   0  0  0  0  0  0  0  0  0  0  0  0
   57.4200   30.4840   52.3370 C   0  0  0  0  0  0  0  0  0  0  0  0
   58.6680   30.1610   53.1930 C   0  0  0  0  0  0  0  0  0  0  0  0
   59.7830   29.5710   52.3260 C   0  0  0  0  0  0  0  0  0  0  0  0
   60.2520   30.5510   51.3230 N   0  0  0  0  0  0  0  0  0  0  0  0
   61.2040   29.7630   50.0860 S   0  0  0  0  0  0  0  0  0  0  0  0
   61.6580   28.4160   50.5770 O   0  0  0  0  0  0  0  0  0  0  0  0
   62.4270   30.5940   49.8130 O   0  0  0  0  0  0  0  0  0  0  0  0
   60.3000   29.5520   48.5840 C   0  0  0  0  0  0  0  0  0  0  0  0
   60.0770   30.6550   47.7250 C   0  0  0  0  0  0  0  0  0  0  0  0
   59.3730   30.4960   46.5170 C   0  0  0  0  0  0  0  0  0  0  0  0
   58.9070   29.2180   46.1950 C   0  0  0  0  0  0  0  0  0  0  0  0
   59.1190   28.1510   47.0290 C   0  0  0  0  0  0  0  0  0  0  0  0
   58.5230   27.0490   46.4570 C   0  0  0  0  0  0  0  0  0  0  0  0
   57.9610   27.5080   45.2720 C   0  0  0  0  0  0  0  0  0  0  0  0
   58.2070   28.8310   45.1090 N   0  0  0  0  0  0  0  0  0  0  0  0
   57.7120   29.6640   44.0120 C   0  0  0  0  0  0  0  0  0  0  0  0
   56.5750   30.5120   44.4860 C   0  0  0  0  0  0  0  0  0  0  0  0
   55.5030   29.9680   44.8660 O   0  0  0  0  0  0  0  0  0  0  0  0
   56.7190   31.9370   44.5100 N   0  0  0  0  0  0  0  0  0  0  0  0
   57.0290   32.7140   45.7070 C   0  0  0  0  0  0  0  0  0  0  0  0
   58.0220   33.8400   45.3930 C   0  0  0  0  0  0  0  0  0  0  0  0
   59.1470   33.8920   46.3930 C   0  0  0  0  0  0  0  0  0  0  0  0
   60.4810   33.8290   45.9580 C   0  0  0  0  0  0  0  0  0  0  0  0
   61.5270   33.8280   46.8860 C   0  0  0  0  0  0  0  0  0  0  0  0
   61.2500   33.8820   48.2590 C   0  0  0  0  0  0  0  0  0  0  0  0
   62.5480   33.8530   49.4480 S   0  0  0  0  0  0  0  0  0  0  0  0
   62.0520   32.9240   50.8210 N   0  0  0  0  0  0  0  0  0  0  0  0
   63.7840   33.2370   48.8520 O   0  0  0  0  0  0  0  0  0  0  0  0
   62.8640   35.2580   49.8780 O   0  0  0  0  0  0  0  0  0  0  0  0
   59.9220   33.9330   48.6930 C   0  0  0  0  0  0  0  0  0  0  0  0
   58.8740   33.9470   47.7690 C   0  0  0  0  0  0  0  0  0  0  0  0
   59.8170   28.2760   48.2270 C   0  0  0  0  0  0  0  0  0  0  0  0
   59.1890   31.4080   50.7420 C   0  0  0  0  0  0  0  0  0  0  0  0
   57.7860   30.7940   50.8650 C   0  0  0  0  0  0  0  0  0  0  0  0
   56.6693   31.5545   54.0622 H   0  0  0  0  0  0  0  0  0  0  0  0
   57.0382   32.5926   52.6435 H   0  0  0  0  0  0  0  0  0  0  0  0
   55.5675   31.5612   52.6435 H   0  0  0  0  0  0  0  0  0  0  0  0
   56.7872   29.5844   52.3217 H   0  0  0  0  0  0  0  0  0  0  0  0
   59.0300   31.0856   53.6663 H   0  0  0  0  0  0  0  0  0  0  0  0
   58.3889   29.4229   53.9594 H   0  0  0  0  0  0  0  0  0  0  0  0
   60.6269   29.2854   52.9712 H   0  0  0  0  0  0  0  0  0  0  0  0
   59.3863   28.6920   51.7969 H   0  0  0  0  0  0  0  0  0  0  0  0
   60.4585   31.6480   48.0051 H   0  0  0  0  0  0  0  0  0  0  0  0
   59.1950   31.3503   45.8473 H   0  0  0  0  0  0  0  0  0  0  0  0
   58.4973   26.0234   46.8539 H   0  0  0  0  0  0  0  0  0  0  0  0
   57.3950   26.8843   44.5644 H   0  0  0  0  0  0  0  0  0  0  0  0
   58.5244   30.3123   43.6518 H   0  0  0  0  0  0  0  0  0  0  0  0
   57.3624   29.0151   43.1955 H   0  0  0  0  0  0  0  0  0  0  0  0
   56.1005   33.1533   46.1005 H   0  0  0  0  0  0  0  0  0  0  0  0
   57.4850   32.0434   46.4503 H   0  0  0  0  0  0  0  0  0  0  0  0
   58.4442   33.6726   44.3911 H   0  0  0  0  0  0  0  0  0  0  0  0
   57.4796   34.7958   45.4402 H   0  0  0  0  0  0  0  0  0  0  0  0
   60.7040   33.7802   44.8820 H   0  0  0  0  0  0  0  0  0  0  0  0
   62.5695   33.7847   46.5378 H   0  0  0  0  0  0  0  0  0  0  0  0
   62.8590   32.3120   51.0810 H   0  0  0  0  0  0  0  0  0  0  0  0
   61.2850   32.2920   50.5010 H   0  0  0  0  0  0  0  0  0  0  0  0
   59.7005   33.9623   49.7701 H   0  0  0  0  0  0  0  0  0  0  0  0
   57.8330   34.0012   48.1204 H   0  0  0  0  0  0  0  0  0  0  0  0
   59.9869   27.4046   48.8765 H   0  0  0  0  0  0  0  0  0  0  0  0
   59.1947   32.3758   51.2648 H   0  0  0  0  0  0  0  0  0  0  0  0
   59.4061   31.5183   49.6693 H   0  0  0  0  0  0  0  0  0  0  0  0
   57.0503   31.5028   50.4571 H   0  0  0  0  0  0  0  0  0  0  0  0
   57.7771   29.8477   50.3043 H   0  0  0  0  0  0  0  0  0  0  0  0
  1  2  1  0
  2  3  1  0
  3  4  1  0
  4  5  1  0
  5  6  1  0
  6  7  2  0
  6  8  2  0
  6  9  1  0
  9 10  2  0
 10 11  1  0
 11 12  2  0
 12 13  1  0
 13 14  1  0
 14 15  2  0
 15 16  1  0
 16 17  1  0
 17 18  1  0
 18 19  2  0
 18 20  1  0
 20 21  1  0
 21 22  1  0
 22 23  1  0
 23 24  2  0
 24 25  1  0
 25 26  2  0
 26 27  1  0
 27 28  1  0
 27 29  2  0
 27 30  2  0
 26 31  1  0
 31 32  2  0
 13 33  2  0
  5 34  1  0
 34 35  1  0
 35  2  1  0
 33  9  1  0
 16 12  1  0
 32 23  1  0
  1 36  1  0
  1 37  1  0
  1 38  1  0
  2 39  1  0
  3 40  1  0
  3 41  1  0
  4 42  1  0
  4 43  1  0
 10 44  1  0
 11 45  1  0
 14 46  1  0
 15 47  1  0
 17 48  1  0
 17 49  1  0
 21 50  1  0
 21 51  1  0
 22 52  1  0
 22 53  1  0
 24 54  1  0
 25 55  1  0
 28 56  1  0
 28 57  1  0
 31 58  1  0
 32 59  1  0
 33 60  1  0
 34 61  1  0
 34 62  1  0
 35 63  1  0
 35 64  1  0
M  CHG  1  20  -1
M  END
>  <UniqueID>  (90) 
83

>  <SMILES>  (90) 
CC1CCN(S(=O)(=O)c2ccc3c(ccn3CC(=O)[N-]CCc3ccc(S(N)(=O)=O)cc3)c2)CC1

>  <Energy>  (90) 
89.62606853965828

>  <Genealogy>  (90) 
CC1CCN(S(=O)(=O)c2ccc3c(ccn3CC(=O)[N-]CCc3ccc(S(N)(=O)=O)cc3)c2)CC1 (protonated)
CC1CCN(S(=O)(=O)c2ccc3c(ccn3CC(=O)[N-]CCc3ccc(S(N)(=O)=O)cc3)c2)CC1 (3D coordinates assigned)
CC1CCN(S(=O)(=O)c2ccc3c(ccn3CC(=O)[N-]CCc3ccc(S(N)(=O)=O)cc3)c2)CC1 (nonaromatic ring conformer: 89.62606853965828 kcal/mol)

>  <smiles>  (90) 
CC1CCN(S(=O)(=O)c2ccc3c(ccn3CC(=O)NCCc3ccc(S(N)(=O)=O)cc3)c2)CC1

>  <score_type>  (90) 
oracle

>  <origin>  (90) 
adg

>  <m_score__min__energy>  (90) 
-13.56

>  <m_primary>  (90) 
energy

$$$$
90:0
     RDKit          3D

 50 52  0  0  0  0  0  0  0  0999 V2000
   63.1630   33.8110   46.4500 C   0  0  0  0  0  0  0  0  0  0  0  0
   63.3740   32.7310   47.5050 C   0  0  0  0  0  0  0  0  0  0  0  0
   62.1060   32.4080   48.1710 N   0  0  0  0  0  0  0  0  0  0  0  0
   61.5960   33.0330   49.2580 C   0  0  0  0  0  0  0  0  0  0  0  0
   62.2140   34.2170   49.9380 C   0  0  0  0  0  0  0  0  0  0  0  0
   60.3910   32.4640   49.6200 C   0  0  0  0  0  0  0  0  0  0  0  0
   60.1600   31.4340   48.7290 C   0  0  0  0  0  0  0  0  0  0  0  0
   58.9770   30.5510   48.7430 C   0  0  0  0  0  0  0  0  0  0  0  0
   58.5530   30.0650   49.8250 O   0  0  0  0  0  0  0  0  0  0  0  0
   58.3280   30.2240   47.5100 N   0  0  0  0  0  0  0  0  0  0  0  0
   58.4060   28.9520   46.8510 C   0  0  0  0  0  0  0  0  0  0  0  0
   59.3370   28.0170   47.3260 C   0  0  0  0  0  0  0  0  0  0  0  0
   59.4410   26.7560   46.7340 C   0  0  0  0  0  0  0  0  0  0  0  0
   58.6220   26.4210   45.6550 C   0  0  0  0  0  0  0  0  0  0  0  0
   57.7110   27.3520   45.1520 C   0  0  0  0  0  0  0  0  0  0  0  0
   57.6100   28.6300   45.7230 C   0  0  0  0  0  0  0  0  0  0  0  0
   56.7230   29.6180   45.0740 C   0  0  0  0  0  0  0  0  0  0  0  0
   55.5030   29.3400   44.9300 O   0  0  0  0  0  0  0  0  0  0  0  0
   57.2150   30.8640   44.5640 N   0  0  0  0  0  0  0  0  0  0  0  0
   56.6600   32.1820   44.8590 C   0  0  0  0  0  0  0  0  0  0  0  0
   57.6880   33.0560   45.5280 C   0  0  0  0  0  0  0  0  0  0  0  0
   58.7020   33.6740   44.7820 C   0  0  0  0  0  0  0  0  0  0  0  0
   59.6310   34.4990   45.4170 C   0  0  0  0  0  0  0  0  0  0  0  0
   59.5440   34.6920   46.7980 C   0  0  0  0  0  0  0  0  0  0  0  0
   58.5620   34.0790   47.5110 N   0  0  0  0  0  0  0  0  0  0  0  0
   57.6430   33.2720   46.9150 C   0  0  0  0  0  0  0  0  0  0  0  0
   61.2470   31.4050   47.8590 C   0  0  0  0  0  0  0  0  0  0  0  0
   61.4260   30.4350   46.7230 C   0  0  0  0  0  0  0  0  0  0  0  0
   62.9746   34.7752   46.9449 H   0  0  0  0  0  0  0  0  0  0  0  0
   64.0625   33.8908   45.8219 H   0  0  0  0  0  0  0  0  0  0  0  0
   62.2996   33.5463   45.8219 H   0  0  0  0  0  0  0  0  0  0  0  0
   63.7701   31.8256   47.0220 H   0  0  0  0  0  0  0  0  0  0  0  0
   64.0862   33.1022   48.2567 H   0  0  0  0  0  0  0  0  0  0  0  0
   62.1475   34.0895   51.0286 H   0  0  0  0  0  0  0  0  0  0  0  0
   63.2703   34.2997   49.6423 H   0  0  0  0  0  0  0  0  0  0  0  0
   61.6779   35.1308   49.6423 H   0  0  0  0  0  0  0  0  0  0  0  0
   59.7425   32.7707   50.4539 H   0  0  0  0  0  0  0  0  0  0  0  0
   59.9905   28.2786   48.1713 H   0  0  0  0  0  0  0  0  0  0  0  0
   60.1690   26.0266   47.1187 H   0  0  0  0  0  0  0  0  0  0  0  0
   58.6942   25.4221   45.2001 H   0  0  0  0  0  0  0  0  0  0  0  0
   57.0676   27.0817   44.3017 H   0  0  0  0  0  0  0  0  0  0  0  0
   56.3387   32.6567   43.9202 H   0  0  0  0  0  0  0  0  0  0  0  0
   55.8035   32.0606   45.5385 H   0  0  0  0  0  0  0  0  0  0  0  0
   58.7650   33.5084   43.6964 H   0  0  0  0  0  0  0  0  0  0  0  0
   60.4240   34.9926   44.8361 H   0  0  0  0  0  0  0  0  0  0  0  0
   60.2708   35.3406   47.3090 H   0  0  0  0  0  0  0  0  0  0  0  0
   56.8630   32.7876   47.5208 H   0  0  0  0  0  0  0  0  0  0  0  0
   61.6117   29.4285   47.1261 H   0  0  0  0  0  0  0  0  0  0  0  0
   60.5153   30.4207   46.1062 H   0  0  0  0  0  0  0  0  0  0  0  0
   62.2818   30.7466   46.1062 H   0  0  0  0  0  0  0  0  0  0  0  0
  1  2  1  0
  2  3  1  0
  3  4  1  0
  4  5  1  0
  4  6  2  0
  6  7  1  0
  7  8  1  0
  8  9  2  0
  8 10  1  0
 10 11  1  0
 11 12  2  0
 12 13  1  0
 13 14  2  0
 14 15  1  0
 15 16  2  0
 16 17  1  0
 17 18  2  0
 17 19  1  0
 19 20  1  0
 20 21  1  0
 21 22  2  0
 22 23  1  0
 23 24  2  0
 24 25  1  0
 25 26  2  0
  7 27  2  0
 27 28  1  0
 27  3  1  0
 16 11  1  0
 26 21  1  0
  1 29  1  0
  1 30  1  0
  1 31  1  0
  2 32  1  0
  2 33  1  0
  5 34  1  0
  5 35  1  0
  5 36  1  0
  6 37  1  0
 12 38  1  0
 13 39  1  0
 14 40  1  0
 15 41  1  0
 20 42  1  0
 20 43  1  0
 22 44  1  0
 23 45  1  0
 24 46  1  0
 26 47  1  0
 28 48  1  0
 28 49  1  0
 28 50  1  0
M  CHG  2  10  -1  19  -1
M  END
>  <UniqueID>  (91) 
84

>  <SMILES>  (91) 
CCn1c(C)cc(C(=O)[N-]c2ccccc2C(=O)[N-]Cc2cccnc2)c1C

>  <Energy>  (91) 
83.41289202346105

>  <Genealogy>  (91) 
CCn1c(C)cc(C(=O)[N-]c2ccccc2C(=O)[N-]Cc2cccnc2)c1C (protonated)
CCn1c(C)cc(C(=O)[N-]c2ccccc2C(=O)[N-]Cc2cccnc2)c1C (3D coordinates assigned)
CCn1c(C)cc(C(=O)[N-]c2ccccc2C(=O)[N-]Cc2cccnc2)c1C (optimized conformer: 83.41289202346105 kcal/mol)

>  <smiles>  (91) 
CCn1c(C)cc(C(=O)Nc2ccccc2C(=O)NCc2cccnc2)c1C

>  <score_type>  (91) 
oracle

>  <origin>  (91) 
adg

>  <m_score__min__energy>  (91) 
-12.859999999999999

>  <m_primary>  (91) 
energy

$$$$
91:0
     RDKit          3D

 15 15  0  0  0  0  0  0  0  0999 V2000
   51.3960   32.6350   50.0770 O   0  0  0  0  0  0  0  0  0  0  0  0
   51.3350   32.3270   51.2980 C   0  0  0  0  0  0  0  0  0  0  0  0
   50.5440   33.0920   52.1470 O   0  0  0  0  0  0  0  0  0  0  0  0
   52.0850   31.1710   51.8380 C   0  0  0  0  0  0  0  0  0  0  0  0
   51.3790   30.1570   52.4990 C   0  0  0  0  0  0  0  0  0  0  0  0
   51.8660   28.9940   53.0790 C   0  0  0  0  0  0  0  0  0  0  0  0
   53.1750   28.5470   53.1470 C   0  0  0  0  0  0  0  0  0  0  0  0
   54.3200   29.1510   52.6530 C   0  0  0  0  0  0  0  0  0  0  0  0
   54.4430   30.3560   51.9670 C   0  0  0  0  0  0  0  0  0  0  0  0
   55.6030   30.6990   51.6160 O   0  0  0  0  0  0  0  0  0  0  0  0
   53.4260   31.1890   51.6430 N   0  0  0  0  0  0  0  0  0  0  0  0
   50.2908   30.3026   52.5675 H   0  0  0  0  0  0  0  0  0  0  0  0
   51.1135   28.3416   53.5460 H   0  0  0  0  0  0  0  0  0  0  0  0
   53.3255   27.5861   53.6608 H   0  0  0  0  0  0  0  0  0  0  0  0
   55.2587   28.6044   52.8263 H   0  0  0  0  0  0  0  0  0  0  0  0
  1  2  2  0
  2  3  1  0
  2  4  1  0
  4  5  1  0
  5  6  2  0
  6  7  1  0
  7  8  2  0
  8  9  1  0
  9 10  2  0
  9 11  1  0
 11  4  2  0
  5 12  1  0
  6 13  1  0
  7 14  1  0
  8 15  1  0
M  CHG  1   3  -1
M  END
>  <UniqueID>  (92) 
85

>  <SMILES>  (92) 
O=C([O-])c1ccccc(=O)n1

>  <Energy>  (92) 
31.940260300954325

>  <Genealogy>  (92) 
O=C([O-])c1ccccc(=O)n1 (protonated)
O=C([O-])c1ccccc(=O)n1 (3D coordinates assigned)
O=C([O-])c1ccccc(=O)n1 (optimized conformer: 31.940260300954325 kcal/mol)

>  <smiles>  (92) 
O=C(O)c1ccccc(=O)n1

>  <score_type>  (92) 
oracle

>  <origin>  (92) 
adg

>  <m_score__min__energy>  (92) 
-8.4600000000000009

>  <m_primary>  (92) 
energy

$$$$
92:0
     RDKit          3D

 41 42  0  0  0  0  0  0  0  0999 V2000
   57.7180   25.3870   44.9460 C   0  0  0  0  0  0  0  0  0  0  0  0
   56.7490   26.1370   46.2370 S   0  0  0  0  0  0  0  0  0  0  0  0
   57.6330   26.5630   47.3760 O   0  0  0  0  0  0  0  0  0  0  0  0
   55.7590   25.1260   46.7450 O   0  0  0  0  0  0  0  0  0  0  0  0
   55.8800   27.5030   45.6160 N   0  0  0  0  0  0  0  0  0  0  0  0
   56.4670   28.6850   45.0540 C   0  0  0  0  0  0  0  0  0  0  0  0
   57.8530   28.9170   45.0720 C   0  0  0  0  0  0  0  0  0  0  0  0
   58.3800   30.0820   44.5070 C   0  0  0  0  0  0  0  0  0  0  0  0
   57.5330   31.0250   43.9050 C   0  0  0  0  0  0  0  0  0  0  0  0
   58.0810   32.2640   43.3220 C   0  0  0  0  0  0  0  0  0  0  0  0
   57.9310   32.4820   42.0910 O   0  0  0  0  0  0  0  0  0  0  0  0
   58.7900   33.2280   44.1120 N   0  0  0  0  0  0  0  0  0  0  0  0
   58.1600   34.1450   45.0570 C   0  0  0  0  0  0  0  0  0  0  0  0
   58.1080   33.5180   46.4540 C   0  0  0  0  0  0  0  0  0  0  0  0
   59.1280   34.1250   47.4330 C   0  0  0  0  0  0  0  0  0  0  0  0
   60.4820   33.4720   47.3200 C   0  0  0  0  0  0  0  0  0  0  0  0
   60.6810   32.1670   47.8000 C   0  0  0  0  0  0  0  0  0  0  0  0
   61.9470   31.5760   47.7310 C   0  0  0  0  0  0  0  0  0  0  0  0
   63.0230   32.2850   47.1880 C   0  0  0  0  0  0  0  0  0  0  0  0
   62.8340   33.5860   46.7130 C   0  0  0  0  0  0  0  0  0  0  0  0
   61.5700   34.1780   46.7770 C   0  0  0  0  0  0  0  0  0  0  0  0
   56.1490   30.8060   43.9110 C   0  0  0  0  0  0  0  0  0  0  0  0
   55.6220   29.6410   44.4770 C   0  0  0  0  0  0  0  0  0  0  0  0
   58.5125   24.7721   45.3940 H   0  0  0  0  0  0  0  0  0  0  0  0
   57.0705   24.7525   44.3231 H   0  0  0  0  0  0  0  0  0  0  0  0
   58.1699   26.1730   44.3231 H   0  0  0  0  0  0  0  0  0  0  0  0
   58.5260   28.1788   45.5326 H   0  0  0  0  0  0  0  0  0  0  0  0
   59.4651   30.2606   44.5345 H   0  0  0  0  0  0  0  0  0  0  0  0
   58.7414   35.0778   45.0996 H   0  0  0  0  0  0  0  0  0  0  0  0
   57.1338   34.3549   44.7211 H   0  0  0  0  0  0  0  0  0  0  0  0
   57.0987   33.6659   46.8655 H   0  0  0  0  0  0  0  0  0  0  0  0
   58.3586   32.4528   46.3421 H   0  0  0  0  0  0  0  0  0  0  0  0
   59.2328   35.1982   47.2156 H   0  0  0  0  0  0  0  0  0  0  0  0
   58.7564   33.9587   48.4549 H   0  0  0  0  0  0  0  0  0  0  0  0
   59.8380   31.6076   48.2318 H   0  0  0  0  0  0  0  0  0  0  0  0
   62.0963   30.5521   48.1044 H   0  0  0  0  0  0  0  0  0  0  0  0
   64.0180   31.8190   47.1346 H   0  0  0  0  0  0  0  0  0  0  0  0
   63.6813   34.1443   46.2884 H   0  0  0  0  0  0  0  0  0  0  0  0
   61.4253   35.2015   46.4007 H   0  0  0  0  0  0  0  0  0  0  0  0
   55.4743   31.5537   43.4686 H   0  0  0  0  0  0  0  0  0  0  0  0
   54.5348   29.4742   44.4689 H   0  0  0  0  0  0  0  0  0  0  0  0
  1  2  1  0
  2  3  2  0
  2  4  2  0
  2  5  1  0
  5  6  1  0
  6  7  2  0
  7  8  1  0
  8  9  2  0
  9 10  1  0
 10 11  2  0
 10 12  1  0
 12 13  1  0
 13 14  1  0
 14 15  1  0
 15 16  1  0
 16 17  2  0
 17 18  1  0
 18 19  2  0
 19 20  1  0
 20 21  2  0
  9 22  1  0
 22 23  2  0
 23  6  1  0
 21 16  1  0
  1 24  1  0
  1 25  1  0
  1 26  1  0
  7 27  1  0
  8 28  1  0
 13 29  1  0
 13 30  1  0
 14 31  1  0
 14 32  1  0
 15 33  1  0
 15 34  1  0
 17 35  1  0
 18 36  1  0
 19 37  1  0
 20 38  1  0
 21 39  1  0
 22 40  1  0
 23 41  1  0
M  CHG  2   5  -1  12  -1
M  END
>  <UniqueID>  (93) 
86

>  <SMILES>  (93) 
CS(=O)(=O)[N-]c1ccc(C(=O)[N-]CCCc2ccccc2)cc1

>  <Energy>  (93) 
38.94945332950881

>  <Genealogy>  (93) 
CS(=O)(=O)[N-]c1ccc(C(=O)[N-]CCCc2ccccc2)cc1 (protonated)
CS(=O)(=O)[N-]c1ccc(C(=O)[N-]CCCc2ccccc2)cc1 (3D coordinates assigned)
CS(=O)(=O)[N-]c1ccc(C(=O)[N-]CCCc2ccccc2)cc1 (optimized conformer: 38.94945332950881 kcal/mol)

>  <smiles>  (93) 
CS(=O)(=O)Nc1ccc(C(=O)NCCCc2ccccc2)cc1

>  <score_type>  (93) 
oracle

>  <origin>  (93) 
adg

>  <m_score__min__energy>  (93) 
-10.75

>  <m_primary>  (93) 
energy

$$$$
93:0
     RDKit          3D

 51 53  0  0  0  0  0  0  0  0999 V2000
   61.8890   31.3170   48.5710 C   0  0  0  0  0  0  0  0  0  0  0  0
   62.8510   31.7410   47.4680 C   0  0  0  0  0  0  0  0  0  0  0  0
   62.9280   33.5220   47.3420 S   0  0  0  0  0  0  0  0  0  0  0  0
   63.8250   34.0790   48.4110 O   0  0  0  0  0  0  0  0  0  0  0  0
   63.4940   33.8890   45.9990 O   0  0  0  0  0  0  0  0  0  0  0  0
   61.3430   34.2130   47.4830 N   0  0  0  0  0  0  0  0  0  0  0  0
   60.2350   33.9630   46.6070 C   0  0  0  0  0  0  0  0  0  0  0  0
   59.6480   35.0490   45.9500 C   0  0  0  0  0  0  0  0  0  0  0  0
   58.5730   34.8550   45.0810 C   0  0  0  0  0  0  0  0  0  0  0  0
   58.0700   33.5700   44.8640 C   0  0  0  0  0  0  0  0  0  0  0  0
   58.6340   32.4640   45.5240 C   0  0  0  0  0  0  0  0  0  0  0  0
   58.1100   31.0950   45.2950 C   0  0  0  0  0  0  0  0  0  0  0  0
   56.9300   30.9440   44.8730 O   0  0  0  0  0  0  0  0  0  0  0  0
   58.9450   29.9420   45.5000 N   0  0  0  0  0  0  0  0  0  0  0  0
   58.4340   28.6120   45.6880 C   0  0  0  0  0  0  0  0  0  0  0  0
   58.3530   28.0310   46.9660 C   0  0  0  0  0  0  0  0  0  0  0  0
   57.8720   26.7280   47.1210 C   0  0  0  0  0  0  0  0  0  0  0  0
   57.4730   25.9850   46.0020 C   0  0  0  0  0  0  0  0  0  0  0  0
   56.8660   24.3460   46.2130 S   0  0  0  0  0  0  0  0  0  0  0  0
   57.4830   23.7260   47.4390 O   0  0  0  0  0  0  0  0  0  0  0  0
   55.3740   24.3990   46.3880 O   0  0  0  0  0  0  0  0  0  0  0  0
   57.2570   23.3940   44.8020 N   0  0  0  0  0  0  0  0  0  0  0  0
   57.1360   21.9630   45.0750 C   0  0  0  0  0  0  0  0  0  0  0  0
   56.8200   21.2940   43.7460 C   0  0  0  0  0  0  0  0  0  0  0  0
   56.2870   22.4030   42.8540 C   0  0  0  0  0  0  0  0  0  0  0  0
   56.3270   23.6630   43.7060 C   0  0  0  0  0  0  0  0  0  0  0  0
   57.5780   26.5490   44.7240 C   0  0  0  0  0  0  0  0  0  0  0  0
   58.0600   27.8510   44.5680 C   0  0  0  0  0  0  0  0  0  0  0  0
   59.7240   32.6700   46.3910 C   0  0  0  0  0  0  0  0  0  0  0  0
   62.3445   31.5177   49.5519 H   0  0  0  0  0  0  0  0  0  0  0  0
   60.9518   31.8854   48.4787 H   0  0  0  0  0  0  0  0  0  0  0  0
   61.6763   30.2417   48.4787 H   0  0  0  0  0  0  0  0  0  0  0  0
   63.8544   31.3520   47.6956 H   0  0  0  0  0  0  0  0  0  0  0  0
   62.4907   31.3354   46.5111 H   0  0  0  0  0  0  0  0  0  0  0  0
   60.0365   36.0641   46.1194 H   0  0  0  0  0  0  0  0  0  0  0  0
   58.1211   35.7156   44.5661 H   0  0  0  0  0  0  0  0  0  0  0  0
   57.2274   33.4225   44.1724 H   0  0  0  0  0  0  0  0  0  0  0  0
   59.9780   30.0590   45.3910 H   0  0  0  0  0  0  0  0  0  0  0  0
   58.6701   28.6054   47.8489 H   0  0  0  0  0  0  0  0  0  0  0  0
   57.8064   26.2840   48.1253 H   0  0  0  0  0  0  0  0  0  0  0  0
   58.0806   21.5727   45.4816 H   0  0  0  0  0  0  0  0  0  0  0  0
   56.3482   21.7652   45.8167 H   0  0  0  0  0  0  0  0  0  0  0  0
   57.7291   20.8533   43.3109 H   0  0  0  0  0  0  0  0  0  0  0  0
   56.0932   20.4764   43.8616 H   0  0  0  0  0  0  0  0  0  0  0  0
   56.9230   22.5200   41.9642 H   0  0  0  0  0  0  0  0  0  0  0  0
   55.2705   22.1851   42.4944 H   0  0  0  0  0  0  0  0  0  0  0  0
   56.6813   24.5153   43.1076 H   0  0  0  0  0  0  0  0  0  0  0  0
   55.3268   23.9177   44.0865 H   0  0  0  0  0  0  0  0  0  0  0  0
   57.2801   25.9650   43.8407 H   0  0  0  0  0  0  0  0  0  0  0  0
   58.1473   28.2836   43.5604 H   0  0  0  0  0  0  0  0  0  0  0  0
   60.1808   31.8113   46.9048 H   0  0  0  0  0  0  0  0  0  0  0  0
  1  2  1  0
  2  3  1  0
  3  4  2  0
  3  5  2  0
  3  6  1  0
  6  7  1  0
  7  8  2  0
  8  9  1  0
  9 10  2  0
 10 11  1  0
 11 12  1  0
 12 13  2  0
 12 14  1  0
 14 15  1  0
 15 16  2  0
 16 17  1  0
 17 18  2  0
 18 19  1  0
 19 20  2  0
 19 21  2  0
 19 22  1  0
 22 23  1  0
 23 24  1  0
 24 25  1  0
 25 26  1  0
 18 27  1  0
 27 28  2  0
 11 29  2  0
 29  7  1  0
 28 15  1  0
 26 22  1  0
  1 30  1  0
  1 31  1  0
  1 32  1  0
  2 33  1  0
  2 34  1  0
  8 35  1  0
  9 36  1  0
 10 37  1  0
 14 38  1  0
 16 39  1  0
 17 40  1  0
 23 41  1  0
 23 42  1  0
 24 43  1  0
 24 44  1  0
 25 45  1  0
 25 46  1  0
 26 47  1  0
 26 48  1  0
 27 49  1  0
 28 50  1  0
 29 51  1  0
M  CHG  1   6  -1
M  END
>  <UniqueID>  (94) 
87

>  <SMILES>  (94) 
CCS(=O)(=O)[N-]c1cccc(C(=O)Nc2ccc(S(=O)(=O)N3CCCC3)cc2)c1

>  <Energy>  (94) 
54.11798028493885

>  <Genealogy>  (94) 
CCS(=O)(=O)[N-]c1cccc(C(=O)Nc2ccc(S(=O)(=O)N3CCCC3)cc2)c1 (protonated)
CCS(=O)(=O)[N-]c1cccc(C(=O)Nc2ccc(S(=O)(=O)N3CCCC3)cc2)c1 (3D coordinates assigned)
CCS(=O)(=O)[N-]c1cccc(C(=O)Nc2ccc(S(=O)(=O)N3CCCC3)cc2)c1 (nonaromatic ring conformer: 54.11798028493885 kcal/mol)

>  <smiles>  (94) 
CCS(=O)(=O)Nc1cccc(C(=O)Nc2ccc(S(=O)(=O)N3CCCC3)cc2)c1

>  <score_type>  (94) 
oracle

>  <origin>  (94) 
adg

>  <m_score__min__energy>  (94) 
-10.460000000000001

>  <m_primary>  (94) 
energy

$$$$
94:0
     RDKit          3D

 79 82  0  0  0  0  0  0  0  0999 V2000
   58.1640   33.8270   52.1790 O   0  0  0  0  0  0  0  0  0  0  0  0
   58.0460   32.7170   51.6860 C   0  0  0  0  0  0  0  0  0  0  0  0
   59.1010   32.1790   50.7650 C   0  0  1  0  0  0  0  0  0  0  0  0
   60.4920   32.2640   51.4200 C   0  0  0  0  0  0  0  0  0  0  0  0
   61.5590   32.6100   50.4120 C   0  0  0  0  0  0  0  0  0  0  0  0
   62.5930   31.6990   50.1360 C   0  0  0  0  0  0  0  0  0  0  0  0
   63.5570   31.9980   49.1690 C   0  0  0  0  0  0  0  0  0  0  0  0
   63.4950   33.2050   48.4630 C   0  0  0  0  0  0  0  0  0  0  0  0
   64.4580   33.4890   47.4990 O   0  0  0  0  0  0  0  0  0  0  0  0
   62.4640   34.1150   48.7320 C   0  0  0  0  0  0  0  0  0  0  0  0
   61.4990   33.8190   49.6990 C   0  0  0  0  0  0  0  0  0  0  0  0
   58.7750   30.7900   50.4520 N   0  0  0  0  0  0  0  0  0  0  0  0
   59.5900   29.9440   49.6370 C   0  0  0  0  0  0  0  0  0  0  0  0
   60.3360   29.0750   50.1670 O   0  0  0  0  0  0  0  0  0  0  0  0
   59.5940   30.1350   48.1460 C   0  0  1  0  0  0  0  0  0  0  0  0
   60.4720   31.3290   47.7320 C   0  0  0  0  0  0  0  0  0  0  0  0
   59.6790   32.4700   47.1430 C   0  0  0  0  0  0  0  0  0  0  0  0
   60.3030   33.4070   46.3030 C   0  0  0  0  0  0  0  0  0  0  0  0
   59.5580   34.4360   45.7190 C   0  0  0  0  0  0  0  0  0  0  0  0
   58.1870   34.5410   45.9770 C   0  0  0  0  0  0  0  0  0  0  0  0
   57.5620   33.6200   46.8220 C   0  0  0  0  0  0  0  0  0  0  0  0
   58.3020   32.5850   47.3990 C   0  0  0  0  0  0  0  0  0  0  0  0
   60.0390   28.9200   47.4730 N   0  0  0  0  0  0  0  0  0  0  0  0
   59.6190   28.5880   46.1500 C   0  0  0  0  0  0  0  0  0  0  0  0
   60.4730   28.5190   45.2260 O   0  0  0  0  0  0  0  0  0  0  0  0
   58.1590   28.3740   45.8590 C   0  0  2  0  0  0  0  0  0  0  0  0
   57.3820   29.7010   45.8850 C   0  0  0  0  0  0  0  0  0  0  0  0
   57.3810   30.3870   44.5420 C   0  0  0  0  0  0  0  0  0  0  0  0
   56.6200   29.8650   43.4830 C   0  0  0  0  0  0  0  0  0  0  0  0
   56.6190   30.4960   42.2370 C   0  0  0  0  0  0  0  0  0  0  0  0
   57.3700   31.6570   42.0400 C   0  0  0  0  0  0  0  0  0  0  0  0
   58.1300   32.1840   43.0860 C   0  0  0  0  0  0  0  0  0  0  0  0
   58.1480   31.5470   44.3300 C   0  0  0  0  0  0  0  0  0  0  0  0
   57.5790   27.4680   46.8490 N   0  0  0  0  0  0  0  0  0  0  0  0
   56.6510   26.4010   46.6000 C   0  0  0  0  0  0  0  0  0  0  0  0
   55.5040   26.6920   46.1720 O   0  0  0  0  0  0  0  0  0  0  0  0
   56.9800   24.9510   46.8500 C   0  0  0  0  0  0  0  0  0  0  0  0
   55.8770   24.2270   47.4850 N   0  0  0  0  0  0  0  0  0  0  0  0
   55.8850   22.5330   47.0810 S   0  0  0  0  0  0  0  0  0  0  0  0
   56.9670   21.8480   47.8670 O   0  0  0  0  0  0  0  0  0  0  0  0
   54.5710   21.8840   47.4230 O   0  0  0  0  0  0  0  0  0  0  0  0
   56.2180   22.3460   45.3620 C   0  0  0  0  0  0  0  0  0  0  0  0
   57.1220   21.3740   44.9110 C   0  0  0  0  0  0  0  0  0  0  0  0
   57.3570   21.2150   43.5410 C   0  0  0  0  0  0  0  0  0  0  0  0
   56.6990   22.0330   42.6160 C   0  0  0  0  0  0  0  0  0  0  0  0
   55.8040   23.0080   43.0620 C   0  0  0  0  0  0  0  0  0  0  0  0
   55.5570   23.1610   44.4300 C   0  0  0  0  0  0  0  0  0  0  0  0
   57.1606   32.1071   51.9183 H   0  0  0  0  0  0  0  0  0  0  0  0
   59.1268   32.7790   49.8434 H   0  0  0  0  0  0  0  0  0  0  0  0
   60.4727   33.0394   52.2000 H   0  0  0  0  0  0  0  0  0  0  0  0
   60.7308   31.2803   51.8504 H   0  0  0  0  0  0  0  0  0  0  0  0
   62.6439   30.7463   50.6835 H   0  0  0  0  0  0  0  0  0  0  0  0
   64.3667   31.2827   48.9622 H   0  0  0  0  0  0  0  0  0  0  0  0
   64.9000   32.7520   46.9610 H   0  0  0  0  0  0  0  0  0  0  0  0
   62.4139   35.0654   48.1804 H   0  0  0  0  0  0  0  0  0  0  0  0
   60.6895   34.5355   49.9025 H   0  0  0  0  0  0  0  0  0  0  0  0
   58.5611   30.3529   47.8367 H   0  0  0  0  0  0  0  0  0  0  0  0
   61.0061   31.6958   48.6209 H   0  0  0  0  0  0  0  0  0  0  0  0
   61.1636   30.9737   46.9539 H   0  0  0  0  0  0  0  0  0  0  0  0
   61.3821   33.3309   46.1038 H   0  0  0  0  0  0  0  0  0  0  0  0
   60.0500   35.1633   45.0564 H   0  0  0  0  0  0  0  0  0  0  0  0
   57.6008   35.3488   45.5146 H   0  0  0  0  0  0  0  0  0  0  0  0
   56.4862   33.7101   47.0331 H   0  0  0  0  0  0  0  0  0  0  0  0
   57.8046   31.8569   48.0566 H   0  0  0  0  0  0  0  0  0  0  0  0
   58.0810   27.9370   44.8526 H   0  0  0  0  0  0  0  0  0  0  0  0
   56.3419   29.4968   46.1792 H   0  0  0  0  0  0  0  0  0  0  0  0
   57.8780   30.3687   46.6048 H   0  0  0  0  0  0  0  0  0  0  0  0
   56.0218   28.9546   43.6358 H   0  0  0  0  0  0  0  0  0  0  0  0
   56.0261   30.0782   41.4100 H   0  0  0  0  0  0  0  0  0  0  0  0
   57.3627   32.1566   41.0600 H   0  0  0  0  0  0  0  0  0  0  0  0
   58.7156   33.1021   42.9308 H   0  0  0  0  0  0  0  0  0  0  0  0
   58.7637   31.9540   45.1456 H   0  0  0  0  0  0  0  0  0  0  0  0
   57.2096   24.4704   45.8876 H   0  0  0  0  0  0  0  0  0  0  0  0
   57.8402   24.9168   47.5347 H   0  0  0  0  0  0  0  0  0  0  0  0
   57.6477   20.7350   45.6358 H   0  0  0  0  0  0  0  0  0  0  0  0
   58.0604   20.4454   43.1904 H   0  0  0  0  0  0  0  0  0  0  0  0
   56.8863   21.9084   41.5393 H   0  0  0  0  0  0  0  0  0  0  0  0
   55.2924   23.6568   42.3359 H   0  0  0  0  0  0  0  0  0  0  0  0
   54.8426   23.9223   44.7765 H   0  0  0  0  0  0  0  0  0  0  0  0
  1  2  2  0
  2  3  1  0
  3  4  1  0
  4  5  1  0
  5  6  2  0
  6  7  1  0
  7  8  2  0
  8  9  1  0
  8 10  1  0
 10 11  2  0
  3 12  1  0
 12 13  1  0
 13 14  2  0
 13 15  1  0
 15 16  1  0
 16 17  1  0
 17 18  2  0
 18 19  1  0
 19 20  2  0
 20 21  1  0
 21 22  2  0
 15 23  1  0
 23 24  1  0
 24 25  2  0
 24 26  1  0
 26 27  1  0
 27 28  1  0
 28 29  2  0
 29 30  1  0
 30 31  2  0
 31 32  1  0
 32 33  2  0
 26 34  1  0
 34 35  1  0
 35 36  2  0
 35 37  1  0
 37 38  1  0
 38 39  1  0
 39 40  2  0
 39 41  2  0
 39 42  1  0
 42 43  2  0
 43 44  1  0
 44 45  2  0
 45 46  1  0
 46 47  2  0
 11  5  1  0
 22 17  1  0
 33 28  1  0
 47 42  1  0
  2 48  1  0
  3 49  1  6
  4 50  1  0
  4 51  1  0
  6 52  1  0
  7 53  1  0
  9 54  1  0
 10 55  1  0
 11 56  1  0
 15 57  1  6
 16 58  1  0
 16 59  1  0
 18 60  1  0
 19 61  1  0
 20 62  1  0
 21 63  1  0
 22 64  1  0
 26 65  1  6
 27 66  1  0
 27 67  1  0
 29 68  1  0
 30 69  1  0
 31 70  1  0
 32 71  1  0
 33 72  1  0
 37 73  1  0
 37 74  1  0
 43 75  1  0
 44 76  1  0
 45 77  1  0
 46 78  1  0
 47 79  1  0
M  CHG  4  12  -1  23  -1  34  -1  38  -1
M  END
>  <UniqueID>  (95) 
88

>  <SMILES>  (95) 
O=C[C@@H](Cc1ccc(O)cc1)[N-]C(=O)[C@@H](Cc1ccccc1)[N-]C(=O)C(Cc1ccccc1)[N-]C(=O)C[N-]S(=O)(=O)c1ccccc1

>  <Energy>  (95) 
69.89348521221287

>  <Genealogy>  (95) 
O=CC(Cc1ccc(O)cc1)[N-]C(=O)C(Cc1ccccc1)[N-]C(=O)C(Cc1ccccc1)[N-]C(=O)C[N-]S(=O)(=O)c1ccccc1 (protonated)
O=C[C@@H](Cc1ccc(O)cc1)[N-]C(=O)[C@@H](Cc1ccccc1)[N-]C(=O)C(Cc1ccccc1)[N-]C(=O)C[N-]S(=O)(=O)c1ccccc1 (chirality)
O=C[C@@H](Cc1ccc(O)cc1)[N-]C(=O)[C@@H](Cc1ccccc1)[N-]C(=O)C(Cc1ccccc1)[N-]C(=O)C[N-]S(=O)(=O)c1ccccc1 (3D coordinates assigned)
O=C[C@@H](Cc1ccc(O)cc1)[N-]C(=O)[C@@H](Cc1ccccc1)[N-]C(=O)C(Cc1ccccc1)[N-]C(=O)C[N-]S(=O)(=O)c1ccccc1 (optimized conformer: 69.89348521221287 kcal/mol)

>  <smiles>  (95) 
O=CC(Cc1ccc(O)cc1)NC(=O)C(Cc1ccccc1)NC(=O)C(Cc1ccccc1)NC(=O)CNS(=O)(=O)c1ccccc1

>  <score_type>  (95) 
oracle

>  <origin>  (95) 
adg

>  <m_score__min__energy>  (95) 
-16.719999999999999

>  <m_primary>  (95) 
energy

$$$$
95:0
     RDKit          3D

 56 58  0  0  0  0  0  0  0  0999 V2000
   56.5250   29.8970   43.0860 C   0  0  0  0  0  0  0  0  0  0  0  0
   57.0500   31.0840   43.4240 C   0  0  0  0  0  0  0  0  0  0  0  0
   57.7260   31.9030   42.3490 C   0  0  0  0  0  0  0  0  0  0  0  0
   56.9410   31.5390   44.8700 C   0  0  0  0  0  0  0  0  0  0  0  0
   58.1850   32.1620   45.3870 N   0  0  0  0  0  0  0  0  0  0  0  0
   58.3860   33.4940   45.1130 C   0  0  0  0  0  0  0  0  0  0  0  0
   57.6180   34.0890   44.3020 O   0  0  0  0  0  0  0  0  0  0  0  0
   59.4130   34.1860   45.6920 N   0  0  0  0  0  0  0  0  0  0  0  0
   59.6350   35.6000   45.3340 C   0  0  0  0  0  0  0  0  0  0  0  0
   60.2720   33.5580   46.5480 C   0  0  0  0  0  0  0  0  0  0  0  0
   61.2740   34.1870   46.9880 O   0  0  0  0  0  0  0  0  0  0  0  0
   60.0820   32.2010   46.8850 C   0  0  0  0  0  0  0  0  0  0  0  0
   60.8810   31.5220   47.8460 C   0  0  0  0  0  0  0  0  0  0  0  0
   61.7540   32.2020   48.8250 C   0  0  0  0  0  0  0  0  0  0  0  0
   61.3700   32.7990   50.0090 C   0  0  0  0  0  0  0  0  0  0  0  0
   62.5440   33.1570   50.6400 C   0  0  0  0  0  0  0  0  0  0  0  0
   63.5720   32.7850   49.9130 O   0  0  0  0  0  0  0  0  0  0  0  0
   63.1350   32.1940   48.8240 C   0  0  0  0  0  0  0  0  0  0  0  0
   60.7950   30.1760   47.9520 N   0  0  0  0  0  0  0  0  0  0  0  0
   59.9680   29.4180   47.1970 C   0  0  0  0  0  0  0  0  0  0  0  0
   59.9930   27.9450   47.3940 C   0  0  0  0  0  0  0  0  0  0  0  0
   60.9960   27.3900   47.9210 O   0  0  0  0  0  0  0  0  0  0  0  0
   58.8820   27.1390   46.9660 N   0  0  0  0  0  0  0  0  0  0  0  0
   58.9380   25.6770   46.9000 C   0  0  0  0  0  0  0  0  0  0  0  0
   58.4890   25.1480   45.5200 C   0  0  1  0  0  0  0  0  0  0  0  0
   58.3170   23.6200   45.5510 C   0  0  0  0  0  0  0  0  0  0  0  0
   57.2070   25.8730   45.0370 C   0  0  0  0  0  0  0  0  0  0  0  0
   55.9510   25.5570   45.8640 C   0  0  0  0  0  0  0  0  0  0  0  0
   55.1510   26.6800   45.9840 F   0  0  0  0  0  0  0  0  0  0  0  0
   55.2240   24.5720   45.2200 F   0  0  0  0  0  0  0  0  0  0  0  0
   56.2950   25.0980   47.1230 F   0  0  0  0  0  0  0  0  0  0  0  0
   59.1040   30.0480   46.2810 C   0  0  0  0  0  0  0  0  0  0  0  0
   58.3310   29.2520   45.4440 O   0  0  0  0  0  0  0  0  0  0  0  0
   59.0910   31.4730   46.1770 C   0  0  0  0  0  0  0  0  0  0  0  0
   56.0268   29.2790   43.8475 H   0  0  0  0  0  0  0  0  0  0  0  0
   56.5926   29.5414   42.0472 H   0  0  0  0  0  0  0  0  0  0  0  0
   58.3597   32.6707   42.8170 H   0  0  0  0  0  0  0  0  0  0  0  0
   58.3479   31.2455   41.7237 H   0  0  0  0  0  0  0  0  0  0  0  0
   56.9625   32.3890   41.7237 H   0  0  0  0  0  0  0  0  0  0  0  0
   56.1261   32.2742   44.9438 H   0  0  0  0  0  0  0  0  0  0  0  0
   56.7490   30.6432   45.4788 H   0  0  0  0  0  0  0  0  0  0  0  0
   59.7292   36.2000   46.2511 H   0  0  0  0  0  0  0  0  0  0  0  0
   60.5579   35.6878   44.7420 H   0  0  0  0  0  0  0  0  0  0  0  0
   58.7834   35.9664   44.7420 H   0  0  0  0  0  0  0  0  0  0  0  0
   60.3440   32.9563   50.3730 H   0  0  0  0  0  0  0  0  0  0  0  0
   62.6088   33.6764   51.6075 H   0  0  0  0  0  0  0  0  0  0  0  0
   63.7689   31.7612   48.0360 H   0  0  0  0  0  0  0  0  0  0  0  0
   58.0130   27.6010   46.6170 H   0  0  0  0  0  0  0  0  0  0  0  0
   59.9719   25.3514   47.0871 H   0  0  0  0  0  0  0  0  0  0  0  0
   58.2531   25.2737   47.6604 H   0  0  0  0  0  0  0  0  0  0  0  0
   59.2783   25.3712   44.7871 H   0  0  0  0  0  0  0  0  0  0  0  0
   58.2783   23.2765   46.5953 H   0  0  0  0  0  0  0  0  0  0  0  0
   57.3823   23.3458   45.0399 H   0  0  0  0  0  0  0  0  0  0  0  0
   59.1673   23.1449   45.0399 H   0  0  0  0  0  0  0  0  0  0  0  0
   57.3863   26.9573   45.0838 H   0  0  0  0  0  0  0  0  0  0  0  0
   57.0093   25.5155   44.0157 H   0  0  0  0  0  0  0  0  0  0  0  0
  1  2  2  0
  2  3  1  0
  2  4  1  0
  4  5  1  0
  5  6  1  0
  6  7  2  0
  6  8  1  0
  8  9  1  0
  8 10  1  0
 10 11  2  0
 10 12  1  0
 12 13  2  0
 13 14  1  0
 14 15  1  0
 15 16  2  0
 16 17  1  0
 17 18  1  0
 13 19  1  0
 19 20  2  0
 20 21  1  0
 21 22  2  0
 21 23  1  0
 23 24  1  0
 24 25  1  0
 25 26  1  0
 25 27  1  0
 27 28  1  0
 28 29  1  0
 28 30  1  0
 28 31  1  0
 20 32  1  0
 32 33  1  0
 32 34  2  0
 34  5  1  0
 34 12  1  0
 18 14  2  0
  1 35  1  0
  1 36  1  0
  3 37  1  0
  3 38  1  0
  3 39  1  0
  4 40  1  0
  4 41  1  0
  9 42  1  0
  9 43  1  0
  9 44  1  0
 15 45  1  0
 16 46  1  0
 18 47  1  0
 23 48  1  0
 24 49  1  0
 24 50  1  0
 25 51  1  6
 26 52  1  0
 26 53  1  0
 26 54  1  0
 27 55  1  0
 27 56  1  0
M  CHG  1  33  -1
M  END
>  <UniqueID>  (96) 
89

>  <SMILES>  (96) 
C=C(C)Cn1c(=O)n(C)c(=O)c2c(-c3ccoc3)nc(C(=O)NC[C@@H](C)CC(F)(F)F)c([O-])c21

>  <Energy>  (96) 
110.15988951459686

>  <Genealogy>  (96) 
C=C(C)Cn1c(=O)n(C)c(=O)c2c(-c3ccoc3)nc(C(=O)NCC(C)CC(F)(F)F)c([O-])c21 (protonated)
C=C(C)Cn1c(=O)n(C)c(=O)c2c(-c3ccoc3)nc(C(=O)NC[C@@H](C)CC(F)(F)F)c([O-])c21 (chirality)
C=C(C)Cn1c(=O)n(C)c(=O)c2c(-c3ccoc3)nc(C(=O)NC[C@@H](C)CC(F)(F)F)c([O-])c21 (3D coordinates assigned)
C=C(C)Cn1c(=O)n(C)c(=O)c2c(-c3ccoc3)nc(C(=O)NC[C@@H](C)CC(F)(F)F)c([O-])c21 (optimized conformer: 110.15988951459686 kcal/mol)

>  <smiles>  (96) 
C=C(C)Cn1c(=O)n(C)c(=O)c2c(-c3ccoc3)nc(C(=O)NCC(C)CC(F)(F)F)c(O)c21

>  <score_type>  (96) 
oracle

>  <origin>  (96) 
adg

>  <m_score__min__energy>  (96) 
-8

>  <m_primary>  (96) 
energy

$$$$
96:0
     RDKit          3D

 52 55  0  0  0  0  0  0  0  0999 V2000
   54.6630   30.4420   44.8490 H   0  0  0  0  0  0  0  0  0  0  0  0
   55.4690   29.9560   44.3960 N   0  0  0  0  0  0  0  0  0  0  0  0
   56.3470   29.3050   45.0900 C   0  0  0  0  0  0  0  0  0  0  0  0
   56.2080   27.9620   45.2500 N   0  0  0  0  0  0  0  0  0  0  0  0
   57.0800   27.2220   45.9810 C   0  0  0  0  0  0  0  0  0  0  0  0
   56.8770   25.7600   46.1030 C   0  0  0  0  0  0  0  0  0  0  0  0
   57.9920   24.9300   46.3200 C   0  0  0  0  0  0  0  0  0  0  0  0
   58.9900   25.3771   46.4387 H   0  0  0  0  0  0  0  0  0  0  0  0
   57.8420   23.5420   46.3860 C   0  0  0  0  0  0  0  0  0  0  0  0
   58.7182   22.9021   46.5673 H   0  0  0  0  0  0  0  0  0  0  0  0
   56.5810   22.9680   46.2220 C   0  0  0  0  0  0  0  0  0  0  0  0
   56.4664   21.8746   46.2575 H   0  0  0  0  0  0  0  0  0  0  0  0
   55.4650   23.7790   46.0130 C   0  0  0  0  0  0  0  0  0  0  0  0
   54.4738   23.3199   45.8841 H   0  0  0  0  0  0  0  0  0  0  0  0
   55.5960   25.1720   45.9660 C   0  0  0  0  0  0  0  0  0  0  0  0
   54.4370   25.9350   45.8120 O   0  0  0  0  0  0  0  0  0  0  0  0
   54.3670   26.7110   45.1660 H   0  0  0  0  0  0  0  0  0  0  0  0
   58.1800   27.8460   46.5840 C   0  0  0  0  0  0  0  0  0  0  0  0
   58.8956   27.2523   47.1717 H   0  0  0  0  0  0  0  0  0  0  0  0
   58.3680   29.2270   46.4380 C   0  0  0  0  0  0  0  0  0  0  0  0
   59.5330   29.8650   47.0970 C   0  0  0  0  0  0  0  0  0  0  0  0
   60.7600   29.9740   46.4240 C   0  0  0  0  0  0  0  0  0  0  0  0
   60.8644   29.5736   45.4048 H   0  0  0  0  0  0  0  0  0  0  0  0
   61.8490   30.5900   47.0460 C   0  0  0  0  0  0  0  0  0  0  0  0
   62.8057   30.6814   46.5108 H   0  0  0  0  0  0  0  0  0  0  0  0
   61.7280   31.0900   48.3440 C   0  0  0  0  0  0  0  0  0  0  0  0
   62.5838   31.5903   48.8208 H   0  0  0  0  0  0  0  0  0  0  0  0
   60.5150   30.9560   49.0440 C   0  0  0  0  0  0  0  0  0  0  0  0
   60.3360   31.4800   50.3680 N   0  0  0  0  0  0  0  0  0  0  0  0
   60.5610   32.8290   50.7960 C   0  0  0  0  0  0  0  0  0  0  0  0
   61.3780   33.0880   51.7200 O   0  0  0  0  0  0  0  0  0  0  0  0
   59.7500   33.9350   50.1970 C   0  0  0  0  0  0  0  0  0  0  0  0
   58.6810   33.7030   50.3132 H   0  0  0  0  0  0  0  0  0  0  0  0
   59.9947   34.8741   50.7149 H   0  0  0  0  0  0  0  0  0  0  0  0
   60.0650   34.0920   48.7360 C   0  0  0  0  0  0  0  0  0  0  0  0
   61.3440   33.9270   48.3020 N   0  0  0  0  0  0  0  0  0  0  0  0
   61.6890   34.0760   46.9920 C   0  0  0  0  0  0  0  0  0  0  0  0
   63.1060   33.8610   46.5650 C   0  0  0  0  0  0  0  0  0  0  0  0
   63.7462   33.7639   47.4542 H   0  0  0  0  0  0  0  0  0  0  0  0
   63.1723   32.9425   45.9633 H   0  0  0  0  0  0  0  0  0  0  0  0
   63.4418   34.7185   45.9633 H   0  0  0  0  0  0  0  0  0  0  0  0
   60.7070   34.4080   46.0500 C   0  0  0  0  0  0  0  0  0  0  0  0
   60.9725   34.5249   44.9890 H   0  0  0  0  0  0  0  0  0  0  0  0
   59.3890   34.5890   46.4700 C   0  0  0  0  0  0  0  0  0  0  0  0
   58.6100   34.8544   45.7401 H   0  0  0  0  0  0  0  0  0  0  0  0
   59.0600   34.4330   47.8170 C   0  0  0  0  0  0  0  0  0  0  0  0
   58.0232   34.5758   48.1555 H   0  0  0  0  0  0  0  0  0  0  0  0
   59.4210   30.3550   48.4080 C   0  0  0  0  0  0  0  0  0  0  0  0
   58.4633   30.2660   48.9418 H   0  0  0  0  0  0  0  0  0  0  0  0
   57.4330   29.9740   45.6850 C   0  0  0  0  0  0  0  0  0  0  0  0
   57.5580   31.4120   45.5560 C   0  0  0  0  0  0  0  0  0  0  0  0
   57.6570   32.5610   45.4540 N   0  0  0  0  0  0  0  0  0  0  0  0
  1  2  1  0
  2  3  2  0
  3  4  1  0
  4  5  1  0
  5  6  1  0
  6  7  2  0
  7  8  1  0
  7  9  1  0
  9 10  1  0
  9 11  2  0
 11 12  1  0
 11 13  1  0
 13 14  1  0
 13 15  2  0
 15 16  1  0
 16 17  1  0
  5 18  2  0
 18 19  1  0
 18 20  1  0
 20 21  1  0
 21 22  2  0
 22 23  1  0
 22 24  1  0
 24 25  1  0
 24 26  2  0
 26 27  1  0
 26 28  1  0
 28 29  1  0
 29 30  1  0
 30 31  2  0
 30 32  1  0
 32 33  1  0
 32 34  1  0
 32 35  1  0
 35 36  2  0
 36 37  1  0
 37 38  1  0
 38 39  1  0
 38 40  1  0
 38 41  1  0
 37 42  2  0
 42 43  1  0
 42 44  1  0
 44 45  1  0
 44 46  2  0
 46 47  1  0
 28 48  2  0
 48 49  1  0
 20 50  2  0
 50 51  1  0
 51 52  3  0
 50  3  1  0
 15  6  1  0
 48 21  1  0
 46 35  1  0
M  CHG  2   4  -1  29  -1
M  END
>  <UniqueID>  (97) 
90

>  <SMILES>  (97) 
[H]/N=c1\[n-]c(-c2ccccc2O)cc(-c2cccc([N-]C(=O)Cc3cccc(C)n3)c2)c1C#N

>  <Energy>  (97) 
73.36211814523027

>  <Genealogy>  (97) 
Cc1cccc(CC(=O)[N-]c2cccc(-c3cc(-c4ccccc4O)[n-]c(=N)c3C#N)c2)n1 (protonated)
[H]/N=c1\[n-]c(-c2ccccc2O)cc(-c2cccc([N-]C(=O)Cc3cccc(C)n3)c2)c1C#N (cis-trans isomerization)
[H]/N=c1\[n-]c(-c2ccccc2O)cc(-c2cccc([N-]C(=O)Cc3cccc(C)n3)c2)c1C#N (3D coordinates assigned)
[H]/N=c1\[n-]c(-c2ccccc2O)cc(-c2cccc([N-]C(=O)Cc3cccc(C)n3)c2)c1C#N (optimized conformer: 73.36211814523027 kcal/mol)

>  <smiles>  (97) 
Cc1cccc(CC(=O)Nc2cccc(-c3cc(-c4ccccc4O)[nH]c(=N)c3C#N)c2)n1

>  <score_type>  (97) 
oracle

>  <origin>  (97) 
adg

>  <m_score__min__energy>  (97) 
-12.65

>  <m_primary>  (97) 
energy

$$$$
