0:0
     RDKit          3D

 53 55  0  0  0  0  0  0  0  0999 V2000
   59.7380   29.3670   44.4420 C   0  0  0  0  0  0  0  0  0  0  0  0
   59.5550   28.9810   45.7150 C   0  0  0  0  0  0  0  0  0  0  0  0
   58.5860   28.0780   46.1840 C   0  0  0  0  0  0  0  0  0  0  0  0
   57.7550   27.2470   45.5230 C   0  0  0  0  0  0  0  0  0  0  0  0
   57.1610   26.0170   46.0720 C   0  0  0  0  0  0  0  0  0  0  0  0
   57.8530   24.9820   46.5780 N   0  0  0  0  0  0  0  0  0  0  0  0
   56.9130   24.1630   47.0890 C   0  0  0  0  0  0  0  0  0  0  0  0
   57.1880   23.0700   47.6510 O   0  0  0  0  0  0  0  0  0  0  0  0
   55.6500   24.6250   46.9610 N   0  0  0  0  0  0  0  0  0  0  0  0
   55.8270   25.8030   46.3290 C   0  0  0  0  0  0  0  0  0  0  0  0
   54.7880   26.6650   46.0000 O   0  0  0  0  0  0  0  0  0  0  0  0
   58.6210   28.1530   47.5640 C   0  0  0  0  0  0  0  0  0  0  0  0
   59.6400   29.0220   47.8930 C   0  0  0  0  0  0  0  0  0  0  0  0
   60.0110   29.3930   49.2970 C   0  0  0  0  0  0  0  0  0  0  0  0
   60.2090   29.5320   46.7760 N   0  0  0  0  0  0  0  0  0  0  0  0
   61.3350   30.4850   46.7550 C   0  0  0  0  0  0  0  0  0  0  0  0
   60.8700   31.9050   47.1100 C   0  0  0  0  0  0  0  0  0  0  0  0
   61.7520   32.5500   48.1520 C   0  0  0  0  0  0  0  0  0  0  0  0
   63.0000   31.9790   48.4500 C   0  0  0  0  0  0  0  0  0  0  0  0
   63.8400   32.5700   49.3940 C   0  0  0  0  0  0  0  0  0  0  0  0
   63.4510   33.7440   50.0360 C   0  0  0  0  0  0  0  0  0  0  0  0
   62.2190   34.3310   49.7430 C   0  0  0  0  0  0  0  0  0  0  0  0
   61.3520   33.7380   48.8010 C   0  0  0  0  0  0  0  0  0  0  0  0
   60.1070   34.2980   48.4630 O   0  0  0  0  0  0  0  0  0  0  0  0
   59.7510   34.9170   47.2230 C   0  0  0  0  0  0  0  0  0  0  0  0
   58.4500   34.3300   46.6400 C   0  0  0  0  0  0  0  0  0  0  0  0
   58.6130   33.9870   45.1530 C   0  0  0  0  0  0  0  0  0  0  0  0
   57.9560   33.1100   47.4250 C   0  0  0  0  0  0  0  0  0  0  0  0
   60.5343   30.0841   44.1938 H   0  0  0  0  0  0  0  0  0  0  0  0
   59.0916   28.9661   43.6474 H   0  0  0  0  0  0  0  0  0  0  0  0
   57.4993   27.5104   44.4860 H   0  0  0  0  0  0  0  0  0  0  0  0
   58.8880   24.8550   46.6040 H   0  0  0  0  0  0  0  0  0  0  0  0
   57.9618   27.6210   48.2657 H   0  0  0  0  0  0  0  0  0  0  0  0
   59.4148   28.7968   50.0035 H   0  0  0  0  0  0  0  0  0  0  0  0
   61.0803   29.1921   49.4590 H   0  0  0  0  0  0  0  0  0  0  0  0
   59.8101   30.4623   49.4590 H   0  0  0  0  0  0  0  0  0  0  0  0
   62.0914   30.1623   47.4856 H   0  0  0  0  0  0  0  0  0  0  0  0
   61.7575   30.5014   45.7395 H   0  0  0  0  0  0  0  0  0  0  0  0
   60.8883   32.5218   46.1994 H   0  0  0  0  0  0  0  0  0  0  0  0
   59.8537   31.8338   47.5249 H   0  0  0  0  0  0  0  0  0  0  0  0
   63.3172   31.0598   47.9357 H   0  0  0  0  0  0  0  0  0  0  0  0
   64.8100   32.1090   49.6317 H   0  0  0  0  0  0  0  0  0  0  0  0
   64.1175   34.2100   50.7767 H   0  0  0  0  0  0  0  0  0  0  0  0
   61.9223   35.2613   50.2494 H   0  0  0  0  0  0  0  0  0  0  0  0
   59.6107   35.9950   47.3910 H   0  0  0  0  0  0  0  0  0  0  0  0
   60.5618   34.7300   46.5035 H   0  0  0  0  0  0  0  0  0  0  0  0
   57.6820   35.1116   46.7361 H   0  0  0  0  0  0  0  0  0  0  0  0
   59.0832   32.9975   45.0544 H   0  0  0  0  0  0  0  0  0  0  0  0
   57.6251   33.9733   44.6694 H   0  0  0  0  0  0  0  0  0  0  0  0
   59.2475   34.7443   44.6694 H   0  0  0  0  0  0  0  0  0  0  0  0
   58.0372   33.3105   48.5035 H   0  0  0  0  0  0  0  0  0  0  0  0
   56.9056   32.9090   47.1675 H   0  0  0  0  0  0  0  0  0  0  0  0
   58.5706   32.2348   47.1675 H   0  0  0  0  0  0  0  0  0  0  0  0
  1  2  2  0
  2  3  1  0
  3  4  2  3
  4  5  1  0
  5  6  1  0
  6  7  1  0
  7  8  2  0
  7  9  1  0
  9 10  1  0
 10 11  1  0
  3 12  1  0
 12 13  2  0
 13 14  1  0
 13 15  1  0
 15 16  1  0
 16 17  1  0
 17 18  1  0
 18 19  2  0
 19 20  1  0
 20 21  2  0
 21 22  1  0
 22 23  2  0
 23 24  1  0
 24 25  1  0
 25 26  1  0
 26 27  1  0
 26 28  1  0
 15  2  1  0
 23 18  1  0
 10  5  2  0
  1 29  1  0
  1 30  1  0
  4 31  1  0
  6 32  1  0
 12 33  1  0
 14 34  1  0
 14 35  1  0
 14 36  1  0
 16 37  1  0
 16 38  1  0
 17 39  1  0
 17 40  1  0
 19 41  1  0
 20 42  1  0
 21 43  1  0
 22 44  1  0
 25 45  1  0
 25 46  1  0
 26 47  1  0
 27 48  1  0
 27 49  1  0
 27 50  1  0
 28 51  1  0
 28 52  1  0
 28 53  1  0
M  CHG  2   9  -1  11  -1
M  END
>  <UniqueID>  (1) 
1

>  <SMILES>  (1) 
C=c1c(=Cc2[nH]c(=O)[n-]c2[O-])cc(C)n1CCc1ccccc1OCC(C)C

>  <Energy>  (1) 
116.11415903765356

>  <Genealogy>  (1) 
C=c1c(=Cc2[nH]c(=O)[n-]c2[O-])cc(C)n1CCc1ccccc1OCC(C)C (protonated)
C=c1c(=Cc2[nH]c(=O)[n-]c2[O-])cc(C)n1CCc1ccccc1OCC(C)C (3D coordinates assigned)
C=c1c(=Cc2[nH]c(=O)[n-]c2[O-])cc(C)n1CCc1ccccc1OCC(C)C (optimized conformer: 116.11415903765356 kcal/mol)

>  <smiles>  (1) 
C=c1c(=Cc2[nH]c(=O)[nH]c2O)cc(C)n1CCc1ccccc1OCC(C)C

>  <score_type>  (1) 
oracle

>  <origin>  (1) 
adg

>  <m_score__min__energy>  (1) 
-14.25

>  <m_primary>  (1) 
energy

$$$$
1:0
     RDKit          3D

 47 49  0  0  0  0  0  0  0  0999 V2000
   64.0500   32.0700   49.1330 C   0  0  0  0  0  0  0  0  0  0  0  0
   63.2240   33.1980   49.7640 C   0  0  0  0  0  0  0  0  0  0  0  0
   62.4480   33.9620   48.7550 N   0  0  0  0  0  0  0  0  0  0  0  0
   60.9800   33.9020   49.0180 C   0  0  0  0  0  0  0  0  0  0  0  0
   60.2620   32.8510   48.1510 C   0  0  0  0  0  0  0  0  0  0  0  0
   60.4680   33.0720   46.6990 N   0  0  0  0  0  0  0  0  0  0  0  0
   59.0820   33.8470   45.9720 S   0  0  0  0  0  0  0  0  0  0  0  0
   59.5160   35.0810   45.2310 O   0  0  0  0  0  0  0  0  0  0  0  0
   58.1020   34.2350   47.0450 O   0  0  0  0  0  0  0  0  0  0  0  0
   58.3190   32.7430   44.8320 C   0  0  0  0  0  0  0  0  0  0  0  0
   58.3110   33.0280   43.4610 C   0  0  0  0  0  0  0  0  0  0  0  0
   57.6890   32.1540   42.5670 C   0  0  0  0  0  0  0  0  0  0  0  0
   57.0650   30.9940   43.0340 C   0  0  0  0  0  0  0  0  0  0  0  0
   56.4930   30.1470   42.1410 F   0  0  0  0  0  0  0  0  0  0  0  0
   57.0590   30.7020   44.4110 C   0  0  0  0  0  0  0  0  0  0  0  0
   56.4010   29.4810   44.9310 C   0  0  0  0  0  0  0  0  0  0  0  0
   55.1480   29.3810   44.8530 O   0  0  0  0  0  0  0  0  0  0  0  0
   57.1370   28.4200   45.5590 N   0  0  0  0  0  0  0  0  0  0  0  0
   58.2240   28.5510   46.2650 C   0  0  0  0  0  0  0  0  0  0  0  0
   59.4510   28.7410   45.6200 C   0  0  0  0  0  0  0  0  0  0  0  0
   60.5810   28.8960   46.3590 N   0  0  0  0  0  0  0  0  0  0  0  0
   60.5430   28.8750   47.7170 C   0  0  0  0  0  0  0  0  0  0  0  0
   59.3210   28.6950   48.3660 C   0  0  0  0  0  0  0  0  0  0  0  0
   58.1910   28.5410   47.6290 N   0  0  0  0  0  0  0  0  0  0  0  0
   57.7050   31.5740   45.3020 C   0  0  0  0  0  0  0  0  0  0  0  0
   61.6970   33.8270   46.3810 C   0  0  0  0  0  0  0  0  0  0  0  0
   62.8070   33.5030   47.3870 C   0  0  0  0  0  0  0  0  0  0  0  0
   64.4995   31.4562   49.9274 H   0  0  0  0  0  0  0  0  0  0  0  0
   63.3968   31.4418   48.5095 H   0  0  0  0  0  0  0  0  0  0  0  0
   64.8461   32.5031   48.5095 H   0  0  0  0  0  0  0  0  0  0  0  0
   62.5240   32.7597   50.4906 H   0  0  0  0  0  0  0  0  0  0  0  0
   63.9229   33.8954   50.2489 H   0  0  0  0  0  0  0  0  0  0  0  0
   62.7360   34.9690   48.8160 H   0  0  0  0  0  0  0  0  0  0  0  0
   60.8225   33.6510   50.0773 H   0  0  0  0  0  0  0  0  0  0  0  0
   60.5572   34.8855   48.7650 H   0  0  0  0  0  0  0  0  0  0  0  0
   60.6473   31.8548   48.4138 H   0  0  0  0  0  0  0  0  0  0  0  0
   59.1836   32.9348   48.3509 H   0  0  0  0  0  0  0  0  0  0  0  0
   58.7956   33.9421   43.0875 H   0  0  0  0  0  0  0  0  0  0  0  0
   57.6902   32.3796   41.4904 H   0  0  0  0  0  0  0  0  0  0  0  0
   59.5007   28.7648   44.5214 H   0  0  0  0  0  0  0  0  0  0  0  0
   61.4677   28.9988   48.2998 H   0  0  0  0  0  0  0  0  0  0  0  0
   59.2735   28.6780   49.4648 H   0  0  0  0  0  0  0  0  0  0  0  0
   57.7294   31.3381   46.3761 H   0  0  0  0  0  0  0  0  0  0  0  0
   62.0356   33.5565   45.3700 H   0  0  0  0  0  0  0  0  0  0  0  0
   61.4748   34.9030   46.4337 H   0  0  0  0  0  0  0  0  0  0  0  0
   62.9678   32.4150   47.4049 H   0  0  0  0  0  0  0  0  0  0  0  0
   63.7223   34.0269   47.0743 H   0  0  0  0  0  0  0  0  0  0  0  0
  1  2  1  0
  2  3  1  0
  3  4  1  0
  4  5  1  0
  5  6  1  0
  6  7  1  0
  7  8  2  0
  7  9  2  0
  7 10  1  0
 10 11  2  0
 11 12  1  0
 12 13  2  0
 13 14  1  0
 13 15  1  0
 15 16  1  0
 16 17  2  0
 16 18  1  0
 18 19  2  3
 19 20  1  0
 20 21  2  0
 21 22  1  0
 22 23  2  0
 23 24  1  0
 15 25  2  0
  6 26  1  0
 26 27  1  0
 27  3  1  0
 25 10  1  0
 24 19  1  0
  1 28  1  0
  1 29  1  0
  1 30  1  0
  2 31  1  0
  2 32  1  0
  3 33  1  0
  4 34  1  0
  4 35  1  0
  5 36  1  0
  5 37  1  0
 11 38  1  0
 12 39  1  0
 20 40  1  0
 22 41  1  0
 23 42  1  0
 25 43  1  0
 26 44  1  0
 26 45  1  0
 27 46  1  0
 27 47  1  0
M  CHG  2   3   1  24  -1
M  END
>  <UniqueID>  (2) 
2

>  <SMILES>  (2) 
CC[NH+]1CCN(S(=O)(=O)c2ccc(F)c(C(=O)N=c3cncc[n-]3)c2)CC1

>  <Energy>  (2) 
69.70332261239771

>  <Genealogy>  (2) 
CC[NH+]1CCN(S(=O)(=O)c2ccc(F)c(C(=O)N=c3cncc[n-]3)c2)CC1 (protonated)
CC[NH+]1CCN(S(=O)(=O)c2ccc(F)c(C(=O)N=c3cncc[n-]3)c2)CC1 (3D coordinates assigned)
CC[NH+]1CCN(S(=O)(=O)c2ccc(F)c(C(=O)N=c3cncc[n-]3)c2)CC1 (nonaromatic ring conformer: 69.70332261239771 kcal/mol)

>  <smiles>  (2) 
CCN1CCN(S(=O)(=O)c2ccc(F)c(C(=O)N=c3cncc[nH]3)c2)CC1

>  <score_type>  (2) 
oracle

>  <origin>  (2) 
adg

>  <m_score__min__energy>  (2) 
-9.3800000000000008

>  <m_primary>  (2) 
energy

$$$$
2:0
     RDKit          3D

 62 66  0  0  0  0  0  0  0  0999 V2000
   64.5230   32.2760   50.3210 O   0  0  0  0  0  0  0  0  0  0  0  0
   63.6230   31.9260   49.5090 C   0  0  0  0  0  0  0  0  0  0  0  0
   63.4520   32.6900   48.3060 N   0  0  0  0  0  0  0  0  0  0  0  0
   62.4290   33.4160   47.9580 C   0  0  0  0  0  0  0  0  0  0  0  0
   61.5410   33.8740   48.8650 N   0  0  0  0  0  0  0  0  0  0  0  0
   60.4940   34.5130   48.2770 C   0  0  0  0  0  0  0  0  0  0  0  0
   60.5580   34.5750   46.8910 C   0  0  0  0  0  0  0  0  0  0  0  0
   59.2770   35.2190   45.8190 S   0  0  0  0  0  0  0  0  0  0  0  0
   58.7150   33.5690   45.4010 C   0  0  0  0  0  0  0  0  0  0  0  0
   58.2820   33.2840   44.1010 C   0  0  0  0  0  0  0  0  0  0  0  0
   57.6810   32.0540   43.8210 C   0  0  0  0  0  0  0  0  0  0  0  0
   57.5410   31.0870   44.8300 C   0  0  0  0  0  0  0  0  0  0  0  0
   56.7510   29.8690   44.5690 C   0  0  0  0  0  0  0  0  0  0  0  0
   55.5120   29.8610   44.7920 O   0  0  0  0  0  0  0  0  0  0  0  0
   57.3910   28.6890   44.0740 N   0  0  0  0  0  0  0  0  0  0  0  0
   57.9450   27.6900   44.9420 C   0  0  0  0  0  0  0  0  0  0  0  0
   59.1500   27.9220   45.6260 C   0  0  0  0  0  0  0  0  0  0  0  0
   59.6550   26.9650   46.5060 C   0  0  0  0  0  0  0  0  0  0  0  0
   58.9580   25.7750   46.7220 C   0  0  0  0  0  0  0  0  0  0  0  0
   57.7580   25.5310   46.0400 C   0  0  0  0  0  0  0  0  0  0  0  0
   56.8410   24.0720   46.4010 S   0  0  0  0  0  0  0  0  0  0  0  0
   55.4200   24.4560   46.7080 O   0  0  0  0  0  0  0  0  0  0  0  0
   57.4270   23.3810   47.6030 O   0  0  0  0  0  0  0  0  0  0  0  0
   56.8780   23.0060   45.0190 N   0  0  0  0  0  0  0  0  0  0  0  0
   56.2750   21.7100   45.3620 C   0  0  0  0  0  0  0  0  0  0  0  0
   56.3060   20.7720   44.1350 C   0  0  0  0  0  0  0  0  0  0  0  0
   56.7050   21.4420   42.9520 O   0  0  0  0  0  0  0  0  0  0  0  0
   55.9140   22.5970   42.7650 C   0  0  0  0  0  0  0  0  0  0  0  0
   56.1600   23.6220   43.8890 C   0  0  0  0  0  0  0  0  0  0  0  0
   57.2630   26.4840   45.1360 C   0  0  0  0  0  0  0  0  0  0  0  0
   58.0500   31.3460   46.1110 C   0  0  0  0  0  0  0  0  0  0  0  0
   58.6180   32.5910   46.3980 C   0  0  0  0  0  0  0  0  0  0  0  0
   61.9520   33.7910   46.3770 S   0  0  0  0  0  0  0  0  0  0  0  0
   62.7480   30.8410   49.8320 N   0  0  0  0  0  0  0  0  0  0  0  0
   61.3280   30.9740   49.9610 C   0  0  0  0  0  0  0  0  0  0  0  0
   60.8130   31.4480   51.1740 C   0  0  0  0  0  0  0  0  0  0  0  0
   59.4310   31.5320   51.3700 C   0  0  0  0  0  0  0  0  0  0  0  0
   58.5550   31.1560   50.3470 C   0  0  0  0  0  0  0  0  0  0  0  0
   59.0620   30.7210   49.1180 C   0  0  0  0  0  0  0  0  0  0  0  0
   60.4450   30.6360   48.9120 C   0  0  0  0  0  0  0  0  0  0  0  0
   61.0420   30.2120   47.3140 Cl  0  0  0  0  0  0  0  0  0  0  0  0
   59.6630   34.9460   48.8532 H   0  0  0  0  0  0  0  0  0  0  0  0
   58.4146   34.0271   43.3009 H   0  0  0  0  0  0  0  0  0  0  0  0
   57.3157   31.8420   42.8053 H   0  0  0  0  0  0  0  0  0  0  0  0
   59.6976   28.8626   45.4668 H   0  0  0  0  0  0  0  0  0  0  0  0
   60.6042   27.1483   47.0308 H   0  0  0  0  0  0  0  0  0  0  0  0
   59.3507   25.0283   47.4278 H   0  0  0  0  0  0  0  0  0  0  0  0
   56.8415   21.2512   46.1858 H   0  0  0  0  0  0  0  0  0  0  0  0
   55.2308   21.8676   45.6699 H   0  0  0  0  0  0  0  0  0  0  0  0
   57.0142   19.9541   44.3336 H   0  0  0  0  0  0  0  0  0  0  0  0
   55.2856   20.3927   43.9773 H   0  0  0  0  0  0  0  0  0  0  0  0
   56.1691   23.0552   41.7981 H   0  0  0  0  0  0  0  0  0  0  0  0
   54.8542   22.3031   42.7842 H   0  0  0  0  0  0  0  0  0  0  0  0
   56.7605   24.4538   43.4920 H   0  0  0  0  0  0  0  0  0  0  0  0
   55.1867   23.9864   44.2496 H   0  0  0  0  0  0  0  0  0  0  0  0
   56.3364   26.2820   44.5787 H   0  0  0  0  0  0  0  0  0  0  0  0
   58.0024   30.5702   46.8894 H   0  0  0  0  0  0  0  0  0  0  0  0
   58.9901   32.8029   47.4112 H   0  0  0  0  0  0  0  0  0  0  0  0
   61.4992   31.7558   51.9767 H   0  0  0  0  0  0  0  0  0  0  0  0
   59.0328   31.8940   52.3294 H   0  0  0  0  0  0  0  0  0  0  0  0
   57.4679   31.2023   50.5086 H   0  0  0  0  0  0  0  0  0  0  0  0
   58.3706   30.4440   48.3085 H   0  0  0  0  0  0  0  0  0  0  0  0
  1  2  2  0
  2  3  1  0
  3  4  2  3
  4  5  1  0
  5  6  1  0
  6  7  2  0
  7  8  1  0
  8  9  1  0
  9 10  2  0
 10 11  1  0
 11 12  2  0
 12 13  1  0
 13 14  2  0
 13 15  1  0
 15 16  1  0
 16 17  2  0
 17 18  1  0
 18 19  2  0
 19 20  1  0
 20 21  1  0
 21 22  2  0
 21 23  2  0
 21 24  1  0
 24 25  1  0
 25 26  1  0
 26 27  1  0
 27 28  1  0
 28 29  1  0
 20 30  2  0
 12 31  1  0
 31 32  2  0
  7 33  1  0
  2 34  1  0
 34 35  1  0
 35 36  2  0
 36 37  1  0
 37 38  2  0
 38 39  1  0
 39 40  2  0
 40 41  1  0
 33  4  1  0
 40 35  1  0
 32  9  1  0
 30 16  1  0
 29 24  1  0
  6 42  1  0
 10 43  1  0
 11 44  1  0
 17 45  1  0
 18 46  1  0
 19 47  1  0
 25 48  1  0
 25 49  1  0
 26 50  1  0
 26 51  1  0
 28 52  1  0
 28 53  1  0
 29 54  1  0
 29 55  1  0
 30 56  1  0
 31 57  1  0
 32 58  1  0
 36 59  1  0
 37 60  1  0
 38 61  1  0
 39 62  1  0
M  CHG  3   5  -1  15  -1  34  -1
M  END
>  <UniqueID>  (3) 
3

>  <SMILES>  (3) 
O=C(N=c1[n-]cc(Sc2ccc(C(=O)[N-]c3cccc(S(=O)(=O)N4CCOCC4)c3)cc2)s1)[N-]c1ccccc1Cl

>  <Energy>  (3) 
119.37298927884281

>  <Genealogy>  (3) 
O=C(N=c1[n-]cc(Sc2ccc(C(=O)[N-]c3cccc(S(=O)(=O)N4CCOCC4)c3)cc2)s1)[N-]c1ccccc1Cl (protonated)
O=C(N=c1[n-]cc(Sc2ccc(C(=O)[N-]c3cccc(S(=O)(=O)N4CCOCC4)c3)cc2)s1)[N-]c1ccccc1Cl (3D coordinates assigned)
O=C(N=c1[n-]cc(Sc2ccc(C(=O)[N-]c3cccc(S(=O)(=O)N4CCOCC4)c3)cc2)s1)[N-]c1ccccc1Cl (nonaromatic ring conformer: 119.37298927884281 kcal/mol)

>  <smiles>  (3) 
O=C(N=c1[nH]cc(Sc2ccc(C(=O)Nc3cccc(S(=O)(=O)N4CCOCC4)c3)cc2)s1)Nc1ccccc1Cl

>  <score_type>  (3) 
oracle

>  <origin>  (3) 
adg

>  <m_score__min__energy>  (3) 
-14.93

>  <m_primary>  (3) 
energy

$$$$
3:0
     RDKit          3D

 38 40  0  0  0  0  0  0  0  0999 V2000
   59.2920   35.4560   44.8720 C   0  0  0  0  0  0  0  0  0  0  0  0
   58.1940   34.6980   45.3700 O   0  0  0  0  0  0  0  0  0  0  0  0
   58.2210   33.3140   45.6100 C   0  0  0  0  0  0  0  0  0  0  0  0
   57.3990   32.4220   44.8910 C   0  0  0  0  0  0  0  0  0  0  0  0
   57.3990   31.0490   45.1840 C   0  0  0  0  0  0  0  0  0  0  0  0
   56.5190   30.1250   44.4280 C   0  0  0  0  0  0  0  0  0  0  0  0
   56.1300   30.4510   43.2750 O   0  0  0  0  0  0  0  0  0  0  0  0
   56.0390   28.8920   44.9890 N   0  0  0  0  0  0  0  0  0  0  0  0
   56.7730   27.8760   45.3460 C   0  0  0  0  0  0  0  0  0  0  0  0
   58.1260   27.8910   45.1730 N   0  0  0  0  0  0  0  0  0  0  0  0
   58.9100   26.8370   45.5240 C   0  0  0  0  0  0  0  0  0  0  0  0
   58.3330   25.6900   46.0740 C   0  0  0  0  0  0  0  0  0  0  0  0
   56.9500   25.6420   46.2530 C   0  0  0  0  0  0  0  0  0  0  0  0
   56.1610   26.7350   45.8870 C   0  0  0  0  0  0  0  0  0  0  0  0
   54.7810   26.6840   46.0630 O   0  0  0  0  0  0  0  0  0  0  0  0
   58.2030   30.5730   46.2310 C   0  0  0  0  0  0  0  0  0  0  0  0
   59.0260   31.4470   46.9420 C   0  0  0  0  0  0  0  0  0  0  0  0
   59.0690   32.8070   46.6190 C   0  0  0  0  0  0  0  0  0  0  0  0
   59.9330   33.6620   47.3800 N   0  0  0  0  0  0  0  0  0  0  0  0
   61.3380   33.8280   47.1580 C   0  0  0  0  0  0  0  0  0  0  0  0
   61.7770   34.1010   46.0080 O   0  0  0  0  0  0  0  0  0  0  0  0
   62.2820   33.6310   48.2630 C   0  0  0  0  0  0  0  0  0  0  0  0
   63.4210   32.8510   48.2300 C   0  0  0  0  0  0  0  0  0  0  0  0
   63.9860   32.9660   49.4820 C   0  0  0  0  0  0  0  0  0  0  0  0
   63.1590   33.8080   50.2000 C   0  0  0  0  0  0  0  0  0  0  0  0
   62.1520   34.1870   49.4460 O   0  0  0  0  0  0  0  0  0  0  0  0
   59.8731   35.8572   45.7154 H   0  0  0  0  0  0  0  0  0  0  0  0
   59.9357   34.8090   44.2580 H   0  0  0  0  0  0  0  0  0  0  0  0
   58.9152   36.2873   44.2580 H   0  0  0  0  0  0  0  0  0  0  0  0
   56.7498   32.8067   44.0907 H   0  0  0  0  0  0  0  0  0  0  0  0
   59.9987   26.8876   45.3748 H   0  0  0  0  0  0  0  0  0  0  0  0
   58.9615   24.8346   46.3626 H   0  0  0  0  0  0  0  0  0  0  0  0
   56.4814   24.7440   46.6820 H   0  0  0  0  0  0  0  0  0  0  0  0
   58.1843   29.5047   46.4927 H   0  0  0  0  0  0  0  0  0  0  0  0
   59.6470   31.0626   47.7645 H   0  0  0  0  0  0  0  0  0  0  0  0
   63.7986   32.2611   47.3818 H   0  0  0  0  0  0  0  0  0  0  0  0
   64.9089   32.4846   49.8376 H   0  0  0  0  0  0  0  0  0  0  0  0
   63.3192   34.1145   51.2442 H   0  0  0  0  0  0  0  0  0  0  0  0
  1  2  1  0
  2  3  1  0
  3  4  2  0
  4  5  1  0
  5  6  1  0
  6  7  2  0
  6  8  1  0
  8  9  2  3
  9 10  1  0
 10 11  1  0
 11 12  2  0
 12 13  1  0
 13 14  2  0
 14 15  1  0
  5 16  2  0
 16 17  1  0
 17 18  2  0
 18 19  1  0
 19 20  1  0
 20 21  2  0
 20 22  1  0
 22 23  2  0
 23 24  1  0
 24 25  2  0
 25 26  1  0
 18  3  1  0
 26 22  1  0
 14  9  1  0
  1 27  1  0
  1 28  1  0
  1 29  1  0
  4 30  1  0
 11 31  1  0
 12 32  1  0
 13 33  1  0
 16 34  1  0
 17 35  1  0
 23 36  1  0
 24 37  1  0
 25 38  1  0
M  CHG  3  10  -1  15  -1  19  -1
M  END
>  <UniqueID>  (4) 
4

>  <SMILES>  (4) 
COc1cc(C(=O)N=c2[n-]cccc2[O-])ccc1[N-]C(=O)c1ccco1

>  <Energy>  (4) 
79.50206399635152

>  <Genealogy>  (4) 
COc1cc(C(=O)N=c2[n-]cccc2[O-])ccc1[N-]C(=O)c1ccco1 (protonated)
COc1cc(C(=O)N=c2[n-]cccc2[O-])ccc1[N-]C(=O)c1ccco1 (3D coordinates assigned)
COc1cc(C(=O)N=c2[n-]cccc2[O-])ccc1[N-]C(=O)c1ccco1 (optimized conformer: 79.50206399635152 kcal/mol)

>  <smiles>  (4) 
COc1cc(C(=O)N=c2[nH]cccc2O)ccc1NC(=O)c1ccco1

>  <score_type>  (4) 
oracle

>  <origin>  (4) 
adg

>  <m_score__min__energy>  (4) 
-13.619999999999999

>  <m_primary>  (4) 
energy

$$$$
4:0
     RDKit          3D

 45 48  0  0  0  0  0  0  0  0999 V2000
   60.0140   36.5280   45.6260 O   0  0  0  0  0  0  0  0  0  0  0  0
   59.6120   35.3410   45.7400 C   0  0  0  0  0  0  0  0  0  0  0  0
   59.7030   34.6910   46.9720 C   0  0  0  0  0  0  0  0  0  0  0  0
   59.2600   33.3660   47.0940 C   0  0  0  0  0  0  0  0  0  0  0  0
   59.3890   32.6690   48.4390 C   0  0  0  0  0  0  0  0  0  0  0  0
   60.6350   31.8660   48.5380 N   0  0  0  0  0  0  0  0  0  0  0  0
   60.9340   31.5930   49.9660 C   0  0  0  0  0  0  0  0  0  0  0  0
   62.3650   31.0800   50.1630 C   0  0  0  0  0  0  0  0  0  0  0  0
   63.3310   32.0530   49.6370 N   0  0  0  0  0  0  0  0  0  0  0  0
   64.6980   32.0460   50.1040 C   0  0  0  0  0  0  0  0  0  0  0  0
   65.5780   33.0910   49.7570 C   0  0  0  0  0  0  0  0  0  0  0  0
   66.9020   33.0820   50.2070 C   0  0  0  0  0  0  0  0  0  0  0  0
   67.3640   32.0340   51.0060 C   0  0  0  0  0  0  0  0  0  0  0  0
   66.5040   30.9900   51.3550 C   0  0  0  0  0  0  0  0  0  0  0  0
   66.9560   29.9700   52.1250 F   0  0  0  0  0  0  0  0  0  0  0  0
   65.1790   30.9940   50.9070 C   0  0  0  0  0  0  0  0  0  0  0  0
   62.8600   33.0810   48.7010 C   0  0  0  0  0  0  0  0  0  0  0  0
   61.7650   32.5000   47.7930 C   0  0  0  0  0  0  0  0  0  0  0  0
   58.7140   32.7300   45.9500 C   0  0  0  0  0  0  0  0  0  0  0  0
   58.2170   31.4100   45.9670 C   0  0  0  0  0  0  0  0  0  0  0  0
   57.6940   30.8350   44.8030 C   0  0  0  0  0  0  0  0  0  0  0  0
   57.0320   29.0440   44.8390 Br  0  0  0  0  0  0  0  0  0  0  0  0
   57.6540   31.5670   43.6150 C   0  0  0  0  0  0  0  0  0  0  0  0
   58.1340   32.8770   43.5820 C   0  0  0  0  0  0  0  0  0  0  0  0
   58.6590   33.4650   44.7380 C   0  0  0  0  0  0  0  0  0  0  0  0
   59.1050   34.7150   44.6860 O   0  0  0  0  0  0  0  0  0  0  0  0
   60.1206   35.2160   47.8438 H   0  0  0  0  0  0  0  0  0  0  0  0
   59.3940   33.4300   49.2333 H   0  0  0  0  0  0  0  0  0  0  0  0
   58.5359   31.9831   48.5470 H   0  0  0  0  0  0  0  0  0  0  0  0
   60.4600   30.9320   48.0950 H   0  0  0  0  0  0  0  0  0  0  0  0
   60.8075   32.5229   50.5398 H   0  0  0  0  0  0  0  0  0  0  0  0
   60.2414   30.8134   50.3161 H   0  0  0  0  0  0  0  0  0  0  0  0
   62.5514   30.9272   51.2363 H   0  0  0  0  0  0  0  0  0  0  0  0
   62.4827   30.1297   49.6216 H   0  0  0  0  0  0  0  0  0  0  0  0
   65.2207   33.9195   49.1277 H   0  0  0  0  0  0  0  0  0  0  0  0
   67.5810   33.9022   49.9310 H   0  0  0  0  0  0  0  0  0  0  0  0
   68.4053   32.0306   51.3606 H   0  0  0  0  0  0  0  0  0  0  0  0
   64.5070   30.1684   51.1843 H   0  0  0  0  0  0  0  0  0  0  0  0
   62.4510   33.9304   49.2678 H   0  0  0  0  0  0  0  0  0  0  0  0
   63.7030   33.4191   48.0805 H   0  0  0  0  0  0  0  0  0  0  0  0
   61.3590   33.3145   47.1751 H   0  0  0  0  0  0  0  0  0  0  0  0
   62.2354   31.7083   47.1914 H   0  0  0  0  0  0  0  0  0  0  0  0
   58.2406   30.8290   46.9007 H   0  0  0  0  0  0  0  0  0  0  0  0
   57.2431   31.1101   42.7026 H   0  0  0  0  0  0  0  0  0  0  0  0
   58.0995   33.4496   42.6434 H   0  0  0  0  0  0  0  0  0  0  0  0
  1  2  2  0
  2  3  1  0
  3  4  2  0
  4  5  1  0
  5  6  1  0
  6  7  1  0
  7  8  1  0
  8  9  1  0
  9 10  1  0
 10 11  2  0
 11 12  1  0
 12 13  2  0
 13 14  1  0
 14 15  1  0
 14 16  2  0
  9 17  1  0
 17 18  1  0
  4 19  1  0
 19 20  2  0
 20 21  1  0
 21 22  1  0
 21 23  2  0
 23 24  1  0
 24 25  2  0
 25 26  1  0
 26  2  1  0
 18  6  1  0
 25 19  1  0
 16 10  1  0
  3 27  1  0
  5 28  1  0
  5 29  1  0
  6 30  1  0
  7 31  1  0
  7 32  1  0
  8 33  1  0
  8 34  1  0
 11 35  1  0
 12 36  1  0
 13 37  1  0
 16 38  1  0
 17 39  1  0
 17 40  1  0
 18 41  1  0
 18 42  1  0
 20 43  1  0
 23 44  1  0
 24 45  1  0
M  CHG  1   6   1
M  END
>  <UniqueID>  (5) 
5

>  <SMILES>  (5) 
O=c1cc(C[NH+]2CCN(c3cccc(F)c3)CC2)c2cc(Br)ccc2o1

>  <Energy>  (5) 
66.50125947476037

>  <Genealogy>  (5) 
O=c1cc(C[NH+]2CCN(c3cccc(F)c3)CC2)c2cc(Br)ccc2o1 (protonated)
O=c1cc(C[NH+]2CCN(c3cccc(F)c3)CC2)c2cc(Br)ccc2o1 (3D coordinates assigned)
O=c1cc(C[NH+]2CCN(c3cccc(F)c3)CC2)c2cc(Br)ccc2o1 (nonaromatic ring conformer: 66.50125947476037 kcal/mol)

>  <smiles>  (5) 
O=c1cc(CN2CCN(c3cccc(F)c3)CC2)c2cc(Br)ccc2o1

>  <score_type>  (5) 
oracle

>  <origin>  (5) 
adg

>  <m_score__min__energy>  (5) 
-6.8200000000000003

>  <m_primary>  (5) 
energy

$$$$
5:0
     RDKit          3D

 81 86  0  0  0  0  0  0  0  0999 V2000
   57.4700   34.5690   45.0810 C   0  0  0  0  0  0  0  0  0  0  0  0
   58.0300   33.4890   45.9580 C   0  0  0  0  0  0  0  0  0  0  0  0
   59.0060   32.6140   45.4460 C   0  0  0  0  0  0  0  0  0  0  0  0
   59.5380   31.6060   46.2570 C   0  0  0  0  0  0  0  0  0  0  0  0
   59.0800   31.4380   47.5730 C   0  0  0  0  0  0  0  0  0  0  0  0
   59.5600   30.3110   48.3890 C   0  0  0  0  0  0  0  0  0  0  0  0
   60.1070   29.1860   47.9120 C   0  0  0  0  0  0  0  0  0  0  0  0
   60.4170   28.8670   46.1670 S   0  0  0  0  0  0  0  0  0  0  0  0
   58.8400   27.9990   45.8680 C   0  0  0  0  0  0  0  0  0  0  0  0
   57.8830   28.8150   45.0380 C   0  0  0  0  0  0  0  0  0  0  0  0
   56.4950   28.6710   45.2010 C   0  0  0  0  0  0  0  0  0  0  0  0
   55.6100   29.4810   44.4790 C   0  0  0  0  0  0  0  0  0  0  0  0
   56.1060   30.4400   43.5890 C   0  0  0  0  0  0  0  0  0  0  0  0
   57.4850   30.5780   43.4050 C   0  0  0  0  0  0  0  0  0  0  0  0
   58.3740   29.7640   44.1240 C   0  0  0  0  0  0  0  0  0  0  0  0
   60.4130   28.2200   48.9760 C   0  0  0  0  0  0  0  0  0  0  0  0
   60.9870   27.1150   48.7670 O   0  0  0  0  0  0  0  0  0  0  0  0
   60.0340   28.6610   50.2790 N   0  0  0  0  0  0  0  0  0  0  0  0
   60.3470   27.9950   51.5400 C   0  0  0  0  0  0  0  0  0  0  0  0
   61.6770   28.4720   52.0700 C   0  0  0  0  0  0  0  0  0  0  0  0
   62.8050   27.6400   52.0250 C   0  0  0  0  0  0  0  0  0  0  0  0
   64.0260   28.0670   52.5580 C   0  0  0  0  0  0  0  0  0  0  0  0
   64.1440   29.3420   53.1340 C   0  0  0  0  0  0  0  0  0  0  0  0
   65.4420   29.7990   53.6760 C   0  0  0  0  0  0  0  0  0  0  0  0
   65.4990   30.8410   54.3890 O   0  0  0  0  0  0  0  0  0  0  0  0
   66.6110   29.0810   53.3830 O   0  0  0  0  0  0  0  0  0  0  0  0
   67.3450   29.2380   52.1710 C   0  0  0  0  0  0  0  0  0  0  0  0
   67.2530   30.6510   51.6590 C   0  0  0  0  0  0  0  0  0  0  0  0
   68.1960   31.6060   52.0610 C   0  0  0  0  0  0  0  0  0  0  0  0
   68.1300   32.9080   51.5670 C   0  0  0  0  0  0  0  0  0  0  0  0
   67.1370   33.2700   50.6530 C   0  0  0  0  0  0  0  0  0  0  0  0
   66.2060   32.3210   50.2110 C   0  0  0  0  0  0  0  0  0  0  0  0
   65.1910   32.7090   49.2700 N   0  0  0  0  0  0  0  0  0  0  0  0
   63.8230   32.2800   49.3590 C   0  0  0  0  0  0  0  0  0  0  0  0
   63.5300   31.2600   50.0330 O   0  0  0  0  0  0  0  0  0  0  0  0
   62.7520   33.0150   48.6520 C   0  0  0  0  0  0  0  0  0  0  0  0
   62.7890   33.1560   47.2510 C   0  0  0  0  0  0  0  0  0  0  0  0
   61.7900   33.8780   46.5870 C   0  0  0  0  0  0  0  0  0  0  0  0
   60.7550   34.4680   47.3120 C   0  0  0  0  0  0  0  0  0  0  0  0
   60.7100   34.3380   48.7060 C   0  0  0  0  0  0  0  0  0  0  0  0
   61.7070   33.6200   49.3760 C   0  0  0  0  0  0  0  0  0  0  0  0
   66.2620   31.0150   50.7300 C   0  0  0  0  0  0  0  0  0  0  0  0
   63.0110   30.1740   53.1780 C   0  0  0  0  0  0  0  0  0  0  0  0
   61.7900   29.7410   52.6530 C   0  0  0  0  0  0  0  0  0  0  0  0
   59.3910   30.2450   50.1250 S   0  0  0  0  0  0  0  0  0  0  0  0
   57.9530   30.3030   50.5600 O   0  0  0  0  0  0  0  0  0  0  0  0
   60.2480   31.2670   50.8210 O   0  0  0  0  0  0  0  0  0  0  0  0
   58.1280   32.3340   48.0950 C   0  0  0  0  0  0  0  0  0  0  0  0
   57.6140   33.3580   47.3000 C   0  0  0  0  0  0  0  0  0  0  0  0
   57.0539   35.3714   45.7079 H   0  0  0  0  0  0  0  0  0  0  0  0
   58.2700   34.9773   44.4459 H   0  0  0  0  0  0  0  0  0  0  0  0
   56.6753   34.1504   44.4459 H   0  0  0  0  0  0  0  0  0  0  0  0
   59.3509   32.7228   44.4071 H   0  0  0  0  0  0  0  0  0  0  0  0
   60.3198   30.9412   45.8610 H   0  0  0  0  0  0  0  0  0  0  0  0
   59.0500   27.0567   45.3407 H   0  0  0  0  0  0  0  0  0  0  0  0
   58.3667   27.8180   46.8443 H   0  0  0  0  0  0  0  0  0  0  0  0
   56.1014   27.9179   45.8995 H   0  0  0  0  0  0  0  0  0  0  0  0
   54.5244   29.3634   44.6115 H   0  0  0  0  0  0  0  0  0  0  0  0
   55.4102   31.0860   43.0335 H   0  0  0  0  0  0  0  0  0  0  0  0
   57.8733   31.3246   42.6966 H   0  0  0  0  0  0  0  0  0  0  0  0
   59.4584   29.8688   43.9720 H   0  0  0  0  0  0  0  0  0  0  0  0
   59.5610   28.2226   52.2751 H   0  0  0  0  0  0  0  0  0  0  0  0
   60.3997   26.9099   51.3673 H   0  0  0  0  0  0  0  0  0  0  0  0
   62.7291   26.6429   51.5666 H   0  0  0  0  0  0  0  0  0  0  0  0
   64.8996   27.3993   52.5256 H   0  0  0  0  0  0  0  0  0  0  0  0
   68.4009   28.9913   52.3562 H   0  0  0  0  0  0  0  0  0  0  0  0
   66.9168   28.5643   51.4142 H   0  0  0  0  0  0  0  0  0  0  0  0
   68.9909   31.3276   52.7686 H   0  0  0  0  0  0  0  0  0  0  0  0
   68.8651   33.6559   51.8992 H   0  0  0  0  0  0  0  0  0  0  0  0
   67.0861   34.3033   50.2793 H   0  0  0  0  0  0  0  0  0  0  0  0
   65.4960   33.2080   48.4040 H   0  0  0  0  0  0  0  0  0  0  0  0
   63.6066   32.6967   46.6759 H   0  0  0  0  0  0  0  0  0  0  0  0
   61.8215   33.9800   45.4922 H   0  0  0  0  0  0  0  0  0  0  0  0
   59.9725   35.0365   46.7882 H   0  0  0  0  0  0  0  0  0  0  0  0
   59.8900   34.8008   49.2747 H   0  0  0  0  0  0  0  0  0  0  0  0
   61.6741   33.5280   50.4717 H   0  0  0  0  0  0  0  0  0  0  0  0
   65.5216   30.2692   50.4053 H   0  0  0  0  0  0  0  0  0  0  0  0
   63.0863   31.1742   53.6295 H   0  0  0  0  0  0  0  0  0  0  0  0
   60.9114   30.4014   52.6979 H   0  0  0  0  0  0  0  0  0  0  0  0
   57.7877   32.2259   49.1354 H   0  0  0  0  0  0  0  0  0  0  0  0
   56.8831   34.0648   47.7198 H   0  0  0  0  0  0  0  0  0  0  0  0
  1  2  1  0
  2  3  2  0
  3  4  1  0
  4  5  2  0
  5  6  1  0
  6  7  2  0
  7  8  1  0
  8  9  1  0
  9 10  1  0
 10 11  2  0
 11 12  1  0
 12 13  2  0
 13 14  1  0
 14 15  2  0
  7 16  1  0
 16 17  2  0
 16 18  1  0
 18 19  1  0
 19 20  1  0
 20 21  2  0
 21 22  1  0
 22 23  2  0
 23 24  1  0
 24 25  2  0
 24 26  1  0
 26 27  1  0
 27 28  1  0
 28 29  2  0
 29 30  1  0
 30 31  2  0
 31 32  1  0
 32 33  1  0
 33 34  1  0
 34 35  2  0
 34 36  1  0
 36 37  2  0
 37 38  1  0
 38 39  2  0
 39 40  1  0
 40 41  2  0
 32 42  2  0
 23 43  1  0
 43 44  2  0
 18 45  1  0
 45 46  2  0
 45 47  2  0
  5 48  1  0
 48 49  2  0
 49  2  1  0
 45  6  1  0
 15 10  1  0
 44 20  1  0
 42 28  1  0
 41 36  1  0
  1 50  1  0
  1 51  1  0
  1 52  1  0
  3 53  1  0
  4 54  1  0
  9 55  1  0
  9 56  1  0
 11 57  1  0
 12 58  1  0
 13 59  1  0
 14 60  1  0
 15 61  1  0
 19 62  1  0
 19 63  1  0
 21 64  1  0
 22 65  1  0
 27 66  1  0
 27 67  1  0
 29 68  1  0
 30 69  1  0
 31 70  1  0
 33 71  1  0
 37 72  1  0
 38 73  1  0
 39 74  1  0
 40 75  1  0
 41 76  1  0
 42 77  1  0
 43 78  1  0
 44 79  1  0
 48 80  1  0
 49 81  1  0
M  END
>  <UniqueID>  (6) 
6

>  <SMILES>  (6) 
Cc1ccc(C2=C(SCc3ccccc3)C(=O)N(Cc3ccc(C(=O)OCc4cccc(NC(=O)c5ccccc5)c4)cc3)S2(=O)=O)cc1

>  <Energy>  (6) 
108.79986377906553

>  <Genealogy>  (6) 
Cc1ccc(C2=C(SCc3ccccc3)C(=O)N(Cc3ccc(C(=O)OCc4cccc(NC(=O)c5ccccc5)c4)cc3)S2(=O)=O)cc1 (3D coordinates assigned)
Cc1ccc(C2=C(SCc3ccccc3)C(=O)N(Cc3ccc(C(=O)OCc4cccc(NC(=O)c5ccccc5)c4)cc3)S2(=O)=O)cc1 (nonaromatic ring conformer: 108.79986377906553 kcal/mol)

>  <smiles>  (6) 
Cc1ccc(C2=C(SCc3ccccc3)C(=O)N(Cc3ccc(C(=O)OCc4cccc(NC(=O)c5ccccc5)c4)cc3)S2(=O)=O)cc1

>  <score_type>  (6) 
oracle

>  <origin>  (6) 
adg

>  <m_score__min__energy>  (6) 
-11.68

>  <m_primary>  (6) 
energy

$$$$
6:0
     RDKit          3D

 39 41  0  0  1  0  0  0  0  0999 V2000
   58.6280   21.8850   45.5180 C   0  0  0  0  0  0  0  0  0  0  0  0
   57.4890   22.2680   44.5730 C   0  0  0  0  0  0  0  0  0  0  0  0
   57.3670   21.7430   43.3560 C   0  0  0  0  0  0  0  0  0  0  0  0
   56.3060   22.1600   42.5920 C   0  0  0  0  0  0  0  0  0  0  0  0
   55.4170   23.3870   43.6770 S   0  0  0  0  0  0  0  0  0  0  0  0
   56.5580   23.1850   44.9870 C   0  0  0  0  0  0  0  0  0  0  0  0
   56.4780   23.8910   46.2670 C   0  0  0  0  0  0  0  0  0  0  0  0
   57.1870   24.9610   46.4750 C   0  0  0  0  0  0  0  0  0  0  0  0
   56.6610   26.2910   46.0940 C   0  0  0  0  0  0  0  0  0  0  0  0
   55.4150   26.4120   46.0420 O   0  0  0  0  0  0  0  0  0  0  0  0
   57.5850   27.3330   45.8150 N   0  0  0  0  0  0  0  0  0  0  0  0
   57.1870   28.4620   45.3270 C   0  0  0  0  0  0  0  0  0  0  0  0
   57.8850   29.6210   45.1380 C   0  0  0  0  0  0  0  0  0  0  0  0
   57.0440   30.5770   44.5810 C   0  0  0  0  0  0  0  0  0  0  0  0
   57.4480   31.9330   44.2410 C   0  0  0  0  0  0  0  0  0  0  0  0
   57.4870   32.1910   42.9860 O   0  0  0  0  0  0  0  0  0  0  0  0
   57.7830   32.9230   45.2050 N   0  0  0  0  0  0  0  0  0  0  0  0
   57.8200   32.8900   46.6320 C   0  0  0  0  0  0  0  0  0  0  0  0
   58.8640   33.8990   46.9880 C   0  0  0  0  0  0  0  0  0  0  0  0
   59.0850   34.7150   45.9530 C   0  0  0  0  0  0  0  0  0  0  0  0
   58.1850   34.2860   44.8370 C   0  0  0  0  0  0  0  0  0  0  0  0
   55.8590   29.9610   44.4510 N   0  0  0  0  0  0  0  0  0  0  0  0
   55.9360   28.7080   44.8920 N   0  0  0  0  0  0  0  0  0  0  0  0
   58.2935   21.9975   46.5599 H   0  0  0  0  0  0  0  0  0  0  0  0
   58.9188   20.8397   45.3371 H   0  0  0  0  0  0  0  0  0  0  0  0
   59.4913   22.5423   45.3371 H   0  0  0  0  0  0  0  0  0  0  0  0
   58.0884   21.0038   42.9774 H   0  0  0  0  0  0  0  0  0  0  0  0
   56.0410   21.8427   41.5726 H   0  0  0  0  0  0  0  0  0  0  0  0
   55.8135   23.5137   47.0583 H   0  0  0  0  0  0  0  0  0  0  0  0
   58.1821   24.8773   46.9362 H   0  0  0  0  0  0  0  0  0  0  0  0
   58.9455   29.7735   45.3874 H   0  0  0  0  0  0  0  0  0  0  0  0
   56.8442   33.1704   47.0554 H   0  0  0  0  0  0  0  0  0  0  0  0
   58.0455   31.8886   47.0275 H   0  0  0  0  0  0  0  0  0  0  0  0
   59.3755   33.9608   47.9599 H   0  0  0  0  0  0  0  0  0  0  0  0
   59.7994   35.5510   45.9262 H   0  0  0  0  0  0  0  0  0  0  0  0
   57.3080   34.9463   44.7668 H   0  0  0  0  0  0  0  0  0  0  0  0
   58.6794   34.3298   43.8553 H   0  0  0  0  0  0  0  0  0  0  0  0
   54.9940   30.3720   44.0650 H   0  0  0  0  0  0  0  0  0  0  0  0
   55.1430   28.0320   44.8940 H   0  0  0  0  0  0  0  0  0  0  0  0
  1  2  1  0
  2  3  1  0
  3  4  2  0
  4  5  1  0
  5  6  1  0
  6  7  1  0
  7  8  2  0
  8  9  1  0
  9 10  2  0
  9 11  1  0
 11 12  2  0
 12 13  1  0
 13 14  2  0
 14 15  1  0
 15 16  2  0
 15 17  1  0
 17 18  1  0
 18 19  1  0
 19 20  2  0
 20 21  1  0
 14 22  1  0
 22 23  1  0
  6  2  2  0
 23 12  1  0
 21 17  1  0
  1 24  1  0
  1 25  1  0
  1 26  1  0
  3 27  1  0
  4 28  1  0
  7 29  1  0
  8 30  1  0
 13 31  1  0
 18 32  1  0
 18 33  1  0
 19 34  1  0
 20 35  1  0
 21 36  1  0
 21 37  1  0
 22 38  1  0
 23 39  1  0
M  END
>  <smiles>  (7) 
Cc1ccsc1C=CC(=O)N=c1cc(C(=O)N2CC=CC2)[nH][nH]1

>  <score_type>  (7) 
oracle

>  <origin>  (7) 
adg

>  <m_score__min__energy>  (7) 
-8.9600000000000009

>  <m_primary>  (7) 
energy

$$$$
7:0
     RDKit          3D

 52 55  0  0  0  0  0  0  0  0999 V2000
   53.6700   25.9670   46.3920 H   0  0  0  0  0  0  0  0  0  0  0  0
   54.5610   26.1610   45.9510 O   0  0  0  0  0  0  0  0  0  0  0  0
   55.3740   25.1240   45.5080 C   0  0  0  0  0  0  0  0  0  0  0  0
   54.9490   24.1160   44.7280 N   0  0  0  0  0  0  0  0  0  0  0  0
   56.0770   23.4040   44.5230 C   0  0  0  0  0  0  0  0  0  0  0  0
   56.1010   22.3620   43.8180 O   0  0  0  0  0  0  0  0  0  0  0  0
   57.1810   23.9050   45.1190 N   0  0  0  0  0  0  0  0  0  0  0  0
   56.7190   24.9850   45.7720 C   0  0  0  0  0  0  0  0  0  0  0  0
   57.5840   25.9410   46.4790 C   0  0  0  0  0  0  0  0  0  0  0  0
   57.7905   25.7404   47.5407 H   0  0  0  0  0  0  0  0  0  0  0  0
   58.1460   27.0410   45.9410 C   0  0  0  0  0  0  0  0  0  0  0  0
   59.5140   27.2440   45.9160 C   0  0  0  0  0  0  0  0  0  0  0  0
   60.2805   26.5937   46.3627 H   0  0  0  0  0  0  0  0  0  0  0  0
   59.7340   28.4160   45.2250 C   0  0  0  0  0  0  0  0  0  0  0  0
   61.0950   28.9510   44.8850 C   0  0  0  0  0  0  0  0  0  0  0  0
   61.6460   29.1676   45.8121 H   0  0  0  0  0  0  0  0  0  0  0  0
   61.6467   28.2028   44.2969 H   0  0  0  0  0  0  0  0  0  0  0  0
   60.9895   29.8746   44.2969 H   0  0  0  0  0  0  0  0  0  0  0  0
   58.5590   28.9670   44.8390 N   0  0  0  0  0  0  0  0  0  0  0  0
   58.3960   30.2400   44.1170 C   0  0  0  0  0  0  0  0  0  0  0  0
   59.2339   30.3644   43.4153 H   0  0  0  0  0  0  0  0  0  0  0  0
   57.4383   30.2140   43.5765 H   0  0  0  0  0  0  0  0  0  0  0  0
   58.3750   31.4090   45.0710 C   0  0  0  0  0  0  0  0  0  0  0  0
   57.9920   32.6850   44.6280 C   0  0  0  0  0  0  0  0  0  0  0  0
   57.7117   32.8373   43.5753 H   0  0  0  0  0  0  0  0  0  0  0  0
   57.9650   33.7610   45.5160 C   0  0  0  0  0  0  0  0  0  0  0  0
   57.6736   34.7596   45.1585 H   0  0  0  0  0  0  0  0  0  0  0  0
   58.3070   33.5740   46.8580 C   0  0  0  0  0  0  0  0  0  0  0  0
   58.2924   34.4288   47.5501 H   0  0  0  0  0  0  0  0  0  0  0  0
   58.6690   32.3020   47.3280 C   0  0  0  0  0  0  0  0  0  0  0  0
   59.0460   32.1140   48.7500 C   0  0  0  0  0  0  0  0  0  0  0  0
   58.1630   32.2350   49.6400 O   0  0  0  0  0  0  0  0  0  0  0  0
   60.4000   31.8640   49.1600 N   0  0  0  0  0  0  0  0  0  0  0  0
   61.4700   32.3930   48.6370 C   0  0  0  0  0  0  0  0  0  0  0  0
   61.4540   32.9170   47.3770 N   0  0  0  0  0  0  0  0  0  0  0  0
   62.5640   33.4590   46.8110 C   0  0  0  0  0  0  0  0  0  0  0  0
   62.5136   33.8780   45.7952 H   0  0  0  0  0  0  0  0  0  0  0  0
   63.7690   33.4850   47.5170 C   0  0  0  0  0  0  0  0  0  0  0  0
   64.6705   33.9187   47.0595 H   0  0  0  0  0  0  0  0  0  0  0  0
   63.8200   32.9540   48.8130 C   0  0  0  0  0  0  0  0  0  0  0  0
   65.1100   32.9290   49.5790 C   0  0  0  0  0  0  0  0  0  0  0  0
   64.8959   32.9331   50.6580 H   0  0  0  0  0  0  0  0  0  0  0  0
   65.6725   32.0198   49.3203 H   0  0  0  0  0  0  0  0  0  0  0  0
   65.7073   33.8157   49.3203 H   0  0  0  0  0  0  0  0  0  0  0  0
   62.6630   32.3940   49.3700 C   0  0  0  0  0  0  0  0  0  0  0  0
   62.6916   31.9569   50.3790 H   0  0  0  0  0  0  0  0  0  0  0  0
   58.7100   31.2240   46.4240 C   0  0  0  0  0  0  0  0  0  0  0  0
   59.0072   30.2264   46.7797 H   0  0  0  0  0  0  0  0  0  0  0  0
   57.5730   28.1500   45.2970 C   0  0  0  0  0  0  0  0  0  0  0  0
   56.2680   28.4550   45.2260 C   0  0  0  0  0  0  0  0  0  0  0  0
   55.9427   29.3580   44.6886 H   0  0  0  0  0  0  0  0  0  0  0  0
   55.5237   27.8020   45.7052 H   0  0  0  0  0  0  0  0  0  0  0  0
  1  2  1  0
  2  3  1  0
  3  4  1  0
  4  5  1  0
  5  6  2  0
  5  7  1  0
  7  8  1  0
  8  9  1  0
  9 10  1  0
  9 11  2  0
 11 12  1  0
 12 13  1  0
 12 14  2  0
 14 15  1  0
 15 16  1  0
 15 17  1  0
 15 18  1  0
 14 19  1  0
 19 20  1  0
 20 21  1  0
 20 22  1  0
 20 23  1  0
 23 24  2  0
 24 25  1  0
 24 26  1  0
 26 27  1  0
 26 28  2  0
 28 29  1  0
 28 30  1  0
 30 31  1  0
 31 32  2  0
 31 33  1  0
 33 34  2  0
 34 35  1  0
 35 36  1  0
 36 37  1  0
 36 38  2  0
 38 39  1  0
 38 40  1  0
 40 41  1  0
 41 42  1  0
 41 43  1  0
 41 44  1  0
 40 45  2  0
 45 46  1  0
 30 47  2  0
 47 48  1  0
 19 49  1  0
 49 50  2  0
 50 51  1  0
 50 52  1  0
  8  3  2  0
 49 11  1  0
 47 23  1  0
 45 34  1  0
M  CHG  3   4  -1   7  -1  35  -1
M  END
>  <UniqueID>  (8) 
7

>  <SMILES>  (8) 
C=c1/c(=C\c2[n-]c(=O)[n-]c2O)cc(C)n1Cc1cccc(C(=O)/N=c2/cc(C)cc[n-]2)c1

>  <Energy>  (8) 
131.76412792683814

>  <Genealogy>  (8) 
C=c1c(=Cc2[n-]c(=O)[n-]c2O)cc(C)n1Cc1cccc(C(=O)N=c2cc(C)cc[n-]2)c1 (protonated)
C=c1/c(=C\c2[n-]c(=O)[n-]c2O)cc(C)n1Cc1cccc(C(=O)/N=c2/cc(C)cc[n-]2)c1 (cis-trans isomerization)
C=c1/c(=C\c2[n-]c(=O)[n-]c2O)cc(C)n1Cc1cccc(C(=O)/N=c2/cc(C)cc[n-]2)c1 (3D coordinates assigned)
C=c1/c(=C\c2[n-]c(=O)[n-]c2O)cc(C)n1Cc1cccc(C(=O)/N=c2/cc(C)cc[n-]2)c1 (optimized conformer: 131.76412792683814 kcal/mol)

>  <smiles>  (8) 
C=c1c(=Cc2[nH]c(=O)[nH]c2O)cc(C)n1Cc1cccc(C(=O)N=c2cc(C)cc[nH]2)c1

>  <score_type>  (8) 
oracle

>  <origin>  (8) 
adg

>  <m_score__min__energy>  (8) 
-15.619999999999999

>  <m_primary>  (8) 
energy

$$$$
8:0
     RDKit          3D

 54 57  0  0  1  0  0  0  0  0999 V2000
   54.9650   24.4850   45.3660 C   0  0  0  0  0  0  0  0  0  0  0  0
   56.0220   24.4350   46.4560 C   0  0  0  0  0  0  0  0  0  0  0  0
   56.2510   25.7940   46.9030 N   0  0  0  0  0  0  0  0  0  0  0  0
   56.7440   26.6290   46.0530 C   0  0  0  0  0  0  0  0  0  0  0  0
   56.1010   27.7160   45.6080 N   0  0  0  0  0  0  0  0  0  0  0  0
   56.6410   28.5710   44.7200 C   0  0  0  0  0  0  0  0  0  0  0  0
   56.0300   29.6210   44.2850 N   0  0  0  0  0  0  0  0  0  0  0  0
   56.7900   30.7550   43.9710 C   0  0  0  0  0  0  0  0  0  0  0  0
   57.0340   31.2050   42.6910 C   0  0  0  0  0  0  0  0  0  0  0  0
   57.7970   32.3370   42.4320 C   0  0  0  0  0  0  0  0  0  0  0  0
   58.3440   33.0540   43.4960 C   0  0  0  0  0  0  0  0  0  0  0  0
   58.0980   32.6010   44.7910 C   0  0  0  0  0  0  0  0  0  0  0  0
   58.6470   33.3150   45.9400 C   0  0  0  0  0  0  0  0  0  0  0  0
   59.2320   34.5410   45.7060 C   0  0  0  0  0  0  0  0  0  0  0  0
   59.7620   35.2510   46.7640 C   0  0  0  0  0  0  0  0  0  0  0  0
   59.6940   34.7150   48.0310 C   0  0  0  0  0  0  0  0  0  0  0  0
   59.1150   33.4930   48.2880 C   0  0  0  0  0  0  0  0  0  0  0  0
   59.0790   32.9870   49.6690 C   0  0  0  0  0  0  0  0  0  0  0  0
   60.1890   32.9150   50.2490 O   0  0  0  0  0  0  0  0  0  0  0  0
   57.8980   32.6000   50.3260 N   0  0  0  0  0  0  0  0  0  0  0  0
   57.7670   32.1080   51.6310 C   0  0  0  0  0  0  0  0  0  0  0  0
   58.3430   32.6370   52.7600 C   0  0  0  0  0  0  0  0  0  0  0  0
   58.1610   32.0850   54.0260 C   0  0  0  0  0  0  0  0  0  0  0  0
   57.3890   30.9750   54.1970 C   0  0  0  0  0  0  0  0  0  0  0  0
   56.7990   30.4220   53.0840 C   0  0  0  0  0  0  0  0  0  0  0  0
   56.9810   30.9700   51.8420 C   0  0  0  0  0  0  0  0  0  0  0  0
   58.5930   32.8050   47.2210 C   0  0  0  0  0  0  0  0  0  0  0  0
   57.3380   31.4740   45.0290 C   0  0  0  0  0  0  0  0  0  0  0  0
   57.8810   28.3560   44.2350 N   0  0  0  0  0  0  0  0  0  0  0  0
   58.5570   27.2740   44.6590 C   0  0  0  0  0  0  0  0  0  0  0  0
   58.0220   26.3820   45.5710 C   0  0  0  0  0  0  0  0  0  0  0  0
   58.7490   25.3070   45.9650 F   0  0  0  0  0  0  0  0  0  0  0  0
   53.9666   24.5322   45.8253 H   0  0  0  0  0  0  0  0  0  0  0  0
   55.1240   25.3766   44.7417 H   0  0  0  0  0  0  0  0  0  0  0  0
   55.0391   23.5823   44.7417 H   0  0  0  0  0  0  0  0  0  0  0  0
   55.6674   23.8183   47.2951 H   0  0  0  0  0  0  0  0  0  0  0  0
   56.9527   23.9910   46.0731 H   0  0  0  0  0  0  0  0  0  0  0  0
   55.1440   27.9260   45.9490 H   0  0  0  0  0  0  0  0  0  0  0  0
   56.6090   30.6473   41.8434 H   0  0  0  0  0  0  0  0  0  0  0  0
   57.9683   32.6651   41.3961 H   0  0  0  0  0  0  0  0  0  0  0  0
   58.9530   33.9526   43.3180 H   0  0  0  0  0  0  0  0  0  0  0  0
   59.2759   34.9495   44.6856 H   0  0  0  0  0  0  0  0  0  0  0  0
   60.2323   36.2314   46.5978 H   0  0  0  0  0  0  0  0  0  0  0  0
   60.1189   35.2856   48.8700 H   0  0  0  0  0  0  0  0  0  0  0  0
   57.0050   32.6940   49.7560 H   0  0  0  0  0  0  0  0  0  0  0  0
   58.9736   33.5328   52.6605 H   0  0  0  0  0  0  0  0  0  0  0  0
   58.6456   32.5501   54.8971 H   0  0  0  0  0  0  0  0  0  0  0  0
   57.2421   30.5348   55.1943 H   0  0  0  0  0  0  0  0  0  0  0  0
   56.1711   29.5255   53.1933 H   0  0  0  0  0  0  0  0  0  0  0  0
   56.4908   30.4976   50.9780 H   0  0  0  0  0  0  0  0  0  0  0  0
   58.1214   31.8258   47.3909 H   0  0  0  0  0  0  0  0  0  0  0  0
   57.1640   31.1414   46.0630 H   0  0  0  0  0  0  0  0  0  0  0  0
   58.3370   28.9980   43.5420 H   0  0  0  0  0  0  0  0  0  0  0  0
   59.5689   27.0920   44.2678 H   0  0  0  0  0  0  0  0  0  0  0  0
  1  2  1  0
  2  3  1  0
  3  4  2  0
  4  5  1  0
  5  6  1  0
  6  7  2  0
  7  8  1  0
  8  9  2  0
  9 10  1  0
 10 11  2  0
 11 12  1  0
 12 13  1  0
 13 14  2  0
 14 15  1  0
 15 16  2  0
 16 17  1  0
 17 18  1  0
 18 19  2  0
 18 20  1  0
 20 21  1  0
 21 22  2  0
 22 23  1  0
 23 24  2  0
 24 25  1  0
 25 26  2  0
 17 27  2  0
 12 28  2  0
  6 29  1  0
 29 30  1  0
 30 31  2  0
 31 32  1  0
 31  4  1  0
 28  8  1  0
 27 13  1  0
 26 21  1  0
  1 33  1  0
  1 34  1  0
  1 35  1  0
  2 36  1  0
  2 37  1  0
  5 38  1  0
  9 39  1  0
 10 40  1  0
 11 41  1  0
 14 42  1  0
 15 43  1  0
 16 44  1  0
 20 45  1  0
 22 46  1  0
 23 47  1  0
 24 48  1  0
 25 49  1  0
 26 50  1  0
 27 51  1  0
 28 52  1  0
 29 53  1  0
 30 54  1  0
M  END
>  <smiles>  (9) 
CCN=c1[nH]c(=Nc2cccc(-c3cccc(C(=O)Nc4ccccc4)c3)c2)[nH]cc1F

>  <score_type>  (9) 
oracle

>  <origin>  (9) 
adg

>  <m_score__min__energy>  (9) 
-10.01

>  <m_primary>  (9) 
energy

$$$$
9:0
     RDKit          3D

 57 60  0  0  0  0  0  0  0  0999 V2000
   63.0270   34.3240   50.5360 C   0  0  0  0  0  0  0  0  0  0  0  0
   62.6700   34.0410   49.1060 C   0  0  0  0  0  0  0  0  0  0  0  0
   63.6620   33.6660   48.1890 C   0  0  0  0  0  0  0  0  0  0  0  0
   63.3310   33.4280   46.8530 C   0  0  0  0  0  0  0  0  0  0  0  0
   62.0130   33.5860   46.4190 C   0  0  0  0  0  0  0  0  0  0  0  0
   61.0120   33.9940   47.3210 C   0  0  0  0  0  0  0  0  0  0  0  0
   59.6740   34.1480   46.9300 O   0  0  0  0  0  0  0  0  0  0  0  0
   58.9250   33.1870   46.2400 C   0  0  0  0  0  0  0  0  0  0  0  0
   58.5450   33.4340   44.9170 C   0  0  0  0  0  0  0  0  0  0  0  0
   57.7750   32.4880   44.2360 C   0  0  0  0  0  0  0  0  0  0  0  0
   57.4040   31.2990   44.8750 C   0  0  0  0  0  0  0  0  0  0  0  0
   56.5220   30.3240   44.2120 C   0  0  0  0  0  0  0  0  0  0  0  0
   55.2930   30.3260   44.4850 O   0  0  0  0  0  0  0  0  0  0  0  0
   57.0110   29.4170   43.2120 N   0  0  0  0  0  0  0  0  0  0  0  0
   57.7340   28.1700   43.4670 C   0  0  0  0  0  0  0  0  0  0  0  0
   58.5120   28.2410   44.7560 C   0  0  0  0  0  0  0  0  0  0  0  0
   59.7810   28.8370   44.7900 C   0  0  0  0  0  0  0  0  0  0  0  0
   60.4630   28.9810   46.0020 C   0  0  0  0  0  0  0  0  0  0  0  0
   59.8910   28.5220   47.2020 C   0  0  0  0  0  0  0  0  0  0  0  0
   60.5820   28.7100   48.4990 C   0  0  0  0  0  0  0  0  0  0  0  0
   60.8450   27.7040   49.2140 O   0  0  0  0  0  0  0  0  0  0  0  0
   60.9140   30.0270   48.9740 N   0  0  0  0  0  0  0  0  0  0  0  0
   61.6520   30.2380   50.1860 C   0  0  0  0  0  0  0  0  0  0  0  0
   62.9120   30.8530   50.1110 C   0  0  0  0  0  0  0  0  0  0  0  0
   63.6410   31.1190   51.2720 C   0  0  0  0  0  0  0  0  0  0  0  0
   63.1250   30.7610   52.5170 C   0  0  0  0  0  0  0  0  0  0  0  0
   61.8880   30.1200   52.6050 C   0  0  0  0  0  0  0  0  0  0  0  0
   61.1480   29.8380   51.4460 C   0  0  0  0  0  0  0  0  0  0  0  0
   59.9220   29.1040   51.5610 N   0  0  0  0  0  0  0  0  0  0  0  0
   58.6430   27.8770   47.1560 C   0  0  0  0  0  0  0  0  0  0  0  0
   57.9620   27.7360   45.9450 C   0  0  0  0  0  0  0  0  0  0  0  0
   57.8480   31.0660   46.1820 C   0  0  0  0  0  0  0  0  0  0  0  0
   58.5820   32.0080   46.8310 N   0  0  0  0  0  0  0  0  0  0  0  0
   61.3480   34.2100   48.6630 C   0  0  0  0  0  0  0  0  0  0  0  0
   62.3399   33.7793   51.2002 H   0  0  0  0  0  0  0  0  0  0  0  0
   64.0593   33.9962   50.7280 H   0  0  0  0  0  0  0  0  0  0  0  0
   62.9435   35.4039   50.7280 H   0  0  0  0  0  0  0  0  0  0  0  0
   64.7046   33.5588   48.5228 H   0  0  0  0  0  0  0  0  0  0  0  0
   64.1097   33.1156   46.1416 H   0  0  0  0  0  0  0  0  0  0  0  0
   61.7558   33.3907   45.3675 H   0  0  0  0  0  0  0  0  0  0  0  0
   58.8498   34.3651   44.4169 H   0  0  0  0  0  0  0  0  0  0  0  0
   57.4606   32.6772   43.1990 H   0  0  0  0  0  0  0  0  0  0  0  0
   57.0111   27.3433   43.5300 H   0  0  0  0  0  0  0  0  0  0  0  0
   58.4432   28.0053   42.6424 H   0  0  0  0  0  0  0  0  0  0  0  0
   60.2427   29.1934   43.8573 H   0  0  0  0  0  0  0  0  0  0  0  0
   61.4546   29.4570   46.0171 H   0  0  0  0  0  0  0  0  0  0  0  0
   60.3860   30.8390   48.5850 H   0  0  0  0  0  0  0  0  0  0  0  0
   63.3280   31.1273   49.1304 H   0  0  0  0  0  0  0  0  0  0  0  0
   64.6225   31.6110   51.2044 H   0  0  0  0  0  0  0  0  0  0  0  0
   63.6938   30.9841   53.4317 H   0  0  0  0  0  0  0  0  0  0  0  0
   61.4902   29.8338   53.5898 H   0  0  0  0  0  0  0  0  0  0  0  0
   59.2250   29.3500   52.2990 H   0  0  0  0  0  0  0  0  0  0  0  0
   59.7260   28.2680   50.9690 H   0  0  0  0  0  0  0  0  0  0  0  0
   58.1993   27.4802   48.0810 H   0  0  0  0  0  0  0  0  0  0  0  0
   56.9878   27.2257   45.9225 H   0  0  0  0  0  0  0  0  0  0  0  0
   57.6024   30.1189   46.6846 H   0  0  0  0  0  0  0  0  0  0  0  0
   60.5690   34.5150   49.3772 H   0  0  0  0  0  0  0  0  0  0  0  0
  1  2  1  0
  2  3  2  0
  3  4  1  0
  4  5  2  0
  5  6  1  0
  6  7  1  0
  7  8  1  0
  8  9  2  0
  9 10  1  0
 10 11  2  0
 11 12  1  0
 12 13  2  0
 12 14  1  0
 14 15  1  0
 15 16  1  0
 16 17  2  0
 17 18  1  0
 18 19  2  0
 19 20  1  0
 20 21  2  0
 20 22  1  0
 22 23  1  0
 23 24  2  0
 24 25  1  0
 25 26  2  0
 26 27  1  0
 27 28  2  0
 28 29  1  0
 19 30  1  0
 30 31  2  0
 11 32  1  0
 32 33  2  0
  6 34  2  0
 34  2  1  0
 33  8  1  0
 31 16  1  0
 28 23  1  0
  1 35  1  0
  1 36  1  0
  1 37  1  0
  3 38  1  0
  4 39  1  0
  5 40  1  0
  9 41  1  0
 10 42  1  0
 15 43  1  0
 15 44  1  0
 17 45  1  0
 18 46  1  0
 22 47  1  0
 24 48  1  0
 25 49  1  0
 26 50  1  0
 27 51  1  0
 29 52  1  0
 29 53  1  0
 30 54  1  0
 31 55  1  0
 32 56  1  0
 34 57  1  0
M  CHG  1  14  -1
M  END
>  <UniqueID>  (10) 
8

>  <SMILES>  (10) 
Cc1cccc(Oc2ccc(C(=O)[N-]Cc3ccc(C(=O)Nc4ccccc4N)cc3)cn2)c1

>  <Energy>  (10) 
73.37549266643829

>  <Genealogy>  (10) 
Cc1cccc(Oc2ccc(C(=O)[N-]Cc3ccc(C(=O)Nc4ccccc4N)cc3)cn2)c1 (protonated)
Cc1cccc(Oc2ccc(C(=O)[N-]Cc3ccc(C(=O)Nc4ccccc4N)cc3)cn2)c1 (3D coordinates assigned)
Cc1cccc(Oc2ccc(C(=O)[N-]Cc3ccc(C(=O)Nc4ccccc4N)cc3)cn2)c1 (optimized conformer: 73.37549266643829 kcal/mol)

>  <smiles>  (10) 
Cc1cccc(Oc2ccc(C(=O)NCc3ccc(C(=O)Nc4ccccc4N)cc3)cn2)c1

>  <score_type>  (10) 
oracle

>  <origin>  (10) 
adg

>  <m_score__min__energy>  (10) 
-10.25

>  <m_primary>  (10) 
energy

$$$$
10:0
     RDKit          3D

 35 37  0  0  0  0  0  0  0  0999 V2000
   54.3950   28.9920   44.4470 H   0  0  0  0  0  0  0  0  0  0  0  0
   55.3080   29.2680   44.8720 N   0  0  0  0  0  0  0  0  0  0  0  0
   56.0780   30.1410   44.3080 C   0  0  0  0  0  0  0  0  0  0  0  0
   56.7440   31.0560   45.0610 N   0  0  0  0  0  0  0  0  0  0  0  0
   57.5660   31.9840   44.4950 C   0  0  0  0  0  0  0  0  0  0  0  0
   58.2660   32.9640   45.3640 C   0  0  0  0  0  0  0  0  0  0  0  0
   58.7690   34.1730   44.8470 C   0  0  0  0  0  0  0  0  0  0  0  0
   58.6417   34.4058   43.7795 H   0  0  0  0  0  0  0  0  0  0  0  0
   59.4280   35.0780   45.6800 C   0  0  0  0  0  0  0  0  0  0  0  0
   59.8115   36.0226   45.2669 H   0  0  0  0  0  0  0  0  0  0  0  0
   59.6030   34.7910   47.0340 C   0  0  0  0  0  0  0  0  0  0  0  0
   60.1208   35.5125   47.6831 H   0  0  0  0  0  0  0  0  0  0  0  0
   59.1220   33.5860   47.5740 C   0  0  0  0  0  0  0  0  0  0  0  0
   59.3140   33.2750   49.0140 C   0  0  0  0  0  0  0  0  0  0  0  0
   60.1420   34.0840   49.8140 C   0  0  0  0  0  0  0  0  0  0  0  0
   60.6527   34.9514   49.3705 H   0  0  0  0  0  0  0  0  0  0  0  0
   60.3190   33.7910   51.1700 C   0  0  0  0  0  0  0  0  0  0  0  0
   60.9667   34.4292   51.7890 H   0  0  0  0  0  0  0  0  0  0  0  0
   59.6760   32.6910   51.7400 C   0  0  0  0  0  0  0  0  0  0  0  0
   59.8133   32.4670   52.8082 H   0  0  0  0  0  0  0  0  0  0  0  0
   58.8570   31.8730   50.9540 C   0  0  0  0  0  0  0  0  0  0  0  0
   58.0260   30.4610   51.6890 S   0  0  0  0  0  0  0  0  0  0  0  0
   56.6450   31.4300   52.3820 C   0  0  0  0  0  0  0  0  0  0  0  0
   56.8280   32.7750   52.1180 F   0  0  0  0  0  0  0  0  0  0  0  0
   56.5630   31.2330   53.7480 F   0  0  0  0  0  0  0  0  0  0  0  0
   55.4660   31.0130   51.7950 F   0  0  0  0  0  0  0  0  0  0  0  0
   58.6710   32.1690   49.5980 C   0  0  0  0  0  0  0  0  0  0  0  0
   58.0169   31.5315   48.9849 H   0  0  0  0  0  0  0  0  0  0  0  0
   58.4570   32.6780   46.7290 C   0  0  0  0  0  0  0  0  0  0  0  0
   58.0807   31.7303   47.1416 H   0  0  0  0  0  0  0  0  0  0  0  0
   57.7110   31.9970   43.0980 C   0  0  0  0  0  0  0  0  0  0  0  0
   58.3571   32.7406   42.6085 H   0  0  0  0  0  0  0  0  0  0  0  0
   57.0200   31.0490   42.3430 C   0  0  0  0  0  0  0  0  0  0  0  0
   57.1238   31.0368   41.2480 H   0  0  0  0  0  0  0  0  0  0  0  0
   56.2200   30.1420   42.9580 N   0  0  0  0  0  0  0  0  0  0  0  0
  1  2  1  0
  2  3  2  0
  3  4  1  0
  4  5  2  0
  5  6  1  0
  6  7  2  0
  7  8  1  0
  7  9  1  0
  9 10  1  0
  9 11  2  0
 11 12  1  0
 11 13  1  0
 13 14  1  0
 14 15  2  0
 15 16  1  0
 15 17  1  0
 17 18  1  0
 17 19  2  0
 19 20  1  0
 19 21  1  0
 21 22  1  0
 22 23  1  0
 23 24  1  0
 23 25  1  0
 23 26  1  0
 21 27  2  0
 27 28  1  0
 13 29  2  0
 29 30  1  0
  5 31  1  0
 31 32  1  0
 31 33  2  0
 33 34  1  0
 33 35  1  0
 35  3  1  0
 29  6  1  0
 27 14  1  0
M  CHG  1  35  -1
M  END
>  <UniqueID>  (11) 
9

>  <SMILES>  (11) 
[H]/N=c1\nc(-c2cccc(-c3cccc(SC(F)(F)F)c3)c2)cc[n-]1

>  <Energy>  (11) 
43.819344561615274

>  <Genealogy>  (11) 
N=c1nc(-c2cccc(-c3cccc(SC(F)(F)F)c3)c2)cc[n-]1 (protonated)
[H]/N=c1\nc(-c2cccc(-c3cccc(SC(F)(F)F)c3)c2)cc[n-]1 (cis-trans isomerization)
[H]/N=c1\nc(-c2cccc(-c3cccc(SC(F)(F)F)c3)c2)cc[n-]1 (3D coordinates assigned)
[H]/N=c1\nc(-c2cccc(-c3cccc(SC(F)(F)F)c3)c2)cc[n-]1 (optimized conformer: 43.819344561615274 kcal/mol)

>  <smiles>  (11) 
N=c1nc(-c2cccc(-c3cccc(SC(F)(F)F)c3)c2)cc[nH]1

>  <score_type>  (11) 
oracle

>  <origin>  (11) 
adg

>  <m_score__min__energy>  (11) 
-10.880000000000001

>  <m_primary>  (11) 
energy

$$$$
11:0
     RDKit          3D

 73 77  0  0  1  0  0  0  0  0999 V2000
   58.3110   32.1960   53.8710 C   0  0  0  0  0  0  0  0  0  0  0  0
   58.8070   31.9920   52.6550 C   0  0  0  0  0  0  0  0  0  0  0  0
   60.2480   32.1740   52.3540 C   0  0  0  0  0  0  0  0  0  0  0  0
   60.4760   32.7680   50.9790 C   0  0  0  0  0  0  0  0  0  0  0  0
   59.4380   32.3510   50.0480 N   0  0  0  0  0  0  0  0  0  0  0  0
   59.2540   33.1130   48.8630 C   0  0  0  0  0  0  0  0  0  0  0  0
   60.0390   34.1910   48.5170 C   0  0  0  0  0  0  0  0  0  0  0  0
   59.8450   34.9270   47.3590 C   0  0  0  0  0  0  0  0  0  0  0  0
   58.8240   34.5820   46.4990 C   0  0  0  0  0  0  0  0  0  0  0  0
   58.0200   33.5120   46.8100 C   0  0  0  0  0  0  0  0  0  0  0  0
   56.9340   33.1670   45.8710 C   0  0  0  0  0  0  0  0  0  0  0  0
   57.5430   32.3020   44.8000 C   0  0  0  0  0  0  0  0  0  0  0  0
   58.2050   32.8150   43.8640 O   0  0  0  0  0  0  0  0  0  0  0  0
   57.3140   30.9050   44.9300 N   0  0  0  0  0  0  0  0  0  0  0  0
   58.3090   30.1230   45.1860 C   0  0  0  0  0  0  0  0  0  0  0  0
   58.7320   30.0940   46.5090 C   0  0  0  0  0  0  0  0  0  0  0  0
   59.8000   29.2870   46.9100 C   0  0  0  0  0  0  0  0  0  0  0  0
   60.1600   29.3040   48.3180 C   0  0  0  0  0  0  0  0  0  0  0  0
   59.4550   28.5930   49.0880 O   0  0  0  0  0  0  0  0  0  0  0  0
   61.2400   30.0490   48.9040 C   0  0  0  0  0  0  0  0  0  0  0  0
   61.8180   31.1570   48.2900 C   0  0  0  0  0  0  0  0  0  0  0  0
   62.7840   31.6660   49.0850 N   0  0  0  0  0  0  0  0  0  0  0  0
   63.6030   32.8110   48.7930 C   0  0  0  0  0  0  0  0  0  0  0  0
   63.7600   33.0490   47.3140 C   0  0  0  0  0  0  0  0  0  0  0  0
   65.0130   32.5680   49.3320 C   0  0  0  0  0  0  0  0  0  0  0  0
   63.0120   34.0350   49.4370 C   0  0  0  0  0  0  0  0  0  0  0  0
   63.2320   34.0040   50.8060 O   0  0  0  0  0  0  0  0  0  0  0  0
   62.8600   30.9260   50.2050 C   0  0  0  0  0  0  0  0  0  0  0  0
   63.6360   30.9860   51.3060 N   0  0  0  0  0  0  0  0  0  0  0  0
   63.5110   30.0920   52.3140 C   0  0  0  0  0  0  0  0  0  0  0  0
   62.5840   29.1250   52.1970 N   0  0  0  0  0  0  0  0  0  0  0  0
   61.7760   29.0130   51.1180 C   0  0  0  0  0  0  0  0  0  0  0  0
   60.9250   28.0750   51.0480 N   0  0  0  0  0  0  0  0  0  0  0  0
   61.9070   29.9250   50.0990 C   0  0  0  0  0  0  0  0  0  0  0  0
   60.4010   28.5380   45.9490 C   0  0  0  0  0  0  0  0  0  0  0  0
   59.9510   28.5940   44.6460 C   0  0  0  0  0  0  0  0  0  0  0  0
   58.9210   29.3780   44.2750 N   0  0  0  0  0  0  0  0  0  0  0  0
   58.2340   32.7940   47.9740 C   0  0  0  0  0  0  0  0  0  0  0  0
   58.6750   31.1890   50.4000 C   0  0  0  0  0  0  0  0  0  0  0  0
   57.8130   31.5660   51.6030 C   0  0  0  0  0  0  0  0  0  0  0  0
   57.1220   30.4330   51.9960 F   0  0  0  0  0  0  0  0  0  0  0  0
   56.9640   32.6170   51.2920 F   0  0  0  0  0  0  0  0  0  0  0  0
   57.2367   32.0514   54.0582 H   0  0  0  0  0  0  0  0  0  0  0  0
   58.9747   32.5094   54.6903 H   0  0  0  0  0  0  0  0  0  0  0  0
   60.6848   32.8464   53.1070 H   0  0  0  0  0  0  0  0  0  0  0  0
   60.7250   31.1831   52.3766 H   0  0  0  0  0  0  0  0  0  0  0  0
   60.4692   33.8653   51.0563 H   0  0  0  0  0  0  0  0  0  0  0  0
   61.4462   32.4123   50.6019 H   0  0  0  0  0  0  0  0  0  0  0  0
   60.8581   34.4811   49.1915 H   0  0  0  0  0  0  0  0  0  0  0  0
   60.5003   35.7797   47.1277 H   0  0  0  0  0  0  0  0  0  0  0  0
   58.6553   35.1559   45.5759 H   0  0  0  0  0  0  0  0  0  0  0  0
   56.1399   32.6163   46.3964 H   0  0  0  0  0  0  0  0  0  0  0  0
   56.4840   34.0727   45.4382 H   0  0  0  0  0  0  0  0  0  0  0  0
   58.2168   30.7176   47.2544 H   0  0  0  0  0  0  0  0  0  0  0  0
   61.5313   31.5572   47.3063 H   0  0  0  0  0  0  0  0  0  0  0  0
   64.3590   33.9570   47.1503 H   0  0  0  0  0  0  0  0  0  0  0  0
   64.2676   32.1874   46.8558 H   0  0  0  0  0  0  0  0  0  0  0  0
   62.7681   33.1765   46.8558 H   0  0  0  0  0  0  0  0  0  0  0  0
   64.9908   32.5718   50.4318 H   0  0  0  0  0  0  0  0  0  0  0  0
   65.3788   31.5936   48.9760 H   0  0  0  0  0  0  0  0  0  0  0  0
   65.6838   33.3638   48.9760 H   0  0  0  0  0  0  0  0  0  0  0  0
   63.4836   34.9336   49.0126 H   0  0  0  0  0  0  0  0  0  0  0  0
   61.9290   34.0563   49.2458 H   0  0  0  0  0  0  0  0  0  0  0  0
   63.3440   33.1140   51.1910 H   0  0  0  0  0  0  0  0  0  0  0  0
   64.1513   30.1547   53.2062 H   0  0  0  0  0  0  0  0  0  0  0  0
   62.5040   28.4380   52.9940 H   0  0  0  0  0  0  0  0  0  0  0  0
   60.0420   28.0810   50.5310 H   0  0  0  0  0  0  0  0  0  0  0  0
   61.2476   27.8860   46.2102 H   0  0  0  0  0  0  0  0  0  0  0  0
   60.4506   27.9773   43.8844 H   0  0  0  0  0  0  0  0  0  0  0  0
   58.5870   29.4150   43.2870 H   0  0  0  0  0  0  0  0  0  0  0  0
   57.5754   31.9432   48.2030 H   0  0  0  0  0  0  0  0  0  0  0  0
   58.0356   30.8877   49.5571 H   0  0  0  0  0  0  0  0  0  0  0  0
   59.3368   30.3442   50.6416 H   0  0  0  0  0  0  0  0  0  0  0  0
  1  2  2  0
  2  3  1  0
  3  4  1  0
  4  5  1  0
  5  6  1  0
  6  7  2  0
  7  8  1  0
  8  9  2  0
  9 10  1  0
 10 11  1  0
 11 12  1  0
 12 13  2  0
 12 14  1  0
 14 15  2  0
 15 16  1  0
 16 17  2  0
 17 18  1  0
 18 19  2  0
 18 20  1  0
 20 21  2  0
 21 22  1  0
 22 23  1  0
 23 24  1  0
 23 25  1  0
 23 26  1  0
 26 27  1  0
 22 28  1  0
 28 29  1  0
 29 30  2  0
 30 31  1  0
 31 32  1  0
 32 33  2  3
 32 34  1  0
 17 35  1  0
 35 36  2  0
 36 37  1  0
 10 38  2  0
  5 39  1  0
 39 40  1  0
 40 41  1  0
 40 42  1  0
 40  2  1  0
 38  6  1  0
 37 15  1  0
 34 20  1  0
 34 28  2  0
  1 43  1  0
  1 44  1  0
  3 45  1  0
  3 46  1  0
  4 47  1  0
  4 48  1  0
  7 49  1  0
  8 50  1  0
  9 51  1  0
 11 52  1  0
 11 53  1  0
 16 54  1  0
 21 55  1  0
 24 56  1  0
 24 57  1  0
 24 58  1  0
 25 59  1  0
 25 60  1  0
 25 61  1  0
 26 62  1  0
 26 63  1  0
 27 64  1  0
 30 65  1  0
 31 66  1  0
 33 67  1  0
 35 68  1  0
 36 69  1  0
 37 70  1  0
 38 71  1  0
 39 72  1  0
 39 73  1  0
M  END
>  <smiles>  (12) 
C=C1CCN(c2cccc(CC(=O)N=c3cc(C(=O)c4cn(C(C)(C)CO)c5nc[nH]c(=N)c45)cc[nH]3)c2)CC1(F)F

>  <score_type>  (12) 
oracle

>  <origin>  (12) 
adg

>  <m_score__min__energy>  (12) 
-10.710000000000001

>  <m_primary>  (12) 
energy

$$$$
12:0
     RDKit          3D

 60 63  0  0  0  0  0  0  0  0999 V2000
   58.3854   26.1514   43.5216 H   0  0  0  0  0  0  0  0  0  0  0  0
   58.4220   27.0590   44.1420 C   0  0  0  0  0  0  0  0  0  0  0  0
   57.7710   28.2180   43.7160 C   0  0  0  0  0  0  0  0  0  0  0  0
   57.2246   28.2172   42.7613 H   0  0  0  0  0  0  0  0  0  0  0  0
   57.8080   29.3890   44.4990 C   0  0  0  0  0  0  0  0  0  0  0  0
   57.1220   30.6350   44.0610 C   0  0  0  0  0  0  0  0  0  0  0  0
   55.9800   30.9140   44.5140 O   0  0  0  0  0  0  0  0  0  0  0  0
   57.7520   31.5840   43.0850 C   0  0  0  0  0  0  0  0  0  0  0  0
   58.2792   32.3782   43.6340 H   0  0  0  0  0  0  0  0  0  0  0  0
   58.4677   31.0381   42.4527 H   0  0  0  0  0  0  0  0  0  0  0  0
   56.9711   32.0316   42.4527 H   0  0  0  0  0  0  0  0  0  0  0  0
   58.5140   29.3650   45.7180 C   0  0  0  0  0  0  0  0  0  0  0  0
   58.5512   30.2703   46.3418 H   0  0  0  0  0  0  0  0  0  0  0  0
   59.1710   28.2000   46.1470 C   0  0  0  0  0  0  0  0  0  0  0  0
   59.8830   28.1910   47.3970 N   0  0  0  0  0  0  0  0  0  0  0  0
   59.8770   29.3300   48.2740 C   0  0  0  0  0  0  0  0  0  0  0  0
   59.1420   30.3260   48.0270 O   0  0  0  0  0  0  0  0  0  0  0  0
   60.7750   29.3030   49.4870 C   0  0  1  0  0  0  0  0  0  0  0  0
   61.8125   29.4422   49.1491 H   0  0  0  0  0  0  0  0  0  0  0  0
   60.4850   30.4690   50.4600 C   0  0  0  0  0  0  0  0  0  0  0  0
   59.5665   30.9825   50.1396 H   0  0  0  0  0  0  0  0  0  0  0  0
   60.3675   30.0544   51.4721 H   0  0  0  0  0  0  0  0  0  0  0  0
   61.5950   31.4400   50.4820 N   0  0  0  0  0  0  0  0  0  0  0  0
   62.0250   31.9290   51.6800 C   0  0  0  0  0  0  0  0  0  0  0  0
   61.5357   31.6035   52.6098 H   0  0  0  0  0  0  0  0  0  0  0  0
   63.0750   32.8340   51.7350 C   0  0  0  0  0  0  0  0  0  0  0  0
   63.4188   33.2328   52.7008 H   0  0  0  0  0  0  0  0  0  0  0  0
   63.6860   33.2290   50.5500 C   0  0  0  0  0  0  0  0  0  0  0  0
   64.6360   34.0570   50.6030 O   0  0  0  0  0  0  0  0  0  0  0  0
   63.2600   32.7210   49.3490 N   0  0  0  0  0  0  0  0  0  0  0  0
   63.8990   33.1550   48.0890 C   0  0  0  0  0  0  0  0  0  0  0  0
   64.6561   33.9197   48.3171 H   0  0  0  0  0  0  0  0  0  0  0  0
   64.3606   32.2759   47.6156 H   0  0  0  0  0  0  0  0  0  0  0  0
   62.8920   33.7340   47.1300 C   0  0  0  0  0  0  0  0  0  0  0  0
   63.2160   33.9730   45.9360 O   0  0  0  0  0  0  0  0  0  0  0  0
   61.6170   34.1820   47.6070 N   0  0  0  0  0  0  0  0  0  0  0  0
   60.4680   34.0470   47.0050 C   0  0  0  0  0  0  0  0  0  0  0  0
   60.0360   34.9400   46.0020 C   0  0  0  0  0  0  0  0  0  0  0  0
   60.6751   35.7818   45.6973 H   0  0  0  0  0  0  0  0  0  0  0  0
   58.7920   34.7480   45.3990 C   0  0  0  0  0  0  0  0  0  0  0  0
   58.4500   35.4353   44.6112 H   0  0  0  0  0  0  0  0  0  0  0  0
   57.9840   33.6850   45.7960 C   0  0  0  0  0  0  0  0  0  0  0  0
   56.7730   33.4920   45.2170 F   0  0  0  0  0  0  0  0  0  0  0  0
   58.4290   32.8280   46.8010 C   0  0  0  0  0  0  0  0  0  0  0  0
   57.7964   31.9886   47.1252 H   0  0  0  0  0  0  0  0  0  0  0  0
   59.6440   33.0260   47.3830 N   0  0  0  0  0  0  0  0  0  0  0  0
   59.9490   32.3660   48.1350 H   0  0  0  0  0  0  0  0  0  0  0  0
   62.2070   31.8360   49.3180 C   0  0  0  0  0  0  0  0  0  0  0  0
   61.7940   31.3900   48.2110 O   0  0  0  0  0  0  0  0  0  0  0  0
   60.6550   27.9280   50.1910 C   0  0  0  0  0  0  0  0  0  0  0  0
   59.7444   27.9384   50.8081 H   0  0  0  0  0  0  0  0  0  0  0  0
   61.5770   27.8002   50.7772 H   0  0  0  0  0  0  0  0  0  0  0  0
   60.5750   26.7080   49.2340 C   0  0  0  0  0  0  0  0  0  0  0  0
   59.5916   26.2321   49.3623 H   0  0  0  0  0  0  0  0  0  0  0  0
   61.4077   26.0405   49.5004 H   0  0  0  0  0  0  0  0  0  0  0  0
   60.7490   27.0630   47.7510 C   0  0  0  0  0  0  0  0  0  0  0  0
   60.4816   26.1919   47.1348 H   0  0  0  0  0  0  0  0  0  0  0  0
   61.7970   27.3434   47.5690 H   0  0  0  0  0  0  0  0  0  0  0  0
   59.1190   27.0460   45.3510 C   0  0  0  0  0  0  0  0  0  0  0  0
   59.6288   26.1287   45.6806 H   0  0  0  0  0  0  0  0  0  0  0  0
  1  2  1  0
  2  3  2  0
  3  4  1  0
  3  5  1  0
  5  6  1  0
  6  7  2  0
  6  8  1  0
  8  9  1  0
  8 10  1  0
  8 11  1  0
  5 12  2  0
 12 13  1  0
 12 14  1  0
 14 15  1  0
 15 16  1  0
 16 17  2  0
 16 18  1  0
 18 19  1  6
 18 20  1  0
 20 21  1  0
 20 22  1  0
 20 23  1  0
 23 24  1  0
 24 25  1  0
 24 26  2  0
 26 27  1  0
 26 28  1  0
 28 29  2  0
 28 30  1  0
 30 31  1  0
 31 32  1  0
 31 33  1  0
 31 34  1  0
 34 35  2  0
 34 36  1  0
 36 37  2  0
 37 38  1  0
 38 39  1  0
 38 40  2  0
 40 41  1  0
 40 42  1  0
 42 43  1  0
 42 44  2  0
 44 45  1  0
 44 46  1  0
 46 47  1  0
 30 48  1  0
 48 49  2  0
 18 50  1  0
 50 51  1  0
 50 52  1  0
 50 53  1  0
 53 54  1  0
 53 55  1  0
 53 56  1  0
 56 57  1  0
 56 58  1  0
 14 59  2  0
 59 60  1  0
 59  2  1  0
 56 15  1  0
 48 23  1  0
 46 37  1  0
M  END
>  <UniqueID>  (13) 
10

>  <SMILES>  (13) 
CC(=O)c1cccc(N2CCC[C@H](Cn3ccc(=O)n(CC(=O)/N=c4\ccc(F)c[nH]4)c3=O)C2=O)c1

>  <Energy>  (13) 
88.92976021349155

>  <Genealogy>  (13) 
CC(=O)c1cccc(N2CCC[C@H](Cn3ccc(=O)n(CC(=O)N=c4ccc(F)c[nH]4)c3=O)C2=O)c1 (chirality)
CC(=O)c1cccc(N2CCC[C@H](Cn3ccc(=O)n(CC(=O)/N=c4\ccc(F)c[nH]4)c3=O)C2=O)c1 (cis-trans isomerization)
CC(=O)c1cccc(N2CCC[C@H](Cn3ccc(=O)n(CC(=O)/N=c4\ccc(F)c[nH]4)c3=O)C2=O)c1 (3D coordinates assigned)
CC(=O)c1cccc(N2CCC[C@H](Cn3ccc(=O)n(CC(=O)/N=c4\ccc(F)c[nH]4)c3=O)C2=O)c1 (nonaromatic ring conformer: 88.92976021349155 kcal/mol)

>  <smiles>  (13) 
CC(=O)c1cccc(N2CCCC(Cn3ccc(=O)n(CC(=O)N=c4ccc(F)c[nH]4)c3=O)C2=O)c1

>  <score_type>  (13) 
oracle

>  <origin>  (13) 
adg

>  <m_score__min__energy>  (13) 
-9.6099999999999994

>  <m_primary>  (13) 
energy

$$$$
13:0
     RDKit          3D

 45 47  0  0  0  0  0  0  0  0999 V2000
   59.6900   32.6685   44.4655 H   0  0  0  0  0  0  0  0  0  0  0  0
   59.0420   33.0690   45.2590 C   0  0  0  0  0  0  0  0  0  0  0  0
   57.5840   33.0190   45.0310 C   0  0  0  0  0  0  0  0  0  0  0  0
   56.9110   34.0810   44.9390 O   0  0  0  0  0  0  0  0  0  0  0  0
   56.9670   31.7330   44.8540 N   0  0  0  0  0  0  0  0  0  0  0  0
   57.5390   30.5640   44.9060 C   0  0  0  0  0  0  0  0  0  0  0  0
   57.5160   29.4860   46.2070 S   0  0  0  0  0  0  0  0  0  0  0  0
   58.4620   28.3470   45.4020 C   0  0  0  0  0  0  0  0  0  0  0  0
   58.9610   27.0660   45.9910 C   0  0  0  0  0  0  0  0  0  0  0  0
   59.6477   26.5816   45.2812 H   0  0  0  0  0  0  0  0  0  0  0  0
   59.4888   27.2820   46.9316 H   0  0  0  0  0  0  0  0  0  0  0  0
   57.8090   26.1490   46.2720 C   0  0  0  0  0  0  0  0  0  0  0  0
   56.5620   26.4840   45.8420 N   0  0  0  0  0  0  0  0  0  0  0  0
   55.5030   25.6570   46.0490 C   0  0  0  0  0  0  0  0  0  0  0  0
   54.3580   25.9920   45.6490 O   0  0  0  0  0  0  0  0  0  0  0  0
   55.6810   24.4700   46.6850 N   0  0  0  0  0  0  0  0  0  0  0  0
   56.9090   24.0890   47.1210 C   0  0  0  0  0  0  0  0  0  0  0  0
   57.0520   22.9820   47.7050 O   0  0  0  0  0  0  0  0  0  0  0  0
   58.0100   24.9230   46.9200 C   0  0  0  0  0  0  0  0  0  0  0  0
   59.0120   24.6248   47.2623 H   0  0  0  0  0  0  0  0  0  0  0  0
   58.7900   28.8500   44.1470 C   0  0  0  0  0  0  0  0  0  0  0  0
   59.4197   28.3012   43.4313 H   0  0  0  0  0  0  0  0  0  0  0  0
   58.2680   30.0750   43.8790 N   0  0  0  0  0  0  0  0  0  0  0  0
   58.4240   30.5830   42.9800 H   0  0  0  0  0  0  0  0  0  0  0  0
   59.6430   33.5620   46.3530 C   0  0  0  0  0  0  0  0  0  0  0  0
   59.0984   34.3229   46.9313 H   0  0  0  0  0  0  0  0  0  0  0  0
   60.9810   33.1620   46.8420 C   0  0  0  0  0  0  0  0  0  0  0  0
   62.1240   33.8400   46.3810 C   0  0  0  0  0  0  0  0  0  0  0  0
   62.0237   34.6180   45.6098 H   0  0  0  0  0  0  0  0  0  0  0  0
   63.3860   33.5320   46.8960 C   0  0  0  0  0  0  0  0  0  0  0  0
   64.2766   34.0559   46.5186 H   0  0  0  0  0  0  0  0  0  0  0  0
   63.5170   32.5600   47.8890 C   0  0  0  0  0  0  0  0  0  0  0  0
   64.5112   32.3160   48.2914 H   0  0  0  0  0  0  0  0  0  0  0  0
   62.3870   31.8970   48.3720 C   0  0  0  0  0  0  0  0  0  0  0  0
   62.4952   31.1389   49.1617 H   0  0  0  0  0  0  0  0  0  0  0  0
   61.1140   32.1900   47.8580 C   0  0  0  0  0  0  0  0  0  0  0  0
   59.9690   31.4790   48.3620 N   0  0  0  0  0  0  0  0  0  0  0  0
   58.8830   32.1950   49.0330 C   0  0  0  0  0  0  0  0  0  0  0  0
   59.0079   32.1127   50.1228 H   0  0  0  0  0  0  0  0  0  0  0  0
   58.9068   33.2551   48.7403 H   0  0  0  0  0  0  0  0  0  0  0  0
   57.9181   31.7554   48.7403 H   0  0  0  0  0  0  0  0  0  0  0  0
   59.9180   30.0220   48.2480 C   0  0  0  0  0  0  0  0  0  0  0  0
   59.9024   29.5759   49.2534 H   0  0  0  0  0  0  0  0  0  0  0  0
   59.0090   29.7285   47.7024 H   0  0  0  0  0  0  0  0  0  0  0  0
   60.8042   29.6656   47.7024 H   0  0  0  0  0  0  0  0  0  0  0  0
  1  2  1  0
  2  3  1  0
  3  4  2  0
  3  5  1  0
  5  6  2  0
  6  7  1  0
  7  8  1  0
  8  9  1  0
  9 10  1  0
  9 11  1  0
  9 12  1  0
 12 13  1  0
 13 14  1  0
 14 15  2  0
 14 16  1  0
 16 17  1  0
 17 18  2  0
 17 19  1  0
 19 20  1  0
  8 21  2  0
 21 22  1  0
 21 23  1  0
 23 24  1  0
  2 25  2  3
 25 26  1  0
 25 27  1  0
 27 28  2  0
 28 29  1  0
 28 30  1  0
 30 31  1  0
 30 32  2  0
 32 33  1  0
 32 34  1  0
 34 35  1  0
 34 36  2  0
 36 37  1  0
 37 38  1  0
 38 39  1  0
 38 40  1  0
 38 41  1  0
 37 42  1  0
 42 43  1  0
 42 44  1  0
 42 45  1  0
 23  6  1  0
 36 27  1  0
 19 12  2  0
M  CHG  2  13  -1  16  -1
M  END
>  <UniqueID>  (14) 
11

>  <SMILES>  (14) 
CN(C)c1ccccc1C=CC(=O)/N=c1/[nH]cc(Cc2cc(=O)[n-]c(=O)[n-]2)s1

>  <Energy>  (14) 
90.23538274981347

>  <Genealogy>  (14) 
CN(C)c1ccccc1C=CC(=O)N=c1[nH]cc(Cc2cc(=O)[n-]c(=O)[n-]2)s1 (protonated)
CN(C)c1ccccc1C=CC(=O)/N=c1/[nH]cc(Cc2cc(=O)[n-]c(=O)[n-]2)s1 (cis-trans isomerization)
CN(C)c1ccccc1C=CC(=O)/N=c1/[nH]cc(Cc2cc(=O)[n-]c(=O)[n-]2)s1 (3D coordinates assigned)
CN(C)c1ccccc1C=CC(=O)/N=c1/[nH]cc(Cc2cc(=O)[n-]c(=O)[n-]2)s1 (optimized conformer: 90.23538274981347 kcal/mol)

>  <smiles>  (14) 
CN(C)c1ccccc1C=CC(=O)N=c1[nH]cc(Cc2cc(=O)[nH]c(=O)[nH]2)s1

>  <score_type>  (14) 
oracle

>  <origin>  (14) 
adg

>  <m_score__min__energy>  (14) 
-13.380000000000001

>  <m_primary>  (14) 
energy

$$$$
14:0
     RDKit          3D

 49 51  0  0  0  0  0  0  0  0999 V2000
   54.0400   30.1910   54.8630 C   0  0  0  0  0  0  0  0  0  0  0  0
   54.5340   30.3980   53.6310 C   0  0  0  0  0  0  0  0  0  0  0  0
   53.8010   30.3880   52.4340 C   0  0  0  0  0  0  0  0  0  0  0  0
   52.4730   30.4240   52.2040 C   0  0  0  0  0  0  0  0  0  0  0  0
   51.5580   31.5150   52.5860 C   0  0  0  0  0  0  0  0  0  0  0  0
   51.3360   31.9290   53.8470 N   0  0  0  0  0  0  0  0  0  0  0  0
   50.5700   33.0290   53.6850 C   0  0  0  0  0  0  0  0  0  0  0  0
   50.1320   33.6990   54.6560 O   0  0  0  0  0  0  0  0  0  0  0  0
   50.3190   33.3610   52.4010 N   0  0  0  0  0  0  0  0  0  0  0  0
   50.9650   32.4010   51.7190 C   0  0  0  0  0  0  0  0  0  0  0  0
   51.0180   32.3420   50.3330 O   0  0  0  0  0  0  0  0  0  0  0  0
   54.7300   30.3830   51.4110 C   0  0  0  0  0  0  0  0  0  0  0  0
   55.9730   30.4860   51.9960 C   0  0  0  0  0  0  0  0  0  0  0  0
   57.2560   30.5150   51.2200 C   0  0  0  0  0  0  0  0  0  0  0  0
   55.8650   30.4910   53.3490 N   0  0  0  0  0  0  0  0  0  0  0  0
   56.9950   30.5470   54.2970 C   0  0  0  0  0  0  0  0  0  0  0  0
   57.5470   31.9740   54.4570 C   0  0  0  0  0  0  0  0  0  0  0  0
   57.8580   32.6570   53.1250 C   0  0  0  0  0  0  0  0  0  0  0  0
   59.2870   32.5890   52.8460 N   0  0  0  0  0  0  0  0  0  0  0  0
   59.7950   32.5180   51.5150 C   0  0  0  0  0  0  0  0  0  0  0  0
   60.7120   31.6950   51.2490 O   0  0  0  0  0  0  0  0  0  0  0  0
   59.2640   33.3440   50.5190 O   0  0  0  0  0  0  0  0  0  0  0  0
   60.0690   34.0430   49.5740 C   0  0  0  0  0  0  0  0  0  0  0  0
   59.4140   34.0030   48.2200 C   0  0  0  0  0  0  0  0  0  0  0  0
   59.8140   34.8890   47.2060 C   0  0  0  0  0  0  0  0  0  0  0  0
   59.2240   34.8190   45.9400 C   0  0  0  0  0  0  0  0  0  0  0  0
   58.2370   33.8660   45.6790 C   0  0  0  0  0  0  0  0  0  0  0  0
   57.8440   32.9720   46.6790 C   0  0  0  0  0  0  0  0  0  0  0  0
   58.4360   33.0350   47.9440 C   0  0  0  0  0  0  0  0  0  0  0  0
   54.7086   30.2216   55.7360 H   0  0  0  0  0  0  0  0  0  0  0  0
   52.9669   29.9909   54.9988 H   0  0  0  0  0  0  0  0  0  0  0  0
   52.0321   29.5608   51.6840 H   0  0  0  0  0  0  0  0  0  0  0  0
   54.5174   30.3105   50.3342 H   0  0  0  0  0  0  0  0  0  0  0  0
   58.1062   30.5342   51.9177 H   0  0  0  0  0  0  0  0  0  0  0  0
   57.3217   29.6181   50.5865 H   0  0  0  0  0  0  0  0  0  0  0  0
   57.2811   31.4139   50.5865 H   0  0  0  0  0  0  0  0  0  0  0  0
   56.6526   30.1872   55.2785 H   0  0  0  0  0  0  0  0  0  0  0  0
   57.8022   29.9146   53.8990 H   0  0  0  0  0  0  0  0  0  0  0  0
   56.8006   32.5786   54.9931 H   0  0  0  0  0  0  0  0  0  0  0  0
   58.4940   31.8959   55.0111 H   0  0  0  0  0  0  0  0  0  0  0  0
   57.3060   32.1507   52.3194 H   0  0  0  0  0  0  0  0  0  0  0  0
   57.5535   33.7124   53.1831 H   0  0  0  0  0  0  0  0  0  0  0  0
   60.1829   35.0892   49.8940 H   0  0  0  0  0  0  0  0  0  0  0  0
   61.0577   33.5646   49.5140 H   0  0  0  0  0  0  0  0  0  0  0  0
   60.5927   35.6392   47.4081 H   0  0  0  0  0  0  0  0  0  0  0  0
   59.5378   35.5156   45.1486 H   0  0  0  0  0  0  0  0  0  0  0  0
   57.7682   33.8189   44.6850 H   0  0  0  0  0  0  0  0  0  0  0  0
   57.0694   32.2193   46.4708 H   0  0  0  0  0  0  0  0  0  0  0  0
   58.1340   32.3230   48.7262 H   0  0  0  0  0  0  0  0  0  0  0  0
  1  2  2  0
  2  3  1  0
  3  4  2  3
  4  5  1  0
  5  6  1  0
  6  7  1  0
  7  8  2  0
  7  9  1  0
  9 10  1  0
 10 11  1  0
  3 12  1  0
 12 13  2  0
 13 14  1  0
 13 15  1  0
 15 16  1  0
 16 17  1  0
 17 18  1  0
 18 19  1  0
 19 20  1  0
 20 21  2  0
 20 22  1  0
 22 23  1  0
 23 24  1  0
 24 25  2  0
 25 26  1  0
 26 27  2  0
 27 28  1  0
 28 29  2  0
 15  2  1  0
 29 24  1  0
 10  5  2  0
  1 30  1  0
  1 31  1  0
  4 32  1  0
 12 33  1  0
 14 34  1  0
 14 35  1  0
 14 36  1  0
 16 37  1  0
 16 38  1  0
 17 39  1  0
 17 40  1  0
 18 41  1  0
 18 42  1  0
 23 43  1  0
 23 44  1  0
 25 45  1  0
 26 46  1  0
 27 47  1  0
 28 48  1  0
 29 49  1  0
M  CHG  4   6  -1   9  -1  11  -1  19  -1
M  END
>  <UniqueID>  (15) 
12

>  <SMILES>  (15) 
C=c1c(=Cc2[n-]c(=O)[n-]c2[O-])cc(C)n1CCC[N-]C(=O)OCc1ccccc1

>  <Energy>  (15) 
107.65801136660231

>  <Genealogy>  (15) 
C=c1c(=Cc2[n-]c(=O)[n-]c2[O-])cc(C)n1CCC[N-]C(=O)OCc1ccccc1 (protonated)
C=c1c(=Cc2[n-]c(=O)[n-]c2[O-])cc(C)n1CCC[N-]C(=O)OCc1ccccc1 (3D coordinates assigned)
C=c1c(=Cc2[n-]c(=O)[n-]c2[O-])cc(C)n1CCC[N-]C(=O)OCc1ccccc1 (optimized conformer: 107.65801136660231 kcal/mol)

>  <smiles>  (15) 
C=c1c(=Cc2[nH]c(=O)[nH]c2O)cc(C)n1CCCNC(=O)OCc1ccccc1

>  <score_type>  (15) 
oracle

>  <origin>  (15) 
adg

>  <m_score__min__energy>  (15) 
-17.59

>  <m_primary>  (15) 
energy

$$$$
15:0
     RDKit          3D

 63 67  0  0  0  0  0  0  0  0999 V2000
   57.6035   26.5075   48.2271 H   0  0  0  0  0  0  0  0  0  0  0  0
   57.2100   25.7910   47.4910 C   0  0  0  0  0  0  0  0  0  0  0  0
   56.6219   24.9243   47.8271 H   0  0  0  0  0  0  0  0  0  0  0  0
   57.4470   25.9740   46.1850 C   0  0  0  0  0  0  0  0  0  0  0  0
   57.0180   25.1570   45.1300 C   0  0  0  0  0  0  0  0  0  0  0  0
   56.2910   24.0260   45.2290 C   0  0  0  0  0  0  0  0  0  0  0  0
   56.8418   23.0739   45.2427 H   0  0  0  0  0  0  0  0  0  0  0  0
   54.8130   23.9550   45.3210 C   0  0  0  0  0  0  0  0  0  0  0  0
   54.0540   22.8700   45.0760 N   0  0  0  0  0  0  0  0  0  0  0  0
   52.7930   23.3200   45.2490 C   0  0  0  0  0  0  0  0  0  0  0  0
   51.7840   22.5780   45.1170 O   0  0  0  0  0  0  0  0  0  0  0  0
   52.6980   24.6250   45.5790 N   0  0  0  0  0  0  0  0  0  0  0  0
   53.9840   25.0120   45.6130 C   0  0  0  0  0  0  0  0  0  0  0  0
   54.3920   26.3070   45.9110 O   0  0  0  0  0  0  0  0  0  0  0  0
   57.5130   25.7390   43.9660 C   0  0  0  0  0  0  0  0  0  0  0  0
   57.3820   25.3680   42.9388 H   0  0  0  0  0  0  0  0  0  0  0  0
   58.2000   26.8720   44.3520 C   0  0  0  0  0  0  0  0  0  0  0  0
   58.9140   27.8060   43.4250 C   0  0  0  0  0  0  0  0  0  0  0  0
   59.4789   28.5449   44.0124 H   0  0  0  0  0  0  0  0  0  0  0  0
   59.6074   27.2342   42.7908 H   0  0  0  0  0  0  0  0  0  0  0  0
   58.1803   28.3251   42.7908 H   0  0  0  0  0  0  0  0  0  0  0  0
   58.1580   27.0140   45.6900 N   0  0  0  0  0  0  0  0  0  0  0  0
   58.7490   28.0880   46.4330 C   0  0  0  0  0  0  0  0  0  0  0  0
   58.4490   29.4340   46.3460 C   0  0  0  0  0  0  0  0  0  0  0  0
   57.5270   30.0700   45.3830 C   0  0  0  0  0  0  0  0  0  0  0  0
   56.3700   29.5900   45.2500 O   0  0  0  0  0  0  0  0  0  0  0  0
   57.8850   31.2010   44.5760 N   0  0  0  0  0  0  0  0  0  0  0  0
   57.7520   32.8760   45.0100 S   0  0  0  0  0  0  0  0  0  0  0  0
   56.3070   33.2080   45.2680 O   0  0  0  0  0  0  0  0  0  0  0  0
   58.2440   33.7170   43.8690 O   0  0  0  0  0  0  0  0  0  0  0  0
   58.7350   33.2220   46.4320 C   0  0  0  0  0  0  0  0  0  0  0  0
   59.9670   33.8780   46.2810 C   0  0  0  0  0  0  0  0  0  0  0  0
   60.3120   34.1752   45.2797 H   0  0  0  0  0  0  0  0  0  0  0  0
   60.7560   34.1540   47.4020 C   0  0  0  0  0  0  0  0  0  0  0  0
   61.7214   34.6674   47.2815 H   0  0  0  0  0  0  0  0  0  0  0  0
   60.3190   33.7780   48.6760 C   0  0  0  0  0  0  0  0  0  0  0  0
   60.9429   33.9912   49.5565 H   0  0  0  0  0  0  0  0  0  0  0  0
   59.0870   33.1300   48.8310 C   0  0  0  0  0  0  0  0  0  0  0  0
   58.7406   32.8376   49.8332 H   0  0  0  0  0  0  0  0  0  0  0  0
   58.2970   32.8550   47.7080 C   0  0  0  0  0  0  0  0  0  0  0  0
   57.3283   32.3484   47.8302 H   0  0  0  0  0  0  0  0  0  0  0  0
   59.1940   30.0940   47.2570 N   0  0  0  0  0  0  0  0  0  0  0  0
   59.9250   29.2070   47.9210 N   0  0  0  0  0  0  0  0  0  0  0  0
   60.7990   29.5750   48.9960 C   0  0  0  0  0  0  0  0  0  0  0  0
   60.7680   28.9200   50.0710 O   0  0  0  0  0  0  0  0  0  0  0  0
   61.7270   30.6540   48.8370 N   0  0  0  0  0  0  0  0  0  0  0  0
   61.8380   31.0800   47.8880 H   0  0  0  0  0  0  0  0  0  0  0  0
   62.5300   31.1480   49.9530 C   0  0  0  0  0  0  0  0  0  0  0  0
   61.8858   31.2753   50.8355 H   0  0  0  0  0  0  0  0  0  0  0  0
   63.3268   30.4215   50.1705 H   0  0  0  0  0  0  0  0  0  0  0  0
   63.1670   32.4950   49.5930 C   0  0  0  0  0  0  0  0  0  0  0  0
   62.4755   33.0996   50.1982 H   0  0  0  0  0  0  0  0  0  0  0  0
   64.6740   32.4730   49.3800 C   0  0  0  0  0  0  0  0  0  0  0  0
   65.2857   33.3341   49.6871 H   0  0  0  0  0  0  0  0  0  0  0  0
   65.4903   31.7924   49.6637 H   0  0  0  0  0  0  0  0  0  0  0  0
   63.7360   32.5920   48.1860 C   0  0  0  0  0  0  0  0  0  0  0  0
   63.6705   33.5391   47.6303 H   0  0  0  0  0  0  0  0  0  0  0  0
   63.5943   32.0327   47.2495 H   0  0  0  0  0  0  0  0  0  0  0  0
   59.6860   27.9680   47.4380 C   0  0  0  0  0  0  0  0  0  0  0  0
   60.3140   26.6930   47.9110 C   0  0  0  0  0  0  0  0  0  0  0  0
   60.3230   26.6747   49.0108 H   0  0  0  0  0  0  0  0  0  0  0  0
   59.7344   25.8372   47.5348 H   0  0  0  0  0  0  0  0  0  0  0  0
   61.3458   26.6309   47.5348 H   0  0  0  0  0  0  0  0  0  0  0  0
  1  2  1  0
  2  3  1  0
  2  4  2  0
  4  5  1  0
  5  6  2  0
  6  7  1  0
  6  8  1  0
  8  9  1  0
  9 10  1  0
 10 11  2  0
 10 12  1  0
 12 13  1  0
 13 14  1  0
  5 15  1  0
 15 16  1  0
 15 17  2  0
 17 18  1  0
 18 19  1  0
 18 20  1  0
 18 21  1  0
 17 22  1  0
 22 23  1  0
 23 24  1  0
 24 25  1  0
 25 26  2  0
 25 27  1  0
 27 28  1  0
 28 29  2  0
 28 30  2  0
 28 31  1  0
 31 32  2  0
 32 33  1  0
 32 34  1  0
 34 35  1  0
 34 36  2  0
 36 37  1  0
 36 38  1  0
 38 39  1  0
 38 40  2  0
 40 41  1  0
 24 42  2  0
 42 43  1  0
 43 44  1  0
 44 45  2  0
 44 46  1  0
 46 47  1  0
 46 48  1  0
 48 49  1  0
 48 50  1  0
 48 51  1  0
 51 52  1  0
 51 53  1  0
 53 54  1  0
 53 55  1  0
 53 56  1  0
 56 57  1  0
 56 58  1  0
 43 59  1  0
 59 60  1  0
 60 61  1  0
 60 62  1  0
 60 63  1  0
 22  4  1  0
 59 23  2  0
 13  8  2  0
 40 31  1  0
 56 51  1  0
M  CHG  4   9  -1  12  -1  14  -1  27  -1
M  END
>  <UniqueID>  (16) 
13

>  <SMILES>  (16) 
C=c1/c(=C/c2[n-]c(=O)[n-]c2[O-])cc(C)n1-c1c(C(=O)[N-]S(=O)(=O)c2ccccc2)nn(C(=O)NCC2CC2)c1C

>  <Energy>  (16) 
434.1167082315896

>  <Genealogy>  (16) 
C=c1c(=Cc2[n-]c(=O)[n-]c2[O-])cc(C)n1-c1c(C(=O)[N-]S(=O)(=O)c2ccccc2)nn(C(=O)NCC2CC2)c1C (protonated)
C=c1/c(=C/c2[n-]c(=O)[n-]c2[O-])cc(C)n1-c1c(C(=O)[N-]S(=O)(=O)c2ccccc2)nn(C(=O)NCC2CC2)c1C (cis-trans isomerization)
C=c1/c(=C/c2[n-]c(=O)[n-]c2[O-])cc(C)n1-c1c(C(=O)[N-]S(=O)(=O)c2ccccc2)nn(C(=O)NCC2CC2)c1C (3D coordinates assigned)
C=c1/c(=C/c2[n-]c(=O)[n-]c2[O-])cc(C)n1-c1c(C(=O)[N-]S(=O)(=O)c2ccccc2)nn(C(=O)NCC2CC2)c1C (nonaromatic ring conformer: 434.1167082315896 kcal/mol)

>  <smiles>  (16) 
C=c1c(=Cc2[nH]c(=O)[nH]c2O)cc(C)n1-c1c(C(=O)NS(=O)(=O)c2ccccc2)nn(C(=O)NCC2CC2)c1C

>  <score_type>  (16) 
oracle

>  <origin>  (16) 
adg

>  <m_score__min__energy>  (16) 
-19.41

>  <m_primary>  (16) 
energy

$$$$
16:0
     RDKit          3D

 46 49  0  0  0  0  0  0  0  0999 V2000
   56.9940   34.2790   44.7940 O   0  0  0  0  0  0  0  0  0  0  0  0
   58.0310   33.5670   44.8960 C   0  0  0  0  0  0  0  0  0  0  0  0
   59.3660   34.2360   45.1100 C   0  0  0  0  0  0  0  0  0  0  0  0
   59.8030   34.1780   46.5460 C   0  0  0  0  0  0  0  0  0  0  0  0
   58.9750   34.2250   47.6630 C   0  0  0  0  0  0  0  0  0  0  0  0
   59.7000   34.0750   48.7950 N   0  0  0  0  0  0  0  0  0  0  0  0
   60.9750   33.9190   48.4010 C   0  0  0  0  0  0  0  0  0  0  0  0
   62.0900   33.7110   49.2120 C   0  0  0  0  0  0  0  0  0  0  0  0
   63.3390   33.5510   48.5850 C   0  0  0  0  0  0  0  0  0  0  0  0
   63.4430   33.5970   47.1770 C   0  0  0  0  0  0  0  0  0  0  0  0
   62.3010   33.8070   46.3840 C   0  0  0  0  0  0  0  0  0  0  0  0
   61.0780   33.9700   47.0340 C   0  0  0  0  0  0  0  0  0  0  0  0
   57.9120   32.1260   44.8700 N   0  0  0  0  0  0  0  0  0  0  0  0
   58.9600   31.2920   45.4780 C   0  0  0  0  0  0  0  0  0  0  0  0
   58.6080   29.8040   45.3860 C   0  0  0  0  0  0  0  0  0  0  0  0
   58.1200   29.4920   44.0280 N   0  0  0  0  0  0  0  0  0  0  0  0
   58.0150   28.0260   43.8540 C   0  0  0  0  0  0  0  0  0  0  0  0
   58.2180   27.2930   45.1500 C   0  0  0  0  0  0  0  0  0  0  0  0
   59.4340   26.8360   45.6430 C   0  0  0  0  0  0  0  0  0  0  0  0
   59.3120   26.1480   46.8570 C   0  0  0  0  0  0  0  0  0  0  0  0
   58.0050   26.0550   47.3170 C   0  0  0  0  0  0  0  0  0  0  0  0
   56.9990   26.8280   46.2120 S   0  0  0  0  0  0  0  0  0  0  0  0
   56.8240   30.1670   43.7490 C   0  0  0  0  0  0  0  0  0  0  0  0
   56.6320   31.5100   44.4910 C   0  0  0  0  0  0  0  0  0  0  0  0
   60.1199   33.7301   44.4890 H   0  0  0  0  0  0  0  0  0  0  0  0
   59.2634   35.2947   44.8295 H   0  0  0  0  0  0  0  0  0  0  0  0
   57.8844   34.3645   47.6302 H   0  0  0  0  0  0  0  0  0  0  0  0
   59.3360   34.0650   49.7740 H   0  0  0  0  0  0  0  0  0  0  0  0
   61.9959   33.6732   50.3073 H   0  0  0  0  0  0  0  0  0  0  0  0
   64.2401   33.3891   49.1948 H   0  0  0  0  0  0  0  0  0  0  0  0
   64.4245   33.4676   46.6975 H   0  0  0  0  0  0  0  0  0  0  0  0
   62.3700   33.8416   45.2867 H   0  0  0  0  0  0  0  0  0  0  0  0
   59.9096   31.4691   44.9518 H   0  0  0  0  0  0  0  0  0  0  0  0
   59.0482   31.5636   46.5403 H   0  0  0  0  0  0  0  0  0  0  0  0
   59.5036   29.2023   45.6001 H   0  0  0  0  0  0  0  0  0  0  0  0
   57.8220   29.5692   46.1188 H   0  0  0  0  0  0  0  0  0  0  0  0
   58.8320   29.8440   43.3430 H   0  0  0  0  0  0  0  0  0  0  0  0
   57.0161   27.7849   43.4615 H   0  0  0  0  0  0  0  0  0  0  0  0
   58.8025   27.7079   43.1549 H   0  0  0  0  0  0  0  0  0  0  0  0
   60.3946   26.9980   45.1320 H   0  0  0  0  0  0  0  0  0  0  0  0
   60.1710   25.7213   47.3956 H   0  0  0  0  0  0  0  0  0  0  0  0
   57.6826   25.5605   48.2452 H   0  0  0  0  0  0  0  0  0  0  0  0
   56.7616   30.3591   42.6677 H   0  0  0  0  0  0  0  0  0  0  0  0
   56.0338   29.4923   44.1102 H   0  0  0  0  0  0  0  0  0  0  0  0
   56.0870   32.2029   43.8330 H   0  0  0  0  0  0  0  0  0  0  0  0
   56.0698   31.3069   45.4144 H   0  0  0  0  0  0  0  0  0  0  0  0
  1  2  2  0
  2  3  1  0
  3  4  1  0
  4  5  2  0
  5  6  1  0
  6  7  1  0
  7  8  2  0
  8  9  1  0
  9 10  2  0
 10 11  1  0
 11 12  2  0
  2 13  1  0
 13 14  1  0
 14 15  1  0
 15 16  1  0
 16 17  1  0
 17 18  1  0
 18 19  2  0
 19 20  1  0
 20 21  2  0
 21 22  1  0
 16 23  1  0
 23 24  1  0
 12  4  1  0
 24 13  1  0
 12  7  1  0
 22 18  1  0
  3 25  1  0
  3 26  1  0
  5 27  1  0
  6 28  1  0
  8 29  1  0
  9 30  1  0
 10 31  1  0
 11 32  1  0
 14 33  1  0
 14 34  1  0
 15 35  1  0
 15 36  1  0
 16 37  1  0
 17 38  1  0
 17 39  1  0
 19 40  1  0
 20 41  1  0
 21 42  1  0
 23 43  1  0
 23 44  1  0
 24 45  1  0
 24 46  1  0
M  CHG  1  16   1
M  END
>  <UniqueID>  (17) 
14

>  <SMILES>  (17) 
O=C(Cc1c[nH]c2ccccc12)N1CC[NH+](Cc2cccs2)CC1

>  <Energy>  (17) 
114.11681239184135

>  <Genealogy>  (17) 
O=C(Cc1c[nH]c2ccccc12)N1CC[NH+](Cc2cccs2)CC1 (protonated)
O=C(Cc1c[nH]c2ccccc12)N1CC[NH+](Cc2cccs2)CC1 (3D coordinates assigned)
O=C(Cc1c[nH]c2ccccc12)N1CC[NH+](Cc2cccs2)CC1 (nonaromatic ring conformer: 114.11681239184135 kcal/mol)

>  <smiles>  (17) 
O=C(Cc1c[nH]c2ccccc12)N1CCN(Cc2cccs2)CC1

>  <score_type>  (17) 
oracle

>  <origin>  (17) 
adg

>  <m_score__min__energy>  (17) 
-6.8300000000000001

>  <m_primary>  (17) 
energy

$$$$
17:0
     RDKit          3D

 56 59  0  0  0  0  0  0  0  0999 V2000
   61.8430   29.3130   50.4520 O   0  0  0  0  0  0  0  0  0  0  0  0
   61.1400   30.0460   49.7020 C   0  0  0  0  0  0  0  0  0  0  0  0
   59.7890   29.6390   49.4140 N   0  0  0  0  0  0  0  0  0  0  0  0
   59.3580   28.9220   48.2490 C   0  0  0  0  0  0  0  0  0  0  0  0
   58.5260   29.5260   47.2920 C   0  0  0  0  0  0  0  0  0  0  0  0
   58.1900   28.8560   46.1030 C   0  0  0  0  0  0  0  0  0  0  0  0
   57.4560   29.5500   45.0130 C   0  0  0  0  0  0  0  0  0  0  0  0
   58.0820   30.2740   43.9950 C   0  0  0  0  0  0  0  0  0  0  0  0
   56.8940   30.7970   42.9310 S   0  0  0  0  0  0  0  0  0  0  0  0
   55.6390   30.0950   43.7950 C   0  0  0  0  0  0  0  0  0  0  0  0
   56.1040   29.4540   44.8870 N   0  0  0  0  0  0  0  0  0  0  0  0
   58.5960   27.5200   45.9420 C   0  0  0  0  0  0  0  0  0  0  0  0
   59.3570   26.8860   46.9310 C   0  0  0  0  0  0  0  0  0  0  0  0
   59.7480   27.5850   48.0790 C   0  0  0  0  0  0  0  0  0  0  0  0
   60.5340   26.9630   49.0490 O   0  0  0  0  0  0  0  0  0  0  0  0
   61.7690   31.2530   49.0360 C   0  0  0  0  0  0  0  0  0  0  0  0
   62.3270   30.8890   47.6470 C   0  0  0  0  0  0  0  0  0  0  0  0
   63.3390   31.9370   47.1230 C   0  0  0  0  0  0  0  0  0  0  0  0
   63.1690   33.2640   47.7520 N   0  0  0  0  0  0  0  0  0  0  0  0
   61.9320   33.9540   47.3100 C   0  0  0  0  0  0  0  0  0  0  0  0
   61.1630   34.4970   48.5210 C   0  0  0  0  0  0  0  0  0  0  0  0
   59.7380   33.9280   48.6350 C   0  0  0  0  0  0  0  0  0  0  0  0
   59.0230   33.9230   47.3040 C   0  0  0  0  0  0  0  0  0  0  0  0
   59.3580   34.8650   46.3150 C   0  0  0  0  0  0  0  0  0  0  0  0
   58.7140   34.8460   45.0770 C   0  0  0  0  0  0  0  0  0  0  0  0
   57.7340   33.8850   44.8140 C   0  0  0  0  0  0  0  0  0  0  0  0
   57.3940   32.9450   45.7900 C   0  0  0  0  0  0  0  0  0  0  0  0
   58.0330   32.9640   47.0320 C   0  0  0  0  0  0  0  0  0  0  0  0
   63.3580   33.2170   49.2260 C   0  0  0  0  0  0  0  0  0  0  0  0
   62.8640   31.9070   49.8840 C   0  0  0  0  0  0  0  0  0  0  0  0
   58.1322   30.5366   47.4755 H   0  0  0  0  0  0  0  0  0  0  0  0
   59.1613   30.4669   43.9066 H   0  0  0  0  0  0  0  0  0  0  0  0
   54.5782   30.1501   43.5091 H   0  0  0  0  0  0  0  0  0  0  0  0
   58.3138   26.9690   45.0327 H   0  0  0  0  0  0  0  0  0  0  0  0
   59.6493   25.8330   46.8054 H   0  0  0  0  0  0  0  0  0  0  0  0
   60.8970   27.4750   49.8460 H   0  0  0  0  0  0  0  0  0  0  0  0
   60.9617   31.9918   48.9244 H   0  0  0  0  0  0  0  0  0  0  0  0
   62.8314   29.9137   47.7137 H   0  0  0  0  0  0  0  0  0  0  0  0
   61.4816   30.8590   46.9438 H   0  0  0  0  0  0  0  0  0  0  0  0
   64.3572   31.5771   47.3321 H   0  0  0  0  0  0  0  0  0  0  0  0
   63.1614   32.0574   46.0441 H   0  0  0  0  0  0  0  0  0  0  0  0
   62.1999   34.7892   46.6461 H   0  0  0  0  0  0  0  0  0  0  0  0
   61.2940   33.2359   46.7740 H   0  0  0  0  0  0  0  0  0  0  0  0
   61.7183   34.2363   49.4341 H   0  0  0  0  0  0  0  0  0  0  0  0
   61.0724   35.5855   48.3911 H   0  0  0  0  0  0  0  0  0  0  0  0
   59.7966   32.8958   49.0106 H   0  0  0  0  0  0  0  0  0  0  0  0
   59.1696   34.5701   49.3239 H   0  0  0  0  0  0  0  0  0  0  0  0
   60.1313   35.6204   46.5182 H   0  0  0  0  0  0  0  0  0  0  0  0
   58.9777   35.5873   44.3083 H   0  0  0  0  0  0  0  0  0  0  0  0
   57.2294   33.8687   43.8367 H   0  0  0  0  0  0  0  0  0  0  0  0
   56.6226   32.1894   45.5803 H   0  0  0  0  0  0  0  0  0  0  0  0
   57.7600   32.2253   47.8000 H   0  0  0  0  0  0  0  0  0  0  0  0
   64.4311   33.3281   49.4405 H   0  0  0  0  0  0  0  0  0  0  0  0
   62.7537   34.0326   49.6497 H   0  0  0  0  0  0  0  0  0  0  0  0
   63.7099   31.2105   49.9806 H   0  0  0  0  0  0  0  0  0  0  0  0
   62.4489   32.1442   50.8747 H   0  0  0  0  0  0  0  0  0  0  0  0
  1  2  2  0
  2  3  1  0
  3  4  1  0
  4  5  2  0
  5  6  1  0
  6  7  1  0
  7  8  2  0
  8  9  1  0
  9 10  1  0
 10 11  2  0
  6 12  2  0
 12 13  1  0
 13 14  2  0
 14 15  1  0
  2 16  1  0
 16 17  1  0
 17 18  1  0
 18 19  1  0
 19 20  1  0
 20 21  1  0
 21 22  1  0
 22 23  1  0
 23 24  2  0
 24 25  1  0
 25 26  2  0
 26 27  1  0
 27 28  2  0
 19 29  1  0
 29 30  1  0
 14  4  1  0
 30 16  1  0
 11  7  1  0
 28 23  1  0
  5 31  1  0
  8 32  1  0
 10 33  1  0
 12 34  1  0
 13 35  1  0
 15 36  1  0
 16 37  1  0
 17 38  1  0
 17 39  1  0
 18 40  1  0
 18 41  1  0
 20 42  1  0
 20 43  1  0
 21 44  1  0
 21 45  1  0
 22 46  1  0
 22 47  1  0
 24 48  1  0
 25 49  1  0
 26 50  1  0
 27 51  1  0
 28 52  1  0
 29 53  1  0
 29 54  1  0
 30 55  1  0
 30 56  1  0
M  CHG  1   3  -1
M  END
>  <UniqueID>  (18) 
15

>  <SMILES>  (18) 
O=C([N-]c1cc(-c2cscn2)ccc1O)C1CCN(CCCc2ccccc2)CC1

>  <Energy>  (18) 
101.2057498965079

>  <Genealogy>  (18) 
O=C([N-]c1cc(-c2cscn2)ccc1O)C1CCN(CCCc2ccccc2)CC1 (protonated)
O=C([N-]c1cc(-c2cscn2)ccc1O)C1CCN(CCCc2ccccc2)CC1 (3D coordinates assigned)
O=C([N-]c1cc(-c2cscn2)ccc1O)C1CCN(CCCc2ccccc2)CC1 (nonaromatic ring conformer: 101.2057498965079 kcal/mol)

>  <smiles>  (18) 
O=C(Nc1cc(-c2cscn2)ccc1O)C1CCN(CCCc2ccccc2)CC1

>  <score_type>  (18) 
oracle

>  <origin>  (18) 
adg

>  <m_score__min__energy>  (18) 
-11.289999999999999

>  <m_primary>  (18) 
energy

$$$$
18:0
     RDKit          3D

 65 68  0  0  0  0  0  0  0  0999 V2000
   60.4810   27.7920   45.1930 O   0  0  0  0  0  0  0  0  0  0  0  0
   60.0650   27.1770   46.2110 C   0  0  0  0  0  0  0  0  0  0  0  0
   59.1690   25.9910   46.0280 C   0  0  0  0  0  0  0  0  0  0  0  0
   57.7760   26.2430   46.6280 C   0  0  0  0  0  0  0  0  0  0  0  0
   56.8540   27.0380   45.6920 C   0  0  0  0  0  0  0  0  0  0  0  0
   57.4190   28.3560   45.4030 N   0  0  0  0  0  0  0  0  0  0  0  0
   56.6340   29.4580   44.9200 C   0  0  0  0  0  0  0  0  0  0  0  0
   55.3770   29.3570   44.8630 O   0  0  0  0  0  0  0  0  0  0  0  0
   57.2760   30.7230   44.5010 C   0  0  0  0  0  0  0  0  0  0  0  0
   57.2450   31.1360   43.1540 C   0  0  0  0  0  0  0  0  0  0  0  0
   57.8200   32.3530   42.7760 C   0  0  0  0  0  0  0  0  0  0  0  0
   58.4260   33.1720   43.7320 C   0  0  0  0  0  0  0  0  0  0  0  0
   58.4660   32.7750   45.0770 C   0  0  0  0  0  0  0  0  0  0  0  0
   59.2190   33.8170   46.2810 S   0  0  0  0  0  0  0  0  0  0  0  0
   58.9600   35.2620   45.9520 O   0  0  0  0  0  0  0  0  0  0  0  0
   58.6040   33.5250   47.6240 O   0  0  0  0  0  0  0  0  0  0  0  0
   60.9300   33.5550   46.3820 N   0  0  0  0  0  0  0  0  0  0  0  0
   61.6080   33.2290   47.5980 C   0  0  0  0  0  0  0  0  0  0  0  0
   61.8310   34.1990   48.5920 C   0  0  0  0  0  0  0  0  0  0  0  0
   62.4860   33.8530   49.7800 C   0  0  0  0  0  0  0  0  0  0  0  0
   62.9310   32.5410   49.9780 C   0  0  0  0  0  0  0  0  0  0  0  0
   62.7340   31.5770   48.9840 C   0  0  0  0  0  0  0  0  0  0  0  0
   62.0860   31.9230   47.7900 C   0  0  0  0  0  0  0  0  0  0  0  0
   61.8920   30.9760   46.8370 F   0  0  0  0  0  0  0  0  0  0  0  0
   57.8920   31.5500   45.4560 C   0  0  0  0  0  0  0  0  0  0  0  0
   60.5020   27.5350   47.5300 N   0  0  0  0  0  0  0  0  0  0  0  0
   60.0280   28.6060   48.3660 C   0  0  0  0  0  0  0  0  0  0  0  0
   60.3280   28.5560   49.7330 C   0  0  0  0  0  0  0  0  0  0  0  0
   59.9370   29.5920   50.5870 C   0  0  0  0  0  0  0  0  0  0  0  0
   59.2320   30.6990   50.0820 C   0  0  0  0  0  0  0  0  0  0  0  0
   58.8600   31.7870   50.9500 N   0  0  0  0  0  0  0  0  0  0  0  0
   57.8200   31.5460   51.9650 C   0  0  0  0  0  0  0  0  0  0  0  0
   57.7480   32.6880   52.9880 C   0  0  0  0  0  0  0  0  0  0  0  0
   57.8180   33.9490   52.3530 O   0  0  0  0  0  0  0  0  0  0  0  0
   59.1010   34.1020   51.7900 C   0  0  0  0  0  0  0  0  0  0  0  0
   59.2810   33.1520   50.6050 C   0  0  0  0  0  0  0  0  0  0  0  0
   58.8850   30.7280   48.7220 C   0  0  0  0  0  0  0  0  0  0  0  0
   59.2720   29.6870   47.8690 C   0  0  0  0  0  0  0  0  0  0  0  0
   59.0636   25.7845   44.9527 H   0  0  0  0  0  0  0  0  0  0  0  0
   59.6199   25.1327   46.5477 H   0  0  0  0  0  0  0  0  0  0  0  0
   57.3055   25.2719   46.8416 H   0  0  0  0  0  0  0  0  0  0  0  0
   57.9143   26.8420   47.5402 H   0  0  0  0  0  0  0  0  0  0  0  0
   56.7317   26.4836   44.7499 H   0  0  0  0  0  0  0  0  0  0  0  0
   55.8805   27.1723   46.1863 H   0  0  0  0  0  0  0  0  0  0  0  0
   58.4500   28.4750   45.5490 H   0  0  0  0  0  0  0  0  0  0  0  0
   56.7662   30.4980   42.3966 H   0  0  0  0  0  0  0  0  0  0  0  0
   57.7952   32.6669   41.7220 H   0  0  0  0  0  0  0  0  0  0  0  0
   58.8729   34.1305   43.4294 H   0  0  0  0  0  0  0  0  0  0  0  0
   61.4896   35.2329   48.4354 H   0  0  0  0  0  0  0  0  0  0  0  0
   62.6509   34.6128   50.5582 H   0  0  0  0  0  0  0  0  0  0  0  0
   63.4361   32.2677   50.9162 H   0  0  0  0  0  0  0  0  0  0  0  0
   63.0876   30.5470   49.1392 H   0  0  0  0  0  0  0  0  0  0  0  0
   57.9250   31.2353   46.5095 H   0  0  0  0  0  0  0  0  0  0  0  0
   60.8766   27.6933   50.1390 H   0  0  0  0  0  0  0  0  0  0  0  0
   60.1819   29.5408   51.6582 H   0  0  0  0  0  0  0  0  0  0  0  0
   56.8457   31.4560   51.4624 H   0  0  0  0  0  0  0  0  0  0  0  0
   58.0740   30.6204   52.5024 H   0  0  0  0  0  0  0  0  0  0  0  0
   56.7989   32.6163   53.5395 H   0  0  0  0  0  0  0  0  0  0  0  0
   58.6032   32.5956   53.6736 H   0  0  0  0  0  0  0  0  0  0  0  0
   59.2238   35.1392   51.4447 H   0  0  0  0  0  0  0  0  0  0  0  0
   59.8561   33.8656   52.5542 H   0  0  0  0  0  0  0  0  0  0  0  0
   58.6744   33.5121   49.7610 H   0  0  0  0  0  0  0  0  0  0  0  0
   60.3471   33.1301   50.3347 H   0  0  0  0  0  0  0  0  0  0  0  0
   58.3054   31.5739   48.3238 H   0  0  0  0  0  0  0  0  0  0  0  0
   58.9850   29.7129   46.8074 H   0  0  0  0  0  0  0  0  0  0  0  0
  1  2  2  0
  2  3  1  0
  3  4  1  0
  4  5  1  0
  5  6  1  0
  6  7  1  0
  7  8  2  0
  7  9  1  0
  9 10  2  0
 10 11  1  0
 11 12  2  0
 12 13  1  0
 13 14  1  0
 14 15  2  0
 14 16  2  0
 14 17  1  0
 17 18  1  0
 18 19  2  0
 19 20  1  0
 20 21  2  0
 21 22  1  0
 22 23  2  0
 23 24  1  0
 13 25  2  0
  2 26  1  0
 26 27  1  0
 27 28  2  0
 28 29  1  0
 29 30  2  0
 30 31  1  0
 31 32  1  0
 32 33  1  0
 33 34  1  0
 34 35  1  0
 35 36  1  0
 30 37  1  0
 37 38  2  0
 25  9  1  0
 38 27  1  0
 23 18  1  0
 36 31  1  0
  3 39  1  0
  3 40  1  0
  4 41  1  0
  4 42  1  0
  5 43  1  0
  5 44  1  0
  6 45  1  0
 10 46  1  0
 11 47  1  0
 12 48  1  0
 19 49  1  0
 20 50  1  0
 21 51  1  0
 22 52  1  0
 25 53  1  0
 28 54  1  0
 29 55  1  0
 32 56  1  0
 32 57  1  0
 33 58  1  0
 33 59  1  0
 35 60  1  0
 35 61  1  0
 36 62  1  0
 36 63  1  0
 37 64  1  0
 38 65  1  0
M  CHG  2  17  -1  26  -1
M  END
>  <UniqueID>  (19) 
16

>  <SMILES>  (19) 
O=C(CCCNC(=O)c1cccc(S(=O)(=O)[N-]c2ccccc2F)c1)[N-]c1ccc(N2CCOCC2)cc1

>  <Energy>  (19) 
83.10738384683705

>  <Genealogy>  (19) 
O=C(CCCNC(=O)c1cccc(S(=O)(=O)[N-]c2ccccc2F)c1)[N-]c1ccc(N2CCOCC2)cc1 (protonated)
O=C(CCCNC(=O)c1cccc(S(=O)(=O)[N-]c2ccccc2F)c1)[N-]c1ccc(N2CCOCC2)cc1 (3D coordinates assigned)
O=C(CCCNC(=O)c1cccc(S(=O)(=O)[N-]c2ccccc2F)c1)[N-]c1ccc(N2CCOCC2)cc1 (nonaromatic ring conformer: 83.10738384683705 kcal/mol)

>  <smiles>  (19) 
O=C(CCCNC(=O)c1cccc(S(=O)(=O)Nc2ccccc2F)c1)Nc1ccc(N2CCOCC2)cc1

>  <score_type>  (19) 
oracle

>  <origin>  (19) 
adg

>  <m_score__min__energy>  (19) 
-11.77

>  <m_primary>  (19) 
energy

$$$$
19:0
     RDKit          3D

 71 76  0  0  0  0  0  0  0  0999 V2000
   54.2810   24.7800   45.6320 C   0  0  0  0  0  0  0  0  0  0  0  0
   55.1390   25.8750   45.9210 O   0  0  0  0  0  0  0  0  0  0  0  0
   56.4500   25.6550   46.2800 N   0  0  0  0  0  0  0  0  0  0  0  0
   57.3780   25.3720   45.4150 C   0  0  0  0  0  0  0  0  0  0  0  0
   58.4180   26.3810   45.1540 C   0  0  0  0  0  0  0  0  0  0  0  0
   59.6330   26.0970   45.3200 O   0  0  0  0  0  0  0  0  0  0  0  0
   58.0350   27.6990   44.7530 N   0  0  0  0  0  0  0  0  0  0  0  0
   57.1670   28.5760   45.5310 C   0  0  1  0  0  0  0  0  0  0  0  0
   57.7710   29.0060   46.8290 C   0  0  0  0  0  0  0  0  0  0  0  0
   58.1490   28.4240   47.8770 O   0  0  0  0  0  0  0  0  0  0  0  0
   57.7750   30.4060   46.3520 N   0  0  0  0  0  0  0  0  0  0  0  0
   58.4100   31.6270   46.7210 C   0  0  0  0  0  0  0  0  0  0  0  0
   58.6820   31.8490   48.1580 C   0  0  0  0  0  0  0  0  0  0  0  0
   58.1220   32.8220   48.7350 O   0  0  0  0  0  0  0  0  0  0  0  0
   59.4840   30.9330   48.9230 N   0  0  0  0  0  0  0  0  0  0  0  0
   60.1780   31.3120   50.1240 C   0  0  0  0  0  0  0  0  0  0  0  0
   61.3440   30.6410   50.5290 C   0  0  0  0  0  0  0  0  0  0  0  0
   62.0040   31.0170   51.6990 C   0  0  0  0  0  0  0  0  0  0  0  0
   61.5060   32.0590   52.4830 C   0  0  0  0  0  0  0  0  0  0  0  0
   60.3270   32.7290   52.1090 C   0  0  0  0  0  0  0  0  0  0  0  0
   59.7970   33.8330   52.9420 C   0  0  0  0  0  0  0  0  0  0  0  0
   58.5680   34.4720   52.5990 N   0  0  0  0  0  0  0  0  0  0  0  0
   60.4320   34.2250   53.9610 O   0  0  0  0  0  0  0  0  0  0  0  0
   59.6650   32.3400   50.9280 C   0  0  0  0  0  0  0  0  0  0  0  0
   58.7200   32.5080   45.7360 C   0  0  0  0  0  0  0  0  0  0  0  0
   59.2550   33.9020   46.0180 C   0  0  0  0  0  0  0  0  0  0  0  0
   60.3940   33.8390   46.9430 N   0  0  0  0  0  0  0  0  0  0  0  0
   61.4590   33.0380   46.6370 C   0  0  0  0  0  0  0  0  0  0  0  0
   62.5480   32.9390   47.5060 C   0  0  0  0  0  0  0  0  0  0  0  0
   62.5530   33.6680   48.7060 C   0  0  0  0  0  0  0  0  0  0  0  0
   63.7110   33.5950   49.6300 C   0  0  0  0  0  0  0  0  0  0  0  0
   63.7480   34.0760   50.9310 C   0  0  0  0  0  0  0  0  0  0  0  0
   65.0180   33.8280   51.4050 C   0  0  0  0  0  0  0  0  0  0  0  0
   65.7070   33.2140   50.3800 C   0  0  0  0  0  0  0  0  0  0  0  0
   64.9120   33.0730   49.3040 N   0  0  0  0  0  0  0  0  0  0  0  0
   61.4480   34.4780   49.0030 C   0  0  0  0  0  0  0  0  0  0  0  0
   60.3780   34.5530   48.1080 C   0  0  0  0  0  0  0  0  0  0  0  0
   58.3790   32.2040   44.2760 C   0  0  0  0  0  0  0  0  0  0  0  0
   58.4010   30.4270   43.8060 S   0  0  0  0  0  0  0  0  0  0  0  0
   57.2130   29.9600   45.1080 C   0  0  1  0  0  0  0  0  0  0  0  0
   57.4310   24.0530   44.7480 C   0  0  0  0  0  0  0  0  0  0  0  0
   58.4220   23.1020   45.0080 C   0  0  0  0  0  0  0  0  0  0  0  0
   58.1210   21.7500   44.0510 S   0  0  0  0  0  0  0  0  0  0  0  0
   56.7440   22.4300   43.3680 C   0  0  0  0  0  0  0  0  0  0  0  0
   55.9890   21.8310   42.5080 N   0  0  0  0  0  0  0  0  0  0  0  0
   56.4920   23.6690   43.8350 N   0  0  0  0  0  0  0  0  0  0  0  0
   53.9295   24.3314   46.5728 H   0  0  0  0  0  0  0  0  0  0  0  0
   53.4177   25.1344   45.0497 H   0  0  0  0  0  0  0  0  0  0  0  0
   54.8316   24.0265   45.0497 H   0  0  0  0  0  0  0  0  0  0  0  0
   56.2340   27.9947   45.4922 H   0  0  0  0  0  0  0  0  0  0  0  0
   59.5360   29.9370   48.6050 H   0  0  0  0  0  0  0  0  0  0  0  0
   61.7387   29.8144   49.9200 H   0  0  0  0  0  0  0  0  0  0  0  0
   62.9201   30.4905   52.0049 H   0  0  0  0  0  0  0  0  0  0  0  0
   62.0383   32.3578   53.3981 H   0  0  0  0  0  0  0  0  0  0  0  0
   58.5570   35.3340   52.0110 H   0  0  0  0  0  0  0  0  0  0  0  0
   58.7352   32.8484   50.6331 H   0  0  0  0  0  0  0  0  0  0  0  0
   59.5808   34.3625   45.0736 H   0  0  0  0  0  0  0  0  0  0  0  0
   58.4565   34.5030   46.4776 H   0  0  0  0  0  0  0  0  0  0  0  0
   61.4582   32.4660   45.6974 H   0  0  0  0  0  0  0  0  0  0  0  0
   63.3998   32.2914   47.2509 H   0  0  0  0  0  0  0  0  0  0  0  0
   62.9250   34.5603   51.4770 H   0  0  0  0  0  0  0  0  0  0  0  0
   65.4062   34.0719   52.4049 H   0  0  0  0  0  0  0  0  0  0  0  0
   66.7558   32.8867   50.4345 H   0  0  0  0  0  0  0  0  0  0  0  0
   65.2020   32.6660   48.3890 H   0  0  0  0  0  0  0  0  0  0  0  0
   61.4235   35.0539   49.9398 H   0  0  0  0  0  0  0  0  0  0  0  0
   59.5146   35.1927   48.3432 H   0  0  0  0  0  0  0  0  0  0  0  0
   57.3700   32.5940   44.0763 H   0  0  0  0  0  0  0  0  0  0  0  0
   59.1685   32.6823   43.6777 H   0  0  0  0  0  0  0  0  0  0  0  0
   56.2632   30.3256   44.6906 H   0  0  0  0  0  0  0  0  0  0  0  0
   59.2556   23.2173   45.7164 H   0  0  0  0  0  0  0  0  0  0  0  0
   56.0180   22.0860   41.4930 H   0  0  0  0  0  0  0  0  0  0  0  0
  1  2  1  0
  2  3  1  0
  3  4  2  3
  4  5  1  0
  5  6  2  0
  5  7  1  0
  7  8  1  0
  8  9  1  0
  9 10  2  0
  9 11  1  0
 11 12  1  0
 12 13  1  0
 13 14  2  0
 13 15  1  0
 15 16  1  0
 16 17  2  0
 17 18  1  0
 18 19  2  0
 19 20  1  0
 20 21  1  0
 21 22  1  0
 21 23  2  0
 20 24  2  0
 12 25  2  0
 25 26  1  0
 26 27  1  0
 27 28  2  0
 28 29  1  0
 29 30  2  0
 30 31  1  0
 31 32  2  0
 32 33  1  0
 33 34  2  0
 34 35  1  0
 30 36  1  0
 36 37  2  0
 25 38  1  0
 38 39  1  0
 39 40  1  0
  4 41  1  0
 41 42  2  0
 42 43  1  0
 43 44  1  0
 44 45  2  3
 44 46  1  0
 40  8  1  0
 46 41  1  0
 40 11  1  0
 24 16  1  0
 37 27  1  0
 35 31  1  0
  1 47  1  0
  1 48  1  0
  1 49  1  0
  8 50  1  1
 15 51  1  0
 17 52  1  0
 18 53  1  0
 19 54  1  0
 22 55  1  0
 24 56  1  0
 26 57  1  0
 26 58  1  0
 28 59  1  0
 29 60  1  0
 32 61  1  0
 33 62  1  0
 34 63  1  0
 35 64  1  0
 36 65  1  0
 37 66  1  0
 38 67  1  0
 38 68  1  0
 40 69  1  6
 42 70  1  0
 45 71  1  0
M  CHG  4   7  -1  22  -1  27   1  46  -1
M  END
>  <UniqueID>  (20) 
17

>  <SMILES>  (20) 
CON=C(C(=O)[N-][C@H]1C(=O)N2C(C(=O)Nc3cccc(C([NH-])=O)c3)=C(C[n+]3ccc(-c4ccc[nH]4)cc3)CS[C@@H]12)c1csc(=N)[n-]1

>  <Energy>  (20) 
185.4796632520892

>  <Genealogy>  (20) 
CON=C(C(=O)[N-]C1C(=O)N2C(C(=O)Nc3cccc(C([NH-])=O)c3)=C(C[n+]3ccc(-c4ccc[nH]4)cc3)CSC12)c1csc(=N)[n-]1 (protonated)
CON=C(C(=O)[N-][C@H]1C(=O)N2C(C(=O)Nc3cccc(C([NH-])=O)c3)=C(C[n+]3ccc(-c4ccc[nH]4)cc3)CS[C@@H]12)c1csc(=N)[n-]1 (chirality)
CON=C(C(=O)[N-][C@H]1C(=O)N2C(C(=O)Nc3cccc(C([NH-])=O)c3)=C(C[n+]3ccc(-c4ccc[nH]4)cc3)CS[C@@H]12)c1csc(=N)[n-]1 (3D coordinates assigned)
CON=C(C(=O)[N-][C@H]1C(=O)N2C(C(=O)Nc3cccc(C([NH-])=O)c3)=C(C[n+]3ccc(-c4ccc[nH]4)cc3)CS[C@@H]12)c1csc(=N)[n-]1 (nonaromatic ring conformer: 185.4796632520892 kcal/mol)

>  <smiles>  (20) 
CON=C(C(=O)NC1C(=O)N2C(C(=O)Nc3cccc(C(N)=O)c3)=C(C[n+]3ccc(-c4ccc[nH]4)cc3)CSC12)c1csc(=N)[nH]1

>  <score_type>  (20) 
oracle

>  <origin>  (20) 
adg

>  <m_score__min__energy>  (20) 
-14.550000000000001

>  <m_primary>  (20) 
energy

$$$$
20:0
     RDKit          3D

 55 58  0  0  0  0  0  0  0  0999 V2000
   55.2770   30.8770   51.6110 C   0  0  0  0  0  0  0  0  0  0  0  0
   54.8440   30.1820   52.6750 C   0  0  0  0  0  0  0  0  0  0  0  0
   53.6210   30.3480   53.3460 C   0  0  0  0  0  0  0  0  0  0  0  0
   52.5130   31.0370   53.0110 C   0  0  0  0  0  0  0  0  0  0  0  0
   51.9900   31.2080   51.6450 C   0  0  0  0  0  0  0  0  0  0  0  0
   52.1510   30.3220   50.6460 N   0  0  0  0  0  0  0  0  0  0  0  0
   51.3920   30.8320   49.6520 C   0  0  0  0  0  0  0  0  0  0  0  0
   51.2950   30.2840   48.5230 O   0  0  0  0  0  0  0  0  0  0  0  0
   50.7380   31.9710   49.9660 N   0  0  0  0  0  0  0  0  0  0  0  0
   51.1170   32.1850   51.2350 C   0  0  0  0  0  0  0  0  0  0  0  0
   50.6690   33.2510   52.0070 O   0  0  0  0  0  0  0  0  0  0  0  0
   53.7180   29.6120   54.5140 C   0  0  0  0  0  0  0  0  0  0  0  0
   54.9420   28.9790   54.4880 C   0  0  0  0  0  0  0  0  0  0  0  0
   55.4370   28.0440   55.5520 C   0  0  0  0  0  0  0  0  0  0  0  0
   55.6210   29.3020   53.3630 N   0  0  0  0  0  0  0  0  0  0  0  0
   56.9890   28.8720   53.0390 C   0  0  0  0  0  0  0  0  0  0  0  0
   57.9510   29.2510   54.1680 C   0  0  0  0  0  0  0  0  0  0  0  0
   58.9990   30.2130   53.6700 C   0  0  0  0  0  0  0  0  0  0  0  0
   58.6070   31.4460   53.1220 C   0  0  0  0  0  0  0  0  0  0  0  0
   59.5680   32.3700   52.6820 C   0  0  0  0  0  0  0  0  0  0  0  0
   59.1300   33.6760   52.0730 C   0  0  0  0  0  0  0  0  0  0  0  0
   59.2130   33.6130   50.6000 N   0  0  0  0  0  0  0  0  0  0  0  0
   60.6090   33.7950   50.1540 C   0  0  0  0  0  0  0  0  0  0  0  0
   60.7570   33.4860   48.6510 C   0  0  0  0  0  0  0  0  0  0  0  0
   59.4920   33.4060   48.0240 O   0  0  0  0  0  0  0  0  0  0  0  0
   58.7710   32.3040   48.5450 C   0  0  0  0  0  0  0  0  0  0  0  0
   58.6850   32.3340   50.0860 C   0  0  0  0  0  0  0  0  0  0  0  0
   60.9300   32.0550   52.7940 C   0  0  0  0  0  0  0  0  0  0  0  0
   61.3270   30.8380   53.3520 C   0  0  0  0  0  0  0  0  0  0  0  0
   60.3710   29.9190   53.7960 C   0  0  0  0  0  0  0  0  0  0  0  0
   60.7900   28.7210   54.3620 O   0  0  0  0  0  0  0  0  0  0  0  0
   56.2599   30.6532   51.1708 H   0  0  0  0  0  0  0  0  0  0  0  0
   54.6488   31.6702   51.1795 H   0  0  0  0  0  0  0  0  0  0  0  0
   51.9506   31.5127   53.8279 H   0  0  0  0  0  0  0  0  0  0  0  0
   52.9626   29.5450   55.3108 H   0  0  0  0  0  0  0  0  0  0  0  0
   55.2139   28.4655   56.5432 H   0  0  0  0  0  0  0  0  0  0  0  0
   54.9362   27.0703   55.4464 H   0  0  0  0  0  0  0  0  0  0  0  0
   56.5238   27.9108   55.4464 H   0  0  0  0  0  0  0  0  0  0  0  0
   57.0028   27.7806   52.9026 H   0  0  0  0  0  0  0  0  0  0  0  0
   57.3102   29.3735   52.1142 H   0  0  0  0  0  0  0  0  0  0  0  0
   57.3837   29.7242   54.9830 H   0  0  0  0  0  0  0  0  0  0  0  0
   58.4491   28.3399   54.5309 H   0  0  0  0  0  0  0  0  0  0  0  0
   57.5377   31.6895   53.0370 H   0  0  0  0  0  0  0  0  0  0  0  0
   58.0908   33.8828   52.3686 H   0  0  0  0  0  0  0  0  0  0  0  0
   59.7930   34.4766   52.4329 H   0  0  0  0  0  0  0  0  0  0  0  0
   60.9119   34.8363   50.3381 H   0  0  0  0  0  0  0  0  0  0  0  0
   61.2489   33.1003   50.7178 H   0  0  0  0  0  0  0  0  0  0  0  0
   61.3445   34.2852   48.1754 H   0  0  0  0  0  0  0  0  0  0  0  0
   61.2653   32.5168   48.5405 H   0  0  0  0  0  0  0  0  0  0  0  0
   57.7510   32.3226   48.1336 H   0  0  0  0  0  0  0  0  0  0  0  0
   59.3048   31.3866   48.2562 H   0  0  0  0  0  0  0  0  0  0  0  0
   57.6346   32.2243   50.3937 H   0  0  0  0  0  0  0  0  0  0  0  0
   59.2840   31.5073   50.4956 H   0  0  0  0  0  0  0  0  0  0  0  0
   61.6884   32.7693   52.4410 H   0  0  0  0  0  0  0  0  0  0  0  0
   62.3973   30.6010   53.4428 H   0  0  0  0  0  0  0  0  0  0  0  0
  1  2  2  0
  2  3  1  0
  3  4  2  3
  4  5  1  0
  5  6  1  0
  6  7  1  0
  7  8  2  0
  7  9  1  0
  9 10  1  0
 10 11  1  0
  3 12  1  0
 12 13  2  0
 13 14  1  0
 13 15  1  0
 15 16  1  0
 16 17  1  0
 17 18  1  0
 18 19  2  0
 19 20  1  0
 20 21  1  0
 21 22  1  0
 22 23  1  0
 23 24  1  0
 24 25  1  0
 25 26  1  0
 26 27  1  0
 20 28  2  0
 28 29  1  0
 29 30  2  0
 30 31  1  0
 15  2  1  0
 30 18  1  0
 10  5  2  0
 27 22  1  0
  1 32  1  0
  1 33  1  0
  4 34  1  0
 12 35  1  0
 14 36  1  0
 14 37  1  0
 14 38  1  0
 16 39  1  0
 16 40  1  0
 17 41  1  0
 17 42  1  0
 19 43  1  0
 21 44  1  0
 21 45  1  0
 23 46  1  0
 23 47  1  0
 24 48  1  0
 24 49  1  0
 26 50  1  0
 26 51  1  0
 27 52  1  0
 27 53  1  0
 28 54  1  0
 29 55  1  0
M  CHG  4   6  -1   9  -1  11  -1  31  -1
M  END
>  <UniqueID>  (21) 
18

>  <SMILES>  (21) 
C=c1c(=Cc2[n-]c(=O)[n-]c2[O-])cc(C)n1CCc1cc(CN2CCOCC2)ccc1[O-]

>  <Energy>  (21) 
132.16060518404953

>  <Genealogy>  (21) 
C=c1c(=Cc2[n-]c(=O)[n-]c2[O-])cc(C)n1CCc1cc(CN2CCOCC2)ccc1[O-] (protonated)
C=c1c(=Cc2[n-]c(=O)[n-]c2[O-])cc(C)n1CCc1cc(CN2CCOCC2)ccc1[O-] (3D coordinates assigned)
C=c1c(=Cc2[n-]c(=O)[n-]c2[O-])cc(C)n1CCc1cc(CN2CCOCC2)ccc1[O-] (nonaromatic ring conformer: 132.16060518404953 kcal/mol)

>  <smiles>  (21) 
C=c1c(=Cc2[nH]c(=O)[nH]c2O)cc(C)n1CCc1cc(CN2CCOCC2)ccc1O

>  <score_type>  (21) 
oracle

>  <origin>  (21) 
adg

>  <m_score__min__energy>  (21) 
-17.960000000000001

>  <m_primary>  (21) 
energy

$$$$
21:0
     RDKit          3D

 50 53  0  0  0  0  0  0  0  0999 V2000
   58.5480   28.3100   46.0330 O   0  0  0  0  0  0  0  0  0  0  0  0
   57.7300   27.8870   45.1680 C   0  0  0  0  0  0  0  0  0  0  0  0
   57.7920   26.4460   44.7450 C   0  0  0  0  0  0  0  0  0  0  0  0
   57.1310   25.5720   45.7690 C   0  0  0  0  0  0  0  0  0  0  0  0
   57.6760   24.4380   46.2500 N   0  0  0  0  0  0  0  0  0  0  0  0
   56.7040   23.9310   47.0360 C   0  0  0  0  0  0  0  0  0  0  0  0
   56.8440   22.8590   47.6830 O   0  0  0  0  0  0  0  0  0  0  0  0
   55.5690   24.6610   47.0740 N   0  0  0  0  0  0  0  0  0  0  0  0
   55.8510   25.6930   46.2620 C   0  0  0  0  0  0  0  0  0  0  0  0
   54.9480   26.7120   45.9700 O   0  0  0  0  0  0  0  0  0  0  0  0
   56.8220   28.8180   44.5650 N   0  0  0  0  0  0  0  0  0  0  0  0
   57.0790   30.2000   44.2910 C   0  0  0  0  0  0  0  0  0  0  0  0
   57.0680   30.6450   42.9630 C   0  0  0  0  0  0  0  0  0  0  0  0
   57.3410   31.9800   42.6610 C   0  0  0  0  0  0  0  0  0  0  0  0
   57.6520   32.8750   43.6830 C   0  0  0  0  0  0  0  0  0  0  0  0
   57.7280   32.4370   45.0180 C   0  0  0  0  0  0  0  0  0  0  0  0
   58.0630   33.3860   46.1090 C   0  0  0  0  0  0  0  0  0  0  0  0
   57.6160   34.5720   46.0650 O   0  0  0  0  0  0  0  0  0  0  0  0
   58.8950   32.9930   47.2170 N   0  0  0  0  0  0  0  0  0  0  0  0
   58.5110   31.8380   48.0490 C   0  0  0  0  0  0  0  0  0  0  0  0
   59.2700   31.8430   49.3860 C   0  0  0  0  0  0  0  0  0  0  0  0
   59.2380   33.2000   49.9680 N   0  0  0  0  0  0  0  0  0  0  0  0
   59.0170   33.4590   51.3750 C   0  0  0  0  0  0  0  0  0  0  0  0
   59.5350   34.4880   51.8910 O   0  0  0  0  0  0  0  0  0  0  0  0
   58.1620   32.6160   52.2440 C   0  0  0  0  0  0  0  0  0  0  0  0
   58.3900   32.3900   53.5930 C   0  0  0  0  0  0  0  0  0  0  0  0
   57.3890   31.5430   54.0090 C   0  0  0  0  0  0  0  0  0  0  0  0
   56.6070   31.3050   52.9000 C   0  0  0  0  0  0  0  0  0  0  0  0
   57.0860   31.9660   51.8710 O   0  0  0  0  0  0  0  0  0  0  0  0
   59.6620   34.3360   49.1240 C   0  0  0  0  0  0  0  0  0  0  0  0
   59.9490   33.9030   47.6810 C   0  0  0  0  0  0  0  0  0  0  0  0
   57.4290   31.0940   45.3140 C   0  0  0  0  0  0  0  0  0  0  0  0
   57.2758   26.3287   43.7807 H   0  0  0  0  0  0  0  0  0  0  0  0
   58.8463   26.1475   44.6479 H   0  0  0  0  0  0  0  0  0  0  0  0
   55.1920   27.4720   45.3460 H   0  0  0  0  0  0  0  0  0  0  0  0
   56.8425   29.9370   42.1519 H   0  0  0  0  0  0  0  0  0  0  0  0
   57.3107   32.3255   41.6171 H   0  0  0  0  0  0  0  0  0  0  0  0
   57.8395   33.9322   43.4441 H   0  0  0  0  0  0  0  0  0  0  0  0
   57.4303   31.8827   48.2491 H   0  0  0  0  0  0  0  0  0  0  0  0
   58.7655   30.9159   47.5059 H   0  0  0  0  0  0  0  0  0  0  0  0
   58.7934   31.1354   50.0803 H   0  0  0  0  0  0  0  0  0  0  0  0
   60.3144   31.5432   49.2146 H   0  0  0  0  0  0  0  0  0  0  0  0
   59.2048   32.8035   54.2054 H   0  0  0  0  0  0  0  0  0  0  0  0
   57.2427   31.1381   55.0213 H   0  0  0  0  0  0  0  0  0  0  0  0
   55.7166   30.6594   52.8794 H   0  0  0  0  0  0  0  0  0  0  0  0
   58.8618   35.0907   49.1160 H   0  0  0  0  0  0  0  0  0  0  0  0
   60.5909   34.7460   49.5472 H   0  0  0  0  0  0  0  0  0  0  0  0
   59.9771   34.7906   47.0319 H   0  0  0  0  0  0  0  0  0  0  0  0
   60.9189   33.3855   47.6427 H   0  0  0  0  0  0  0  0  0  0  0  0
   57.4700   30.7425   46.3555 H   0  0  0  0  0  0  0  0  0  0  0  0
  1  2  2  0
  2  3  1  0
  3  4  1  0
  4  5  1  0
  5  6  1  0
  6  7  2  0
  6  8  1  0
  8  9  1  0
  9 10  1  0
  2 11  1  0
 11 12  1  0
 12 13  2  0
 13 14  1  0
 14 15  2  0
 15 16  1  0
 16 17  1  0
 17 18  2  0
 17 19  1  0
 19 20  1  0
 20 21  1  0
 21 22  1  0
 22 23  1  0
 23 24  2  0
 23 25  1  0
 25 26  2  0
 26 27  1  0
 27 28  2  0
 28 29  1  0
 22 30  1  0
 30 31  1  0
 16 32  2  0
  9  4  2  0
 32 12  1  0
 31 19  1  0
 29 25  1  0
  3 33  1  0
  3 34  1  0
 10 35  1  0
 13 36  1  0
 14 37  1  0
 15 38  1  0
 20 39  1  0
 20 40  1  0
 21 41  1  0
 21 42  1  0
 26 43  1  0
 27 44  1  0
 28 45  1  0
 30 46  1  0
 30 47  1  0
 31 48  1  0
 31 49  1  0
 32 50  1  0
M  CHG  3   5  -1   8  -1  11  -1
M  END
>  <UniqueID>  (22) 
19

>  <SMILES>  (22) 
O=C(Cc1[n-]c(=O)[n-]c1O)[N-]c1cccc(C(=O)N2CCN(C(=O)c3ccco3)CC2)c1

>  <Energy>  (22) 
122.28546210234934

>  <Genealogy>  (22) 
O=C(Cc1[n-]c(=O)[n-]c1O)[N-]c1cccc(C(=O)N2CCN(C(=O)c3ccco3)CC2)c1 (protonated)
O=C(Cc1[n-]c(=O)[n-]c1O)[N-]c1cccc(C(=O)N2CCN(C(=O)c3ccco3)CC2)c1 (3D coordinates assigned)
O=C(Cc1[n-]c(=O)[n-]c1O)[N-]c1cccc(C(=O)N2CCN(C(=O)c3ccco3)CC2)c1 (nonaromatic ring conformer: 122.28546210234934 kcal/mol)

>  <smiles>  (22) 
O=C(Cc1[nH]c(=O)[nH]c1O)Nc1cccc(C(=O)N2CCN(C(=O)c3ccco3)CC2)c1

>  <score_type>  (22) 
oracle

>  <origin>  (22) 
adg

>  <m_score__min__energy>  (22) 
-15.01

>  <m_primary>  (22) 
energy

$$$$
22:0
     RDKit          3D

 40 42  0  0  0  0  0  0  0  0999 V2000
   60.0290   29.4180   44.6290 O   0  0  0  0  0  0  0  0  0  0  0  0
   59.3590   29.4250   45.6990 C   0  0  0  0  0  0  0  0  0  0  0  0
   59.7940   30.2850   46.8480 C   0  0  0  0  0  0  0  0  0  0  0  0
   59.4930   31.7320   46.5560 C   0  0  0  0  0  0  0  0  0  0  0  0
   60.5170   32.6950   46.6120 C   0  0  0  0  0  0  0  0  0  0  0  0
   60.2240   34.0450   46.3980 C   0  0  0  0  0  0  0  0  0  0  0  0
   58.9100   34.4460   46.1360 C   0  0  0  0  0  0  0  0  0  0  0  0
   57.8840   33.4960   46.0960 C   0  0  0  0  0  0  0  0  0  0  0  0
   58.1720   32.1440   46.3110 C   0  0  0  0  0  0  0  0  0  0  0  0
   58.1630   28.6330   45.7990 N   0  0  0  0  0  0  0  0  0  0  0  0
   57.0020   29.0650   45.2160 C   0  0  0  0  0  0  0  0  0  0  0  0
   56.9460   30.1910   44.6480 O   0  0  0  0  0  0  0  0  0  0  0  0
   55.8930   28.2860   45.2510 N   0  0  0  0  0  0  0  0  0  0  0  0
   55.8960   27.0700   45.8490 C   0  0  0  0  0  0  0  0  0  0  0  0
   54.7310   26.3100   45.8460 O   0  0  0  0  0  0  0  0  0  0  0  0
   57.0660   26.5960   46.4640 C   0  0  0  0  0  0  0  0  0  0  0  0
   57.1180   25.2120   47.0750 C   0  0  0  0  0  0  0  0  0  0  0  0
   56.8810   24.1660   46.0160 C   0  0  0  0  0  0  0  0  0  0  0  0
   57.3340   24.3690   44.7030 C   0  0  0  0  0  0  0  0  0  0  0  0
   57.1460   23.3830   43.7300 C   0  0  0  0  0  0  0  0  0  0  0  0
   56.5060   22.1820   44.0600 C   0  0  0  0  0  0  0  0  0  0  0  0
   56.3220   21.1880   43.1000 O   0  0  0  0  0  0  0  0  0  0  0  0
   56.0530   21.9730   45.3660 C   0  0  0  0  0  0  0  0  0  0  0  0
   56.2420   22.9560   46.3410 C   0  0  0  0  0  0  0  0  0  0  0  0
   58.2050   27.4200   46.4330 C   0  0  0  0  0  0  0  0  0  0  0  0
   59.2760   27.0320   46.9810 O   0  0  0  0  0  0  0  0  0  0  0  0
   59.2554   29.9777   47.7565 H   0  0  0  0  0  0  0  0  0  0  0  0
   60.8774   30.1659   46.9963 H   0  0  0  0  0  0  0  0  0  0  0  0
   61.5507   32.3849   46.8247 H   0  0  0  0  0  0  0  0  0  0  0  0
   61.0289   34.7938   46.4358 H   0  0  0  0  0  0  0  0  0  0  0  0
   58.6834   35.5082   45.9614 H   0  0  0  0  0  0  0  0  0  0  0  0
   56.8498   33.8123   45.8953 H   0  0  0  0  0  0  0  0  0  0  0  0
   57.3615   31.4007   46.2882 H   0  0  0  0  0  0  0  0  0  0  0  0
   58.1073   25.0521   47.5287 H   0  0  0  0  0  0  0  0  0  0  0  0
   56.3347   25.1291   47.8429 H   0  0  0  0  0  0  0  0  0  0  0  0
   57.8398   25.3092   44.4382 H   0  0  0  0  0  0  0  0  0  0  0  0
   57.5017   23.5510   42.7027 H   0  0  0  0  0  0  0  0  0  0  0  0
   56.9070   20.3600   43.0760 H   0  0  0  0  0  0  0  0  0  0  0  0
   55.5464   21.0321   45.6268 H   0  0  0  0  0  0  0  0  0  0  0  0
   55.8891   22.7825   47.3683 H   0  0  0  0  0  0  0  0  0  0  0  0
  1  2  2  0
  2  3  1  0
  3  4  1  0
  4  5  2  0
  5  6  1  0
  6  7  2  0
  7  8  1  0
  8  9  2  0
  2 10  1  0
 10 11  1  0
 11 12  2  0
 11 13  1  0
 13 14  1  0
 14 15  1  0
 14 16  2  0
 16 17  1  0
 17 18  1  0
 18 19  2  0
 19 20  1  0
 20 21  2  0
 21 22  1  0
 21 23  1  0
 23 24  2  0
 16 25  1  0
 25 26  2  0
  9  4  1  0
 25 10  1  0
 24 18  1  0
  3 27  1  0
  3 28  1  0
  5 29  1  0
  6 30  1  0
  7 31  1  0
  8 32  1  0
  9 33  1  0
 17 34  1  0
 17 35  1  0
 19 36  1  0
 20 37  1  0
 22 38  1  0
 23 39  1  0
 24 40  1  0
M  CHG  2  13  -1  15  -1
M  END
>  <UniqueID>  (23) 
20

>  <SMILES>  (23) 
O=C(Cc1ccccc1)n1c(=O)[n-]c([O-])c(Cc2ccc(O)cc2)c1=O

>  <Energy>  (23) 
48.30205091862659

>  <Genealogy>  (23) 
O=C(Cc1ccccc1)n1c(=O)[n-]c([O-])c(Cc2ccc(O)cc2)c1=O (protonated)
O=C(Cc1ccccc1)n1c(=O)[n-]c([O-])c(Cc2ccc(O)cc2)c1=O (3D coordinates assigned)
O=C(Cc1ccccc1)n1c(=O)[n-]c([O-])c(Cc2ccc(O)cc2)c1=O (optimized conformer: 48.30205091862659 kcal/mol)

>  <smiles>  (23) 
O=C(Cc1ccccc1)n1c(=O)[nH]c(O)c(Cc2ccc(O)cc2)c1=O

>  <score_type>  (23) 
oracle

>  <origin>  (23) 
adg

>  <m_score__min__energy>  (23) 
-13.529999999999999

>  <m_primary>  (23) 
energy

$$$$
23:0
     RDKit          3D

 48 50  0  0  0  0  0  0  0  0999 V2000
   54.3740   26.2590   53.8100 C   0  0  0  0  0  0  0  0  0  0  0  0
   53.7350   27.5730   53.9210 N   0  0  0  0  0  0  0  0  0  0  0  0
   52.5360   27.8130   53.1670 C   0  0  0  0  0  0  0  0  0  0  0  0
   51.8110   26.8310   52.8500 O   0  0  0  0  0  0  0  0  0  0  0  0
   52.1510   29.1850   52.7430 C   0  0  0  0  0  0  0  0  0  0  0  0
   52.0160   30.2050   53.6980 C   0  0  0  0  0  0  0  0  0  0  0  0
   51.6350   31.4900   53.3120 C   0  0  0  0  0  0  0  0  0  0  0  0
   51.3800   31.7820   51.9700 C   0  0  0  0  0  0  0  0  0  0  0  0
   51.0190   33.0790   51.6270 O   0  0  0  0  0  0  0  0  0  0  0  0
   51.5000   30.7730   50.9900 C   0  0  0  0  0  0  0  0  0  0  0  0
   51.2240   31.0420   49.5990 N   0  0  0  0  0  0  0  0  0  0  0  0
   51.3740   30.1490   48.7410 O   0  0  0  0  0  0  0  0  0  0  0  0
   50.7400   32.2650   49.1960 O   0  0  0  0  0  0  0  0  0  0  0  0
   51.8820   29.4790   51.3930 C   0  0  0  0  0  0  0  0  0  0  0  0
   54.5010   28.6850   54.4310 C   0  0  0  0  0  0  0  0  0  0  0  0
   54.2250   29.4360   55.9140 S   0  0  0  0  0  0  0  0  0  0  0  0
   55.4350   30.5930   55.7730 C   0  0  0  0  0  0  0  0  0  0  0  0
   56.0690   30.4150   54.5510 C   0  0  0  0  0  0  0  0  0  0  0  0
   55.5540   29.3540   53.7870 C   0  0  0  0  0  0  0  0  0  0  0  0
   56.0580   29.0560   52.4010 C   0  0  0  0  0  0  0  0  0  0  0  0
   56.9200   30.0970   51.9470 O   0  0  0  0  0  0  0  0  0  0  0  0
   58.2640   29.8910   51.6190 C   0  0  0  0  0  0  0  0  0  0  0  0
   58.9170   28.9480   52.1450 O   0  0  0  0  0  0  0  0  0  0  0  0
   58.9190   30.7620   50.5960 C   0  0  0  0  0  0  0  0  0  0  0  0
   58.5320   30.3640   49.2820 O   0  0  0  0  0  0  0  0  0  0  0  0
   59.0430   29.2600   48.5790 C   0  0  0  0  0  0  0  0  0  0  0  0
   58.5990   29.0450   47.2680 C   0  0  0  0  0  0  0  0  0  0  0  0
   59.0750   27.9590   46.5250 C   0  0  0  0  0  0  0  0  0  0  0  0
   59.9920   27.0730   47.0920 C   0  0  0  0  0  0  0  0  0  0  0  0
   60.4410   27.2750   48.4000 C   0  0  0  0  0  0  0  0  0  0  0  0
   59.9720   28.3630   49.1420 C   0  0  0  0  0  0  0  0  0  0  0  0
   54.5682   25.8596   54.8163 H   0  0  0  0  0  0  0  0  0  0  0  0
   53.7090   25.5727   53.2652 H   0  0  0  0  0  0  0  0  0  0  0  0
   55.3244   26.3583   53.2652 H   0  0  0  0  0  0  0  0  0  0  0  0
   52.2122   29.9892   54.7586 H   0  0  0  0  0  0  0  0  0  0  0  0
   51.5345   32.2801   54.0707 H   0  0  0  0  0  0  0  0  0  0  0  0
   51.9719   28.6832   50.6389 H   0  0  0  0  0  0  0  0  0  0  0  0
   55.6825   31.3604   56.5212 H   0  0  0  0  0  0  0  0  0  0  0  0
   56.9012   31.0487   54.2107 H   0  0  0  0  0  0  0  0  0  0  0  0
   56.6134   28.1066   52.4144 H   0  0  0  0  0  0  0  0  0  0  0  0
   55.1984   28.9838   51.7185 H   0  0  0  0  0  0  0  0  0  0  0  0
   58.6164   31.8064   50.7621 H   0  0  0  0  0  0  0  0  0  0  0  0
   60.0106   30.6647   50.6911 H   0  0  0  0  0  0  0  0  0  0  0  0
   57.8701   29.7356   46.8188 H   0  0  0  0  0  0  0  0  0  0  0  0
   58.7262   27.8036   45.4934 H   0  0  0  0  0  0  0  0  0  0  0  0
   60.3613   26.2160   46.5097 H   0  0  0  0  0  0  0  0  0  0  0  0
   61.1645   26.5769   48.8463 H   0  0  0  0  0  0  0  0  0  0  0  0
   60.3300   28.5194   50.1703 H   0  0  0  0  0  0  0  0  0  0  0  0
  1  2  1  0
  2  3  1  0
  3  4  2  0
  3  5  1  0
  5  6  2  0
  6  7  1  0
  7  8  2  0
  8  9  1  0
  8 10  1  0
 10 11  1  0
 11 12  2  0
 11 13  1  0
 10 14  2  0
  2 15  1  0
 15 16  1  0
 16 17  1  0
 17 18  2  0
 18 19  1  0
 19 20  1  0
 20 21  1  0
 21 22  1  0
 22 23  2  0
 22 24  1  0
 24 25  1  0
 25 26  1  0
 26 27  2  0
 27 28  1  0
 28 29  2  0
 29 30  1  0
 30 31  2  0
 14  5  1  0
 19 15  2  0
 31 26  1  0
  1 32  1  0
  1 33  1  0
  1 34  1  0
  6 35  1  0
  7 36  1  0
 14 37  1  0
 17 38  1  0
 18 39  1  0
 20 40  1  0
 20 41  1  0
 24 42  1  0
 24 43  1  0
 27 44  1  0
 28 45  1  0
 29 46  1  0
 30 47  1  0
 31 48  1  0
M  CHG  3   9  -1  11   1  13  -1
M  END
>  <UniqueID>  (24) 
21

>  <SMILES>  (24) 
CN(C(=O)c1ccc([O-])c([N+](=O)[O-])c1)c1sccc1COC(=O)COc1ccccc1

>  <Energy>  (24) 
81.55408938801305

>  <Genealogy>  (24) 
CN(C(=O)c1ccc([O-])c([N+](=O)[O-])c1)c1sccc1COC(=O)COc1ccccc1 (protonated)
CN(C(=O)c1ccc([O-])c([N+](=O)[O-])c1)c1sccc1COC(=O)COc1ccccc1 (3D coordinates assigned)
CN(C(=O)c1ccc([O-])c([N+](=O)[O-])c1)c1sccc1COC(=O)COc1ccccc1 (optimized conformer: 81.55408938801305 kcal/mol)

>  <smiles>  (24) 
CN(C(=O)c1ccc(O)c([N+](=O)[O-])c1)c1sccc1COC(=O)COc1ccccc1

>  <score_type>  (24) 
oracle

>  <origin>  (24) 
adg

>  <m_score__min__energy>  (24) 
-12.109999999999999

>  <m_primary>  (24) 
energy

$$$$
24:0
     RDKit          3D

 55 59  0  0  0  0  0  0  0  0999 V2000
   54.0250   28.6960   54.2710 C   0  0  0  0  0  0  0  0  0  0  0  0
   54.5500   29.3690   53.2350 C   0  0  0  0  0  0  0  0  0  0  0  0
   53.8730   30.2470   52.3730 C   0  0  0  0  0  0  0  0  0  0  0  0
   52.5600   30.4980   52.2160 C   0  0  0  0  0  0  0  0  0  0  0  0
   51.9100   30.9130   50.9640 C   0  0  0  0  0  0  0  0  0  0  0  0
   51.7920   30.1170   49.8880 N   0  0  0  0  0  0  0  0  0  0  0  0
   51.0360   30.8480   49.0390 C   0  0  0  0  0  0  0  0  0  0  0  0
   50.7160   30.4390   47.8940 O   0  0  0  0  0  0  0  0  0  0  0  0
   50.6410   32.0460   49.5200 N   0  0  0  0  0  0  0  0  0  0  0  0
   51.1900   32.0670   50.7450 C   0  0  0  0  0  0  0  0  0  0  0  0
   51.0130   33.1030   51.6530 O   0  0  0  0  0  0  0  0  0  0  0  0
   54.8490   30.8860   51.6290 C   0  0  0  0  0  0  0  0  0  0  0  0
   56.0590   30.3560   52.0180 C   0  0  0  0  0  0  0  0  0  0  0  0
   57.3670   30.8140   51.5040 C   0  0  0  0  0  0  0  0  0  0  0  0
   58.3010   29.9690   51.4390 O   0  0  0  0  0  0  0  0  0  0  0  0
   57.6140   32.1820   51.0700 N   0  0  1  0  0  0  0  0  0  0  0  0
   58.0050   33.0450   52.2050 C   0  0  0  0  0  0  0  0  0  0  0  0
   59.3610   32.6390   52.8070 C   0  0  0  0  0  0  0  0  0  0  0  0
   60.3870   32.2990   51.7560 C   0  0  0  0  0  0  0  0  0  0  0  0
   61.7180   32.0820   52.1430 C   0  0  0  0  0  0  0  0  0  0  0  0
   62.6720   31.6810   51.2040 C   0  0  0  0  0  0  0  0  0  0  0  0
   62.3030   31.4870   49.8720 C   0  0  0  0  0  0  0  0  0  0  0  0
   60.9800   31.6910   49.4750 C   0  0  0  0  0  0  0  0  0  0  0  0
   60.0110   32.0820   50.4130 C   0  0  0  0  0  0  0  0  0  0  0  0
   58.5890   32.3190   49.9640 C   0  0  0  0  0  0  0  0  0  0  0  0
   55.8830   29.4090   52.9680 N   0  0  0  0  0  0  0  0  0  0  0  0
   56.9440   28.6030   53.5950 C   0  0  0  0  0  0  0  0  0  0  0  0
   57.8930   29.4740   54.3830 C   0  0  0  0  0  0  0  0  0  0  0  0
   57.3910   30.4920   55.2130 C   0  0  0  0  0  0  0  0  0  0  0  0
   58.2640   31.3040   55.9430 C   0  0  0  0  0  0  0  0  0  0  0  0
   59.6440   31.1140   55.8440 C   0  0  0  0  0  0  0  0  0  0  0  0
   60.1540   30.1150   55.0120 C   0  0  0  0  0  0  0  0  0  0  0  0
   59.2860   29.2990   54.2790 C   0  0  0  0  0  0  0  0  0  0  0  0
   59.8070   28.3460   53.4680 F   0  0  0  0  0  0  0  0  0  0  0  0
   54.6616   28.0337   54.8760 H   0  0  0  0  0  0  0  0  0  0  0  0
   52.9581   28.8068   54.5150 H   0  0  0  0  0  0  0  0  0  0  0  0
   51.9173   30.3827   53.1012 H   0  0  0  0  0  0  0  0  0  0  0  0
   54.6890   31.6677   50.8718 H   0  0  0  0  0  0  0  0  0  0  0  0
   56.6990   32.5460   50.7100 H   0  0  0  0  0  0  0  0  0  0  0  0
   58.0717   34.0848   51.8522 H   0  0  0  0  0  0  0  0  0  0  0  0
   57.2420   32.9351   52.9897 H   0  0  0  0  0  0  0  0  0  0  0  0
   59.7414   33.4749   53.4125 H   0  0  0  0  0  0  0  0  0  0  0  0
   59.1974   31.7370   53.4150 H   0  0  0  0  0  0  0  0  0  0  0  0
   62.0125   32.2285   53.1927 H   0  0  0  0  0  0  0  0  0  0  0  0
   63.7145   31.5181   51.5148 H   0  0  0  0  0  0  0  0  0  0  0  0
   63.0556   31.1729   49.1338 H   0  0  0  0  0  0  0  0  0  0  0  0
   60.6955   31.5447   48.4225 H   0  0  0  0  0  0  0  0  0  0  0  0
   58.5142   33.3362   49.5520 H   0  0  0  0  0  0  0  0  0  0  0  0
   58.3461   31.5573   49.2085 H   0  0  0  0  0  0  0  0  0  0  0  0
   56.4844   27.8680   54.2721 H   0  0  0  0  0  0  0  0  0  0  0  0
   57.5122   28.0949   52.8019 H   0  0  0  0  0  0  0  0  0  0  0  0
   56.3051   30.6504   55.2883 H   0  0  0  0  0  0  0  0  0  0  0  0
   57.8635   32.0934   56.5961 H   0  0  0  0  0  0  0  0  0  0  0  0
   60.3296   31.7515   56.4216 H   0  0  0  0  0  0  0  0  0  0  0  0
   61.2414   29.9694   54.9329 H   0  0  0  0  0  0  0  0  0  0  0  0
  1  2  2  0
  2  3  1  0
  3  4  2  3
  4  5  1  0
  5  6  1  0
  6  7  1  0
  7  8  2  0
  7  9  1  0
  9 10  1  0
 10 11  1  0
  3 12  1  0
 12 13  2  0
 13 14  1  0
 14 15  2  0
 14 16  1  0
 16 17  1  0
 17 18  1  0
 18 19  1  0
 19 20  2  0
 20 21  1  0
 21 22  2  0
 22 23  1  0
 23 24  2  0
 24 25  1  0
 13 26  1  0
 26 27  1  0
 27 28  1  0
 28 29  2  0
 29 30  1  0
 30 31  2  0
 31 32  1  0
 32 33  2  0
 33 34  1  0
 26  2  1  0
 33 28  1  0
 10  5  2  0
 25 16  1  0
 24 19  1  0
  1 35  1  0
  1 36  1  0
  4 37  1  0
 12 38  1  0
 16 39  1  6
 17 40  1  0
 17 41  1  0
 18 42  1  0
 18 43  1  0
 20 44  1  0
 21 45  1  0
 22 46  1  0
 23 47  1  0
 25 48  1  0
 25 49  1  0
 27 50  1  0
 27 51  1  0
 29 52  1  0
 30 53  1  0
 31 54  1  0
 32 55  1  0
M  CHG  4   6  -1   9  -1  11  -1  16   1
M  END
>  <UniqueID>  (25) 
22

>  <SMILES>  (25) 
C=c1c(=Cc2[n-]c(=O)[n-]c2[O-])cc(C(=O)[N@H+]2CCc3ccccc3C2)n1Cc1ccccc1F

>  <Energy>  (25) 
144.9664289799988

>  <Genealogy>  (25) 
C=c1c(=Cc2[n-]c(=O)[n-]c2[O-])cc(C(=O)[NH+]2CCc3ccccc3C2)n1Cc1ccccc1F (protonated)
C=c1c(=Cc2[n-]c(=O)[n-]c2[O-])cc(C(=O)[N@H+]2CCc3ccccc3C2)n1Cc1ccccc1F (chirality)
C=c1c(=Cc2[n-]c(=O)[n-]c2[O-])cc(C(=O)[N@H+]2CCc3ccccc3C2)n1Cc1ccccc1F (3D coordinates assigned)
C=c1c(=Cc2[n-]c(=O)[n-]c2[O-])cc(C(=O)[N@H+]2CCc3ccccc3C2)n1Cc1ccccc1F (nonaromatic ring conformer: 144.9664289799988 kcal/mol)

>  <smiles>  (25) 
C=c1c(=Cc2[nH]c(=O)[nH]c2O)cc(C(=O)N2CCc3ccccc3C2)n1Cc1ccccc1F

>  <score_type>  (25) 
oracle

>  <origin>  (25) 
adg

>  <m_score__min__energy>  (25) 
-15.98

>  <m_primary>  (25) 
energy

$$$$
25:0
     RDKit          3D

 44 46  0  0  0  0  0  0  0  0999 V2000
   55.1140   30.0720   45.6180 H   0  0  0  0  0  0  0  0  0  0  0  0
   55.2360   29.2780   45.0030 O   0  0  0  0  0  0  0  0  0  0  0  0
   56.2090   28.3090   45.2340 C   0  0  0  0  0  0  0  0  0  0  0  0
   55.9260   27.0800   45.6960 N   0  0  0  0  0  0  0  0  0  0  0  0
   57.1410   26.4980   45.7640 C   0  0  0  0  0  0  0  0  0  0  0  0
   57.3050   25.3140   46.1570 O   0  0  0  0  0  0  0  0  0  0  0  0
   58.1660   27.2840   45.3730 N   0  0  0  0  0  0  0  0  0  0  0  0
   57.5710   28.4450   45.0460 C   0  0  0  0  0  0  0  0  0  0  0  0
   58.2620   29.6260   44.4810 C   0  0  0  0  0  0  0  0  0  0  0  0
   58.8568   29.4786   43.5675 H   0  0  0  0  0  0  0  0  0  0  0  0
   58.2170   30.8710   45.0030 C   0  0  0  0  0  0  0  0  0  0  0  0
   57.5240   31.9630   44.4970 C   0  0  0  0  0  0  0  0  0  0  0  0
   56.8913   31.9788   43.5973 H   0  0  0  0  0  0  0  0  0  0  0  0
   57.7820   33.0240   45.3400 C   0  0  0  0  0  0  0  0  0  0  0  0
   57.2370   34.4080   45.1520 C   0  0  0  0  0  0  0  0  0  0  0  0
   57.0561   34.8675   46.1349 H   0  0  0  0  0  0  0  0  0  0  0  0
   57.9632   35.0151   44.5916 H   0  0  0  0  0  0  0  0  0  0  0  0
   56.2919   34.3569   44.5916 H   0  0  0  0  0  0  0  0  0  0  0  0
   58.6220   32.6510   46.3320 N   0  0  0  0  0  0  0  0  0  0  0  0
   59.0910   33.5110   47.4290 C   0  0  0  0  0  0  0  0  0  0  0  0
   58.2547   34.1276   47.7901 H   0  0  0  0  0  0  0  0  0  0  0  0
   59.4704   32.8774   48.2443 H   0  0  0  0  0  0  0  0  0  0  0  0
   60.2180   34.4240   46.9410 C   0  0  0  0  0  0  0  0  0  0  0  0
   60.2977   34.3468   45.8466 H   0  0  0  0  0  0  0  0  0  0  0  0
   59.9879   35.4592   47.2333 H   0  0  0  0  0  0  0  0  0  0  0  0
   61.5290   34.0240   47.5620 C   0  0  0  0  0  0  0  0  0  0  0  0
   62.5560   33.4930   46.7670 C   0  0  0  0  0  0  0  0  0  0  0  0
   62.4113   33.3941   45.6811 H   0  0  0  0  0  0  0  0  0  0  0  0
   63.7620   33.0890   47.3470 C   0  0  0  0  0  0  0  0  0  0  0  0
   64.5645   32.6807   46.7151 H   0  0  0  0  0  0  0  0  0  0  0  0
   63.9530   33.2030   48.7380 C   0  0  0  0  0  0  0  0  0  0  0  0
   65.1450   32.8120   49.3680 O   0  0  0  0  0  0  0  0  0  0  0  0
   65.2070   31.9980   50.5340 C   0  0  0  0  0  0  0  0  0  0  0  0
   65.1584   32.6354   51.4292 H   0  0  0  0  0  0  0  0  0  0  0  0
   64.3597   31.2965   50.5370 H   0  0  0  0  0  0  0  0  0  0  0  0
   66.1508   31.4330   50.5370 H   0  0  0  0  0  0  0  0  0  0  0  0
   62.9210   33.7200   49.5290 C   0  0  0  0  0  0  0  0  0  0  0  0
   63.0599   33.8093   50.6165 H   0  0  0  0  0  0  0  0  0  0  0  0
   61.7150   34.1240   48.9490 C   0  0  0  0  0  0  0  0  0  0  0  0
   60.9086   34.5219   49.5826 H   0  0  0  0  0  0  0  0  0  0  0  0
   58.8850   31.3290   46.1460 C   0  0  0  0  0  0  0  0  0  0  0  0
   59.6550   30.5940   46.9640 C   0  0  0  0  0  0  0  0  0  0  0  0
   60.1329   31.0620   47.8373 H   0  0  0  0  0  0  0  0  0  0  0  0
   59.8080   29.5238   46.7610 H   0  0  0  0  0  0  0  0  0  0  0  0
  1  2  1  0
  2  3  1  0
  3  4  1  0
  4  5  1  0
  5  6  2  0
  5  7  1  0
  7  8  1  0
  8  9  1  0
  9 10  1  0
  9 11  2  0
 11 12  1  0
 12 13  1  0
 12 14  2  0
 14 15  1  0
 15 16  1  0
 15 17  1  0
 15 18  1  0
 14 19  1  0
 19 20  1  0
 20 21  1  0
 20 22  1  0
 20 23  1  0
 23 24  1  0
 23 25  1  0
 23 26  1  0
 26 27  2  0
 27 28  1  0
 27 29  1  0
 29 30  1  0
 29 31  2  0
 31 32  1  0
 32 33  1  0
 33 34  1  0
 33 35  1  0
 33 36  1  0
 31 37  1  0
 37 38  1  0
 37 39  2  0
 39 40  1  0
 19 41  1  0
 41 42  2  0
 42 43  1  0
 42 44  1  0
  8  3  2  0
 41 11  1  0
 39 26  1  0
M  CHG  2   4  -1   7  -1
M  END
>  <UniqueID>  (26) 
23

>  <SMILES>  (26) 
C=c1/c(=C/c2[n-]c(=O)[n-]c2O)cc(C)n1CCc1ccc(OC)cc1

>  <Energy>  (26) 
103.64589541679167

>  <Genealogy>  (26) 
C=c1c(=Cc2[n-]c(=O)[n-]c2O)cc(C)n1CCc1ccc(OC)cc1 (protonated)
C=c1/c(=C/c2[n-]c(=O)[n-]c2O)cc(C)n1CCc1ccc(OC)cc1 (cis-trans isomerization)
C=c1/c(=C/c2[n-]c(=O)[n-]c2O)cc(C)n1CCc1ccc(OC)cc1 (3D coordinates assigned)
C=c1/c(=C/c2[n-]c(=O)[n-]c2O)cc(C)n1CCc1ccc(OC)cc1 (optimized conformer: 103.64589541679167 kcal/mol)

>  <smiles>  (26) 
C=c1c(=Cc2[nH]c(=O)[nH]c2O)cc(C)n1CCc1ccc(OC)cc1

>  <score_type>  (26) 
oracle

>  <origin>  (26) 
adg

>  <m_score__min__energy>  (26) 
-12.42

>  <m_primary>  (26) 
energy

$$$$
26:0
     RDKit          3D

 40 42  0  0  0  0  0  0  0  0999 V2000
   59.2350   34.2100   44.1090 O   0  0  0  0  0  0  0  0  0  0  0  0
   58.1400   33.9600   45.1090 S   0  0  0  0  0  0  0  0  0  0  0  0
   56.8910   34.6640   44.6590 O   0  0  0  0  0  0  0  0  0  0  0  0
   58.6200   34.5480   46.6690 N   0  0  0  0  0  0  0  0  0  0  0  0
   59.7250   34.2090   47.2580 C   0  0  0  0  0  0  0  0  0  0  0  0
   60.9080   34.2070   46.5820 N   0  0  0  0  0  0  0  0  0  0  0  0
   62.0650   33.8530   47.1980 C   0  0  0  0  0  0  0  0  0  0  0  0
   62.0520   33.4840   48.5430 C   0  0  0  0  0  0  0  0  0  0  0  0
   60.8340   33.4910   49.2200 C   0  0  0  0  0  0  0  0  0  0  0  0
   59.6980   33.8510   48.5690 N   0  0  0  0  0  0  0  0  0  0  0  0
   57.8330   32.2300   45.2230 C   0  0  0  0  0  0  0  0  0  0  0  0
   58.4190   31.4760   46.2460 C   0  0  0  0  0  0  0  0  0  0  0  0
   58.1650   30.1040   46.3450 C   0  0  0  0  0  0  0  0  0  0  0  0
   57.3130   29.4680   45.4220 C   0  0  0  0  0  0  0  0  0  0  0  0
   57.0300   28.0580   45.4970 N   0  0  0  0  0  0  0  0  0  0  0  0
   57.7290   27.1440   46.4040 C   0  0  0  0  0  0  0  0  0  0  0  0
   57.2600   25.7240   46.2010 C   0  0  0  0  0  0  0  0  0  0  0  0
   58.2060   24.6820   46.1910 C   0  0  0  0  0  0  0  0  0  0  0  0
   57.8030   23.3570   45.9980 C   0  0  0  0  0  0  0  0  0  0  0  0
   58.7470   22.3380   45.9960 O   0  0  0  0  0  0  0  0  0  0  0  0
   56.4530   23.0590   45.8080 C   0  0  0  0  0  0  0  0  0  0  0  0
   55.5040   24.0830   45.8020 C   0  0  0  0  0  0  0  0  0  0  0  0
   55.8930   25.4150   45.9890 C   0  0  0  0  0  0  0  0  0  0  0  0
   54.9060   26.4020   45.9530 O   0  0  0  0  0  0  0  0  0  0  0  0
   56.7230   30.2340   44.4040 C   0  0  0  0  0  0  0  0  0  0  0  0
   56.9780   31.6050   44.3070 C   0  0  0  0  0  0  0  0  0  0  0  0
   63.0113   33.8572   46.6371 H   0  0  0  0  0  0  0  0  0  0  0  0
   62.9805   33.1945   49.0568 H   0  0  0  0  0  0  0  0  0  0  0  0
   60.7928   33.2050   50.2814 H   0  0  0  0  0  0  0  0  0  0  0  0
   59.0821   31.9643   46.9753 H   0  0  0  0  0  0  0  0  0  0  0  0
   58.6340   29.5181   47.1493 H   0  0  0  0  0  0  0  0  0  0  0  0
   56.2860   27.6730   44.8700 H   0  0  0  0  0  0  0  0  0  0  0  0
   58.8100   27.1982   46.2079 H   0  0  0  0  0  0  0  0  0  0  0  0
   57.5122   27.4419   47.4405 H   0  0  0  0  0  0  0  0  0  0  0  0
   59.2718   24.9120   46.3363 H   0  0  0  0  0  0  0  0  0  0  0  0
   56.1361   22.0157   45.6627 H   0  0  0  0  0  0  0  0  0  0  0  0
   54.4418   23.8413   45.6491 H   0  0  0  0  0  0  0  0  0  0  0  0
   54.0220   26.3210   46.4380 H   0  0  0  0  0  0  0  0  0  0  0  0
   56.0542   29.7511   43.6763 H   0  0  0  0  0  0  0  0  0  0  0  0
   56.5052   32.1951   43.5081 H   0  0  0  0  0  0  0  0  0  0  0  0
  1  2  2  0
  2  3  2  0
  2  4  1  0
  4  5  2  3
  5  6  1  0
  6  7  2  0
  7  8  1  0
  8  9  2  0
  9 10  1  0
  2 11  1  0
 11 12  2  0
 12 13  1  0
 13 14  2  0
 14 15  1  0
 15 16  1  0
 16 17  1  0
 17 18  2  0
 18 19  1  0
 19 20  1  0
 19 21  2  0
 21 22  1  0
 22 23  2  0
 23 24  1  0
 14 25  1  0
 25 26  2  0
 10  5  1  0
 26 11  1  0
 23 17  1  0
  7 27  1  0
  8 28  1  0
  9 29  1  0
 12 30  1  0
 13 31  1  0
 15 32  1  0
 16 33  1  0
 16 34  1  0
 18 35  1  0
 21 36  1  0
 22 37  1  0
 24 38  1  0
 25 39  1  0
 26 40  1  0
M  CHG  2  10  -1  20  -1
M  END
>  <UniqueID>  (27) 
24

>  <SMILES>  (27) 
O=S(=O)(N=c1nccc[n-]1)c1ccc(NCc2cc([O-])ccc2O)cc1

>  <Energy>  (27) 
48.671278903971036

>  <Genealogy>  (27) 
O=S(=O)(N=c1nccc[n-]1)c1ccc(NCc2cc([O-])ccc2O)cc1 (protonated)
O=S(=O)(N=c1nccc[n-]1)c1ccc(NCc2cc([O-])ccc2O)cc1 (3D coordinates assigned)
O=S(=O)(N=c1nccc[n-]1)c1ccc(NCc2cc([O-])ccc2O)cc1 (optimized conformer: 48.671278903971036 kcal/mol)

>  <smiles>  (27) 
O=S(=O)(N=c1nccc[nH]1)c1ccc(NCc2cc(O)ccc2O)cc1

>  <score_type>  (27) 
oracle

>  <origin>  (27) 
adg

>  <m_score__min__energy>  (27) 
-12.539999999999999

>  <m_primary>  (27) 
energy

$$$$
27:0
     RDKit          3D

 38 40  0  0  0  0  0  0  0  0999 V2000
   60.0520   34.3030   48.7410 O   0  0  0  0  0  0  0  0  0  0  0  0
   60.9980   33.7850   48.0890 C   0  0  0  0  0  0  0  0  0  0  0  0
   60.8090   33.4070   46.7150 N   0  0  0  0  0  0  0  0  0  0  0  0
   59.5200   33.2810   46.0880 C   0  0  0  0  0  0  0  0  0  0  0  0
   58.6460   34.3770   45.9840 C   0  0  0  0  0  0  0  0  0  0  0  0
   57.3900   34.2220   45.3910 C   0  0  0  0  0  0  0  0  0  0  0  0
   56.9890   32.9730   44.9110 C   0  0  0  0  0  0  0  0  0  0  0  0
   57.8400   31.8680   45.0330 C   0  0  0  0  0  0  0  0  0  0  0  0
   57.3390   30.2830   44.4470 S   0  0  0  0  0  0  0  0  0  0  0  0
   56.1470   29.8020   45.2290 O   0  0  0  0  0  0  0  0  0  0  0  0
   56.9590   30.4120   42.9990 O   0  0  0  0  0  0  0  0  0  0  0  0
   58.6590   29.1450   44.6160 N   0  0  0  0  0  0  0  0  0  0  0  0
   58.8510   28.7830   46.0240 C   0  0  0  0  0  0  0  0  0  0  0  0
   58.0670   27.5080   46.3000 C   0  0  0  0  0  0  0  0  0  0  0  0
   57.7220   26.9380   44.9380 C   0  0  0  0  0  0  0  0  0  0  0  0
   58.3450   27.8890   43.9270 C   0  0  0  0  0  0  0  0  0  0  0  0
   59.1010   32.0250   45.6240 C   0  0  0  0  0  0  0  0  0  0  0  0
   62.3080   33.6090   48.7400 C   0  0  0  0  0  0  0  0  0  0  0  0
   62.6150   33.9470   50.0540 C   0  0  0  0  0  0  0  0  0  0  0  0
   63.9390   33.6560   50.4070 C   0  0  0  0  0  0  0  0  0  0  0  0
   64.6780   33.0870   49.3800 C   0  0  0  0  0  0  0  0  0  0  0  0
   63.6850   32.9460   48.0310 S   0  0  0  0  0  0  0  0  0  0  0  0
   61.6550   33.3080   46.1090 H   0  0  0  0  0  0  0  0  0  0  0  0
   58.9518   35.3603   46.3708 H   0  0  0  0  0  0  0  0  0  0  0  0
   56.7152   35.0861   45.3020 H   0  0  0  0  0  0  0  0  0  0  0  0
   56.0033   32.8575   44.4365 H   0  0  0  0  0  0  0  0  0  0  0  0
   59.9196   28.6130   46.2221 H   0  0  0  0  0  0  0  0  0  0  0  0
   58.4966   29.5949   46.6761 H   0  0  0  0  0  0  0  0  0  0  0  0
   58.6813   26.7954   46.8700 H   0  0  0  0  0  0  0  0  0  0  0  0
   57.1655   27.7062   46.8983 H   0  0  0  0  0  0  0  0  0  0  0  0
   58.1440   25.9283   44.8262 H   0  0  0  0  0  0  0  0  0  0  0  0
   56.6346   26.8494   44.7973 H   0  0  0  0  0  0  0  0  0  0  0  0
   59.2660   27.4476   43.5183 H   0  0  0  0  0  0  0  0  0  0  0  0
   57.6468   28.0738   43.0973 H   0  0  0  0  0  0  0  0  0  0  0  0
   59.7679   31.1561   45.7249 H   0  0  0  0  0  0  0  0  0  0  0  0
   61.8898   34.3981   50.7473 H   0  0  0  0  0  0  0  0  0  0  0  0
   64.3539   33.8596   51.4052 H   0  0  0  0  0  0  0  0  0  0  0  0
   65.7329   32.7806   49.4384 H   0  0  0  0  0  0  0  0  0  0  0  0
  1  2  2  0
  2  3  1  0
  3  4  1  0
  4  5  2  0
  5  6  1  0
  6  7  2  0
  7  8  1  0
  8  9  1  0
  9 10  2  0
  9 11  2  0
  9 12  1  0
 12 13  1  0
 13 14  1  0
 14 15  1  0
 15 16  1  0
  8 17  2  0
  2 18  1  0
 18 19  2  0
 19 20  1  0
 20 21  2  0
 21 22  1  0
 17  4  1  0
 22 18  1  0
 16 12  1  0
  3 23  1  0
  5 24  1  0
  6 25  1  0
  7 26  1  0
 13 27  1  0
 13 28  1  0
 14 29  1  0
 14 30  1  0
 15 31  1  0
 15 32  1  0
 16 33  1  0
 16 34  1  0
 17 35  1  0
 19 36  1  0
 20 37  1  0
 21 38  1  0
M  END
>  <UniqueID>  (28) 
25

>  <SMILES>  (28) 
O=C(Nc1cccc(S(=O)(=O)N2CCCC2)c1)c1cccs1

>  <Energy>  (28) 
69.07819404450096

>  <Genealogy>  (28) 
O=C(Nc1cccc(S(=O)(=O)N2CCCC2)c1)c1cccs1 (3D coordinates assigned)
O=C(Nc1cccc(S(=O)(=O)N2CCCC2)c1)c1cccs1 (nonaromatic ring conformer: 69.07819404450096 kcal/mol)

>  <smiles>  (28) 
O=C(Nc1cccc(S(=O)(=O)N2CCCC2)c1)c1cccs1

>  <score_type>  (28) 
oracle

>  <origin>  (28) 
adg

>  <m_score__min__energy>  (28) 
-8.3599999999999994

>  <m_primary>  (28) 
energy

$$$$
28:0
     RDKit          3D

 30 33  0  0  0  0  0  0  0  0999 V2000
   65.8180   32.7220   49.3720 O   0  0  0  0  0  0  0  0  0  0  0  0
   64.5680   32.5670   49.3560 C   0  0  0  0  0  0  0  0  0  0  0  0
   63.8190   32.4620   50.5080 O   0  0  0  0  0  0  0  0  0  0  0  0
   62.4610   32.2880   50.1630 C   0  0  0  0  0  0  0  0  0  0  0  0
   62.5070   31.9680   48.6570 C   0  0  1  0  0  0  0  0  0  0  0  0
   61.3180   32.4980   47.9050 C   0  0  0  0  0  0  0  0  0  0  0  0
   60.0300   32.1320   48.0950 N   0  0  0  0  0  0  0  0  0  0  0  0
   59.3320   32.7930   47.1510 C   0  0  0  0  0  0  0  0  0  0  0  0
   57.9590   32.7330   46.9180 C   0  0  0  0  0  0  0  0  0  0  0  0
   57.4390   33.4930   45.8530 C   0  0  0  0  0  0  0  0  0  0  0  0
   58.2930   34.2840   45.0510 C   0  0  0  0  0  0  0  0  0  0  0  0
   59.6760   34.3230   45.3050 C   0  0  0  0  0  0  0  0  0  0  0  0
   60.1610   33.5650   46.3700 C   0  0  0  0  0  0  0  0  0  0  0  0
   61.4340   33.3850   46.8590 C   0  0  0  0  0  0  0  0  0  0  0  0
   62.7430   33.8980   46.3700 C   0  0  0  0  0  0  0  0  0  0  0  0
   63.7450   33.8430   47.5340 C   0  0  0  0  0  0  0  0  0  0  0  0
   63.8100   32.4900   48.1480 N   0  0  1  0  0  0  0  0  0  0  0  0
   62.0160   31.4555   50.7278 H   0  0  0  0  0  0  0  0  0  0  0  0
   61.8454   33.1700   50.3936 H   0  0  0  0  0  0  0  0  0  0  0  0
   62.4450   30.8819   48.4939 H   0  0  0  0  0  0  0  0  0  0  0  0
   59.6610   31.4590   48.8040 H   0  0  0  0  0  0  0  0  0  0  0  0
   57.3031   32.1120   47.5458 H   0  0  0  0  0  0  0  0  0  0  0  0
   56.3594   33.4711   45.6433 H   0  0  0  0  0  0  0  0  0  0  0  0
   57.8731   34.8732   44.2224 H   0  0  0  0  0  0  0  0  0  0  0  0
   60.3515   34.9305   44.6848 H   0  0  0  0  0  0  0  0  0  0  0  0
   63.1018   33.2718   45.5398 H   0  0  0  0  0  0  0  0  0  0  0  0
   62.6355   34.9317   46.0095 H   0  0  0  0  0  0  0  0  0  0  0  0
   64.7431   34.1104   47.1567 H   0  0  0  0  0  0  0  0  0  0  0  0
   63.4093   34.5512   48.3058 H   0  0  0  0  0  0  0  0  0  0  0  0
   64.2530   31.8060   47.4900 H   0  0  0  0  0  0  0  0  0  0  0  0
  1  2  2  0
  2  3  1  0
  3  4  1  0
  4  5  1  0
  5  6  1  0
  6  7  1  0
  7  8  1  0
  8  9  2  0
  9 10  1  0
 10 11  2  0
 11 12  1  0
 12 13  2  0
 13 14  1  0
 14 15  1  0
 15 16  1  0
 16 17  1  0
 17  2  1  0
 17  5  1  0
 14  6  2  0
 13  8  1  0
  4 18  1  0
  4 19  1  0
  5 20  1  1
  7 21  1  0
  9 22  1  0
 10 23  1  0
 11 24  1  0
 12 25  1  0
 15 26  1  0
 15 27  1  0
 16 28  1  0
 16 29  1  0
 17 30  1  6
M  CHG  1  17   1
M  END
>  <UniqueID>  (29) 
26

>  <SMILES>  (29) 
O=C1OC[C@H]2c3[nH]c4ccccc4c3CC[N@@H+]12

>  <Energy>  (29) 
83.04441235164191

>  <Genealogy>  (29) 
O=C1OCC2c3[nH]c4ccccc4c3CC[NH+]12 (protonated)
O=C1OC[C@H]2c3[nH]c4ccccc4c3CC[N@@H+]12 (chirality)
O=C1OC[C@H]2c3[nH]c4ccccc4c3CC[N@@H+]12 (3D coordinates assigned)
O=C1OC[C@H]2c3[nH]c4ccccc4c3CC[N@@H+]12 (nonaromatic ring conformer: 83.04441235164191 kcal/mol)

>  <smiles>  (29) 
O=C1OCC2c3[nH]c4ccccc4c3CCN12

>  <score_type>  (29) 
oracle

>  <origin>  (29) 
adg

>  <m_score__min__energy>  (29) 
-5.2400000000000002

>  <m_primary>  (29) 
energy

$$$$
29:0
     RDKit          3D

 57 61  0  0  0  0  0  0  0  0999 V2000
   63.6580   33.2210   46.5900 C   0  0  0  0  0  0  0  0  0  0  0  0
   62.9870   32.5730   47.7590 C   0  0  0  0  0  0  0  0  0  0  0  0
   63.6620   32.0190   48.7920 N   0  0  0  0  0  0  0  0  0  0  0  0
   62.7750   31.5470   49.6520 N   0  0  0  0  0  0  0  0  0  0  0  0
   63.0030   30.9080   50.8310 C   0  0  0  0  0  0  0  0  0  0  0  0
   64.3720   30.6360   51.3080 C   0  0  0  0  0  0  0  0  0  0  0  0
   64.7330   29.3050   51.5690 C   0  0  0  0  0  0  0  0  0  0  0  0
   66.0040   29.0020   52.0610 C   0  0  0  0  0  0  0  0  0  0  0  0
   66.9230   30.0230   52.2960 C   0  0  0  0  0  0  0  0  0  0  0  0
   66.5800   31.3510   52.0310 C   0  0  0  0  0  0  0  0  0  0  0  0
   65.3110   31.6750   51.5240 C   0  0  0  0  0  0  0  0  0  0  0  0
   64.9240   33.3700   51.1610 S   0  0  0  0  0  0  0  0  0  0  0  0
   65.8050   34.4930   52.2290 C   0  0  0  0  0  0  0  0  0  0  0  0
   65.3170   33.6920   49.7470 O   0  0  0  0  0  0  0  0  0  0  0  0
   63.4480   33.5980   51.3340 O   0  0  0  0  0  0  0  0  0  0  0  0
   61.8860   30.5160   51.5870 C   0  0  0  0  0  0  0  0  0  0  0  0
   60.5980   30.7760   51.0830 C   0  0  0  0  0  0  0  0  0  0  0  0
   60.4380   31.4110   49.8860 N   0  0  0  0  0  0  0  0  0  0  0  0
   61.5400   31.7930   49.1950 C   0  0  0  0  0  0  0  0  0  0  0  0
   61.6090   32.4390   47.9750 C   0  0  0  0  0  0  0  0  0  0  0  0
   60.4850   32.8870   47.1230 C   0  0  0  0  0  0  0  0  0  0  0  0
   60.0150   34.2090   47.1980 C   0  0  0  0  0  0  0  0  0  0  0  0
   58.9610   34.6300   46.3830 C   0  0  0  0  0  0  0  0  0  0  0  0
   58.3640   33.7370   45.4900 C   0  0  0  0  0  0  0  0  0  0  0  0
   58.8150   32.4080   45.4120 C   0  0  0  0  0  0  0  0  0  0  0  0
   58.2530   31.4870   44.5170 O   0  0  0  0  0  0  0  0  0  0  0  0
   57.7330   30.2310   44.8630 C   0  0  0  0  0  0  0  0  0  0  0  0
   58.5900   29.2640   45.3930 C   0  0  0  0  0  0  0  0  0  0  0  0
   58.0960   28.0110   45.7590 C   0  0  0  0  0  0  0  0  0  0  0  0
   56.7290   27.7340   45.6000 C   0  0  0  0  0  0  0  0  0  0  0  0
   56.1650   26.4250   45.9740 C   0  0  0  0  0  0  0  0  0  0  0  0
   54.7690   26.1820   45.8140 N   0  0  0  0  0  0  0  0  0  0  0  0
   56.9040   25.5140   46.4360 O   0  0  0  0  0  0  0  0  0  0  0  0
   55.9070   28.6980   45.1020 N   0  0  0  0  0  0  0  0  0  0  0  0
   56.3680   29.9250   44.7380 C   0  0  0  0  0  0  0  0  0  0  0  0
   59.8850   31.9970   46.2150 C   0  0  0  0  0  0  0  0  0  0  0  0
   64.4056   33.9430   46.9503 H   0  0  0  0  0  0  0  0  0  0  0  0
   64.1549   32.4522   45.9800 H   0  0  0  0  0  0  0  0  0  0  0  0
   62.9070   33.7444   45.9800 H   0  0  0  0  0  0  0  0  0  0  0  0
   64.7010   31.9740   48.9060 H   0  0  0  0  0  0  0  0  0  0  0  0
   64.0106   28.4962   51.3849 H   0  0  0  0  0  0  0  0  0  0  0  0
   66.2802   27.9566   52.2633 H   0  0  0  0  0  0  0  0  0  0  0  0
   67.9210   29.7826   52.6912 H   0  0  0  0  0  0  0  0  0  0  0  0
   67.3109   32.1507   52.2213 H   0  0  0  0  0  0  0  0  0  0  0  0
   65.6027   34.2351   53.2790 H   0  0  0  0  0  0  0  0  0  0  0  0
   66.8846   34.4140   52.0335 H   0  0  0  0  0  0  0  0  0  0  0  0
   65.4713   35.5228   52.0335 H   0  0  0  0  0  0  0  0  0  0  0  0
   62.0158   30.0140   52.5571 H   0  0  0  0  0  0  0  0  0  0  0  0
   59.7136   30.4649   51.6584 H   0  0  0  0  0  0  0  0  0  0  0  0
   60.4790   34.9159   47.9016 H   0  0  0  0  0  0  0  0  0  0  0  0
   58.6004   35.6674   46.4448 H   0  0  0  0  0  0  0  0  0  0  0  0
   57.5386   34.0748   44.8460 H   0  0  0  0  0  0  0  0  0  0  0  0
   59.6586   29.4908   45.5225 H   0  0  0  0  0  0  0  0  0  0  0  0
   58.7725   27.2465   46.1688 H   0  0  0  0  0  0  0  0  0  0  0  0
   54.0640   26.7190   46.3690 H   0  0  0  0  0  0  0  0  0  0  0  0
   55.6702   30.6791   44.3449 H   0  0  0  0  0  0  0  0  0  0  0  0
   60.2607   30.9663   46.1348 H   0  0  0  0  0  0  0  0  0  0  0  0
  1  2  1  0
  2  3  2  0
  3  4  1  0
  4  5  1  0
  5  6  1  0
  6  7  2  0
  7  8  1  0
  8  9  2  0
  9 10  1  0
 10 11  2  0
 11 12  1  0
 12 13  1  0
 12 14  2  0
 12 15  2  0
  5 16  2  0
 16 17  1  0
 17 18  2  0
 18 19  1  0
 19 20  2  0
 20 21  1  0
 21 22  2  0
 22 23  1  0
 23 24  2  0
 24 25  1  0
 25 26  1  0
 26 27  1  0
 27 28  2  0
 28 29  1  0
 29 30  2  0
 30 31  1  0
 31 32  1  0
 31 33  2  0
 30 34  1  0
 34 35  2  0
 25 36  2  0
 20  2  1  0
 36 21  1  0
 19  4  1  0
 35 27  1  0
 11  6  1  0
  1 37  1  0
  1 38  1  0
  1 39  1  0
  3 40  1  0
  7 41  1  0
  8 42  1  0
  9 43  1  0
 10 44  1  0
 13 45  1  0
 13 46  1  0
 13 47  1  0
 16 48  1  0
 17 49  1  0
 22 50  1  0
 23 51  1  0
 24 52  1  0
 28 53  1  0
 29 54  1  0
 32 55  1  0
 35 56  1  0
 36 57  1  0
M  CHG  2   3   1  32  -1
M  END
>  <UniqueID>  (30) 
27

>  <SMILES>  (30) 
Cc1[nH+]n2c(-c3ccccc3S(C)(=O)=O)ccnc2c1-c1cccc(Oc2ccc(C([NH-])=O)nc2)c1

>  <Energy>  (30) 
118.01756640229925

>  <Genealogy>  (30) 
Cc1[nH+]n2c(-c3ccccc3S(C)(=O)=O)ccnc2c1-c1cccc(Oc2ccc(C([NH-])=O)nc2)c1 (protonated)
Cc1[nH+]n2c(-c3ccccc3S(C)(=O)=O)ccnc2c1-c1cccc(Oc2ccc(C([NH-])=O)nc2)c1 (3D coordinates assigned)
Cc1[nH+]n2c(-c3ccccc3S(C)(=O)=O)ccnc2c1-c1cccc(Oc2ccc(C([NH-])=O)nc2)c1 (optimized conformer: 118.01756640229925 kcal/mol)

>  <smiles>  (30) 
Cc1nn2c(-c3ccccc3S(C)(=O)=O)ccnc2c1-c1cccc(Oc2ccc(C(N)=O)nc2)c1

>  <score_type>  (30) 
oracle

>  <origin>  (30) 
adg

>  <m_score__min__energy>  (30) 
-11.949999999999999

>  <m_primary>  (30) 
energy

$$$$
30:0
     RDKit          3D

 59 63  0  0  0  0  0  0  0  0999 V2000
   62.1930   32.1080   48.5890 C   0  0  0  0  0  0  0  0  0  0  0  0
   60.8950   32.2770   47.8330 C   0  0  0  0  0  0  0  0  0  0  0  0
   60.7860   33.3450   46.9310 C   0  0  0  0  0  0  0  0  0  0  0  0
   59.6110   33.5380   46.2100 C   0  0  0  0  0  0  0  0  0  0  0  0
   59.5410   34.5060   45.4060 O   0  0  0  0  0  0  0  0  0  0  0  0
   58.5260   32.6570   46.3860 C   0  0  0  0  0  0  0  0  0  0  0  0
   57.2470   32.8180   45.6420 C   0  0  0  0  0  0  0  0  0  0  0  0
   56.6610   33.9350   45.6120 O   0  0  0  0  0  0  0  0  0  0  0  0
   56.7290   31.7300   44.8630 N   0  0  0  0  0  0  0  0  0  0  0  0
   57.2340   30.5400   44.6700 C   0  0  0  0  0  0  0  0  0  0  0  0
   58.5690   30.4520   44.3900 N   0  0  0  0  0  0  0  0  0  0  0  0
   59.1850   29.2620   44.1550 C   0  0  0  0  0  0  0  0  0  0  0  0
   58.4600   28.0730   44.2090 C   0  0  0  0  0  0  0  0  0  0  0  0
   57.1050   28.1170   44.5240 C   0  0  0  0  0  0  0  0  0  0  0  0
   56.4800   29.3410   44.7740 C   0  0  0  0  0  0  0  0  0  0  0  0
   55.1480   29.3300   45.1680 O   0  0  0  0  0  0  0  0  0  0  0  0
   58.6730   31.6010   47.3010 C   0  0  0  0  0  0  0  0  0  0  0  0
   59.8330   31.4170   48.0070 N   0  0  0  0  0  0  0  0  0  0  0  0
   59.9080   30.2670   48.9320 C   0  0  0  0  0  0  0  0  0  0  0  0
   59.6830   28.9660   48.2030 C   0  0  0  0  0  0  0  0  0  0  0  0
   58.3920   28.4260   48.0940 C   0  0  0  0  0  0  0  0  0  0  0  0
   58.1800   27.2280   47.4070 C   0  0  0  0  0  0  0  0  0  0  0  0
   59.2540   26.5580   46.7970 C   0  0  0  0  0  0  0  0  0  0  0  0
   59.0380   25.2850   46.0770 C   0  0  0  0  0  0  0  0  0  0  0  0
   59.9980   24.4790   45.9430 O   0  0  0  0  0  0  0  0  0  0  0  0
   57.7590   24.9670   45.5010 N   0  0  0  0  0  0  0  0  0  0  0  0
   57.5160   24.9130   44.0560 C   0  0  0  0  0  0  0  0  0  0  0  0
   56.2060   24.1120   43.8650 C   0  0  0  0  0  0  0  0  0  0  0  0
   55.8120   23.7600   45.2550 C   0  0  0  0  0  0  0  0  0  0  0  0
   54.6910   23.0420   45.6760 C   0  0  0  0  0  0  0  0  0  0  0  0
   54.5020   22.8390   47.0510 C   0  0  0  0  0  0  0  0  0  0  0  0
   55.4260   23.3620   47.9780 C   0  0  0  0  0  0  0  0  0  0  0  0
   56.5440   24.0830   47.5310 C   0  0  0  0  0  0  0  0  0  0  0  0
   56.7180   24.2560   46.1520 C   0  0  0  0  0  0  0  0  0  0  0  0
   60.5460   27.0990   46.9060 C   0  0  0  0  0  0  0  0  0  0  0  0
   60.7560   28.2980   47.5920 C   0  0  0  0  0  0  0  0  0  0  0  0
   61.9935   32.1340   49.6704 H   0  0  0  0  0  0  0  0  0  0  0  0
   62.6491   31.1429   48.3234 H   0  0  0  0  0  0  0  0  0  0  0  0
   62.8810   32.9242   48.3234 H   0  0  0  0  0  0  0  0  0  0  0  0
   61.6327   34.0334   46.7925 H   0  0  0  0  0  0  0  0  0  0  0  0
   59.1430   31.3250   44.3340 H   0  0  0  0  0  0  0  0  0  0  0  0
   60.2597   29.2382   43.9214 H   0  0  0  0  0  0  0  0  0  0  0  0
   58.9529   27.1110   44.0051 H   0  0  0  0  0  0  0  0  0  0  0  0
   56.5241   27.1844   44.5763 H   0  0  0  0  0  0  0  0  0  0  0  0
   57.8357   30.9043   47.4546 H   0  0  0  0  0  0  0  0  0  0  0  0
   60.9027   30.2481   49.4013 H   0  0  0  0  0  0  0  0  0  0  0  0
   59.1223   30.3803   49.6935 H   0  0  0  0  0  0  0  0  0  0  0  0
   57.5407   28.9500   48.5530 H   0  0  0  0  0  0  0  0  0  0  0  0
   57.1659   26.8066   47.3432 H   0  0  0  0  0  0  0  0  0  0  0  0
   57.4034   25.9293   43.6506 H   0  0  0  0  0  0  0  0  0  0  0  0
   58.3555   24.4381   43.5271 H   0  0  0  0  0  0  0  0  0  0  0  0
   55.4343   24.7289   43.3813 H   0  0  0  0  0  0  0  0  0  0  0  0
   56.3314   23.2313   43.2179 H   0  0  0  0  0  0  0  0  0  0  0  0
   53.9716   22.6441   44.9452 H   0  0  0  0  0  0  0  0  0  0  0  0
   53.6303   22.2701   47.4068 H   0  0  0  0  0  0  0  0  0  0  0  0
   55.2703   23.2045   49.0555 H   0  0  0  0  0  0  0  0  0  0  0  0
   57.2665   24.5023   48.2467 H   0  0  0  0  0  0  0  0  0  0  0  0
   61.3980   26.5751   46.4482 H   0  0  0  0  0  0  0  0  0  0  0  0
   61.7693   28.7215   47.6538 H   0  0  0  0  0  0  0  0  0  0  0  0
  1  2  1  0
  2  3  2  0
  3  4  1  0
  4  5  2  0
  4  6  1  0
  6  7  1  0
  7  8  2  0
  7  9  1  0
  9 10  2  3
 10 11  1  0
 11 12  1  0
 12 13  2  0
 13 14  1  0
 14 15  2  0
 15 16  1  0
  6 17  2  0
 17 18  1  0
 18 19  1  0
 19 20  1  0
 20 21  2  0
 21 22  1  0
 22 23  2  0
 23 24  1  0
 24 25  2  0
 24 26  1  0
 26 27  1  0
 27 28  1  0
 28 29  1  0
 29 30  2  0
 30 31  1  0
 31 32  2  0
 32 33  1  0
 33 34  2  0
 23 35  1  0
 35 36  2  0
 18  2  1  0
 36 20  1  0
 15 10  1  0
 34 26  1  0
 34 29  1  0
  1 37  1  0
  1 38  1  0
  1 39  1  0
  3 40  1  0
 11 41  1  0
 12 42  1  0
 13 43  1  0
 14 44  1  0
 17 45  1  0
 19 46  1  0
 19 47  1  0
 21 48  1  0
 22 49  1  0
 27 50  1  0
 27 51  1  0
 28 52  1  0
 28 53  1  0
 30 54  1  0
 31 55  1  0
 32 56  1  0
 33 57  1  0
 35 58  1  0
 36 59  1  0
M  CHG  1  16  -1
M  END
>  <UniqueID>  (31) 
28

>  <SMILES>  (31) 
Cc1cc(=O)c(C(=O)N=c2[nH]cccc2[O-])cn1Cc1ccc(C(=O)N2CCc3ccccc32)cc1

>  <Energy>  (31) 
103.46634604724363

>  <Genealogy>  (31) 
Cc1cc(=O)c(C(=O)N=c2[nH]cccc2[O-])cn1Cc1ccc(C(=O)N2CCc3ccccc32)cc1 (protonated)
Cc1cc(=O)c(C(=O)N=c2[nH]cccc2[O-])cn1Cc1ccc(C(=O)N2CCc3ccccc32)cc1 (3D coordinates assigned)
Cc1cc(=O)c(C(=O)N=c2[nH]cccc2[O-])cn1Cc1ccc(C(=O)N2CCc3ccccc32)cc1 (nonaromatic ring conformer: 103.46634604724363 kcal/mol)

>  <smiles>  (31) 
Cc1cc(=O)c(C(=O)N=c2[nH]cccc2O)cn1Cc1ccc(C(=O)N2CCc3ccccc32)cc1

>  <score_type>  (31) 
oracle

>  <origin>  (31) 
adg

>  <m_score__min__energy>  (31) 
-14.25

>  <m_primary>  (31) 
energy

$$$$
31:0
     RDKit          3D

 38 40  0  0  1  0  0  0  0  0999 V2000
   55.6480   25.7870   46.0180 O   0  0  0  0  0  0  0  0  0  0  0  0
   56.6960   25.6120   45.3860 C   0  0  0  0  0  0  0  0  0  0  0  0
   57.5820   26.6760   45.0030 N   0  0  0  0  0  0  0  0  0  0  0  0
   57.1570   27.8900   44.9780 C   0  0  0  0  0  0  0  0  0  0  0  0
   57.9900   28.9100   44.6220 N   0  0  0  0  0  0  0  0  0  0  0  0
   57.2540   30.0700   44.6870 C   0  0  0  0  0  0  0  0  0  0  0  0
   57.8870   31.3660   44.3860 C   0  0  0  0  0  0  0  0  0  0  0  0
   57.0910   32.5540   44.8120 C   0  0  0  0  0  0  0  0  0  0  0  0
   58.0170   33.3780   45.6820 C   0  0  0  0  0  0  0  0  0  0  0  0
   58.7580   34.3920   45.0640 C   0  0  0  0  0  0  0  0  0  0  0  0
   59.5980   35.1960   45.8070 C   0  0  0  0  0  0  0  0  0  0  0  0
   59.6660   34.9530   47.1620 C   0  0  0  0  0  0  0  0  0  0  0  0
   58.9360   33.9460   47.7840 C   0  0  0  0  0  0  0  0  0  0  0  0
   58.0990   33.1440   47.0380 C   0  0  0  0  0  0  0  0  0  0  0  0
   56.0100   29.7420   45.0710 N   0  0  0  0  0  0  0  0  0  0  0  0
   55.9600   28.4140   45.2460 N   0  0  0  0  0  0  0  0  0  0  0  0
   57.1540   24.2690   44.9520 C   0  0  0  0  0  0  0  0  0  0  0  0
   56.4020   23.4420   44.1760 C   0  0  0  0  0  0  0  0  0  0  0  0
   56.8990   22.1960   43.8130 C   0  0  0  0  0  0  0  0  0  0  0  0
   56.2670   21.3890   43.1090 O   0  0  0  0  0  0  0  0  0  0  0  0
   58.1170   21.8290   44.2330 N   0  0  0  0  0  0  0  0  0  0  0  0
   58.8730   22.6260   44.9950 C   0  0  0  0  0  0  0  0  0  0  0  0
   60.0140   22.2800   45.3880 O   0  0  0  0  0  0  0  0  0  0  0  0
   58.3710   23.8180   45.3300 N   0  0  0  0  0  0  0  0  0  0  0  0
   58.8594   31.4014   44.8990 H   0  0  0  0  0  0  0  0  0  0  0  0
   57.9775   31.4247   43.2913 H   0  0  0  0  0  0  0  0  0  0  0  0
   56.7706   33.1354   43.9349 H   0  0  0  0  0  0  0  0  0  0  0  0
   56.1805   32.2591   45.3542 H   0  0  0  0  0  0  0  0  0  0  0  0
   58.6701   34.5490   43.9788 H   0  0  0  0  0  0  0  0  0  0  0  0
   60.1883   35.9969   45.3378 H   0  0  0  0  0  0  0  0  0  0  0  0
   60.3257   35.5823   47.7775 H   0  0  0  0  0  0  0  0  0  0  0  0
   59.0263   33.7897   48.8691 H   0  0  0  0  0  0  0  0  0  0  0  0
   57.5140   32.3413   47.5107 H   0  0  0  0  0  0  0  0  0  0  0  0
   55.2440   30.4090   45.2020 H   0  0  0  0  0  0  0  0  0  0  0  0
   55.1430   27.8300   45.5390 H   0  0  0  0  0  0  0  0  0  0  0  0
   55.4045   23.7585   43.8373 H   0  0  0  0  0  0  0  0  0  0  0  0
   58.5300   20.8960   43.9820 H   0  0  0  0  0  0  0  0  0  0  0  0
   59.0020   24.4200   45.9340 H   0  0  0  0  0  0  0  0  0  0  0  0
  1  2  2  0
  2  3  1  0
  3  4  2  0
  4  5  1  0
  5  6  2  0
  6  7  1  0
  7  8  1  0
  8  9  1  0
  9 10  2  0
 10 11  1  0
 11 12  2  0
 12 13  1  0
 13 14  2  0
  6 15  1  0
 15 16  1  0
  2 17  1  0
 17 18  2  0
 18 19  1  0
 19 20  2  0
 19 21  1  0
 21 22  1  0
 22 23  2  0
 22 24  1  0
 16  4  1  0
 24 17  1  0
 14  9  1  0
  7 25  1  0
  7 26  1  0
  8 27  1  0
  8 28  1  0
 10 29  1  0
 11 30  1  0
 12 31  1  0
 13 32  1  0
 14 33  1  0
 15 34  1  0
 16 35  1  0
 18 36  1  0
 21 37  1  0
 24 38  1  0
M  END
>  <smiles>  (32) 
O=C(N=c1nc(CCc2ccccc2)[nH][nH]1)c1cc(=O)[nH]c(=O)[nH]1

>  <score_type>  (32) 
oracle

>  <origin>  (32) 
adg

>  <m_score__min__energy>  (32) 
-9.8200000000000003

>  <m_primary>  (32) 
energy

$$$$
32:0
     RDKit          3D

 40 41  0  0  0  0  0  0  0  0999 V2000
   57.0680   34.1170   45.3690 C   0  0  0  0  0  0  0  0  0  0  0  0
   58.3860   33.9360   46.0610 C   0  0  0  0  0  0  0  0  0  0  0  0
   58.4450   33.8280   47.4580 C   0  0  0  0  0  0  0  0  0  0  0  0
   59.6800   33.7190   48.1050 C   0  0  0  0  0  0  0  0  0  0  0  0
   60.8680   33.7200   47.3630 C   0  0  0  0  0  0  0  0  0  0  0  0
   62.4190   33.6520   48.1990 S   0  0  0  0  0  0  0  0  0  0  0  0
   63.4910   34.1290   47.2600 O   0  0  0  0  0  0  0  0  0  0  0  0
   62.4040   34.5570   49.4020 O   0  0  0  0  0  0  0  0  0  0  0  0
   62.7670   32.0120   48.6800 N   0  0  0  0  0  0  0  0  0  0  0  0
   61.5870   31.3580   49.2580 C   0  0  0  0  0  0  0  0  0  0  0  0
   61.0990   30.2520   48.3750 C   0  0  0  0  0  0  0  0  0  0  0  0
   60.9800   29.0910   48.8470 O   0  0  0  0  0  0  0  0  0  0  0  0
   60.7200   30.5490   47.0230 N   0  0  0  0  0  0  0  0  0  0  0  0
   59.9510   29.7310   46.1280 C   0  0  0  0  0  0  0  0  0  0  0  0
   60.3660   28.4490   45.7260 C   0  0  0  0  0  0  0  0  0  0  0  0
   59.5650   27.6860   44.8720 C   0  0  0  0  0  0  0  0  0  0  0  0
   58.3540   28.1980   44.4010 C   0  0  0  0  0  0  0  0  0  0  0  0
   57.9450   29.4850   44.7690 C   0  0  0  0  0  0  0  0  0  0  0  0
   56.4130   30.1210   44.1810 S   0  0  0  0  0  0  0  0  0  0  0  0
   55.1470   28.9980   44.5310 N   0  0  0  0  0  0  0  0  0  0  0  0
   56.1070   31.4320   44.8460 O   0  0  0  0  0  0  0  0  0  0  0  0
   56.4970   30.3410   42.6970 O   0  0  0  0  0  0  0  0  0  0  0  0
   58.7510   30.2490   45.6250 C   0  0  0  0  0  0  0  0  0  0  0  0
   60.8110   33.8290   45.9660 C   0  0  0  0  0  0  0  0  0  0  0  0
   59.5780   33.9480   45.3200 C   0  0  0  0  0  0  0  0  0  0  0  0
   56.2716   34.2264   46.1199 H   0  0  0  0  0  0  0  0  0  0  0  0
   57.1050   35.0185   44.7398 H   0  0  0  0  0  0  0  0  0  0  0  0
   56.8606   33.2389   44.7398 H   0  0  0  0  0  0  0  0  0  0  0  0
   57.5161   33.8290   48.0472 H   0  0  0  0  0  0  0  0  0  0  0  0
   59.7186   33.6321   49.2009 H   0  0  0  0  0  0  0  0  0  0  0  0
   63.4940   32.0690   49.4300 H   0  0  0  0  0  0  0  0  0  0  0  0
   61.8518   30.9426   50.2415 H   0  0  0  0  0  0  0  0  0  0  0  0
   60.7862   32.1055   49.3578 H   0  0  0  0  0  0  0  0  0  0  0  0
   61.3243   28.0454   46.0849 H   0  0  0  0  0  0  0  0  0  0  0  0
   59.8893   26.6792   44.5699 H   0  0  0  0  0  0  0  0  0  0  0  0
   57.7205   27.5887   43.7396 H   0  0  0  0  0  0  0  0  0  0  0  0
   54.6650   29.3430   45.3930 H   0  0  0  0  0  0  0  0  0  0  0  0
   58.4375   31.2657   45.9043 H   0  0  0  0  0  0  0  0  0  0  0  0
   61.7400   33.8208   45.3770 H   0  0  0  0  0  0  0  0  0  0  0  0
   59.5412   34.0516   44.2255 H   0  0  0  0  0  0  0  0  0  0  0  0
  1  2  1  0
  2  3  2  0
  3  4  1  0
  4  5  2  0
  5  6  1  0
  6  7  2  0
  6  8  2  0
  6  9  1  0
  9 10  1  0
 10 11  1  0
 11 12  2  0
 11 13  1  0
 13 14  1  0
 14 15  2  0
 15 16  1  0
 16 17  2  0
 17 18  1  0
 18 19  1  0
 19 20  1  0
 19 21  2  0
 19 22  2  0
 18 23  2  0
  5 24  1  0
 24 25  2  0
 25  2  1  0
 23 14  1  0
  1 26  1  0
  1 27  1  0
  1 28  1  0
  3 29  1  0
  4 30  1  0
  9 31  1  0
 10 32  1  0
 10 33  1  0
 15 34  1  0
 16 35  1  0
 17 36  1  0
 20 37  1  0
 23 38  1  0
 24 39  1  0
 25 40  1  0
M  CHG  2  13  -1  20  -1
M  END
>  <UniqueID>  (33) 
29

>  <SMILES>  (33) 
Cc1ccc(S(=O)(=O)NCC(=O)[N-]c2cccc(S([NH-])(=O)=O)c2)cc1

>  <Energy>  (33) 
35.308728120690674

>  <Genealogy>  (33) 
Cc1ccc(S(=O)(=O)NCC(=O)[N-]c2cccc(S([NH-])(=O)=O)c2)cc1 (protonated)
Cc1ccc(S(=O)(=O)NCC(=O)[N-]c2cccc(S([NH-])(=O)=O)c2)cc1 (3D coordinates assigned)
Cc1ccc(S(=O)(=O)NCC(=O)[N-]c2cccc(S([NH-])(=O)=O)c2)cc1 (optimized conformer: 35.308728120690674 kcal/mol)

>  <smiles>  (33) 
Cc1ccc(S(=O)(=O)NCC(=O)Nc2cccc(S(N)(=O)=O)c2)cc1

>  <score_type>  (33) 
oracle

>  <origin>  (33) 
adg

>  <m_score__min__energy>  (33) 
-12.720000000000001

>  <m_primary>  (33) 
energy

$$$$
33:0
     RDKit          3D

 52 54  0  0  0  0  0  0  0  0999 V2000
   56.2580   30.0110   43.9450 C   0  0  0  0  0  0  0  0  0  0  0  0
   56.8320   30.4330   45.1790 O   0  0  0  0  0  0  0  0  0  0  0  0
   57.5750   31.6160   45.3500 C   0  0  0  0  0  0  0  0  0  0  0  0
   57.3990   32.7330   44.5030 C   0  0  0  0  0  0  0  0  0  0  0  0
   58.1340   33.9010   44.7100 C   0  0  0  0  0  0  0  0  0  0  0  0
   59.0530   33.9760   45.7600 C   0  0  0  0  0  0  0  0  0  0  0  0
   59.9960   35.4390   45.9940 Cl  0  0  0  0  0  0  0  0  0  0  0  0
   59.2440   32.8760   46.6020 C   0  0  0  0  0  0  0  0  0  0  0  0
   58.5230   31.6860   46.3980 C   0  0  0  0  0  0  0  0  0  0  0  0
   58.7070   30.5430   47.3660 C   0  0  0  0  0  0  0  0  0  0  0  0
   58.1610   29.3200   46.7870 N   0  0  0  0  0  0  0  0  0  0  0  0
   58.4790   28.0350   47.3330 C   0  0  0  0  0  0  0  0  0  0  0  0
   58.6430   27.8930   48.5760 O   0  0  0  0  0  0  0  0  0  0  0  0
   58.7030   26.8730   46.4150 C   0  0  0  0  0  0  0  0  0  0  0  0
   57.4460   26.1460   46.2450 N   0  0  0  0  0  0  0  0  0  0  0  0
   57.1960   24.8620   46.5460 C   0  0  0  0  0  0  0  0  0  0  0  0
   58.1550   23.9480   46.9670 O   0  0  0  0  0  0  0  0  0  0  0  0
   55.8510   24.6150   46.3850 C   0  0  0  0  0  0  0  0  0  0  0  0
   55.1560   23.3020   46.5730 C   0  0  0  0  0  0  0  0  0  0  0  0
   54.2470   23.0080   45.4190 C   0  0  0  0  0  0  0  0  0  0  0  0
   53.0830   22.5680   45.6270 O   0  0  0  0  0  0  0  0  0  0  0  0
   54.7040   23.2630   44.0840 N   0  0  0  0  0  0  0  0  0  0  0  0
   55.8970   22.6930   43.4570 C   0  0  0  0  0  0  0  0  0  0  0  0
   57.0810   23.6690   43.4650 C   0  0  0  0  0  0  0  0  0  0  0  0
   58.2260   22.9520   44.1710 C   0  0  0  0  0  0  0  0  0  0  0  0
   57.8850   21.4730   44.1090 C   0  0  0  0  0  0  0  0  0  0  0  0
   56.3670   21.4130   44.1520 C   0  0  0  0  0  0  0  0  0  0  0  0
   55.2320   25.7460   45.9820 N   0  0  0  0  0  0  0  0  0  0  0  0
   56.2360   26.6500   45.9210 C   0  0  0  0  0  0  0  0  0  0  0  0
   56.0480   27.8580   45.6120 O   0  0  0  0  0  0  0  0  0  0  0  0
   55.3867   29.3704   44.1460 H   0  0  0  0  0  0  0  0  0  0  0  0
   55.9401   30.8920   43.3682 H   0  0  0  0  0  0  0  0  0  0  0  0
   57.0041   29.4448   43.3682 H   0  0  0  0  0  0  0  0  0  0  0  0
   56.6774   32.6816   43.6744 H   0  0  0  0  0  0  0  0  0  0  0  0
   57.9896   34.7651   44.0448 H   0  0  0  0  0  0  0  0  0  0  0  0
   59.9642   32.9421   47.4308 H   0  0  0  0  0  0  0  0  0  0  0  0
   59.7790   30.4048   47.5701 H   0  0  0  0  0  0  0  0  0  0  0  0
   58.1804   30.7702   48.3046 H   0  0  0  0  0  0  0  0  0  0  0  0
   57.8240   29.3640   45.8010 H   0  0  0  0  0  0  0  0  0  0  0  0
   59.0521   27.2380   45.4378 H   0  0  0  0  0  0  0  0  0  0  0  0
   59.4623   26.2032   46.8448 H   0  0  0  0  0  0  0  0  0  0  0  0
   55.9090   22.5039   46.6507 H   0  0  0  0  0  0  0  0  0  0  0  0
   54.5528   23.3521   47.4915 H   0  0  0  0  0  0  0  0  0  0  0  0
   55.5904   22.4728   42.4238 H   0  0  0  0  0  0  0  0  0  0  0  0
   57.3700   23.9247   42.4349 H   0  0  0  0  0  0  0  0  0  0  0  0
   56.8211   24.6065   43.9783 H   0  0  0  0  0  0  0  0  0  0  0  0
   59.1776   23.1482   43.6552 H   0  0  0  0  0  0  0  0  0  0  0  0
   58.3439   23.2984   45.2084 H   0  0  0  0  0  0  0  0  0  0  0  0
   58.2625   21.0287   43.1762 H   0  0  0  0  0  0  0  0  0  0  0  0
   58.3427   20.9101   44.9358 H   0  0  0  0  0  0  0  0  0  0  0  0
   56.0003   20.5254   43.6155 H   0  0  0  0  0  0  0  0  0  0  0  0
   55.9866   21.3398   45.1815 H   0  0  0  0  0  0  0  0  0  0  0  0
  1  2  1  0
  2  3  1  0
  3  4  2  0
  4  5  1  0
  5  6  2  0
  6  7  1  0
  6  8  1  0
  8  9  2  0
  9 10  1  0
 10 11  1  0
 11 12  1  0
 12 13  2  0
 12 14  1  0
 14 15  1  0
 15 16  1  0
 16 17  1  0
 16 18  2  0
 18 19  1  0
 19 20  1  0
 20 21  2  0
 20 22  1  0
 22 23  1  0
 23 24  1  0
 24 25  1  0
 25 26  1  0
 26 27  1  0
 18 28  1  0
 28 29  1  0
 29 30  2  0
  9  3  1  0
 29 15  1  0
 27 23  1  0
  1 31  1  0
  1 32  1  0
  1 33  1  0
  4 34  1  0
  5 35  1  0
  8 36  1  0
 10 37  1  0
 10 38  1  0
 11 39  1  0
 14 40  1  0
 14 41  1  0
 19 42  1  0
 19 43  1  0
 23 44  1  0
 24 45  1  0
 24 46  1  0
 25 47  1  0
 25 48  1  0
 26 49  1  0
 26 50  1  0
 27 51  1  0
 27 52  1  0
M  CHG  3  17  -1  22  -1  28  -1
M  END
>  <UniqueID>  (34) 
30

>  <SMILES>  (34) 
COc1ccc(Cl)cc1CNC(=O)Cn1c([O-])c(CC(=O)[N-]C2CCCC2)[n-]c1=O

>  <Energy>  (34) 
75.52929852327574

>  <Genealogy>  (34) 
COc1ccc(Cl)cc1CNC(=O)Cn1c([O-])c(CC(=O)[N-]C2CCCC2)[n-]c1=O (protonated)
COc1ccc(Cl)cc1CNC(=O)Cn1c([O-])c(CC(=O)[N-]C2CCCC2)[n-]c1=O (3D coordinates assigned)
COc1ccc(Cl)cc1CNC(=O)Cn1c([O-])c(CC(=O)[N-]C2CCCC2)[n-]c1=O (nonaromatic ring conformer: 75.52929852327574 kcal/mol)

>  <smiles>  (34) 
COc1ccc(Cl)cc1CNC(=O)Cn1c(O)c(CC(=O)NC2CCCC2)[nH]c1=O

>  <score_type>  (34) 
oracle

>  <origin>  (34) 
adg

>  <m_score__min__energy>  (34) 
-15.119999999999999

>  <m_primary>  (34) 
energy

$$$$
34:0
     RDKit          3D

 64 67  0  0  0  0  0  0  0  0999 V2000
   55.0090   30.7360   52.0120 C   0  0  0  0  0  0  0  0  0  0  0  0
   56.1770   29.9490   51.9430 O   0  0  0  0  0  0  0  0  0  0  0  0
   57.1040   30.3610   52.9310 C   0  0  0  0  0  0  0  0  0  0  0  0
   57.7410   31.6760   52.5590 C   0  0  0  0  0  0  0  0  0  0  0  0
   57.4230   32.7120   53.2060 O   0  0  0  0  0  0  0  0  0  0  0  0
   58.6820   31.7820   51.4690 N   0  0  0  0  0  0  0  0  0  0  0  0
   58.7620   30.7510   50.4210 C   0  0  0  0  0  0  0  0  0  0  0  0
   58.9920   31.3960   49.0490 C   0  0  0  0  0  0  0  0  0  0  0  0
   60.0450   32.4250   49.0970 N   0  0  0  0  0  0  0  0  0  0  0  0
   60.6180   32.9160   47.8700 C   0  0  0  0  0  0  0  0  0  0  0  0
   61.8700   33.0390   47.7780 O   0  0  0  0  0  0  0  0  0  0  0  0
   59.7700   33.2860   46.7140 C   0  0  0  0  0  0  0  0  0  0  0  0
   59.6630   34.6270   46.3110 C   0  0  0  0  0  0  0  0  0  0  0  0
   58.8830   34.9720   45.2050 C   0  0  0  0  0  0  0  0  0  0  0  0
   58.2050   33.9840   44.4900 C   0  0  0  0  0  0  0  0  0  0  0  0
   58.2990   32.6400   44.8720 C   0  0  0  0  0  0  0  0  0  0  0  0
   57.6110   31.6580   44.0810 N   0  0  0  0  0  0  0  0  0  0  0  0
   56.7700   30.5890   44.5410 C   0  0  0  0  0  0  0  0  0  0  0  0
   55.5160   30.6870   44.4580 O   0  0  0  0  0  0  0  0  0  0  0  0
   57.3750   29.3300   45.0380 C   0  0  0  0  0  0  0  0  0  0  0  0
   57.5120   28.2210   44.1840 C   0  0  0  0  0  0  0  0  0  0  0  0
   58.1020   27.0410   44.6420 C   0  0  0  0  0  0  0  0  0  0  0  0
   58.5730   26.9480   45.9610 C   0  0  0  0  0  0  0  0  0  0  0  0
   59.1770   25.6670   46.4580 C   0  0  0  0  0  0  0  0  0  0  0  0
   58.1130   24.7670   46.8930 N   0  0  0  0  0  0  0  0  0  0  0  0
   56.9280   24.4720   46.1450 C   0  0  0  0  0  0  0  0  0  0  0  0
   55.8870   25.1370   46.3870 O   0  0  0  0  0  0  0  0  0  0  0  0
   56.9050   23.4550   45.0700 C   0  0  0  0  0  0  0  0  0  0  0  0
   55.8920   23.4540   44.1000 C   0  0  0  0  0  0  0  0  0  0  0  0
   55.9310   22.5450   43.0890 N   0  0  0  0  0  0  0  0  0  0  0  0
   56.9390   21.6390   42.9940 C   0  0  0  0  0  0  0  0  0  0  0  0
   57.9550   21.6420   43.9500 C   0  0  0  0  0  0  0  0  0  0  0  0
   57.9150   22.5500   44.9600 N   0  0  0  0  0  0  0  0  0  0  0  0
   58.4180   28.0420   46.8250 C   0  0  0  0  0  0  0  0  0  0  0  0
   57.8270   29.2240   46.3680 C   0  0  0  0  0  0  0  0  0  0  0  0
   59.1070   32.2910   45.9730 C   0  0  0  0  0  0  0  0  0  0  0  0
   60.6900   32.7540   50.3720 C   0  0  0  0  0  0  0  0  0  0  0  0
   59.6320   32.9070   51.4680 C   0  0  0  0  0  0  0  0  0  0  0  0
   54.7474   30.9123   53.0658 H   0  0  0  0  0  0  0  0  0  0  0  0
   55.1861   31.6997   51.5120 H   0  0  0  0  0  0  0  0  0  0  0  0
   54.1824   30.2100   51.5120 H   0  0  0  0  0  0  0  0  0  0  0  0
   56.5797   30.4741   53.8914 H   0  0  0  0  0  0  0  0  0  0  0  0
   57.8934   29.5991   53.0105 H   0  0  0  0  0  0  0  0  0  0  0  0
   59.5967   30.0707   50.6456 H   0  0  0  0  0  0  0  0  0  0  0  0
   57.8140   30.1936   50.3974 H   0  0  0  0  0  0  0  0  0  0  0  0
   59.2899   30.6150   48.3340 H   0  0  0  0  0  0  0  0  0  0  0  0
   58.0548   31.8806   48.7380 H   0  0  0  0  0  0  0  0  0  0  0  0
   60.1965   35.4101   46.8696 H   0  0  0  0  0  0  0  0  0  0  0  0
   58.8030   36.0249   44.8969 H   0  0  0  0  0  0  0  0  0  0  0  0
   57.5923   34.2628   43.6200 H   0  0  0  0  0  0  0  0  0  0  0  0
   57.1514   28.2836   43.1467 H   0  0  0  0  0  0  0  0  0  0  0  0
   58.1982   26.1793   43.9651 H   0  0  0  0  0  0  0  0  0  0  0  0
   59.7506   25.1929   45.6479 H   0  0  0  0  0  0  0  0  0  0  0  0
   59.8472   25.8802   47.3038 H   0  0  0  0  0  0  0  0  0  0  0  0
   55.0710   24.1839   44.1565 H   0  0  0  0  0  0  0  0  0  0  0  0
   56.9539   20.9097   42.1707 H   0  0  0  0  0  0  0  0  0  0  0  0
   58.7798   20.9169   43.8868 H   0  0  0  0  0  0  0  0  0  0  0  0
   58.7630   27.9698   47.8670 H   0  0  0  0  0  0  0  0  0  0  0  0
   57.7141   30.0777   47.0524 H   0  0  0  0  0  0  0  0  0  0  0  0
   59.2198   31.2337   46.2546 H   0  0  0  0  0  0  0  0  0  0  0  0
   61.3860   31.9479   50.6472 H   0  0  0  0  0  0  0  0  0  0  0  0
   61.2401   33.7006   50.2655 H   0  0  0  0  0  0  0  0  0  0  0  0
   60.1349   32.9498   52.4454 H   0  0  0  0  0  0  0  0  0  0  0  0
   59.0684   33.8315   51.2738 H   0  0  0  0  0  0  0  0  0  0  0  0
  1  2  1  0
  2  3  1  0
  3  4  1  0
  4  5  2  0
  4  6  1  0
  6  7  1  0
  7  8  1  0
  8  9  1  0
  9 10  1  0
 10 11  2  0
 10 12  1  0
 12 13  2  0
 13 14  1  0
 14 15  2  0
 15 16  1  0
 16 17  1  0
 17 18  1  0
 18 19  2  0
 18 20  1  0
 20 21  2  0
 21 22  1  0
 22 23  2  0
 23 24  1  0
 24 25  1  0
 25 26  1  0
 26 27  2  0
 26 28  1  0
 28 29  2  0
 29 30  1  0
 30 31  2  0
 31 32  1  0
 32 33  2  0
 23 34  1  0
 34 35  2  0
 16 36  2  0
  9 37  1  0
 37 38  1  0
 38  6  1  0
 36 12  1  0
 35 20  1  0
 33 28  1  0
  1 39  1  0
  1 40  1  0
  1 41  1  0
  3 42  1  0
  3 43  1  0
  7 44  1  0
  7 45  1  0
  8 46  1  0
  8 47  1  0
 13 48  1  0
 14 49  1  0
 15 50  1  0
 21 51  1  0
 22 52  1  0
 24 53  1  0
 24 54  1  0
 29 55  1  0
 31 56  1  0
 32 57  1  0
 34 58  1  0
 35 59  1  0
 36 60  1  0
 37 61  1  0
 37 62  1  0
 38 63  1  0
 38 64  1  0
M  CHG  2  17  -1  25  -1
M  END
>  <UniqueID>  (35) 
31

>  <SMILES>  (35) 
COCC(=O)N1CCN(C(=O)c2cccc([N-]C(=O)c3ccc(C[N-]C(=O)c4cnccn4)cc3)c2)CC1

>  <Energy>  (35) 
84.7027136842572

>  <Genealogy>  (35) 
COCC(=O)N1CCN(C(=O)c2cccc([N-]C(=O)c3ccc(C[N-]C(=O)c4cnccn4)cc3)c2)CC1 (protonated)
COCC(=O)N1CCN(C(=O)c2cccc([N-]C(=O)c3ccc(C[N-]C(=O)c4cnccn4)cc3)c2)CC1 (3D coordinates assigned)
COCC(=O)N1CCN(C(=O)c2cccc([N-]C(=O)c3ccc(C[N-]C(=O)c4cnccn4)cc3)c2)CC1 (nonaromatic ring conformer: 84.7027136842572 kcal/mol)

>  <smiles>  (35) 
COCC(=O)N1CCN(C(=O)c2cccc(NC(=O)c3ccc(CNC(=O)c4cnccn4)cc3)c2)CC1

>  <score_type>  (35) 
oracle

>  <origin>  (35) 
adg

>  <m_score__min__energy>  (35) 
-13.1

>  <m_primary>  (35) 
energy

$$$$
35:0
     RDKit          3D

 38 38  0  0  0  0  0  0  0  0999 V2000
   63.6050   32.8510   47.3430 C   0  0  0  0  0  0  0  0  0  0  0  0
   62.6120   33.8260   46.7140 C   0  0  0  0  0  0  0  0  0  0  0  0
   61.2290   33.7970   47.3870 C   0  0  0  0  0  0  0  0  0  0  0  0
   60.1330   33.1480   46.5170 C   0  0  0  0  0  0  0  0  0  0  0  0
   58.9770   34.1170   46.2180 C   0  0  0  0  0  0  0  0  0  0  0  0
   57.6160   33.4080   46.1780 C   0  0  0  0  0  0  0  0  0  0  0  0
   57.4130   32.6640   44.8890 C   0  0  0  0  0  0  0  0  0  0  0  0
   58.0930   33.0520   43.7270 C   0  0  0  0  0  0  0  0  0  0  0  0
   57.8910   32.3200   42.5550 C   0  0  0  0  0  0  0  0  0  0  0  0
   58.4850   32.6460   41.4940 O   0  0  0  0  0  0  0  0  0  0  0  0
   57.0250   31.2270   42.5690 C   0  0  0  0  0  0  0  0  0  0  0  0
   56.3800   30.8900   43.7680 C   0  0  0  0  0  0  0  0  0  0  0  0
   55.4350   29.7280   43.8350 C   0  0  0  0  0  0  0  0  0  0  0  0
   55.7290   28.9180   44.9710 O   0  0  0  0  0  0  0  0  0  0  0  0
   57.0230   28.4970   45.2980 C   0  0  0  0  0  0  0  0  0  0  0  0
   57.8680   27.8460   44.2570 C   0  0  0  0  0  0  0  0  0  0  0  0
   57.4960   28.6970   46.4490 O   0  0  0  0  0  0  0  0  0  0  0  0
   56.5970   31.6120   44.8660 O   0  0  0  0  0  0  0  0  0  0  0  0
   63.5386   32.9162   48.4391 H   0  0  0  0  0  0  0  0  0  0  0  0
   63.3666   31.8264   47.0215 H   0  0  0  0  0  0  0  0  0  0  0  0
   64.6251   33.1081   47.0215 H   0  0  0  0  0  0  0  0  0  0  0  0
   63.0205   34.8440   46.7971 H   0  0  0  0  0  0  0  0  0  0  0  0
   62.4732   33.5222   45.6660 H   0  0  0  0  0  0  0  0  0  0  0  0
   61.3105   33.2285   48.3252 H   0  0  0  0  0  0  0  0  0  0  0  0
   60.9303   34.8421   47.5561 H   0  0  0  0  0  0  0  0  0  0  0  0
   60.5808   32.8267   45.5650 H   0  0  0  0  0  0  0  0  0  0  0  0
   59.7213   32.2941   47.0750 H   0  0  0  0  0  0  0  0  0  0  0  0
   58.9508   34.8884   47.0017 H   0  0  0  0  0  0  0  0  0  0  0  0
   59.1557   34.5571   45.2258 H   0  0  0  0  0  0  0  0  0  0  0  0
   57.5614   32.6945   47.0135 H   0  0  0  0  0  0  0  0  0  0  0  0
   56.8293   34.1726   46.2594 H   0  0  0  0  0  0  0  0  0  0  0  0
   58.7729   33.9166   43.7377 H   0  0  0  0  0  0  0  0  0  0  0  0
   56.8508   30.6394   41.6556 H   0  0  0  0  0  0  0  0  0  0  0  0
   54.4037   30.1026   43.9132 H   0  0  0  0  0  0  0  0  0  0  0  0
   55.5468   29.1219   42.9239 H   0  0  0  0  0  0  0  0  0  0  0  0
   58.6497   27.2438   44.7431 H   0  0  0  0  0  0  0  0  0  0  0  0
   57.2408   27.1954   43.6298 H   0  0  0  0  0  0  0  0  0  0  0  0
   58.3371   28.6184   43.6298 H   0  0  0  0  0  0  0  0  0  0  0  0
  1  2  1  0
  2  3  1  0
  3  4  1  0
  4  5  1  0
  5  6  1  0
  6  7  1  0
  7  8  2  0
  8  9  1  0
  9 10  2  0
  9 11  1  0
 11 12  2  0
 12 13  1  0
 13 14  1  0
 14 15  1  0
 15 16  1  0
 15 17  2  0
 12 18  1  0
 18  7  1  0
  1 19  1  0
  1 20  1  0
  1 21  1  0
  2 22  1  0
  2 23  1  0
  3 24  1  0
  3 25  1  0
  4 26  1  0
  4 27  1  0
  5 28  1  0
  5 29  1  0
  6 30  1  0
  6 31  1  0
  8 32  1  0
 11 33  1  0
 13 34  1  0
 13 35  1  0
 16 36  1  0
 16 37  1  0
 16 38  1  0
M  END
>  <UniqueID>  (36) 
32

>  <SMILES>  (36) 
CCCCCCc1cc(=O)cc(COC(C)=O)o1

>  <Energy>  (36) 
24.859184781303398

>  <Genealogy>  (36) 
CCCCCCc1cc(=O)cc(COC(C)=O)o1 (3D coordinates assigned)
CCCCCCc1cc(=O)cc(COC(C)=O)o1 (optimized conformer: 24.859184781303398 kcal/mol)

>  <smiles>  (36) 
CCCCCCc1cc(=O)cc(COC(C)=O)o1

>  <score_type>  (36) 
oracle

>  <origin>  (36) 
adg

>  <m_score__min__energy>  (36) 
-6.9299999999999997

>  <m_primary>  (36) 
energy

$$$$
36:0
     RDKit          3D

 31 33  0  0  0  0  0  0  0  0999 V2000
   57.3672   32.3188   42.6786 H   0  0  0  0  0  0  0  0  0  0  0  0
   57.1810   31.5510   43.4440 C   0  0  0  0  0  0  0  0  0  0  0  0
   56.4840   30.0410   43.1770 S   0  0  0  0  0  0  0  0  0  0  0  0
   56.6020   29.5920   44.7860 C   0  0  0  0  0  0  0  0  0  0  0  0
   56.1890   28.4490   45.2500 N   0  0  0  0  0  0  0  0  0  0  0  0
   57.0080   27.4490   45.8790 C   0  0  0  0  0  0  0  0  0  0  0  0
   58.1650   27.9430   46.9260 S   0  0  0  0  0  0  0  0  0  0  0  0
   56.7470   26.0000   45.7260 C   0  0  0  0  0  0  0  0  0  0  0  0
   57.8200   25.1140   45.5340 C   0  0  0  0  0  0  0  0  0  0  0  0
   58.8509   25.4975   45.5244 H   0  0  0  0  0  0  0  0  0  0  0  0
   57.5850   23.7470   45.3550 C   0  0  0  0  0  0  0  0  0  0  0  0
   58.6250   22.9000   45.1580 F   0  0  0  0  0  0  0  0  0  0  0  0
   56.2780   23.2540   45.3740 C   0  0  0  0  0  0  0  0  0  0  0  0
   56.0939   22.1793   45.2283 H   0  0  0  0  0  0  0  0  0  0  0  0
   55.2040   24.1250   45.5780 C   0  0  0  0  0  0  0  0  0  0  0  0
   54.1763   23.7332   45.5970 H   0  0  0  0  0  0  0  0  0  0  0  0
   55.4320   25.4930   45.7580 C   0  0  0  0  0  0  0  0  0  0  0  0
   54.3510   26.3400   45.9770 O   0  0  0  0  0  0  0  0  0  0  0  0
   57.1510   30.5650   45.5420 N   0  0  0  0  0  0  0  0  0  0  0  0
   57.4830   31.6620   44.8070 C   0  0  0  0  0  0  0  0  0  0  0  0
   58.1280   32.8440   45.4370 C   0  0  0  0  0  0  0  0  0  0  0  0
   58.2520   32.9610   46.8370 C   0  0  0  0  0  0  0  0  0  0  0  0
   57.8648   32.1637   47.4885 H   0  0  0  0  0  0  0  0  0  0  0  0
   58.8640   34.0840   47.4020 C   0  0  0  0  0  0  0  0  0  0  0  0
   58.9548   34.1669   48.4951 H   0  0  0  0  0  0  0  0  0  0  0  0
   59.3600   35.1000   46.5840 C   0  0  0  0  0  0  0  0  0  0  0  0
   59.8395   35.9824   47.0328 H   0  0  0  0  0  0  0  0  0  0  0  0
   59.2480   34.9970   45.1970 C   0  0  0  0  0  0  0  0  0  0  0  0
   59.6398   35.7981   44.5530 H   0  0  0  0  0  0  0  0  0  0  0  0
   58.6380   33.8760   44.6250 C   0  0  0  0  0  0  0  0  0  0  0  0
   58.5557   33.7994   43.5308 H   0  0  0  0  0  0  0  0  0  0  0  0
  1  2  1  0
  2  3  1  0
  3  4  1  0
  4  5  2  0
  5  6  1  0
  6  7  2  0
  6  8  1  0
  8  9  2  0
  9 10  1  0
  9 11  1  0
 11 12  1  0
 11 13  2  0
 13 14  1  0
 13 15  1  0
 15 16  1  0
 15 17  2  0
 17 18  1  0
  4 19  1  0
 19 20  1  0
 20 21  1  0
 21 22  2  0
 22 23  1  0
 22 24  1  0
 24 25  1  0
 24 26  2  0
 26 27  1  0
 26 28  1  0
 28 29  1  0
 28 30  2  0
 30 31  1  0
 20  2  2  0
 30 21  1  0
 17  8  1  0
M  CHG  2  18  -1  19  -1
M  END
>  <UniqueID>  (37) 
33

>  <SMILES>  (37) 
[O-]c1ccc(F)cc1C(=S)/N=c1\[n-]c(-c2ccccc2)cs1

>  <Energy>  (37) 
73.67021974088554

>  <Genealogy>  (37) 
[O-]c1ccc(F)cc1C(=S)N=c1[n-]c(-c2ccccc2)cs1 (protonated)
[O-]c1ccc(F)cc1C(=S)/N=c1\[n-]c(-c2ccccc2)cs1 (cis-trans isomerization)
[O-]c1ccc(F)cc1C(=S)/N=c1\[n-]c(-c2ccccc2)cs1 (3D coordinates assigned)
[O-]c1ccc(F)cc1C(=S)/N=c1\[n-]c(-c2ccccc2)cs1 (optimized conformer: 73.67021974088554 kcal/mol)

>  <smiles>  (37) 
Oc1ccc(F)cc1C(=S)N=c1[nH]c(-c2ccccc2)cs1

>  <score_type>  (37) 
oracle

>  <origin>  (37) 
adg

>  <m_score__min__energy>  (37) 
-14.32

>  <m_primary>  (37) 
energy

$$$$
37:0
     RDKit          3D

 46 49  0  0  0  0  0  0  0  0999 V2000
   55.3377   27.4916   53.2254 H   0  0  0  0  0  0  0  0  0  0  0  0
   54.5210   28.2030   53.0330 C   0  0  0  0  0  0  0  0  0  0  0  0
   53.4798   27.9136   53.2381 H   0  0  0  0  0  0  0  0  0  0  0  0
   54.7950   29.4240   52.5480 C   0  0  0  0  0  0  0  0  0  0  0  0
   53.8720   30.4420   52.2500 C   0  0  0  0  0  0  0  0  0  0  0  0
   52.5300   30.4130   52.1420 C   0  0  0  0  0  0  0  0  0  0  0  0
   51.9617   30.0861   53.0253 H   0  0  0  0  0  0  0  0  0  0  0  0
   51.7580   30.7810   50.9440 C   0  0  0  0  0  0  0  0  0  0  0  0
   51.7080   30.0570   49.8100 N   0  0  0  0  0  0  0  0  0  0  0  0
   51.0090   30.8470   48.9670 C   0  0  0  0  0  0  0  0  0  0  0  0
   50.7350   30.5030   47.7880 O   0  0  0  0  0  0  0  0  0  0  0  0
   50.6360   32.0370   49.4830 N   0  0  0  0  0  0  0  0  0  0  0  0
   51.1310   31.9840   50.7300 C   0  0  0  0  0  0  0  0  0  0  0  0
   51.0160   33.0170   51.6510 O   0  0  0  0  0  0  0  0  0  0  0  0
   54.6160   31.5920   52.0460 C   0  0  0  0  0  0  0  0  0  0  0  0
   54.2231   32.5995   51.8444 H   0  0  0  0  0  0  0  0  0  0  0  0
   55.9450   31.2320   52.1440 C   0  0  0  0  0  0  0  0  0  0  0  0
   57.0950   32.1760   51.9660 C   0  0  0  0  0  0  0  0  0  0  0  0
   57.4716   32.4852   52.9522 H   0  0  0  0  0  0  0  0  0  0  0  0
   57.8987   31.6737   51.4076 H   0  0  0  0  0  0  0  0  0  0  0  0
   56.7589   33.0621   51.4076 H   0  0  0  0  0  0  0  0  0  0  0  0
   56.0550   29.9190   52.4480 N   0  0  0  0  0  0  0  0  0  0  0  0
   57.2880   29.2060   52.6620 C   0  0  0  0  0  0  0  0  0  0  0  0
   57.4370   28.3690   53.7680 C   0  0  0  0  0  0  0  0  0  0  0  0
   56.6107   28.2542   54.4850 H   0  0  0  0  0  0  0  0  0  0  0  0
   58.6310   27.6780   53.9660 C   0  0  0  0  0  0  0  0  0  0  0  0
   58.7436   27.0168   54.8379 H   0  0  0  0  0  0  0  0  0  0  0  0
   59.6980   27.8240   53.0500 C   0  0  0  0  0  0  0  0  0  0  0  0
   60.9580   27.1100   53.2390 N   0  0  0  0  0  0  0  0  0  0  0  0
   62.1440   27.8560   53.7060 C   0  0  0  0  0  0  0  0  0  0  0  0
   62.3987   28.6131   52.9498 H   0  0  0  0  0  0  0  0  0  0  0  0
   61.8819   28.3050   54.6754 H   0  0  0  0  0  0  0  0  0  0  0  0
   63.3720   26.9710   53.9380 C   0  0  0  0  0  0  0  0  0  0  0  0
   64.2772   27.5952   53.9054 H   0  0  0  0  0  0  0  0  0  0  0  0
   63.2752   26.4859   54.9205 H   0  0  0  0  0  0  0  0  0  0  0  0
   63.4650   25.9720   52.9500 O   0  0  0  0  0  0  0  0  0  0  0  0
   62.4140   25.0570   53.1450 C   0  0  0  0  0  0  0  0  0  0  0  0
   62.5679   24.1882   52.4881 H   0  0  0  0  0  0  0  0  0  0  0  0
   62.4114   24.7486   54.2009 H   0  0  0  0  0  0  0  0  0  0  0  0
   61.0600   25.6940   52.8220 C   0  0  0  0  0  0  0  0  0  0  0  0
   60.9000   25.6390   51.7351 H   0  0  0  0  0  0  0  0  0  0  0  0
   60.2978   25.1357   53.3853 H   0  0  0  0  0  0  0  0  0  0  0  0
   59.5130   28.6520   51.9690 N   0  0  0  0  0  0  0  0  0  0  0  0
   60.2580   28.7900   51.2540 H   0  0  0  0  0  0  0  0  0  0  0  0
   58.3510   29.3320   51.7650 C   0  0  0  0  0  0  0  0  0  0  0  0
   58.2487   29.9860   50.8864 H   0  0  0  0  0  0  0  0  0  0  0  0
  1  2  1  0
  2  3  1  0
  2  4  2  0
  4  5  1  0
  5  6  2  0
  6  7  1  0
  6  8  1  0
  8  9  1  0
  9 10  1  0
 10 11  2  0
 10 12  1  0
 12 13  1  0
 13 14  1  0
  5 15  1  0
 15 16  1  0
 15 17  2  0
 17 18  1  0
 18 19  1  0
 18 20  1  0
 18 21  1  0
 17 22  1  0
 22 23  1  0
 23 24  2  0
 24 25  1  0
 24 26  1  0
 26 27  1  0
 26 28  2  0
 28 29  1  0
 29 30  1  0
 30 31  1  0
 30 32  1  0
 30 33  1  0
 33 34  1  0
 33 35  1  0
 33 36  1  0
 36 37  1  0
 37 38  1  0
 37 39  1  0
 37 40  1  0
 40 41  1  0
 40 42  1  0
 28 43  1  0
 43 44  1  0
 43 45  2  0
 45 46  1  0
 22  4  1  0
 45 23  1  0
 13  8  2  0
 40 29  1  0
M  CHG  4   9  -1  12  -1  14  -1  43   1
M  END
>  <UniqueID>  (38) 
34

>  <SMILES>  (38) 
C=c1/c(=C\c2[n-]c(=O)[n-]c2[O-])cc(C)n1-c1ccc(N2CCOCC2)[nH+]c1

>  <Energy>  (38) 
131.36386471772025

>  <Genealogy>  (38) 
C=c1c(=Cc2[n-]c(=O)[n-]c2[O-])cc(C)n1-c1ccc(N2CCOCC2)[nH+]c1 (protonated)
C=c1/c(=C\c2[n-]c(=O)[n-]c2[O-])cc(C)n1-c1ccc(N2CCOCC2)[nH+]c1 (cis-trans isomerization)
C=c1/c(=C\c2[n-]c(=O)[n-]c2[O-])cc(C)n1-c1ccc(N2CCOCC2)[nH+]c1 (3D coordinates assigned)
C=c1/c(=C\c2[n-]c(=O)[n-]c2[O-])cc(C)n1-c1ccc(N2CCOCC2)[nH+]c1 (nonaromatic ring conformer: 131.36386471772025 kcal/mol)

>  <smiles>  (38) 
C=c1c(=Cc2[nH]c(=O)[nH]c2O)cc(C)n1-c1ccc(N2CCOCC2)nc1

>  <score_type>  (38) 
oracle

>  <origin>  (38) 
adg

>  <m_score__min__energy>  (38) 
-14.460000000000001

>  <m_primary>  (38) 
energy

$$$$
38:0
     RDKit          3D

 52 56  0  0  0  0  0  0  0  0999 V2000
   56.2379   24.4397   47.8644 H   0  0  0  0  0  0  0  0  0  0  0  0
   55.9240   24.5970   46.8220 C   0  0  0  0  0  0  0  0  0  0  0  0
   56.1840   25.9060   46.1870 C   0  0  0  0  0  0  0  0  0  0  0  0
   55.2390   26.7170   45.9960 O   0  0  0  0  0  0  0  0  0  0  0  0
   57.5170   26.3110   45.8440 N   0  0  0  0  0  0  0  0  0  0  0  0
   58.0990   27.6000   46.0830 C   0  0  0  0  0  0  0  0  0  0  0  0
   59.2810   27.7490   46.8270 C   0  0  0  0  0  0  0  0  0  0  0  0
   59.7746   26.8633   47.2535 H   0  0  0  0  0  0  0  0  0  0  0  0
   59.8330   29.0170   47.0280 C   0  0  0  0  0  0  0  0  0  0  0  0
   60.7498   29.1248   47.6263 H   0  0  0  0  0  0  0  0  0  0  0  0
   59.2250   30.1560   46.4710 C   0  0  0  0  0  0  0  0  0  0  0  0
   59.8080   31.5050   46.6930 C   0  0  0  0  0  0  0  0  0  0  0  0
   59.2430   32.6360   46.0800 C   0  0  0  0  0  0  0  0  0  0  0  0
   58.3624   32.5232   45.4305 H   0  0  0  0  0  0  0  0  0  0  0  0
   59.7920   33.9010   46.2900 C   0  0  0  0  0  0  0  0  0  0  0  0
   59.3427   34.7802   45.8051 H   0  0  0  0  0  0  0  0  0  0  0  0
   60.9080   34.0560   47.1120 C   0  0  0  0  0  0  0  0  0  0  0  0
   61.3345   35.0574   47.2711 H   0  0  0  0  0  0  0  0  0  0  0  0
   61.4910   32.9420   47.7380 C   0  0  0  0  0  0  0  0  0  0  0  0
   62.6740   33.1330   48.6100 C   0  0  0  0  0  0  0  0  0  0  0  0
   62.6710   33.8650   49.6990 O   0  0  0  0  0  0  0  0  0  0  0  0
   63.8490   33.8470   50.2540 N   0  0  0  0  0  0  0  0  0  0  0  0
   64.6040   33.0660   49.4580 C   0  0  0  0  0  0  0  0  0  0  0  0
   66.0550   32.7790   49.7440 C   0  0  0  0  0  0  0  0  0  0  0  0
   66.3411   32.7057   48.6844 H   0  0  0  0  0  0  0  0  0  0  0  0
   66.6410   33.4560   50.9740 C   0  0  0  0  0  0  0  0  0  0  0  0
   67.6831   33.8081   50.9641 H   0  0  0  0  0  0  0  0  0  0  0  0
   66.3566   34.3157   51.5985 H   0  0  0  0  0  0  0  0  0  0  0  0
   66.3420   31.9640   50.9960 C   0  0  0  0  0  0  0  0  0  0  0  0
   67.1680   31.2376   51.0021 H   0  0  0  0  0  0  0  0  0  0  0  0
   65.7519   31.2984   51.6431 H   0  0  0  0  0  0  0  0  0  0  0  0
   63.8940   32.5970   48.4090 N   0  0  0  0  0  0  0  0  0  0  0  0
   64.2180   31.9770   47.6350 H   0  0  0  0  0  0  0  0  0  0  0  0
   60.9330   31.6680   47.5230 C   0  0  0  0  0  0  0  0  0  0  0  0
   61.3814   30.7892   48.0094 H   0  0  0  0  0  0  0  0  0  0  0  0
   58.0610   29.9970   45.6990 C   0  0  0  0  0  0  0  0  0  0  0  0
   57.5805   30.8775   45.2476 H   0  0  0  0  0  0  0  0  0  0  0  0
   57.5100   28.7280   45.5010 C   0  0  0  0  0  0  0  0  0  0  0  0
   56.6069   28.6151   44.8832 H   0  0  0  0  0  0  0  0  0  0  0  0
   55.3180   23.5950   46.1690 C   0  0  0  0  0  0  0  0  0  0  0  0
   54.3230   23.2764   46.5133 H   0  0  0  0  0  0  0  0  0  0  0  0
   55.9160   22.8930   45.0080 C   0  0  0  0  0  0  0  0  0  0  0  0
   55.6790   23.2930   43.6760 C   0  0  0  0  0  0  0  0  0  0  0  0
   55.0374   24.1629   43.4721 H   0  0  0  0  0  0  0  0  0  0  0  0
   56.2550   22.5900   42.6140 C   0  0  0  0  0  0  0  0  0  0  0  0
   56.0707   22.9125   41.5786 H   0  0  0  0  0  0  0  0  0  0  0  0
   57.0640   21.4790   42.8640 C   0  0  0  0  0  0  0  0  0  0  0  0
   57.5214   20.9320   42.0264 H   0  0  0  0  0  0  0  0  0  0  0  0
   57.2920   21.0630   44.1770 C   0  0  0  0  0  0  0  0  0  0  0  0
   57.9249   20.1849   44.3727 H   0  0  0  0  0  0  0  0  0  0  0  0
   56.7170   21.7610   45.2440 C   0  0  0  0  0  0  0  0  0  0  0  0
   56.8925   21.4221   46.2757 H   0  0  0  0  0  0  0  0  0  0  0  0
  1  2  1  0
  2  3  1  0
  3  4  2  0
  3  5  1  0
  5  6  1  0
  6  7  2  0
  7  8  1  0
  7  9  1  0
  9 10  1  0
  9 11  2  0
 11 12  1  0
 12 13  2  0
 13 14  1  0
 13 15  1  0
 15 16  1  0
 15 17  2  0
 17 18  1  0
 17 19  1  0
 19 20  1  0
 20 21  1  0
 21 22  1  0
 22 23  2  0
 23 24  1  0
 24 25  1  0
 24 26  1  0
 26 27  1  0
 26 28  1  0
 26 29  1  0
 29 30  1  0
 29 31  1  0
 23 32  1  0
 32 33  1  0
 19 34  2  0
 34 35  1  0
 11 36  1  0
 36 37  1  0
 36 38  2  0
 38 39  1  0
  2 40  2  0
 40 41  1  0
 40 42  1  0
 42 43  2  0
 43 44  1  0
 43 45  1  0
 45 46  1  0
 45 47  2  0
 47 48  1  0
 47 49  1  0
 49 50  1  0
 49 51  2  0
 51 52  1  0
 38  6  1  0
 51 42  1  0
 34 12  1  0
 32 20  2  0
 29 24  1  0
M  CHG  2   5  -1  32   1
M  END
>  <UniqueID>  (39) 
35

>  <SMILES>  (39) 
O=C(/C=C/c1ccccc1)[N-]c1ccc(-c2cccc(-c3[nH+]c(C4CC4)no3)c2)cc1

>  <Energy>  (39) 
369.5064723868193

>  <Genealogy>  (39) 
O=C(C=Cc1ccccc1)[N-]c1ccc(-c2cccc(-c3[nH+]c(C4CC4)no3)c2)cc1 (protonated)
O=C(/C=C/c1ccccc1)[N-]c1ccc(-c2cccc(-c3[nH+]c(C4CC4)no3)c2)cc1 (cis-trans isomerization)
O=C(/C=C/c1ccccc1)[N-]c1ccc(-c2cccc(-c3[nH+]c(C4CC4)no3)c2)cc1 (3D coordinates assigned)
O=C(/C=C/c1ccccc1)[N-]c1ccc(-c2cccc(-c3[nH+]c(C4CC4)no3)c2)cc1 (nonaromatic ring conformer: 369.5064723868193 kcal/mol)

>  <smiles>  (39) 
O=C(C=Cc1ccccc1)Nc1ccc(-c2cccc(-c3nc(C4CC4)no3)c2)cc1

>  <score_type>  (39) 
oracle

>  <origin>  (39) 
adg

>  <m_score__min__energy>  (39) 
-10.380000000000001

>  <m_primary>  (39) 
energy

$$$$
39:0
     RDKit          3D

 42 44  0  0  0  0  0  0  0  0999 V2000
   55.3370   30.0920   45.6140 H   0  0  0  0  0  0  0  0  0  0  0  0
   55.4600   29.3080   44.9850 O   0  0  0  0  0  0  0  0  0  0  0  0
   56.2740   28.2160   45.2900 C   0  0  0  0  0  0  0  0  0  0  0  0
   55.7110   27.1260   45.8710 N   0  0  0  0  0  0  0  0  0  0  0  0
   56.4510   26.0330   46.1900 C   0  0  0  0  0  0  0  0  0  0  0  0
   55.9010   25.0360   46.7240 O   0  0  0  0  0  0  0  0  0  0  0  0
   57.7840   26.0180   45.9410 N   0  0  0  0  0  0  0  0  0  0  0  0
   58.4020   27.0810   45.3630 C   0  0  0  0  0  0  0  0  0  0  0  0
   59.6450   27.0390   45.1640 O   0  0  0  0  0  0  0  0  0  0  0  0
   57.6520   28.2150   45.0000 C   0  0  0  0  0  0  0  0  0  0  0  0
   58.3070   29.4030   44.4150 C   0  0  0  0  0  0  0  0  0  0  0  0
   58.6747   29.3165   43.3819 H   0  0  0  0  0  0  0  0  0  0  0  0
   58.4930   30.5840   45.0380 C   0  0  0  0  0  0  0  0  0  0  0  0
   57.8770   31.7490   44.6170 C   0  0  0  0  0  0  0  0  0  0  0  0
   57.2392   31.8680   43.7287 H   0  0  0  0  0  0  0  0  0  0  0  0
   58.2140   32.7310   45.5210 C   0  0  0  0  0  0  0  0  0  0  0  0
   57.6870   34.1350   45.4730 C   0  0  0  0  0  0  0  0  0  0  0  0
   57.5466   34.5092   46.4978 H   0  0  0  0  0  0  0  0  0  0  0  0
   58.4049   34.7782   44.9430 H   0  0  0  0  0  0  0  0  0  0  0  0
   56.7232   34.1470   44.9430 H   0  0  0  0  0  0  0  0  0  0  0  0
   59.0380   32.2400   46.4760 N   0  0  0  0  0  0  0  0  0  0  0  0
   59.5410   33.0030   47.6320 C   0  0  0  0  0  0  0  0  0  0  0  0
   59.0821   34.0027   47.6335 H   0  0  0  0  0  0  0  0  0  0  0  0
   59.2795   32.4648   48.5550 H   0  0  0  0  0  0  0  0  0  0  0  0
   61.0390   33.1450   47.5580 C   0  0  0  0  0  0  0  0  0  0  0  0
   61.6430   33.7300   46.4340 C   0  0  0  0  0  0  0  0  0  0  0  0
   61.0204   34.0676   45.5923 H   0  0  0  0  0  0  0  0  0  0  0  0
   63.0300   33.8860   46.3780 C   0  0  0  0  0  0  0  0  0  0  0  0
   63.4948   34.3494   45.4953 H   0  0  0  0  0  0  0  0  0  0  0  0
   63.8280   33.4550   47.4400 C   0  0  0  0  0  0  0  0  0  0  0  0
   64.9188   33.5902   47.3967 H   0  0  0  0  0  0  0  0  0  0  0  0
   63.2420   32.8500   48.5620 C   0  0  0  0  0  0  0  0  0  0  0  0
   64.0930   32.4230   49.7220 C   0  0  0  0  0  0  0  0  0  0  0  0
   63.5844   32.6782   50.6634 H   0  0  0  0  0  0  0  0  0  0  0  0
   64.2564   31.3362   49.6764 H   0  0  0  0  0  0  0  0  0  0  0  0
   65.0620   32.9417   49.6764 H   0  0  0  0  0  0  0  0  0  0  0  0
   61.8470   32.7080   48.6220 C   0  0  0  0  0  0  0  0  0  0  0  0
   61.3824   32.2513   49.5083 H   0  0  0  0  0  0  0  0  0  0  0  0
   59.2400   30.9250   46.1810 C   0  0  0  0  0  0  0  0  0  0  0  0
   60.0960   30.1290   46.8450 C   0  0  0  0  0  0  0  0  0  0  0  0
   60.6259   30.5090   47.7309 H   0  0  0  0  0  0  0  0  0  0  0  0
   60.2665   29.0977   46.5024 H   0  0  0  0  0  0  0  0  0  0  0  0
  1  2  1  0
  2  3  1  0
  3  4  1  0
  4  5  1  0
  5  6  2  0
  5  7  1  0
  7  8  1  0
  8  9  2  0
  8 10  1  0
 10 11  1  0
 11 12  1  0
 11 13  2  0
 13 14  1  0
 14 15  1  0
 14 16  2  0
 16 17  1  0
 17 18  1  0
 17 19  1  0
 17 20  1  0
 16 21  1  0
 21 22  1  0
 22 23  1  0
 22 24  1  0
 22 25  1  0
 25 26  2  0
 26 27  1  0
 26 28  1  0
 28 29  1  0
 28 30  2  0
 30 31  1  0
 30 32  1  0
 32 33  1  0
 33 34  1  0
 33 35  1  0
 33 36  1  0
 32 37  2  0
 37 38  1  0
 21 39  1  0
 39 40  2  0
 40 41  1  0
 40 42  1  0
 10  3  2  0
 39 13  1  0
 37 25  1  0
M  CHG  2   4  -1   7  -1
M  END
>  <UniqueID>  (40) 
36

>  <SMILES>  (40) 
C=c1/c(=C\c2c(O)[n-]c(=O)[n-]c2=O)cc(C)n1Cc1cccc(C)c1

>  <Energy>  (40) 
86.31940947971471

>  <Genealogy>  (40) 
C=c1c(=Cc2c(O)[n-]c(=O)[n-]c2=O)cc(C)n1Cc1cccc(C)c1 (protonated)
C=c1/c(=C\c2c(O)[n-]c(=O)[n-]c2=O)cc(C)n1Cc1cccc(C)c1 (cis-trans isomerization)
C=c1/c(=C\c2c(O)[n-]c(=O)[n-]c2=O)cc(C)n1Cc1cccc(C)c1 (3D coordinates assigned)
C=c1/c(=C\c2c(O)[n-]c(=O)[n-]c2=O)cc(C)n1Cc1cccc(C)c1 (optimized conformer: 86.31940947971471 kcal/mol)

>  <smiles>  (40) 
C=c1c(=Cc2c(O)[nH]c(=O)[nH]c2=O)cc(C)n1Cc1cccc(C)c1

>  <score_type>  (40) 
oracle

>  <origin>  (40) 
adg

>  <m_score__min__energy>  (40) 
-13.23

>  <m_primary>  (40) 
energy

$$$$
40:0
     RDKit          3D

 57 60  0  0  0  0  0  0  0  0999 V2000
   56.1910   30.4650   44.4500 O   0  0  0  0  0  0  0  0  0  0  0  0
   56.6850   29.4550   45.0250 C   0  0  0  0  0  0  0  0  0  0  0  0
   55.8880   28.2900   45.2470 N   0  0  0  0  0  0  0  0  0  0  0  0
   56.3770   27.0920   45.9250 C   0  0  0  0  0  0  0  0  0  0  0  0
   57.6610   26.5620   45.2680 C   0  0  0  0  0  0  0  0  0  0  0  0
   57.8570   25.0510   45.4610 C   0  0  0  0  0  0  0  0  0  0  0  0
   56.8150   24.2890   44.7730 N   0  0  0  0  0  0  0  0  0  0  0  0
   56.9560   23.7180   43.4470 C   0  0  0  0  0  0  0  0  0  0  0  0
   55.6160   23.0230   43.1390 C   0  0  0  0  0  0  0  0  0  0  0  0
   54.6320   23.4130   44.2530 C   0  0  0  0  0  0  0  0  0  0  0  0
   55.4780   24.1450   45.2150 C   0  0  0  0  0  0  0  0  0  0  0  0
   55.0550   24.6220   46.3010 O   0  0  0  0  0  0  0  0  0  0  0  0
   58.0140   29.4630   45.4550 O   0  0  0  0  0  0  0  0  0  0  0  0
   58.4230   30.0750   46.6460 C   0  0  0  0  0  0  0  0  0  0  0  0
   58.1200   31.4240   46.8320 C   0  0  0  0  0  0  0  0  0  0  0  0
   58.5400   32.0940   47.9770 C   0  0  0  0  0  0  0  0  0  0  0  0
   59.2720   31.4310   48.9720 C   0  0  0  0  0  0  0  0  0  0  0  0
   59.6880   32.1580   50.1400 N   0  0  0  0  0  0  0  0  0  0  0  0
   60.5810   33.6400   50.0260 S   0  0  0  0  0  0  0  0  0  0  0  0
   59.6330   34.7590   49.6970 O   0  0  0  0  0  0  0  0  0  0  0  0
   61.2350   33.9370   51.3470 O   0  0  0  0  0  0  0  0  0  0  0  0
   61.8320   33.4950   48.7840 C   0  0  0  0  0  0  0  0  0  0  0  0
   61.5900   34.0100   47.5000 C   0  0  0  0  0  0  0  0  0  0  0  0
   62.5480   33.8760   46.4910 C   0  0  0  0  0  0  0  0  0  0  0  0
   63.7550   33.2270   46.7540 C   0  0  0  0  0  0  0  0  0  0  0  0
   64.0080   32.7120   48.0280 C   0  0  0  0  0  0  0  0  0  0  0  0
   63.0550   32.8400   49.0460 C   0  0  0  0  0  0  0  0  0  0  0  0
   63.4800   32.0980   50.7640 Br  0  0  0  0  0  0  0  0  0  0  0  0
   59.5650   30.0510   48.8170 C   0  0  0  0  0  0  0  0  0  0  0  0
   60.3070   29.3400   49.7840 C   0  0  0  0  0  0  0  0  0  0  0  0
   60.5670   27.9790   49.6220 C   0  0  0  0  0  0  0  0  0  0  0  0
   60.0930   27.3030   48.5000 C   0  0  0  0  0  0  0  0  0  0  0  0
   59.3740   27.9860   47.5210 C   0  0  0  0  0  0  0  0  0  0  0  0
   59.1220   29.3670   47.6490 C   0  0  0  0  0  0  0  0  0  0  0  0
   56.5874   27.3364   46.9767 H   0  0  0  0  0  0  0  0  0  0  0  0
   55.6038   26.3129   45.8531 H   0  0  0  0  0  0  0  0  0  0  0  0
   57.6158   26.7742   44.1896 H   0  0  0  0  0  0  0  0  0  0  0  0
   58.5098   27.0673   45.7520 H   0  0  0  0  0  0  0  0  0  0  0  0
   58.8384   24.7622   45.0568 H   0  0  0  0  0  0  0  0  0  0  0  0
   57.7987   24.8273   46.5364 H   0  0  0  0  0  0  0  0  0  0  0  0
   57.1545   24.5094   42.7092 H   0  0  0  0  0  0  0  0  0  0  0  0
   57.7969   23.0103   43.4005 H   0  0  0  0  0  0  0  0  0  0  0  0
   55.2331   23.3589   42.1640 H   0  0  0  0  0  0  0  0  0  0  0  0
   55.7442   21.9313   43.0974 H   0  0  0  0  0  0  0  0  0  0  0  0
   53.8310   24.0581   43.8627 H   0  0  0  0  0  0  0  0  0  0  0  0
   54.1240   22.5460   44.7005 H   0  0  0  0  0  0  0  0  0  0  0  0
   57.5434   31.9633   46.0660 H   0  0  0  0  0  0  0  0  0  0  0  0
   58.2942   33.1587   48.1032 H   0  0  0  0  0  0  0  0  0  0  0  0
   59.5030   31.7770   51.0940 H   0  0  0  0  0  0  0  0  0  0  0  0
   60.6402   34.5223   47.2869 H   0  0  0  0  0  0  0  0  0  0  0  0
   62.3502   34.2827   45.4883 H   0  0  0  0  0  0  0  0  0  0  0  0
   64.5072   33.1209   45.9584 H   0  0  0  0  0  0  0  0  0  0  0  0
   64.9615   32.2030   48.2325 H   0  0  0  0  0  0  0  0  0  0  0  0
   60.6842   29.8642   50.6745 H   0  0  0  0  0  0  0  0  0  0  0  0
   61.1484   27.4377   50.3829 H   0  0  0  0  0  0  0  0  0  0  0  0
   60.2870   26.2262   48.3864 H   0  0  0  0  0  0  0  0  0  0  0  0
   58.9999   27.4428   46.6407 H   0  0  0  0  0  0  0  0  0  0  0  0
  1  2  2  0
  2  3  1  0
  3  4  1  0
  4  5  1  0
  5  6  1  0
  6  7  1  0
  7  8  1  0
  8  9  1  0
  9 10  1  0
 10 11  1  0
 11 12  2  0
  2 13  1  0
 13 14  1  0
 14 15  2  0
 15 16  1  0
 16 17  2  0
 17 18  1  0
 18 19  1  0
 19 20  2  0
 19 21  2  0
 19 22  1  0
 22 23  2  0
 23 24  1  0
 24 25  2  0
 25 26  1  0
 26 27  2  0
 27 28  1  0
 17 29  1  0
 29 30  2  0
 30 31  1  0
 31 32  2  0
 32 33  1  0
 33 34  2  0
 11  7  1  0
 34 14  1  0
 27 22  1  0
 34 29  1  0
  4 35  1  0
  4 36  1  0
  5 37  1  0
  5 38  1  0
  6 39  1  0
  6 40  1  0
  8 41  1  0
  8 42  1  0
  9 43  1  0
  9 44  1  0
 10 45  1  0
 10 46  1  0
 15 47  1  0
 16 48  1  0
 18 49  1  0
 23 50  1  0
 24 51  1  0
 25 52  1  0
 26 53  1  0
 30 54  1  0
 31 55  1  0
 32 56  1  0
 33 57  1  0
M  CHG  1   3  -1
M  END
>  <UniqueID>  (41) 
37

>  <SMILES>  (41) 
O=C([N-]CCCN1CCCC1=O)Oc1ccc(NS(=O)(=O)c2ccccc2Br)c2ccccc12

>  <Energy>  (41) 
76.70184959746435

>  <Genealogy>  (41) 
O=C([N-]CCCN1CCCC1=O)Oc1ccc(NS(=O)(=O)c2ccccc2Br)c2ccccc12 (protonated)
O=C([N-]CCCN1CCCC1=O)Oc1ccc(NS(=O)(=O)c2ccccc2Br)c2ccccc12 (3D coordinates assigned)
O=C([N-]CCCN1CCCC1=O)Oc1ccc(NS(=O)(=O)c2ccccc2Br)c2ccccc12 (nonaromatic ring conformer: 76.70184959746435 kcal/mol)

>  <smiles>  (41) 
O=C(NCCCN1CCCC1=O)Oc1ccc(NS(=O)(=O)c2ccccc2Br)c2ccccc12

>  <score_type>  (41) 
oracle

>  <origin>  (41) 
adg

>  <m_score__min__energy>  (41) 
-12.41

>  <m_primary>  (41) 
energy

$$$$
41:0
     RDKit          3D

 61 64  0  0  0  0  0  0  0  0999 V2000
   59.6740   36.0790   46.1300 O   0  0  0  0  0  0  0  0  0  0  0  0
   59.6880   34.9400   46.6660 C   0  0  0  0  0  0  0  0  0  0  0  0
   60.4210   34.7510   47.8830 N   0  0  0  0  0  0  0  0  0  0  0  0
   61.5240   33.8420   48.0160 C   0  0  0  0  0  0  0  0  0  0  0  0
   62.5040   33.7690   47.0120 C   0  0  0  0  0  0  0  0  0  0  0  0
   63.5660   32.8700   47.1260 C   0  0  0  0  0  0  0  0  0  0  0  0
   63.6610   32.0360   48.2410 C   0  0  0  0  0  0  0  0  0  0  0  0
   62.6940   32.0980   49.2460 C   0  0  0  0  0  0  0  0  0  0  0  0
   61.6170   32.9940   49.1410 C   0  0  0  0  0  0  0  0  0  0  0  0
   60.5570   32.9850   50.1700 C   0  0  0  0  0  0  0  0  0  0  0  0
   60.2430   34.0740   50.7220 O   0  0  0  0  0  0  0  0  0  0  0  0
   59.8690   31.7660   50.5370 N   0  0  0  0  0  0  0  0  0  0  0  0
   59.9250   30.5570   49.7030 C   0  0  0  0  0  0  0  0  0  0  0  0
   58.5240   29.9490   49.6020 C   0  0  0  0  0  0  0  0  0  0  0  0
   57.9850   29.7220   50.8910 O   0  0  0  0  0  0  0  0  0  0  0  0
   57.7920   30.9580   51.5580 C   0  0  0  0  0  0  0  0  0  0  0  0
   59.1320   31.6650   51.8020 C   0  0  0  0  0  0  0  0  0  0  0  0
   58.9130   33.8340   46.0620 C   0  0  0  0  0  0  0  0  0  0  0  0
   58.2140   34.0190   44.8570 C   0  0  0  0  0  0  0  0  0  0  0  0
   57.5040   32.9580   44.2850 C   0  0  0  0  0  0  0  0  0  0  0  0
   57.4800   31.7030   44.9090 C   0  0  0  0  0  0  0  0  0  0  0  0
   56.6020   30.3670   44.1650 S   0  0  0  0  0  0  0  0  0  0  0  0
   56.7610   30.4560   42.6730 O   0  0  0  0  0  0  0  0  0  0  0  0
   55.1430   30.4660   44.5170 O   0  0  0  0  0  0  0  0  0  0  0  0
   57.2540   28.8450   44.7030 N   0  0  0  0  0  0  0  0  0  0  0  0
   57.6970   28.0400   43.5590 C   0  0  0  0  0  0  0  0  0  0  0  0
   58.4210   26.7770   44.0410 C   0  0  0  0  0  0  0  0  0  0  0  0
   58.9400   26.9320   45.4480 C   0  0  0  0  0  0  0  0  0  0  0  0
   59.9460   27.8710   45.7330 C   0  0  0  0  0  0  0  0  0  0  0  0
   60.4050   28.0360   47.0450 C   0  0  0  0  0  0  0  0  0  0  0  0
   59.8590   27.2700   48.0800 C   0  0  0  0  0  0  0  0  0  0  0  0
   58.8520   26.3380   47.8040 C   0  0  0  0  0  0  0  0  0  0  0  0
   58.3910   26.1700   46.4950 C   0  0  0  0  0  0  0  0  0  0  0  0
   58.1600   31.5250   46.1210 C   0  0  0  0  0  0  0  0  0  0  0  0
   58.8590   32.5840   46.6970 C   0  0  0  0  0  0  0  0  0  0  0  0
   62.4341   34.4240   46.1310 H   0  0  0  0  0  0  0  0  0  0  0  0
   64.3293   32.8189   46.3356 H   0  0  0  0  0  0  0  0  0  0  0  0
   64.4990   31.3288   48.3281 H   0  0  0  0  0  0  0  0  0  0  0  0
   62.7758   31.4417   50.1250 H   0  0  0  0  0  0  0  0  0  0  0  0
   60.2850   30.8202   48.6975 H   0  0  0  0  0  0  0  0  0  0  0  0
   60.6124   29.8274   50.1560 H   0  0  0  0  0  0  0  0  0  0  0  0
   57.8685   30.6409   49.0528 H   0  0  0  0  0  0  0  0  0  0  0  0
   58.5922   28.9876   49.0719 H   0  0  0  0  0  0  0  0  0  0  0  0
   57.1513   31.6043   50.9400 H   0  0  0  0  0  0  0  0  0  0  0  0
   57.3167   30.7616   52.5304 H   0  0  0  0  0  0  0  0  0  0  0  0
   58.9473   32.6736   52.2003 H   0  0  0  0  0  0  0  0  0  0  0  0
   59.7247   31.0875   52.5267 H   0  0  0  0  0  0  0  0  0  0  0  0
   58.2252   35.0012   44.3620 H   0  0  0  0  0  0  0  0  0  0  0  0
   56.9615   33.1094   43.3402 H   0  0  0  0  0  0  0  0  0  0  0  0
   58.0920   29.0620   45.2900 H   0  0  0  0  0  0  0  0  0  0  0  0
   56.8215   27.7493   42.9599 H   0  0  0  0  0  0  0  0  0  0  0  0
   58.3908   28.6379   42.9499 H   0  0  0  0  0  0  0  0  0  0  0  0
   57.7187   25.9309   44.0117 H   0  0  0  0  0  0  0  0  0  0  0  0
   59.2801   26.6008   43.3770 H   0  0  0  0  0  0  0  0  0  0  0  0
   60.3743   28.4785   44.9221 H   0  0  0  0  0  0  0  0  0  0  0  0
   61.1960   28.7689   47.2623 H   0  0  0  0  0  0  0  0  0  0  0  0
   60.2209   27.4000   49.1106 H   0  0  0  0  0  0  0  0  0  0  0  0
   58.4225   25.7365   48.6187 H   0  0  0  0  0  0  0  0  0  0  0  0
   57.5963   25.4395   46.2831 H   0  0  0  0  0  0  0  0  0  0  0  0
   58.1420   30.5449   46.6201 H   0  0  0  0  0  0  0  0  0  0  0  0
   59.3732   32.4386   47.6585 H   0  0  0  0  0  0  0  0  0  0  0  0
  1  2  2  0
  2  3  1  0
  3  4  1  0
  4  5  2  0
  5  6  1  0
  6  7  2  0
  7  8  1  0
  8  9  2  0
  9 10  1  0
 10 11  2  0
 10 12  1  0
 12 13  1  0
 13 14  1  0
 14 15  1  0
 15 16  1  0
 16 17  1  0
  2 18  1  0
 18 19  2  0
 19 20  1  0
 20 21  2  0
 21 22  1  0
 22 23  2  0
 22 24  2  0
 22 25  1  0
 25 26  1  0
 26 27  1  0
 27 28  1  0
 28 29  2  0
 29 30  1  0
 30 31  2  0
 31 32  1  0
 32 33  2  0
 21 34  1  0
 34 35  2  0
  9  4  1  0
 17 12  1  0
 35 18  1  0
 33 28  1  0
  5 36  1  0
  6 37  1  0
  7 38  1  0
  8 39  1  0
 13 40  1  0
 13 41  1  0
 14 42  1  0
 14 43  1  0
 16 44  1  0
 16 45  1  0
 17 46  1  0
 17 47  1  0
 19 48  1  0
 20 49  1  0
 25 50  1  0
 26 51  1  0
 26 52  1  0
 27 53  1  0
 27 54  1  0
 29 55  1  0
 30 56  1  0
 31 57  1  0
 32 58  1  0
 33 59  1  0
 34 60  1  0
 35 61  1  0
M  CHG  1   3  -1
M  END
>  <UniqueID>  (42) 
38

>  <SMILES>  (42) 
O=C([N-]c1ccccc1C(=O)N1CCOCC1)c1ccc(S(=O)(=O)NCCc2ccccc2)cc1

>  <Energy>  (42) 
75.99653333000437

>  <Genealogy>  (42) 
O=C([N-]c1ccccc1C(=O)N1CCOCC1)c1ccc(S(=O)(=O)NCCc2ccccc2)cc1 (protonated)
O=C([N-]c1ccccc1C(=O)N1CCOCC1)c1ccc(S(=O)(=O)NCCc2ccccc2)cc1 (3D coordinates assigned)
O=C([N-]c1ccccc1C(=O)N1CCOCC1)c1ccc(S(=O)(=O)NCCc2ccccc2)cc1 (nonaromatic ring conformer: 75.99653333000437 kcal/mol)

>  <smiles>  (42) 
O=C(Nc1ccccc1C(=O)N1CCOCC1)c1ccc(S(=O)(=O)NCCc2ccccc2)cc1

>  <score_type>  (42) 
oracle

>  <origin>  (42) 
adg

>  <m_score__min__energy>  (42) 
-12.460000000000001

>  <m_primary>  (42) 
energy

$$$$
42:0
     RDKit          3D

 44 46  0  0  0  0  0  0  0  0999 V2000
   60.4050   30.3240   46.5790 C   0  0  0  0  0  0  0  0  0  0  0  0
   59.4520   31.0080   45.9210 C   0  0  0  0  0  0  0  0  0  0  0  0
   58.5010   30.4770   45.0300 C   0  0  0  0  0  0  0  0  0  0  0  0
   58.3700   29.2460   44.4980 C   0  0  0  0  0  0  0  0  0  0  0  0
   57.6570   28.1090   45.1130 C   0  0  0  0  0  0  0  0  0  0  0  0
   56.2690   28.1650   45.3040 C   0  0  0  0  0  0  0  0  0  0  0  0
   55.5560   29.3120   44.9630 O   0  0  0  0  0  0  0  0  0  0  0  0
   55.6160   27.0980   45.8340 N   0  0  0  0  0  0  0  0  0  0  0  0
   56.2820   25.9640   46.1710 C   0  0  0  0  0  0  0  0  0  0  0  0
   55.6560   24.9900   46.6640 O   0  0  0  0  0  0  0  0  0  0  0  0
   57.6210   25.8760   45.9700 N   0  0  0  0  0  0  0  0  0  0  0  0
   58.3210   26.9140   45.4430 C   0  0  0  0  0  0  0  0  0  0  0  0
   59.5600   26.7910   45.2510 O   0  0  0  0  0  0  0  0  0  0  0  0
   57.6280   31.5080   44.7370 C   0  0  0  0  0  0  0  0  0  0  0  0
   58.0930   32.6280   45.3900 C   0  0  0  0  0  0  0  0  0  0  0  0
   57.4110   33.9630   45.3570 C   0  0  0  0  0  0  0  0  0  0  0  0
   59.2030   32.3340   46.1090 N   0  0  0  0  0  0  0  0  0  0  0  0
   59.9220   33.2840   46.9760 C   0  0  0  0  0  0  0  0  0  0  0  0
   59.4890   33.1330   48.4120 C   0  0  0  0  0  0  0  0  0  0  0  0
   60.0400   33.9430   49.4160 C   0  0  0  0  0  0  0  0  0  0  0  0
   59.6250   33.7990   50.7400 C   0  0  0  0  0  0  0  0  0  0  0  0
   58.6600   32.8390   51.0600 C   0  0  0  0  0  0  0  0  0  0  0  0
   58.2760   32.7110   52.2990 N   0  0  0  0  0  0  0  0  0  0  0  0
   57.5360   31.6170   52.8640 C   0  0  0  0  0  0  0  0  0  0  0  0
   56.2080   31.2600   52.2860 C   0  0  0  0  0  0  0  0  0  0  0  0
   57.9630   30.9840   53.8680 O   0  0  0  0  0  0  0  0  0  0  0  0
   58.1390   32.0580   50.0720 N   0  0  0  0  0  0  0  0  0  0  0  0
   58.5270   32.1800   48.7750 C   0  0  0  0  0  0  0  0  0  0  0  0
   61.0951   30.8525   47.2532 H   0  0  0  0  0  0  0  0  0  0  0  0
   60.4943   29.2361   46.4430 H   0  0  0  0  0  0  0  0  0  0  0  0
   58.8364   29.0726   43.5170 H   0  0  0  0  0  0  0  0  0  0  0  0
   55.4540   30.0750   45.6200 H   0  0  0  0  0  0  0  0  0  0  0  0
   56.7316   31.4457   44.1025 H   0  0  0  0  0  0  0  0  0  0  0  0
   57.2338   34.3098   46.3858 H   0  0  0  0  0  0  0  0  0  0  0  0
   58.0492   34.6879   44.8305 H   0  0  0  0  0  0  0  0  0  0  0  0
   56.4496   33.8707   44.8305 H   0  0  0  0  0  0  0  0  0  0  0  0
   61.0026   33.0916   46.9032 H   0  0  0  0  0  0  0  0  0  0  0  0
   59.6915   34.3072   46.6444 H   0  0  0  0  0  0  0  0  0  0  0  0
   60.8015   34.6939   49.1585 H   0  0  0  0  0  0  0  0  0  0  0  0
   60.0541   34.4365   51.5271 H   0  0  0  0  0  0  0  0  0  0  0  0
   55.4935   31.0679   53.1000 H   0  0  0  0  0  0  0  0  0  0  0  0
   55.8424   32.0918   51.6659 H   0  0  0  0  0  0  0  0  0  0  0  0
   56.3088   30.3571   51.6659 H   0  0  0  0  0  0  0  0  0  0  0  0
   58.0844   31.5284   48.0072 H   0  0  0  0  0  0  0  0  0  0  0  0
  1  2  2  0
  2  3  1  0
  3  4  2  3
  4  5  1  0
  5  6  2  0
  6  7  1  0
  6  8  1  0
  8  9  1  0
  9 10  2  0
  9 11  1  0
 11 12  1  0
 12 13  2  0
  3 14  1  0
 14 15  2  0
 15 16  1  0
 15 17  1  0
 17 18  1  0
 18 19  1  0
 19 20  1  0
 20 21  2  0
 21 22  1  0
 22 23  2  3
 23 24  1  0
 24 25  1  0
 24 26  2  0
 22 27  1  0
 27 28  1  0
 17  2  1  0
 28 19  2  0
 12  5  1  0
  1 29  1  0
  1 30  1  0
  4 31  1  0
  7 32  1  0
 14 33  1  0
 16 34  1  0
 16 35  1  0
 16 36  1  0
 18 37  1  0
 18 38  1  0
 20 39  1  0
 21 40  1  0
 25 41  1  0
 25 42  1  0
 25 43  1  0
 28 44  1  0
M  CHG  3   8  -1  11  -1  27  -1
M  END
>  <UniqueID>  (43) 
39

>  <SMILES>  (43) 
C=c1c(=Cc2c(O)[n-]c(=O)[n-]c2=O)cc(C)n1Cc1ccc(=NC(C)=O)[n-]c1

>  <Energy>  (43) 
89.89958421095001

>  <Genealogy>  (43) 
C=c1c(=Cc2c(O)[n-]c(=O)[n-]c2=O)cc(C)n1Cc1ccc(=NC(C)=O)[n-]c1 (protonated)
C=c1c(=Cc2c(O)[n-]c(=O)[n-]c2=O)cc(C)n1Cc1ccc(=NC(C)=O)[n-]c1 (3D coordinates assigned)
C=c1c(=Cc2c(O)[n-]c(=O)[n-]c2=O)cc(C)n1Cc1ccc(=NC(C)=O)[n-]c1 (optimized conformer: 89.89958421095001 kcal/mol)

>  <smiles>  (43) 
C=c1c(=Cc2c(O)[nH]c(=O)[nH]c2=O)cc(C)n1Cc1ccc(=NC(C)=O)[nH]c1

>  <score_type>  (43) 
oracle

>  <origin>  (43) 
adg

>  <m_score__min__energy>  (43) 
-13.789999999999999

>  <m_primary>  (43) 
energy

$$$$
43:0
     RDKit          3D

 47 49  0  0  0  0  0  0  0  0999 V2000
   58.6589   28.0045   47.8569 H   0  0  0  0  0  0  0  0  0  0  0  0
   58.4790   28.0290   46.7720 C   0  0  0  0  0  0  0  0  0  0  0  0
   57.7880   29.1040   46.2050 C   0  0  0  0  0  0  0  0  0  0  0  0
   57.4346   29.9264   46.8443 H   0  0  0  0  0  0  0  0  0  0  0  0
   57.5440   29.1380   44.8270 C   0  0  0  0  0  0  0  0  0  0  0  0
   56.6720   30.4980   44.1260 S   0  0  0  0  0  0  0  0  0  0  0  0
   55.2550   30.0770   43.8620 O   0  0  0  0  0  0  0  0  0  0  0  0
   57.3000   30.9280   42.8300 O   0  0  0  0  0  0  0  0  0  0  0  0
   56.6700   31.8360   45.2320 N   0  0  0  0  0  0  0  0  0  0  0  0
   57.6090   32.7280   45.3660 C   0  0  0  0  0  0  0  0  0  0  0  0
   57.9570   33.1430   46.6590 C   0  0  0  0  0  0  0  0  0  0  0  0
   57.4313   32.7264   47.5309 H   0  0  0  0  0  0  0  0  0  0  0  0
   58.9740   34.0880   46.8400 C   0  0  0  0  0  0  0  0  0  0  0  0
   59.3290   34.5610   48.2180 C   0  0  0  0  0  0  0  0  0  0  0  0
   58.8437   33.9144   48.9640 H   0  0  0  0  0  0  0  0  0  0  0  0
   60.4202   34.5186   48.3504 H   0  0  0  0  0  0  0  0  0  0  0  0
   58.9835   35.5969   48.3504 H   0  0  0  0  0  0  0  0  0  0  0  0
   59.6090   34.6310   45.7170 C   0  0  0  0  0  0  0  0  0  0  0  0
   60.3932   35.3927   45.8387 H   0  0  0  0  0  0  0  0  0  0  0  0
   59.2410   34.2000   44.4430 C   0  0  0  0  0  0  0  0  0  0  0  0
   59.7443   34.6167   43.5581 H   0  0  0  0  0  0  0  0  0  0  0  0
   58.2620   33.2660   44.2880 N   0  0  0  0  0  0  0  0  0  0  0  0
   58.0280   32.9840   43.3120 H   0  0  0  0  0  0  0  0  0  0  0  0
   57.9860   28.0820   44.0200 C   0  0  0  0  0  0  0  0  0  0  0  0
   57.7882   28.0985   42.9381 H   0  0  0  0  0  0  0  0  0  0  0  0
   58.6780   27.0070   44.5860 C   0  0  0  0  0  0  0  0  0  0  0  0
   59.0152   26.1774   43.9472 H   0  0  0  0  0  0  0  0  0  0  0  0
   58.9450   26.9790   45.9610 C   0  0  0  0  0  0  0  0  0  0  0  0
   59.6080   25.8300   46.5080 N   0  0  0  0  0  0  0  0  0  0  0  0
   59.6150   24.5070   45.9590 C   0  0  0  0  0  0  0  0  0  0  0  0
   60.6970   23.9440   45.6410 O   0  0  0  0  0  0  0  0  0  0  0  0
   58.3170   23.7840   45.7720 C   0  0  0  0  0  0  0  0  0  0  0  0
   57.9636   23.9417   44.7423 H   0  0  0  0  0  0  0  0  0  0  0  0
   58.4833   22.7140   45.9654 H   0  0  0  0  0  0  0  0  0  0  0  0
   57.2510   24.2950   46.7510 C   0  0  0  0  0  0  0  0  0  0  0  0
   57.4312   23.8510   47.7411 H   0  0  0  0  0  0  0  0  0  0  0  0
   57.3198   25.3918   46.7987 H   0  0  0  0  0  0  0  0  0  0  0  0
   55.8940   23.9320   46.3010 N   0  0  0  0  0  0  0  0  0  0  0  0
   55.5330   22.6140   46.2530 C   0  0  0  0  0  0  0  0  0  0  0  0
   56.2729   21.8372   46.4964 H   0  0  0  0  0  0  0  0  0  0  0  0
   54.2380   22.2460   45.8990 C   0  0  0  0  0  0  0  0  0  0  0  0
   53.9442   21.1865   45.8650 H   0  0  0  0  0  0  0  0  0  0  0  0
   53.3230   23.2480   45.5890 C   0  0  0  0  0  0  0  0  0  0  0  0
   52.1430   22.9520   45.2650 O   0  0  0  0  0  0  0  0  0  0  0  0
   53.7060   24.5480   45.6360 N   0  0  0  0  0  0  0  0  0  0  0  0
   54.9710   24.8990   45.9870 C   0  0  0  0  0  0  0  0  0  0  0  0
   55.2800   26.1210   46.0230 O   0  0  0  0  0  0  0  0  0  0  0  0
  1  2  1  0
  2  3  2  0
  3  4  1  0
  3  5  1  0
  5  6  1  0
  6  7  2  0
  6  8  2  0
  6  9  1  0
  9 10  2  0
 10 11  1  0
 11 12  1  0
 11 13  2  0
 13 14  1  0
 14 15  1  0
 14 16  1  0
 14 17  1  0
 13 18  1  0
 18 19  1  0
 18 20  2  0
 20 21  1  0
 20 22  1  0
 22 23  1  0
  5 24  2  0
 24 25  1  0
 24 26  1  0
 26 27  1  0
 26 28  2  0
 28 29  1  0
 29 30  1  0
 30 31  2  0
 30 32  1  0
 32 33  1  0
 32 34  1  0
 32 35  1  0
 35 36  1  0
 35 37  1  0
 35 38  1  0
 38 39  1  0
 39 40  1  0
 39 41  2  0
 41 42  1  0
 41 43  1  0
 43 44  2  0
 43 45  1  0
 45 46  1  0
 46 47  2  0
 28  2  1  0
 46 38  1  0
 22 10  1  0
M  CHG  2  29  -1  45  -1
M  END
>  <UniqueID>  (44) 
40

>  <SMILES>  (44) 
Cc1cc[nH]/c(=N\S(=O)(=O)c2ccc([N-]C(=O)CCn3ccc(=O)[n-]c3=O)cc2)c1

>  <Energy>  (44) 
54.927045507495315

>  <Genealogy>  (44) 
Cc1cc[nH]c(=NS(=O)(=O)c2ccc([N-]C(=O)CCn3ccc(=O)[n-]c3=O)cc2)c1 (protonated)
Cc1cc[nH]/c(=N\S(=O)(=O)c2ccc([N-]C(=O)CCn3ccc(=O)[n-]c3=O)cc2)c1 (cis-trans isomerization)
Cc1cc[nH]/c(=N\S(=O)(=O)c2ccc([N-]C(=O)CCn3ccc(=O)[n-]c3=O)cc2)c1 (3D coordinates assigned)
Cc1cc[nH]/c(=N\S(=O)(=O)c2ccc([N-]C(=O)CCn3ccc(=O)[n-]c3=O)cc2)c1 (optimized conformer: 54.927045507495315 kcal/mol)

>  <smiles>  (44) 
Cc1cc[nH]c(=NS(=O)(=O)c2ccc(NC(=O)CCn3ccc(=O)[nH]c3=O)cc2)c1

>  <score_type>  (44) 
oracle

>  <origin>  (44) 
adg

>  <m_score__min__energy>  (44) 
-12.69

>  <m_primary>  (44) 
energy

$$$$
44:0
     RDKit          3D

 39 42  0  0  0  0  0  0  0  0999 V2000
   61.1160   30.8260   47.5860 C   0  0  0  0  0  0  0  0  0  0  0  0
   61.8840   32.1060   47.6800 C   0  0  0  0  0  0  0  0  0  0  0  0
   63.1560   32.3250   47.1940 C   0  0  0  0  0  0  0  0  0  0  0  0
   63.4520   33.6390   47.4960 C   0  0  0  0  0  0  0  0  0  0  0  0
   62.4370   34.1930   48.1180 O   0  0  0  0  0  0  0  0  0  0  0  0
   61.4760   33.3040   48.2470 C   0  0  0  0  0  0  0  0  0  0  0  0
   60.1780   33.5920   48.8910 C   0  0  0  0  0  0  0  0  0  0  0  0
   60.1470   34.1980   49.9940 O   0  0  0  0  0  0  0  0  0  0  0  0
   58.9450   33.1250   48.3270 N   0  0  0  0  0  0  0  0  0  0  0  0
   58.5800   33.1680   46.9420 C   0  0  0  0  0  0  0  0  0  0  0  0
   58.5960   34.3700   46.2130 C   0  0  0  0  0  0  0  0  0  0  0  0
   58.2010   34.3850   44.8730 C   0  0  0  0  0  0  0  0  0  0  0  0
   57.7720   33.2070   44.2540 C   0  0  0  0  0  0  0  0  0  0  0  0
   57.7350   32.0030   44.9750 C   0  0  0  0  0  0  0  0  0  0  0  0
   57.2240   30.7470   44.3220 C   0  0  0  0  0  0  0  0  0  0  0  0
   57.9460   29.5510   44.8680 C   0  0  0  0  0  0  0  0  0  0  0  0
   59.3140   29.5330   44.9090 N   0  0  0  0  0  0  0  0  0  0  0  0
   60.0160   28.4470   45.3640 C   0  0  0  0  0  0  0  0  0  0  0  0
   59.3390   27.2930   45.7980 C   0  0  0  0  0  0  0  0  0  0  0  0
   57.9500   27.3170   45.7420 C   0  0  0  0  0  0  0  0  0  0  0  0
   57.0960   26.3430   46.0880 N   0  0  0  0  0  0  0  0  0  0  0  0
   55.8940   26.9130   45.8170 C   0  0  0  0  0  0  0  0  0  0  0  0
   54.8050   26.3110   46.0080 O   0  0  0  0  0  0  0  0  0  0  0  0
   55.9470   28.1770   45.3270 N   0  0  0  0  0  0  0  0  0  0  0  0
   57.2710   28.4050   45.2920 C   0  0  0  0  0  0  0  0  0  0  0  0
   58.1250   31.9960   46.3250 C   0  0  0  0  0  0  0  0  0  0  0  0
   60.8942   30.4563   48.5980 H   0  0  0  0  0  0  0  0  0  0  0  0
   60.1743   31.0022   47.0454 H   0  0  0  0  0  0  0  0  0  0  0  0
   61.7146   30.0781   47.0454 H   0  0  0  0  0  0  0  0  0  0  0  0
   63.8012   31.6021   46.6734 H   0  0  0  0  0  0  0  0  0  0  0  0
   64.3971   34.1462   47.2520 H   0  0  0  0  0  0  0  0  0  0  0  0
   58.9206   35.3018   46.6993 H   0  0  0  0  0  0  0  0  0  0  0  0
   58.2276   35.3258   44.3036 H   0  0  0  0  0  0  0  0  0  0  0  0
   57.4625   33.2237   43.1986 H   0  0  0  0  0  0  0  0  0  0  0  0
   56.1473   30.6448   44.5228 H   0  0  0  0  0  0  0  0  0  0  0  0
   57.3986   30.8086   43.2377 H   0  0  0  0  0  0  0  0  0  0  0  0
   61.1153   28.4782   45.3898 H   0  0  0  0  0  0  0  0  0  0  0  0
   59.8841   26.4110   46.1653 H   0  0  0  0  0  0  0  0  0  0  0  0
   58.0724   31.0613   46.9025 H   0  0  0  0  0  0  0  0  0  0  0  0
  1  2  1  0
  2  3  1  0
  3  4  2  0
  4  5  1  0
  5  6  1  0
  6  7  1  0
  7  8  2  0
  7  9  1  0
  9 10  1  0
 10 11  2  0
 11 12  1  0
 12 13  2  0
 13 14  1  0
 14 15  1  0
 15 16  1  0
 16 17  2  0
 17 18  1  0
 18 19  2  0
 19 20  1  0
 20 21  1  0
 21 22  1  0
 22 23  2  0
 22 24  1  0
 24 25  1  0
 14 26  2  0
  6  2  2  0
 26 10  1  0
 25 16  1  0
 25 20  2  0
  1 27  1  0
  1 28  1  0
  1 29  1  0
  3 30  1  0
  4 31  1  0
 11 32  1  0
 12 33  1  0
 13 34  1  0
 15 35  1  0
 15 36  1  0
 18 37  1  0
 19 38  1  0
 26 39  1  0
M  CHG  3   9  -1  21  -1  24  -1
M  END
>  <UniqueID>  (45) 
41

>  <SMILES>  (45) 
Cc1ccoc1C(=O)[N-]c1cccc(Cc2nccc3[n-]c(=O)[n-]c23)c1

>  <Energy>  (45) 
108.88944977863045

>  <Genealogy>  (45) 
Cc1ccoc1C(=O)[N-]c1cccc(Cc2nccc3[n-]c(=O)[n-]c23)c1 (protonated)
Cc1ccoc1C(=O)[N-]c1cccc(Cc2nccc3[n-]c(=O)[n-]c23)c1 (3D coordinates assigned)
Cc1ccoc1C(=O)[N-]c1cccc(Cc2nccc3[n-]c(=O)[n-]c23)c1 (optimized conformer: 108.88944977863045 kcal/mol)

>  <smiles>  (45) 
Cc1ccoc1C(=O)Nc1cccc(Cc2nccc3[nH]c(=O)[nH]c23)c1

>  <score_type>  (45) 
oracle

>  <origin>  (45) 
adg

>  <m_score__min__energy>  (45) 
-13.130000000000001

>  <m_primary>  (45) 
energy

$$$$
45:0
     RDKit          3D

 40 42  0  0  0  0  0  0  0  0999 V2000
   59.9160   27.1860   48.3580 C   0  0  0  0  0  0  0  0  0  0  0  0
   59.4050   28.3640   47.9780 C   0  0  0  0  0  0  0  0  0  0  0  0
   59.5610   29.4040   48.8410 N   0  0  0  0  0  0  0  0  0  0  0  0
   59.2770   30.6880   48.5120 C   0  0  0  0  0  0  0  0  0  0  0  0
   58.8430   31.0020   47.2220 C   0  0  0  0  0  0  0  0  0  0  0  0
   58.5920   32.4110   46.8470 C   0  0  0  0  0  0  0  0  0  0  0  0
   57.6250   32.6760   46.0810 O   0  0  0  0  0  0  0  0  0  0  0  0
   59.4430   33.4770   47.3110 N   0  0  0  0  0  0  0  0  0  0  0  0
   59.3090   33.9900   48.6810 C   0  0  0  0  0  0  0  0  0  0  0  0
   60.5970   33.7590   49.4890 C   0  0  0  0  0  0  0  0  0  0  0  0
   61.8600   34.4120   48.8750 C   0  0  0  0  0  0  0  0  0  0  0  0
   62.5310   33.6270   47.7290 C   0  0  0  0  0  0  0  0  0  0  0  0
   61.5620   33.1910   46.6080 C   0  0  0  0  0  0  0  0  0  0  0  0
   60.4060   33.9970   46.4960 O   0  0  0  0  0  0  0  0  0  0  0  0
   58.6640   29.9600   46.3040 C   0  0  0  0  0  0  0  0  0  0  0  0
   58.8490   28.6130   46.6810 C   0  0  0  0  0  0  0  0  0  0  0  0
   58.4630   27.6640   45.7910 C   0  0  0  0  0  0  0  0  0  0  0  0
   57.2550   26.8220   45.8930 C   0  0  0  0  0  0  0  0  0  0  0  0
   57.2390   25.5650   46.3770 N   0  0  0  0  0  0  0  0  0  0  0  0
   55.9260   25.2510   46.3870 C   0  0  0  0  0  0  0  0  0  0  0  0
   55.5000   24.1310   46.7710 O   0  0  0  0  0  0  0  0  0  0  0  0
   55.1040   26.2350   45.9630 N   0  0  0  0  0  0  0  0  0  0  0  0
   55.9580   27.2260   45.6630 C   0  0  0  0  0  0  0  0  0  0  0  0
   55.5510   28.4710   45.1880 O   0  0  0  0  0  0  0  0  0  0  0  0
   59.8211   26.3080   47.7021 H   0  0  0  0  0  0  0  0  0  0  0  0
   60.4306   27.0963   49.3260 H   0  0  0  0  0  0  0  0  0  0  0  0
   59.3886   31.4844   49.2626 H   0  0  0  0  0  0  0  0  0  0  0  0
   59.0988   35.0690   48.6413 H   0  0  0  0  0  0  0  0  0  0  0  0
   58.4862   33.4529   49.1755 H   0  0  0  0  0  0  0  0  0  0  0  0
   60.4503   34.1737   50.4972 H   0  0  0  0  0  0  0  0  0  0  0  0
   60.7748   32.6735   49.4950 H   0  0  0  0  0  0  0  0  0  0  0  0
   61.5737   35.4000   48.4852 H   0  0  0  0  0  0  0  0  0  0  0  0
   62.6018   34.4495   49.6863 H   0  0  0  0  0  0  0  0  0  0  0  0
   63.3092   34.2643   47.2838 H   0  0  0  0  0  0  0  0  0  0  0  0
   62.9367   32.7056   48.1722 H   0  0  0  0  0  0  0  0  0  0  0  0
   62.1026   33.2282   45.6508 H   0  0  0  0  0  0  0  0  0  0  0  0
   61.2178   32.1780   46.8637 H   0  0  0  0  0  0  0  0  0  0  0  0
   58.3737   30.1960   45.2696 H   0  0  0  0  0  0  0  0  0  0  0  0
   59.1088   27.5082   44.9143 H   0  0  0  0  0  0  0  0  0  0  0  0
   54.7560   28.9540   45.5880 H   0  0  0  0  0  0  0  0  0  0  0  0
  1  2  2  0
  2  3  1  0
  3  4  2  0
  4  5  1  0
  5  6  1  0
  6  7  2  0
  6  8  1  0
  8  9  1  0
  9 10  1  0
 10 11  1  0
 11 12  1  0
 12 13  1  0
 13 14  1  0
  5 15  2  0
 15 16  1  0
 16 17  2  3
 17 18  1  0
 18 19  1  0
 19 20  1  0
 20 21  2  0
 20 22  1  0
 22 23  1  0
 23 24  1  0
 16  2  1  0
 23 18  2  0
 14  8  1  0
  1 25  1  0
  1 26  1  0
  4 27  1  0
  9 28  1  0
  9 29  1  0
 10 30  1  0
 10 31  1  0
 11 32  1  0
 11 33  1  0
 12 34  1  0
 12 35  1  0
 13 36  1  0
 13 37  1  0
 15 38  1  0
 17 39  1  0
 24 40  1  0
M  CHG  2  19  -1  22  -1
M  END
>  <UniqueID>  (46) 
42

>  <SMILES>  (46) 
C=c1ncc(C(=O)N2CCCCCO2)cc1=Cc1[n-]c(=O)[n-]c1O

>  <Energy>  (46) 
96.52186503872409

>  <Genealogy>  (46) 
C=c1ncc(C(=O)N2CCCCCO2)cc1=Cc1[n-]c(=O)[n-]c1O (protonated)
C=c1ncc(C(=O)N2CCCCCO2)cc1=Cc1[n-]c(=O)[n-]c1O (3D coordinates assigned)
C=c1ncc(C(=O)N2CCCCCO2)cc1=Cc1[n-]c(=O)[n-]c1O (nonaromatic ring conformer: 96.52186503872409 kcal/mol)

>  <smiles>  (46) 
C=c1ncc(C(=O)N2CCCCCO2)cc1=Cc1[nH]c(=O)[nH]c1O

>  <score_type>  (46) 
oracle

>  <origin>  (46) 
adg

>  <m_score__min__energy>  (46) 
-10.43

>  <m_primary>  (46) 
energy

$$$$
46:0
     RDKit          3D

 43 45  0  0  0  0  0  0  0  0999 V2000
   62.6740   33.8830   50.5450 C   0  0  0  0  0  0  0  0  0  0  0  0
   62.3350   33.8770   49.0780 C   0  0  0  0  0  0  0  0  0  0  0  0
   63.3800   33.8020   48.1410 C   0  0  0  0  0  0  0  0  0  0  0  0
   63.1090   33.7760   46.7740 C   0  0  0  0  0  0  0  0  0  0  0  0
   61.7920   33.8340   46.3230 C   0  0  0  0  0  0  0  0  0  0  0  0
   60.7340   33.9210   47.2310 C   0  0  0  0  0  0  0  0  0  0  0  0
   59.4320   34.0170   46.7210 O   0  0  0  0  0  0  0  0  0  0  0  0
   58.7400   32.9570   46.1190 C   0  0  0  0  0  0  0  0  0  0  0  0
   58.0420   33.1990   44.9310 C   0  0  0  0  0  0  0  0  0  0  0  0
   57.3470   32.1680   44.2930 C   0  0  0  0  0  0  0  0  0  0  0  0
   57.3300   30.8820   44.8490 C   0  0  0  0  0  0  0  0  0  0  0  0
   56.4600   29.5700   44.0610 S   0  0  0  0  0  0  0  0  0  0  0  0
   57.3890   28.8760   43.1060 O   0  0  0  0  0  0  0  0  0  0  0  0
   55.2830   30.0920   43.2870 O   0  0  0  0  0  0  0  0  0  0  0  0
   55.9100   28.4300   45.2470 N   0  0  0  0  0  0  0  0  0  0  0  0
   56.6620   27.3060   45.7300 C   0  0  0  0  0  0  0  0  0  0  0  0
   58.0570   27.3530   45.8860 C   0  0  0  0  0  0  0  0  0  0  0  0
   58.7430   26.2460   46.3850 C   0  0  0  0  0  0  0  0  0  0  0  0
   58.0310   25.0940   46.7210 C   0  0  0  0  0  0  0  0  0  0  0  0
   56.6800   25.0530   46.5580 N   0  0  0  0  0  0  0  0  0  0  0  0
   55.9870   26.1220   46.0730 C   0  0  0  0  0  0  0  0  0  0  0  0
   54.7360   26.0480   45.9410 O   0  0  0  0  0  0  0  0  0  0  0  0
   58.0130   30.6380   46.0460 C   0  0  0  0  0  0  0  0  0  0  0  0
   58.7130   31.6680   46.6810 C   0  0  0  0  0  0  0  0  0  0  0  0
   60.9910   33.8930   48.6240 C   0  0  0  0  0  0  0  0  0  0  0  0
   59.8460   33.9000   49.6090 C   0  0  0  0  0  0  0  0  0  0  0  0
   61.7463   33.8666   51.1358 H   0  0  0  0  0  0  0  0  0  0  0  0
   63.2776   32.9954   50.7855 H   0  0  0  0  0  0  0  0  0  0  0  0
   63.2458   34.7914   50.7855 H   0  0  0  0  0  0  0  0  0  0  0  0
   64.4224   33.7634   48.4901 H   0  0  0  0  0  0  0  0  0  0  0  0
   63.9353   33.7097   46.0509 H   0  0  0  0  0  0  0  0  0  0  0  0
   61.5837   33.8111   45.2432 H   0  0  0  0  0  0  0  0  0  0  0  0
   58.0402   34.2091   44.4955 H   0  0  0  0  0  0  0  0  0  0  0  0
   56.8122   32.3665   43.3524 H   0  0  0  0  0  0  0  0  0  0  0  0
   58.6095   28.2645   45.6141 H   0  0  0  0  0  0  0  0  0  0  0  0
   59.8350   26.2807   46.5125 H   0  0  0  0  0  0  0  0  0  0  0  0
   58.5626   24.2168   47.1185 H   0  0  0  0  0  0  0  0  0  0  0  0
   56.1670   24.1810   46.8180 H   0  0  0  0  0  0  0  0  0  0  0  0
   57.9989   29.6313   46.4891 H   0  0  0  0  0  0  0  0  0  0  0  0
   59.2445   31.4697   47.6234 H   0  0  0  0  0  0  0  0  0  0  0  0
   60.2444   33.8976   50.6343 H   0  0  0  0  0  0  0  0  0  0  0  0
   59.2354   34.8019   49.4550 H   0  0  0  0  0  0  0  0  0  0  0  0
   59.2244   33.0056   49.4550 H   0  0  0  0  0  0  0  0  0  0  0  0
  1  2  1  0
  2  3  2  0
  3  4  1  0
  4  5  2  0
  5  6  1  0
  6  7  1  0
  7  8  1  0
  8  9  2  0
  9 10  1  0
 10 11  2  0
 11 12  1  0
 12 13  2  0
 12 14  2  0
 12 15  1  0
 15 16  1  0
 16 17  2  0
 17 18  1  0
 18 19  2  0
 19 20  1  0
 20 21  1  0
 21 22  2  0
 11 23  1  0
 23 24  2  0
  6 25  2  0
 25 26  1  0
 25  2  1  0
 24  8  1  0
 21 16  1  0
  1 27  1  0
  1 28  1  0
  1 29  1  0
  3 30  1  0
  4 31  1  0
  5 32  1  0
  9 33  1  0
 10 34  1  0
 17 35  1  0
 18 36  1  0
 19 37  1  0
 20 38  1  0
 23 39  1  0
 24 40  1  0
 26 41  1  0
 26 42  1  0
 26 43  1  0
M  CHG  1  15  -1
M  END
>  <UniqueID>  (47) 
43

>  <SMILES>  (47) 
Cc1cccc(Oc2ccc(S(=O)(=O)[N-]c3ccc[nH]c3=O)cc2)c1C

>  <Energy>  (47) 
59.10609181714426

>  <Genealogy>  (47) 
Cc1cccc(Oc2ccc(S(=O)(=O)[N-]c3ccc[nH]c3=O)cc2)c1C (protonated)
Cc1cccc(Oc2ccc(S(=O)(=O)[N-]c3ccc[nH]c3=O)cc2)c1C (3D coordinates assigned)
Cc1cccc(Oc2ccc(S(=O)(=O)[N-]c3ccc[nH]c3=O)cc2)c1C (optimized conformer: 59.10609181714426 kcal/mol)

>  <smiles>  (47) 
Cc1cccc(Oc2ccc(S(=O)(=O)Nc3ccc[nH]c3=O)cc2)c1C

>  <score_type>  (47) 
oracle

>  <origin>  (47) 
adg

>  <m_score__min__energy>  (47) 
-10.99

>  <m_primary>  (47) 
energy

$$$$
47:0
     RDKit          3D

 68 71  0  0  0  0  0  0  0  0999 V2000
   57.0640   21.5980   43.3270 C   0  0  0  0  0  0  0  0  0  0  0  0
   56.2870   22.8860   43.0800 C   0  0  0  0  0  0  0  0  0  0  0  0
   56.1730   23.6470   44.2840 O   0  0  0  0  0  0  0  0  0  0  0  0
   56.7690   24.8990   44.5230 C   0  0  0  0  0  0  0  0  0  0  0  0
   57.6880   25.4810   43.6320 C   0  0  0  0  0  0  0  0  0  0  0  0
   58.2590   26.7230   43.9140 C   0  0  0  0  0  0  0  0  0  0  0  0
   57.9290   27.4110   45.0920 C   0  0  0  0  0  0  0  0  0  0  0  0
   58.5530   28.7190   45.4130 C   0  0  0  0  0  0  0  0  0  0  0  0
   59.5320   29.1250   44.7310 O   0  0  0  0  0  0  0  0  0  0  0  0
   58.0720   29.5230   46.5010 N   0  0  0  0  0  0  0  0  0  0  0  0
   58.3270   30.9340   46.5800 C   0  0  0  0  0  0  0  0  0  0  0  0
   58.9050   31.4540   47.7460 C   0  0  0  0  0  0  0  0  0  0  0  0
   59.2080   32.8180   47.8470 C   0  0  0  0  0  0  0  0  0  0  0  0
   59.9370   33.4610   49.3210 S   0  0  0  0  0  0  0  0  0  0  0  0
   59.2530   32.8560   50.5160 O   0  0  0  0  0  0  0  0  0  0  0  0
   59.7280   34.9490   49.3700 O   0  0  0  0  0  0  0  0  0  0  0  0
   61.6490   33.1130   49.4000 N   0  0  0  0  0  0  0  0  0  0  0  0
   61.9420   31.7160   49.0090 C   0  0  0  0  0  0  0  0  0  0  0  0
   62.5620   31.6270   47.6030 C   0  0  0  0  0  0  0  0  0  0  0  0
   63.7700   32.3640   47.4770 O   0  0  0  0  0  0  0  0  0  0  0  0
   63.8020   33.5530   48.2580 C   0  0  0  0  0  0  0  0  0  0  0  0
   62.4130   34.1030   48.6200 C   0  0  0  0  0  0  0  0  0  0  0  0
   58.9330   33.6670   46.7680 C   0  0  0  0  0  0  0  0  0  0  0  0
   58.3310   33.1650   45.6130 C   0  0  0  0  0  0  0  0  0  0  0  0
   58.0100   31.8030   45.5110 C   0  0  0  0  0  0  0  0  0  0  0  0
   57.3030   31.3290   44.3530 N   0  0  0  0  0  0  0  0  0  0  0  0
   57.7730   31.5430   42.9950 C   0  0  0  0  0  0  0  0  0  0  0  0
   56.6920   30.9590   42.1010 C   0  0  0  0  0  0  0  0  0  0  0  0
   55.9010   29.9950   42.9830 C   0  0  0  0  0  0  0  0  0  0  0  0
   56.1610   30.4320   44.4200 C   0  0  0  0  0  0  0  0  0  0  0  0
   57.0170   26.8240   45.9860 C   0  0  0  0  0  0  0  0  0  0  0  0
   56.4330   25.5730   45.7060 C   0  0  0  0  0  0  0  0  0  0  0  0
   55.5140   24.9680   46.5780 O   0  0  0  0  0  0  0  0  0  0  0  0
   55.7070   23.7030   47.2070 C   0  0  0  0  0  0  0  0  0  0  0  0
   56.9900   23.7320   48.0200 C   0  0  0  0  0  0  0  0  0  0  0  0
   57.1641   21.4321   44.4098 H   0  0  0  0  0  0  0  0  0  0  0  0
   56.5253   20.7523   42.8747 H   0  0  0  0  0  0  0  0  0  0  0  0
   58.0633   21.6802   42.8747 H   0  0  0  0  0  0  0  0  0  0  0  0
   56.8134   23.4854   42.3226 H   0  0  0  0  0  0  0  0  0  0  0  0
   55.2772   22.6275   42.7286 H   0  0  0  0  0  0  0  0  0  0  0  0
   57.9590   24.9534   42.7056 H   0  0  0  0  0  0  0  0  0  0  0  0
   58.9745   27.1669   43.2062 H   0  0  0  0  0  0  0  0  0  0  0  0
   57.6890   29.0440   47.3460 H   0  0  0  0  0  0  0  0  0  0  0  0
   59.1230   30.7841   48.5908 H   0  0  0  0  0  0  0  0  0  0  0  0
   62.6464   31.2845   49.7354 H   0  0  0  0  0  0  0  0  0  0  0  0
   60.9923   31.1611   48.9965 H   0  0  0  0  0  0  0  0  0  0  0  0
   62.7719   30.5706   47.3796 H   0  0  0  0  0  0  0  0  0  0  0  0
   61.8382   32.0622   46.8981 H   0  0  0  0  0  0  0  0  0  0  0  0
   64.3429   33.3388   49.1916 H   0  0  0  0  0  0  0  0  0  0  0  0
   64.2981   34.3211   47.6466 H   0  0  0  0  0  0  0  0  0  0  0  0
   62.5316   35.0195   49.2167 H   0  0  0  0  0  0  0  0  0  0  0  0
   61.8654   34.3211   47.6913 H   0  0  0  0  0  0  0  0  0  0  0  0
   59.1925   34.7341   46.8308 H   0  0  0  0  0  0  0  0  0  0  0  0
   58.1065   33.8426   44.7761 H   0  0  0  0  0  0  0  0  0  0  0  0
   57.8993   32.6174   42.7956 H   0  0  0  0  0  0  0  0  0  0  0  0
   58.7506   31.0701   42.8196 H   0  0  0  0  0  0  0  0  0  0  0  0
   56.0366   31.7565   41.7210 H   0  0  0  0  0  0  0  0  0  0  0  0
   57.1211   30.4489   41.2260 H   0  0  0  0  0  0  0  0  0  0  0  0
   54.8274   30.0590   42.7522 H   0  0  0  0  0  0  0  0  0  0  0  0
   56.2083   28.9519   42.8169 H   0  0  0  0  0  0  0  0  0  0  0  0
   55.2838   30.9563   44.8270 H   0  0  0  0  0  0  0  0  0  0  0  0
   56.3552   29.5728   45.0788 H   0  0  0  0  0  0  0  0  0  0  0  0
   56.7557   27.3486   46.9169 H   0  0  0  0  0  0  0  0  0  0  0  0
   54.8566   23.4904   47.8715 H   0  0  0  0  0  0  0  0  0  0  0  0
   55.7773   22.9186   46.4390 H   0  0  0  0  0  0  0  0  0  0  0  0
   56.7448   23.7265   49.0923 H   0  0  0  0  0  0  0  0  0  0  0  0
   57.5974   22.8474   47.7782 H   0  0  0  0  0  0  0  0  0  0  0  0
   57.5568   24.6432   47.7782 H   0  0  0  0  0  0  0  0  0  0  0  0
  1  2  1  0
  2  3  1  0
  3  4  1  0
  4  5  2  0
  5  6  1  0
  6  7  2  0
  7  8  1  0
  8  9  2  0
  8 10  1  0
 10 11  1  0
 11 12  2  0
 12 13  1  0
 13 14  1  0
 14 15  2  0
 14 16  2  0
 14 17  1  0
 17 18  1  0
 18 19  1  0
 19 20  1  0
 20 21  1  0
 21 22  1  0
 13 23  2  0
 23 24  1  0
 24 25  2  0
 25 26  1  0
 26 27  1  0
 27 28  1  0
 28 29  1  0
 29 30  1  0
  7 31  1  0
 31 32  2  0
 32 33  1  0
 33 34  1  0
 34 35  1  0
 32  4  1  0
 25 11  1  0
 30 26  1  0
 22 17  1  0
  1 36  1  0
  1 37  1  0
  1 38  1  0
  2 39  1  0
  2 40  1  0
  5 41  1  0
  6 42  1  0
 10 43  1  0
 12 44  1  0
 18 45  1  0
 18 46  1  0
 19 47  1  0
 19 48  1  0
 21 49  1  0
 21 50  1  0
 22 51  1  0
 22 52  1  0
 23 53  1  0
 24 54  1  0
 27 55  1  0
 27 56  1  0
 28 57  1  0
 28 58  1  0
 29 59  1  0
 29 60  1  0
 30 61  1  0
 30 62  1  0
 31 63  1  0
 34 64  1  0
 34 65  1  0
 35 66  1  0
 35 67  1  0
 35 68  1  0
M  END
>  <UniqueID>  (48) 
44

>  <SMILES>  (48) 
CCOc1ccc(C(=O)Nc2cc(S(=O)(=O)N3CCOCC3)ccc2N2CCCC2)cc1OCC

>  <Energy>  (48) 
86.34600031516698

>  <Genealogy>  (48) 
CCOc1ccc(C(=O)Nc2cc(S(=O)(=O)N3CCOCC3)ccc2N2CCCC2)cc1OCC (3D coordinates assigned)
CCOc1ccc(C(=O)Nc2cc(S(=O)(=O)N3CCOCC3)ccc2N2CCCC2)cc1OCC (nonaromatic ring conformer: 86.34600031516698 kcal/mol)

>  <smiles>  (48) 
CCOc1ccc(C(=O)Nc2cc(S(=O)(=O)N3CCOCC3)ccc2N2CCCC2)cc1OCC

>  <score_type>  (48) 
oracle

>  <origin>  (48) 
adg

>  <m_score__min__energy>  (48) 
-9.0299999999999994

>  <m_primary>  (48) 
energy

$$$$
48:0
     RDKit          3D

 38 40  0  0  0  0  0  0  0  0999 V2000
   57.1880   22.1660   48.2080 N   0  0  0  0  0  0  0  0  0  0  0  0
   56.1450   23.3620   47.5230 S   0  0  0  0  0  0  0  0  0  0  0  0
   54.7200   22.9790   47.8070 O   0  0  0  0  0  0  0  0  0  0  0  0
   56.4070   24.6960   48.1620 O   0  0  0  0  0  0  0  0  0  0  0  0
   56.4090   23.4470   45.7710 C   0  0  0  0  0  0  0  0  0  0  0  0
   56.1960   22.2790   45.0180 C   0  0  0  0  0  0  0  0  0  0  0  0
   56.3780   22.2770   43.6350 C   0  0  0  0  0  0  0  0  0  0  0  0
   56.7770   23.4400   42.9820 C   0  0  0  0  0  0  0  0  0  0  0  0
   57.0030   24.6080   43.7100 C   0  0  0  0  0  0  0  0  0  0  0  0
   56.8370   24.6300   45.1070 C   0  0  0  0  0  0  0  0  0  0  0  0
   57.1490   26.1540   45.9550 S   0  0  0  0  0  0  0  0  0  0  0  0
   58.1840   25.9670   47.0260 O   0  0  0  0  0  0  0  0  0  0  0  0
   55.8670   26.6410   46.5690 O   0  0  0  0  0  0  0  0  0  0  0  0
   57.7360   27.3430   44.8360 N   0  0  0  0  0  0  0  0  0  0  0  0
   58.1730   28.6440   45.2460 C   0  0  0  0  0  0  0  0  0  0  0  0
   59.3760   28.7380   45.9490 C   0  0  0  0  0  0  0  0  0  0  0  0
   59.8870   29.9770   46.3210 C   0  0  0  0  0  0  0  0  0  0  0  0
   59.1880   31.1500   46.0190 C   0  0  0  0  0  0  0  0  0  0  0  0
   59.7100   32.3940   46.4100 C   0  0  0  0  0  0  0  0  0  0  0  0
   59.0050   33.5670   46.1480 C   0  0  0  0  0  0  0  0  0  0  0  0
   57.7690   33.5120   45.5060 C   0  0  0  0  0  0  0  0  0  0  0  0
   57.2350   32.2830   45.1080 C   0  0  0  0  0  0  0  0  0  0  0  0
   57.9410   31.0800   45.3380 C   0  0  0  0  0  0  0  0  0  0  0  0
   57.4310   29.8110   44.9450 C   0  0  0  0  0  0  0  0  0  0  0  0
   56.1210   29.6790   44.2700 C   0  0  0  0  0  0  0  0  0  0  0  0
   55.1600   29.1040   44.8450 O   0  0  0  0  0  0  0  0  0  0  0  0
   55.9330   30.2240   43.0050 O   0  0  0  0  0  0  0  0  0  0  0  0
   57.6720   22.6110   49.0190 H   0  0  0  0  0  0  0  0  0  0  0  0
   55.8819   21.3552   45.5258 H   0  0  0  0  0  0  0  0  0  0  0  0
   56.2060   21.3554   43.0596 H   0  0  0  0  0  0  0  0  0  0  0  0
   56.9142   23.4377   41.8906 H   0  0  0  0  0  0  0  0  0  0  0  0
   57.3149   25.5232   43.1855 H   0  0  0  0  0  0  0  0  0  0  0  0
   59.9256   27.8220   46.2115 H   0  0  0  0  0  0  0  0  0  0  0  0
   60.8465   30.0345   46.8558 H   0  0  0  0  0  0  0  0  0  0  0  0
   60.6804   32.4425   46.9257 H   0  0  0  0  0  0  0  0  0  0  0  0
   59.4247   34.5384   46.4484 H   0  0  0  0  0  0  0  0  0  0  0  0
   57.2112   34.4400   45.3117 H   0  0  0  0  0  0  0  0  0  0  0  0
   56.2545   32.2516   44.6103 H   0  0  0  0  0  0  0  0  0  0  0  0
  1  2  1  0
  2  3  2  0
  2  4  2  0
  2  5  1  0
  5  6  2  0
  6  7  1  0
  7  8  2  0
  8  9  1  0
  9 10  2  0
 10 11  1  0
 11 12  2  0
 11 13  2  0
 11 14  1  0
 14 15  1  0
 15 16  2  0
 16 17  1  0
 17 18  2  0
 18 19  1  0
 19 20  2  0
 20 21  1  0
 21 22  2  0
 22 23  1  0
 23 24  2  0
 24 25  1  0
 25 26  2  0
 25 27  1  0
 10  5  1  0
 24 15  1  0
 23 18  1  0
  1 28  1  0
  6 29  1  0
  7 30  1  0
  8 31  1  0
  9 32  1  0
 16 33  1  0
 17 34  1  0
 19 35  1  0
 20 36  1  0
 21 37  1  0
 22 38  1  0
M  CHG  3   1  -1  14  -1  27  -1
M  END
>  <UniqueID>  (49) 
45

>  <SMILES>  (49) 
[NH-]S(=O)(=O)c1ccccc1S(=O)(=O)[N-]c1ccc2ccccc2c1C(=O)[O-]

>  <Energy>  (49) 
66.4726192220059

>  <Genealogy>  (49) 
[NH-]S(=O)(=O)c1ccccc1S(=O)(=O)[N-]c1ccc2ccccc2c1C(=O)[O-] (protonated)
[NH-]S(=O)(=O)c1ccccc1S(=O)(=O)[N-]c1ccc2ccccc2c1C(=O)[O-] (3D coordinates assigned)
[NH-]S(=O)(=O)c1ccccc1S(=O)(=O)[N-]c1ccc2ccccc2c1C(=O)[O-] (optimized conformer: 66.4726192220059 kcal/mol)

>  <smiles>  (49) 
NS(=O)(=O)c1ccccc1S(=O)(=O)Nc1ccc2ccccc2c1C(=O)O

>  <score_type>  (49) 
oracle

>  <origin>  (49) 
adg

>  <m_score__min__energy>  (49) 
-15.06

>  <m_primary>  (49) 
energy

$$$$
49:0
     RDKit          3D

 36 37  0  0  0  0  0  0  0  0999 V2000
   58.9470   29.9810   48.4530 O   0  0  0  0  0  0  0  0  0  0  0  0
   59.6820   29.5860   47.5100 C   0  0  0  0  0  0  0  0  0  0  0  0
   60.6970   28.5030   47.7670 C   0  0  0  0  0  0  0  0  0  0  0  0
   60.4060   27.2580   46.9210 C   0  0  0  0  0  0  0  0  0  0  0  0
   59.1240   27.3870   46.2230 N   0  0  0  0  0  0  0  0  0  0  0  0
   58.0490   26.4390   46.3650 C   0  0  0  0  0  0  0  0  0  0  0  0
   56.7390   26.8390   46.0820 C   0  0  0  0  0  0  0  0  0  0  0  0
   55.6870   25.9290   46.2160 C   0  0  0  0  0  0  0  0  0  0  0  0
   54.3890   26.3400   45.9320 O   0  0  0  0  0  0  0  0  0  0  0  0
   55.9260   24.6500   46.6210 N   0  0  0  0  0  0  0  0  0  0  0  0
   54.8550   23.7850   46.7390 O   0  0  0  0  0  0  0  0  0  0  0  0
   57.1990   24.2330   46.9040 C   0  0  0  0  0  0  0  0  0  0  0  0
   57.4140   23.0480   47.2790 O   0  0  0  0  0  0  0  0  0  0  0  0
   58.2760   25.1170   46.7820 C   0  0  0  0  0  0  0  0  0  0  0  0
   59.5570   30.2140   46.2270 N   0  0  0  0  0  0  0  0  0  0  0  0
   58.8310   31.4180   45.9340 C   0  0  0  0  0  0  0  0  0  0  0  0
   59.3540   32.6660   46.3200 C   0  0  0  0  0  0  0  0  0  0  0  0
   58.6850   33.8470   46.0040 C   0  0  0  0  0  0  0  0  0  0  0  0
   57.4950   33.8020   45.2810 C   0  0  0  0  0  0  0  0  0  0  0  0
   56.9740   32.5750   44.8660 C   0  0  0  0  0  0  0  0  0  0  0  0
   57.6320   31.3680   45.1780 C   0  0  0  0  0  0  0  0  0  0  0  0
   57.0380   30.0830   44.7180 C   0  0  0  0  0  0  0  0  0  0  0  0
   57.7610   29.2120   44.1660 O   0  0  0  0  0  0  0  0  0  0  0  0
   55.6830   29.8170   44.8740 O   0  0  0  0  0  0  0  0  0  0  0  0
   61.6982   28.8824   47.5145 H   0  0  0  0  0  0  0  0  0  0  0  0
   60.6451   28.2221   48.8293 H   0  0  0  0  0  0  0  0  0  0  0  0
   61.2085   27.1311   46.1794 H   0  0  0  0  0  0  0  0  0  0  0  0
   60.3565   26.3843   47.5875 H   0  0  0  0  0  0  0  0  0  0  0  0
   58.9770   28.2060   45.5890 H   0  0  0  0  0  0  0  0  0  0  0  0
   56.5369   27.8694   45.7541 H   0  0  0  0  0  0  0  0  0  0  0  0
   53.9090   24.0630   46.5040 H   0  0  0  0  0  0  0  0  0  0  0  0
   59.2970   24.7782   47.0118 H   0  0  0  0  0  0  0  0  0  0  0  0
   60.3013   32.7099   46.8773 H   0  0  0  0  0  0  0  0  0  0  0  0
   59.0967   34.8150   46.3256 H   0  0  0  0  0  0  0  0  0  0  0  0
   56.9651   34.7345   45.0368 H   0  0  0  0  0  0  0  0  0  0  0  0
   56.0383   32.5498   44.2883 H   0  0  0  0  0  0  0  0  0  0  0  0
  1  2  2  0
  2  3  1  0
  3  4  1  0
  4  5  1  0
  5  6  1  0
  6  7  1  0
  7  8  2  0
  8  9  1  0
  8 10  1  0
 10 11  1  0
 10 12  1  0
 12 13  2  0
 12 14  1  0
  2 15  1  0
 15 16  1  0
 16 17  2  0
 17 18  1  0
 18 19  2  0
 19 20  1  0
 20 21  2  0
 21 22  1  0
 22 23  2  0
 22 24  1  0
 14  6  2  0
 21 16  1  0
  3 25  1  0
  3 26  1  0
  4 27  1  0
  4 28  1  0
  5 29  1  0
  7 30  1  0
 11 31  1  0
 14 32  1  0
 17 33  1  0
 18 34  1  0
 19 35  1  0
 20 36  1  0
M  CHG  3   9  -1  15  -1  24  -1
M  END
>  <UniqueID>  (50) 
46

>  <SMILES>  (50) 
O=C(CCNc1cc([O-])n(O)c(=O)c1)[N-]c1ccccc1C(=O)[O-]

>  <Energy>  (50) 
43.38895437396392

>  <Genealogy>  (50) 
O=C(CCNc1cc([O-])n(O)c(=O)c1)[N-]c1ccccc1C(=O)[O-] (protonated)
O=C(CCNc1cc([O-])n(O)c(=O)c1)[N-]c1ccccc1C(=O)[O-] (3D coordinates assigned)
O=C(CCNc1cc([O-])n(O)c(=O)c1)[N-]c1ccccc1C(=O)[O-] (optimized conformer: 43.38895437396392 kcal/mol)

>  <smiles>  (50) 
O=C(CCNc1cc(O)n(O)c(=O)c1)Nc1ccccc1C(=O)O

>  <score_type>  (50) 
oracle

>  <origin>  (50) 
adg

>  <m_score__min__energy>  (50) 
-13.77

>  <m_primary>  (50) 
energy

$$$$
50:0
     RDKit          3D

 22 23  0  0  0  0  0  0  0  0999 V2000
   55.1350   29.3420   45.1330 O   0  0  0  0  0  0  0  0  0  0  0  0
   56.3620   29.2890   44.8440 C   0  0  0  0  0  0  0  0  0  0  0  0
   56.9800   30.4310   44.1220 C   0  0  0  0  0  0  0  0  0  0  0  0
   56.8280   30.5580   42.7280 C   0  0  0  0  0  0  0  0  0  0  0  0
   57.3940   31.6410   42.0500 C   0  0  0  0  0  0  0  0  0  0  0  0
   58.1120   32.6110   42.7520 C   0  0  0  0  0  0  0  0  0  0  0  0
   58.2610   32.5020   44.1370 C   0  0  0  0  0  0  0  0  0  0  0  0
   57.6970   31.4210   44.8240 C   0  0  0  0  0  0  0  0  0  0  0  0
   57.8720   31.3330   46.1670 F   0  0  0  0  0  0  0  0  0  0  0  0
   57.1450   28.0920   45.2380 C   0  0  0  0  0  0  0  0  0  0  0  0
   58.5410   28.0650   45.0940 C   0  0  0  0  0  0  0  0  0  0  0  0
   59.2490   26.9730   45.4800 N   0  0  0  0  0  0  0  0  0  0  0  0
   58.6270   25.8910   46.0160 C   0  0  0  0  0  0  0  0  0  0  0  0
   59.3020   24.8890   46.3650 O   0  0  0  0  0  0  0  0  0  0  0  0
   57.2810   25.8910   46.1740 N   0  0  0  0  0  0  0  0  0  0  0  0
   56.5290   26.9610   45.8040 C   0  0  0  0  0  0  0  0  0  0  0  0
   55.1500   26.9100   45.9770 O   0  0  0  0  0  0  0  0  0  0  0  0
   56.2600   29.7998   42.1690 H   0  0  0  0  0  0  0  0  0  0  0  0
   57.2735   31.7295   40.9602 H   0  0  0  0  0  0  0  0  0  0  0  0
   58.5600   33.4602   42.2152 H   0  0  0  0  0  0  0  0  0  0  0  0
   58.8238   33.2688   44.6895 H   0  0  0  0  0  0  0  0  0  0  0  0
   59.0639   28.9331   44.6662 H   0  0  0  0  0  0  0  0  0  0  0  0
  1  2  2  0
  2  3  1  0
  3  4  2  0
  4  5  1  0
  5  6  2  0
  6  7  1  0
  7  8  2  0
  8  9  1  0
  2 10  1  0
 10 11  1  0
 11 12  2  0
 12 13  1  0
 13 14  2  0
 13 15  1  0
 15 16  1  0
 16 17  1  0
  8  3  1  0
 16 10  2  0
  4 18  1  0
  5 19  1  0
  6 20  1  0
  7 21  1  0
 11 22  1  0
M  CHG  2  15  -1  17  -1
M  END
>  <UniqueID>  (51) 
47

>  <SMILES>  (51) 
O=C(c1ccccc1F)c1cnc(=O)[n-]c1[O-]

>  <Energy>  (51) 
32.30544245087447

>  <Genealogy>  (51) 
O=C(c1ccccc1F)c1cnc(=O)[n-]c1[O-] (protonated)
O=C(c1ccccc1F)c1cnc(=O)[n-]c1[O-] (3D coordinates assigned)
O=C(c1ccccc1F)c1cnc(=O)[n-]c1[O-] (optimized conformer: 32.30544245087447 kcal/mol)

>  <smiles>  (51) 
O=C(c1ccccc1F)c1cnc(=O)[nH]c1O

>  <score_type>  (51) 
oracle

>  <origin>  (51) 
adg

>  <m_score__min__energy>  (51) 
-12.16

>  <m_primary>  (51) 
energy

$$$$
51:0
     RDKit          3D

 42 44  0  0  0  0  0  0  0  0999 V2000
   60.0560   27.6440   46.7400 C   0  0  0  0  0  0  0  0  0  0  0  0
   59.1000   28.3990   46.1780 C   0  0  0  0  0  0  0  0  0  0  0  0
   58.1320   27.9790   45.2520 C   0  0  0  0  0  0  0  0  0  0  0  0
   57.7590   26.7450   44.8580 C   0  0  0  0  0  0  0  0  0  0  0  0
   57.1800   25.7080   45.7270 C   0  0  0  0  0  0  0  0  0  0  0  0
   57.8740   24.6960   46.2810 N   0  0  0  0  0  0  0  0  0  0  0  0
   56.9690   24.1040   47.0900 C   0  0  0  0  0  0  0  0  0  0  0  0
   57.2410   23.0880   47.7830 O   0  0  0  0  0  0  0  0  0  0  0  0
   55.7530   24.6920   47.1070 N   0  0  0  0  0  0  0  0  0  0  0  0
   55.9100   25.7140   46.2500 C   0  0  0  0  0  0  0  0  0  0  0  0
   54.9150   26.6390   45.9530 O   0  0  0  0  0  0  0  0  0  0  0  0
   57.5300   29.1290   44.7720 C   0  0  0  0  0  0  0  0  0  0  0  0
   58.0840   30.1880   45.4610 C   0  0  0  0  0  0  0  0  0  0  0  0
   57.6960   31.6220   45.2580 C   0  0  0  0  0  0  0  0  0  0  0  0
   59.0330   29.7500   46.3200 N   0  0  0  0  0  0  0  0  0  0  0  0
   59.8440   30.5900   47.2180 C   0  0  0  0  0  0  0  0  0  0  0  0
   59.1540   30.7650   48.5450 C   0  0  0  0  0  0  0  0  0  0  0  0
   58.9160   32.0460   49.0630 C   0  0  0  0  0  0  0  0  0  0  0  0
   58.2750   32.1960   50.2930 C   0  0  0  0  0  0  0  0  0  0  0  0
   57.8680   31.0580   51.0030 C   0  0  0  0  0  0  0  0  0  0  0  0
   57.2040   31.1690   52.3140 C   0  0  0  0  0  0  0  0  0  0  0  0
   57.8000   31.7700   53.2460 O   0  0  0  0  0  0  0  0  0  0  0  0
   55.9280   30.5740   52.5840 N   0  0  0  0  0  0  0  0  0  0  0  0
   54.8020   30.5540   51.6590 C   0  0  0  0  0  0  0  0  0  0  0  0
   58.1420   29.8240   50.5010 N   0  0  0  0  0  0  0  0  0  0  0  0
   58.7660   29.6520   49.3060 C   0  0  0  0  0  0  0  0  0  0  0  0
   60.7603   28.0918   47.4566 H   0  0  0  0  0  0  0  0  0  0  0  0
   60.1356   26.5771   46.4842 H   0  0  0  0  0  0  0  0  0  0  0  0
   57.8993   26.4916   43.7968 H   0  0  0  0  0  0  0  0  0  0  0  0
   55.1420   27.5040   45.4760 H   0  0  0  0  0  0  0  0  0  0  0  0
   56.7578   29.1874   43.9908 H   0  0  0  0  0  0  0  0  0  0  0  0
   57.5644   32.1082   46.2359 H   0  0  0  0  0  0  0  0  0  0  0  0
   58.4864   32.1395   44.6946 H   0  0  0  0  0  0  0  0  0  0  0  0
   56.7525   31.6703   44.6946 H   0  0  0  0  0  0  0  0  0  0  0  0
   60.8205   30.1098   47.3786 H   0  0  0  0  0  0  0  0  0  0  0  0
   59.9783   31.5785   46.7545 H   0  0  0  0  0  0  0  0  0  0  0  0
   59.2353   32.9344   48.4985 H   0  0  0  0  0  0  0  0  0  0  0  0
   58.0903   33.2000   50.7027 H   0  0  0  0  0  0  0  0  0  0  0  0
   53.8606   30.5373   52.2277 H   0  0  0  0  0  0  0  0  0  0  0  0
   54.8318   31.4528   51.0256 H   0  0  0  0  0  0  0  0  0  0  0  0
   54.8637   29.6568   51.0256 H   0  0  0  0  0  0  0  0  0  0  0  0
   58.9676   28.6366   48.9341 H   0  0  0  0  0  0  0  0  0  0  0  0
  1  2  2  0
  2  3  1  0
  3  4  2  3
  4  5  1  0
  5  6  1  0
  6  7  1  0
  7  8  2  0
  7  9  1  0
  9 10  1  0
 10 11  1  0
  3 12  1  0
 12 13  2  0
 13 14  1  0
 13 15  1  0
 15 16  1  0
 16 17  1  0
 17 18  2  0
 18 19  1  0
 19 20  2  0
 20 21  1  0
 21 22  2  0
 21 23  1  0
 23 24  1  0
 20 25  1  0
 25 26  2  0
 15  2  1  0
 26 17  1  0
 10  5  2  0
  1 27  1  0
  1 28  1  0
  4 29  1  0
 11 30  1  0
 12 31  1  0
 14 32  1  0
 14 33  1  0
 14 34  1  0
 16 35  1  0
 16 36  1  0
 18 37  1  0
 19 38  1  0
 24 39  1  0
 24 40  1  0
 24 41  1  0
 26 42  1  0
M  CHG  3   6  -1   9  -1  23  -1
M  END
>  <UniqueID>  (52) 
48

>  <SMILES>  (52) 
C=c1c(=Cc2[n-]c(=O)[n-]c2O)cc(C)n1Cc1ccc(C(=O)[N-]C)nc1

>  <Energy>  (52) 
114.60750901110578

>  <Genealogy>  (52) 
C=c1c(=Cc2[n-]c(=O)[n-]c2O)cc(C)n1Cc1ccc(C(=O)[N-]C)nc1 (protonated)
C=c1c(=Cc2[n-]c(=O)[n-]c2O)cc(C)n1Cc1ccc(C(=O)[N-]C)nc1 (3D coordinates assigned)
C=c1c(=Cc2[n-]c(=O)[n-]c2O)cc(C)n1Cc1ccc(C(=O)[N-]C)nc1 (optimized conformer: 114.60750901110578 kcal/mol)

>  <smiles>  (52) 
C=c1c(=Cc2[nH]c(=O)[nH]c2O)cc(C)n1Cc1ccc(C(=O)NC)nc1

>  <score_type>  (52) 
oracle

>  <origin>  (52) 
adg

>  <m_score__min__energy>  (52) 
-12.9

>  <m_primary>  (52) 
energy

$$$$
52:0
     RDKit          3D

 55 58  0  0  0  0  0  0  0  0999 V2000
   57.6696   21.0927   42.5595 H   0  0  0  0  0  0  0  0  0  0  0  0
   57.3650   21.8340   43.3130 C   0  0  0  0  0  0  0  0  0  0  0  0
   58.0680   21.9370   44.5150 C   0  0  0  0  0  0  0  0  0  0  0  0
   58.9301   21.2807   44.7048 H   0  0  0  0  0  0  0  0  0  0  0  0
   57.6780   22.8730   45.4780 C   0  0  0  0  0  0  0  0  0  0  0  0
   58.2417   22.9573   46.4188 H   0  0  0  0  0  0  0  0  0  0  0  0
   56.5690   23.7070   45.2500 C   0  0  0  0  0  0  0  0  0  0  0  0
   56.1620   24.7360   46.2720 C   0  0  0  0  0  0  0  0  0  0  0  0
   56.6926   24.5360   47.2146 H   0  0  0  0  0  0  0  0  0  0  0  0
   55.0740   24.6707   46.4203 H   0  0  0  0  0  0  0  0  0  0  0  0
   56.4890   26.0850   45.8170 N   0  0  0  0  0  0  0  0  0  0  0  0
   55.6130   27.0760   45.7450 N   0  0  0  0  0  0  0  0  0  0  0  0
   56.2780   28.1400   45.2500 C   0  0  0  0  0  0  0  0  0  0  0  0
   55.7360   29.2860   44.9710 N   0  0  0  0  0  0  0  0  0  0  0  0
   56.3450   30.3080   44.1720 C   0  0  0  0  0  0  0  0  0  0  0  0
   55.9670   30.4550   42.9800 O   0  0  0  0  0  0  0  0  0  0  0  0
   57.4120   31.1210   44.6860 N   0  0  0  0  0  0  0  0  0  0  0  0
   58.7810   30.5960   44.7050 C   0  0  0  0  0  0  0  0  0  0  0  0
   59.3287   30.9896   43.8361 H   0  0  0  0  0  0  0  0  0  0  0  0
   58.7343   29.4976   44.6678 H   0  0  0  0  0  0  0  0  0  0  0  0
   59.5120   31.0080   45.9850 C   0  0  0  0  0  0  0  0  0  0  0  0
   60.5792   30.7664   45.8722 H   0  0  0  0  0  0  0  0  0  0  0  0
   59.0515   30.4569   46.8182 H   0  0  0  0  0  0  0  0  0  0  0  0
   59.3850   32.4480   46.2850 N   0  0  0  0  0  0  0  0  0  0  0  0
   60.2520   33.0460   47.2950 C   0  0  0  0  0  0  0  0  0  0  0  0
   59.7050   33.7180   48.4110 C   0  0  0  0  0  0  0  0  0  0  0  0
   58.6128   33.7988   48.5133 H   0  0  0  0  0  0  0  0  0  0  0  0
   60.5310   34.2810   49.3860 C   0  0  0  0  0  0  0  0  0  0  0  0
   60.0858   34.8010   50.2471 H   0  0  0  0  0  0  0  0  0  0  0  0
   61.9170   34.1870   49.2730 C   0  0  0  0  0  0  0  0  0  0  0  0
   62.5620   34.6356   50.0429 H   0  0  0  0  0  0  0  0  0  0  0  0
   62.4900   33.5230   48.1820 C   0  0  0  0  0  0  0  0  0  0  0  0
   63.9820   33.4550   48.0340 C   0  0  0  0  0  0  0  0  0  0  0  0
   64.4487   33.4337   49.0299 H   0  0  0  0  0  0  0  0  0  0  0  0
   64.2545   32.5435   47.4818 H   0  0  0  0  0  0  0  0  0  0  0  0
   64.3363   34.3379   47.4818 H   0  0  0  0  0  0  0  0  0  0  0  0
   61.6610   32.9730   47.1930 C   0  0  0  0  0  0  0  0  0  0  0  0
   62.1146   32.4761   46.3227 H   0  0  0  0  0  0  0  0  0  0  0  0
   58.3340   33.2500   45.6180 C   0  0  1  0  0  0  0  0  0  0  0  0
   58.0375   34.0531   46.3087 H   0  0  0  0  0  0  0  0  0  0  0  0
   58.8700   33.9070   44.3360 C   0  0  0  0  0  0  0  0  0  0  0  0
   59.5447   34.7340   44.6023 H   0  0  0  0  0  0  0  0  0  0  0  0
   59.4204   33.1608   43.7441 H   0  0  0  0  0  0  0  0  0  0  0  0
   58.0285   34.2964   43.7441 H   0  0  0  0  0  0  0  0  0  0  0  0
   57.0830   32.4020   45.3280 C   0  0  0  0  0  0  0  0  0  0  0  0
   56.4173   32.9705   44.6619 H   0  0  0  0  0  0  0  0  0  0  0  0
   56.5970   32.1807   46.2897 H   0  0  0  0  0  0  0  0  0  0  0  0
   57.5970   27.8220   45.0010 C   0  0  0  0  0  0  0  0  0  0  0  0
   58.3861   28.4718   44.5947 H   0  0  0  0  0  0  0  0  0  0  0  0
   57.6960   26.5000   45.3800 C   0  0  0  0  0  0  0  0  0  0  0  0
   58.6074   25.8859   45.3337 H   0  0  0  0  0  0  0  0  0  0  0  0
   55.8780   23.6090   44.0290 C   0  0  0  0  0  0  0  0  0  0  0  0
   55.0225   24.2710   43.8293 H   0  0  0  0  0  0  0  0  0  0  0  0
   56.2740   22.6730   43.0670 C   0  0  0  0  0  0  0  0  0  0  0  0
   55.7262   22.5973   42.1161 H   0  0  0  0  0  0  0  0  0  0  0  0
  1  2  1  0
  2  3  2  0
  3  4  1  0
  3  5  1  0
  5  6  1  0
  5  7  2  0
  7  8  1  0
  8  9  1  0
  8 10  1  0
  8 11  1  0
 11 12  1  0
 12 13  1  0
 13 14  2  0
 14 15  1  0
 15 16  2  0
 15 17  1  0
 17 18  1  0
 18 19  1  0
 18 20  1  0
 18 21  1  0
 21 22  1  0
 21 23  1  0
 21 24  1  0
 24 25  1  0
 25 26  2  0
 26 27  1  0
 26 28  1  0
 28 29  1  0
 28 30  2  0
 30 31  1  0
 30 32  1  0
 32 33  1  0
 33 34  1  0
 33 35  1  0
 33 36  1  0
 32 37  2  0
 37 38  1  0
 24 39  1  0
 39 40  1  1
 39 41  1  0
 41 42  1  0
 41 43  1  0
 41 44  1  0
 39 45  1  0
 45 46  1  0
 45 47  1  0
 13 48  1  0
 48 49  1  0
 48 50  2  0
 50 51  1  0
  7 52  1  0
 52 53  1  0
 52 54  2  0
 54 55  1  0
 54  2  1  0
 50 11  1  0
 45 17  1  0
 37 25  1  0
M  CHG  1  12  -1
M  END
>  <UniqueID>  (53) 
49

>  <SMILES>  (53) 
Cc1cccc(N2CCN(C(=O)/N=c3/ccn(Cc4ccccc4)[n-]3)C[C@@H]2C)c1

>  <Energy>  (53) 
95.3660802634403

>  <Genealogy>  (53) 
Cc1cccc(N2CCN(C(=O)N=c3ccn(Cc4ccccc4)[n-]3)CC2C)c1 (protonated)
Cc1cccc(N2CCN(C(=O)N=c3ccn(Cc4ccccc4)[n-]3)C[C@@H]2C)c1 (chirality)
Cc1cccc(N2CCN(C(=O)/N=c3/ccn(Cc4ccccc4)[n-]3)C[C@@H]2C)c1 (cis-trans isomerization)
Cc1cccc(N2CCN(C(=O)/N=c3/ccn(Cc4ccccc4)[n-]3)C[C@@H]2C)c1 (3D coordinates assigned)
Cc1cccc(N2CCN(C(=O)/N=c3/ccn(Cc4ccccc4)[n-]3)C[C@@H]2C)c1 (nonaromatic ring conformer: 95.3660802634403 kcal/mol)

>  <smiles>  (53) 
Cc1cccc(N2CCN(C(=O)N=c3ccn(Cc4ccccc4)[nH]3)CC2C)c1

>  <score_type>  (53) 
oracle

>  <origin>  (53) 
adg

>  <m_score__min__energy>  (53) 
-10.81

>  <m_primary>  (53) 
energy

$$$$
53:0
     RDKit          3D

 47 51  0  0  1  0  0  0  0  0999 V2000
   55.1340   29.5100   44.9560 N   0  0  0  0  0  0  0  0  0  0  0  0
   55.9340   30.2430   44.2440 C   0  0  0  0  0  0  0  0  0  0  0  0
   56.6620   31.1650   44.8960 N   0  0  0  0  0  0  0  0  0  0  0  0
   57.5430   32.0000   44.2550 C   0  0  0  0  0  0  0  0  0  0  0  0
   58.2330   32.9560   45.0760 C   0  0  0  0  0  0  0  0  0  0  0  0
   58.7000   34.1790   44.5590 C   0  0  0  0  0  0  0  0  0  0  0  0
   59.2850   34.8840   45.5450 N   0  0  0  0  0  0  0  0  0  0  0  0
   59.2320   34.2030   46.6820 C   0  0  0  0  0  0  0  0  0  0  0  0
   59.6800   34.5110   47.9470 C   0  0  0  0  0  0  0  0  0  0  0  0
   59.4890   33.6160   48.9890 C   0  0  0  0  0  0  0  0  0  0  0  0
   58.8420   32.4440   48.6800 C   0  0  0  0  0  0  0  0  0  0  0  0
   58.6050   31.4530   49.7300 C   0  0  0  0  0  0  0  0  0  0  0  0
   59.0430   30.2050   49.9050 C   0  0  0  0  0  0  0  0  0  0  0  0
   58.6820   29.5120   50.9490 N   0  0  0  0  0  0  0  0  0  0  0  0
   57.8580   30.0930   51.8390 C   0  0  0  0  0  0  0  0  0  0  0  0
   57.3350   29.6980   52.9300 N   0  0  0  0  0  0  0  0  0  0  0  0
   56.3350   30.4980   53.6500 C   0  0  0  0  0  0  0  0  0  0  0  0
   55.0300   30.2280   52.9910 C   0  0  0  0  0  0  0  0  0  0  0  0
   54.5510   31.0790   52.0010 C   0  0  0  0  0  0  0  0  0  0  0  0
   53.3350   30.7930   51.4150 C   0  0  0  0  0  0  0  0  0  0  0  0
   52.5800   29.6880   51.7820 C   0  0  0  0  0  0  0  0  0  0  0  0
   53.0720   28.8520   52.7690 C   0  0  0  0  0  0  0  0  0  0  0  0
   54.2910   29.1300   53.3640 C   0  0  0  0  0  0  0  0  0  0  0  0
   54.7360   28.2940   54.3200 F   0  0  0  0  0  0  0  0  0  0  0  0
   57.5660   31.7830   51.1310 S   0  0  0  0  0  0  0  0  0  0  0  0
   58.3950   32.1400   47.4220 C   0  0  0  0  0  0  0  0  0  0  0  0
   58.5780   33.0050   46.3890 C   0  0  0  0  0  0  0  0  0  0  0  0
   57.6230   31.8220   42.9120 C   0  0  0  0  0  0  0  0  0  0  0  0
   56.8580   30.8540   42.2430 C   0  0  0  0  0  0  0  0  0  0  0  0
   56.0130   30.0640   42.9140 N   0  0  0  0  0  0  0  0  0  0  0  0
   54.4080   28.9400   44.4930 H   0  0  0  0  0  0  0  0  0  0  0  0
   58.6022   34.5070   43.5136 H   0  0  0  0  0  0  0  0  0  0  0  0
   59.7200   35.8300   45.4490 H   0  0  0  0  0  0  0  0  0  0  0  0
   60.1900   35.4680   48.1313 H   0  0  0  0  0  0  0  0  0  0  0  0
   59.8373   33.8331   50.0096 H   0  0  0  0  0  0  0  0  0  0  0  0
   59.7163   29.7555   49.1602 H   0  0  0  0  0  0  0  0  0  0  0  0
   59.0070   28.5050   51.1340 H   0  0  0  0  0  0  0  0  0  0  0  0
   56.2968   30.1976   54.7075 H   0  0  0  0  0  0  0  0  0  0  0  0
   56.5835   31.5691   53.6200 H   0  0  0  0  0  0  0  0  0  0  0  0
   55.1295   31.9619   51.6915 H   0  0  0  0  0  0  0  0  0  0  0  0
   52.9515   31.4628   50.6313 H   0  0  0  0  0  0  0  0  0  0  0  0
   51.6132   29.4815   51.2997 H   0  0  0  0  0  0  0  0  0  0  0  0
   52.4957   27.9683   53.0803 H   0  0  0  0  0  0  0  0  0  0  0  0
   57.8812   31.1836   47.2448 H   0  0  0  0  0  0  0  0  0  0  0  0
   58.3083   32.4557   42.3300 H   0  0  0  0  0  0  0  0  0  0  0  0
   56.9547   30.7437   41.1528 H   0  0  0  0  0  0  0  0  0  0  0  0
   55.4280   29.3330   42.4410 H   0  0  0  0  0  0  0  0  0  0  0  0
  1  2  2  3
  2  3  1  0
  3  4  2  0
  4  5  1  0
  5  6  2  0
  6  7  1  0
  7  8  1  0
  8  9  2  0
  9 10  1  0
 10 11  2  0
 11 12  1  0
 12 13  2  0
 13 14  1  0
 14 15  1  0
 15 16  2  0
 16 17  1  0
 17 18  1  0
 18 19  2  0
 19 20  1  0
 20 21  2  0
 21 22  1  0
 22 23  2  0
 23 24  1  0
 15 25  1  0
 11 26  1  0
 26 27  2  0
  4 28  1  0
 28 29  2  0
 29 30  1  0
 30  2  1  0
 27  5  1  0
 27  8  1  0
 25 12  1  0
 23 18  1  0
  1 31  1  0
  6 32  1  0
  7 33  1  0
  9 34  1  0
 10 35  1  0
 13 36  1  0
 14 37  1  0
 17 38  1  0
 17 39  1  0
 19 40  1  0
 20 41  1  0
 21 42  1  0
 22 43  1  0
 26 44  1  0
 28 45  1  0
 29 46  1  0
 30 47  1  0
M  END
>  <smiles>  (54) 
N=c1nc(-c2c[nH]c3ccc(-c4c[nH]c(=NCc5ccccc5F)s4)cc23)cc[nH]1

>  <score_type>  (54) 
oracle

>  <origin>  (54) 
adg

>  <m_score__min__energy>  (54) 
-9.9299999999999997

>  <m_primary>  (54) 
energy

$$$$
54:0
     RDKit          3D

 48 52  0  0  0  0  0  0  0  0999 V2000
   59.7157   30.9985   45.6471 H   0  0  0  0  0  0  0  0  0  0  0  0
   59.4370   30.1050   46.2250 C   0  0  0  0  0  0  0  0  0  0  0  0
   58.4820   29.2290   45.8130 N   0  0  0  0  0  0  0  0  0  0  0  0
   58.3310   28.2090   46.6900 C   0  0  0  0  0  0  0  0  0  0  0  0
   57.4720   27.2440   46.5450 N   0  0  0  0  0  0  0  0  0  0  0  0
   57.5850   26.1520   45.6190 C   0  0  0  0  0  0  0  0  0  0  0  0
   58.5700   26.1320   44.8340 O   0  0  0  0  0  0  0  0  0  0  0  0
   56.5470   25.0970   45.5110 C   0  0  0  0  0  0  0  0  0  0  0  0
   56.9200   23.7680   45.2320 C   0  0  0  0  0  0  0  0  0  0  0  0
   57.9809   23.5200   45.0804 H   0  0  0  0  0  0  0  0  0  0  0  0
   55.9550   22.7620   45.1460 C   0  0  0  0  0  0  0  0  0  0  0  0
   56.2574   21.7284   44.9221 H   0  0  0  0  0  0  0  0  0  0  0  0
   54.6060   23.0670   45.3440 C   0  0  0  0  0  0  0  0  0  0  0  0
   53.6470   22.0650   45.2590 O   0  0  0  0  0  0  0  0  0  0  0  0
   54.2220   24.3800   45.6310 C   0  0  0  0  0  0  0  0  0  0  0  0
   53.1596   24.6179   45.7884 H   0  0  0  0  0  0  0  0  0  0  0  0
   55.1830   25.3930   45.7190 C   0  0  0  0  0  0  0  0  0  0  0  0
   54.7710   26.6920   46.0030 O   0  0  0  0  0  0  0  0  0  0  0  0
   59.3490   28.3490   48.0200 S   0  0  0  0  0  0  0  0  0  0  0  0
   60.0320   29.7760   47.4390 C   0  0  0  0  0  0  0  0  0  0  0  0
   61.0670   30.5230   48.0930 N   0  0  0  0  0  0  0  0  0  0  0  0
   61.3930   30.3970   49.5230 C   0  0  0  0  0  0  0  0  0  0  0  0
   60.6576   30.9197   50.1523 H   0  0  0  0  0  0  0  0  0  0  0  0
   61.3886   29.3633   49.8990 H   0  0  0  0  0  0  0  0  0  0  0  0
   62.7440   31.0710   49.5730 C   0  0  2  0  0  0  0  0  0  0  0  0
   63.3942   30.1903   49.4651 H   0  0  0  0  0  0  0  0  0  0  0  0
   63.4560   31.7280   50.7520 C   0  0  0  0  0  0  0  0  0  0  0  0
   62.7476   32.2657   51.3994 H   0  0  0  0  0  0  0  0  0  0  0  0
   63.9615   31.0166   51.4216 H   0  0  0  0  0  0  0  0  0  0  0  0
   64.3700   32.6580   50.0670 N   0  0  0  0  0  0  0  0  0  0  0  0
   65.3740   33.4570   50.7220 C   0  0  0  0  0  0  0  0  0  0  0  0
   66.7410   33.2610   50.4500 C   0  0  0  0  0  0  0  0  0  0  0  0
   67.0506   32.4839   49.7357 H   0  0  0  0  0  0  0  0  0  0  0  0
   67.7080   34.0490   51.0830 C   0  0  0  0  0  0  0  0  0  0  0  0
   68.7745   33.8888   50.8662 H   0  0  0  0  0  0  0  0  0  0  0  0
   67.3220   35.0390   51.9900 C   0  0  0  0  0  0  0  0  0  0  0  0
   68.0841   35.6551   52.4897 H   0  0  0  0  0  0  0  0  0  0  0  0
   65.9670   35.2460   52.2620 C   0  0  0  0  0  0  0  0  0  0  0  0
   65.6630   36.0277   52.9737 H   0  0  0  0  0  0  0  0  0  0  0  0
   64.9970   34.4610   51.6310 C   0  0  0  0  0  0  0  0  0  0  0  0
   63.9318   34.6302   51.8473 H   0  0  0  0  0  0  0  0  0  0  0  0
   63.8940   32.8310   48.7240 C   0  0  0  0  0  0  0  0  0  0  0  0
   64.4960   33.4730   47.8220 O   0  0  0  0  0  0  0  0  0  0  0  0
   62.5700   32.2020   48.5960 C   0  0  1  0  0  0  0  0  0  0  0  0
   61.9057   33.0775   48.6445 H   0  0  0  0  0  0  0  0  0  0  0  0
   61.9450   31.4920   47.4160 C   0  0  0  0  0  0  0  0  0  0  0  0
   61.3686   32.1867   46.7874 H   0  0  0  0  0  0  0  0  0  0  0  0
   62.6724   31.0362   46.7281 H   0  0  0  0  0  0  0  0  0  0  0  0
  1  2  1  0
  2  3  1  0
  3  4  1  0
  4  5  2  0
  5  6  1  0
  6  7  2  0
  6  8  1  0
  8  9  2  0
  9 10  1  0
  9 11  1  0
 11 12  1  0
 11 13  2  0
 13 14  1  0
 13 15  1  0
 15 16  1  0
 15 17  2  0
 17 18  1  0
  4 19  1  0
 19 20  1  0
 20 21  1  0
 21 22  1  0
 22 23  1  0
 22 24  1  0
 22 25  1  0
 25 26  1  6
 25 27  1  0
 27 28  1  0
 27 29  1  0
 27 30  1  0
 30 31  1  0
 31 32  2  0
 32 33  1  0
 32 34  1  0
 34 35  1  0
 34 36  2  0
 36 37  1  0
 36 38  1  0
 38 39  1  0
 38 40  2  0
 40 41  1  0
 30 42  1  0
 42 43  2  0
 42 44  1  0
 44 45  1  1
 44 46  1  0
 46 47  1  0
 46 48  1  0
 20  2  2  0
 46 21  1  0
 17  8  1  0
 44 25  1  0
 40 31  1  0
M  CHG  3   3  -1  14  -1  18  -1
M  END
>  <UniqueID>  (55) 
50

>  <SMILES>  (55) 
O=C(/N=c1\[n-]cc(N2C[C@@H]3CN(c4ccccc4)C(=O)[C@H]3C2)s1)c1ccc([O-])cc1[O-]

>  <Energy>  (55) 
144.78334231882485

>  <Genealogy>  (55) 
O=C(N=c1[n-]cc(N2CC3CN(c4ccccc4)C(=O)C3C2)s1)c1ccc([O-])cc1[O-] (protonated)
O=C(N=c1[n-]cc(N2C[C@@H]3CN(c4ccccc4)C(=O)[C@H]3C2)s1)c1ccc([O-])cc1[O-] (chirality)
O=C(/N=c1\[n-]cc(N2C[C@@H]3CN(c4ccccc4)C(=O)[C@H]3C2)s1)c1ccc([O-])cc1[O-] (cis-trans isomerization)
O=C(/N=c1\[n-]cc(N2C[C@@H]3CN(c4ccccc4)C(=O)[C@H]3C2)s1)c1ccc([O-])cc1[O-] (3D coordinates assigned)
O=C(/N=c1\[n-]cc(N2C[C@@H]3CN(c4ccccc4)C(=O)[C@H]3C2)s1)c1ccc([O-])cc1[O-] (nonaromatic ring conformer: 144.78334231882485 kcal/mol)

>  <smiles>  (55) 
O=C(N=c1[nH]cc(N2CC3CN(c4ccccc4)C(=O)C3C2)s1)c1ccc(O)cc1O

>  <score_type>  (55) 
oracle

>  <origin>  (55) 
adg

>  <m_score__min__energy>  (55) 
-15.41

>  <m_primary>  (55) 
energy

$$$$
55:0
     RDKit          3D

 57 60  0  0  0  0  0  0  0  0999 V2000
   60.5530   31.6990   50.8670 N   0  0  0  0  0  0  0  0  0  0  0  0
   59.2150   32.6830   50.3830 S   0  0  0  0  0  0  0  0  0  0  0  0
   59.5920   34.1300   50.5370 O   0  0  0  0  0  0  0  0  0  0  0  0
   58.0540   32.3680   51.2800 O   0  0  0  0  0  0  0  0  0  0  0  0
   58.7720   32.3550   48.7000 C   0  0  0  0  0  0  0  0  0  0  0  0
   58.4920   33.4390   47.8490 C   0  0  0  0  0  0  0  0  0  0  0  0
   58.1770   33.2300   46.5060 C   0  0  0  0  0  0  0  0  0  0  0  0
   58.1420   31.9320   45.9840 C   0  0  0  0  0  0  0  0  0  0  0  0
   57.7660   31.7080   44.5710 C   0  0  0  0  0  0  0  0  0  0  0  0
   56.8980   30.6480   44.2380 C   0  0  0  0  0  0  0  0  0  0  0  0
   56.3960   29.8060   45.2250 O   0  0  0  0  0  0  0  0  0  0  0  0
   56.5210   30.4380   42.9080 C   0  0  0  0  0  0  0  0  0  0  0  0
   56.9960   31.2790   41.9020 C   0  0  0  0  0  0  0  0  0  0  0  0
   57.8590   32.3310   42.2190 C   0  0  0  0  0  0  0  0  0  0  0  0
   58.2590   32.5480   43.5420 C   0  0  0  0  0  0  0  0  0  0  0  0
   59.1590   33.5870   43.7960 O   0  0  0  0  0  0  0  0  0  0  0  0
   58.4390   30.8430   46.8170 C   0  0  0  0  0  0  0  0  0  0  0  0
   58.7270   31.0360   48.1770 C   0  0  0  0  0  0  0  0  0  0  0  0
   58.8910   29.8400   49.0210 C   0  0  0  0  0  0  0  0  0  0  0  0
   58.3870   29.8060   50.1730 O   0  0  0  0  0  0  0  0  0  0  0  0
   59.5610   28.6860   48.5000 N   0  0  0  0  0  0  0  0  0  0  0  0
   59.2310   28.0820   47.2440 C   0  0  0  0  0  0  0  0  0  0  0  0
   59.9980   28.3830   46.1120 C   0  0  0  0  0  0  0  0  0  0  0  0
   59.6560   27.8430   44.8680 C   0  0  0  0  0  0  0  0  0  0  0  0
   58.5380   27.0110   44.7450 C   0  0  0  0  0  0  0  0  0  0  0  0
   57.7550   26.7040   45.8700 C   0  0  0  0  0  0  0  0  0  0  0  0
   56.5360   25.8730   45.7340 C   0  0  0  0  0  0  0  0  0  0  0  0
   55.4160   26.3600   46.0490 O   0  0  0  0  0  0  0  0  0  0  0  0
   56.6060   24.5050   45.2890 N   0  0  0  0  0  0  0  0  0  0  0  0
   55.7940   23.4880   45.9710 C   0  0  0  0  0  0  0  0  0  0  0  0
   56.2430   22.0730   45.5830 C   0  0  0  0  0  0  0  0  0  0  0  0
   56.2510   21.8680   44.0570 C   0  0  0  0  0  0  0  0  0  0  0  0
   56.6710   23.1230   43.2590 C   0  0  0  0  0  0  0  0  0  0  0  0
   57.4260   24.1380   44.1230 C   0  0  0  0  0  0  0  0  0  0  0  0
   58.1040   27.2540   47.1160 C   0  0  0  0  0  0  0  0  0  0  0  0
   60.2390   30.7040   50.8220 H   0  0  0  0  0  0  0  0  0  0  0  0
   58.5217   34.4640   48.2470 H   0  0  0  0  0  0  0  0  0  0  0  0
   57.9553   34.0886   45.8551 H   0  0  0  0  0  0  0  0  0  0  0  0
   55.8472   29.6063   42.6542 H   0  0  0  0  0  0  0  0  0  0  0  0
   56.6909   31.1139   40.8581 H   0  0  0  0  0  0  0  0  0  0  0  0
   58.2269   32.9939   41.4220 H   0  0  0  0  0  0  0  0  0  0  0  0
   58.9210   34.4030   44.3450 H   0  0  0  0  0  0  0  0  0  0  0  0
   58.4462   29.8255   46.3992 H   0  0  0  0  0  0  0  0  0  0  0  0
   60.8715   29.0456   46.2012 H   0  0  0  0  0  0  0  0  0  0  0  0
   60.2680   28.0732   43.9835 H   0  0  0  0  0  0  0  0  0  0  0  0
   58.2708   26.5952   43.7623 H   0  0  0  0  0  0  0  0  0  0  0  0
   55.9002   23.6133   47.0587 H   0  0  0  0  0  0  0  0  0  0  0  0
   54.7445   23.6174   45.6682 H   0  0  0  0  0  0  0  0  0  0  0  0
   57.2591   21.9045   45.9692 H   0  0  0  0  0  0  0  0  0  0  0  0
   55.5283   21.3588   46.0178 H   0  0  0  0  0  0  0  0  0  0  0  0
   56.9540   21.0557   43.8203 H   0  0  0  0  0  0  0  0  0  0  0  0
   55.2182   21.6322   43.7610 H   0  0  0  0  0  0  0  0  0  0  0  0
   57.3220   22.8122   42.4286 H   0  0  0  0  0  0  0  0  0  0  0  0
   55.7552   23.6097   42.8923 H   0  0  0  0  0  0  0  0  0  0  0  0
   58.3718   23.6937   44.4665 H   0  0  0  0  0  0  0  0  0  0  0  0
   57.6355   25.0387   43.5273 H   0  0  0  0  0  0  0  0  0  0  0  0
   57.4877   27.0334   48.0000 H   0  0  0  0  0  0  0  0  0  0  0  0
  1  2  1  0
  2  3  2  0
  2  4  2  0
  2  5  1  0
  5  6  2  0
  6  7  1  0
  7  8  2  0
  8  9  1  0
  9 10  2  0
 10 11  1  0
 10 12  1  0
 12 13  2  0
 13 14  1  0
 14 15  2  0
 15 16  1  0
  8 17  1  0
 17 18  2  0
 18 19  1  0
 19 20  2  0
 19 21  1  0
 21 22  1  0
 22 23  2  0
 23 24  1  0
 24 25  2  0
 25 26  1  0
 26 27  1  0
 27 28  2  0
 27 29  1  0
 29 30  1  0
 30 31  1  0
 31 32  1  0
 32 33  1  0
 33 34  1  0
 26 35  2  0
 18  5  1  0
 35 22  1  0
 15  9  1  0
 34 29  1  0
  1 36  1  0
  6 37  1  0
  7 38  1  0
 12 39  1  0
 13 40  1  0
 14 41  1  0
 16 42  1  0
 17 43  1  0
 23 44  1  0
 24 45  1  0
 25 46  1  0
 30 47  1  0
 30 48  1  0
 31 49  1  0
 31 50  1  0
 32 51  1  0
 32 52  1  0
 33 53  1  0
 33 54  1  0
 34 55  1  0
 34 56  1  0
 35 57  1  0
M  CHG  3   1  -1  11  -1  21  -1
M  END
>  <UniqueID>  (56) 
51

>  <SMILES>  (56) 
[NH-]S(=O)(=O)c1ccc(-c2c([O-])cccc2O)cc1C(=O)[N-]c1cccc(C(=O)N2CCCCC2)c1

>  <Energy>  (56) 
85.9022186781634

>  <Genealogy>  (56) 
[NH-]S(=O)(=O)c1ccc(-c2c([O-])cccc2O)cc1C(=O)[N-]c1cccc(C(=O)N2CCCCC2)c1 (protonated)
[NH-]S(=O)(=O)c1ccc(-c2c([O-])cccc2O)cc1C(=O)[N-]c1cccc(C(=O)N2CCCCC2)c1 (3D coordinates assigned)
[NH-]S(=O)(=O)c1ccc(-c2c([O-])cccc2O)cc1C(=O)[N-]c1cccc(C(=O)N2CCCCC2)c1 (nonaromatic ring conformer: 85.9022186781634 kcal/mol)

>  <smiles>  (56) 
NS(=O)(=O)c1ccc(-c2c(O)cccc2O)cc1C(=O)Nc1cccc(C(=O)N2CCCCC2)c1

>  <score_type>  (56) 
oracle

>  <origin>  (56) 
adg

>  <m_score__min__energy>  (56) 
-14.880000000000001

>  <m_primary>  (56) 
energy

$$$$
56:0
     RDKit          3D

 60 63  0  0  0  0  0  0  0  0999 V2000
   55.1850   30.2110   44.4900 O   0  0  0  0  0  0  0  0  0  0  0  0
   56.0950   29.3370   44.4980 C   0  0  0  0  0  0  0  0  0  0  0  0
   57.3850   29.5750   43.7720 C   0  0  0  0  0  0  0  0  0  0  0  0
   57.4680   30.9500   43.2480 N   0  0  0  0  0  0  0  0  0  0  0  0
   57.9420   31.8350   44.2830 C   0  0  0  0  0  0  0  0  0  0  0  0
   57.4170   33.1320   44.4120 C   0  0  0  0  0  0  0  0  0  0  0  0
   57.7930   33.9420   45.4850 C   0  0  0  0  0  0  0  0  0  0  0  0
   58.6800   33.4590   46.4510 C   0  0  0  0  0  0  0  0  0  0  0  0
   59.2030   32.1640   46.3400 C   0  0  0  0  0  0  0  0  0  0  0  0
   60.2880   31.5310   47.5770 S   0  0  0  0  0  0  0  0  0  0  0  0
   59.4700   30.8360   48.6310 O   0  0  0  0  0  0  0  0  0  0  0  0
   61.1870   30.5020   46.9460 O   0  0  0  0  0  0  0  0  0  0  0  0
   61.2870   32.7690   48.3110 N   0  0  0  0  0  0  0  0  0  0  0  0
   61.7050   33.8390   47.3850 C   0  0  0  0  0  0  0  0  0  0  0  0
   63.0460   33.5430   46.7070 C   0  0  0  0  0  0  0  0  0  0  0  0
   64.0350   33.2380   47.6650 O   0  0  0  0  0  0  0  0  0  0  0  0
   63.6830   32.0430   48.3220 C   0  0  0  0  0  0  0  0  0  0  0  0
   62.3870   32.2230   49.1260 C   0  0  0  0  0  0  0  0  0  0  0  0
   58.8510   31.3670   45.2450 C   0  0  0  0  0  0  0  0  0  0  0  0
   55.9380   28.1410   45.2630 N   0  0  0  0  0  0  0  0  0  0  0  0
   57.0060   27.4980   45.9620 C   0  0  0  0  0  0  0  0  0  0  0  0
   57.9180   28.2920   46.6680 C   0  0  0  0  0  0  0  0  0  0  0  0
   58.9630   27.7040   47.3830 C   0  0  0  0  0  0  0  0  0  0  0  0
   59.1160   26.3180   47.3840 C   0  0  0  0  0  0  0  0  0  0  0  0
   58.2370   25.5160   46.6540 C   0  0  0  0  0  0  0  0  0  0  0  0
   57.1770   26.0940   45.9340 C   0  0  0  0  0  0  0  0  0  0  0  0
   56.3770   25.2600   45.0780 N   0  0  0  0  0  0  0  0  0  0  0  0
   57.0110   24.6970   43.8760 C   0  0  0  0  0  0  0  0  0  0  0  0
   56.1270   23.6420   43.2230 C   0  0  0  0  0  0  0  0  0  0  0  0
   55.5830   22.8120   44.2220 O   0  0  0  0  0  0  0  0  0  0  0  0
   54.5570   23.5110   44.8940 C   0  0  0  0  0  0  0  0  0  0  0  0
   55.0390   24.8370   45.5360 C   0  0  0  0  0  0  0  0  0  0  0  0
   58.2215   29.4066   44.4662 H   0  0  0  0  0  0  0  0  0  0  0  0
   57.4339   28.8795   42.9212 H   0  0  0  0  0  0  0  0  0  0  0  0
   58.1170   30.9870   42.4250 H   0  0  0  0  0  0  0  0  0  0  0  0
   56.5190   31.2610   42.9280 H   0  0  0  0  0  0  0  0  0  0  0  0
   56.7058   33.5112   43.6634 H   0  0  0  0  0  0  0  0  0  0  0  0
   57.3905   34.9621   45.5703 H   0  0  0  0  0  0  0  0  0  0  0  0
   58.9680   34.0966   47.2998 H   0  0  0  0  0  0  0  0  0  0  0  0
   60.9350   33.9524   46.6076 H   0  0  0  0  0  0  0  0  0  0  0  0
   61.8266   34.7598   47.9743 H   0  0  0  0  0  0  0  0  0  0  0  0
   62.9254   32.6861   46.0279 H   0  0  0  0  0  0  0  0  0  0  0  0
   63.3618   34.4348   46.1459 H   0  0  0  0  0  0  0  0  0  0  0  0
   63.5359   31.2502   47.5738 H   0  0  0  0  0  0  0  0  0  0  0  0
   64.4925   31.7705   49.0151 H   0  0  0  0  0  0  0  0  0  0  0  0
   62.0795   31.2442   49.5228 H   0  0  0  0  0  0  0  0  0  0  0  0
   62.5923   32.9412   49.9335 H   0  0  0  0  0  0  0  0  0  0  0  0
   59.2906   30.3645   45.1370 H   0  0  0  0  0  0  0  0  0  0  0  0
   57.8103   29.3867   46.6592 H   0  0  0  0  0  0  0  0  0  0  0  0
   59.6665   28.3348   47.9462 H   0  0  0  0  0  0  0  0  0  0  0  0
   59.9306   25.8559   47.9609 H   0  0  0  0  0  0  0  0  0  0  0  0
   58.3747   24.4247   46.6421 H   0  0  0  0  0  0  0  0  0  0  0  0
   57.1933   25.5073   43.1548 H   0  0  0  0  0  0  0  0  0  0  0  0
   57.9561   24.2199   44.1746 H   0  0  0  0  0  0  0  0  0  0  0  0
   55.3134   24.1344   42.6702 H   0  0  0  0  0  0  0  0  0  0  0  0
   56.7258   23.0377   42.5256 H   0  0  0  0  0  0  0  0  0  0  0  0
   53.7604   23.7420   44.1715 H   0  0  0  0  0  0  0  0  0  0  0  0
   54.2013   22.8640   45.7094 H   0  0  0  0  0  0  0  0  0  0  0  0
   54.3181   25.6285   45.2834 H   0  0  0  0  0  0  0  0  0  0  0  0
   55.1071   24.6657   46.6204 H   0  0  0  0  0  0  0  0  0  0  0  0
  1  2  2  0
  2  3  1  0
  3  4  1  0
  4  5  1  0
  5  6  2  0
  6  7  1  0
  7  8  2  0
  8  9  1  0
  9 10  1  0
 10 11  2  0
 10 12  2  0
 10 13  1  0
 13 14  1  0
 14 15  1  0
 15 16  1  0
 16 17  1  0
 17 18  1  0
  9 19  2  0
  2 20  1  0
 20 21  1  0
 21 22  2  0
 22 23  1  0
 23 24  2  0
 24 25  1  0
 25 26  2  0
 26 27  1  0
 27 28  1  0
 28 29  1  0
 29 30  1  0
 30 31  1  0
 31 32  1  0
 19  5  1  0
 26 21  1  0
 32 27  1  0
 18 13  1  0
  3 33  1  0
  3 34  1  0
  4 35  1  0
  4 36  1  0
  6 37  1  0
  7 38  1  0
  8 39  1  0
 14 40  1  0
 14 41  1  0
 15 42  1  0
 15 43  1  0
 17 44  1  0
 17 45  1  0
 18 46  1  0
 18 47  1  0
 19 48  1  0
 22 49  1  0
 23 50  1  0
 24 51  1  0
 25 52  1  0
 28 53  1  0
 28 54  1  0
 29 55  1  0
 29 56  1  0
 31 57  1  0
 31 58  1  0
 32 59  1  0
 32 60  1  0
M  CHG  2   4   1  20  -1
M  END
>  <UniqueID>  (57) 
52

>  <SMILES>  (57) 
O=C(C[NH2+]c1cccc(S(=O)(=O)N2CCOCC2)c1)[N-]c1ccccc1N1CCOCC1

>  <Energy>  (57) 
81.91465148936568

>  <Genealogy>  (57) 
O=C(C[NH2+]c1cccc(S(=O)(=O)N2CCOCC2)c1)[N-]c1ccccc1N1CCOCC1 (protonated)
O=C(C[NH2+]c1cccc(S(=O)(=O)N2CCOCC2)c1)[N-]c1ccccc1N1CCOCC1 (3D coordinates assigned)
O=C(C[NH2+]c1cccc(S(=O)(=O)N2CCOCC2)c1)[N-]c1ccccc1N1CCOCC1 (nonaromatic ring conformer: 81.91465148936568 kcal/mol)

>  <smiles>  (57) 
O=C(CNc1cccc(S(=O)(=O)N2CCOCC2)c1)Nc1ccccc1N1CCOCC1

>  <score_type>  (57) 
oracle

>  <origin>  (57) 
adg

>  <m_score__min__energy>  (57) 
-9.9499999999999993

>  <m_primary>  (57) 
energy

$$$$
57:0
     RDKit          3D

 64 67  0  0  0  0  0  0  0  0999 V2000
   56.9280   31.7474   51.8860 H   0  0  0  0  0  0  0  0  0  0  0  0
   55.8400   31.6620   52.0240 C   0  0  0  0  0  0  0  0  0  0  0  0
   55.1848   32.5068   51.7653 H   0  0  0  0  0  0  0  0  0  0  0  0
   55.3120   30.5270   52.5080 C   0  0  0  0  0  0  0  0  0  0  0  0
   53.9560   30.2710   52.7370 C   0  0  0  0  0  0  0  0  0  0  0  0
   52.9220   31.1160   52.5490 C   0  0  0  0  0  0  0  0  0  0  0  0
   52.5979   31.7343   53.3991 H   0  0  0  0  0  0  0  0  0  0  0  0
   52.2010   31.2600   51.2730 C   0  0  0  0  0  0  0  0  0  0  0  0
   52.1980   30.3160   50.3150 N   0  0  0  0  0  0  0  0  0  0  0  0
   51.3650   30.8210   49.3790 C   0  0  0  0  0  0  0  0  0  0  0  0
   51.1190   30.2240   48.2970 O   0  0  0  0  0  0  0  0  0  0  0  0
   50.8170   32.0150   49.6920 N   0  0  0  0  0  0  0  0  0  0  0  0
   51.3480   32.2750   50.8980 C   0  0  0  0  0  0  0  0  0  0  0  0
   51.0250   33.3960   51.6530 O   0  0  0  0  0  0  0  0  0  0  0  0
   53.8850   28.9920   53.2730 C   0  0  0  0  0  0  0  0  0  0  0  0
   52.9742   28.4612   53.5872 H   0  0  0  0  0  0  0  0  0  0  0  0
   55.1790   28.5160   53.3350 C   0  0  0  0  0  0  0  0  0  0  0  0
   55.5730   27.1830   53.8930 C   0  0  0  0  0  0  0  0  0  0  0  0
   55.5599   27.2272   54.9920 H   0  0  0  0  0  0  0  0  0  0  0  0
   54.8629   26.4168   53.5484 H   0  0  0  0  0  0  0  0  0  0  0  0
   56.5855   26.9260   53.5484 H   0  0  0  0  0  0  0  0  0  0  0  0
   56.0460   29.4470   52.8770 N   0  0  0  0  0  0  0  0  0  0  0  0
   57.4770   29.3130   52.8360 C   0  0  0  0  0  0  0  0  0  0  0  0
   58.1540   29.3760   51.6110 C   0  0  0  0  0  0  0  0  0  0  0  0
   57.5889   29.5316   50.6802 H   0  0  0  0  0  0  0  0  0  0  0  0
   59.5440   29.2420   51.5670 C   0  0  0  0  0  0  0  0  0  0  0  0
   60.0666   29.2784   50.5997 H   0  0  0  0  0  0  0  0  0  0  0  0
   60.2780   29.0610   52.7510 C   0  0  0  0  0  0  0  0  0  0  0  0
   61.7440   28.8820   52.6930 C   0  0  0  0  0  0  0  0  0  0  0  0
   62.2060   27.7350   52.4390 O   0  0  0  0  0  0  0  0  0  0  0  0
   62.6500   29.9780   52.9330 N   0  0  0  0  0  0  0  0  0  0  0  0
   62.6020   30.6900   54.2160 C   0  0  0  0  0  0  0  0  0  0  0  0
   62.6510   29.9635   55.0405 H   0  0  0  0  0  0  0  0  0  0  0  0
   63.4556   31.3804   54.2844 H   0  0  0  0  0  0  0  0  0  0  0  0
   61.6634   31.2596   54.2844 H   0  0  0  0  0  0  0  0  0  0  0  0
   63.4690   30.4950   51.8250 C   0  0  0  0  0  0  0  0  0  0  0  0
   64.0931   31.3237   52.1908 H   0  0  0  0  0  0  0  0  0  0  0  0
   64.1064   29.6844   51.4421 H   0  0  0  0  0  0  0  0  0  0  0  0
   62.5680   31.0020   50.6890 C   0  0  0  0  0  0  0  0  0  0  0  0
   63.1424   31.6983   50.0603 H   0  0  0  0  0  0  0  0  0  0  0  0
   62.2294   30.1351   50.1027 H   0  0  0  0  0  0  0  0  0  0  0  0
   61.3750   31.7020   51.2170 N   0  0  0  0  0  0  0  0  0  0  0  0
   60.4880   32.1050   50.1070 C   0  0  0  0  0  0  0  0  0  0  0  0
   60.9638   32.9203   49.5423 H   0  0  0  0  0  0  0  0  0  0  0  0
   60.3210   31.2355   49.4542 H   0  0  0  0  0  0  0  0  0  0  0  0
   59.1280   32.5890   50.6450 C   0  0  0  0  0  0  0  0  0  0  0  0
   58.7549   33.3912   49.9914 H   0  0  0  0  0  0  0  0  0  0  0  0
   58.4453   31.7265   50.6549 H   0  0  0  0  0  0  0  0  0  0  0  0
   59.2240   33.1300   52.0890 C   0  0  0  0  0  0  0  0  0  0  0  0
   59.1651   32.2783   52.7827 H   0  0  0  0  0  0  0  0  0  0  0  0
   58.0530   34.0660   52.4050 C   0  0  0  0  0  0  0  0  0  0  0  0
   57.9398   34.1565   53.4954 H   0  0  0  0  0  0  0  0  0  0  0  0
   58.2500   35.0584   51.9732 H   0  0  0  0  0  0  0  0  0  0  0  0
   57.1284   33.6552   51.9732 H   0  0  0  0  0  0  0  0  0  0  0  0
   60.5690   33.8370   52.3050 C   0  0  0  0  0  0  0  0  0  0  0  0
   60.6378   34.6939   51.6187 H   0  0  0  0  0  0  0  0  0  0  0  0
   60.6214   34.1718   53.3515 H   0  0  0  0  0  0  0  0  0  0  0  0
   61.7550   32.8810   52.0380 C   0  0  0  0  0  0  0  0  0  0  0  0
   62.5423   33.4379   51.5088 H   0  0  0  0  0  0  0  0  0  0  0  0
   62.1023   32.5063   53.0122 H   0  0  0  0  0  0  0  0  0  0  0  0
   59.5950   28.9890   53.9780 C   0  0  0  0  0  0  0  0  0  0  0  0
   60.1579   28.8297   54.9096 H   0  0  0  0  0  0  0  0  0  0  0  0
   58.2040   29.1190   54.0190 C   0  0  0  0  0  0  0  0  0  0  0  0
   57.6774   29.0689   54.9835 H   0  0  0  0  0  0  0  0  0  0  0  0
  1  2  1  0
  2  3  1  0
  2  4  2  0
  4  5  1  0
  5  6  2  0
  6  7  1  0
  6  8  1  0
  8  9  1  0
  9 10  1  0
 10 11  2  0
 10 12  1  0
 12 13  1  0
 13 14  1  0
  5 15  1  0
 15 16  1  0
 15 17  2  0
 17 18  1  0
 18 19  1  0
 18 20  1  0
 18 21  1  0
 17 22  1  0
 22 23  1  0
 23 24  2  0
 24 25  1  0
 24 26  1  0
 26 27  1  0
 26 28  2  0
 28 29  1  0
 29 30  2  0
 29 31  1  0
 31 32  1  0
 32 33  1  0
 32 34  1  0
 32 35  1  0
 31 36  1  0
 36 37  1  0
 36 38  1  0
 36 39  1  0
 39 40  1  0
 39 41  1  0
 39 42  1  0
 42 43  1  0
 43 44  1  0
 43 45  1  0
 43 46  1  0
 46 47  1  0
 46 48  1  0
 46 49  1  0
 49 50  1  0
 49 51  1  0
 51 52  1  0
 51 53  1  0
 51 54  1  0
 49 55  1  0
 55 56  1  0
 55 57  1  0
 55 58  1  0
 58 59  1  0
 58 60  1  0
 28 61  1  0
 61 62  1  0
 61 63  2  0
 63 64  1  0
 22  4  1  0
 63 23  1  0
 13  8  2  0
 58 42  1  0
M  CHG  3   9  -1  12  -1  14  -1
M  END
>  <UniqueID>  (58) 
53

>  <SMILES>  (58) 
C=c1/c(=C/c2[n-]c(=O)[n-]c2[O-])cc(C)n1-c1ccc(C(=O)N(C)CCN2CCC(C)CC2)cc1

>  <Energy>  (58) 
143.52579787944774

>  <Genealogy>  (58) 
C=c1c(=Cc2[n-]c(=O)[n-]c2[O-])cc(C)n1-c1ccc(C(=O)N(C)CCN2CCC(C)CC2)cc1 (protonated)
C=c1/c(=C/c2[n-]c(=O)[n-]c2[O-])cc(C)n1-c1ccc(C(=O)N(C)CCN2CCC(C)CC2)cc1 (cis-trans isomerization)
C=c1/c(=C/c2[n-]c(=O)[n-]c2[O-])cc(C)n1-c1ccc(C(=O)N(C)CCN2CCC(C)CC2)cc1 (3D coordinates assigned)
C=c1/c(=C/c2[n-]c(=O)[n-]c2[O-])cc(C)n1-c1ccc(C(=O)N(C)CCN2CCC(C)CC2)cc1 (nonaromatic ring conformer: 143.52579787944774 kcal/mol)

>  <smiles>  (58) 
C=c1c(=Cc2[nH]c(=O)[nH]c2O)cc(C)n1-c1ccc(C(=O)N(C)CCN2CCC(C)CC2)cc1

>  <score_type>  (58) 
oracle

>  <origin>  (58) 
adg

>  <m_score__min__energy>  (58) 
-16.579999999999998

>  <m_primary>  (58) 
energy

$$$$
58:0
     RDKit          3D

 46 48  0  0  0  0  0  0  0  0999 V2000
   55.8120   30.3530   44.4750 O   0  0  0  0  0  0  0  0  0  0  0  0
   57.0090   30.6740   44.7050 C   0  0  0  0  0  0  0  0  0  0  0  0
   57.3410   32.1150   44.9460 C   0  0  0  0  0  0  0  0  0  0  0  0
   58.7780   32.2890   45.1660 N   0  0  0  0  0  0  0  0  0  0  0  0
   59.2080   32.0510   46.8390 S   0  0  0  0  0  0  0  0  0  0  0  0
   58.9420   30.6200   47.2080 O   0  0  0  0  0  0  0  0  0  0  0  0
   58.3560   32.9380   47.7060 O   0  0  0  0  0  0  0  0  0  0  0  0
   60.9270   32.3860   47.0920 C   0  0  0  0  0  0  0  0  0  0  0  0
   61.7330   31.4330   47.7410 C   0  0  0  0  0  0  0  0  0  0  0  0
   61.2010   30.2680   48.1890 F   0  0  0  0  0  0  0  0  0  0  0  0
   63.0970   31.6760   47.9300 C   0  0  0  0  0  0  0  0  0  0  0  0
   63.6630   32.8760   47.4960 C   0  0  0  0  0  0  0  0  0  0  0  0
   62.8640   33.8410   46.8770 C   0  0  0  0  0  0  0  0  0  0  0  0
   61.5010   33.6010   46.6720 C   0  0  0  0  0  0  0  0  0  0  0  0
   60.7520   34.5550   46.0660 F   0  0  0  0  0  0  0  0  0  0  0  0
   58.0360   29.6710   44.7980 N   0  0  0  0  0  0  0  0  0  0  0  0
   57.8140   28.2580   44.6380 C   0  0  0  0  0  0  0  0  0  0  0  0
   57.9610   27.6820   43.3730 C   0  0  0  0  0  0  0  0  0  0  0  0
   57.7700   26.3120   43.1850 C   0  0  0  0  0  0  0  0  0  0  0  0
   57.4000   25.4710   44.2600 C   0  0  0  0  0  0  0  0  0  0  0  0
   57.2110   24.0340   44.0700 N   0  0  0  0  0  0  0  0  0  0  0  0
   56.6170   23.5430   42.8080 C   0  0  0  0  0  0  0  0  0  0  0  0
   56.5590   22.0160   42.7110 C   0  0  0  0  0  0  0  0  0  0  0  0
   56.2410   21.4410   43.9550 O   0  0  0  0  0  0  0  0  0  0  0  0
   57.3310   21.6350   44.8240 C   0  0  0  0  0  0  0  0  0  0  0  0
   57.4810   23.1130   45.1940 C   0  0  0  0  0  0  0  0  0  0  0  0
   57.2040   26.0770   45.5230 C   0  0  0  0  0  0  0  0  0  0  0  0
   57.4010   27.4490   45.7070 C   0  0  0  0  0  0  0  0  0  0  0  0
   57.0363   32.7064   44.0700 H   0  0  0  0  0  0  0  0  0  0  0  0
   56.8038   32.4546   45.8438 H   0  0  0  0  0  0  0  0  0  0  0  0
   63.7258   30.9194   48.4221 H   0  0  0  0  0  0  0  0  0  0  0  0
   64.7374   33.0619   47.6412 H   0  0  0  0  0  0  0  0  0  0  0  0
   63.3082   34.7926   46.5498 H   0  0  0  0  0  0  0  0  0  0  0  0
   58.9730   29.9740   45.1510 H   0  0  0  0  0  0  0  0  0  0  0  0
   58.2304   28.3158   42.5153 H   0  0  0  0  0  0  0  0  0  0  0  0
   57.9097   25.8792   42.1834 H   0  0  0  0  0  0  0  0  0  0  0  0
   55.5924   23.9355   42.7301 H   0  0  0  0  0  0  0  0  0  0  0  0
   57.2629   23.8938   41.9896 H   0  0  0  0  0  0  0  0  0  0  0  0
   55.7907   21.7316   41.9769 H   0  0  0  0  0  0  0  0  0  0  0  0
   57.5474   21.6481   42.3986 H   0  0  0  0  0  0  0  0  0  0  0  0
   57.1688   21.0493   45.7409 H   0  0  0  0  0  0  0  0  0  0  0  0
   58.2486   21.3064   44.3142 H   0  0  0  0  0  0  0  0  0  0  0  0
   56.7767   23.3412   46.0076 H   0  0  0  0  0  0  0  0  0  0  0  0
   58.5285   23.2664   45.4926 H   0  0  0  0  0  0  0  0  0  0  0  0
   56.8908   25.4574   46.3762 H   0  0  0  0  0  0  0  0  0  0  0  0
   57.2309   27.8972   46.6971 H   0  0  0  0  0  0  0  0  0  0  0  0
  1  2  2  0
  2  3  1  0
  3  4  1  0
  4  5  1  0
  5  6  2  0
  5  7  2  0
  5  8  1  0
  8  9  2  0
  9 10  1  0
  9 11  1  0
 11 12  2  0
 12 13  1  0
 13 14  2  0
 14 15  1  0
  2 16  1  0
 16 17  1  0
 17 18  2  0
 18 19  1  0
 19 20  2  0
 20 21  1  0
 21 22  1  0
 22 23  1  0
 23 24  1  0
 24 25  1  0
 25 26  1  0
 20 27  1  0
 27 28  2  0
 14  8  1  0
 28 17  1  0
 26 21  1  0
  3 29  1  0
  3 30  1  0
 11 31  1  0
 12 32  1  0
 13 33  1  0
 16 34  1  0
 18 35  1  0
 19 36  1  0
 22 37  1  0
 22 38  1  0
 23 39  1  0
 23 40  1  0
 25 41  1  0
 25 42  1  0
 26 43  1  0
 26 44  1  0
 27 45  1  0
 28 46  1  0
M  CHG  1   4  -1
M  END
>  <UniqueID>  (59) 
54

>  <SMILES>  (59) 
O=C(C[N-]S(=O)(=O)c1c(F)cccc1F)Nc1ccc(N2CCOCC2)cc1

>  <Energy>  (59) 
55.236264402507864

>  <Genealogy>  (59) 
O=C(C[N-]S(=O)(=O)c1c(F)cccc1F)Nc1ccc(N2CCOCC2)cc1 (protonated)
O=C(C[N-]S(=O)(=O)c1c(F)cccc1F)Nc1ccc(N2CCOCC2)cc1 (3D coordinates assigned)
O=C(C[N-]S(=O)(=O)c1c(F)cccc1F)Nc1ccc(N2CCOCC2)cc1 (nonaromatic ring conformer: 55.236264402507864 kcal/mol)

>  <smiles>  (59) 
O=C(CNS(=O)(=O)c1c(F)cccc1F)Nc1ccc(N2CCOCC2)cc1

>  <score_type>  (59) 
oracle

>  <origin>  (59) 
adg

>  <m_score__min__energy>  (59) 
-9.0899999999999999

>  <m_primary>  (59) 
energy

$$$$
59:0
     RDKit          3D

 57 62  0  0  0  0  0  0  0  0999 V2000
   61.6000   31.1350   49.5510 O   0  0  0  0  0  0  0  0  0  0  0  0
   61.3320   32.2610   50.0500 C   0  0  0  0  0  0  0  0  0  0  0  0
   60.4910   32.3570   51.2090 N   0  0  0  0  0  0  0  0  0  0  0  0
   59.4510   31.4180   51.5420 C   0  0  0  0  0  0  0  0  0  0  0  0
   59.8010   30.1890   52.1260 C   0  0  0  0  0  0  0  0  0  0  0  0
   58.8120   29.2780   52.5090 C   0  0  0  0  0  0  0  0  0  0  0  0
   57.4620   29.5910   52.3260 C   0  0  0  0  0  0  0  0  0  0  0  0
   56.5040   28.7190   52.7220 F   0  0  0  0  0  0  0  0  0  0  0  0
   57.1000   30.8140   51.7560 C   0  0  0  0  0  0  0  0  0  0  0  0
   58.0880   31.7250   51.3670 C   0  0  0  0  0  0  0  0  0  0  0  0
   62.0590   33.4730   49.5360 C   0  0  1  0  0  0  0  0  0  0  0  0
   62.0200   33.7160   48.0250 C   0  0  1  0  0  0  0  0  0  0  0  0
   60.9790   33.0190   47.1430 C   0  0  0  0  0  0  0  0  0  0  0  0
   59.6830   33.8380   47.2540 C   0  0  2  0  0  0  0  0  0  0  0  0
   58.4220   32.9360   47.1850 C   0  0  0  0  0  0  0  0  0  0  0  0
   58.1620   32.4110   45.7950 C   0  0  0  0  0  0  0  0  0  0  0  0
   57.5350   31.1700   45.6060 C   0  0  0  0  0  0  0  0  0  0  0  0
   57.1910   30.7350   44.3180 C   0  0  0  0  0  0  0  0  0  0  0  0
   56.4120   29.1650   44.1060 S   0  0  0  0  0  0  0  0  0  0  0  0
   54.9490   29.3590   43.8270 O   0  0  0  0  0  0  0  0  0  0  0  0
   57.0250   28.4530   42.9320 O   0  0  0  0  0  0  0  0  0  0  0  0
   56.5550   28.2160   45.5550 N   0  0  0  0  0  0  0  0  0  0  0  0
   56.5160   26.9180   45.6180 C   0  0  0  0  0  0  0  0  0  0  0  0
   57.6790   26.1830   45.3560 C   0  0  0  0  0  0  0  0  0  0  0  0
   57.6380   24.7880   45.4170 C   0  0  0  0  0  0  0  0  0  0  0  0
   56.4420   24.1420   45.7360 C   0  0  0  0  0  0  0  0  0  0  0  0
   55.3010   24.9050   45.9890 C   0  0  0  0  0  0  0  0  0  0  0  0
   55.3620   26.2620   45.9260 N   0  0  0  0  0  0  0  0  0  0  0  0
   57.4450   31.5700   43.2160 C   0  0  0  0  0  0  0  0  0  0  0  0
   57.0940   31.1930   41.9630 F   0  0  0  0  0  0  0  0  0  0  0  0
   58.0600   32.8130   43.4030 C   0  0  0  0  0  0  0  0  0  0  0  0
   58.4220   33.2340   44.6850 C   0  0  0  0  0  0  0  0  0  0  0  0
   59.0660   34.4980   44.8660 N   0  0  0  0  0  0  0  0  0  0  0  0
   59.6370   34.8610   46.1260 C   0  0  0  0  0  0  0  0  0  0  0  0
   60.1800   35.9900   46.2510 O   0  0  0  0  0  0  0  0  0  0  0  0
   59.7740   34.5180   48.6290 C   0  0  0  0  0  0  0  0  0  0  0  0
   61.2600   34.6490   48.9670 C   0  0  1  0  0  0  0  0  0  0  0  0
   60.6380   33.1770   51.8420 H   0  0  0  0  0  0  0  0  0  0  0  0
   60.8613   29.9416   52.2831 H   0  0  0  0  0  0  0  0  0  0  0  0
   59.0966   28.3136   52.9550 H   0  0  0  0  0  0  0  0  0  0  0  0
   56.0376   31.0608   51.6130 H   0  0  0  0  0  0  0  0  0  0  0  0
   57.7980   32.6879   50.9213 H   0  0  0  0  0  0  0  0  0  0  0  0
   62.8394   33.3816   50.3059 H   0  0  0  0  0  0  0  0  0  0  0  0
   62.8406   33.7182   47.2925 H   0  0  0  0  0  0  0  0  0  0  0  0
   60.8092   31.9916   47.4974 H   0  0  0  0  0  0  0  0  0  0  0  0
   61.3212   32.9612   46.0992 H   0  0  0  0  0  0  0  0  0  0  0  0
   58.5617   32.0820   47.8641 H   0  0  0  0  0  0  0  0  0  0  0  0
   57.5567   33.5487   47.4779 H   0  0  0  0  0  0  0  0  0  0  0  0
   57.3116   30.5335   46.4749 H   0  0  0  0  0  0  0  0  0  0  0  0
   58.6168   26.6998   45.1043 H   0  0  0  0  0  0  0  0  0  0  0  0
   58.5454   24.2001   45.2143 H   0  0  0  0  0  0  0  0  0  0  0  0
   56.3995   23.0440   45.7874 H   0  0  0  0  0  0  0  0  0  0  0  0
   54.3520   24.4084   46.2395 H   0  0  0  0  0  0  0  0  0  0  0  0
   58.2592   33.4613   42.5370 H   0  0  0  0  0  0  0  0  0  0  0  0
   59.2668   33.9043   49.3880 H   0  0  0  0  0  0  0  0  0  0  0  0
   59.2875   35.5044   48.6115 H   0  0  0  0  0  0  0  0  0  0  0  0
   61.2260   35.6967   49.3003 H   0  0  0  0  0  0  0  0  0  0  0  0
  1  2  2  0
  2  3  1  0
  3  4  1  0
  4  5  2  0
  5  6  1  0
  6  7  2  0
  7  8  1  0
  7  9  1  0
  9 10  2  0
  2 11  1  0
 11 12  1  0
 12 13  1  0
 14 13  1  6
 14 15  1  0
 15 16  1  0
 16 17  2  0
 17 18  1  0
 18 19  1  0
 19 20  2  0
 19 21  2  0
 19 22  1  0
 22 23  2  3
 23 24  1  0
 24 25  2  0
 25 26  1  0
 26 27  2  0
 27 28  1  0
 18 29  2  0
 29 30  1  0
 29 31  1  0
 31 32  2  0
 32 33  1  0
 33 34  1  0
 34 35  2  0
 14 36  1  0
 36 37  1  0
 10  4  1  0
 37 11  1  0
 37 12  1  0
 34 14  1  0
 32 16  1  0
 28 23  1  0
  3 38  1  0
  5 39  1  0
  6 40  1  0
  9 41  1  0
 10 42  1  0
 11 43  1  1
 12 44  1  6
 13 45  1  0
 13 46  1  0
 15 47  1  0
 15 48  1  0
 17 49  1  0
 24 50  1  0
 25 51  1  0
 26 52  1  0
 27 53  1  0
 31 54  1  0
 36 55  1  0
 36 56  1  0
 37 57  1  1
M  CHG  2  28  -1  33  -1
M  END
>  <UniqueID>  (60) 
55

>  <SMILES>  (60) 
O=C(Nc1ccc(F)cc1)C1[C@H]2CC3(Cc4cc(S(=O)(=O)N=c5cccc[n-]5)c(F)cc4[N-]C3=O)C[C@@H]12

>  <Energy>  (60) 
349.28880828730775

>  <Genealogy>  (60) 
O=C(Nc1ccc(F)cc1)C1C2CC3(Cc4cc(S(=O)(=O)N=c5cccc[n-]5)c(F)cc4[N-]C3=O)CC21 (protonated)
O=C(Nc1ccc(F)cc1)C1[C@H]2CC3(Cc4cc(S(=O)(=O)N=c5cccc[n-]5)c(F)cc4[N-]C3=O)C[C@@H]12 (chirality)
O=C(Nc1ccc(F)cc1)C1[C@H]2CC3(Cc4cc(S(=O)(=O)N=c5cccc[n-]5)c(F)cc4[N-]C3=O)C[C@@H]12 (3D coordinates assigned)
O=C(Nc1ccc(F)cc1)C1[C@H]2CC3(Cc4cc(S(=O)(=O)N=c5cccc[n-]5)c(F)cc4[N-]C3=O)C[C@@H]12 (nonaromatic ring conformer: 349.28880828730775 kcal/mol)

>  <smiles>  (60) 
O=C(Nc1ccc(F)cc1)C1C2CC3(Cc4cc(S(=O)(=O)N=c5cccc[nH]5)c(F)cc4NC3=O)CC21

>  <score_type>  (60) 
oracle

>  <origin>  (60) 
adg

>  <m_score__min__energy>  (60) 
-13.15

>  <m_primary>  (60) 
energy

$$$$
60:0
     RDKit          3D

 49 52  0  0  0  0  0  0  0  0999 V2000
   58.2780   29.2490   47.4290 C   0  0  0  0  0  0  0  0  0  0  0  0
   58.0550   30.0440   46.3700 C   0  0  0  0  0  0  0  0  0  0  0  0
   57.5070   29.6610   45.1310 C   0  0  0  0  0  0  0  0  0  0  0  0
   56.9830   28.4920   44.7090 C   0  0  0  0  0  0  0  0  0  0  0  0
   57.1540   27.1860   45.3590 C   0  0  0  0  0  0  0  0  0  0  0  0
   58.3360   26.5350   45.4320 N   0  0  0  0  0  0  0  0  0  0  0  0
   58.0220   25.3720   46.0490 C   0  0  0  0  0  0  0  0  0  0  0  0
   58.8860   24.5020   46.3470 O   0  0  0  0  0  0  0  0  0  0  0  0
   56.7060   25.2410   46.3270 N   0  0  0  0  0  0  0  0  0  0  0  0
   56.0450   24.1720   47.0770 C   0  0  0  0  0  0  0  0  0  0  0  0
   54.8500   23.5700   46.3560 C   0  0  0  0  0  0  0  0  0  0  0  0
   56.1560   22.7970   46.4340 C   0  0  0  0  0  0  0  0  0  0  0  0
   56.1600   26.3910   45.8960 C   0  0  0  0  0  0  0  0  0  0  0  0
   54.8100   26.7130   45.9920 O   0  0  0  0  0  0  0  0  0  0  0  0
   57.5450   30.7860   44.3290 C   0  0  0  0  0  0  0  0  0  0  0  0
   58.0630   31.8100   45.0920 C   0  0  0  0  0  0  0  0  0  0  0  0
   58.1290   33.2400   44.6350 C   0  0  0  0  0  0  0  0  0  0  0  0
   58.4020   31.3630   46.3270 N   0  0  0  0  0  0  0  0  0  0  0  0
   58.9690   32.1920   47.4120 C   0  0  0  0  0  0  0  0  0  0  0  0
   60.4360   32.5550   47.1750 C   0  0  0  0  0  0  0  0  0  0  0  0
   60.8150   33.8850   46.8230 C   0  0  0  0  0  0  0  0  0  0  0  0
   59.7990   34.9800   46.6110 C   0  0  0  0  0  0  0  0  0  0  0  0
   62.1770   34.2040   46.6740 C   0  0  0  0  0  0  0  0  0  0  0  0
   63.1610   33.2320   46.8370 C   0  0  0  0  0  0  0  0  0  0  0  0
   62.8030   31.9220   47.1350 C   0  0  0  0  0  0  0  0  0  0  0  0
   61.4540   31.5680   47.2860 C   0  0  0  0  0  0  0  0  0  0  0  0
   61.1550   30.1520   47.5430 C   0  0  0  0  0  0  0  0  0  0  0  0
   60.9940   29.7460   48.7230 O   0  0  0  0  0  0  0  0  0  0  0  0
   60.9930   29.2700   46.4810 O   0  0  0  0  0  0  0  0  0  0  0  0
   58.7139   29.6670   48.3484 H   0  0  0  0  0  0  0  0  0  0  0  0
   58.0248   28.1798   47.3771 H   0  0  0  0  0  0  0  0  0  0  0  0
   56.3719   28.5192   43.7948 H   0  0  0  0  0  0  0  0  0  0  0  0
   56.2316   24.5779   48.0822 H   0  0  0  0  0  0  0  0  0  0  0  0
   53.9752   23.2307   46.9302 H   0  0  0  0  0  0  0  0  0  0  0  0
   54.1882   23.8976   45.5407 H   0  0  0  0  0  0  0  0  0  0  0  0
   56.2267   21.8987   47.0650 H   0  0  0  0  0  0  0  0  0  0  0  0
   56.8311   22.3339   45.6993 H   0  0  0  0  0  0  0  0  0  0  0  0
   57.2225   30.8516   43.2794 H   0  0  0  0  0  0  0  0  0  0  0  0
   58.1596   33.9040   45.5115 H   0  0  0  0  0  0  0  0  0  0  0  0
   59.0350   33.3900   44.0295 H   0  0  0  0  0  0  0  0  0  0  0  0
   57.2406   33.4728   44.0295 H   0  0  0  0  0  0  0  0  0  0  0  0
   58.3846   33.1209   47.4867 H   0  0  0  0  0  0  0  0  0  0  0  0
   58.9190   31.6031   48.3397 H   0  0  0  0  0  0  0  0  0  0  0  0
   59.4530   35.3529   47.5863 H   0  0  0  0  0  0  0  0  0  0  0  0
   60.2600   35.8036   46.0461 H   0  0  0  0  0  0  0  0  0  0  0  0
   58.9432   34.5818   46.0461 H   0  0  0  0  0  0  0  0  0  0  0  0
   62.4687   35.2351   46.4254 H   0  0  0  0  0  0  0  0  0  0  0  0
   64.2222   33.5009   46.7299 H   0  0  0  0  0  0  0  0  0  0  0  0
   63.5842   31.1567   47.2534 H   0  0  0  0  0  0  0  0  0  0  0  0
  1  2  2  0
  2  3  1  0
  3  4  2  3
  4  5  1  0
  5  6  1  0
  6  7  1  0
  7  8  2  0
  7  9  1  0
  9 10  1  0
 10 11  1  0
 11 12  1  0
  9 13  1  0
 13 14  1  0
  3 15  1  0
 15 16  2  0
 16 17  1  0
 16 18  1  0
 18 19  1  0
 19 20  1  0
 20 21  2  0
 21 22  1  0
 21 23  1  0
 23 24  2  0
 24 25  1  0
 25 26  2  0
 26 27  1  0
 27 28  2  0
 27 29  1  0
 18  2  1  0
 26 20  1  0
 13  5  2  0
 12 10  1  0
  1 30  1  0
  1 31  1  0
  4 32  1  0
 10 33  1  0
 11 34  1  0
 11 35  1  0
 12 36  1  0
 12 37  1  0
 15 38  1  0
 17 39  1  0
 17 40  1  0
 17 41  1  0
 19 42  1  0
 19 43  1  0
 22 44  1  0
 22 45  1  0
 22 46  1  0
 23 47  1  0
 24 48  1  0
 25 49  1  0
M  CHG  3   6  -1  14  -1  29  -1
M  END
>  <UniqueID>  (61) 
56

>  <SMILES>  (61) 
C=c1c(=Cc2[n-]c(=O)n(C3CC3)c2[O-])cc(C)n1Cc1c(C)cccc1C(=O)[O-]

>  <Energy>  (61) 
402.1468669180056

>  <Genealogy>  (61) 
C=c1c(=Cc2[n-]c(=O)n(C3CC3)c2[O-])cc(C)n1Cc1c(C)cccc1C(=O)[O-] (protonated)
C=c1c(=Cc2[n-]c(=O)n(C3CC3)c2[O-])cc(C)n1Cc1c(C)cccc1C(=O)[O-] (3D coordinates assigned)
C=c1c(=Cc2[n-]c(=O)n(C3CC3)c2[O-])cc(C)n1Cc1c(C)cccc1C(=O)[O-] (nonaromatic ring conformer: 402.1468669180056 kcal/mol)

>  <smiles>  (61) 
C=c1c(=Cc2[nH]c(=O)n(C3CC3)c2O)cc(C)n1Cc1c(C)cccc1C(=O)O

>  <score_type>  (61) 
oracle

>  <origin>  (61) 
adg

>  <m_score__min__energy>  (61) 
-15.43

>  <m_primary>  (61) 
energy

$$$$
61:0
     RDKit          3D

 39 41  0  0  0  0  0  0  0  0999 V2000
   59.8840   24.0070   45.2080 H   0  0  0  0  0  0  0  0  0  0  0  0
   59.2070   24.2820   45.9090 O   0  0  0  0  0  0  0  0  0  0  0  0
   58.5040   25.4810   45.8100 C   0  0  0  0  0  0  0  0  0  0  0  0
   59.2010   26.6750   45.6000 C   0  0  0  0  0  0  0  0  0  0  0  0
   60.2978   26.6627   45.5165 H   0  0  0  0  0  0  0  0  0  0  0  0
   58.5080   27.8830   45.4960 C   0  0  0  0  0  0  0  0  0  0  0  0
   59.0638   28.8200   45.3438 H   0  0  0  0  0  0  0  0  0  0  0  0
   57.1110   27.9100   45.5840 C   0  0  0  0  0  0  0  0  0  0  0  0
   56.4540   29.1440   45.4730 O   0  0  0  0  0  0  0  0  0  0  0  0
   56.7490   30.1320   44.5210 C   0  0  0  0  0  0  0  0  0  0  0  0
   56.6720   29.8800   43.1390 C   0  0  0  0  0  0  0  0  0  0  0  0
   56.3509   28.8915   42.7787 H   0  0  0  0  0  0  0  0  0  0  0  0
   57.0020   30.8810   42.2240 C   0  0  0  0  0  0  0  0  0  0  0  0
   56.9398   30.6793   41.1444 H   0  0  0  0  0  0  0  0  0  0  0  0
   57.4110   32.1380   42.6750 C   0  0  0  0  0  0  0  0  0  0  0  0
   57.6718   32.9205   41.9472 H   0  0  0  0  0  0  0  0  0  0  0  0
   57.4920   32.4110   44.0510 C   0  0  0  0  0  0  0  0  0  0  0  0
   57.9500   33.7540   44.4820 C   0  0  0  0  0  0  0  0  0  0  0  0
   57.2266   34.5823   44.4582 H   0  0  0  0  0  0  0  0  0  0  0  0
   59.1970   34.0140   44.8990 C   0  0  0  0  0  0  0  0  0  0  0  0
   60.0397   33.7981   44.2258 H   0  0  0  0  0  0  0  0  0  0  0  0
   59.4760   34.5830   46.2380 C   0  0  0  0  0  0  0  0  0  0  0  0
   59.7190   35.8130   46.3570 O   0  0  0  0  0  0  0  0  0  0  0  0
   59.4070   33.7830   47.4280 N   0  0  0  0  0  0  0  0  0  0  0  0
   59.5750   32.4960   47.5080 C   0  0  0  0  0  0  0  0  0  0  0  0
   60.3300   31.7670   46.6550 N   0  0  0  0  0  0  0  0  0  0  0  0
   60.3710   30.4740   46.9750 N   0  0  0  0  0  0  0  0  0  0  0  0
   59.6690   30.1760   48.0920 C   0  0  0  0  0  0  0  0  0  0  0  0
   59.5010   28.7870   48.6170 C   0  0  0  0  0  0  0  0  0  0  0  0
   59.6720   28.7790   49.9890 F   0  0  0  0  0  0  0  0  0  0  0  0
   58.2320   28.3320   48.3130 F   0  0  0  0  0  0  0  0  0  0  0  0
   60.4370   27.9460   48.0430 F   0  0  0  0  0  0  0  0  0  0  0  0
   58.9230   31.5470   48.7330 S   0  0  0  0  0  0  0  0  0  0  0  0
   57.1750   31.3880   44.9680 C   0  0  0  0  0  0  0  0  0  0  0  0
   57.2636   31.5793   46.0476 H   0  0  0  0  0  0  0  0  0  0  0  0
   56.4100   26.7110   45.8240 C   0  0  0  0  0  0  0  0  0  0  0  0
   55.0300   26.7160   45.9910 O   0  0  0  0  0  0  0  0  0  0  0  0
   57.1080   25.5020   45.9240 C   0  0  0  0  0  0  0  0  0  0  0  0
   56.5581   24.5644   46.0928 H   0  0  0  0  0  0  0  0  0  0  0  0
  1  2  1  0
  2  3  1  0
  3  4  2  0
  4  5  1  0
  4  6  1  0
  6  7  1  0
  6  8  2  0
  8  9  1  0
  9 10  1  0
 10 11  2  0
 11 12  1  0
 11 13  1  0
 13 14  1  0
 13 15  2  0
 15 16  1  0
 15 17  1  0
 17 18  1  0
 18 19  1  0
 18 20  2  0
 20 21  1  0
 20 22  1  0
 22 23  2  0
 22 24  1  0
 24 25  2  0
 25 26  1  0
 26 27  1  0
 27 28  2  0
 28 29  1  0
 29 30  1  0
 29 31  1  0
 29 32  1  0
 28 33  1  0
 17 34  2  0
 34 35  1  0
  8 36  1  0
 36 37  1  0
 36 38  2  0
 38 39  1  0
 38  3  1  0
 34 10  1  0
 33 25  1  0
M  CHG  2  26  -1  37  -1
M  END
>  <UniqueID>  (62) 
57

>  <SMILES>  (62) 
O=C(/C=C/c1cccc(Oc2ccc(O)cc2[O-])c1)/N=c1\[n-]nc(C(F)(F)F)s1

>  <Energy>  (62) 
88.97226530052951

>  <Genealogy>  (62) 
O=C(C=Cc1cccc(Oc2ccc(O)cc2[O-])c1)N=c1[n-]nc(C(F)(F)F)s1 (protonated)
O=C(/C=C/c1cccc(Oc2ccc(O)cc2[O-])c1)/N=c1\[n-]nc(C(F)(F)F)s1 (cis-trans isomerization)
O=C(/C=C/c1cccc(Oc2ccc(O)cc2[O-])c1)/N=c1\[n-]nc(C(F)(F)F)s1 (3D coordinates assigned)
O=C(/C=C/c1cccc(Oc2ccc(O)cc2[O-])c1)/N=c1\[n-]nc(C(F)(F)F)s1 (optimized conformer: 88.97226530052951 kcal/mol)

>  <smiles>  (62) 
O=C(C=Cc1cccc(Oc2ccc(O)cc2O)c1)N=c1[nH]nc(C(F)(F)F)s1

>  <score_type>  (62) 
oracle

>  <origin>  (62) 
adg

>  <m_score__min__energy>  (62) 
-13.470000000000001

>  <m_primary>  (62) 
energy

$$$$
62:0
     RDKit          3D

 69 73  0  0  0  0  0  0  0  0999 V2000
   57.7819   26.1864   48.4076 H   0  0  0  0  0  0  0  0  0  0  0  0
   57.3860   25.7150   47.4960 C   0  0  0  0  0  0  0  0  0  0  0  0
   56.6195   24.9296   47.5714 H   0  0  0  0  0  0  0  0  0  0  0  0
   57.8380   26.0980   46.2920 C   0  0  0  0  0  0  0  0  0  0  0  0
   57.4400   25.6010   45.0410 C   0  0  0  0  0  0  0  0  0  0  0  0
   56.7170   24.5130   44.7110 C   0  0  0  0  0  0  0  0  0  0  0  0
   57.2282   23.7232   44.1410 H   0  0  0  0  0  0  0  0  0  0  0  0
   55.3020   24.2910   45.0480 C   0  0  0  0  0  0  0  0  0  0  0  0
   54.6010   23.1870   44.7320 N   0  0  0  0  0  0  0  0  0  0  0  0
   53.3440   23.4950   45.1170 C   0  0  0  0  0  0  0  0  0  0  0  0
   52.3840   22.6900   45.0030 O   0  0  0  0  0  0  0  0  0  0  0  0
   53.1970   24.7350   45.6340 N   0  0  0  0  0  0  0  0  0  0  0  0
   54.4430   25.2280   45.5670 C   0  0  0  0  0  0  0  0  0  0  0  0
   54.7910   26.5100   45.9780 O   0  0  0  0  0  0  0  0  0  0  0  0
   57.9640   26.4690   44.0950 C   0  0  0  0  0  0  0  0  0  0  0  0
   57.8106   26.4227   43.0067 H   0  0  0  0  0  0  0  0  0  0  0  0
   58.7140   27.4010   44.7800 C   0  0  0  0  0  0  0  0  0  0  0  0
   59.4730   28.5230   44.1380 C   0  0  0  0  0  0  0  0  0  0  0  0
   59.9075   29.1653   44.9181 H   0  0  0  0  0  0  0  0  0  0  0  0
   60.2781   28.1103   43.5124 H   0  0  0  0  0  0  0  0  0  0  0  0
   58.7903   29.1167   43.5124 H   0  0  0  0  0  0  0  0  0  0  0  0
   58.6390   27.1780   46.1110 N   0  0  0  0  0  0  0  0  0  0  0  0
   59.2530   27.9840   47.1330 C   0  0  0  0  0  0  0  0  0  0  0  0
   60.1650   27.4110   48.0270 C   0  0  0  0  0  0  0  0  0  0  0  0
   60.4093   26.3414   47.9483 H   0  0  0  0  0  0  0  0  0  0  0  0
   60.7670   28.1900   49.0190 C   0  0  0  0  0  0  0  0  0  0  0  0
   61.4913   27.7316   49.7083 H   0  0  0  0  0  0  0  0  0  0  0  0
   60.4530   29.5590   49.1430 C   0  0  0  0  0  0  0  0  0  0  0  0
   61.0840   30.4170   50.1860 C   0  0  0  0  0  0  0  0  0  0  0  0
   61.0430   30.0300   51.3890 O   0  0  0  0  0  0  0  0  0  0  0  0
   61.6880   31.6960   49.8630 N   0  0  1  0  0  0  0  0  0  0  0  0
   61.1510   32.1100   49.0700 H   0  0  0  0  0  0  0  0  0  0  0  0
   61.6000   32.5910   51.0360 C   0  0  0  0  0  0  0  0  0  0  0  0
   62.1152   32.1120   51.8817 H   0  0  0  0  0  0  0  0  0  0  0  0
   60.5326   32.7553   51.2448 H   0  0  0  0  0  0  0  0  0  0  0  0
   62.2420   33.9780   50.7890 C   0  0  0  0  0  0  0  0  0  0  0  0
   62.9721   34.1693   51.5892 H   0  0  0  0  0  0  0  0  0  0  0  0
   61.4231   34.7124   50.7807 H   0  0  0  0  0  0  0  0  0  0  0  0
   62.9710   34.0990   49.4220 C   0  0  2  0  0  0  0  0  0  0  0  0
   63.5526   35.0323   49.3969 H   0  0  0  0  0  0  0  0  0  0  0  0
   62.0480   34.2220   48.2500 N   0  0  0  0  0  0  0  0  0  0  0  0
   62.3080   33.2380   47.1810 C   0  0  0  0  0  0  0  0  0  0  0  0
   62.5645   32.2674   47.6306 H   0  0  0  0  0  0  0  0  0  0  0  0
   61.4083   33.1272   46.5579 H   0  0  0  0  0  0  0  0  0  0  0  0
   63.1450   33.5861   46.5579 H   0  0  0  0  0  0  0  0  0  0  0  0
   60.6040   34.2420   48.6100 C   0  0  0  0  0  0  0  0  0  0  0  0
   60.4006   33.3878   49.2725 H   0  0  0  0  0  0  0  0  0  0  0  0
   60.4100   35.2097   49.0958 H   0  0  0  0  0  0  0  0  0  0  0  0
   59.6710   34.1540   47.4180 C   0  0  0  0  0  0  0  0  0  0  0  0
   58.6360   33.2030   47.3940 C   0  0  0  0  0  0  0  0  0  0  0  0
   58.5025   32.5173   48.2437 H   0  0  0  0  0  0  0  0  0  0  0  0
   57.7750   33.1250   46.2940 C   0  0  0  0  0  0  0  0  0  0  0  0
   56.9617   32.3844   46.2850 H   0  0  0  0  0  0  0  0  0  0  0  0
   57.9460   33.9850   45.2080 C   0  0  0  0  0  0  0  0  0  0  0  0
   57.2659   33.9237   44.3456 H   0  0  0  0  0  0  0  0  0  0  0  0
   58.9800   34.9230   45.2160 C   0  0  0  0  0  0  0  0  0  0  0  0
   59.1161   35.5973   44.3576 H   0  0  0  0  0  0  0  0  0  0  0  0
   59.8430   35.0070   46.3130 C   0  0  0  0  0  0  0  0  0  0  0  0
   60.6601   35.7435   46.3118 H   0  0  0  0  0  0  0  0  0  0  0  0
   63.8750   32.8520   49.3060 C   0  0  0  0  0  0  0  0  0  0  0  0
   64.6135   32.8778   50.1208 H   0  0  0  0  0  0  0  0  0  0  0  0
   64.3533   32.8841   48.3160 H   0  0  0  0  0  0  0  0  0  0  0  0
   63.0880   31.5220   49.3960 C   0  0  0  0  0  0  0  0  0  0  0  0
   63.6096   30.8549   50.0981 H   0  0  0  0  0  0  0  0  0  0  0  0
   63.0421   31.1021   48.3803 H   0  0  0  0  0  0  0  0  0  0  0  0
   59.5400   30.1270   48.2340 C   0  0  0  0  0  0  0  0  0  0  0  0
   59.2908   31.1958   48.3086 H   0  0  0  0  0  0  0  0  0  0  0  0
   58.9480   29.3470   47.2390 C   0  0  0  0  0  0  0  0  0  0  0  0
   58.2383   29.8052   46.5345 H   0  0  0  0  0  0  0  0  0  0  0  0
  1  2  1  0
  2  3  1  0
  2  4  2  0
  4  5  1  0
  5  6  2  0
  6  7  1  0
  6  8  1  0
  8  9  1  0
  9 10  1  0
 10 11  2  0
 10 12  1  0
 12 13  1  0
 13 14  1  0
  5 15  1  0
 15 16  1  0
 15 17  2  0
 17 18  1  0
 18 19  1  0
 18 20  1  0
 18 21  1  0
 17 22  1  0
 22 23  1  0
 23 24  2  0
 24 25  1  0
 24 26  1  0
 26 27  1  0
 26 28  2  0
 28 29  1  0
 29 30  2  0
 29 31  1  0
 31 32  1  1
 31 33  1  0
 33 34  1  0
 33 35  1  0
 33 36  1  0
 36 37  1  0
 36 38  1  0
 36 39  1  0
 39 40  1  6
 39 41  1  0
 41 42  1  0
 42 43  1  0
 42 44  1  0
 42 45  1  0
 41 46  1  0
 46 47  1  0
 46 48  1  0
 46 49  1  0
 49 50  2  0
 50 51  1  0
 50 52  1  0
 52 53  1  0
 52 54  2  0
 54 55  1  0
 54 56  1  0
 56 57  1  0
 56 58  2  0
 58 59  1  0
 39 60  1  0
 60 61  1  0
 60 62  1  0
 60 63  1  0
 63 64  1  0
 63 65  1  0
 28 66  1  0
 66 67  1  0
 66 68  2  0
 68 69  1  0
 22  4  1  0
 68 23  1  0
 13  8  2  0
 63 31  1  0
 58 49  1  0
M  CHG  4   9  -1  12  -1  14  -1  31   1
M  END
>  <UniqueID>  (63) 
58

>  <SMILES>  (63) 
C=c1/c(=C\c2[n-]c(=O)[n-]c2[O-])cc(C)n1-c1ccc(C(=O)[NH+]2CCC(N(C)Cc3ccccc3)CC2)cc1

>  <Energy>  (63) 
171.60958350746455

>  <Genealogy>  (63) 
C=c1c(=Cc2[n-]c(=O)[n-]c2[O-])cc(C)n1-c1ccc(C(=O)[NH+]2CCC(N(C)Cc3ccccc3)CC2)cc1 (protonated)
C=c1/c(=C\c2[n-]c(=O)[n-]c2[O-])cc(C)n1-c1ccc(C(=O)[NH+]2CCC(N(C)Cc3ccccc3)CC2)cc1 (cis-trans isomerization)
C=c1/c(=C\c2[n-]c(=O)[n-]c2[O-])cc(C)n1-c1ccc(C(=O)[NH+]2CCC(N(C)Cc3ccccc3)CC2)cc1 (3D coordinates assigned)
C=c1/c(=C\c2[n-]c(=O)[n-]c2[O-])cc(C)n1-c1ccc(C(=O)[NH+]2CCC(N(C)Cc3ccccc3)CC2)cc1 (nonaromatic ring conformer: 171.60958350746455 kcal/mol)

>  <smiles>  (63) 
C=c1c(=Cc2[nH]c(=O)[nH]c2O)cc(C)n1-c1ccc(C(=O)N2CCC(N(C)Cc3ccccc3)CC2)cc1

>  <score_type>  (63) 
oracle

>  <origin>  (63) 
adg

>  <m_score__min__energy>  (63) 
-16.469999999999999

>  <m_primary>  (63) 
energy

$$$$
63:0
     RDKit          3D

 63 66  0  0  0  0  0  0  0  0999 V2000
   62.4470   33.5190   46.5020 C   0  0  0  0  0  0  0  0  0  0  0  0
   61.3770   34.4190   46.7770 O   0  0  0  0  0  0  0  0  0  0  0  0
   60.0310   34.1840   46.4540 C   0  0  0  0  0  0  0  0  0  0  0  0
   59.5480   34.3590   45.1400 C   0  0  0  0  0  0  0  0  0  0  0  0
   58.2130   34.0900   44.8340 C   0  0  0  0  0  0  0  0  0  0  0  0
   57.3440   33.6430   45.8280 C   0  0  0  0  0  0  0  0  0  0  0  0
   57.8050   33.4680   47.1340 C   0  0  0  0  0  0  0  0  0  0  0  0
   59.1440   33.7420   47.4630 C   0  0  0  0  0  0  0  0  0  0  0  0
   59.5930   33.5690   48.8640 C   0  0  0  0  0  0  0  0  0  0  0  0
   58.8400   33.0620   49.9140 C   0  0  0  0  0  0  0  0  0  0  0  0
   59.7240   32.9910   50.9750 C   0  0  0  0  0  0  0  0  0  0  0  0
   59.4180   32.4070   52.3260 C   0  0  0  0  0  0  0  0  0  0  0  0
   59.2690   30.9560   52.2430 N   0  0  0  0  0  0  0  0  0  0  0  0
   58.7620   30.2080   51.1280 C   0  0  0  0  0  0  0  0  0  0  0  0
   57.5800   29.7750   51.1880 O   0  0  0  0  0  0  0  0  0  0  0  0
   59.6210   29.8590   49.9290 C   0  0  1  0  0  0  0  0  0  0  0  0
   61.0250   29.3800   50.3770 C   0  0  0  0  0  0  0  0  0  0  0  0
   61.1130   27.8530   50.4210 C   0  0  0  0  0  0  0  0  0  0  0  0
   60.7600   27.2270   49.0540 C   0  0  0  0  0  0  0  0  0  0  0  0
   59.9420   28.1280   48.2020 N   0  0  0  0  0  0  0  0  0  0  0  0
   59.3130   27.3920   47.0850 C   0  0  0  0  0  0  0  0  0  0  0  0
   58.5240   28.3330   46.1980 C   0  0  0  0  0  0  0  0  0  0  0  0
   59.0990   29.5820   45.8950 C   0  0  0  0  0  0  0  0  0  0  0  0
   58.4330   30.4970   45.0810 C   0  0  0  0  0  0  0  0  0  0  0  0
   57.1840   30.1820   44.5540 C   0  0  0  0  0  0  0  0  0  0  0  0
   56.5910   28.9540   44.8460 C   0  0  0  0  0  0  0  0  0  0  0  0
   57.2350   28.0150   45.6760 C   0  0  0  0  0  0  0  0  0  0  0  0
   56.5270   26.7330   45.9490 C   0  0  0  0  0  0  0  0  0  0  0  0
   57.1570   25.6720   46.1940 O   0  0  0  0  0  0  0  0  0  0  0  0
   55.1380   26.6990   45.9710 O   0  0  0  0  0  0  0  0  0  0  0  0
   58.9250   28.8260   49.0110 C   0  0  0  0  0  0  0  0  0  0  0  0
   60.9250   33.4600   50.5750 N   0  0  0  0  0  0  0  0  0  0  0  0
   62.1590   33.4940   51.3550 C   0  0  0  0  0  0  0  0  0  0  0  0
   60.8500   33.7920   49.2960 N   0  0  0  0  0  0  0  0  0  0  0  0
   62.8755   33.1586   47.4488 H   0  0  0  0  0  0  0  0  0  0  0  0
   62.0676   32.6645   45.9224 H   0  0  0  0  0  0  0  0  0  0  0  0
   63.2239   34.0392   45.9224 H   0  0  0  0  0  0  0  0  0  0  0  0
   60.2288   34.7102   44.3506 H   0  0  0  0  0  0  0  0  0  0  0  0
   57.8460   34.2310   43.8066 H   0  0  0  0  0  0  0  0  0  0  0  0
   56.2934   33.4278   45.5830 H   0  0  0  0  0  0  0  0  0  0  0  0
   57.1142   33.1125   47.9127 H   0  0  0  0  0  0  0  0  0  0  0  0
   57.7769   32.7796   49.9043 H   0  0  0  0  0  0  0  0  0  0  0  0
   60.2401   32.6461   53.0167 H   0  0  0  0  0  0  0  0  0  0  0  0
   58.4738   32.8378   52.6904 H   0  0  0  0  0  0  0  0  0  0  0  0
   59.7564   30.7733   49.3326 H   0  0  0  0  0  0  0  0  0  0  0  0
   61.7748   29.7603   49.6677 H   0  0  0  0  0  0  0  0  0  0  0  0
   61.2118   29.7642   51.3906 H   0  0  0  0  0  0  0  0  0  0  0  0
   62.1380   27.5616   50.6938 H   0  0  0  0  0  0  0  0  0  0  0  0
   60.3910   27.4866   51.1656 H   0  0  0  0  0  0  0  0  0  0  0  0
   61.6944   26.9935   48.5226 H   0  0  0  0  0  0  0  0  0  0  0  0
   60.1638   26.3231   49.2478 H   0  0  0  0  0  0  0  0  0  0  0  0
   60.0973   26.9051   46.4868 H   0  0  0  0  0  0  0  0  0  0  0  0
   58.6262   26.6399   47.5005 H   0  0  0  0  0  0  0  0  0  0  0  0
   60.0865   29.8391   46.3059 H   0  0  0  0  0  0  0  0  0  0  0  0
   58.8953   31.4692   44.8549 H   0  0  0  0  0  0  0  0  0  0  0  0
   56.6637   30.9028   43.9061 H   0  0  0  0  0  0  0  0  0  0  0  0
   55.6048   28.7147   44.4216 H   0  0  0  0  0  0  0  0  0  0  0  0
   58.2181   29.3434   48.3457 H   0  0  0  0  0  0  0  0  0  0  0  0
   58.3793   28.0955   49.6263 H   0  0  0  0  0  0  0  0  0  0  0  0
   61.9151   33.4873   52.4276 H   0  0  0  0  0  0  0  0  0  0  0  0
   62.7705   32.6124   51.1125 H   0  0  0  0  0  0  0  0  0  0  0  0
   62.7210   34.4080   51.1125 H   0  0  0  0  0  0  0  0  0  0  0  0
   61.6500   34.1540   48.7300 H   0  0  0  0  0  0  0  0  0  0  0  0
  1  2  1  0
  2  3  1  0
  3  4  2  0
  4  5  1  0
  5  6  2  0
  6  7  1  0
  7  8  2  0
  8  9  1  0
  9 10  1  0
 10 11  2  0
 11 12  1  0
 12 13  1  0
 13 14  1  0
 14 15  2  0
 14 16  1  0
 16 17  1  0
 17 18  1  0
 18 19  1  0
 19 20  1  0
 20 21  1  0
 21 22  1  0
 22 23  2  0
 23 24  1  0
 24 25  2  0
 25 26  1  0
 26 27  2  0
 27 28  1  0
 28 29  2  0
 28 30  1  0
 20 31  1  0
 11 32  1  0
 32 33  1  0
 32 34  1  0
  8  3  1  0
 34  9  2  0
 31 16  1  0
 27 22  1  0
  1 35  1  0
  1 36  1  0
  1 37  1  0
  4 38  1  0
  5 39  1  0
  6 40  1  0
  7 41  1  0
 10 42  1  0
 12 43  1  0
 12 44  1  0
 16 45  1  6
 17 46  1  0
 17 47  1  0
 18 48  1  0
 18 49  1  0
 19 50  1  0
 19 51  1  0
 21 52  1  0
 21 53  1  0
 23 54  1  0
 24 55  1  0
 25 56  1  0
 26 57  1  0
 31 58  1  0
 31 59  1  0
 33 60  1  0
 33 61  1  0
 33 62  1  0
 34 63  1  0
M  CHG  3  13  -1  30  -1  34   1
M  END
>  <UniqueID>  (64) 
59

>  <SMILES>  (64) 
COc1ccccc1-c1cc(C[N-]C(=O)[C@H]2CCCN(Cc3ccccc3C(=O)[O-])C2)n(C)[nH+]1

>  <Energy>  (64) 
106.47974360517478

>  <Genealogy>  (64) 
COc1ccccc1-c1cc(C[N-]C(=O)C2CCCN(Cc3ccccc3C(=O)[O-])C2)n(C)[nH+]1 (protonated)
COc1ccccc1-c1cc(C[N-]C(=O)[C@H]2CCCN(Cc3ccccc3C(=O)[O-])C2)n(C)[nH+]1 (chirality)
COc1ccccc1-c1cc(C[N-]C(=O)[C@H]2CCCN(Cc3ccccc3C(=O)[O-])C2)n(C)[nH+]1 (3D coordinates assigned)
COc1ccccc1-c1cc(C[N-]C(=O)[C@H]2CCCN(Cc3ccccc3C(=O)[O-])C2)n(C)[nH+]1 (nonaromatic ring conformer: 106.47974360517478 kcal/mol)

>  <smiles>  (64) 
COc1ccccc1-c1cc(CNC(=O)C2CCCN(Cc3ccccc3C(=O)O)C2)n(C)n1

>  <score_type>  (64) 
oracle

>  <origin>  (64) 
adg

>  <m_score__min__energy>  (64) 
-12.58

>  <m_primary>  (64) 
energy

$$$$
65:0
     RDKit          3D

 59 62  0  0  0  0  0  0  0  0999 V2000
   54.9460   31.3670   52.3380 C   0  0  0  0  0  0  0  0  0  0  0  0
   55.0230   30.0790   52.7150 C   0  0  0  0  0  0  0  0  0  0  0  0
   53.9840   29.1330   52.6760 C   0  0  0  0  0  0  0  0  0  0  0  0
   52.7690   29.1790   52.0970 C   0  0  0  0  0  0  0  0  0  0  0  0
   52.2010   30.3500   51.4120 C   0  0  0  0  0  0  0  0  0  0  0  0
   51.8070   30.4190   49.7700 S   0  0  0  0  0  0  0  0  0  0  0  0
   51.0500   31.9080   49.9240 C   0  0  0  0  0  0  0  0  0  0  0  0
   50.5240   32.5390   48.9700 O   0  0  0  0  0  0  0  0  0  0  0  0
   51.0480   32.3570   51.1940 N   0  0  0  0  0  0  0  0  0  0  0  0
   51.6710   31.4820   52.0300 C   0  0  0  0  0  0  0  0  0  0  0  0
   51.7680   31.7320   53.3970 O   0  0  0  0  0  0  0  0  0  0  0  0
   54.4510   28.0110   53.3380 C   0  0  0  0  0  0  0  0  0  0  0  0
   55.7590   28.2700   53.6850 C   0  0  0  0  0  0  0  0  0  0  0  0
   56.6660   27.2840   54.3580 C   0  0  0  0  0  0  0  0  0  0  0  0
   56.1140   29.5230   53.3120 N   0  0  0  0  0  0  0  0  0  0  0  0
   57.4660   30.0910   53.4540 C   0  0  0  0  0  0  0  0  0  0  0  0
   57.8800   30.7940   52.1860 C   0  0  0  0  0  0  0  0  0  0  0  0
   58.0860   32.1870   52.1770 C   0  0  0  0  0  0  0  0  0  0  0  0
   58.5020   32.8330   51.0080 C   0  0  0  0  0  0  0  0  0  0  0  0
   58.7450   32.1020   49.8410 C   0  0  0  0  0  0  0  0  0  0  0  0
   59.1930   32.8030   48.6720 N   0  0  0  0  0  0  0  0  0  0  0  0
   58.7530   32.5890   47.3210 C   0  0  0  0  0  0  0  0  0  0  0  0
   58.4730   33.5700   46.5800 O   0  0  0  0  0  0  0  0  0  0  0  0
   58.5050   31.2130   46.8510 C   0  0  0  0  0  0  0  0  0  0  0  0
   59.2680   30.2920   47.2420 O   0  0  0  0  0  0  0  0  0  0  0  0
   57.3920   30.8670   46.0180 N   0  0  0  0  0  0  0  0  0  0  0  0
   57.2660   29.4380   45.0400 S   0  0  0  0  0  0  0  0  0  0  0  0
   55.8350   28.9930   44.9030 O   0  0  0  0  0  0  0  0  0  0  0  0
   57.8220   29.7280   43.6710 O   0  0  0  0  0  0  0  0  0  0  0  0
   58.2010   28.1470   45.8120 C   0  0  0  0  0  0  0  0  0  0  0  0
   57.5340   27.2170   46.6310 C   0  0  0  0  0  0  0  0  0  0  0  0
   58.2410   26.1830   47.2530 C   0  0  0  0  0  0  0  0  0  0  0  0
   59.6190   26.0620   47.0660 C   0  0  0  0  0  0  0  0  0  0  0  0
   60.2970   26.9690   46.2490 C   0  0  0  0  0  0  0  0  0  0  0  0
   59.6030   28.0200   45.6150 C   0  0  0  0  0  0  0  0  0  0  0  0
   60.3720   28.9700   44.7240 C   0  0  0  0  0  0  0  0  0  0  0  0
   58.4940   30.7170   49.8350 C   0  0  0  0  0  0  0  0  0  0  0  0
   58.0710   30.0700   50.9990 C   0  0  0  0  0  0  0  0  0  0  0  0
   55.8307   32.0162   52.4143 H   0  0  0  0  0  0  0  0  0  0  0  0
   53.9983   31.7717   51.9532 H   0  0  0  0  0  0  0  0  0  0  0  0
   52.1527   28.2689   52.1398 H   0  0  0  0  0  0  0  0  0  0  0  0
   52.4400   31.2530   53.9840 H   0  0  0  0  0  0  0  0  0  0  0  0
   53.8868   27.0901   53.5469 H   0  0  0  0  0  0  0  0  0  0  0  0
   56.5726   27.3855   55.4493 H   0  0  0  0  0  0  0  0  0  0  0  0
   56.3844   26.2635   54.0592 H   0  0  0  0  0  0  0  0  0  0  0  0
   57.7064   27.4796   54.0592 H   0  0  0  0  0  0  0  0  0  0  0  0
   57.4704   30.8115   54.2852 H   0  0  0  0  0  0  0  0  0  0  0  0
   58.1752   29.2746   53.6556 H   0  0  0  0  0  0  0  0  0  0  0  0
   57.9189   32.7705   53.0944 H   0  0  0  0  0  0  0  0  0  0  0  0
   58.6390   33.9244   51.0068 H   0  0  0  0  0  0  0  0  0  0  0  0
   56.4481   27.3040   46.7831 H   0  0  0  0  0  0  0  0  0  0  0  0
   57.7093   25.4625   47.8919 H   0  0  0  0  0  0  0  0  0  0  0  0
   60.1716   25.2510   47.5629 H   0  0  0  0  0  0  0  0  0  0  0  0
   61.3815   26.8627   46.0988 H   0  0  0  0  0  0  0  0  0  0  0  0
   60.9428   29.6751   45.3461 H   0  0  0  0  0  0  0  0  0  0  0  0
   61.0643   28.3978   44.0890 H   0  0  0  0  0  0  0  0  0  0  0  0
   59.6681   29.5280   44.0890 H   0  0  0  0  0  0  0  0  0  0  0  0
   58.6317   30.1405   48.9084 H   0  0  0  0  0  0  0  0  0  0  0  0
   57.8864   28.9857   50.9849 H   0  0  0  0  0  0  0  0  0  0  0  0
  1  2  2  0
  2  3  1  0
  3  4  2  3
  4  5  1  0
  5  6  1  0
  6  7  1  0
  7  8  2  0
  7  9  1  0
  9 10  1  0
 10 11  1  0
  3 12  1  0
 12 13  2  0
 13 14  1  0
 13 15  1  0
 15 16  1  0
 16 17  1  0
 17 18  2  0
 18 19  1  0
 19 20  2  0
 20 21  1  0
 21 22  1  0
 22 23  2  0
 22 24  1  0
 24 25  2  0
 24 26  1  0
 26 27  1  0
 27 28  2  0
 27 29  2  0
 27 30  1  0
 30 31  2  0
 31 32  1  0
 32 33  2  0
 33 34  1  0
 34 35  2  0
 35 36  1  0
 20 37  1  0
 37 38  2  0
 15  2  1  0
 38 17  1  0
 10  5  2  0
 35 30  1  0
  1 39  1  0
  1 40  1  0
  4 41  1  0
 11 42  1  0
 12 43  1  0
 14 44  1  0
 14 45  1  0
 14 46  1  0
 16 47  1  0
 16 48  1  0
 18 49  1  0
 19 50  1  0
 31 51  1  0
 32 52  1  0
 33 53  1  0
 34 54  1  0
 36 55  1  0
 36 56  1  0
 36 57  1  0
 37 58  1  0
 38 59  1  0
M  CHG  3   9  -1  21  -1  26  -1
M  END
>  <UniqueID>  (65) 
60

>  <SMILES>  (65) 
C=c1c(=Cc2sc(=O)[n-]c2O)cc(C)n1Cc1ccc([N-]C(=O)C(=O)[N-]S(=O)(=O)c2ccccc2C)cc1

>  <Energy>  (65) 
145.4795795470627

>  <Genealogy>  (65) 
C=c1c(=Cc2sc(=O)[n-]c2O)cc(C)n1Cc1ccc([N-]C(=O)C(=O)[N-]S(=O)(=O)c2ccccc2C)cc1 (protonated)
C=c1c(=Cc2sc(=O)[n-]c2O)cc(C)n1Cc1ccc([N-]C(=O)C(=O)[N-]S(=O)(=O)c2ccccc2C)cc1 (3D coordinates assigned)
C=c1c(=Cc2sc(=O)[n-]c2O)cc(C)n1Cc1ccc([N-]C(=O)C(=O)[N-]S(=O)(=O)c2ccccc2C)cc1 (optimized conformer: 145.4795795470627 kcal/mol)

>  <smiles>  (65) 
C=c1c(=Cc2sc(=O)[nH]c2O)cc(C)n1Cc1ccc(NC(=O)C(=O)NS(=O)(=O)c2ccccc2C)cc1

>  <score_type>  (65) 
oracle

>  <origin>  (65) 
adg

>  <m_score__min__energy>  (65) 
-14.550000000000001

>  <m_primary>  (65) 
energy

$$$$
66:0
     RDKit          3D

 56 58  0  0  0  0  0  0  0  0999 V2000
   57.1160   20.3770   48.6310 C   0  0  0  0  0  0  0  0  0  0  0  0
   56.3020   20.9130   47.4410 C   0  0  0  0  0  0  0  0  0  0  0  0
   56.9730   20.7920   46.1220 N   0  0  1  0  0  0  0  0  0  0  0  0
   56.8900   19.4330   45.5550 C   0  0  0  0  0  0  0  0  0  0  0  0
   56.4920   21.7880   45.1840 C   0  0  0  0  0  0  0  0  0  0  0  0
   55.9030   21.4410   44.1220 O   0  0  0  0  0  0  0  0  0  0  0  0
   56.6120   23.2260   45.4870 C   0  0  0  0  0  0  0  0  0  0  0  0
   55.4830   24.0460   45.3620 C   0  0  0  0  0  0  0  0  0  0  0  0
   55.5640   25.4100   45.6510 C   0  0  0  0  0  0  0  0  0  0  0  0
   56.7880   25.9810   46.0380 C   0  0  0  0  0  0  0  0  0  0  0  0
   56.9090   27.3710   46.3910 N   0  0  0  0  0  0  0  0  0  0  0  0
   57.0370   28.3930   45.5910 C   0  0  0  0  0  0  0  0  0  0  0  0
   55.9420   29.0230   45.0790 N   0  0  0  0  0  0  0  0  0  0  0  0
   56.0360   30.0870   44.2390 C   0  0  0  0  0  0  0  0  0  0  0  0
   57.2960   30.5820   43.8640 C   0  0  0  0  0  0  0  0  0  0  0  0
   57.4100   31.7700   42.9860 C   0  0  0  0  0  0  0  0  0  0  0  0
   57.3950   31.6330   41.7340 O   0  0  0  0  0  0  0  0  0  0  0  0
   57.5710   33.0730   43.5600 N   0  0  0  0  0  0  0  0  0  0  0  0
   58.0320   33.3590   44.8870 C   0  0  0  0  0  0  0  0  0  0  0  0
   57.4010   32.8190   46.0240 C   0  0  0  0  0  0  0  0  0  0  0  0
   57.9070   33.0860   47.3010 C   0  0  0  0  0  0  0  0  0  0  0  0
   59.0470   33.8800   47.4510 C   0  0  0  0  0  0  0  0  0  0  0  0
   59.6870   34.4030   46.3240 C   0  0  0  0  0  0  0  0  0  0  0  0
   59.1850   34.1350   45.0480 C   0  0  0  0  0  0  0  0  0  0  0  0
   58.4410   29.9400   44.3640 C   0  0  0  0  0  0  0  0  0  0  0  0
   58.3220   28.8380   45.2230 C   0  0  0  0  0  0  0  0  0  0  0  0
   59.5600   28.1680   45.7630 C   0  0  0  0  0  0  0  0  0  0  0  0
   57.9110   25.1590   46.1770 C   0  0  0  0  0  0  0  0  0  0  0  0
   57.8420   23.7790   45.8910 C   0  0  0  0  0  0  0  0  0  0  0  0
   58.9730   22.9440   45.9690 O   0  0  0  0  0  0  0  0  0  0  0  0
   59.6460   22.3850   44.8450 C   0  0  0  0  0  0  0  0  0  0  0  0
   56.6399   20.6905   49.5718 H   0  0  0  0  0  0  0  0  0  0  0  0
   57.1512   19.2785   48.5861 H   0  0  0  0  0  0  0  0  0  0  0  0
   58.1390   20.7787   48.5861 H   0  0  0  0  0  0  0  0  0  0  0  0
   55.3549   20.3553   47.3955 H   0  0  0  0  0  0  0  0  0  0  0  0
   56.1640   21.9895   47.6203 H   0  0  0  0  0  0  0  0  0  0  0  0
   57.9910   20.9730   46.3000 H   0  0  0  0  0  0  0  0  0  0  0  0
   56.8451   18.6972   46.3714 H   0  0  0  0  0  0  0  0  0  0  0  0
   55.9850   19.3489   44.9353 H   0  0  0  0  0  0  0  0  0  0  0  0
   57.7780   19.2394   44.9353 H   0  0  0  0  0  0  0  0  0  0  0  0
   54.5266   23.6127   45.0341 H   0  0  0  0  0  0  0  0  0  0  0  0
   54.6655   26.0400   45.5753 H   0  0  0  0  0  0  0  0  0  0  0  0
   55.1227   30.5621   43.8515 H   0  0  0  0  0  0  0  0  0  0  0  0
   56.5087   32.1862   45.9082 H   0  0  0  0  0  0  0  0  0  0  0  0
   57.4066   32.6703   48.1880 H   0  0  0  0  0  0  0  0  0  0  0  0
   59.4406   34.0933   48.4558 H   0  0  0  0  0  0  0  0  0  0  0  0
   60.5861   35.0257   46.4416 H   0  0  0  0  0  0  0  0  0  0  0  0
   59.7002   34.5372   44.1632 H   0  0  0  0  0  0  0  0  0  0  0  0
   59.4390   30.3046   44.0794 H   0  0  0  0  0  0  0  0  0  0  0  0
   59.5344   28.1819   46.8626 H   0  0  0  0  0  0  0  0  0  0  0  0
   59.5969   27.1268   45.4102 H   0  0  0  0  0  0  0  0  0  0  0  0
   60.4519   28.7065   45.4102 H   0  0  0  0  0  0  0  0  0  0  0  0
   58.8628   25.5951   46.5145 H   0  0  0  0  0  0  0  0  0  0  0  0
   60.4488   21.7182   45.1927 H   0  0  0  0  0  0  0  0  0  0  0  0
   58.9306   21.8117   44.2371 H   0  0  0  0  0  0  0  0  0  0  0  0
   60.0783   23.1935   44.2371 H   0  0  0  0  0  0  0  0  0  0  0  0
  1  2  1  0
  2  3  1  0
  3  4  1  0
  3  5  1  0
  5  6  2  0
  5  7  1  0
  7  8  2  0
  8  9  1  0
  9 10  2  0
 10 11  1  0
 11 12  2  3
 12 13  1  0
 13 14  1  0
 14 15  2  0
 15 16  1  0
 16 17  2  0
 16 18  1  0
 18 19  1  0
 19 20  2  0
 20 21  1  0
 21 22  2  0
 22 23  1  0
 23 24  2  0
 15 25  1  0
 25 26  2  0
 26 27  1  0
 10 28  1  0
 28 29  2  0
 29 30  1  0
 30 31  1  0
 29  7  1  0
 26 12  1  0
 24 19  1  0
  1 32  1  0
  1 33  1  0
  1 34  1  0
  2 35  1  0
  2 36  1  0
  3 37  1  1
  4 38  1  0
  4 39  1  0
  4 40  1  0
  8 41  1  0
  9 42  1  0
 14 43  1  0
 20 44  1  0
 21 45  1  0
 22 46  1  0
 23 47  1  0
 24 48  1  0
 25 49  1  0
 27 50  1  0
 27 51  1  0
 27 52  1  0
 28 53  1  0
 31 54  1  0
 31 55  1  0
 31 56  1  0
M  CHG  3   3   1  13  -1  18  -1
M  END
>  <UniqueID>  (66) 
61

>  <SMILES>  (66) 
CC[N@@H+](C)C(=O)c1ccc(N=c2[n-]cc(C(=O)[N-]c3ccccc3)cc2C)cc1OC

>  <Energy>  (66) 
78.52332524043644

>  <Genealogy>  (66) 
CC[NH+](C)C(=O)c1ccc(N=c2[n-]cc(C(=O)[N-]c3ccccc3)cc2C)cc1OC (protonated)
CC[N@@H+](C)C(=O)c1ccc(N=c2[n-]cc(C(=O)[N-]c3ccccc3)cc2C)cc1OC (chirality)
CC[N@@H+](C)C(=O)c1ccc(N=c2[n-]cc(C(=O)[N-]c3ccccc3)cc2C)cc1OC (3D coordinates assigned)
CC[N@@H+](C)C(=O)c1ccc(N=c2[n-]cc(C(=O)[N-]c3ccccc3)cc2C)cc1OC (optimized conformer: 78.52332524043644 kcal/mol)

>  <smiles>  (66) 
CCN(C)C(=O)c1ccc(N=c2[nH]cc(C(=O)Nc3ccccc3)cc2C)cc1OC

>  <score_type>  (66) 
oracle

>  <origin>  (66) 
adg

>  <m_score__min__energy>  (66) 
-11.66

>  <m_primary>  (66) 
energy

$$$$
67:0
     RDKit          3D

 20 21  0  0  0  0  0  0  0  0999 V2000
   59.9880   29.0080   45.1400 C   0  0  0  0  0  0  0  0  0  0  0  0
   58.6890   28.9660   44.8220 C   0  0  0  0  0  0  0  0  0  0  0  0
   58.2300   29.6430   43.7280 N   0  0  0  0  0  0  0  0  0  0  0  0
   56.8830   29.6700   43.6630 C   0  0  0  0  0  0  0  0  0  0  0  0
   56.2190   30.2800   42.7360 N   0  0  0  0  0  0  0  0  0  0  0  0
   56.1790   28.8420   44.9340 S   0  0  0  0  0  0  0  0  0  0  0  0
   57.6600   28.3830   45.6070 C   0  0  0  0  0  0  0  0  0  0  0  0
   57.7230   27.5800   46.6840 C   0  0  0  0  0  0  0  0  0  0  0  0
   57.1600   26.2230   46.7820 C   0  0  0  0  0  0  0  0  0  0  0  0
   57.8680   25.1170   47.0780 N   0  0  0  0  0  0  0  0  0  0  0  0
   56.9730   24.1200   46.9110 C   0  0  0  0  0  0  0  0  0  0  0  0
   57.2600   22.9110   47.1140 O   0  0  0  0  0  0  0  0  0  0  0  0
   55.7500   24.5180   46.5010 N   0  0  0  0  0  0  0  0  0  0  0  0
   55.8920   25.8500   46.4100 C   0  0  0  0  0  0  0  0  0  0  0  0
   54.8830   26.7080   45.9900 O   0  0  0  0  0  0  0  0  0  0  0  0
   60.3564   28.4624   46.0212 H   0  0  0  0  0  0  0  0  0  0  0  0
   60.6875   29.5881   44.5202 H   0  0  0  0  0  0  0  0  0  0  0  0
   58.8460   30.1410   43.0440 H   0  0  0  0  0  0  0  0  0  0  0  0
   55.5230   29.7760   42.1440 H   0  0  0  0  0  0  0  0  0  0  0  0
   58.2416   27.9722   47.5713 H   0  0  0  0  0  0  0  0  0  0  0  0
  1  2  2  0
  2  3  1  0
  3  4  1  0
  4  5  2  3
  4  6  1  0
  6  7  1  0
  7  8  2  3
  8  9  1  0
  9 10  1  0
 10 11  1  0
 11 12  2  0
 11 13  1  0
 13 14  1  0
 14 15  1  0
  7  2  1  0
 14  9  2  0
  1 16  1  0
  1 17  1  0
  3 18  1  0
  5 19  1  0
  8 20  1  0
M  CHG  3  10  -1  13  -1  15  -1
M  END
>  <UniqueID>  (67) 
62

>  <SMILES>  (67) 
C=c1[nH]c(=N)sc1=Cc1[n-]c(=O)[n-]c1[O-]

>  <Energy>  (67) 
92.66666535580916

>  <Genealogy>  (67) 
C=c1[nH]c(=N)sc1=Cc1[n-]c(=O)[n-]c1[O-] (protonated)
C=c1[nH]c(=N)sc1=Cc1[n-]c(=O)[n-]c1[O-] (3D coordinates assigned)
C=c1[nH]c(=N)sc1=Cc1[n-]c(=O)[n-]c1[O-] (optimized conformer: 92.66666535580916 kcal/mol)

>  <smiles>  (67) 
C=c1[nH]c(=N)sc1=Cc1[nH]c(=O)[nH]c1O

>  <score_type>  (67) 
oracle

>  <origin>  (67) 
adg

>  <m_score__min__energy>  (67) 
-14.51

>  <m_primary>  (67) 
energy

$$$$
68:0
     RDKit          3D

 68 71  0  0  0  0  0  0  0  0999 V2000
   55.5700   30.1070   44.1390 C   0  0  0  0  0  0  0  0  0  0  0  0
   56.7360   29.6460   44.9150 N   0  0  0  0  0  0  0  0  0  0  0  0
   57.3920   28.4750   44.2880 C   0  0  0  0  0  0  0  0  0  0  0  0
   57.6610   27.3370   45.2520 C   0  0  0  0  0  0  0  0  0  0  0  0
   56.6010   26.7140   45.9320 C   0  0  0  0  0  0  0  0  0  0  0  0
   56.8510   25.6570   46.8120 C   0  0  0  0  0  0  0  0  0  0  0  0
   58.1590   25.2160   47.0260 C   0  0  0  0  0  0  0  0  0  0  0  0
   59.2210   25.8340   46.3610 C   0  0  0  0  0  0  0  0  0  0  0  0
   58.9760   26.8920   45.4800 C   0  0  0  0  0  0  0  0  0  0  0  0
   57.6850   30.7460   45.1840 C   0  0  0  0  0  0  0  0  0  0  0  0
   58.7910   30.2760   46.0790 C   0  0  0  0  0  0  0  0  0  0  0  0
   60.0870   30.0010   45.6800 C   0  0  0  0  0  0  0  0  0  0  0  0
   60.7770   29.6510   46.8230 C   0  0  0  0  0  0  0  0  0  0  0  0
   59.8670   29.7190   47.8640 C   0  0  0  0  0  0  0  0  0  0  0  0
   60.1820   29.4610   49.3140 C   0  0  0  0  0  0  0  0  0  0  0  0
   60.2650   30.6910   50.1390 N   0  0  1  0  0  0  0  0  0  0  0  0
   59.5860   30.5270   51.4430 C   0  0  0  0  0  0  0  0  0  0  0  0
   61.6460   31.2700   50.1980 C   0  0  0  0  0  0  0  0  0  0  0  0
   62.0710   32.0670   48.9780 C   0  0  0  0  0  0  0  0  0  0  0  0
   63.3960   32.0250   48.5140 C   0  0  0  0  0  0  0  0  0  0  0  0
   63.7860   32.7970   47.4180 C   0  0  0  0  0  0  0  0  0  0  0  0
   62.8590   33.6140   46.7680 C   0  0  0  0  0  0  0  0  0  0  0  0
   61.5250   33.6520   47.2040 C   0  0  0  0  0  0  0  0  0  0  0  0
   60.5290   34.5660   46.5430 C   0  0  0  0  0  0  0  0  0  0  0  0
   59.3560   33.7960   46.0890 N   0  0  0  0  0  0  0  0  0  0  0  0
   58.2910   33.7420   47.0980 C   0  0  0  0  0  0  0  0  0  0  0  0
   56.9860   33.5450   46.3450 C   0  0  0  0  0  0  0  0  0  0  0  0
   57.2760   33.9710   44.9130 C   0  0  0  0  0  0  0  0  0  0  0  0
   58.7350   34.4010   44.9080 C   0  0  0  0  0  0  0  0  0  0  0  0
   61.1370   32.8750   48.3050 C   0  0  0  0  0  0  0  0  0  0  0  0
   58.6640   30.1190   47.4090 N   0  0  0  0  0  0  0  0  0  0  0  0
   54.7725   30.4223   44.8279 H   0  0  0  0  0  0  0  0  0  0  0  0
   55.8641   30.9565   43.5051 H   0  0  0  0  0  0  0  0  0  0  0  0
   55.2036   29.2861   43.5051 H   0  0  0  0  0  0  0  0  0  0  0  0
   56.7409   28.1019   43.4837 H   0  0  0  0  0  0  0  0  0  0  0  0
   58.3686   28.8164   43.9141 H   0  0  0  0  0  0  0  0  0  0  0  0
   55.5692   27.0597   45.7711 H   0  0  0  0  0  0  0  0  0  0  0  0
   56.0155   25.1713   47.3373 H   0  0  0  0  0  0  0  0  0  0  0  0
   58.3528   24.3828   47.7176 H   0  0  0  0  0  0  0  0  0  0  0  0
   60.2512   25.4879   46.5307 H   0  0  0  0  0  0  0  0  0  0  0  0
   59.8158   27.3788   44.9626 H   0  0  0  0  0  0  0  0  0  0  0  0
   58.1127   31.0962   44.2330 H   0  0  0  0  0  0  0  0  0  0  0  0
   57.1477   31.5664   45.6822 H   0  0  0  0  0  0  0  0  0  0  0  0
   60.4873   30.0513   44.6567 H   0  0  0  0  0  0  0  0  0  0  0  0
   61.8390   29.3732   46.8929 H   0  0  0  0  0  0  0  0  0  0  0  0
   59.3934   28.8171   49.7305 H   0  0  0  0  0  0  0  0  0  0  0  0
   61.1744   28.9875   49.3459 H   0  0  0  0  0  0  0  0  0  0  0  0
   59.6810   31.3930   49.6230 H   0  0  0  0  0  0  0  0  0  0  0  0
   60.3063   30.7010   52.2559 H   0  0  0  0  0  0  0  0  0  0  0  0
   58.7625   31.2521   51.5214 H   0  0  0  0  0  0  0  0  0  0  0  0
   59.1842   29.5060   51.5214 H   0  0  0  0  0  0  0  0  0  0  0  0
   61.6980   31.9350   51.0727 H   0  0  0  0  0  0  0  0  0  0  0  0
   62.3321   30.4119   50.2533 H   0  0  0  0  0  0  0  0  0  0  0  0
   64.1311   31.3798   49.0173 H   0  0  0  0  0  0  0  0  0  0  0  0
   64.8273   32.7614   47.0653 H   0  0  0  0  0  0  0  0  0  0  0  0
   63.1745   34.2292   45.9125 H   0  0  0  0  0  0  0  0  0  0  0  0
   60.2047   35.3319   47.2629 H   0  0  0  0  0  0  0  0  0  0  0  0
   61.0028   35.0453   45.6736 H   0  0  0  0  0  0  0  0  0  0  0  0
   58.4626   32.9008   47.7857 H   0  0  0  0  0  0  0  0  0  0  0  0
   58.2667   34.6640   47.6975 H   0  0  0  0  0  0  0  0  0  0  0  0
   56.6787   32.4893   46.3775 H   0  0  0  0  0  0  0  0  0  0  0  0
   56.1666   34.1304   46.7875 H   0  0  0  0  0  0  0  0  0  0  0  0
   57.1203   33.1295   44.2219 H   0  0  0  0  0  0  0  0  0  0  0  0
   56.6091   34.7816   44.5840 H   0  0  0  0  0  0  0  0  0  0  0  0
   59.2321   34.0447   43.9937 H   0  0  0  0  0  0  0  0  0  0  0  0
   58.8246   35.4971   44.9314 H   0  0  0  0  0  0  0  0  0  0  0  0
   60.0914   32.8977   48.6458 H   0  0  0  0  0  0  0  0  0  0  0  0
   57.8060   30.2990   47.9760 H   0  0  0  0  0  0  0  0  0  0  0  0
  1  2  1  0
  2  3  1  0
  3  4  1  0
  4  5  2  0
  5  6  1  0
  6  7  2  0
  7  8  1  0
  8  9  2  0
  2 10  1  0
 10 11  1  0
 11 12  2  0
 12 13  1  0
 13 14  2  0
 14 15  1  0
 15 16  1  0
 16 17  1  0
 16 18  1  0
 18 19  1  0
 19 20  2  0
 20 21  1  0
 21 22  2  0
 22 23  1  0
 23 24  1  0
 24 25  1  0
 25 26  1  0
 26 27  1  0
 27 28  1  0
 28 29  1  0
 23 30  2  0
 14 31  1  0
  9  4  1  0
 31 11  1  0
 30 19  1  0
 29 25  1  0
  1 32  1  0
  1 33  1  0
  1 34  1  0
  3 35  1  0
  3 36  1  0
  5 37  1  0
  6 38  1  0
  7 39  1  0
  8 40  1  0
  9 41  1  0
 10 42  1  0
 10 43  1  0
 12 44  1  0
 13 45  1  0
 15 46  1  0
 15 47  1  0
 16 48  1  6
 17 49  1  0
 17 50  1  0
 17 51  1  0
 18 52  1  0
 18 53  1  0
 20 54  1  0
 21 55  1  0
 22 56  1  0
 24 57  1  0
 24 58  1  0
 26 59  1  0
 26 60  1  0
 27 61  1  0
 27 62  1  0
 28 63  1  0
 28 64  1  0
 29 65  1  0
 29 66  1  0
 30 67  1  0
 31 68  1  0
M  CHG  1  16   1
M  END
>  <UniqueID>  (68) 
63

>  <SMILES>  (68) 
CN(Cc1ccccc1)Cc1ccc(C[N@@H+](C)Cc2cccc(CN3CCCC3)c2)[nH]1

>  <Energy>  (68) 
107.25657849224608

>  <Genealogy>  (68) 
CN(Cc1ccccc1)Cc1ccc(C[NH+](C)Cc2cccc(CN3CCCC3)c2)[nH]1 (protonated)
CN(Cc1ccccc1)Cc1ccc(C[N@@H+](C)Cc2cccc(CN3CCCC3)c2)[nH]1 (chirality)
CN(Cc1ccccc1)Cc1ccc(C[N@@H+](C)Cc2cccc(CN3CCCC3)c2)[nH]1 (3D coordinates assigned)
CN(Cc1ccccc1)Cc1ccc(C[N@@H+](C)Cc2cccc(CN3CCCC3)c2)[nH]1 (nonaromatic ring conformer: 107.25657849224608 kcal/mol)

>  <smiles>  (68) 
CN(Cc1ccccc1)Cc1ccc(CN(C)Cc2cccc(CN3CCCC3)c2)[nH]1

>  <score_type>  (68) 
oracle

>  <origin>  (68) 
adg

>  <m_score__min__energy>  (68) 
-7.2400000000000002

>  <m_primary>  (68) 
energy

$$$$
69:0
     RDKit          3D

 50 53  0  0  0  0  0  0  0  0999 V2000
   60.8799   29.8285   44.6916 H   0  0  0  0  0  0  0  0  0  0  0  0
   60.0260   29.1770   44.9290 C   0  0  0  0  0  0  0  0  0  0  0  0
   59.5225   28.6163   44.1277 H   0  0  0  0  0  0  0  0  0  0  0  0
   59.5980   29.0660   46.1980 C   0  0  0  0  0  0  0  0  0  0  0  0
   58.5270   28.2790   46.6570 C   0  0  0  0  0  0  0  0  0  0  0  0
   57.5850   27.5810   45.9900 C   0  0  0  0  0  0  0  0  0  0  0  0
   57.0619   28.0990   45.1727 H   0  0  0  0  0  0  0  0  0  0  0  0
   57.1940   26.1830   46.2600 C   0  0  0  0  0  0  0  0  0  0  0  0
   55.8430   25.7940   46.2700 C   0  0  0  0  0  0  0  0  0  0  0  0
   54.8370   26.7100   45.9850 O   0  0  0  0  0  0  0  0  0  0  0  0
   55.5110   24.5100   46.5640 N   0  0  0  0  0  0  0  0  0  0  0  0
   56.4640   23.5930   46.8700 C   0  0  0  0  0  0  0  0  0  0  0  0
   56.1330   22.4080   47.1370 O   0  0  0  0  0  0  0  0  0  0  0  0
   57.7720   23.9530   46.8960 N   0  0  0  0  0  0  0  0  0  0  0  0
   58.1570   25.2230   46.6070 C   0  0  0  0  0  0  0  0  0  0  0  0
   59.3800   25.5240   46.6470 O   0  0  0  0  0  0  0  0  0  0  0  0
   58.5480   28.3610   48.0370 C   0  0  0  0  0  0  0  0  0  0  0  0
   57.8726   27.8432   48.7339 H   0  0  0  0  0  0  0  0  0  0  0  0
   59.5750   29.2140   48.3730 C   0  0  0  0  0  0  0  0  0  0  0  0
   59.8860   29.6490   49.7730 C   0  0  0  0  0  0  0  0  0  0  0  0
   59.3986   28.9673   50.4856 H   0  0  0  0  0  0  0  0  0  0  0  0
   60.9744   29.6271   49.9305 H   0  0  0  0  0  0  0  0  0  0  0  0
   59.5132   30.6718   49.9305 H   0  0  0  0  0  0  0  0  0  0  0  0
   60.2170   29.6480   47.2630 N   0  0  0  0  0  0  0  0  0  0  0  0
   61.3370   30.6070   47.2590 C   0  0  0  0  0  0  0  0  0  0  0  0
   61.9948   30.3976   48.1154 H   0  0  0  0  0  0  0  0  0  0  0  0
   61.8924   30.4983   46.3158 H   0  0  0  0  0  0  0  0  0  0  0  0
   60.8270   32.0220   47.3610 C   0  0  0  0  0  0  0  0  0  0  0  0
   61.0170   32.7580   48.5410 C   0  0  0  0  0  0  0  0  0  0  0  0
   61.5511   32.3055   49.3895 H   0  0  0  0  0  0  0  0  0  0  0  0
   60.5300   34.0630   48.6410 C   0  0  0  0  0  0  0  0  0  0  0  0
   60.6821   34.6351   49.5681 H   0  0  0  0  0  0  0  0  0  0  0  0
   59.8510   34.6440   47.5690 C   0  0  0  0  0  0  0  0  0  0  0  0
   59.4628   35.6692   47.6595 H   0  0  0  0  0  0  0  0  0  0  0  0
   59.6600   33.9290   46.3760 C   0  0  0  0  0  0  0  0  0  0  0  0
   58.9010   34.5660   45.2700 C   0  0  0  0  0  0  0  0  0  0  0  0
   59.2680   35.7130   44.8970 O   0  0  0  0  0  0  0  0  0  0  0  0
   57.7900   33.9420   44.5710 N   0  0  0  0  0  0  0  0  0  0  0  0
   57.1610   34.6530   44.1260 H   0  0  0  0  0  0  0  0  0  0  0  0
   57.0280   32.9990   45.3990 C   0  0  0  0  0  0  0  0  0  0  0  0
   57.4480   32.8611   46.4062 H   0  0  0  0  0  0  0  0  0  0  0  0
   55.9847   33.2363   45.6543 H   0  0  0  0  0  0  0  0  0  0  0  0
   57.3110   31.8360   44.4590 C   0  0  0  0  0  0  0  0  0  0  0  0
   57.9091   31.0209   44.8924 H   0  0  0  0  0  0  0  0  0  0  0  0
   56.5151   31.2101   44.0292 H   0  0  0  0  0  0  0  0  0  0  0  0
   58.0980   32.8480   43.6380 C   0  0  0  0  0  0  0  0  0  0  0  0
   59.1716   32.6183   43.5698 H   0  0  0  0  0  0  0  0  0  0  0  0
   57.8586   32.9723   42.5716 H   0  0  0  0  0  0  0  0  0  0  0  0
   60.1370   32.6090   46.2860 C   0  0  0  0  0  0  0  0  0  0  0  0
   59.9686   32.0304   45.3657 H   0  0  0  0  0  0  0  0  0  0  0  0
  1  2  1  0
  2  3  1  0
  2  4  2  0
  4  5  1  0
  5  6  2  0
  6  7  1  0
  6  8  1  0
  8  9  2  0
  9 10  1  0
  9 11  1  0
 11 12  1  0
 12 13  2  0
 12 14  1  0
 14 15  1  0
 15 16  2  0
  5 17  1  0
 17 18  1  0
 17 19  2  0
 19 20  1  0
 20 21  1  0
 20 22  1  0
 20 23  1  0
 19 24  1  0
 24 25  1  0
 25 26  1  0
 25 27  1  0
 25 28  1  0
 28 29  2  0
 29 30  1  0
 29 31  1  0
 31 32  1  0
 31 33  2  0
 33 34  1  0
 33 35  1  0
 35 36  1  0
 36 37  2  0
 36 38  1  0
 38 39  1  0
 38 40  1  0
 40 41  1  0
 40 42  1  0
 40 43  1  0
 43 44  1  0
 43 45  1  0
 43 46  1  0
 46 47  1  0
 46 48  1  0
 35 49  2  0
 49 50  1  0
 24  4  1  0
 49 28  1  0
 15  8  1  0
 46 38  1  0
M  CHG  4  10  -1  11  -1  14  -1  38   1
M  END
>  <UniqueID>  (69) 
64

>  <SMILES>  (69) 
C=c1/c(=C\c2c([O-])[n-]c(=O)[n-]c2=O)cc(C)n1Cc1cccc(C(=O)[NH+]2CCC2)c1

>  <Energy>  (69) 
177.29974578654253

>  <Genealogy>  (69) 
C=c1c(=Cc2c([O-])[n-]c(=O)[n-]c2=O)cc(C)n1Cc1cccc(C(=O)[NH+]2CCC2)c1 (protonated)
C=c1/c(=C\c2c([O-])[n-]c(=O)[n-]c2=O)cc(C)n1Cc1cccc(C(=O)[NH+]2CCC2)c1 (cis-trans isomerization)
C=c1/c(=C\c2c([O-])[n-]c(=O)[n-]c2=O)cc(C)n1Cc1cccc(C(=O)[NH+]2CCC2)c1 (3D coordinates assigned)
C=c1/c(=C\c2c([O-])[n-]c(=O)[n-]c2=O)cc(C)n1Cc1cccc(C(=O)[NH+]2CCC2)c1 (nonaromatic ring conformer: 177.29974578654253 kcal/mol)

>  <smiles>  (69) 
C=c1c(=Cc2c(O)[nH]c(=O)[nH]c2=O)cc(C)n1Cc1cccc(C(=O)N2CCC2)c1

>  <score_type>  (69) 
oracle

>  <origin>  (69) 
adg

>  <m_score__min__energy>  (69) 
-15.52

>  <m_primary>  (69) 
energy

$$$$
70:0
     RDKit          3D

 44 46  0  0  0  0  0  0  0  0999 V2000
   58.0840   27.0650   47.5070 C   0  0  0  0  0  0  0  0  0  0  0  0
   57.9650   27.3450   46.1990 C   0  0  0  0  0  0  0  0  0  0  0  0
   57.7400   26.4320   45.1520 C   0  0  0  0  0  0  0  0  0  0  0  0
   57.4110   25.1230   45.1710 C   0  0  0  0  0  0  0  0  0  0  0  0
   56.0370   24.5870   45.2310 C   0  0  0  0  0  0  0  0  0  0  0  0
   54.9530   25.3960   45.6190 C   0  0  0  0  0  0  0  0  0  0  0  0
   55.1540   26.7200   45.9950 O   0  0  0  0  0  0  0  0  0  0  0  0
   53.6960   24.8860   45.6220 N   0  0  0  0  0  0  0  0  0  0  0  0
   53.4570   23.6060   45.2370 C   0  0  0  0  0  0  0  0  0  0  0  0
   52.2840   23.1540   45.2530 O   0  0  0  0  0  0  0  0  0  0  0  0
   54.4820   22.8150   44.8300 N   0  0  0  0  0  0  0  0  0  0  0  0
   55.7590   23.2770   44.8100 C   0  0  0  0  0  0  0  0  0  0  0  0
   56.6860   22.5180   44.4190 O   0  0  0  0  0  0  0  0  0  0  0  0
   57.9040   27.1880   43.9960 C   0  0  0  0  0  0  0  0  0  0  0  0
   57.7670   26.7150   42.5820 C   0  0  0  0  0  0  0  0  0  0  0  0
   58.1480   28.4650   44.3330 N   0  0  0  0  0  0  0  0  0  0  0  0
   58.1670   28.5760   45.6530 N   0  0  0  0  0  0  0  0  0  0  0  0
   58.4210   29.8540   46.3310 C   0  0  0  0  0  0  0  0  0  0  0  0
   57.7480   30.9850   45.5990 C   0  0  0  0  0  0  0  0  0  0  0  0
   56.9260   30.6980   44.6870 O   0  0  0  0  0  0  0  0  0  0  0  0
   58.0130   32.3700   45.9260 N   0  0  0  0  0  0  0  0  0  0  0  0
   58.6970   32.7210   47.1790 C   0  0  0  0  0  0  0  0  0  0  0  0
   58.9260   34.2320   47.2790 C   0  0  0  0  0  0  0  0  0  0  0  0
   59.4030   34.7560   45.9960 N   0  0  0  0  0  0  0  0  0  0  0  0
   58.3940   34.6250   44.9270 C   0  0  0  0  0  0  0  0  0  0  0  0
   57.4170   33.4430   45.1160 C   0  0  0  0  0  0  0  0  0  0  0  0
   58.2599   27.8758   48.2293 H   0  0  0  0  0  0  0  0  0  0  0  0
   58.0056   26.0248   47.8561 H   0  0  0  0  0  0  0  0  0  0  0  0
   58.2353   24.3953   45.1391 H   0  0  0  0  0  0  0  0  0  0  0  0
   57.4610   25.6584   42.5768 H   0  0  0  0  0  0  0  0  0  0  0  0
   57.0070   27.3194   42.0652 H   0  0  0  0  0  0  0  0  0  0  0  0
   58.7324   26.8197   42.0652 H   0  0  0  0  0  0  0  0  0  0  0  0
   58.2980   29.2570   43.6670 H   0  0  0  0  0  0  0  0  0  0  0  0
   58.0283   29.8031   47.3573 H   0  0  0  0  0  0  0  0  0  0  0  0
   59.5055   30.0375   46.3473 H   0  0  0  0  0  0  0  0  0  0  0  0
   58.0796   32.3944   48.0288 H   0  0  0  0  0  0  0  0  0  0  0  0
   59.6752   32.2181   47.1952 H   0  0  0  0  0  0  0  0  0  0  0  0
   57.9799   34.7264   47.5446 H   0  0  0  0  0  0  0  0  0  0  0  0
   59.6827   34.4307   48.0523 H   0  0  0  0  0  0  0  0  0  0  0  0
   60.2630   34.2260   45.7170 H   0  0  0  0  0  0  0  0  0  0  0  0
   57.8071   35.5547   44.8914 H   0  0  0  0  0  0  0  0  0  0  0  0
   58.9457   34.4317   43.9952 H   0  0  0  0  0  0  0  0  0  0  0  0
   56.5093   33.8075   45.6192 H   0  0  0  0  0  0  0  0  0  0  0  0
   57.1791   33.0322   44.1237 H   0  0  0  0  0  0  0  0  0  0  0  0
  1  2  2  0
  2  3  1  0
  3  4  2  3
  4  5  1  0
  5  6  2  0
  6  7  1  0
  6  8  1  0
  8  9  1  0
  9 10  2  0
  9 11  1  0
 11 12  1  0
 12 13  2  0
  3 14  1  0
 14 15  1  0
 14 16  2  0
 16 17  1  0
 17 18  1  0
 18 19  1  0
 19 20  2  0
 19 21  1  0
 21 22  1  0
 22 23  1  0
 23 24  1  0
 24 25  1  0
 25 26  1  0
 17  2  1  0
 26 21  1  0
 12  5  1  0
  1 27  1  0
  1 28  1  0
  4 29  1  0
 15 30  1  0
 15 31  1  0
 15 32  1  0
 16 33  1  0
 18 34  1  0
 18 35  1  0
 22 36  1  0
 22 37  1  0
 23 38  1  0
 23 39  1  0
 24 40  1  0
 25 41  1  0
 25 42  1  0
 26 43  1  0
 26 44  1  0
M  CHG  4   7  -1   8  -1  11  -1  16   1
M  END
>  <UniqueID>  (70) 
65

>  <SMILES>  (70) 
C=c1c(=Cc2c([O-])[n-]c(=O)[n-]c2=O)c(C)[nH+]n1CC(=O)N1CCNCC1

>  <Energy>  (70) 
96.35382401300264

>  <Genealogy>  (70) 
C=c1c(=Cc2c([O-])[n-]c(=O)[n-]c2=O)c(C)[nH+]n1CC(=O)N1CCNCC1 (protonated)
C=c1c(=Cc2c([O-])[n-]c(=O)[n-]c2=O)c(C)[nH+]n1CC(=O)N1CCNCC1 (3D coordinates assigned)
C=c1c(=Cc2c([O-])[n-]c(=O)[n-]c2=O)c(C)[nH+]n1CC(=O)N1CCNCC1 (nonaromatic ring conformer: 96.35382401300264 kcal/mol)

>  <smiles>  (70) 
C=c1c(=Cc2c(O)[nH]c(=O)[nH]c2=O)c(C)nn1CC(=O)N1CCNCC1

>  <score_type>  (70) 
oracle

>  <origin>  (70) 
adg

>  <m_score__min__energy>  (70) 
-14.69

>  <m_primary>  (70) 
energy

$$$$
71:0
     RDKit          3D

 63 67  0  0  0  0  0  0  0  0999 V2000
   60.2360   28.3964   47.3893 H   0  0  0  0  0  0  0  0  0  0  0  0
   59.5550   27.8920   46.6880 C   0  0  0  0  0  0  0  0  0  0  0  0
   59.5676   26.7955   46.6017 H   0  0  0  0  0  0  0  0  0  0  0  0
   58.7070   28.6160   45.9360 C   0  0  0  0  0  0  0  0  0  0  0  0
   57.7850   28.1180   45.0030 C   0  0  0  0  0  0  0  0  0  0  0  0
   57.5560   26.8200   44.7060 C   0  0  0  0  0  0  0  0  0  0  0  0
   57.7545   26.5002   43.6724 H   0  0  0  0  0  0  0  0  0  0  0  0
   57.0620   25.7900   45.6470 C   0  0  0  0  0  0  0  0  0  0  0  0
   57.7460   24.7170   46.0800 N   0  0  0  0  0  0  0  0  0  0  0  0
   56.8750   24.0890   46.8960 C   0  0  0  0  0  0  0  0  0  0  0  0
   57.1580   23.0240   47.5020 O   0  0  0  0  0  0  0  0  0  0  0  0
   55.6740   24.6910   47.0090 N   0  0  0  0  0  0  0  0  0  0  0  0
   55.8070   25.7630   46.2120 C   0  0  0  0  0  0  0  0  0  0  0  0
   54.8010   26.6980   46.0020 O   0  0  0  0  0  0  0  0  0  0  0  0
   57.1600   29.2340   44.4480 C   0  0  0  0  0  0  0  0  0  0  0  0
   56.3814   29.2316   43.6709 H   0  0  0  0  0  0  0  0  0  0  0  0
   57.7070   30.3420   45.0620 C   0  0  0  0  0  0  0  0  0  0  0  0
   57.2830   31.7540   44.8090 C   0  0  0  0  0  0  0  0  0  0  0  0
   57.1286   32.2681   45.7691 H   0  0  0  0  0  0  0  0  0  0  0  0
   58.0645   32.2744   44.2359 H   0  0  0  0  0  0  0  0  0  0  0  0
   56.3441   31.7578   44.2359 H   0  0  0  0  0  0  0  0  0  0  0  0
   58.6490   29.9710   45.9590 N   0  0  0  0  0  0  0  0  0  0  0  0
   59.3660   30.8600   46.8350 C   0  0  0  0  0  0  0  0  0  0  0  0
   60.0430   31.9670   46.3110 C   0  0  0  0  0  0  0  0  0  0  0  0
   60.0224   32.1586   45.2280 H   0  0  0  0  0  0  0  0  0  0  0  0
   60.7440   32.8290   47.1550 C   0  0  0  0  0  0  0  0  0  0  0  0
   61.2632   33.7029   46.7345 H   0  0  0  0  0  0  0  0  0  0  0  0
   60.7910   32.5890   48.5340 C   0  0  0  0  0  0  0  0  0  0  0  0
   61.5700   33.5120   49.3780 C   0  0  0  0  0  0  0  0  0  0  0  0
   61.0360   34.5890   49.7570 O   0  0  0  0  0  0  0  0  0  0  0  0
   62.9180   33.2010   49.7670 N   0  0  0  0  0  0  0  0  0  0  0  0
   63.7020   34.0510   50.6440 C   0  0  0  0  0  0  0  0  0  0  0  0
   63.7105   35.0851   50.2691 H   0  0  0  0  0  0  0  0  0  0  0  0
   63.2845   34.0804   51.6613 H   0  0  0  0  0  0  0  0  0  0  0  0
   65.1100   33.4690   50.6300 C   0  0  0  0  0  0  0  0  0  0  0  0
   65.7724   34.0856   50.0047 H   0  0  0  0  0  0  0  0  0  0  0  0
   65.5457   33.4435   51.6397 H   0  0  0  0  0  0  0  0  0  0  0  0
   64.9790   32.0650   50.0410 C   0  0  0  0  0  0  0  0  0  0  0  0
   65.8105   31.8617   49.3502 H   0  0  0  0  0  0  0  0  0  0  0  0
   65.0102   31.2953   50.8262 H   0  0  0  0  0  0  0  0  0  0  0  0
   63.6550   32.0430   49.2940 C   0  0  0  0  0  0  0  0  0  0  0  0
   63.8252   32.1134   48.2095 H   0  0  0  0  0  0  0  0  0  0  0  0
   63.1027   31.1089   49.4739 H   0  0  0  0  0  0  0  0  0  0  0  0
   60.1230   31.4630   49.0740 C   0  0  0  0  0  0  0  0  0  0  0  0
   60.1260   31.1800   50.5320 C   0  0  0  0  0  0  0  0  0  0  0  0
   61.0570   30.4790   51.0150 O   0  0  0  0  0  0  0  0  0  0  0  0
   59.1080   31.7020   51.4120 N   0  0  0  0  0  0  0  0  0  0  0  0
   59.4450   31.9680   52.8160 C   0  0  0  0  0  0  0  0  0  0  0  0
   59.9030   31.0687   53.2536 H   0  0  0  0  0  0  0  0  0  0  0  0
   60.1475   32.8135   52.8559 H   0  0  0  0  0  0  0  0  0  0  0  0
   58.1920   32.3330   53.6160 C   0  0  0  0  0  0  0  0  0  0  0  0
   58.4154   32.2890   54.6922 H   0  0  0  0  0  0  0  0  0  0  0  0
   57.8684   33.3518   53.3566 H   0  0  0  0  0  0  0  0  0  0  0  0
   57.1270   31.3770   53.2950 N   0  0  0  0  0  0  0  0  0  0  0  0
   56.3100   31.5780   53.9210 H   0  0  0  0  0  0  0  0  0  0  0  0
   56.6770   31.4810   51.8920 C   0  0  0  0  0  0  0  0  0  0  0  0
   56.3738   30.4802   51.5506 H   0  0  0  0  0  0  0  0  0  0  0  0
   55.8469   32.2026   51.8759 H   0  0  0  0  0  0  0  0  0  0  0  0
   57.7560   32.0180   50.9260 C   0  0  0  0  0  0  0  0  0  0  0  0
   57.6134   31.5582   49.9370 H   0  0  0  0  0  0  0  0  0  0  0  0
   57.6547   33.1115   50.8628 H   0  0  0  0  0  0  0  0  0  0  0  0
   59.4060   30.6150   48.2130 C   0  0  0  0  0  0  0  0  0  0  0  0
   58.8697   29.7482   48.6266 H   0  0  0  0  0  0  0  0  0  0  0  0
  1  2  1  0
  2  3  1  0
  2  4  2  0
  4  5  1  0
  5  6  2  0
  6  7  1  0
  6  8  1  0
  8  9  1  0
  9 10  1  0
 10 11  2  0
 10 12  1  0
 12 13  1  0
 13 14  1  0
  5 15  1  0
 15 16  1  0
 15 17  2  0
 17 18  1  0
 18 19  1  0
 18 20  1  0
 18 21  1  0
 17 22  1  0
 22 23  1  0
 23 24  2  0
 24 25  1  0
 24 26  1  0
 26 27  1  0
 26 28  2  0
 28 29  1  0
 29 30  2  0
 29 31  1  0
 31 32  1  0
 32 33  1  0
 32 34  1  0
 32 35  1  0
 35 36  1  0
 35 37  1  0
 35 38  1  0
 38 39  1  0
 38 40  1  0
 38 41  1  0
 41 42  1  0
 41 43  1  0
 28 44  1  0
 44 45  1  0
 45 46  2  0
 45 47  1  0
 47 48  1  0
 48 49  1  0
 48 50  1  0
 48 51  1  0
 51 52  1  0
 51 53  1  0
 51 54  1  0
 54 55  1  0
 54 56  1  0
 56 57  1  0
 56 58  1  0
 56 59  1  0
 59 60  1  0
 59 61  1  0
 44 62  2  0
 62 63  1  0
 22  4  1  0
 62 23  1  0
 13  8  2  0
 41 31  1  0
 59 47  1  0
M  CHG  3   9  -1  12  -1  14  -1
M  END
>  <UniqueID>  (71) 
66

>  <SMILES>  (71) 
C=c1/c(=C/c2[n-]c(=O)[n-]c2[O-])cc(C)n1-c1ccc(C(=O)N2CCCC2)c(C(=O)N2CCNCC2)c1

>  <Energy>  (71) 
148.98333350791552

>  <Genealogy>  (71) 
C=c1c(=Cc2[n-]c(=O)[n-]c2[O-])cc(C)n1-c1ccc(C(=O)N2CCCC2)c(C(=O)N2CCNCC2)c1 (protonated)
C=c1/c(=C/c2[n-]c(=O)[n-]c2[O-])cc(C)n1-c1ccc(C(=O)N2CCCC2)c(C(=O)N2CCNCC2)c1 (cis-trans isomerization)
C=c1/c(=C/c2[n-]c(=O)[n-]c2[O-])cc(C)n1-c1ccc(C(=O)N2CCCC2)c(C(=O)N2CCNCC2)c1 (3D coordinates assigned)
C=c1/c(=C/c2[n-]c(=O)[n-]c2[O-])cc(C)n1-c1ccc(C(=O)N2CCCC2)c(C(=O)N2CCNCC2)c1 (nonaromatic ring conformer: 148.98333350791552 kcal/mol)

>  <smiles>  (71) 
C=c1c(=Cc2[nH]c(=O)[nH]c2O)cc(C)n1-c1ccc(C(=O)N2CCCC2)c(C(=O)N2CCNCC2)c1

>  <score_type>  (71) 
oracle

>  <origin>  (71) 
adg

>  <m_score__min__energy>  (71) 
-17.02

>  <m_primary>  (71) 
energy

$$$$
72:0
     RDKit          3D

 40 41  0  0  0  0  0  0  0  0999 V2000
   55.8650   27.3130   45.6080 N   0  0  0  0  0  0  0  0  0  0  0  0
   57.2320   27.7250   45.4820 C   0  0  0  0  0  0  0  0  0  0  0  0
   58.2460   26.8850   45.9690 C   0  0  0  0  0  0  0  0  0  0  0  0
   59.5840   27.2770   45.9050 C   0  0  0  0  0  0  0  0  0  0  0  0
   59.9260   28.5090   45.3480 C   0  0  0  0  0  0  0  0  0  0  0  0
   58.9300   29.3520   44.8500 C   0  0  0  0  0  0  0  0  0  0  0  0
   57.5800   28.9740   44.9150 C   0  0  0  0  0  0  0  0  0  0  0  0
   56.5560   29.8830   44.3640 C   0  0  0  0  0  0  0  0  0  0  0  0
   55.3870   29.8450   44.8300 O   0  0  0  0  0  0  0  0  0  0  0  0
   56.8540   30.8070   43.3090 N   0  0  0  0  0  0  0  0  0  0  0  0
   58.0360   31.6610   43.2460 C   0  0  0  0  0  0  0  0  0  0  0  0
   58.0560   32.6110   44.4060 C   0  0  0  0  0  0  0  0  0  0  0  0
   58.9020   33.5450   44.4250 O   0  0  0  0  0  0  0  0  0  0  0  0
   57.1010   32.4780   45.4660 N   0  0  0  0  0  0  0  0  0  0  0  0
   57.0480   33.4380   46.5690 C   0  0  0  0  0  0  0  0  0  0  0  0
   57.7750   32.9130   47.8140 C   0  0  0  0  0  0  0  0  0  0  0  0
   59.2610   32.7860   47.5860 C   0  0  0  0  0  0  0  0  0  0  0  0
   59.8560   31.5200   47.4450 C   0  0  0  0  0  0  0  0  0  0  0  0
   61.2300   31.4090   47.2130 C   0  0  0  0  0  0  0  0  0  0  0  0
   62.0190   32.5580   47.1170 C   0  0  0  0  0  0  0  0  0  0  0  0
   61.4360   33.8210   47.2540 C   0  0  0  0  0  0  0  0  0  0  0  0
   60.0620   33.9360   47.4870 C   0  0  0  0  0  0  0  0  0  0  0  0
   55.5500   26.3540   45.3440 H   0  0  0  0  0  0  0  0  0  0  0  0
   55.1360   27.9890   45.9300 H   0  0  0  0  0  0  0  0  0  0  0  0
   57.9837   25.9096   46.4047 H   0  0  0  0  0  0  0  0  0  0  0  0
   60.3700   26.6132   46.2945 H   0  0  0  0  0  0  0  0  0  0  0  0
   60.9809   28.8170   45.3009 H   0  0  0  0  0  0  0  0  0  0  0  0
   59.2056   30.3189   44.4037 H   0  0  0  0  0  0  0  0  0  0  0  0
   58.9388   31.0333   43.2758 H   0  0  0  0  0  0  0  0  0  0  0  0
   58.0091   32.2397   42.3109 H   0  0  0  0  0  0  0  0  0  0  0  0
   56.4160   31.6920   45.4250 H   0  0  0  0  0  0  0  0  0  0  0  0
   57.5235   34.3765   46.2479 H   0  0  0  0  0  0  0  0  0  0  0  0
   55.9922   33.6005   46.8316 H   0  0  0  0  0  0  0  0  0  0  0  0
   57.6013   33.6096   48.6474 H   0  0  0  0  0  0  0  0  0  0  0  0
   57.3787   31.9130   48.0439 H   0  0  0  0  0  0  0  0  0  0  0  0
   59.2377   30.6131   47.5175 H   0  0  0  0  0  0  0  0  0  0  0  0
   61.6906   30.4158   47.1059 H   0  0  0  0  0  0  0  0  0  0  0  0
   63.0999   32.4686   46.9335 H   0  0  0  0  0  0  0  0  0  0  0  0
   62.0583   34.7249   47.1785 H   0  0  0  0  0  0  0  0  0  0  0  0
   59.6062   34.9315   47.5933 H   0  0  0  0  0  0  0  0  0  0  0  0
  1  2  1  0
  2  3  2  0
  3  4  1  0
  4  5  2  0
  5  6  1  0
  6  7  2  0
  7  8  1  0
  8  9  2  0
  8 10  1  0
 10 11  1  0
 11 12  1  0
 12 13  2  0
 12 14  1  0
 14 15  1  0
 15 16  1  0
 16 17  1  0
 17 18  2  0
 18 19  1  0
 19 20  2  0
 20 21  1  0
 21 22  2  0
  7  2  1  0
 22 17  1  0
  1 23  1  0
  1 24  1  0
  3 25  1  0
  4 26  1  0
  5 27  1  0
  6 28  1  0
 11 29  1  0
 11 30  1  0
 14 31  1  0
 15 32  1  0
 15 33  1  0
 16 34  1  0
 16 35  1  0
 18 36  1  0
 19 37  1  0
 20 38  1  0
 21 39  1  0
 22 40  1  0
M  CHG  1  10  -1
M  END
>  <UniqueID>  (72) 
67

>  <SMILES>  (72) 
Nc1ccccc1C(=O)[N-]CC(=O)NCCc1ccccc1

>  <Energy>  (72) 
35.90593793467195

>  <Genealogy>  (72) 
Nc1ccccc1C(=O)[N-]CC(=O)NCCc1ccccc1 (protonated)
Nc1ccccc1C(=O)[N-]CC(=O)NCCc1ccccc1 (3D coordinates assigned)
Nc1ccccc1C(=O)[N-]CC(=O)NCCc1ccccc1 (optimized conformer: 35.90593793467195 kcal/mol)

>  <smiles>  (72) 
Nc1ccccc1C(=O)NCC(=O)NCCc1ccccc1

>  <score_type>  (72) 
oracle

>  <origin>  (72) 
adg

>  <m_score__min__energy>  (72) 
-10.15

>  <m_primary>  (72) 
energy

$$$$
73:0
     RDKit          3D

 35 37  0  0  0  0  0  0  0  0999 V2000
   58.0720   26.5260   46.6010 O   0  0  0  0  0  0  0  0  0  0  0  0
   57.1400   27.3080   46.2690 C   0  0  0  0  0  0  0  0  0  0  0  0
   55.8150   26.7970   46.0740 N   0  0  0  0  0  0  0  0  0  0  0  0
   55.4620   25.4740   45.6440 C   0  0  0  0  0  0  0  0  0  0  0  0
   56.4620   24.6550   45.1020 C   0  0  0  0  0  0  0  0  0  0  0  0
   56.1560   23.3670   44.6530 C   0  0  0  0  0  0  0  0  0  0  0  0
   54.8440   22.8940   44.7250 C   0  0  0  0  0  0  0  0  0  0  0  0
   53.8330   23.7110   45.2390 C   0  0  0  0  0  0  0  0  0  0  0  0
   52.1800   23.1260   45.3030 Cl  0  0  0  0  0  0  0  0  0  0  0  0
   54.1370   25.0010   45.6920 C   0  0  0  0  0  0  0  0  0  0  0  0
   57.4300   28.7470   46.0190 C   0  0  0  0  0  0  0  0  0  0  0  0
   56.5700   29.5350   45.2350 C   0  0  0  0  0  0  0  0  0  0  0  0
   55.4080   28.9980   44.6840 O   0  0  0  0  0  0  0  0  0  0  0  0
   56.8570   30.8410   45.0190 N   0  0  0  0  0  0  0  0  0  0  0  0
   57.9580   31.4270   45.5470 C   0  0  0  0  0  0  0  0  0  0  0  0
   58.1650   32.6510   45.3240 O   0  0  0  0  0  0  0  0  0  0  0  0
   58.8220   30.7000   46.3220 N   0  0  0  0  0  0  0  0  0  0  0  0
   59.9930   31.3320   46.8820 C   0  0  0  0  0  0  0  0  0  0  0  0
   59.8730   32.5270   47.6090 C   0  0  0  0  0  0  0  0  0  0  0  0
   61.0080   33.1380   48.1520 C   0  0  0  0  0  0  0  0  0  0  0  0
   62.2680   32.5600   47.9750 C   0  0  0  0  0  0  0  0  0  0  0  0
   63.8170   33.3940   48.7180 Br  0  0  0  0  0  0  0  0  0  0  0  0
   62.3940   31.3680   47.2510 C   0  0  0  0  0  0  0  0  0  0  0  0
   61.2610   30.7560   46.7070 C   0  0  0  0  0  0  0  0  0  0  0  0
   58.5760   29.3720   46.5610 C   0  0  0  0  0  0  0  0  0  0  0  0
   59.3930   28.6970   47.2490 O   0  0  0  0  0  0  0  0  0  0  0  0
   57.4942   25.0281   45.0295 H   0  0  0  0  0  0  0  0  0  0  0  0
   56.9496   22.7253   44.2425 H   0  0  0  0  0  0  0  0  0  0  0  0
   54.6061   21.8780   44.3770 H   0  0  0  0  0  0  0  0  0  0  0  0
   53.3382   25.6463   46.0864 H   0  0  0  0  0  0  0  0  0  0  0  0
   55.1380   28.0390   44.8710 H   0  0  0  0  0  0  0  0  0  0  0  0
   58.8829   32.9844   47.7521 H   0  0  0  0  0  0  0  0  0  0  0  0
   60.9087   34.0751   48.7194 H   0  0  0  0  0  0  0  0  0  0  0  0
   63.3854   30.9128   47.1102 H   0  0  0  0  0  0  0  0  0  0  0  0
   61.3636   29.8193   46.1395 H   0  0  0  0  0  0  0  0  0  0  0  0
  1  2  2  0
  2  3  1  0
  3  4  1  0
  4  5  2  0
  5  6  1  0
  6  7  2  0
  7  8  1  0
  8  9  1  0
  8 10  2  0
  2 11  1  0
 11 12  2  0
 12 13  1  0
 12 14  1  0
 14 15  1  0
 15 16  2  0
 15 17  1  0
 17 18  1  0
 18 19  2  0
 19 20  1  0
 20 21  2  0
 21 22  1  0
 21 23  1  0
 23 24  2  0
 17 25  1  0
 25 26  2  0
 10  4  1  0
 25 11  1  0
 24 18  1  0
  5 27  1  0
  6 28  1  0
  7 29  1  0
 10 30  1  0
 13 31  1  0
 19 32  1  0
 20 33  1  0
 23 34  1  0
 24 35  1  0
M  CHG  2   3  -1  14  -1
M  END
>  <UniqueID>  (73) 
68

>  <SMILES>  (73) 
O=C([N-]c1cccc(Cl)c1)c1c(O)[n-]c(=O)n(-c2ccc(Br)cc2)c1=O

>  <Energy>  (73) 
56.43455744100046

>  <Genealogy>  (73) 
O=C([N-]c1cccc(Cl)c1)c1c(O)[n-]c(=O)n(-c2ccc(Br)cc2)c1=O (protonated)
O=C([N-]c1cccc(Cl)c1)c1c(O)[n-]c(=O)n(-c2ccc(Br)cc2)c1=O (3D coordinates assigned)
O=C([N-]c1cccc(Cl)c1)c1c(O)[n-]c(=O)n(-c2ccc(Br)cc2)c1=O (optimized conformer: 56.43455744100046 kcal/mol)

>  <smiles>  (73) 
O=C(Nc1cccc(Cl)c1)c1c(O)[nH]c(=O)n(-c2ccc(Br)cc2)c1=O

>  <score_type>  (73) 
oracle

>  <origin>  (73) 
adg

>  <m_score__min__energy>  (73) 
-11.94

>  <m_primary>  (73) 
energy

$$$$
74:0
     RDKit          3D

 50 53  0  0  0  0  0  0  0  0999 V2000
   53.6500   29.9350   54.9270 C   0  0  0  0  0  0  0  0  0  0  0  0
   54.2370   30.2790   53.7700 C   0  0  0  0  0  0  0  0  0  0  0  0
   53.5870   30.4140   52.5380 C   0  0  0  0  0  0  0  0  0  0  0  0
   52.2630   30.3480   52.2980 C   0  0  0  0  0  0  0  0  0  0  0  0
   51.6320   30.7890   51.0420 C   0  0  0  0  0  0  0  0  0  0  0  0
   51.6150   30.0420   49.9220 N   0  0  0  0  0  0  0  0  0  0  0  0
   51.0250   30.8500   49.0160 C   0  0  0  0  0  0  0  0  0  0  0  0
   50.8150   30.4940   47.8270 O   0  0  0  0  0  0  0  0  0  0  0  0
   50.6880   32.0730   49.4780 N   0  0  0  0  0  0  0  0  0  0  0  0
   51.0900   32.0230   50.7580 C   0  0  0  0  0  0  0  0  0  0  0  0
   51.0060   33.1010   51.6310 O   0  0  0  0  0  0  0  0  0  0  0  0
   54.5760   30.6700   51.6040 C   0  0  0  0  0  0  0  0  0  0  0  0
   55.7760   30.6800   52.2850 C   0  0  0  0  0  0  0  0  0  0  0  0
   57.0850   30.9000   51.6270 C   0  0  0  0  0  0  0  0  0  0  0  0
   57.4590   30.1030   50.7260 O   0  0  0  0  0  0  0  0  0  0  0  0
   57.9510   31.9850   52.0230 N   0  0  0  0  0  0  0  0  0  0  0  0
   59.4080   31.8330   51.9270 C   0  0  0  0  0  0  0  0  0  0  0  0
   60.0550   33.1870   51.6200 C   0  0  0  0  0  0  0  0  0  0  0  0
   59.6200   34.1740   52.5350 O   0  0  0  0  0  0  0  0  0  0  0  0
   58.2330   34.3990   52.3690 C   0  0  0  0  0  0  0  0  0  0  0  0
   57.4300   33.1510   52.7460 C   0  0  0  0  0  0  0  0  0  0  0  0
   55.5750   30.4810   53.6140 N   0  0  0  0  0  0  0  0  0  0  0  0
   56.6250   30.3220   54.6370 C   0  0  0  0  0  0  0  0  0  0  0  0
   57.6020   29.2020   54.3200 C   0  0  0  0  0  0  0  0  0  0  0  0
   58.9630   29.5330   54.1630 C   0  0  0  0  0  0  0  0  0  0  0  0
   59.9230   28.5410   53.9570 C   0  0  0  0  0  0  0  0  0  0  0  0
   59.5480   27.2000   53.9290 C   0  0  0  0  0  0  0  0  0  0  0  0
   58.2110   26.8460   54.1060 C   0  0  0  0  0  0  0  0  0  0  0  0
   57.2290   27.8300   54.2960 C   0  0  0  0  0  0  0  0  0  0  0  0
   55.8450   27.3770   54.4890 C   0  0  0  0  0  0  0  0  0  0  0  0
   55.1080   27.1430   53.4950 O   0  0  0  0  0  0  0  0  0  0  0  0
   55.3780   27.1080   55.7690 O   0  0  0  0  0  0  0  0  0  0  0  0
   54.2498   29.8552   55.8456 H   0  0  0  0  0  0  0  0  0  0  0  0
   52.5691   29.7329   54.9566 H   0  0  0  0  0  0  0  0  0  0  0  0
   51.6142   29.9404   53.0872 H   0  0  0  0  0  0  0  0  0  0  0  0
   54.4328   30.8340   50.5258 H   0  0  0  0  0  0  0  0  0  0  0  0
   59.7984   31.4504   52.8816 H   0  0  0  0  0  0  0  0  0  0  0  0
   59.6456   31.1267   51.1179 H   0  0  0  0  0  0  0  0  0  0  0  0
   61.1483   33.0878   51.6902 H   0  0  0  0  0  0  0  0  0  0  0  0
   59.7612   33.4947   50.6056 H   0  0  0  0  0  0  0  0  0  0  0  0
   57.9237   35.2350   53.0136 H   0  0  0  0  0  0  0  0  0  0  0  0
   58.0387   34.6371   51.3128 H   0  0  0  0  0  0  0  0  0  0  0  0
   57.5142   32.9764   53.8288 H   0  0  0  0  0  0  0  0  0  0  0  0
   56.3749   33.3036   52.4751 H   0  0  0  0  0  0  0  0  0  0  0  0
   57.1861   31.2651   54.7121 H   0  0  0  0  0  0  0  0  0  0  0  0
   56.1253   30.0634   55.5822 H   0  0  0  0  0  0  0  0  0  0  0  0
   59.2729   30.5877   54.2034 H   0  0  0  0  0  0  0  0  0  0  0  0
   60.9780   28.8189   53.8165 H   0  0  0  0  0  0  0  0  0  0  0  0
   60.3066   26.4201   53.7672 H   0  0  0  0  0  0  0  0  0  0  0  0
   57.9231   25.7844   54.0966 H   0  0  0  0  0  0  0  0  0  0  0  0
  1  2  2  0
  2  3  1  0
  3  4  2  3
  4  5  1  0
  5  6  1  0
  6  7  1  0
  7  8  2  0
  7  9  1  0
  9 10  1  0
 10 11  1  0
  3 12  1  0
 12 13  2  0
 13 14  1  0
 14 15  2  0
 14 16  1  0
 16 17  1  0
 17 18  1  0
 18 19  1  0
 19 20  1  0
 20 21  1  0
 13 22  1  0
 22 23  1  0
 23 24  1  0
 24 25  2  0
 25 26  1  0
 26 27  2  0
 27 28  1  0
 28 29  2  0
 29 30  1  0
 30 31  2  0
 30 32  1  0
 22  2  1  0
 29 24  1  0
 10  5  2  0
 21 16  1  0
  1 33  1  0
  1 34  1  0
  4 35  1  0
 12 36  1  0
 17 37  1  0
 17 38  1  0
 18 39  1  0
 18 40  1  0
 20 41  1  0
 20 42  1  0
 21 43  1  0
 21 44  1  0
 23 45  1  0
 23 46  1  0
 25 47  1  0
 26 48  1  0
 27 49  1  0
 28 50  1  0
M  CHG  4   6  -1   9  -1  11  -1  32  -1
M  END
>  <UniqueID>  (74) 
69

>  <SMILES>  (74) 
C=c1c(=Cc2[n-]c(=O)[n-]c2[O-])cc(C(=O)N2CCOCC2)n1Cc1ccccc1C(=O)[O-]

>  <Energy>  (74) 
136.28469368764846

>  <Genealogy>  (74) 
C=c1c(=Cc2[n-]c(=O)[n-]c2[O-])cc(C(=O)N2CCOCC2)n1Cc1ccccc1C(=O)[O-] (protonated)
C=c1c(=Cc2[n-]c(=O)[n-]c2[O-])cc(C(=O)N2CCOCC2)n1Cc1ccccc1C(=O)[O-] (3D coordinates assigned)
C=c1c(=Cc2[n-]c(=O)[n-]c2[O-])cc(C(=O)N2CCOCC2)n1Cc1ccccc1C(=O)[O-] (nonaromatic ring conformer: 136.28469368764846 kcal/mol)

>  <smiles>  (74) 
C=c1c(=Cc2[nH]c(=O)[nH]c2O)cc(C(=O)N2CCOCC2)n1Cc1ccccc1C(=O)O

>  <score_type>  (74) 
oracle

>  <origin>  (74) 
adg

>  <m_score__min__energy>  (74) 
-16.73

>  <m_primary>  (74) 
energy

$$$$
75:0
     RDKit          3D

 51 54  0  0  0  0  0  0  0  0999 V2000
   59.5030   28.5060   46.3940 O   0  0  0  0  0  0  0  0  0  0  0  0
   58.2700   28.4930   46.6460 C   0  0  0  0  0  0  0  0  0  0  0  0
   57.6820   27.3120   47.3660 C   0  0  0  0  0  0  0  0  0  0  0  0
   57.4130   26.2310   46.4190 N   0  0  0  0  0  0  0  0  0  0  0  0
   58.2630   25.2510   46.0410 C   0  0  0  0  0  0  0  0  0  0  0  0
   59.5800   25.1460   46.4710 O   0  0  0  0  0  0  0  0  0  0  0  0
   57.6270   24.3700   45.1880 C   0  0  0  0  0  0  0  0  0  0  0  0
   56.3370   24.8160   45.0520 C   0  0  0  0  0  0  0  0  0  0  0  0
   56.2310   25.9550   45.8260 C   0  0  0  0  0  0  0  0  0  0  0  0
   55.0760   26.7100   45.9950 O   0  0  0  0  0  0  0  0  0  0  0  0
   55.2850   24.1100   44.2590 C   0  0  0  0  0  0  0  0  0  0  0  0
   55.8620   22.9400   43.4860 C   0  0  0  0  0  0  0  0  0  0  0  0
   57.1330   22.5000   43.6200 C   0  0  0  0  0  0  0  0  0  0  0  0
   58.1490   23.1160   44.5620 C   0  0  0  0  0  0  0  0  0  0  0  0
   57.4810   29.6380   46.2980 N   0  0  0  0  0  0  0  0  0  0  0  0
   57.3340   30.2030   44.9850 C   0  0  0  0  0  0  0  0  0  0  0  0
   56.9750   29.3940   43.8930 C   0  0  0  0  0  0  0  0  0  0  0  0
   56.8140   29.9520   42.6230 C   0  0  0  0  0  0  0  0  0  0  0  0
   57.0160   31.3190   42.4290 C   0  0  0  0  0  0  0  0  0  0  0  0
   57.3950   32.1290   43.5010 C   0  0  0  0  0  0  0  0  0  0  0  0
   57.5840   31.5780   44.7790 C   0  0  0  0  0  0  0  0  0  0  0  0
   57.9860   32.4590   45.8950 C   0  0  0  0  0  0  0  0  0  0  0  0
   57.4400   33.5900   46.0090 O   0  0  0  0  0  0  0  0  0  0  0  0
   59.0010   32.0590   46.8340 N   0  0  0  0  0  0  0  0  0  0  0  0
   58.8970   32.4480   48.2460 C   0  0  0  0  0  0  0  0  0  0  0  0
   60.1590   33.2020   48.6920 C   0  0  0  0  0  0  0  0  0  0  0  0
   61.4690   32.6060   48.1260 C   0  0  0  0  0  0  0  0  0  0  0  0
   61.2670   31.2450   47.4480 C   0  0  0  0  0  0  0  0  0  0  0  0
   60.1960   31.3460   46.3560 C   0  0  0  0  0  0  0  0  0  0  0  0
   58.3924   26.9598   48.1284 H   0  0  0  0  0  0  0  0  0  0  0  0
   56.7392   27.6146   47.8452 H   0  0  0  0  0  0  0  0  0  0  0  0
   54.5101   23.7375   44.9452 H   0  0  0  0  0  0  0  0  0  0  0  0
   54.8599   24.8236   43.5378 H   0  0  0  0  0  0  0  0  0  0  0  0
   55.2067   22.4179   42.7733 H   0  0  0  0  0  0  0  0  0  0  0  0
   57.4497   21.6425   43.0082 H   0  0  0  0  0  0  0  0  0  0  0  0
   58.3854   22.3920   45.3557 H   0  0  0  0  0  0  0  0  0  0  0  0
   59.0486   23.3688   43.9816 H   0  0  0  0  0  0  0  0  0  0  0  0
   56.8199   28.3149   44.0397 H   0  0  0  0  0  0  0  0  0  0  0  0
   56.5276   29.3132   41.7746 H   0  0  0  0  0  0  0  0  0  0  0  0
   56.8765   31.7588   41.4304 H   0  0  0  0  0  0  0  0  0  0  0  0
   57.5468   33.2070   43.3435 H   0  0  0  0  0  0  0  0  0  0  0  0
   58.0206   33.0996   48.3781 H   0  0  0  0  0  0  0  0  0  0  0  0
   58.7909   31.5400   48.8577 H   0  0  0  0  0  0  0  0  0  0  0  0
   60.0778   34.2459   48.3548 H   0  0  0  0  0  0  0  0  0  0  0  0
   60.2139   33.1192   49.7875 H   0  0  0  0  0  0  0  0  0  0  0  0
   61.8820   33.3077   47.3864 H   0  0  0  0  0  0  0  0  0  0  0  0
   62.1525   32.4519   48.9739 H   0  0  0  0  0  0  0  0  0  0  0  0
   62.2160   30.9207   46.9961 H   0  0  0  0  0  0  0  0  0  0  0  0
   60.9392   30.5153   48.2030 H   0  0  0  0  0  0  0  0  0  0  0  0
   60.6142   31.8876   45.4947 H   0  0  0  0  0  0  0  0  0  0  0  0
   59.8975   30.3263   46.0714 H   0  0  0  0  0  0  0  0  0  0  0  0
  1  2  2  0
  2  3  1  0
  3  4  1  0
  4  5  1  0
  5  6  1  0
  5  7  2  0
  7  8  1  0
  8  9  2  0
  9 10  1  0
  8 11  1  0
 11 12  1  0
 12 13  2  0
 13 14  1  0
  2 15  1  0
 15 16  1  0
 16 17  2  0
 17 18  1  0
 18 19  2  0
 19 20  1  0
 20 21  2  0
 21 22  1  0
 22 23  2  0
 22 24  1  0
 24 25  1  0
 25 26  1  0
 26 27  1  0
 27 28  1  0
 28 29  1  0
  9  4  1  0
 21 16  1  0
 29 24  1  0
 14  7  1  0
  3 30  1  0
  3 31  1  0
 11 32  1  0
 11 33  1  0
 12 34  1  0
 13 35  1  0
 14 36  1  0
 14 37  1  0
 17 38  1  0
 18 39  1  0
 19 40  1  0
 20 41  1  0
 25 42  1  0
 25 43  1  0
 26 44  1  0
 26 45  1  0
 27 46  1  0
 27 47  1  0
 28 48  1  0
 28 49  1  0
 29 50  1  0
 29 51  1  0
M  CHG  3   6  -1  10  -1  15  -1
M  END
>  <UniqueID>  (75) 
70

>  <SMILES>  (75) 
O=C(Cn1c([O-])c2c(c1[O-])CC=CC2)[N-]c1ccccc1C(=O)N1CCCCC1

>  <Energy>  (75) 
97.40467291391593

>  <Genealogy>  (75) 
O=C(Cn1c([O-])c2c(c1[O-])CC=CC2)[N-]c1ccccc1C(=O)N1CCCCC1 (protonated)
O=C(Cn1c([O-])c2c(c1[O-])CC=CC2)[N-]c1ccccc1C(=O)N1CCCCC1 (3D coordinates assigned)
O=C(Cn1c([O-])c2c(c1[O-])CC=CC2)[N-]c1ccccc1C(=O)N1CCCCC1 (nonaromatic ring conformer: 97.40467291391593 kcal/mol)

>  <smiles>  (75) 
O=C(Cn1c(O)c2c(c1O)CC=CC2)Nc1ccccc1C(=O)N1CCCCC1

>  <score_type>  (75) 
oracle

>  <origin>  (75) 
adg

>  <m_score__min__energy>  (75) 
-15.01

>  <m_primary>  (75) 
energy

$$$$
76:0
     RDKit          3D

 41 43  0  0  0  0  0  0  0  0999 V2000
   62.0520   32.6890   48.1190 C   0  0  0  0  0  0  0  0  0  0  0  0
   60.7630   32.0940   48.2250 O   0  0  0  0  0  0  0  0  0  0  0  0
   60.2000   31.2210   47.2830 C   0  0  0  0  0  0  0  0  0  0  0  0
   60.9450   30.1460   46.7580 C   0  0  0  0  0  0  0  0  0  0  0  0
   60.3910   29.2870   45.8080 C   0  0  0  0  0  0  0  0  0  0  0  0
   59.0790   29.4790   45.3640 C   0  0  0  0  0  0  0  0  0  0  0  0
   58.4920   28.5780   44.3100 C   0  0  0  0  0  0  0  0  0  0  0  0
   57.5830   27.5540   44.9410 C   0  0  0  0  0  0  0  0  0  0  0  0
   58.0340   26.2440   45.1520 C   0  0  0  0  0  0  0  0  0  0  0  0
   57.2260   25.3320   45.7500 N   0  0  0  0  0  0  0  0  0  0  0  0
   55.9770   25.6680   46.1610 C   0  0  0  0  0  0  0  0  0  0  0  0
   55.2440   24.8070   46.7130 O   0  0  0  0  0  0  0  0  0  0  0  0
   55.5190   26.9330   45.9800 N   0  0  0  0  0  0  0  0  0  0  0  0
   56.2900   27.8810   45.3850 C   0  0  0  0  0  0  0  0  0  0  0  0
   55.8330   29.0460   45.2390 O   0  0  0  0  0  0  0  0  0  0  0  0
   58.3320   30.5480   45.8750 C   0  0  0  0  0  0  0  0  0  0  0  0
   58.8680   31.4170   46.8340 C   0  0  0  0  0  0  0  0  0  0  0  0
   58.0190   32.4470   47.2850 O   0  0  0  0  0  0  0  0  0  0  0  0
   57.9600   33.8000   46.8220 C   0  0  0  0  0  0  0  0  0  0  0  0
   57.9590   33.8700   45.2880 C   0  0  0  0  0  0  0  0  0  0  0  0
   59.2170   34.6250   44.8780 C   0  0  0  0  0  0  0  0  0  0  0  0
   59.6430   35.4030   46.1060 C   0  0  0  0  0  0  0  0  0  0  0  0
   59.2100   34.5490   47.2820 C   0  0  0  0  0  0  0  0  0  0  0  0
   62.4541   32.8746   49.1259 H   0  0  0  0  0  0  0  0  0  0  0  0
   62.7253   32.0106   47.5746 H   0  0  0  0  0  0  0  0  0  0  0  0
   61.9725   33.6415   47.5746 H   0  0  0  0  0  0  0  0  0  0  0  0
   61.9770   29.9819   47.1017 H   0  0  0  0  0  0  0  0  0  0  0  0
   60.9889   28.4554   45.4067 H   0  0  0  0  0  0  0  0  0  0  0  0
   57.9150   29.1837   43.5957 H   0  0  0  0  0  0  0  0  0  0  0  0
   59.3096   28.0573   43.7900 H   0  0  0  0  0  0  0  0  0  0  0  0
   59.0457   25.9541   44.8321 H   0  0  0  0  0  0  0  0  0  0  0  0
   57.3046   30.7082   45.5163 H   0  0  0  0  0  0  0  0  0  0  0  0
   57.0362   34.2407   47.2249 H   0  0  0  0  0  0  0  0  0  0  0  0
   57.9715   32.8554   44.8631 H   0  0  0  0  0  0  0  0  0  0  0  0
   57.0566   34.3787   44.9179 H   0  0  0  0  0  0  0  0  0  0  0  0
   60.0064   33.9208   44.5765 H   0  0  0  0  0  0  0  0  0  0  0  0
   59.0326   35.2878   44.0197 H   0  0  0  0  0  0  0  0  0  0  0  0
   60.7335   35.5467   46.1135 H   0  0  0  0  0  0  0  0  0  0  0  0
   59.1927   36.4062   46.1361 H   0  0  0  0  0  0  0  0  0  0  0  0
   60.0047   33.8374   47.5505 H   0  0  0  0  0  0  0  0  0  0  0  0
   59.0069   35.1627   48.1720 H   0  0  0  0  0  0  0  0  0  0  0  0
  1  2  1  0
  2  3  1  0
  3  4  2  0
  4  5  1  0
  5  6  2  0
  6  7  1  0
  7  8  1  0
  8  9  2  0
  9 10  1  0
 10 11  1  0
 11 12  2  0
 11 13  1  0
 13 14  1  0
 14 15  2  0
  6 16  1  0
 16 17  2  0
 17 18  1  0
 18 19  1  0
 19 20  1  0
 20 21  1  0
 21 22  1  0
 22 23  1  0
 17  3  1  0
 23 19  1  0
 14  8  1  0
  1 24  1  0
  1 25  1  0
  1 26  1  0
  4 27  1  0
  5 28  1  0
  7 29  1  0
  7 30  1  0
  9 31  1  0
 16 32  1  0
 19 33  1  0
 20 34  1  0
 20 35  1  0
 21 36  1  0
 21 37  1  0
 22 38  1  0
 22 39  1  0
 23 40  1  0
 23 41  1  0
M  CHG  2  10  -1  13  -1
M  END
>  <UniqueID>  (76) 
71

>  <SMILES>  (76) 
COc1ccc(Cc2c[n-]c(=O)[n-]c2=O)cc1OC1CCCC1

>  <Energy>  (76) 
45.75237082627508

>  <Genealogy>  (76) 
COc1ccc(Cc2c[n-]c(=O)[n-]c2=O)cc1OC1CCCC1 (protonated)
COc1ccc(Cc2c[n-]c(=O)[n-]c2=O)cc1OC1CCCC1 (3D coordinates assigned)
COc1ccc(Cc2c[n-]c(=O)[n-]c2=O)cc1OC1CCCC1 (nonaromatic ring conformer: 45.75237082627508 kcal/mol)

>  <smiles>  (76) 
COc1ccc(Cc2c[nH]c(=O)[nH]c2=O)cc1OC1CCCC1

>  <score_type>  (76) 
oracle

>  <origin>  (76) 
adg

>  <m_score__min__energy>  (76) 
-11.67

>  <m_primary>  (76) 
energy

$$$$
77:0
     RDKit          3D

 48 50  0  0  0  0  0  0  0  0999 V2000
   58.6115   20.5377   43.5657 H   0  0  0  0  0  0  0  0  0  0  0  0
   57.8640   21.3210   43.7600 C   0  0  0  0  0  0  0  0  0  0  0  0
   57.7910   21.9210   45.0210 C   0  0  0  0  0  0  0  0  0  0  0  0
   58.4862   21.6136   45.8162 H   0  0  0  0  0  0  0  0  0  0  0  0
   56.8370   22.9100   45.2730 C   0  0  0  0  0  0  0  0  0  0  0  0
   56.7798   23.3749   46.2683 H   0  0  0  0  0  0  0  0  0  0  0  0
   55.9490   23.3140   44.2590 C   0  0  0  0  0  0  0  0  0  0  0  0
   54.9200   24.3820   44.5240 C   0  0  0  0  0  0  0  0  0  0  0  0
   53.9209   23.9632   44.3330 H   0  0  0  0  0  0  0  0  0  0  0  0
   55.1405   25.2286   43.8572 H   0  0  0  0  0  0  0  0  0  0  0  0
   54.9660   24.9030   45.9640 C   0  0  0  0  0  0  0  0  0  0  0  0
   55.7439   24.3578   46.5186 H   0  0  0  0  0  0  0  0  0  0  0  0
   53.9798   24.7444   46.4246 H   0  0  0  0  0  0  0  0  0  0  0  0
   55.2700   26.3360   45.9970 N   0  0  0  0  0  0  0  0  0  0  0  0
   56.9770   26.6930   45.9020 S   0  0  0  0  0  0  0  0  0  0  0  0
   57.5540   26.6950   47.2900 O   0  0  0  0  0  0  0  0  0  0  0  0
   57.7160   25.6810   45.0690 O   0  0  0  0  0  0  0  0  0  0  0  0
   57.1900   28.2910   45.1970 C   0  0  0  0  0  0  0  0  0  0  0  0
   56.0790   29.0370   44.7800 C   0  0  0  0  0  0  0  0  0  0  0  0
   55.0684   28.6114   44.8670 H   0  0  0  0  0  0  0  0  0  0  0  0
   56.2520   30.3200   44.2540 C   0  0  0  0  0  0  0  0  0  0  0  0
   55.3745   30.9016   43.9350 H   0  0  0  0  0  0  0  0  0  0  0  0
   57.5390   30.8740   44.1290 C   0  0  0  0  0  0  0  0  0  0  0  0
   57.7270   32.2440   43.5930 C   0  0  0  0  0  0  0  0  0  0  0  0
   57.8450   32.4150   42.3500 O   0  0  0  0  0  0  0  0  0  0  0  0
   57.8570   33.3830   44.4580 N   0  0  0  0  0  0  0  0  0  0  0  0
   58.5330   33.4520   45.5740 C   0  0  0  0  0  0  0  0  0  0  0  0
   59.9360   33.5910   45.5950 C   0  0  0  0  0  0  0  0  0  0  0  0
   60.4988   33.6545   44.6520 H   0  0  0  0  0  0  0  0  0  0  0  0
   60.6110   33.6480   46.8230 C   0  0  0  0  0  0  0  0  0  0  0  0
   62.1000   33.8350   46.8590 C   0  0  0  0  0  0  0  0  0  0  0  0
   62.4390   33.8776   47.9046 H   0  0  0  0  0  0  0  0  0  0  0  0
   62.5880   32.9911   46.3494 H   0  0  0  0  0  0  0  0  0  0  0  0
   62.3641   34.7734   46.3494 H   0  0  0  0  0  0  0  0  0  0  0  0
   59.8780   33.5860   48.0120 C   0  0  0  0  0  0  0  0  0  0  0  0
   60.3890   33.6605   48.9832 H   0  0  0  0  0  0  0  0  0  0  0  0
   58.4940   33.4290   47.9560 C   0  0  0  0  0  0  0  0  0  0  0  0
   57.9129   33.3638   48.8877 H   0  0  0  0  0  0  0  0  0  0  0  0
   57.8580   33.3560   46.7560 N   0  0  0  0  0  0  0  0  0  0  0  0
   56.8180   33.2400   46.7500 H   0  0  0  0  0  0  0  0  0  0  0  0
   58.6480   30.1170   44.5430 C   0  0  0  0  0  0  0  0  0  0  0  0
   59.6604   30.5379   44.4541 H   0  0  0  0  0  0  0  0  0  0  0  0
   58.4740   28.8330   45.0670 C   0  0  0  0  0  0  0  0  0  0  0  0
   59.3502   28.2456   45.3787 H   0  0  0  0  0  0  0  0  0  0  0  0
   56.0350   22.7120   42.9920 C   0  0  0  0  0  0  0  0  0  0  0  0
   55.3507   23.0247   42.1895 H   0  0  0  0  0  0  0  0  0  0  0  0
   56.9870   21.7170   42.7470 C   0  0  0  0  0  0  0  0  0  0  0  0
   57.0453   21.2454   41.7549 H   0  0  0  0  0  0  0  0  0  0  0  0
  1  2  1  0
  2  3  2  0
  3  4  1  0
  3  5  1  0
  5  6  1  0
  5  7  2  0
  7  8  1  0
  8  9  1  0
  8 10  1  0
  8 11  1  0
 11 12  1  0
 11 13  1  0
 11 14  1  0
 14 15  1  0
 15 16  2  0
 15 17  2  0
 15 18  1  0
 18 19  2  0
 19 20  1  0
 19 21  1  0
 21 22  1  0
 21 23  2  0
 23 24  1  0
 24 25  2  0
 24 26  1  0
 26 27  2  0
 27 28  1  0
 28 29  1  0
 28 30  2  0
 30 31  1  0
 31 32  1  0
 31 33  1  0
 31 34  1  0
 30 35  1  0
 35 36  1  0
 35 37  2  0
 37 38  1  0
 37 39  1  0
 39 40  1  0
 23 41  1  0
 41 42  1  0
 41 43  2  0
 43 44  1  0
  7 45  1  0
 45 46  1  0
 45 47  2  0
 47 48  1  0
 47  2  1  0
 43 18  1  0
 39 27  1  0
M  CHG  1  14  -1
M  END
>  <UniqueID>  (77) 
72

>  <SMILES>  (77) 
Cc1cc[nH]/c(=N/C(=O)c2ccc(S(=O)(=O)[N-]CCc3ccccc3)cc2)c1

>  <Energy>  (77) 
56.78348913829016

>  <Genealogy>  (77) 
Cc1cc[nH]c(=NC(=O)c2ccc(S(=O)(=O)[N-]CCc3ccccc3)cc2)c1 (protonated)
Cc1cc[nH]/c(=N/C(=O)c2ccc(S(=O)(=O)[N-]CCc3ccccc3)cc2)c1 (cis-trans isomerization)
Cc1cc[nH]/c(=N/C(=O)c2ccc(S(=O)(=O)[N-]CCc3ccccc3)cc2)c1 (3D coordinates assigned)
Cc1cc[nH]/c(=N/C(=O)c2ccc(S(=O)(=O)[N-]CCc3ccccc3)cc2)c1 (optimized conformer: 56.78348913829016 kcal/mol)

>  <smiles>  (77) 
Cc1cc[nH]c(=NC(=O)c2ccc(S(=O)(=O)NCCc3ccccc3)cc2)c1

>  <score_type>  (77) 
oracle

>  <origin>  (77) 
adg

>  <m_score__min__energy>  (77) 
-10.9

>  <m_primary>  (77) 
energy

$$$$
78:0
     RDKit          3D

 39 41  0  0  0  0  0  0  0  0999 V2000
   60.8094   30.3483   49.3367 H   0  0  0  0  0  0  0  0  0  0  0  0
   60.5390   29.2880   49.2240 C   0  0  0  0  0  0  0  0  0  0  0  0
   60.4967   28.6342   50.1076 H   0  0  0  0  0  0  0  0  0  0  0  0
   60.2590   28.7890   48.0010 C   0  0  0  0  0  0  0  0  0  0  0  0
   59.9120   27.4230   47.8660 C   0  0  0  0  0  0  0  0  0  0  0  0
   59.9270   26.6640   48.8760 O   0  0  0  0  0  0  0  0  0  0  0  0
   59.5840   26.9200   46.5850 C   0  0  0  0  0  0  0  0  0  0  0  0
   59.2120   25.6460   46.3340 C   0  0  0  0  0  0  0  0  0  0  0  0
   59.9675   24.8646   46.5031 H   0  0  0  0  0  0  0  0  0  0  0  0
   57.8870   25.2020   45.8540 C   0  0  0  0  0  0  0  0  0  0  0  0
   57.7350   23.9470   45.2430 C   0  0  0  0  0  0  0  0  0  0  0  0
   58.6142   23.3058   45.0822 H   0  0  0  0  0  0  0  0  0  0  0  0
   56.4700   23.5090   44.8380 C   0  0  0  0  0  0  0  0  0  0  0  0
   56.3583   22.5319   44.3453 H   0  0  0  0  0  0  0  0  0  0  0  0
   55.3480   24.3120   45.0590 C   0  0  0  0  0  0  0  0  0  0  0  0
   54.3546   23.9697   44.7335 H   0  0  0  0  0  0  0  0  0  0  0  0
   55.4870   25.5510   45.6940 C   0  0  0  0  0  0  0  0  0  0  0  0
   54.3660   26.3400   45.9220 O   0  0  0  0  0  0  0  0  0  0  0  0
   56.7520   25.9930   46.1000 C   0  0  0  0  0  0  0  0  0  0  0  0
   56.8760   27.1940   46.7220 F   0  0  0  0  0  0  0  0  0  0  0  0
   59.6720   27.7570   45.5230 N   0  0  0  0  0  0  0  0  0  0  0  0
   60.0230   29.0590   45.6450 C   0  0  0  0  0  0  0  0  0  0  0  0
   60.0810   29.7740   44.6080 O   0  0  0  0  0  0  0  0  0  0  0  0
   60.3090   29.5880   46.8750 N   0  0  0  0  0  0  0  0  0  0  0  0
   60.6720   30.9820   46.9500 C   0  0  0  0  0  0  0  0  0  0  0  0
   61.9330   31.3530   47.4330 C   0  0  0  0  0  0  0  0  0  0  0  0
   62.6442   30.5781   47.7551 H   0  0  0  0  0  0  0  0  0  0  0  0
   62.2960   32.7080   47.5090 C   0  0  0  0  0  0  0  0  0  0  0  0
   63.6280   33.1010   48.0230 C   0  0  0  0  0  0  0  0  0  0  0  0
   64.1300   34.2140   47.7140 O   0  0  0  0  0  0  0  0  0  0  0  0
   64.3430   32.2470   48.8550 O   0  0  0  0  0  0  0  0  0  0  0  0
   61.3780   33.6880   47.0920 C   0  0  0  0  0  0  0  0  0  0  0  0
   61.6542   34.7512   47.1498 H   0  0  0  0  0  0  0  0  0  0  0  0
   60.1110   33.3250   46.6020 C   0  0  0  0  0  0  0  0  0  0  0  0
   59.1530   34.3660   46.1660 C   0  0  0  0  0  0  0  0  0  0  0  0
   57.9140   34.1330   46.1530 O   0  0  0  0  0  0  0  0  0  0  0  0
   59.6060   35.6170   45.7630 O   0  0  0  0  0  0  0  0  0  0  0  0
   59.7670   31.9650   46.5350 C   0  0  0  0  0  0  0  0  0  0  0  0
   58.7783   31.6703   46.1533 H   0  0  0  0  0  0  0  0  0  0  0  0
  1  2  1  0
  2  3  1  0
  2  4  2  0
  4  5  1  0
  5  6  2  0
  5  7  1  0
  7  8  2  0
  8  9  1  0
  8 10  1  0
 10 11  2  0
 11 12  1  0
 11 13  1  0
 13 14  1  0
 13 15  2  0
 15 16  1  0
 15 17  1  0
 17 18  1  0
 17 19  2  0
 19 20  1  0
  7 21  1  0
 21 22  1  0
 22 23  2  0
 22 24  1  0
 24 25  1  0
 25 26  2  0
 26 27  1  0
 26 28  1  0
 28 29  1  0
 29 30  2  0
 29 31  1  0
 28 32  2  0
 32 33  1  0
 32 34  1  0
 34 35  1  0
 35 36  2  0
 35 37  1  0
 34 38  2  0
 38 39  1  0
 24  4  1  0
 38 25  1  0
 19 10  1  0
M  CHG  4  18  -1  21  -1  31  -1  37  -1
M  END
>  <UniqueID>  (78) 
73

>  <SMILES>  (78) 
C=c1c(=O)/c(=C\c2cccc([O-])c2F)[n-]c(=O)n1-c1cc(C(=O)[O-])cc(C(=O)[O-])c1

>  <Energy>  (78) 
72.50778954245641

>  <Genealogy>  (78) 
C=c1c(=O)c(=Cc2cccc([O-])c2F)[n-]c(=O)n1-c1cc(C(=O)[O-])cc(C(=O)[O-])c1 (protonated)
C=c1c(=O)/c(=C\c2cccc([O-])c2F)[n-]c(=O)n1-c1cc(C(=O)[O-])cc(C(=O)[O-])c1 (cis-trans isomerization)
C=c1c(=O)/c(=C\c2cccc([O-])c2F)[n-]c(=O)n1-c1cc(C(=O)[O-])cc(C(=O)[O-])c1 (3D coordinates assigned)
C=c1c(=O)/c(=C\c2cccc([O-])c2F)[n-]c(=O)n1-c1cc(C(=O)[O-])cc(C(=O)[O-])c1 (optimized conformer: 72.50778954245641 kcal/mol)

>  <smiles>  (78) 
C=c1c(=O)c(=Cc2cccc(O)c2F)[nH]c(=O)n1-c1cc(C(=O)O)cc(C(=O)O)c1

>  <score_type>  (78) 
oracle

>  <origin>  (78) 
adg

>  <m_score__min__energy>  (78) 
-14.15

>  <m_primary>  (78) 
energy

$$$$
79:0
     RDKit          3D

 55 58  0  0  0  0  0  0  0  0999 V2000
   56.5218   34.9306   45.2901 H   0  0  0  0  0  0  0  0  0  0  0  0
   57.1310   34.0430   45.5160 C   0  0  0  0  0  0  0  0  0  0  0  0
   56.8960   32.8740   44.8660 N   0  0  0  0  0  0  0  0  0  0  0  0
   57.6140   31.7420   45.1000 C   0  0  0  0  0  0  0  0  0  0  0  0
   57.2830   30.6710   44.4290 N   0  0  0  0  0  0  0  0  0  0  0  0
   56.4140   29.5900   44.8040 C   0  0  0  0  0  0  0  0  0  0  0  0
   55.2220   29.8250   45.1400 O   0  0  0  0  0  0  0  0  0  0  0  0
   56.8050   28.2380   44.5460 N   0  0  0  0  0  0  0  0  0  0  0  0
   57.1420   27.3120   45.4000 C   0  0  0  0  0  0  0  0  0  0  0  0
   58.4680   27.0350   45.5420 N   0  0  0  0  0  0  0  0  0  0  0  0
   58.9320   26.0880   46.3990 C   0  0  0  0  0  0  0  0  0  0  0  0
   60.0134   25.9041   46.4815 H   0  0  0  0  0  0  0  0  0  0  0  0
   58.0400   25.3500   47.1730 C   0  0  0  0  0  0  0  0  0  0  0  0
   58.4101   24.5896   47.8765 H   0  0  0  0  0  0  0  0  0  0  0  0
   56.6720   25.5870   47.0450 C   0  0  0  0  0  0  0  0  0  0  0  0
   55.9573   25.0115   47.6516 H   0  0  0  0  0  0  0  0  0  0  0  0
   56.2050   26.5530   46.1490 C   0  0  0  0  0  0  0  0  0  0  0  0
   54.8330   26.6960   45.9900 O   0  0  0  0  0  0  0  0  0  0  0  0
   58.7000   31.7950   46.0170 C   0  0  0  0  0  0  0  0  0  0  0  0
   59.5570   30.6950   46.1670 O   0  0  0  0  0  0  0  0  0  0  0  0
   59.2640   29.5180   46.9130 C   0  0  0  0  0  0  0  0  0  0  0  0
   58.1783   29.4405   47.0720 H   0  0  0  0  0  0  0  0  0  0  0  0
   59.6075   28.6291   46.3635 H   0  0  0  0  0  0  0  0  0  0  0  0
   59.9640   29.6050   48.2370 C   0  0  0  0  0  0  0  0  0  0  0  0
   60.2770   28.4430   48.9580 C   0  0  0  0  0  0  0  0  0  0  0  0
   59.9679   27.4596   48.5741 H   0  0  0  0  0  0  0  0  0  0  0  0
   60.9800   28.5310   50.1620 C   0  0  0  0  0  0  0  0  0  0  0  0
   61.2162   27.6175   50.7274 H   0  0  0  0  0  0  0  0  0  0  0  0
   61.3840   29.7770   50.6500 C   0  0  0  0  0  0  0  0  0  0  0  0
   61.9356   29.8413   51.5995 H   0  0  0  0  0  0  0  0  0  0  0  0
   61.0880   30.9470   49.9320 C   0  0  0  0  0  0  0  0  0  0  0  0
   61.5530   32.2910   50.4290 C   0  0  0  0  0  0  0  0  0  0  0  0
   60.8119   33.0543   50.1493 H   0  0  0  0  0  0  0  0  0  0  0  0
   61.6614   32.2424   51.5226 H   0  0  0  0  0  0  0  0  0  0  0  0
   62.8630   32.6490   49.8400 N   0  0  0  0  0  0  0  0  0  0  0  0
   62.8510   33.9720   49.1770 C   0  0  0  0  0  0  0  0  0  0  0  0
   62.3825   34.7020   49.8535 H   0  0  0  0  0  0  0  0  0  0  0  0
   63.8927   34.2432   48.9506 H   0  0  0  0  0  0  0  0  0  0  0  0
   62.0680   33.9560   47.8450 C   0  0  0  0  0  0  0  0  0  0  0  0
   61.0079   34.1540   48.0618 H   0  0  0  0  0  0  0  0  0  0  0  0
   62.5126   34.7272   47.1989 H   0  0  0  0  0  0  0  0  0  0  0  0
   62.1650   32.6760   47.1220 N   0  0  0  0  0  0  0  0  0  0  0  0
   61.3380   32.0800   47.3610 H   0  0  0  0  0  0  0  0  0  0  0  0
   63.3840   31.9400   47.4650 C   0  0  0  0  0  0  0  0  0  0  0  0
   63.4252   31.0147   46.8716 H   0  0  0  0  0  0  0  0  0  0  0  0
   64.2533   32.5767   47.2439 H   0  0  0  0  0  0  0  0  0  0  0  0
   63.4050   31.5800   48.9640 C   0  0  0  0  0  0  0  0  0  0  0  0
   62.8033   30.6711   49.1117 H   0  0  0  0  0  0  0  0  0  0  0  0
   64.4583   31.4352   49.2461 H   0  0  0  0  0  0  0  0  0  0  0  0
   60.3800   30.8530   48.7230 C   0  0  0  0  0  0  0  0  0  0  0  0
   60.1499   31.7651   48.1528 H   0  0  0  0  0  0  0  0  0  0  0  0
   58.9290   32.9950   46.7170 C   0  0  0  0  0  0  0  0  0  0  0  0
   59.7338   33.0464   47.4651 H   0  0  0  0  0  0  0  0  0  0  0  0
   58.1430   34.1170   46.4680 C   0  0  0  0  0  0  0  0  0  0  0  0
   58.3204   35.0527   47.0185 H   0  0  0  0  0  0  0  0  0  0  0  0
  1  2  1  0
  2  3  1  0
  3  4  1  0
  4  5  2  3
  5  6  1  0
  6  7  2  0
  6  8  1  0
  8  9  2  0
  9 10  1  0
 10 11  1  0
 11 12  1  0
 11 13  2  0
 13 14  1  0
 13 15  1  0
 15 16  1  0
 15 17  2  0
 17 18  1  0
  4 19  1  0
 19 20  1  0
 20 21  1  0
 21 22  1  0
 21 23  1  0
 21 24  1  0
 24 25  2  0
 25 26  1  0
 25 27  1  0
 27 28  1  0
 27 29  2  0
 29 30  1  0
 29 31  1  0
 31 32  1  0
 32 33  1  0
 32 34  1  0
 32 35  1  0
 35 36  1  0
 36 37  1  0
 36 38  1  0
 36 39  1  0
 39 40  1  0
 39 41  1  0
 39 42  1  0
 42 43  1  0
 42 44  1  0
 44 45  1  0
 44 46  1  0
 44 47  1  0
 47 48  1  0
 47 49  1  0
 31 50  2  0
 50 51  1  0
 19 52  2  0
 52 53  1  0
 52 54  1  0
 54 55  1  0
 54  2  2  0
 17  9  1  0
 50 24  1  0
 47 35  1  0
M  CHG  3   3  -1  10  -1  18  -1
M  END
>  <UniqueID>  (79) 
74

>  <SMILES>  (79) 
O=C(N=c1[n-]cccc1OCc1cccc(CN2CCNCC2)c1)/N=c1/[n-]cccc1[O-]

>  <Energy>  (79) 
88.0804860709483

>  <Genealogy>  (79) 
O=C(N=c1[n-]cccc1[O-])N=c1[n-]cccc1OCc1cccc(CN2CCNCC2)c1 (protonated)
O=C(N=c1[n-]cccc1OCc1cccc(CN2CCNCC2)c1)/N=c1/[n-]cccc1[O-] (cis-trans isomerization)
O=C(N=c1[n-]cccc1OCc1cccc(CN2CCNCC2)c1)/N=c1/[n-]cccc1[O-] (3D coordinates assigned)
O=C(N=c1[n-]cccc1OCc1cccc(CN2CCNCC2)c1)/N=c1/[n-]cccc1[O-] (nonaromatic ring conformer: 88.0804860709483 kcal/mol)

>  <smiles>  (79) 
O=C(N=c1[nH]cccc1O)N=c1[nH]cccc1OCc1cccc(CN2CCNCC2)c1

>  <score_type>  (79) 
oracle

>  <origin>  (79) 
adg

>  <m_score__min__energy>  (79) 
-15.630000000000001

>  <m_primary>  (79) 
energy

$$$$
80:0
     RDKit          3D

 64 68  0  0  0  0  0  0  0  0999 V2000
   59.0870   34.9990   44.8680 C   0  0  0  0  0  0  0  0  0  0  0  0
   58.0730   34.0200   44.6740 O   0  0  0  0  0  0  0  0  0  0  0  0
   58.1030   32.7320   45.2280 C   0  0  0  0  0  0  0  0  0  0  0  0
   58.3860   32.6040   46.5900 C   0  0  0  0  0  0  0  0  0  0  0  0
   58.4200   31.3430   47.1930 C   0  0  0  0  0  0  0  0  0  0  0  0
   58.1770   30.1880   46.4370 C   0  0  0  0  0  0  0  0  0  0  0  0
   58.2560   28.8210   47.0930 C   0  0  2  0  0  0  0  0  0  0  0  0
   59.7100   28.3410   47.2090 C   0  0  0  0  0  0  0  0  0  0  0  0
   60.4400   29.0480   48.3170 C   0  0  0  0  0  0  0  0  0  0  0  0
   60.3270   28.7800   49.6800 C   0  0  0  0  0  0  0  0  0  0  0  0
   61.0140   29.6990   50.4020 N   0  0  0  0  0  0  0  0  0  0  0  0
   61.5470   30.5520   49.5080 C   0  0  0  0  0  0  0  0  0  0  0  0
   62.3090   31.6900   49.7760 C   0  0  0  0  0  0  0  0  0  0  0  0
   62.7430   32.4650   48.6820 C   0  0  0  0  0  0  0  0  0  0  0  0
   62.4020   32.0930   47.3620 C   0  0  0  0  0  0  0  0  0  0  0  0
   61.6250   30.9440   47.1220 C   0  0  0  0  0  0  0  0  0  0  0  0
   61.2170   30.1900   48.2240 C   0  0  0  0  0  0  0  0  0  0  0  0
   57.4880   27.8510   46.3160 N   0  0  0  0  0  0  0  0  0  0  0  0
   57.4240   26.4660   46.6660 C   0  0  0  0  0  0  0  0  0  0  0  0
   57.8960   26.0710   47.7640 O   0  0  0  0  0  0  0  0  0  0  0  0
   56.7190   25.5160   45.7910 C   0  0  0  0  0  0  0  0  0  0  0  0
   57.2790   24.3940   45.2060 C   0  0  0  0  0  0  0  0  0  0  0  0
   56.3140   23.6310   44.6460 N   0  0  0  0  0  0  0  0  0  0  0  0
   56.5090   22.3140   44.1140 C   0  0  0  0  0  0  0  0  0  0  0  0
   55.9150   21.9560   43.0590 O   0  0  0  0  0  0  0  0  0  0  0  0
   57.3150   21.3750   44.8320 N   0  0  0  0  0  0  0  0  0  0  0  0
   57.3880   21.3870   46.2890 C   0  0  0  0  0  0  0  0  0  0  0  0
   56.0150   21.6220   46.8570 C   0  0  0  0  0  0  0  0  0  0  0  0
   55.8030   22.6720   47.7710 C   0  0  0  0  0  0  0  0  0  0  0  0
   54.5110   22.9640   48.2190 C   0  0  0  0  0  0  0  0  0  0  0  0
   53.4220   22.2190   47.7510 C   0  0  0  0  0  0  0  0  0  0  0  0
   53.6250   21.1780   46.8360 C   0  0  0  0  0  0  0  0  0  0  0  0
   54.9160   20.8810   46.3870 C   0  0  0  0  0  0  0  0  0  0  0  0
   55.1430   24.2650   44.8580 C   0  0  0  0  0  0  0  0  0  0  0  0
   53.9040   23.7820   44.4480 O   0  0  0  0  0  0  0  0  0  0  0  0
   55.3590   25.4300   45.5630 C   0  0  0  0  0  0  0  0  0  0  0  0
   54.3870   26.3230   45.9930 O   0  0  0  0  0  0  0  0  0  0  0  0
   57.9070   30.3150   45.0630 C   0  0  0  0  0  0  0  0  0  0  0  0
   57.8590   31.5760   44.4640 C   0  0  0  0  0  0  0  0  0  0  0  0
   59.2466   35.1531   45.9454 H   0  0  0  0  0  0  0  0  0  0  0  0
   60.0230   34.6543   44.4043 H   0  0  0  0  0  0  0  0  0  0  0  0
   58.7754   35.9466   44.4043 H   0  0  0  0  0  0  0  0  0  0  0  0
   58.5837   33.5026   47.1929 H   0  0  0  0  0  0  0  0  0  0  0  0
   58.6388   31.2568   48.2676 H   0  0  0  0  0  0  0  0  0  0  0  0
   57.8352   28.9078   48.1056 H   0  0  0  0  0  0  0  0  0  0  0  0
   59.7138   27.2599   47.4121 H   0  0  0  0  0  0  0  0  0  0  0  0
   60.2226   28.5649   46.2618 H   0  0  0  0  0  0  0  0  0  0  0  0
   59.7601   27.9408   50.1095 H   0  0  0  0  0  0  0  0  0  0  0  0
   61.0890   29.7480   51.4440 H   0  0  0  0  0  0  0  0  0  0  0  0
   62.5627   31.9730   50.8082 H   0  0  0  0  0  0  0  0  0  0  0  0
   63.3509   33.3650   48.8566 H   0  0  0  0  0  0  0  0  0  0  0  0
   62.7463   32.7058   46.5159 H   0  0  0  0  0  0  0  0  0  0  0  0
   61.3481   30.6496   46.0989 H   0  0  0  0  0  0  0  0  0  0  0  0
   58.3532   24.1574   45.1979 H   0  0  0  0  0  0  0  0  0  0  0  0
   57.7716   20.4195   46.6451 H   0  0  0  0  0  0  0  0  0  0  0  0
   58.0632   22.1915   46.6161 H   0  0  0  0  0  0  0  0  0  0  0  0
   56.6562   23.2642   48.1336 H   0  0  0  0  0  0  0  0  0  0  0  0
   54.3502   23.7795   48.9395 H   0  0  0  0  0  0  0  0  0  0  0  0
   52.4058   22.4514   48.1022 H   0  0  0  0  0  0  0  0  0  0  0  0
   52.7681   20.5934   46.4701 H   0  0  0  0  0  0  0  0  0  0  0  0
   55.0720   20.0661   45.6648 H   0  0  0  0  0  0  0  0  0  0  0  0
   53.1080   24.3980   44.3700 H   0  0  0  0  0  0  0  0  0  0  0  0
   57.7323   29.4149   44.4554 H   0  0  0  0  0  0  0  0  0  0  0  0
   57.6298   31.6655   43.3919 H   0  0  0  0  0  0  0  0  0  0  0  0
  1  2  1  0
  2  3  1  0
  3  4  2  0
  4  5  1  0
  5  6  2  0
  6  7  1  0
  7  8  1  0
  8  9  1  0
  9 10  2  0
 10 11  1  0
 11 12  1  0
 12 13  2  0
 13 14  1  0
 14 15  2  0
 15 16  1  0
 16 17  2  0
  7 18  1  0
 18 19  1  0
 19 20  2  0
 19 21  1  0
 21 22  2  0
 22 23  1  0
 23 24  1  0
 24 25  2  0
 24 26  1  0
 26 27  1  0
 27 28  1  0
 28 29  2  0
 29 30  1  0
 30 31  2  0
 31 32  1  0
 32 33  2  0
 23 34  1  0
 34 35  1  0
 34 36  2  0
 36 37  1  0
  6 38  1  0
 38 39  2  0
 39  3  1  0
 17  9  1  0
 36 21  1  0
 17 12  1  0
 33 28  1  0
  1 40  1  0
  1 41  1  0
  1 42  1  0
  4 43  1  0
  5 44  1  0
  7 45  1  1
  8 46  1  0
  8 47  1  0
 10 48  1  0
 11 49  1  0
 13 50  1  0
 14 51  1  0
 15 52  1  0
 16 53  1  0
 22 54  1  0
 27 55  1  0
 27 56  1  0
 29 57  1  0
 30 58  1  0
 31 59  1  0
 32 60  1  0
 33 61  1  0
 35 62  1  0
 38 63  1  0
 39 64  1  0
M  CHG  3  18  -1  26  -1  37  -1
M  END
>  <UniqueID>  (80) 
75

>  <SMILES>  (80) 
COc1ccc([C@H](Cc2c[nH]c3ccccc23)[N-]C(=O)c2cn(C(=O)[N-]Cc3ccccc3)c(O)c2[O-])cc1

>  <Energy>  (80) 
127.26652806898339

>  <Genealogy>  (80) 
COc1ccc(C(Cc2c[nH]c3ccccc23)[N-]C(=O)c2cn(C(=O)[N-]Cc3ccccc3)c(O)c2[O-])cc1 (protonated)
COc1ccc([C@H](Cc2c[nH]c3ccccc23)[N-]C(=O)c2cn(C(=O)[N-]Cc3ccccc3)c(O)c2[O-])cc1 (chirality)
COc1ccc([C@H](Cc2c[nH]c3ccccc23)[N-]C(=O)c2cn(C(=O)[N-]Cc3ccccc3)c(O)c2[O-])cc1 (3D coordinates assigned)
COc1ccc([C@H](Cc2c[nH]c3ccccc23)[N-]C(=O)c2cn(C(=O)[N-]Cc3ccccc3)c(O)c2[O-])cc1 (optimized conformer: 127.26652806898339 kcal/mol)

>  <smiles>  (80) 
COc1ccc(C(Cc2c[nH]c3ccccc23)NC(=O)c2cn(C(=O)NCc3ccccc3)c(O)c2O)cc1

>  <score_type>  (80) 
oracle

>  <origin>  (80) 
adg

>  <m_score__min__energy>  (80) 
-15.26

>  <m_primary>  (80) 
energy

$$$$
81:0
     RDKit          3D

 55 58  0  0  0  0  0  0  0  0999 V2000
   62.3840   31.2140   47.1970 C   0  0  0  0  0  0  0  0  0  0  0  0
   61.0380   30.6760   47.0430 N   0  0  0  0  0  0  0  0  0  0  0  0
   60.7320   29.6840   46.0520 C   0  0  0  0  0  0  0  0  0  0  0  0
   61.6280   29.3120   45.2460 O   0  0  0  0  0  0  0  0  0  0  0  0
   59.3750   29.0910   45.9660 C   0  0  0  0  0  0  0  0  0  0  0  0
   59.1920   27.7350   46.2900 C   0  0  0  0  0  0  0  0  0  0  0  0
   57.9260   27.1300   46.1790 C   0  0  0  0  0  0  0  0  0  0  0  0
   57.7180   25.7730   46.4940 C   0  0  0  0  0  0  0  0  0  0  0  0
   58.6770   25.0670   46.9110 O   0  0  0  0  0  0  0  0  0  0  0  0
   56.4360   25.2070   46.3490 C   0  0  0  0  0  0  0  0  0  0  0  0
   56.1340   23.5080   46.7500 S   0  0  0  0  0  0  0  0  0  0  0  0
   54.7370   23.3240   47.2760 O   0  0  0  0  0  0  0  0  0  0  0  0
   57.0870   23.0570   47.8230 O   0  0  0  0  0  0  0  0  0  0  0  0
   56.3510   22.5340   45.3020 C   0  0  0  0  0  0  0  0  0  0  0  0
   56.3410   21.1340   45.3910 C   0  0  0  0  0  0  0  0  0  0  0  0
   56.4930   20.3560   44.2390 C   0  0  0  0  0  0  0  0  0  0  0  0
   56.6500   20.9710   42.9940 C   0  0  0  0  0  0  0  0  0  0  0  0
   56.6530   22.3650   42.8990 C   0  0  0  0  0  0  0  0  0  0  0  0
   56.5010   23.1470   44.0490 C   0  0  0  0  0  0  0  0  0  0  0  0
   55.3770   26.0300   45.9240 C   0  0  0  0  0  0  0  0  0  0  0  0
   54.0880   25.5250   45.8050 O   0  0  0  0  0  0  0  0  0  0  0  0
   55.6020   27.3350   45.6280 N   0  0  0  0  0  0  0  0  0  0  0  0
   56.8320   27.9010   45.7360 C   0  0  0  0  0  0  0  0  0  0  0  0
   57.0060   29.2470   45.4150 C   0  0  0  0  0  0  0  0  0  0  0  0
   58.2650   29.8520   45.5270 C   0  0  0  0  0  0  0  0  0  0  0  0
   58.3890   31.2500   45.2300 N   0  0  0  0  0  0  0  0  0  0  0  0
   58.2320   32.2310   46.3130 C   0  0  0  0  0  0  0  0  0  0  0  0
   58.6750   33.6270   45.8560 C   0  0  0  0  0  0  0  0  0  0  0  0
   57.9640   34.0830   44.5550 C   0  0  0  0  0  0  0  0  0  0  0  0
   56.7050   34.9010   44.8720 C   0  0  0  0  0  0  0  0  0  0  0  0
   57.6220   32.9090   43.6000 C   0  0  0  0  0  0  0  0  0  0  0  0
   58.5190   31.6930   43.8370 C   0  0  0  0  0  0  0  0  0  0  0  0
   62.6208   31.3087   48.2670 H   0  0  0  0  0  0  0  0  0  0  0  0
   63.1068   30.5357   46.7201 H   0  0  0  0  0  0  0  0  0  0  0  0
   62.4401   32.2037   46.7201 H   0  0  0  0  0  0  0  0  0  0  0  0
   60.2770   31.0610   47.6470 H   0  0  0  0  0  0  0  0  0  0  0  0
   60.0498   27.1390   46.6349 H   0  0  0  0  0  0  0  0  0  0  0  0
   56.2133   20.6472   46.3691 H   0  0  0  0  0  0  0  0  0  0  0  0
   56.4890   19.2585   44.3129 H   0  0  0  0  0  0  0  0  0  0  0  0
   56.7712   20.3577   42.0889 H   0  0  0  0  0  0  0  0  0  0  0  0
   56.7751   22.8483   41.9184 H   0  0  0  0  0  0  0  0  0  0  0  0
   56.4991   24.2442   43.9707 H   0  0  0  0  0  0  0  0  0  0  0  0
   56.1460   29.8399   45.0703 H   0  0  0  0  0  0  0  0  0  0  0  0
   57.1746   32.2692   46.6137 H   0  0  0  0  0  0  0  0  0  0  0  0
   58.8617   31.9225   47.1605 H   0  0  0  0  0  0  0  0  0  0  0  0
   58.4454   34.3482   46.6542 H   0  0  0  0  0  0  0  0  0  0  0  0
   59.7541   33.5821   45.6474 H   0  0  0  0  0  0  0  0  0  0  0  0
   58.6840   34.7228   44.0237 H   0  0  0  0  0  0  0  0  0  0  0  0
   56.5838   34.9797   45.9625 H   0  0  0  0  0  0  0  0  0  0  0  0
   56.8037   35.9080   44.4404 H   0  0  0  0  0  0  0  0  0  0  0  0
   55.8250   34.4017   44.4404 H   0  0  0  0  0  0  0  0  0  0  0  0
   56.5748   32.6139   43.7619 H   0  0  0  0  0  0  0  0  0  0  0  0
   57.7852   33.2537   42.5682 H   0  0  0  0  0  0  0  0  0  0  0  0
   58.2160   30.8777   43.1637 H   0  0  0  0  0  0  0  0  0  0  0  0
   59.5655   31.9661   43.6365 H   0  0  0  0  0  0  0  0  0  0  0  0
  1  2  1  0
  2  3  1  0
  3  4  2  0
  3  5  1  0
  5  6  2  0
  6  7  1  0
  7  8  1  0
  8  9  2  0
  8 10  1  0
 10 11  1  0
 11 12  2  0
 11 13  2  0
 11 14  1  0
 14 15  2  0
 15 16  1  0
 16 17  2  0
 17 18  1  0
 18 19  2  0
 10 20  2  0
 20 21  1  0
 20 22  1  0
 22 23  1  0
 23 24  1  0
 24 25  2  0
 25 26  1  0
 26 27  1  0
 27 28  1  0
 28 29  1  0
 29 30  1  0
 29 31  1  0
 31 32  1  0
 25  5  1  0
 32 26  1  0
 23  7  2  0
 19 14  1  0
  1 33  1  0
  1 34  1  0
  1 35  1  0
  2 36  1  0
  6 37  1  0
 15 38  1  0
 16 39  1  0
 17 40  1  0
 18 41  1  0
 19 42  1  0
 24 43  1  0
 27 44  1  0
 27 45  1  0
 28 46  1  0
 28 47  1  0
 29 48  1  0
 30 49  1  0
 30 50  1  0
 30 51  1  0
 31 52  1  0
 31 53  1  0
 32 54  1  0
 32 55  1  0
M  CHG  2  21  -1  22  -1
M  END
>  <UniqueID>  (81) 
76

>  <SMILES>  (81) 
CNC(=O)c1cc2c(=O)c(S(=O)(=O)c3ccccc3)c([O-])[n-]c2cc1N1CCC(C)CC1

>  <Energy>  (81) 
73.56964598721935

>  <Genealogy>  (81) 
CNC(=O)c1cc2c(=O)c(S(=O)(=O)c3ccccc3)c([O-])[n-]c2cc1N1CCC(C)CC1 (protonated)
CNC(=O)c1cc2c(=O)c(S(=O)(=O)c3ccccc3)c([O-])[n-]c2cc1N1CCC(C)CC1 (3D coordinates assigned)
CNC(=O)c1cc2c(=O)c(S(=O)(=O)c3ccccc3)c([O-])[n-]c2cc1N1CCC(C)CC1 (nonaromatic ring conformer: 73.56964598721935 kcal/mol)

>  <smiles>  (81) 
CNC(=O)c1cc2c(=O)c(S(=O)(=O)c3ccccc3)c(O)[nH]c2cc1N1CCC(C)CC1

>  <score_type>  (81) 
oracle

>  <origin>  (81) 
adg

>  <m_score__min__energy>  (81) 
-13.460000000000001

>  <m_primary>  (81) 
energy

$$$$
82:0
     RDKit          3D

 55 58  0  0  0  0  0  0  0  0999 V2000
   57.1110   33.0830   44.6920 O   0  0  0  0  0  0  0  0  0  0  0  0
   57.6730   31.9650   44.8330 C   0  0  0  0  0  0  0  0  0  0  0  0
   57.3140   30.8350   43.9020 C   0  0  0  0  0  0  0  0  0  0  0  0
   57.4860   29.5390   44.5610 N   0  0  0  0  0  0  0  0  0  0  0  0
   56.5070   28.7250   45.0110 C   0  0  0  0  0  0  0  0  0  0  0  0
   55.1480   28.9880   44.8760 O   0  0  0  0  0  0  0  0  0  0  0  0
   57.0460   27.6130   45.6230 C   0  0  0  0  0  0  0  0  0  0  0  0
   58.4100   27.7530   45.5560 C   0  0  0  0  0  0  0  0  0  0  0  0
   58.6530   28.9480   44.9020 C   0  0  0  0  0  0  0  0  0  0  0  0
   59.9080   29.4820   44.6260 O   0  0  0  0  0  0  0  0  0  0  0  0
   59.3820   26.7690   46.1240 C   0  0  0  0  0  0  0  0  0  0  0  0
   58.6780   25.5750   46.7380 C   0  0  0  0  0  0  0  0  0  0  0  0
   57.3350   25.4390   46.8050 C   0  0  0  0  0  0  0  0  0  0  0  0
   56.3510   26.4630   46.2760 C   0  0  0  0  0  0  0  0  0  0  0  0
   58.7640   31.8580   45.7560 N   0  0  0  0  0  0  0  0  0  0  0  0
   58.6540   31.5960   47.1610 C   0  0  0  0  0  0  0  0  0  0  0  0
   58.2300   32.5900   48.0560 C   0  0  0  0  0  0  0  0  0  0  0  0
   58.1600   32.3210   49.4260 C   0  0  0  0  0  0  0  0  0  0  0  0
   58.5290   31.0620   49.9160 C   0  0  0  0  0  0  0  0  0  0  0  0
   58.4230   30.7330   51.6430 S   0  0  0  0  0  0  0  0  0  0  0  0
   59.6710   30.0430   52.1210 O   0  0  0  0  0  0  0  0  0  0  0  0
   58.2760   32.0340   52.3780 O   0  0  0  0  0  0  0  0  0  0  0  0
   57.0480   29.7280   51.9790 N   0  0  0  0  0  0  0  0  0  0  0  0
   55.8550   30.5560   52.1530 C   0  0  0  0  0  0  0  0  0  0  0  0
   54.6410   29.6730   52.4420 C   0  0  0  0  0  0  0  0  0  0  0  0
   53.3560   30.4470   52.3130 C   0  0  0  0  0  0  0  0  0  0  0  0
   52.4930   30.5750   53.4150 C   0  0  0  0  0  0  0  0  0  0  0  0
   51.3150   31.3200   53.3050 C   0  0  0  0  0  0  0  0  0  0  0  0
   50.9930   31.9480   52.1000 C   0  0  0  0  0  0  0  0  0  0  0  0
   51.8510   31.8350   51.0020 C   0  0  0  0  0  0  0  0  0  0  0  0
   53.0300   31.0900   51.1070 C   0  0  0  0  0  0  0  0  0  0  0  0
   58.9880   30.0800   49.0270 C   0  0  0  0  0  0  0  0  0  0  0  0
   59.0600   30.3510   47.6570 C   0  0  0  0  0  0  0  0  0  0  0  0
   56.2645   30.9443   43.5912 H   0  0  0  0  0  0  0  0  0  0  0  0
   57.9804   30.8754   43.0277 H   0  0  0  0  0  0  0  0  0  0  0  0
   60.1670   30.4070   44.9470 H   0  0  0  0  0  0  0  0  0  0  0  0
   60.0443   26.4172   45.3193 H   0  0  0  0  0  0  0  0  0  0  0  0
   59.9562   27.2726   46.9157 H   0  0  0  0  0  0  0  0  0  0  0  0
   59.2992   24.7687   47.1552 H   0  0  0  0  0  0  0  0  0  0  0  0
   56.9312   24.5288   47.2724 H   0  0  0  0  0  0  0  0  0  0  0  0
   55.6944   25.9783   45.5385 H   0  0  0  0  0  0  0  0  0  0  0  0
   55.7709   26.8515   47.1261 H   0  0  0  0  0  0  0  0  0  0  0  0
   57.9516   33.5848   47.6781 H   0  0  0  0  0  0  0  0  0  0  0  0
   57.8142   33.1003   50.1210 H   0  0  0  0  0  0  0  0  0  0  0  0
   56.0111   31.2469   52.9946 H   0  0  0  0  0  0  0  0  0  0  0  0
   55.6743   31.1260   51.2297 H   0  0  0  0  0  0  0  0  0  0  0  0
   54.6284   28.8367   51.7275 H   0  0  0  0  0  0  0  0  0  0  0  0
   54.7201   29.3027   53.4748 H   0  0  0  0  0  0  0  0  0  0  0  0
   52.7455   30.0870   54.3680 H   0  0  0  0  0  0  0  0  0  0  0  0
   50.6406   31.4116   54.1692 H   0  0  0  0  0  0  0  0  0  0  0  0
   50.0644   32.5315   52.0147 H   0  0  0  0  0  0  0  0  0  0  0  0
   51.5984   32.3327   50.0541 H   0  0  0  0  0  0  0  0  0  0  0  0
   53.7046   31.0071   50.2421 H   0  0  0  0  0  0  0  0  0  0  0  0
   59.2922   29.0940   49.4080 H   0  0  0  0  0  0  0  0  0  0  0  0
   59.4372   29.5828   46.9659 H   0  0  0  0  0  0  0  0  0  0  0  0
  1  2  2  0
  2  3  1  0
  3  4  1  0
  4  5  1  0
  5  6  1  0
  5  7  2  0
  7  8  1  0
  8  9  2  0
  9 10  1  0
  8 11  1  0
 11 12  1  0
 12 13  2  0
 13 14  1  0
  2 15  1  0
 15 16  1  0
 16 17  2  0
 17 18  1  0
 18 19  2  0
 19 20  1  0
 20 21  2  0
 20 22  2  0
 20 23  1  0
 23 24  1  0
 24 25  1  0
 25 26  1  0
 26 27  2  0
 27 28  1  0
 28 29  2  0
 29 30  1  0
 30 31  2  0
 19 32  1  0
 32 33  2  0
  9  4  1  0
 33 16  1  0
 14  7  1  0
 31 26  1  0
  3 34  1  0
  3 35  1  0
 10 36  1  0
 11 37  1  0
 11 38  1  0
 12 39  1  0
 13 40  1  0
 14 41  1  0
 14 42  1  0
 17 43  1  0
 18 44  1  0
 24 45  1  0
 24 46  1  0
 25 47  1  0
 25 48  1  0
 27 49  1  0
 28 50  1  0
 29 51  1  0
 30 52  1  0
 31 53  1  0
 32 54  1  0
 33 55  1  0
M  CHG  3   6  -1  15  -1  23  -1
M  END
>  <UniqueID>  (82) 
77

>  <SMILES>  (82) 
O=C(Cn1c([O-])c2c(c1O)CC=CC2)[N-]c1ccc(S(=O)(=O)[N-]CCc2ccccc2)cc1

>  <Energy>  (82) 
90.85549872789092

>  <Genealogy>  (82) 
O=C(Cn1c([O-])c2c(c1O)CC=CC2)[N-]c1ccc(S(=O)(=O)[N-]CCc2ccccc2)cc1 (protonated)
O=C(Cn1c([O-])c2c(c1O)CC=CC2)[N-]c1ccc(S(=O)(=O)[N-]CCc2ccccc2)cc1 (3D coordinates assigned)
O=C(Cn1c([O-])c2c(c1O)CC=CC2)[N-]c1ccc(S(=O)(=O)[N-]CCc2ccccc2)cc1 (nonaromatic ring conformer: 90.85549872789092 kcal/mol)

>  <smiles>  (82) 
O=C(Cn1c(O)c2c(c1O)CC=CC2)Nc1ccc(S(=O)(=O)NCCc2ccccc2)cc1

>  <score_type>  (82) 
oracle

>  <origin>  (82) 
adg

>  <m_score__min__energy>  (82) 
-13.710000000000001

>  <m_primary>  (82) 
energy

$$$$
83:0
     RDKit          3D

 76 82  0  0  0  0  0  0  0  0999 V2000
   57.1600   34.3910   44.8670 C   0  0  0  0  0  0  0  0  0  0  0  0
   58.2520   33.5400   45.3590 N   0  0  0  0  0  0  0  0  0  0  0  0
   59.4560   34.0800   45.7510 C   0  0  0  0  0  0  0  0  0  0  0  0
   59.6340   35.3280   45.6600 O   0  0  0  0  0  0  0  0  0  0  0  0
   60.4660   33.2740   46.2420 N   0  0  0  0  0  0  0  0  0  0  0  0
   61.7800   33.8500   46.5940 C   0  0  0  0  0  0  0  0  0  0  0  0
   62.1580   33.4700   48.0020 C   0  0  0  0  0  0  0  0  0  0  0  0
   61.3020   33.7680   49.0740 C   0  0  0  0  0  0  0  0  0  0  0  0
   61.6320   33.3720   50.3730 C   0  0  0  0  0  0  0  0  0  0  0  0
   62.8150   32.6550   50.6170 C   0  0  0  0  0  0  0  0  0  0  0  0
   63.1780   32.2330   51.9870 C   0  0  0  0  0  0  0  0  0  0  0  0
   62.7960   31.0970   52.3830 O   0  0  0  0  0  0  0  0  0  0  0  0
   63.9440   33.0760   52.8780 N   0  0  0  0  0  0  0  0  0  0  0  0
   64.0380   34.5270   52.6710 C   0  0  0  0  0  0  0  0  0  0  0  0
   63.9200   35.3120   53.9910 C   0  0  0  0  0  0  0  0  0  0  0  0
   64.2050   34.5070   55.1960 N   0  0  0  0  0  0  0  0  0  0  0  0
   63.0470   34.2010   56.0650 C   0  0  0  0  0  0  0  0  0  0  0  0
   61.7210   34.1550   55.3390 C   0  0  0  0  0  0  0  0  0  0  0  0
   60.8160   35.2440   55.4470 C   0  0  0  0  0  0  0  0  0  0  0  0
   59.5870   35.2250   54.7630 C   0  0  0  0  0  0  0  0  0  0  0  0
   59.3020   34.1180   53.9700 C   0  0  0  0  0  0  0  0  0  0  0  0
   60.1690   33.0840   53.8450 C   0  0  0  0  0  0  0  0  0  0  0  0
   61.3930   33.0610   54.5050 C   0  0  0  0  0  0  0  0  0  0  0  0
   59.6370   32.1380   52.9890 O   0  0  0  0  0  0  0  0  0  0  0  0
   58.3560   32.6110   52.5470 C   0  0  0  0  0  0  0  0  0  0  0  0
   58.1780   33.8740   53.2040 O   0  0  0  0  0  0  0  0  0  0  0  0
   65.1910   33.4300   55.0060 C   0  0  0  0  0  0  0  0  0  0  0  0
   64.7830   32.4420   53.9030 C   0  0  0  0  0  0  0  0  0  0  0  0
   63.6790   32.3750   49.5490 C   0  0  0  0  0  0  0  0  0  0  0  0
   63.3500   32.7710   48.2500 C   0  0  0  0  0  0  0  0  0  0  0  0
   60.2530   31.9220   46.3590 C   0  0  0  0  0  0  0  0  0  0  0  0
   61.1580   31.1600   46.7920 O   0  0  0  0  0  0  0  0  0  0  0  0
   59.0480   31.4220   45.9940 N   0  0  0  0  0  0  0  0  0  0  0  0
   58.4970   30.1890   45.9930 C   0  0  0  0  0  0  0  0  0  0  0  0
   59.1180   28.9320   46.5310 C   0  0  0  0  0  0  0  0  0  0  0  0
   59.4710   29.1070   47.9840 C   0  0  0  0  0  0  0  0  0  0  0  0
   58.8950   30.1530   48.7260 C   0  0  0  0  0  0  0  0  0  0  0  0
   59.2450   30.3460   50.0650 C   0  0  0  0  0  0  0  0  0  0  0  0
   60.1750   29.5000   50.6780 C   0  0  0  0  0  0  0  0  0  0  0  0
   60.5160   29.7050   52.0130 O   0  0  0  0  0  0  0  0  0  0  0  0
   60.7560   28.4570   49.9430 C   0  0  0  0  0  0  0  0  0  0  0  0
   60.4070   28.2620   48.6030 C   0  0  0  0  0  0  0  0  0  0  0  0
   57.2260   30.2410   45.5320 N   0  0  0  0  0  0  0  0  0  0  0  0
   56.9630   31.5060   45.2230 N   0  0  0  0  0  0  0  0  0  0  0  0
   58.0800   32.2000   45.5120 C   0  0  0  0  0  0  0  0  0  0  0  0
   56.6136   34.8168   45.7214 H   0  0  0  0  0  0  0  0  0  0  0  0
   57.5765   35.2051   44.2556 H   0  0  0  0  0  0  0  0  0  0  0  0
   56.4724   33.7882   44.2556 H   0  0  0  0  0  0  0  0  0  0  0  0
   62.5416   33.4680   45.8983 H   0  0  0  0  0  0  0  0  0  0  0  0
   61.7204   34.9461   46.5233 H   0  0  0  0  0  0  0  0  0  0  0  0
   60.3662   34.3163   48.8905 H   0  0  0  0  0  0  0  0  0  0  0  0
   60.9620   33.6230   51.2085 H   0  0  0  0  0  0  0  0  0  0  0  0
   65.0090   34.7566   52.2079 H   0  0  0  0  0  0  0  0  0  0  0  0
   63.2032   34.8303   52.0220 H   0  0  0  0  0  0  0  0  0  0  0  0
   64.6308   36.1509   53.9593 H   0  0  0  0  0  0  0  0  0  0  0  0
   62.8748   35.6454   54.0708 H   0  0  0  0  0  0  0  0  0  0  0  0
   63.2174   33.2207   56.5341 H   0  0  0  0  0  0  0  0  0  0  0  0
   62.9775   35.0184   56.7978 H   0  0  0  0  0  0  0  0  0  0  0  0
   61.0786   36.1107   56.0715 H   0  0  0  0  0  0  0  0  0  0  0  0
   58.8745   36.0583   54.8522 H   0  0  0  0  0  0  0  0  0  0  0  0
   62.0863   32.2159   54.3818 H   0  0  0  0  0  0  0  0  0  0  0  0
   58.3474   32.7392   51.4545 H   0  0  0  0  0  0  0  0  0  0  0  0
   57.5492   31.9032   52.7881 H   0  0  0  0  0  0  0  0  0  0  0  0
   66.1571   33.8809   54.7351 H   0  0  0  0  0  0  0  0  0  0  0  0
   65.2553   32.8677   55.9492 H   0  0  0  0  0  0  0  0  0  0  0  0
   65.6921   32.0491   53.4243 H   0  0  0  0  0  0  0  0  0  0  0  0
   64.1979   31.6356   54.3692 H   0  0  0  0  0  0  0  0  0  0  0  0
   64.6220   31.8401   49.7349 H   0  0  0  0  0  0  0  0  0  0  0  0
   64.0285   32.5338   47.4173 H   0  0  0  0  0  0  0  0  0  0  0  0
   58.4043   28.1013   46.4280 H   0  0  0  0  0  0  0  0  0  0  0  0
   60.0341   28.7128   45.9630 H   0  0  0  0  0  0  0  0  0  0  0  0
   58.1645   30.8235   48.2497 H   0  0  0  0  0  0  0  0  0  0  0  0
   58.7878   31.1657   50.6386 H   0  0  0  0  0  0  0  0  0  0  0  0
   60.7250   30.6310   52.3700 H   0  0  0  0  0  0  0  0  0  0  0  0
   61.4883   27.7903   50.4217 H   0  0  0  0  0  0  0  0  0  0  0  0
   60.8676   27.4431   48.0310 H   0  0  0  0  0  0  0  0  0  0  0  0
  1  2  1  0
  2  3  1  0
  3  4  2  0
  3  5  1  0
  5  6  1  0
  6  7  1  0
  7  8  2  0
  8  9  1  0
  9 10  2  0
 10 11  1  0
 11 12  2  0
 11 13  1  0
 13 14  1  0
 14 15  1  0
 15 16  1  0
 16 17  1  0
 17 18  1  0
 18 19  2  0
 19 20  1  0
 20 21  2  0
 21 22  1  0
 22 23  2  0
 22 24  1  0
 24 25  1  0
 25 26  1  0
 16 27  1  0
 27 28  1  0
 10 29  1  0
 29 30  2  0
  5 31  1  0
 31 32  2  0
 31 33  1  0
 33 34  1  0
 34 35  1  0
 35 36  1  0
 36 37  2  0
 37 38  1  0
 38 39  2  0
 39 40  1  0
 39 41  1  0
 41 42  2  0
 34 43  2  0
 43 44  1  0
 44 45  2  0
 45  2  1  0
 30  7  1  0
 45 33  1  0
 28 13  1  0
 42 36  1  0
 23 18  1  0
 26 21  1  0
  1 46  1  0
  1 47  1  0
  1 48  1  0
  6 49  1  0
  6 50  1  0
  8 51  1  0
  9 52  1  0
 14 53  1  0
 14 54  1  0
 15 55  1  0
 15 56  1  0
 17 57  1  0
 17 58  1  0
 19 59  1  0
 20 60  1  0
 23 61  1  0
 25 62  1  0
 25 63  1  0
 27 64  1  0
 27 65  1  0
 28 66  1  0
 28 67  1  0
 29 68  1  0
 30 69  1  0
 35 70  1  0
 35 71  1  0
 37 72  1  0
 38 73  1  0
 40 74  1  0
 41 75  1  0
 42 76  1  0
M  END
>  <UniqueID>  (83) 
78

>  <SMILES>  (83) 
Cn1c(=O)n(Cc2ccc(C(=O)N3CCN(Cc4ccc5c(c4)OCO5)CC3)cc2)c(=O)n2c(Cc3ccc(O)cc3)nnc12

>  <Energy>  (83) 
174.68138321700025

>  <Genealogy>  (83) 
Cn1c(=O)n(Cc2ccc(C(=O)N3CCN(Cc4ccc5c(c4)OCO5)CC3)cc2)c(=O)n2c(Cc3ccc(O)cc3)nnc12 (3D coordinates assigned)
Cn1c(=O)n(Cc2ccc(C(=O)N3CCN(Cc4ccc5c(c4)OCO5)CC3)cc2)c(=O)n2c(Cc3ccc(O)cc3)nnc12 (nonaromatic ring conformer: 174.68138321700025 kcal/mol)

>  <smiles>  (83) 
Cn1c(=O)n(Cc2ccc(C(=O)N3CCN(Cc4ccc5c(c4)OCO5)CC3)cc2)c(=O)n2c(Cc3ccc(O)cc3)nnc12

>  <score_type>  (83) 
oracle

>  <origin>  (83) 
adg

>  <m_score__min__energy>  (83) 
-9.6999999999999993

>  <m_primary>  (83) 
energy

$$$$
84:0
     RDKit          3D

 40 43  0  0  0  0  0  0  0  0999 V2000
   59.0938   29.1841   47.6250 H   0  0  0  0  0  0  0  0  0  0  0  0
   58.8140   28.4160   46.8890 C   0  0  0  0  0  0  0  0  0  0  0  0
   59.0268   27.3561   47.0923 H   0  0  0  0  0  0  0  0  0  0  0  0
   58.2130   28.7720   45.7430 C   0  0  0  0  0  0  0  0  0  0  0  0
   57.7940   27.9220   44.7060 C   0  0  0  0  0  0  0  0  0  0  0  0
   57.7170   26.5780   44.6360 C   0  0  0  0  0  0  0  0  0  0  0  0
   58.0674   26.1030   43.7078 H   0  0  0  0  0  0  0  0  0  0  0  0
   57.2050   25.6900   45.6930 C   0  0  0  0  0  0  0  0  0  0  0  0
   57.9350   24.7510   46.3240 N   0  0  0  0  0  0  0  0  0  0  0  0
   57.1010   24.3070   47.2900 C   0  0  0  0  0  0  0  0  0  0  0  0
   57.4230   23.3960   48.0960 O   0  0  0  0  0  0  0  0  0  0  0  0
   55.9010   24.9240   47.3320 N   0  0  0  0  0  0  0  0  0  0  0  0
   55.9910   25.8070   46.3230 C   0  0  0  0  0  0  0  0  0  0  0  0
   54.9850   26.7040   45.9890 O   0  0  0  0  0  0  0  0  0  0  0  0
   57.4010   28.7450   43.6640 C   0  0  0  0  0  0  0  0  0  0  0  0
   57.0506   28.4241   42.6719 H   0  0  0  0  0  0  0  0  0  0  0  0
   57.5330   30.0440   44.1080 C   0  0  0  0  0  0  0  0  0  0  0  0
   57.1920   31.2580   43.2980 C   0  0  0  0  0  0  0  0  0  0  0  0
   56.9570   32.0946   43.9724 H   0  0  0  0  0  0  0  0  0  0  0  0
   58.0490   31.5281   42.6635 H   0  0  0  0  0  0  0  0  0  0  0  0
   56.3197   31.0423   42.6635 H   0  0  0  0  0  0  0  0  0  0  0  0
   58.0140   30.0630   45.3710 N   0  0  0  0  0  0  0  0  0  0  0  0
   58.3400   31.2500   46.1150 C   0  0  0  0  0  0  0  0  0  0  0  0
   59.6560   31.4120   47.1520 S   0  0  0  0  0  0  0  0  0  0  0  0
   59.3850   33.0400   47.4950 C   0  0  0  0  0  0  0  0  0  0  0  0
   60.2080   33.8640   48.3890 C   0  0  0  0  0  0  0  0  0  0  0  0
   59.7420   34.2530   49.4950 O   0  0  0  0  0  0  0  0  0  0  0  0
   61.5350   34.2240   48.0020 N   0  0  0  0  0  0  0  0  0  0  0  0
   62.2700   33.5020   46.9710 C   0  0  0  0  0  0  0  0  0  0  0  0
   61.5830   33.6946   46.1338 H   0  0  0  0  0  0  0  0  0  0  0  0
   63.7720   33.5570   47.1700 C   0  0  0  0  0  0  0  0  0  0  0  0
   64.4418   33.5894   46.2981 H   0  0  0  0  0  0  0  0  0  0  0  0
   64.4605   34.2130   47.7228 H   0  0  0  0  0  0  0  0  0  0  0  0
   63.0050   32.2830   47.4940 C   0  0  0  0  0  0  0  0  0  0  0  0
   63.1200   31.3941   46.8563 H   0  0  0  0  0  0  0  0  0  0  0  0
   62.9087   31.6357   48.3781 H   0  0  0  0  0  0  0  0  0  0  0  0
   58.2680   33.4730   46.7840 C   0  0  0  0  0  0  0  0  0  0  0  0
   57.8814   34.5017   46.8326 H   0  0  0  0  0  0  0  0  0  0  0  0
   57.6870   32.4690   46.0020 C   0  0  0  0  0  0  0  0  0  0  0  0
   56.8050   32.6292   45.3644 H   0  0  0  0  0  0  0  0  0  0  0  0
  1  2  1  0
  2  3  1  0
  2  4  2  0
  4  5  1  0
  5  6  2  0
  6  7  1  0
  6  8  1  0
  8  9  1  0
  9 10  1  0
 10 11  2  0
 10 12  1  0
 12 13  1  0
 13 14  1  0
  5 15  1  0
 15 16  1  0
 15 17  2  0
 17 18  1  0
 18 19  1  0
 18 20  1  0
 18 21  1  0
 17 22  1  0
 22 23  1  0
 23 24  1  0
 24 25  1  0
 25 26  1  0
 26 27  2  0
 26 28  1  0
 28 29  1  0
 29 30  1  0
 29 31  1  0
 31 32  1  0
 31 33  1  0
 31 34  1  0
 34 35  1  0
 34 36  1  0
 25 37  2  0
 37 38  1  0
 37 39  1  0
 39 40  1  0
 22  4  1  0
 39 23  2  0
 13  8  2  0
 34 29  1  0
M  CHG  4   9  -1  12  -1  14  -1  28  -1
M  END
>  <UniqueID>  (84) 
79

>  <SMILES>  (84) 
C=c1/c(=C\c2[n-]c(=O)[n-]c2[O-])cc(C)n1-c1ccc(C(=O)[N-]C2CC2)s1

>  <Energy>  (84) 
406.5538971833405

>  <Genealogy>  (84) 
C=c1c(=Cc2[n-]c(=O)[n-]c2[O-])cc(C)n1-c1ccc(C(=O)[N-]C2CC2)s1 (protonated)
C=c1/c(=C\c2[n-]c(=O)[n-]c2[O-])cc(C)n1-c1ccc(C(=O)[N-]C2CC2)s1 (cis-trans isomerization)
C=c1/c(=C\c2[n-]c(=O)[n-]c2[O-])cc(C)n1-c1ccc(C(=O)[N-]C2CC2)s1 (3D coordinates assigned)
C=c1/c(=C\c2[n-]c(=O)[n-]c2[O-])cc(C)n1-c1ccc(C(=O)[N-]C2CC2)s1 (nonaromatic ring conformer: 406.5538971833405 kcal/mol)

>  <smiles>  (84) 
C=c1c(=Cc2[nH]c(=O)[nH]c2O)cc(C)n1-c1ccc(C(=O)NC2CC2)s1

>  <score_type>  (84) 
oracle

>  <origin>  (84) 
adg

>  <m_score__min__energy>  (84) 
-16.210000000000001

>  <m_primary>  (84) 
energy

$$$$
85:0
     RDKit          3D

 47 49  0  0  0  0  0  0  0  0999 V2000
   55.1290   29.3230   44.8170 O   0  0  0  0  0  0  0  0  0  0  0  0
   56.1980   29.8520   44.4050 C   0  0  0  0  0  0  0  0  0  0  0  0
   57.1530   29.0700   43.5570 C   0  0  0  0  0  0  0  0  0  0  0  0
   58.0690   28.3430   44.3780 O   0  0  0  0  0  0  0  0  0  0  0  0
   58.7670   28.8840   45.4660 C   0  0  0  0  0  0  0  0  0  0  0  0
   58.2170   28.9270   46.7600 C   0  0  0  0  0  0  0  0  0  0  0  0
   58.9360   29.5050   47.8120 C   0  0  0  0  0  0  0  0  0  0  0  0
   60.2130   30.0370   47.5870 C   0  0  0  0  0  0  0  0  0  0  0  0
   61.1100   30.7760   48.9110 S   0  0  0  0  0  0  0  0  0  0  0  0
   61.6510   29.7030   49.8150 O   0  0  0  0  0  0  0  0  0  0  0  0
   60.1720   31.6410   49.7100 O   0  0  0  0  0  0  0  0  0  0  0  0
   62.4080   31.7550   48.2720 N   0  0  0  0  0  0  0  0  0  0  0  0
   63.1890   32.3470   49.3730 C   0  0  0  0  0  0  0  0  0  0  0  0
   64.1460   33.4360   48.8500 C   0  0  0  0  0  0  0  0  0  0  0  0
   64.2510   33.3860   47.4420 O   0  0  0  0  0  0  0  0  0  0  0  0
   62.9980   33.6990   46.8620 C   0  0  0  0  0  0  0  0  0  0  0  0
   61.8600   32.8110   47.4090 C   0  0  0  0  0  0  0  0  0  0  0  0
   60.7600   29.9960   46.2980 C   0  0  0  0  0  0  0  0  0  0  0  0
   60.0340   29.4340   45.2430 C   0  0  0  0  0  0  0  0  0  0  0  0
   56.5090   31.2090   44.7330 N   0  0  0  0  0  0  0  0  0  0  0  0
   57.6250   31.9470   44.1550 C   0  0  0  0  0  0  0  0  0  0  0  0
   58.1790   32.9330   45.1480 C   0  0  0  0  0  0  0  0  0  0  0  0
   58.0140   32.7360   46.5260 C   0  0  0  0  0  0  0  0  0  0  0  0
   58.5320   33.6640   47.4310 C   0  0  0  0  0  0  0  0  0  0  0  0
   59.2130   34.7830   46.9470 C   0  0  0  0  0  0  0  0  0  0  0  0
   59.3590   34.9650   45.6070 N   0  0  0  0  0  0  0  0  0  0  0  0
   58.8610   34.0760   44.7070 C   0  0  0  0  0  0  0  0  0  0  0  0
   56.5874   28.3634   42.9318 H   0  0  0  0  0  0  0  0  0  0  0  0
   57.7194   29.7674   42.9222 H   0  0  0  0  0  0  0  0  0  0  0  0
   57.2183   28.5048   46.9454 H   0  0  0  0  0  0  0  0  0  0  0  0
   58.4971   29.5420   48.8200 H   0  0  0  0  0  0  0  0  0  0  0  0
   62.4988   32.7953   50.1028 H   0  0  0  0  0  0  0  0  0  0  0  0
   63.7868   31.5529   49.8443 H   0  0  0  0  0  0  0  0  0  0  0  0
   63.7634   34.4236   49.1471 H   0  0  0  0  0  0  0  0  0  0  0  0
   65.1428   33.2623   49.2815 H   0  0  0  0  0  0  0  0  0  0  0  0
   62.7609   34.7510   47.0789 H   0  0  0  0  0  0  0  0  0  0  0  0
   63.0743   33.5188   45.7795 H   0  0  0  0  0  0  0  0  0  0  0  0
   61.1637   33.4315   47.9922 H   0  0  0  0  0  0  0  0  0  0  0  0
   61.3318   32.3449   46.5642 H   0  0  0  0  0  0  0  0  0  0  0  0
   61.7637   30.4071   46.1150 H   0  0  0  0  0  0  0  0  0  0  0  0
   60.4625   29.4243   44.2299 H   0  0  0  0  0  0  0  0  0  0  0  0
   58.4167   31.2392   43.8682 H   0  0  0  0  0  0  0  0  0  0  0  0
   57.2674   32.4963   43.2716 H   0  0  0  0  0  0  0  0  0  0  0  0
   57.4762   31.8499   46.8943 H   0  0  0  0  0  0  0  0  0  0  0  0
   58.4052   33.5155   48.5135 H   0  0  0  0  0  0  0  0  0  0  0  0
   59.6318   35.5180   47.6502 H   0  0  0  0  0  0  0  0  0  0  0  0
   58.9935   34.2539   43.6296 H   0  0  0  0  0  0  0  0  0  0  0  0
  1  2  2  0
  2  3  1  0
  3  4  1  0
  4  5  1  0
  5  6  2  0
  6  7  1  0
  7  8  2  0
  8  9  1  0
  9 10  2  0
  9 11  2  0
  9 12  1  0
 12 13  1  0
 13 14  1  0
 14 15  1  0
 15 16  1  0
 16 17  1  0
  8 18  1  0
 18 19  2  0
  2 20  1  0
 20 21  1  0
 21 22  1  0
 22 23  2  0
 23 24  1  0
 24 25  2  0
 25 26  1  0
 26 27  2  0
 19  5  1  0
 27 22  1  0
 17 12  1  0
  3 28  1  0
  3 29  1  0
  6 30  1  0
  7 31  1  0
 13 32  1  0
 13 33  1  0
 14 34  1  0
 14 35  1  0
 16 36  1  0
 16 37  1  0
 17 38  1  0
 17 39  1  0
 18 40  1  0
 19 41  1  0
 21 42  1  0
 21 43  1  0
 23 44  1  0
 24 45  1  0
 25 46  1  0
 27 47  1  0
M  CHG  1  20  -1
M  END
>  <UniqueID>  (85) 
80

>  <SMILES>  (85) 
O=C(COc1ccc(S(=O)(=O)N2CCOCC2)cc1)[N-]Cc1cccnc1

>  <Energy>  (85) 
58.93989752924055

>  <Genealogy>  (85) 
O=C(COc1ccc(S(=O)(=O)N2CCOCC2)cc1)[N-]Cc1cccnc1 (protonated)
O=C(COc1ccc(S(=O)(=O)N2CCOCC2)cc1)[N-]Cc1cccnc1 (3D coordinates assigned)
O=C(COc1ccc(S(=O)(=O)N2CCOCC2)cc1)[N-]Cc1cccnc1 (nonaromatic ring conformer: 58.93989752924055 kcal/mol)

>  <smiles>  (85) 
O=C(COc1ccc(S(=O)(=O)N2CCOCC2)cc1)NCc1cccnc1

>  <score_type>  (85) 
oracle

>  <origin>  (85) 
adg

>  <m_score__min__energy>  (85) 
-9.9100000000000001

>  <m_primary>  (85) 
energy

$$$$
86:0
     RDKit          3D

 42 44  0  0  0  0  0  0  0  0999 V2000
   54.5730   29.3840   44.8130 H   0  0  0  0  0  0  0  0  0  0  0  0
   55.5090   28.9760   45.0350 N   0  0  0  0  0  0  0  0  0  0  0  0
   56.6600   29.7670   44.0150 S   0  0  0  0  0  0  0  0  0  0  0  0
   55.9100   30.4750   42.9220 O   0  0  0  0  0  0  0  0  0  0  0  0
   57.5770   28.7490   43.3990 O   0  0  0  0  0  0  0  0  0  0  0  0
   57.6060   30.9390   44.9490 C   0  0  0  0  0  0  0  0  0  0  0  0
   57.6150   32.2790   44.5280 C   0  0  0  0  0  0  0  0  0  0  0  0
   57.0915   32.5626   43.6031 H   0  0  0  0  0  0  0  0  0  0  0  0
   58.2820   33.2550   45.2720 C   0  0  0  0  0  0  0  0  0  0  0  0
   58.2857   34.3000   44.9286 H   0  0  0  0  0  0  0  0  0  0  0  0
   58.9430   32.9070   46.4490 C   0  0  0  0  0  0  0  0  0  0  0  0
   59.4560   33.6795   47.0406 H   0  0  0  0  0  0  0  0  0  0  0  0
   58.9540   31.5780   46.8770 C   0  0  0  0  0  0  0  0  0  0  0  0
   59.4706   31.3102   47.8105 H   0  0  0  0  0  0  0  0  0  0  0  0
   58.3120   30.5810   46.1270 C   0  0  0  0  0  0  0  0  0  0  0  0
   58.3900   29.1960   46.6240 C   0  0  0  0  0  0  0  0  0  0  0  0
   57.4619   28.6683   46.8889 H   0  0  0  0  0  0  0  0  0  0  0  0
   59.5600   28.5650   46.7610 C   0  0  0  0  0  0  0  0  0  0  0  0
   60.3351   29.0190   47.3959 H   0  0  0  0  0  0  0  0  0  0  0  0
   59.8510   27.2830   46.0930 C   0  0  0  0  0  0  0  0  0  0  0  0
   61.0130   27.0940   45.6440 O   0  0  0  0  0  0  0  0  0  0  0  0
   58.8610   26.2430   45.9610 N   0  0  0  0  0  0  0  0  0  0  0  0
   59.2060   24.8520   46.3090 C   0  0  0  0  0  0  0  0  0  0  0  0
   58.9011   24.6553   47.3474 H   0  0  0  0  0  0  0  0  0  0  0  0
   60.2922   24.7222   46.1938 H   0  0  0  0  0  0  0  0  0  0  0  0
   58.5090   23.8770   45.3990 C   0  0  0  0  0  0  0  0  0  0  0  0
   59.1130   22.6630   45.0390 C   0  0  0  0  0  0  0  0  0  0  0  0
   60.1280   22.4290   45.3926 H   0  0  0  0  0  0  0  0  0  0  0  0
   58.4280   21.7500   44.2320 C   0  0  0  0  0  0  0  0  0  0  0  0
   58.9117   20.8061   43.9403 H   0  0  0  0  0  0  0  0  0  0  0  0
   57.1300   22.0320   43.7940 C   0  0  0  0  0  0  0  0  0  0  0  0
   56.4580   21.1090   42.9970 O   0  0  0  0  0  0  0  0  0  0  0  0
   56.7550   20.1410   42.9420 H   0  0  0  0  0  0  0  0  0  0  0  0
   56.5150   23.2360   44.1660 C   0  0  0  0  0  0  0  0  0  0  0  0
   55.4897   23.4546   43.8330 H   0  0  0  0  0  0  0  0  0  0  0  0
   57.2050   24.1620   44.9620 C   0  0  0  0  0  0  0  0  0  0  0  0
   56.5570   25.4390   45.4130 C   0  0  0  0  0  0  0  0  0  0  0  0
   56.1988   25.3187   46.4461 H   0  0  0  0  0  0  0  0  0  0  0  0
   55.7133   25.6667   44.7449 H   0  0  0  0  0  0  0  0  0  0  0  0
   57.5620   26.5960   45.3580 C   0  0  0  0  0  0  0  0  0  0  0  0
   57.1419   27.4547   45.9021 H   0  0  0  0  0  0  0  0  0  0  0  0
   57.7385   26.8362   44.2992 H   0  0  0  0  0  0  0  0  0  0  0  0
  1  2  1  0
  2  3  1  0
  3  4  2  0
  3  5  2  0
  3  6  1  0
  6  7  2  0
  7  8  1  0
  7  9  1  0
  9 10  1  0
  9 11  2  0
 11 12  1  0
 11 13  1  0
 13 14  1  0
 13 15  2  0
 15 16  1  0
 16 17  1  0
 16 18  2  0
 18 19  1  0
 18 20  1  0
 20 21  2  0
 20 22  1  0
 22 23  1  0
 23 24  1  0
 23 25  1  0
 23 26  1  0
 26 27  2  0
 27 28  1  0
 27 29  1  0
 29 30  1  0
 29 31  2  0
 31 32  1  0
 32 33  1  0
 31 34  1  0
 34 35  1  0
 34 36  2  0
 36 37  1  0
 37 38  1  0
 37 39  1  0
 37 40  1  0
 40 41  1  0
 40 42  1  0
 15  6  1  0
 40 22  1  0
 36 26  1  0
M  CHG  1   2  -1
M  END
>  <UniqueID>  (86) 
81

>  <SMILES>  (86) 
[NH-]S(=O)(=O)c1ccccc1/C=C/C(=O)N1CCc2cc(O)ccc2C1

>  <Energy>  (86) 
56.771734118984845

>  <Genealogy>  (86) 
[NH-]S(=O)(=O)c1ccccc1C=CC(=O)N1CCc2cc(O)ccc2C1 (protonated)
[NH-]S(=O)(=O)c1ccccc1/C=C/C(=O)N1CCc2cc(O)ccc2C1 (cis-trans isomerization)
[NH-]S(=O)(=O)c1ccccc1/C=C/C(=O)N1CCc2cc(O)ccc2C1 (3D coordinates assigned)
[NH-]S(=O)(=O)c1ccccc1/C=C/C(=O)N1CCc2cc(O)ccc2C1 (nonaromatic ring conformer: 56.771734118984845 kcal/mol)

>  <smiles>  (86) 
NS(=O)(=O)c1ccccc1C=CC(=O)N1CCc2cc(O)ccc2C1

>  <score_type>  (86) 
oracle

>  <origin>  (86) 
adg

>  <m_score__min__energy>  (86) 
-11.44

>  <m_primary>  (86) 
energy

$$$$
87:0
     RDKit          3D

 50 53  0  0  0  0  0  0  0  0999 V2000
   57.8562   29.4699   43.8456 H   0  0  0  0  0  0  0  0  0  0  0  0
   57.6710   28.3890   43.9310 C   0  0  0  0  0  0  0  0  0  0  0  0
   57.2037   27.8436   43.0979 H   0  0  0  0  0  0  0  0  0  0  0  0
   58.0150   27.7360   45.0510 C   0  0  0  0  0  0  0  0  0  0  0  0
   57.8420   26.3700   45.3020 C   0  0  0  0  0  0  0  0  0  0  0  0
   57.2450   25.4610   44.5070 C   0  0  0  0  0  0  0  0  0  0  0  0
   57.7069   25.2363   43.5343 H   0  0  0  0  0  0  0  0  0  0  0  0
   56.0010   24.7490   44.8730 C   0  0  0  0  0  0  0  0  0  0  0  0
   54.9770   25.3790   45.6020 C   0  0  0  0  0  0  0  0  0  0  0  0
   55.1010   26.7050   46.0020 O   0  0  0  0  0  0  0  0  0  0  0  0
   53.8600   24.6850   45.9390 N   0  0  0  0  0  0  0  0  0  0  0  0
   53.7170   23.3780   45.6010 C   0  0  0  0  0  0  0  0  0  0  0  0
   52.6700   22.7570   45.9200 O   0  0  0  0  0  0  0  0  0  0  0  0
   54.7040   22.7400   44.9220 N   0  0  0  0  0  0  0  0  0  0  0  0
   55.8400   23.3900   44.5590 C   0  0  0  0  0  0  0  0  0  0  0  0
   56.7370   22.7640   43.9340 O   0  0  0  0  0  0  0  0  0  0  0  0
   58.3780   26.1330   46.5600 C   0  0  0  0  0  0  0  0  0  0  0  0
   58.4202   25.1671   47.0847 H   0  0  0  0  0  0  0  0  0  0  0  0
   58.8480   27.3450   47.0250 C   0  0  0  0  0  0  0  0  0  0  0  0
   59.5110   27.5470   48.3540 C   0  0  0  0  0  0  0  0  0  0  0  0
   58.7936   27.3284   49.1587 H   0  0  0  0  0  0  0  0  0  0  0  0
   60.3748   26.8713   48.4393 H   0  0  0  0  0  0  0  0  0  0  0  0
   59.8512   28.5896   48.4393 H   0  0  0  0  0  0  0  0  0  0  0  0
   58.6360   28.3170   46.1100 N   0  0  0  0  0  0  0  0  0  0  0  0
   58.9870   29.7030   46.2620 C   0  0  0  0  0  0  0  0  0  0  0  0
   60.2900   30.0660   46.6290 C   0  0  0  0  0  0  0  0  0  0  0  0
   61.0420   29.2867   46.8219 H   0  0  0  0  0  0  0  0  0  0  0  0
   60.6380   31.4150   46.7510 C   0  0  0  0  0  0  0  0  0  0  0  0
   61.6598   31.6906   47.0511 H   0  0  0  0  0  0  0  0  0  0  0  0
   59.6920   32.4200   46.4930 C   0  0  0  0  0  0  0  0  0  0  0  0
   60.0720   33.8470   46.6110 C   0  0  0  0  0  0  0  0  0  0  0  0
   59.2200   34.7360   46.3470 O   0  0  0  0  0  0  0  0  0  0  0  0
   61.3990   34.2530   46.9700 N   0  0  0  0  0  0  0  0  0  0  0  0
   62.1160   33.8610   48.1520 C   0  0  0  0  0  0  0  0  0  0  0  0
   61.6290   34.1820   49.4330 C   0  0  0  0  0  0  0  0  0  0  0  0
   60.6826   34.7332   49.5356 H   0  0  0  0  0  0  0  0  0  0  0  0
   62.3400   33.8050   50.5750 C   0  0  0  0  0  0  0  0  0  0  0  0
   61.9457   34.0476   51.5728 H   0  0  0  0  0  0  0  0  0  0  0  0
   63.5500   33.1210   50.4510 C   0  0  0  0  0  0  0  0  0  0  0  0
   64.1055   32.8196   51.3513 H   0  0  0  0  0  0  0  0  0  0  0  0
   64.0560   32.8190   49.1860 C   0  0  0  0  0  0  0  0  0  0  0  0
   65.0146   32.2874   49.0936 H   0  0  0  0  0  0  0  0  0  0  0  0
   63.3500   33.1890   48.0310 C   0  0  0  0  0  0  0  0  0  0  0  0
   63.8890   32.8660   46.7430 N   0  0  0  0  0  0  0  0  0  0  0  0
   63.3940   33.1580   45.8710 H   0  0  0  0  0  0  0  0  0  0  0  0
   64.7850   32.3380   46.6400 H   0  0  0  0  0  0  0  0  0  0  0  0
   58.3810   32.0510   46.1440 C   0  0  0  0  0  0  0  0  0  0  0  0
   57.6236   32.8284   45.9650 H   0  0  0  0  0  0  0  0  0  0  0  0
   58.0340   30.7020   46.0230 C   0  0  0  0  0  0  0  0  0  0  0  0
   57.0084   30.4237   45.7389 H   0  0  0  0  0  0  0  0  0  0  0  0
  1  2  1  0
  2  3  1  0
  2  4  2  0
  4  5  1  0
  5  6  2  0
  6  7  1  0
  6  8  1  0
  8  9  2  0
  9 10  1  0
  9 11  1  0
 11 12  1  0
 12 13  2  0
 12 14  1  0
 14 15  1  0
 15 16  2  0
  5 17  1  0
 17 18  1  0
 17 19  2  0
 19 20  1  0
 20 21  1  0
 20 22  1  0
 20 23  1  0
 19 24  1  0
 24 25  1  0
 25 26  2  0
 26 27  1  0
 26 28  1  0
 28 29  1  0
 28 30  2  0
 30 31  1  0
 31 32  2  0
 31 33  1  0
 33 34  1  0
 34 35  2  0
 35 36  1  0
 35 37  1  0
 37 38  1  0
 37 39  2  0
 39 40  1  0
 39 41  1  0
 41 42  1  0
 41 43  2  0
 43 44  1  0
 44 45  1  0
 44 46  1  0
 30 47  1  0
 47 48  1  0
 47 49  2  0
 49 50  1  0
 24  4  1  0
 49 25  1  0
 15  8  1  0
 43 34  1  0
M  CHG  4  10  -1  11  -1  14  -1  33  -1
M  END
>  <UniqueID>  (87) 
82

>  <SMILES>  (87) 
C=c1/c(=C/c2c([O-])[n-]c(=O)[n-]c2=O)cc(C)n1-c1ccc(C(=O)[N-]c2ccccc2N)cc1

>  <Energy>  (87) 
106.43426709608319

>  <Genealogy>  (87) 
C=c1c(=Cc2c([O-])[n-]c(=O)[n-]c2=O)cc(C)n1-c1ccc(C(=O)[N-]c2ccccc2N)cc1 (protonated)
C=c1/c(=C/c2c([O-])[n-]c(=O)[n-]c2=O)cc(C)n1-c1ccc(C(=O)[N-]c2ccccc2N)cc1 (cis-trans isomerization)
C=c1/c(=C/c2c([O-])[n-]c(=O)[n-]c2=O)cc(C)n1-c1ccc(C(=O)[N-]c2ccccc2N)cc1 (3D coordinates assigned)
C=c1/c(=C/c2c([O-])[n-]c(=O)[n-]c2=O)cc(C)n1-c1ccc(C(=O)[N-]c2ccccc2N)cc1 (optimized conformer: 106.43426709608319 kcal/mol)

>  <smiles>  (87) 
C=c1c(=Cc2c(O)[nH]c(=O)[nH]c2=O)cc(C)n1-c1ccc(C(=O)Nc2ccccc2N)cc1

>  <score_type>  (87) 
oracle

>  <origin>  (87) 
adg

>  <m_score__min__energy>  (87) 
-17.100000000000001

>  <m_primary>  (87) 
energy

$$$$
88:0
     RDKit          3D

 68 70  0  0  0  0  0  0  0  0999 V2000
   55.1660   27.4570   46.0180 H   0  0  0  0  0  0  0  0  0  0  0  0
   55.3500   26.4310   45.9830 N   0  0  0  0  0  0  0  0  0  0  0  0
   57.0620   26.2180   46.0750 S   0  0  0  0  0  0  0  0  0  0  0  0
   57.3720   24.7600   46.2610 O   0  0  0  0  0  0  0  0  0  0  0  0
   57.6010   26.9960   47.2440 O   0  0  0  0  0  0  0  0  0  0  0  0
   57.8030   26.8080   44.5590 C   0  0  0  0  0  0  0  0  0  0  0  0
   57.0657   27.4183   44.0169 H   0  0  0  0  0  0  0  0  0  0  0  0
   58.1072   25.9332   43.9655 H   0  0  0  0  0  0  0  0  0  0  0  0
   59.0500   27.6580   44.8250 C   0  0  0  0  0  0  0  0  0  0  0  0
   59.7570   27.5245   43.9929 H   0  0  0  0  0  0  0  0  0  0  0  0
   59.4944   27.3280   45.7756 H   0  0  0  0  0  0  0  0  0  0  0  0
   58.7160   29.0940   44.9450 N   0  0  0  0  0  0  0  0  0  0  0  0
   57.2800   29.3630   45.1820 C   0  0  0  0  0  0  0  0  0  0  0  0
   56.7049   28.4688   44.8996 H   0  0  0  0  0  0  0  0  0  0  0  0
   57.1633   29.6075   46.2481 H   0  0  0  0  0  0  0  0  0  0  0  0
   56.7590   30.5410   44.3890 C   0  0  0  0  0  0  0  0  0  0  0  0
   55.6912   30.5407   44.1249 H   0  0  0  0  0  0  0  0  0  0  0  0
   57.4950   31.5860   43.9820 C   0  0  0  0  0  0  0  0  0  0  0  0
   57.7748   31.6271   42.9190 H   0  0  0  0  0  0  0  0  0  0  0  0
   57.9580   32.6850   44.8520 C   0  0  0  0  0  0  0  0  0  0  0  0
   58.8300   33.6780   44.3720 C   0  0  0  0  0  0  0  0  0  0  0  0
   59.1703   33.6481   43.3264 H   0  0  0  0  0  0  0  0  0  0  0  0
   59.2670   34.7030   45.2160 C   0  0  0  0  0  0  0  0  0  0  0  0
   59.9192   35.4978   44.8249 H   0  0  0  0  0  0  0  0  0  0  0  0
   58.8740   34.7170   46.5590 C   0  0  0  0  0  0  0  0  0  0  0  0
   59.2162   35.5235   47.2241 H   0  0  0  0  0  0  0  0  0  0  0  0
   58.0460   33.7050   47.0550 C   0  0  0  0  0  0  0  0  0  0  0  0
   57.7491   33.7089   48.1142 H   0  0  0  0  0  0  0  0  0  0  0  0
   57.5940   32.6870   46.2070 C   0  0  0  0  0  0  0  0  0  0  0  0
   56.9520   31.8868   46.6039 H   0  0  0  0  0  0  0  0  0  0  0  0
   59.6420   29.9290   45.7530 C   0  0  0  0  0  0  0  0  0  0  0  0
   59.1980   30.9302   45.8556 H   0  0  0  0  0  0  0  0  0  0  0  0
   60.6025   29.9316   45.2169 H   0  0  0  0  0  0  0  0  0  0  0  0
   59.9370   29.3890   47.1660 C   0  0  0  0  0  0  0  0  0  0  0  0
   60.1017   28.3026   47.1144 H   0  0  0  0  0  0  0  0  0  0  0  0
   59.0809   29.6042   47.8223 H   0  0  0  0  0  0  0  0  0  0  0  0
   61.1330   30.0360   47.7060 N   0  0  0  0  0  0  0  0  0  0  0  0
   61.3210   31.3140   47.8820 C   0  0  0  0  0  0  0  0  0  0  0  0
   62.2650   32.0400   47.1260 C   0  0  0  0  0  0  0  0  0  0  0  0
   62.9030   31.5222   46.3946 H   0  0  0  0  0  0  0  0  0  0  0  0
   62.3860   33.4180   47.3100 C   0  0  0  0  0  0  0  0  0  0  0  0
   63.1244   33.9859   46.7250 H   0  0  0  0  0  0  0  0  0  0  0  0
   61.5970   34.0600   48.2070 N   0  0  0  0  0  0  0  0  0  0  0  0
   60.6890   33.3910   48.9630 C   0  0  0  0  0  0  0  0  0  0  0  0
   60.0600   33.9434   49.6767 H   0  0  0  0  0  0  0  0  0  0  0  0
   60.5470   32.0020   48.8410 C   0  0  0  0  0  0  0  0  0  0  0  0
   59.4150   31.1610   49.9160 S   0  0  0  0  0  0  0  0  0  0  0  0
   58.3730   30.4630   49.0860 O   0  0  0  0  0  0  0  0  0  0  0  0
   60.1360   30.1530   50.7680 O   0  0  0  0  0  0  0  0  0  0  0  0
   58.6420   32.3050   50.9600 N   0  0  0  0  0  0  0  0  0  0  0  0
   57.4380   31.9980   51.6690 C   0  0  0  0  0  0  0  0  0  0  0  0
   56.8580   32.8920   52.3430 O   0  0  0  0  0  0  0  0  0  0  0  0
   56.8800   30.6840   51.5710 N   0  0  0  0  0  0  0  0  0  0  0  0
   57.3330   30.0100   50.9150 H   0  0  0  0  0  0  0  0  0  0  0  0
   55.6040   30.3420   52.1400 C   0  0  0  0  0  0  0  0  0  0  0  0
   54.4220   30.8190   51.5480 C   0  0  0  0  0  0  0  0  0  0  0  0
   54.4760   31.4466   50.6462 H   0  0  0  0  0  0  0  0  0  0  0  0
   53.1800   30.5000   52.0990 C   0  0  0  0  0  0  0  0  0  0  0  0
   52.2592   30.8743   51.6278 H   0  0  0  0  0  0  0  0  0  0  0  0
   53.1020   29.7090   53.2440 C   0  0  0  0  0  0  0  0  0  0  0  0
   52.1204   29.4510   53.6680 H   0  0  0  0  0  0  0  0  0  0  0  0
   54.2690   29.2440   53.8530 C   0  0  0  0  0  0  0  0  0  0  0  0
   54.2036   28.6351   54.7667 H   0  0  0  0  0  0  0  0  0  0  0  0
   55.5260   29.5490   53.3060 C   0  0  0  0  0  0  0  0  0  0  0  0
   56.7710   29.0280   53.9730 C   0  0  0  0  0  0  0  0  0  0  0  0
   56.6504   29.0785   55.0652 H   0  0  0  0  0  0  0  0  0  0  0  0
   56.9395   27.9839   53.6706 H   0  0  0  0  0  0  0  0  0  0  0  0
   57.6329   29.6409   53.6706 H   0  0  0  0  0  0  0  0  0  0  0  0
  1  2  1  0
  2  3  1  0
  3  4  2  0
  3  5  2  0
  3  6  1  0
  6  7  1  0
  6  8  1  0
  6  9  1  0
  9 10  1  0
  9 11  1  0
  9 12  1  0
 12 13  1  0
 13 14  1  0
 13 15  1  0
 13 16  1  0
 16 17  1  0
 16 18  2  3
 18 19  1  0
 18 20  1  0
 20 21  2  0
 21 22  1  0
 21 23  1  0
 23 24  1  0
 23 25  2  0
 25 26  1  0
 25 27  1  0
 27 28  1  0
 27 29  2  0
 29 30  1  0
 12 31  1  0
 31 32  1  0
 31 33  1  0
 31 34  1  0
 34 35  1  0
 34 36  1  0
 34 37  1  0
 37 38  2  0
 38 39  1  0
 39 40  1  0
 39 41  2  0
 41 42  1  0
 41 43  1  0
 43 44  1  0
 44 45  1  0
 44 46  2  0
 46 47  1  0
 47 48  2  0
 47 49  2  0
 47 50  1  0
 50 51  1  0
 51 52  2  0
 51 53  1  0
 53 54  1  0
 53 55  1  0
 55 56  2  0
 56 57  1  0
 56 58  1  0
 58 59  1  0
 58 60  2  0
 60 61  1  0
 60 62  1  0
 62 63  1  0
 62 64  2  0
 64 65  1  0
 65 66  1  0
 65 67  1  0
 65 68  1  0
 29 20  1  0
 46 38  1  0
 64 55  1  0
M  CHG  3   2  -1  43  -1  50  -1
M  END
>  <UniqueID>  (88) 
83

>  <SMILES>  (88) 
Cc1ccccc1NC(=O)[N-]S(=O)(=O)c1c[n-]cc/c1=N\CCN(CC=Cc1ccccc1)CCS([NH-])(=O)=O

>  <Energy>  (88) 
88.02015105833722

>  <Genealogy>  (88) 
Cc1ccccc1NC(=O)[N-]S(=O)(=O)c1c[n-]ccc1=NCCN(CC=Cc1ccccc1)CCS([NH-])(=O)=O (protonated)
Cc1ccccc1NC(=O)[N-]S(=O)(=O)c1c[n-]cc/c1=N\CCN(CC=Cc1ccccc1)CCS([NH-])(=O)=O (cis-trans isomerization)
Cc1ccccc1NC(=O)[N-]S(=O)(=O)c1c[n-]cc/c1=N\CCN(CC=Cc1ccccc1)CCS([NH-])(=O)=O (3D coordinates assigned)
Cc1ccccc1NC(=O)[N-]S(=O)(=O)c1c[n-]cc/c1=N\CCN(CC=Cc1ccccc1)CCS([NH-])(=O)=O (optimized conformer: 88.02015105833722 kcal/mol)

>  <smiles>  (88) 
Cc1ccccc1NC(=O)NS(=O)(=O)c1c[nH]ccc1=NCCN(CC=Cc1ccccc1)CCS(N)(=O)=O

>  <score_type>  (88) 
oracle

>  <origin>  (88) 
adg

>  <m_score__min__energy>  (88) 
-13.619999999999999

>  <m_primary>  (88) 
energy

$$$$
89:0
     RDKit          3D

 49 52  0  0  0  0  0  0  0  0999 V2000
   56.5390   28.5740   53.2830 C   0  0  0  0  0  0  0  0  0  0  0  0
   57.0460   29.9330   52.9210 C   0  0  0  0  0  0  0  0  0  0  0  0
   57.5920   30.7700   53.9020 C   0  0  0  0  0  0  0  0  0  0  0  0
   58.0770   32.0290   53.5380 C   0  0  0  0  0  0  0  0  0  0  0  0
   58.0220   32.4420   52.1990 C   0  0  0  0  0  0  0  0  0  0  0  0
   58.5260   33.8040   51.7920 C   0  0  0  0  0  0  0  0  0  0  0  0
   59.7910   33.6970   50.9800 C   0  0  0  0  0  0  0  0  0  0  0  0
   61.0400   33.7130   51.6120 C   0  0  0  0  0  0  0  0  0  0  0  0
   62.1810   33.5910   50.8870 N   0  0  0  0  0  0  0  0  0  0  0  0
   62.1580   33.4430   49.5280 C   0  0  0  0  0  0  0  0  0  0  0  0
   63.3530   33.3290   48.7930 C   0  0  0  0  0  0  0  0  0  0  0  0
   64.4710   33.3520   49.3730 O   0  0  0  0  0  0  0  0  0  0  0  0
   63.3100   33.1950   47.4450 N   0  0  0  0  0  0  0  0  0  0  0  0
   62.1410   33.1610   46.7580 C   0  0  0  0  0  0  0  0  0  0  0  0
   60.9140   33.2570   47.4290 C   0  0  0  0  0  0  0  0  0  0  0  0
   59.6670   33.1760   46.6270 C   0  0  0  0  0  0  0  0  0  0  0  0
   59.2310   34.2940   45.8960 C   0  0  0  0  0  0  0  0  0  0  0  0
   58.0910   34.2100   45.0940 C   0  0  0  0  0  0  0  0  0  0  0  0
   57.3790   33.0120   45.0110 C   0  0  0  0  0  0  0  0  0  0  0  0
   57.7940   31.8870   45.7340 C   0  0  0  0  0  0  0  0  0  0  0  0
   57.0240   30.6830   45.6220 N   0  0  0  0  0  0  0  0  0  0  0  0
   56.5420   29.9260   44.1370 S   0  0  0  0  0  0  0  0  0  0  0  0
   57.6190   28.5540   43.7860 C   0  0  0  0  0  0  0  0  0  0  0  0
   55.1390   29.4110   44.2910 O   0  0  0  0  0  0  0  0  0  0  0  0
   56.5730   30.9230   43.0130 O   0  0  0  0  0  0  0  0  0  0  0  0
   58.9500   31.9700   46.5320 C   0  0  0  0  0  0  0  0  0  0  0  0
   60.9210   33.4130   48.8390 C   0  0  0  0  0  0  0  0  0  0  0  0
   59.7390   33.5680   49.5870 C   0  0  0  0  0  0  0  0  0  0  0  0
   57.4740   31.5680   51.2470 C   0  0  0  0  0  0  0  0  0  0  0  0
   57.0080   30.3470   51.6260 N   0  0  0  0  0  0  0  0  0  0  0  0
   56.5024   28.4760   54.3780 H   0  0  0  0  0  0  0  0  0  0  0  0
   55.5293   28.4370   52.8687 H   0  0  0  0  0  0  0  0  0  0  0  0
   57.2123   27.8091   52.8687 H   0  0  0  0  0  0  0  0  0  0  0  0
   57.6387   30.4393   54.9501 H   0  0  0  0  0  0  0  0  0  0  0  0
   58.5021   32.6964   54.3021 H   0  0  0  0  0  0  0  0  0  0  0  0
   57.7547   34.3068   51.1900 H   0  0  0  0  0  0  0  0  0  0  0  0
   58.7446   34.3809   52.7027 H   0  0  0  0  0  0  0  0  0  0  0  0
   61.0972   33.8253   52.7048 H   0  0  0  0  0  0  0  0  0  0  0  0
   63.0900   33.6130   51.4040 H   0  0  0  0  0  0  0  0  0  0  0  0
   62.1559   33.0570   45.6630 H   0  0  0  0  0  0  0  0  0  0  0  0
   59.7901   35.2394   45.9558 H   0  0  0  0  0  0  0  0  0  0  0  0
   57.7532   35.0896   44.5264 H   0  0  0  0  0  0  0  0  0  0  0  0
   56.4852   32.9514   44.3727 H   0  0  0  0  0  0  0  0  0  0  0  0
   57.9673   28.1103   44.7304 H   0  0  0  0  0  0  0  0  0  0  0  0
   57.0713   27.7971   43.2053 H   0  0  0  0  0  0  0  0  0  0  0  0
   58.4843   28.9063   43.2053 H   0  0  0  0  0  0  0  0  0  0  0  0
   59.2955   31.0846   47.0858 H   0  0  0  0  0  0  0  0  0  0  0  0
   58.7667   33.5879   49.0731 H   0  0  0  0  0  0  0  0  0  0  0  0
   57.4211   31.8712   50.1909 H   0  0  0  0  0  0  0  0  0  0  0  0
  1  2  1  0
  2  3  2  0
  3  4  1  0
  4  5  2  0
  5  6  1  0
  6  7  1  0
  7  8  2  0
  8  9  1  0
  9 10  2  0
 10 11  1  0
 11 12  2  0
 11 13  1  0
 13 14  1  0
 14 15  2  0
 15 16  1  0
 16 17  2  0
 17 18  1  0
 18 19  2  0
 19 20  1  0
 20 21  1  0
 21 22  1  0
 22 23  1  0
 22 24  2  0
 22 25  2  0
 20 26  2  0
 15 27  1  0
 27 28  2  0
  5 29  1  0
 29 30  2  0
 30  2  1  0
 28  7  1  0
 27 10  1  0
 26 16  1  0
  1 31  1  0
  1 32  1  0
  1 33  1  0
  3 34  1  0
  4 35  1  0
  6 36  1  0
  6 37  1  0
  8 38  1  0
  9 39  1  0
 14 40  1  0
 17 41  1  0
 18 42  1  0
 19 43  1  0
 23 44  1  0
 23 45  1  0
 23 46  1  0
 26 47  1  0
 28 48  1  0
 29 49  1  0
M  CHG  3   9   1  13  -1  21  -1
M  END
>  <UniqueID>  (89) 
84

>  <SMILES>  (89) 
Cc1ccc(Cc2c[nH+]c3c(=O)[n-]cc(-c4cccc([N-]S(C)(=O)=O)c4)c3c2)cn1

>  <Energy>  (89) 
63.23452699968972

>  <Genealogy>  (89) 
Cc1ccc(Cc2c[nH+]c3c(=O)[n-]cc(-c4cccc([N-]S(C)(=O)=O)c4)c3c2)cn1 (protonated)
Cc1ccc(Cc2c[nH+]c3c(=O)[n-]cc(-c4cccc([N-]S(C)(=O)=O)c4)c3c2)cn1 (3D coordinates assigned)
Cc1ccc(Cc2c[nH+]c3c(=O)[n-]cc(-c4cccc([N-]S(C)(=O)=O)c4)c3c2)cn1 (optimized conformer: 63.23452699968972 kcal/mol)

>  <smiles>  (89) 
Cc1ccc(Cc2cnc3c(=O)[nH]cc(-c4cccc(NS(C)(=O)=O)c4)c3c2)cn1

>  <score_type>  (89) 
oracle

>  <origin>  (89) 
adg

>  <m_score__min__energy>  (89) 
-11.24

>  <m_primary>  (89) 
energy

$$$$
90:0
     RDKit          3D

 48 51  0  0  0  0  0  0  0  0999 V2000
   59.4830   28.8910   47.4240 C   0  0  0  0  0  0  0  0  0  0  0  0
   58.6830   29.1020   46.3670 C   0  0  0  0  0  0  0  0  0  0  0  0
   58.0300   28.1290   45.5920 C   0  0  0  0  0  0  0  0  0  0  0  0
   58.1870   26.7920   45.5380 C   0  0  0  0  0  0  0  0  0  0  0  0
   57.3890   25.8060   46.2870 C   0  0  0  0  0  0  0  0  0  0  0  0
   57.8970   24.7100   46.8810 N   0  0  0  0  0  0  0  0  0  0  0  0
   56.8010   24.0510   47.3110 C   0  0  0  0  0  0  0  0  0  0  0  0
   56.8670   22.9630   47.9400 O   0  0  0  0  0  0  0  0  0  0  0  0
   55.6270   24.6440   47.0050 N   0  0  0  0  0  0  0  0  0  0  0  0
   56.0150   25.7480   46.3450 C   0  0  0  0  0  0  0  0  0  0  0  0
   55.1240   26.6750   45.8110 O   0  0  0  0  0  0  0  0  0  0  0  0
   57.1200   28.8100   44.8010 C   0  0  0  0  0  0  0  0  0  0  0  0
   57.2960   30.1540   45.0550 C   0  0  0  0  0  0  0  0  0  0  0  0
   56.5170   31.2520   44.3950 C   0  0  0  0  0  0  0  0  0  0  0  0
   58.2420   30.3330   46.0030 N   0  0  0  0  0  0  0  0  0  0  0  0
   58.6570   31.6000   46.5480 C   0  0  0  0  0  0  0  0  0  0  0  0
   58.9620   32.6670   45.6920 C   0  0  0  0  0  0  0  0  0  0  0  0
   59.3490   33.9010   46.2190 C   0  0  0  0  0  0  0  0  0  0  0  0
   59.4400   34.0760   47.6030 C   0  0  0  0  0  0  0  0  0  0  0  0
   59.1550   33.0110   48.4730 C   0  0  0  0  0  0  0  0  0  0  0  0
   59.2520   33.2020   49.9390 C   0  0  0  0  0  0  0  0  0  0  0  0
   59.6700   34.3040   50.3870 O   0  0  0  0  0  0  0  0  0  0  0  0
   58.8890   32.1550   50.8610 N   0  0  0  0  0  0  0  0  0  0  0  0
   59.7510   30.9830   51.0320 C   0  0  0  0  0  0  0  0  0  0  0  0
   58.9850   29.7460   50.5790 C   0  0  0  0  0  0  0  0  0  0  0  0
   57.7300   29.6650   51.2530 O   0  0  0  0  0  0  0  0  0  0  0  0
   56.9820   30.7980   51.5930 C   0  0  0  0  0  0  0  0  0  0  0  0
   55.8010   30.6560   52.0070 O   0  0  0  0  0  0  0  0  0  0  0  0
   57.5890   32.1740   51.5470 C   0  0  0  0  0  0  0  0  0  0  0  0
   58.7500   31.7770   47.9360 C   0  0  0  0  0  0  0  0  0  0  0  0
   59.9370   29.7443   47.9492 H   0  0  0  0  0  0  0  0  0  0  0  0
   59.6846   27.8648   47.7650 H   0  0  0  0  0  0  0  0  0  0  0  0
   58.9777   26.4040   44.8791 H   0  0  0  0  0  0  0  0  0  0  0  0
   54.3820   27.0760   46.3720 H   0  0  0  0  0  0  0  0  0  0  0  0
   56.3955   28.3643   44.1036 H   0  0  0  0  0  0  0  0  0  0  0  0
   56.0623   31.8928   45.1648 H   0  0  0  0  0  0  0  0  0  0  0  0
   57.1911   31.8541   43.7680 H   0  0  0  0  0  0  0  0  0  0  0  0
   55.7261   30.8147   43.7680 H   0  0  0  0  0  0  0  0  0  0  0  0
   58.8964   32.5321   44.6023 H   0  0  0  0  0  0  0  0  0  0  0  0
   59.5827   34.7372   45.5436 H   0  0  0  0  0  0  0  0  0  0  0  0
   59.7364   35.0529   48.0127 H   0  0  0  0  0  0  0  0  0  0  0  0
   60.6599   31.0995   50.4235 H   0  0  0  0  0  0  0  0  0  0  0  0
   60.0402   30.8801   52.0883 H   0  0  0  0  0  0  0  0  0  0  0  0
   58.8111   29.8041   49.4944 H   0  0  0  0  0  0  0  0  0  0  0  0
   59.5778   28.8509   50.8187 H   0  0  0  0  0  0  0  0  0  0  0  0
   56.9081   32.8494   51.0083 H   0  0  0  0  0  0  0  0  0  0  0  0
   57.7429   32.5232   52.5787 H   0  0  0  0  0  0  0  0  0  0  0  0
   58.5040   30.9432   48.6100 H   0  0  0  0  0  0  0  0  0  0  0  0
  1  2  2  0
  2  3  1  0
  3  4  2  3
  4  5  1  0
  5  6  1  0
  6  7  1  0
  7  8  2  0
  7  9  1  0
  9 10  1  0
 10 11  1  0
  3 12  1  0
 12 13  2  0
 13 14  1  0
 13 15  1  0
 15 16  1  0
 16 17  2  0
 17 18  1  0
 18 19  2  0
 19 20  1  0
 20 21  1  0
 21 22  2  0
 21 23  1  0
 23 24  1  0
 24 25  1  0
 25 26  1  0
 26 27  1  0
 27 28  2  0
 27 29  1  0
 20 30  2  0
 15  2  1  0
 30 16  1  0
 10  5  2  0
 29 23  1  0
  1 31  1  0
  1 32  1  0
  4 33  1  0
 11 34  1  0
 12 35  1  0
 14 36  1  0
 14 37  1  0
 14 38  1  0
 17 39  1  0
 18 40  1  0
 19 41  1  0
 24 42  1  0
 24 43  1  0
 25 44  1  0
 25 45  1  0
 29 46  1  0
 29 47  1  0
 30 48  1  0
M  CHG  2   6  -1   9  -1
M  END
>  <UniqueID>  (90) 
85

>  <SMILES>  (90) 
C=c1c(=Cc2[n-]c(=O)[n-]c2O)cc(C)n1-c1cccc(C(=O)N2CCOC(=O)C2)c1

>  <Energy>  (90) 
130.32771004730913

>  <Genealogy>  (90) 
C=c1c(=Cc2[n-]c(=O)[n-]c2O)cc(C)n1-c1cccc(C(=O)N2CCOC(=O)C2)c1 (protonated)
C=c1c(=Cc2[n-]c(=O)[n-]c2O)cc(C)n1-c1cccc(C(=O)N2CCOC(=O)C2)c1 (3D coordinates assigned)
C=c1c(=Cc2[n-]c(=O)[n-]c2O)cc(C)n1-c1cccc(C(=O)N2CCOC(=O)C2)c1 (nonaromatic ring conformer: 130.32771004730913 kcal/mol)

>  <smiles>  (90) 
C=c1c(=Cc2[nH]c(=O)[nH]c2O)cc(C)n1-c1cccc(C(=O)N2CCOC(=O)C2)c1

>  <score_type>  (90) 
oracle

>  <origin>  (90) 
adg

>  <m_score__min__energy>  (90) 
-13.93

>  <m_primary>  (90) 
energy

$$$$
91:0
     RDKit          3D

 26 27  0  0  0  0  0  0  0  0999 V2000
   57.4600   33.4686   44.1652 H   0  0  0  0  0  0  0  0  0  0  0  0
   57.6920   33.1910   45.2040 C   0  0  0  0  0  0  0  0  0  0  0  0
   57.1912   33.7073   46.0363 H   0  0  0  0  0  0  0  0  0  0  0  0
   58.5790   32.2300   45.4540 C   0  0  0  0  0  0  0  0  0  0  0  0
   59.0659   31.7291   44.6043 H   0  0  0  0  0  0  0  0  0  0  0  0
   58.9370   31.8080   46.8220 C   0  0  0  0  0  0  0  0  0  0  0  0
   58.4300   32.4160   47.9090 N   0  0  0  0  0  0  0  0  0  0  0  0
   58.9150   31.6930   48.9360 C   0  0  0  0  0  0  0  0  0  0  0  0
   58.6500   31.9550   50.1370 O   0  0  0  0  0  0  0  0  0  0  0  0
   59.7060   30.6640   48.5740 N   0  0  0  0  0  0  0  0  0  0  0  0
   59.7360   30.7430   47.2310 C   0  0  0  0  0  0  0  0  0  0  0  0
   60.5700   29.8420   46.4160 C   0  0  0  0  0  0  0  0  0  0  0  0
   61.6573   29.8288   46.5821 H   0  0  0  0  0  0  0  0  0  0  0  0
   60.0480   29.0380   45.4790 C   0  0  0  0  0  0  0  0  0  0  0  0
   60.6429   28.8455   44.5740 H   0  0  0  0  0  0  0  0  0  0  0  0
   58.7170   28.3920   45.5880 C   0  0  0  0  0  0  0  0  0  0  0  0
   58.6350   27.1240   46.1880 C   0  0  0  0  0  0  0  0  0  0  0  0
   59.5490   26.6367   46.5583 H   0  0  0  0  0  0  0  0  0  0  0  0
   57.4040   26.4760   46.3190 C   0  0  0  0  0  0  0  0  0  0  0  0
   57.3549   25.4802   46.7837 H   0  0  0  0  0  0  0  0  0  0  0  0
   56.2350   27.0900   45.8610 C   0  0  0  0  0  0  0  0  0  0  0  0
   55.0140   26.4400   45.9940 O   0  0  0  0  0  0  0  0  0  0  0  0
   56.2980   28.3600   45.2760 C   0  0  0  0  0  0  0  0  0  0  0  0
   55.1370   28.9800   44.8290 O   0  0  0  0  0  0  0  0  0  0  0  0
   57.5290   29.0100   45.1410 C   0  0  0  0  0  0  0  0  0  0  0  0
   57.5718   30.0094   44.6835 H   0  0  0  0  0  0  0  0  0  0  0  0
  1  2  1  0
  2  3  1  0
  2  4  2  0
  4  5  1  0
  4  6  1  0
  6  7  1  0
  7  8  1  0
  8  9  2  0
  8 10  1  0
 10 11  1  0
 11 12  1  0
 12 13  1  0
 12 14  2  0
 14 15  1  0
 14 16  1  0
 16 17  2  0
 17 18  1  0
 17 19  1  0
 19 20  1  0
 19 21  2  0
 21 22  1  0
 21 23  1  0
 23 24  1  0
 23 25  2  0
 25 26  1  0
 11  6  2  0
 25 16  1  0
M  CHG  4   7  -1  10  -1  22  -1  24  -1
M  END
>  <UniqueID>  (91) 
86

>  <SMILES>  (91) 
C=Cc1[n-]c(=O)[n-]c1/C=C/c1ccc([O-])c([O-])c1

>  <Energy>  (91) 
63.13957687810005

>  <Genealogy>  (91) 
C=Cc1[n-]c(=O)[n-]c1C=Cc1ccc([O-])c([O-])c1 (protonated)
C=Cc1[n-]c(=O)[n-]c1/C=C/c1ccc([O-])c([O-])c1 (cis-trans isomerization)
C=Cc1[n-]c(=O)[n-]c1/C=C/c1ccc([O-])c([O-])c1 (3D coordinates assigned)
C=Cc1[n-]c(=O)[n-]c1/C=C/c1ccc([O-])c([O-])c1 (optimized conformer: 63.13957687810005 kcal/mol)

>  <smiles>  (91) 
C=Cc1[nH]c(=O)[nH]c1C=Cc1ccc(O)c(O)c1

>  <score_type>  (91) 
oracle

>  <origin>  (91) 
adg

>  <m_score__min__energy>  (91) 
-16.539999999999999

>  <m_primary>  (91) 
energy

$$$$
