0:0
     RDKit          3D

 52 54  0  0  0  0  0  0  0  0999 V2000
   58.9560   31.5780   45.6990 C   0  0  0  0  0  0  0  0  0  0  0  0
   58.9190   30.3800   46.2920 C   0  0  0  0  0  0  0  0  0  0  0  0
   59.2570   29.1160   45.5520 C   0  0  0  0  0  0  0  0  0  0  0  0
   58.4080   27.9640   46.0660 C   0  0  0  0  0  0  0  0  0  0  0  0
   59.0040   26.8830   46.7700 C   0  0  0  0  0  0  0  0  0  0  0  0
   60.4380   26.8280   47.1070 C   0  0  0  0  0  0  0  0  0  0  0  0
   61.2070   26.1430   46.3790 O   0  0  0  0  0  0  0  0  0  0  0  0
   60.9230   27.4660   48.2980 N   0  0  0  0  0  0  0  0  0  0  0  0
   60.4520   28.5540   48.8330 C   0  0  0  0  0  0  0  0  0  0  0  0
   59.1880   28.6810   49.2930 N   0  0  0  0  0  0  0  0  0  0  0  0
   59.1490   29.9420   49.7600 C   0  0  0  0  0  0  0  0  0  0  0  0
   60.3750   30.5340   49.5740 C   0  0  0  0  0  0  0  0  0  0  0  0
   61.2090   29.6590   48.9870 N   0  0  0  0  0  0  0  0  0  0  0  0
   58.2480   25.8170   47.1390 N   0  0  0  0  0  0  0  0  0  0  0  0
   56.9190   25.7350   46.8850 C   0  0  0  0  0  0  0  0  0  0  0  0
   56.1810   24.6230   47.3050 O   0  0  0  0  0  0  0  0  0  0  0  0
   55.6010   23.6930   46.3950 C   0  0  0  0  0  0  0  0  0  0  0  0
   56.5920   23.3780   45.2620 C   0  0  0  0  0  0  0  0  0  0  0  0
   56.2510   24.1760   43.9790 C   0  0  0  0  0  0  0  0  0  0  0  0
   55.4310   23.3320   42.9940 C   0  0  0  0  0  0  0  0  0  0  0  0
   56.1480   22.1150   42.5600 N   0  0  0  0  0  0  0  0  0  0  0  0
   57.0980   21.5730   43.5530 C   0  0  0  0  0  0  0  0  0  0  0  0
   56.6540   21.8560   44.9920 C   0  0  0  0  0  0  0  0  0  0  0  0
   56.2810   26.7630   46.1970 C   0  0  0  0  0  0  0  0  0  0  0  0
   54.9130   26.6690   45.9550 O   0  0  0  0  0  0  0  0  0  0  0  0
   57.0190   27.8750   45.7480 C   0  0  0  0  0  0  0  0  0  0  0  0
   56.2920   28.9550   44.9680 C   0  0  0  0  0  0  0  0  0  0  0  0
   56.9010   29.1300   43.5790 C   0  0  0  0  0  0  0  0  0  0  0  0
   58.7024   32.4828   46.2708 H   0  0  0  0  0  0  0  0  0  0  0  0
   59.2400   31.6586   44.6394 H   0  0  0  0  0  0  0  0  0  0  0  0
   58.6329   30.3177   47.3523 H   0  0  0  0  0  0  0  0  0  0  0  0
   59.0627   29.2601   44.4789 H   0  0  0  0  0  0  0  0  0  0  0  0
   60.3191   28.8789   45.7127 H   0  0  0  0  0  0  0  0  0  0  0  0
   58.2730   30.4237   50.2188 H   0  0  0  0  0  0  0  0  0  0  0  0
   60.6335   31.5640   49.8610 H   0  0  0  0  0  0  0  0  0  0  0  0
   55.3535   22.7649   46.9310 H   0  0  0  0  0  0  0  0  0  0  0  0
   54.6879   24.1302   45.9649 H   0  0  0  0  0  0  0  0  0  0  0  0
   57.5934   23.6984   45.5852 H   0  0  0  0  0  0  0  0  0  0  0  0
   55.6694   25.0675   44.2564 H   0  0  0  0  0  0  0  0  0  0  0  0
   57.1935   24.4608   43.4886 H   0  0  0  0  0  0  0  0  0  0  0  0
   54.4917   23.0331   43.4822 H   0  0  0  0  0  0  0  0  0  0  0  0
   55.2443   23.9468   42.1012 H   0  0  0  0  0  0  0  0  0  0  0  0
   56.6840   22.3370   41.6880 H   0  0  0  0  0  0  0  0  0  0  0  0
   57.1743   20.4846   43.4132 H   0  0  0  0  0  0  0  0  0  0  0  0
   58.0690   22.0654   43.3958 H   0  0  0  0  0  0  0  0  0  0  0  0
   55.6567   21.4208   45.1533 H   0  0  0  0  0  0  0  0  0  0  0  0
   57.3854   21.4068   45.6800 H   0  0  0  0  0  0  0  0  0  0  0  0
   55.2338   28.6732   44.8640 H   0  0  0  0  0  0  0  0  0  0  0  0
   56.3856   29.9052   45.5142 H   0  0  0  0  0  0  0  0  0  0  0  0
   57.9541   29.4326   43.6758 H   0  0  0  0  0  0  0  0  0  0  0  0
   56.8419   28.1785   43.0302 H   0  0  0  0  0  0  0  0  0  0  0  0
   56.3458   29.9049   43.0302 H   0  0  0  0  0  0  0  0  0  0  0  0
  1  2  2  0
  2  3  1  0
  3  4  1  0
  4  5  2  0
  5  6  1  0
  6  7  2  0
  6  8  1  0
  8  9  2  3
  9 10  1  0
 10 11  1  0
 11 12  2  0
 12 13  1  0
  5 14  1  0
 14 15  2  0
 15 16  1  0
 16 17  1  0
 17 18  1  0
 18 19  1  0
 19 20  1  0
 20 21  1  0
 21 22  1  0
 22 23  1  0
 15 24  1  0
 24 25  1  0
 24 26  2  0
 26 27  1  0
 27 28  1  0
 26  4  1  0
 13  9  1  0
 23 18  1  0
  1 29  1  0
  1 30  1  0
  2 31  1  0
  3 32  1  0
  3 33  1  0
 11 34  1  0
 12 35  1  0
 17 36  1  0
 17 37  1  0
 18 38  1  0
 19 39  1  0
 19 40  1  0
 20 41  1  0
 20 42  1  0
 21 43  1  0
 22 44  1  0
 22 45  1  0
 23 46  1  0
 23 47  1  0
 27 48  1  0
 27 49  1  0
 28 50  1  0
 28 51  1  0
 28 52  1  0
M  CHG  3  10  -1  13  -1  25  -1
M  END
>  <UniqueID>  (1) 
1

>  <SMILES>  (1) 
C=CCc1c(C(=O)N=c2[n-]cc[n-]2)nc(OCC2CCNCC2)c([O-])c1CC

>  <Energy>  (1) 
89.97418948820643

>  <Genealogy>  (1) 
C=CCc1c(C(=O)N=c2[n-]cc[n-]2)nc(OCC2CCNCC2)c([O-])c1CC (protonated)
C=CCc1c(C(=O)N=c2[n-]cc[n-]2)nc(OCC2CCNCC2)c([O-])c1CC (3D coordinates assigned)
C=CCc1c(C(=O)N=c2[n-]cc[n-]2)nc(OCC2CCNCC2)c([O-])c1CC (nonaromatic ring conformer: 89.97418948820643 kcal/mol)

>  <smiles>  (1) 
C=CCc1c(C(=O)N=c2[nH]cc[nH]2)nc(OCC2CCNCC2)c(O)c1CC

>  <score_type>  (1) 
oracle

>  <origin>  (1) 
adg

>  <m_score__min__energy>  (1) 
-13.199999999999999

>  <m_primary>  (1) 
energy

$$$$
1:0
     RDKit          3D

 44 48  0  0  0  0  0  0  0  0999 V2000
   59.1355   26.0863   46.8264 H   0  0  0  0  0  0  0  0  0  0  0  0
   58.2680   26.5790   46.3630 C   0  0  0  0  0  0  0  0  0  0  0  0
   56.9920   25.8380   46.3690 C   0  0  0  0  0  0  0  0  0  0  0  0
   56.8520   24.5240   46.6220 N   0  0  0  0  0  0  0  0  0  0  0  0
   55.5390   24.2950   46.3930 C   0  0  0  0  0  0  0  0  0  0  0  0
   54.8570   22.8210   46.5560 S   0  0  0  0  0  0  0  0  0  0  0  0
   54.8440   25.3790   45.9880 N   0  0  0  0  0  0  0  0  0  0  0  0
   55.7790   26.3410   45.9690 C   0  0  0  0  0  0  0  0  0  0  0  0
   55.5280   27.6530   45.5880 O   0  0  0  0  0  0  0  0  0  0  0  0
   58.4650   27.8020   45.8420 C   0  0  0  0  0  0  0  0  0  0  0  0
   58.5320   28.0900   44.4770 C   0  0  0  0  0  0  0  0  0  0  0  0
   58.4623   27.3494   43.6667 H   0  0  0  0  0  0  0  0  0  0  0  0
   58.6960   29.4220   44.3070 N   0  0  0  0  0  0  0  0  0  0  0  0
   58.7670   29.9280   43.3960 H   0  0  0  0  0  0  0  0  0  0  0  0
   58.7250   29.9820   45.5030 N   0  0  0  0  0  0  0  0  0  0  0  0
   58.8190   31.2980   45.8150 C   0  0  0  0  0  0  0  0  0  0  0  0
   58.9460   32.1940   44.8830 N   0  0  0  0  0  0  0  0  0  0  0  0
   57.8580   33.0690   44.4600 C   0  0  0  0  0  0  0  0  0  0  0  0
   57.6269   32.5692   43.5078 H   0  0  0  0  0  0  0  0  0  0  0  0
   58.0320   34.5120   44.8960 C   0  0  0  0  0  0  0  0  0  0  0  0
   58.9606   34.8284   45.3936 H   0  0  0  0  0  0  0  0  0  0  0  0
   57.9674   35.4897   44.3960 H   0  0  0  0  0  0  0  0  0  0  0  0
   57.0480   33.6070   45.6240 C   0  0  0  0  0  0  0  0  0  0  0  0
   57.2651   33.2693   46.6481 H   0  0  0  0  0  0  0  0  0  0  0  0
   55.9768   33.6593   45.8686 H   0  0  0  0  0  0  0  0  0  0  0  0
   58.7650   31.6490   47.1310 N   0  0  0  0  0  0  0  0  0  0  0  0
   58.6160   30.6990   48.1070 C   0  0  0  0  0  0  0  0  0  0  0  0
   58.5540   31.0830   49.4950 N   0  0  0  0  0  0  0  0  0  0  0  0
   58.4340   30.0750   50.5600 C   0  0  0  0  0  0  0  0  0  0  0  0
   58.0255   29.1483   50.1305 H   0  0  0  0  0  0  0  0  0  0  0  0
   59.4335   29.9024   50.9856 H   0  0  0  0  0  0  0  0  0  0  0  0
   57.5020   30.5560   51.6930 C   0  0  0  0  0  0  0  0  0  0  0  0
   56.4813   30.2146   51.4659 H   0  0  0  0  0  0  0  0  0  0  0  0
   57.9011   30.1319   52.6262 H   0  0  0  0  0  0  0  0  0  0  0  0
   57.4670   32.0210   51.8800 N   0  0  0  0  0  0  0  0  0  0  0  0
   56.6350   32.4080   51.3730 H   0  0  0  0  0  0  0  0  0  0  0  0
   58.6700   32.6900   51.3730 C   0  0  0  0  0  0  0  0  0  0  0  0
   58.6064   33.7665   51.5903 H   0  0  0  0  0  0  0  0  0  0  0  0
   59.5550   32.2601   51.8649 H   0  0  0  0  0  0  0  0  0  0  0  0
   58.7890   32.4850   49.8600 C   0  0  0  0  0  0  0  0  0  0  0  0
   58.0457   33.1175   49.3525 H   0  0  0  0  0  0  0  0  0  0  0  0
   59.8080   32.7599   49.5500 H   0  0  0  0  0  0  0  0  0  0  0  0
   58.5180   29.3800   47.7570 N   0  0  0  0  0  0  0  0  0  0  0  0
   58.5900   29.0460   46.4470 C   0  0  0  0  0  0  0  0  0  0  0  0
  1  2  1  0
  2  3  1  0
  3  4  1  0
  4  5  1  0
  5  6  2  0
  5  7  1  0
  7  8  1  0
  8  9  1  0
  2 10  2  3
 10 11  1  0
 11 12  1  0
 11 13  2  0
 13 14  1  0
 13 15  1  0
 15 16  1  0
 16 17  2  0
 17 18  1  0
 18 19  1  0
 18 20  1  0
 20 21  1  0
 20 22  1  0
 20 23  1  0
 23 24  1  0
 23 25  1  0
 16 26  1  0
 26 27  2  0
 27 28  1  0
 28 29  1  0
 29 30  1  0
 29 31  1  0
 29 32  1  0
 32 33  1  0
 32 34  1  0
 32 35  1  0
 35 36  1  0
 35 37  1  0
 37 38  1  0
 37 39  1  0
 37 40  1  0
 40 41  1  0
 40 42  1  0
 27 43  1  0
 43 44  2  0
  8  3  2  0
 44 10  1  0
 44 15  1  0
 23 18  1  0
 40 28  1  0
M  CHG  4   4  -1   7  -1   9  -1  13   1
M  END
>  <UniqueID>  (2) 
2

>  <SMILES>  (2) 
[O-]c1[n-]c(=S)[n-]c1C=c1c[nH+]n2/c(=N/C3CC3)nc(N3CCNCC3)nc12

>  <Energy>  (2) 
388.57430860115966

>  <Genealogy>  (2) 
[O-]c1[n-]c(=S)[n-]c1C=c1c[nH+]n2c(=NC3CC3)nc(N3CCNCC3)nc12 (protonated)
[O-]c1[n-]c(=S)[n-]c1C=c1c[nH+]n2/c(=N/C3CC3)nc(N3CCNCC3)nc12 (cis-trans isomerization)
[O-]c1[n-]c(=S)[n-]c1C=c1c[nH+]n2/c(=N/C3CC3)nc(N3CCNCC3)nc12 (3D coordinates assigned)
[O-]c1[n-]c(=S)[n-]c1C=c1c[nH+]n2/c(=N/C3CC3)nc(N3CCNCC3)nc12 (nonaromatic ring conformer: 388.57430860115966 kcal/mol)

>  <smiles>  (2) 
Oc1[nH]c(=S)[nH]c1C=c1cnn2c(=NC3CC3)nc(N3CCNCC3)nc12

>  <score_type>  (2) 
oracle

>  <origin>  (2) 
adg

>  <m_score__min__energy>  (2) 
-14.630000000000001

>  <m_primary>  (2) 
energy

$$$$
2:0
     RDKit          3D

 57 60  0  0  0  0  0  0  0  0999 V2000
   65.1600   33.4640   49.7690 O   0  0  0  0  0  0  0  0  0  0  0  0
   63.9550   33.1340   49.9560 C   0  0  0  0  0  0  0  0  0  0  0  0
   63.6250   32.3630   51.1220 N   0  0  0  0  0  0  0  0  0  0  0  0
   63.0490   31.0190   51.0580 C   0  0  0  0  0  0  0  0  0  0  0  0
   61.7170   31.0730   50.3630 C   0  0  0  0  0  0  0  0  0  0  0  0
   60.6200   31.7130   50.9610 C   0  0  0  0  0  0  0  0  0  0  0  0
   59.3710   31.7040   50.3310 C   0  0  0  0  0  0  0  0  0  0  0  0
   59.2050   31.0560   49.1040 C   0  0  0  0  0  0  0  0  0  0  0  0
   60.2970   30.4270   48.4860 C   0  0  0  0  0  0  0  0  0  0  0  0
   60.1050   29.6670   47.2040 C   0  0  0  0  0  0  0  0  0  0  0  0
   60.3650   28.2510   47.4480 N   0  0  0  0  0  0  0  0  0  0  0  0
   59.8960   27.1790   46.6240 C   0  0  0  0  0  0  0  0  0  0  0  0
   60.7380   26.4130   46.0860 O   0  0  0  0  0  0  0  0  0  0  0  0
   58.4580   26.9310   46.4010 C   0  0  0  0  0  0  0  0  0  0  0  0
   57.6690   27.9130   45.7820 C   0  0  0  0  0  0  0  0  0  0  0  0
   56.2980   27.7060   45.6040 C   0  0  0  0  0  0  0  0  0  0  0  0
   55.5320   28.6820   44.9780 O   0  0  0  0  0  0  0  0  0  0  0  0
   55.7000   26.5250   46.0640 C   0  0  0  0  0  0  0  0  0  0  0  0
   54.3330   26.3340   45.9120 O   0  0  0  0  0  0  0  0  0  0  0  0
   56.4770   25.5440   46.6950 C   0  0  0  0  0  0  0  0  0  0  0  0
   55.8760   24.3780   47.1640 O   0  0  0  0  0  0  0  0  0  0  0  0
   57.8540   25.7480   46.8640 C   0  0  0  0  0  0  0  0  0  0  0  0
   61.5490   30.4310   49.1250 C   0  0  0  0  0  0  0  0  0  0  0  0
   62.9150   33.5180   48.9690 C   0  0  0  0  0  0  0  0  0  0  0  0
   63.0470   33.1520   47.6140 C   0  0  0  0  0  0  0  0  0  0  0  0
   62.0500   33.4780   46.6900 C   0  0  0  0  0  0  0  0  0  0  0  0
   60.8930   34.1660   47.1040 C   0  0  0  0  0  0  0  0  0  0  0  0
   59.8310   34.5310   46.1350 C   0  0  0  0  0  0  0  0  0  0  0  0
   59.6400   35.7570   45.8740 O   0  0  0  0  0  0  0  0  0  0  0  0
   58.9800   33.5130   45.4680 C   0  0  0  0  0  0  0  0  0  0  0  0
   58.6000   33.6530   44.1180 C   0  0  0  0  0  0  0  0  0  0  0  0
   57.8040   32.6800   43.5030 C   0  0  0  0  0  0  0  0  0  0  0  0
   57.3830   31.5550   44.2200 C   0  0  0  0  0  0  0  0  0  0  0  0
   57.7760   31.3940   45.5540 C   0  0  0  0  0  0  0  0  0  0  0  0
   58.5790   32.3610   46.1740 C   0  0  0  0  0  0  0  0  0  0  0  0
   60.7660   34.5390   48.4530 C   0  0  0  0  0  0  0  0  0  0  0  0
   61.7580   34.2050   49.3780 C   0  0  0  0  0  0  0  0  0  0  0  0
   63.7267   30.3566   50.4994 H   0  0  0  0  0  0  0  0  0  0  0  0
   62.9129   30.6313   52.0784 H   0  0  0  0  0  0  0  0  0  0  0  0
   60.7429   32.2231   51.9278 H   0  0  0  0  0  0  0  0  0  0  0  0
   58.5157   32.2092   50.8035 H   0  0  0  0  0  0  0  0  0  0  0  0
   58.2166   31.0389   48.6216 H   0  0  0  0  0  0  0  0  0  0  0  0
   59.0718   29.7966   46.8495 H   0  0  0  0  0  0  0  0  0  0  0  0
   60.7989   30.0462   46.4394 H   0  0  0  0  0  0  0  0  0  0  0  0
   58.1313   28.8491   45.4356 H   0  0  0  0  0  0  0  0  0  0  0  0
   54.8690   24.2930   47.2460 H   0  0  0  0  0  0  0  0  0  0  0  0
   58.4645   24.9796   47.3608 H   0  0  0  0  0  0  0  0  0  0  0  0
   62.4045   29.9271   48.6515 H   0  0  0  0  0  0  0  0  0  0  0  0
   63.9417   32.6055   47.2811 H   0  0  0  0  0  0  0  0  0  0  0  0
   62.1698   33.1956   45.6336 H   0  0  0  0  0  0  0  0  0  0  0  0
   58.9308   34.5316   43.5448 H   0  0  0  0  0  0  0  0  0  0  0  0
   57.5079   32.8004   42.4505 H   0  0  0  0  0  0  0  0  0  0  0  0
   56.7455   30.7996   43.7374 H   0  0  0  0  0  0  0  0  0  0  0  0
   57.4536   30.5059   46.1173 H   0  0  0  0  0  0  0  0  0  0  0  0
   58.8980   32.2201   47.2173 H   0  0  0  0  0  0  0  0  0  0  0  0
   59.8783   35.0985   48.7831 H   0  0  0  0  0  0  0  0  0  0  0  0
   61.6332   34.4817   50.4353 H   0  0  0  0  0  0  0  0  0  0  0  0
  1  2  2  0
  2  3  1  0
  3  4  1  0
  4  5  1  0
  5  6  2  0
  6  7  1  0
  7  8  2  0
  8  9  1  0
  9 10  1  0
 10 11  1  0
 11 12  1  0
 12 13  2  0
 12 14  1  0
 14 15  2  0
 15 16  1  0
 16 17  1  0
 16 18  2  0
 18 19  1  0
 18 20  1  0
 20 21  1  0
 20 22  2  0
  9 23  2  0
  2 24  1  0
 24 25  2  0
 25 26  1  0
 26 27  2  0
 27 28  1  0
 28 29  2  0
 28 30  1  0
 30 31  2  0
 31 32  1  0
 32 33  2  0
 33 34  1  0
 34 35  2  0
 27 36  1  0
 36 37  2  0
 23  5  1  0
 37 24  1  0
 22 14  1  0
 35 30  1  0
  4 38  1  0
  4 39  1  0
  6 40  1  0
  7 41  1  0
  8 42  1  0
 10 43  1  0
 10 44  1  0
 15 45  1  0
 21 46  1  0
 22 47  1  0
 23 48  1  0
 25 49  1  0
 26 50  1  0
 31 51  1  0
 32 52  1  0
 33 53  1  0
 34 54  1  0
 35 55  1  0
 36 56  1  0
 37 57  1  0
M  CHG  4   3  -1  11  -1  17  -1  19  -1
M  END
>  <UniqueID>  (3) 
3

>  <SMILES>  (3) 
O=C([N-]Cc1cccc(C[N-]C(=O)c2cc([O-])c([O-])c(O)c2)c1)c1ccc(C(=O)c2ccccc2)cc1

>  <Energy>  (3) 
77.98380188692089

>  <Genealogy>  (3) 
O=C([N-]Cc1cccc(C[N-]C(=O)c2cc([O-])c([O-])c(O)c2)c1)c1ccc(C(=O)c2ccccc2)cc1 (protonated)
O=C([N-]Cc1cccc(C[N-]C(=O)c2cc([O-])c([O-])c(O)c2)c1)c1ccc(C(=O)c2ccccc2)cc1 (3D coordinates assigned)
O=C([N-]Cc1cccc(C[N-]C(=O)c2cc([O-])c([O-])c(O)c2)c1)c1ccc(C(=O)c2ccccc2)cc1 (optimized conformer: 77.98380188692089 kcal/mol)

>  <smiles>  (3) 
O=C(NCc1cccc(CNC(=O)c2cc(O)c(O)c(O)c2)c1)c1ccc(C(=O)c2ccccc2)cc1

>  <score_type>  (3) 
oracle

>  <origin>  (3) 
adg

>  <m_score__min__energy>  (3) 
-20.460000000000001

>  <m_primary>  (3) 
energy

$$$$
3:0
     RDKit          3D

 36 38  0  0  1  0  0  0  0  0999 V2000
   56.7990   26.2280   45.7610 O   0  0  0  0  0  0  0  0  0  0  0  0
   57.2160   27.3990   45.9810 C   0  0  0  0  0  0  0  0  0  0  0  0
   58.0840   27.5830   46.9930 N   0  0  0  0  0  0  0  0  0  0  0  0
   58.5420   28.8470   47.2410 C   0  0  0  0  0  0  0  0  0  0  0  0
   59.4420   29.0620   48.2840 O   0  0  0  0  0  0  0  0  0  0  0  0
   60.2380   30.1920   48.2800 C   0  0  0  0  0  0  0  0  0  0  0  0
   61.1060   30.3770   47.1990 C   0  0  0  0  0  0  0  0  0  0  0  0
   61.9280   31.4730   47.1220 C   0  0  0  0  0  0  0  0  0  0  0  0
   61.9210   32.4280   48.1160 C   0  0  0  0  0  0  0  0  0  0  0  0
   62.9800   33.8210   47.9970 Cl  0  0  0  0  0  0  0  0  0  0  0  0
   61.0610   32.2500   49.1940 C   0  0  0  0  0  0  0  0  0  0  0  0
   60.2240   31.1420   49.2780 C   0  0  0  0  0  0  0  0  0  0  0  0
   58.0940   29.8420   46.4480 N   0  0  0  0  0  0  0  0  0  0  0  0
   57.2320   29.6430   45.4470 C   0  0  0  0  0  0  0  0  0  0  0  0
   56.7940   30.5600   44.6870 N   0  0  0  0  0  0  0  0  0  0  0  0
   57.0280   31.8920   44.5740 C   0  0  0  0  0  0  0  0  0  0  0  0
   57.7770   32.8780   45.2300 C   0  0  0  0  0  0  0  0  0  0  0  0
   58.5380   33.8060   44.4940 C   0  0  0  0  0  0  0  0  0  0  0  0
   59.2870   34.7790   45.1200 C   0  0  0  0  0  0  0  0  0  0  0  0
   59.2800   34.8340   46.4970 C   0  0  0  0  0  0  0  0  0  0  0  0
   58.5610   33.9620   47.2600 C   0  0  0  0  0  0  0  0  0  0  0  0
   57.8170   32.9920   46.6270 C   0  0  0  0  0  0  0  0  0  0  0  0
   56.7950   28.3920   45.2230 N   0  0  0  0  0  0  0  0  0  0  0  0
   58.4120   26.7900   47.5880 H   0  0  0  0  0  0  0  0  0  0  0  0
   61.1302   29.6281   46.3936 H   0  0  0  0  0  0  0  0  0  0  0  0
   62.5992   31.5907   46.2585 H   0  0  0  0  0  0  0  0  0  0  0  0
   61.0421   33.0012   49.9974 H   0  0  0  0  0  0  0  0  0  0  0  0
   59.5515   31.0244   50.1405 H   0  0  0  0  0  0  0  0  0  0  0  0
   57.4029   31.9702   43.5428 H   0  0  0  0  0  0  0  0  0  0  0  0
   56.0943   32.1666   45.0867 H   0  0  0  0  0  0  0  0  0  0  0  0
   58.5347   33.7534   43.3953 H   0  0  0  0  0  0  0  0  0  0  0  0
   59.8782   35.4969   44.5326 H   0  0  0  0  0  0  0  0  0  0  0  0
   59.8764   35.6100   46.9992 H   0  0  0  0  0  0  0  0  0  0  0  0
   58.5752   34.0322   48.3577 H   0  0  0  0  0  0  0  0  0  0  0  0
   57.2357   32.2842   47.2362 H   0  0  0  0  0  0  0  0  0  0  0  0
   56.1380   28.2180   44.4640 H   0  0  0  0  0  0  0  0  0  0  0  0
  1  2  2  0
  2  3  1  0
  3  4  1  0
  4  5  1  0
  5  6  1  0
  6  7  2  0
  7  8  1  0
  8  9  2  0
  9 10  1  0
  9 11  1  0
 11 12  2  0
  4 13  2  0
 13 14  1  0
 14 15  2  0
 15 16  1  0
 16 17  1  0
 17 18  2  0
 18 19  1  0
 19 20  2  0
 20 21  1  0
 21 22  2  0
 14 23  1  0
 23  2  1  0
 12  6  1  0
 22 17  1  0
  3 24  1  0
  7 25  1  0
  8 26  1  0
 11 27  1  0
 12 28  1  0
 16 29  1  0
 16 30  1  0
 18 31  1  0
 19 32  1  0
 20 33  1  0
 21 34  1  0
 22 35  1  0
 23 36  1  0
M  END
>  <smiles>  (4) 
O=c1[nH]c(Oc2ccc(Cl)cc2)nc(=NCc2ccccc2)[nH]1

>  <score_type>  (4) 
oracle

>  <origin>  (4) 
adg

>  <m_score__min__energy>  (4) 
-7.5999999999999996

>  <m_primary>  (4) 
energy

$$$$
4:0
     RDKit          3D

 55 58  0  0  0  0  0  0  0  0999 V2000
   56.1318   21.4448   42.6589 H   0  0  0  0  0  0  0  0  0  0  0  0
   56.6640   22.1530   43.3110 C   0  0  0  0  0  0  0  0  0  0  0  0
   56.3170   23.4660   43.4000 N   0  0  0  0  0  0  0  0  0  0  0  0
   57.1220   24.1330   44.2560 C   0  0  0  0  0  0  0  0  0  0  0  0
   57.0010   25.3940   44.5530 N   0  0  0  0  0  0  0  0  0  0  0  0
   56.6290   25.9600   45.8210 C   0  0  0  0  0  0  0  0  0  0  0  0
   55.4250   26.2900   45.9960 O   0  0  0  0  0  0  0  0  0  0  0  0
   57.6280   26.1690   46.9370 C   0  0  0  0  0  0  0  0  0  0  0  0
   57.3442   27.0733   47.4954 H   0  0  0  0  0  0  0  0  0  0  0  0
   57.6051   25.2689   47.5688 H   0  0  0  0  0  0  0  0  0  0  0  0
   59.0730   26.3380   46.4340 C   0  0  0  0  0  0  0  0  0  0  0  0
   59.4908   25.3398   46.2362 H   0  0  0  0  0  0  0  0  0  0  0  0
   59.0272   26.9610   45.5286 H   0  0  0  0  0  0  0  0  0  0  0  0
   59.9790   27.0490   47.4140 C   0  0  0  0  0  0  0  0  0  0  0  0
   60.4340   26.4100   48.4030 O   0  0  0  0  0  0  0  0  0  0  0  0
   60.3860   28.4240   47.2110 N   0  0  0  0  0  0  0  0  0  0  0  0
   60.7160   29.2570   48.3770 C   0  0  0  0  0  0  0  0  0  0  0  0
   59.8022   29.4467   48.9592 H   0  0  0  0  0  0  0  0  0  0  0  0
   61.4532   28.7293   48.9999 H   0  0  0  0  0  0  0  0  0  0  0  0
   61.2960   30.5590   47.9290 C   0  0  0  0  0  0  0  0  0  0  0  0
   62.5810   30.9190   48.1090 N   0  0  0  0  0  0  0  0  0  0  0  0
   62.7070   32.1210   47.5690 N   0  0  0  0  0  0  0  0  0  0  0  0
   61.4970   32.4420   47.0760 C   0  0  0  0  0  0  0  0  0  0  0  0
   61.1780   33.7380   46.4060 C   0  0  0  0  0  0  0  0  0  0  0  0
   61.4453   34.5697   47.0744 H   0  0  0  0  0  0  0  0  0  0  0  0
   61.7523   33.8135   45.4709 H   0  0  0  0  0  0  0  0  0  0  0  0
   59.7100   33.8030   46.0920 C   0  0  0  0  0  0  0  0  0  0  0  0
   59.2770   34.1270   44.7940 C   0  0  0  0  0  0  0  0  0  0  0  0
   60.0154   34.3578   44.0120 H   0  0  0  0  0  0  0  0  0  0  0  0
   57.9110   34.1570   44.4930 C   0  0  0  0  0  0  0  0  0  0  0  0
   57.5779   34.4195   43.4780 H   0  0  0  0  0  0  0  0  0  0  0  0
   56.9690   33.8540   45.4800 C   0  0  0  0  0  0  0  0  0  0  0  0
   55.8954   33.8789   45.2420 H   0  0  0  0  0  0  0  0  0  0  0  0
   57.3920   33.5190   46.7710 C   0  0  0  0  0  0  0  0  0  0  0  0
   56.6503   33.2797   47.5473 H   0  0  0  0  0  0  0  0  0  0  0  0
   58.7580   33.4880   47.0760 C   0  0  0  0  0  0  0  0  0  0  0  0
   59.0871   33.2160   48.0898 H   0  0  0  0  0  0  0  0  0  0  0  0
   60.6240   31.4880   47.2950 O   0  0  0  0  0  0  0  0  0  0  0  0
   60.5560   28.9880   45.8610 C   0  0  0  0  0  0  0  0  0  0  0  0
   61.0867   29.9484   45.9382 H   0  0  0  0  0  0  0  0  0  0  0  0
   61.1320   28.2724   45.2560 H   0  0  0  0  0  0  0  0  0  0  0  0
   59.2250   29.2150   45.1900 C   0  0  0  0  0  0  0  0  0  0  0  0
   58.7700   28.3200   44.2070 C   0  0  0  0  0  0  0  0  0  0  0  0
   59.3763   27.4404   43.9450 H   0  0  0  0  0  0  0  0  0  0  0  0
   57.5500   28.5420   43.5600 C   0  0  0  0  0  0  0  0  0  0  0  0
   57.1947   27.8311   42.7995 H   0  0  0  0  0  0  0  0  0  0  0  0
   56.7810   29.6660   43.8780 C   0  0  0  0  0  0  0  0  0  0  0  0
   55.5980   29.8820   43.2490 F   0  0  0  0  0  0  0  0  0  0  0  0
   57.2330   30.5720   44.8410 C   0  0  0  0  0  0  0  0  0  0  0  0
   56.6287   31.4567   45.0904 H   0  0  0  0  0  0  0  0  0  0  0  0
   58.4540   30.3540   45.4880 C   0  0  0  0  0  0  0  0  0  0  0  0
   58.8138   31.0775   46.2344 H   0  0  0  0  0  0  0  0  0  0  0  0
   58.2760   23.1290   44.9470 S   0  0  0  0  0  0  0  0  0  0  0  0
   57.7410   21.7720   44.1050 C   0  0  0  0  0  0  0  0  0  0  0  0
   58.1686   20.7607   44.1713 H   0  0  0  0  0  0  0  0  0  0  0  0
  1  2  1  0
  2  3  1  0
  3  4  1  0
  4  5  2  0
  5  6  1  0
  6  7  2  0
  6  8  1  0
  8  9  1  0
  8 10  1  0
  8 11  1  0
 11 12  1  0
 11 13  1  0
 11 14  1  0
 14 15  2  0
 14 16  1  0
 16 17  1  0
 17 18  1  0
 17 19  1  0
 17 20  1  0
 20 21  2  0
 21 22  1  0
 22 23  2  0
 23 24  1  0
 24 25  1  0
 24 26  1  0
 24 27  1  0
 27 28  2  0
 28 29  1  0
 28 30  1  0
 30 31  1  0
 30 32  2  0
 32 33  1  0
 32 34  1  0
 34 35  1  0
 34 36  2  0
 36 37  1  0
 23 38  1  0
 16 39  1  0
 39 40  1  0
 39 41  1  0
 39 42  1  0
 42 43  2  0
 43 44  1  0
 43 45  1  0
 45 46  1  0
 45 47  2  0
 47 48  1  0
 47 49  1  0
 49 50  1  0
 49 51  2  0
 51 52  1  0
  4 53  1  0
 53 54  1  0
 54 55  1  0
 54  2  2  0
 38 20  1  0
 51 42  1  0
 36 27  1  0
M  CHG  1   3  -1
M  END
>  <UniqueID>  (5) 
4

>  <SMILES>  (5) 
O=C(CCC(=O)N(Cc1ccc(F)cc1)Cc1nnc(Cc2ccccc2)o1)/N=c1\[n-]ccs1

>  <Energy>  (5) 
122.47918008182516

>  <Genealogy>  (5) 
O=C(CCC(=O)N(Cc1ccc(F)cc1)Cc1nnc(Cc2ccccc2)o1)N=c1[n-]ccs1 (protonated)
O=C(CCC(=O)N(Cc1ccc(F)cc1)Cc1nnc(Cc2ccccc2)o1)/N=c1\[n-]ccs1 (cis-trans isomerization)
O=C(CCC(=O)N(Cc1ccc(F)cc1)Cc1nnc(Cc2ccccc2)o1)/N=c1\[n-]ccs1 (3D coordinates assigned)
O=C(CCC(=O)N(Cc1ccc(F)cc1)Cc1nnc(Cc2ccccc2)o1)/N=c1\[n-]ccs1 (optimized conformer: 122.47918008182516 kcal/mol)

>  <smiles>  (5) 
O=C(CCC(=O)N(Cc1ccc(F)cc1)Cc1nnc(Cc2ccccc2)o1)N=c1[nH]ccs1

>  <score_type>  (5) 
oracle

>  <origin>  (5) 
adg

>  <m_score__min__energy>  (5) 
-11.59

>  <m_primary>  (5) 
energy

$$$$
5:0
     RDKit          3D

 31 32  0  0  0  0  0  0  0  0999 V2000
   56.6250   30.9320   43.0070 O   0  0  0  0  0  0  0  0  0  0  0  0
   56.7730   30.8120   44.2520 C   0  0  0  0  0  0  0  0  0  0  0  0
   57.0010   32.0020   45.0230 N   0  0  0  0  0  0  0  0  0  0  0  0
   57.7290   33.2020   44.6190 C   0  0  0  0  0  0  0  0  0  0  0  0
   58.3710   33.8960   45.8240 C   0  0  0  0  0  0  0  0  0  0  0  0
   60.1890   34.0480   45.6500 S   0  0  0  0  0  0  0  0  0  0  0  0
   60.5500   33.9590   47.4180 C   0  0  0  0  0  0  0  0  0  0  0  0
   59.4560   34.0180   48.2940 C   0  0  0  0  0  0  0  0  0  0  0  0
   59.6440   33.9510   49.6710 C   0  0  0  0  0  0  0  0  0  0  0  0
   60.9260   33.8120   50.1940 C   0  0  0  0  0  0  0  0  0  0  0  0
   62.0300   33.7210   49.3420 C   0  0  0  0  0  0  0  0  0  0  0  0
   63.2930   33.5880   49.9100 O   0  0  0  0  0  0  0  0  0  0  0  0
   61.8630   33.7740   47.9360 C   0  0  0  0  0  0  0  0  0  0  0  0
   63.0490   33.5850   47.0540 C   0  0  0  0  0  0  0  0  0  0  0  0
   63.4930   34.5230   46.3440 O   0  0  0  0  0  0  0  0  0  0  0  0
   63.6920   32.3540   46.9950 O   0  0  0  0  0  0  0  0  0  0  0  0
   56.6970   29.4600   44.8470 C   0  0  0  0  0  0  0  0  0  0  0  0
   57.7970   28.6840   45.1760 C   0  0  0  0  0  0  0  0  0  0  0  0
   57.3030   27.4980   45.6730 C   0  0  0  0  0  0  0  0  0  0  0  0
   55.9340   27.6160   45.6140 C   0  0  0  0  0  0  0  0  0  0  0  0
   55.0400   26.6340   46.0200 O   0  0  0  0  0  0  0  0  0  0  0  0
   55.5500   28.8010   45.1100 N   0  0  0  0  0  0  0  0  0  0  0  0
   58.5177   32.9196   43.9061 H   0  0  0  0  0  0  0  0  0  0  0  0
   57.0168   33.9003   44.1552 H   0  0  0  0  0  0  0  0  0  0  0  0
   57.9396   34.9029   45.9239 H   0  0  0  0  0  0  0  0  0  0  0  0
   58.1677   33.2824   46.7141 H   0  0  0  0  0  0  0  0  0  0  0  0
   58.4386   34.1183   47.8880 H   0  0  0  0  0  0  0  0  0  0  0  0
   58.7781   34.0080   50.3470 H   0  0  0  0  0  0  0  0  0  0  0  0
   61.0712   33.7736   51.2837 H   0  0  0  0  0  0  0  0  0  0  0  0
   58.8556   28.9605   45.0627 H   0  0  0  0  0  0  0  0  0  0  0  0
   57.8818   26.6375   46.0399 H   0  0  0  0  0  0  0  0  0  0  0  0
  1  2  2  0
  2  3  1  0
  3  4  1  0
  4  5  1  0
  5  6  1  0
  6  7  1  0
  7  8  2  0
  8  9  1  0
  9 10  2  0
 10 11  1  0
 11 12  1  0
 11 13  2  0
 13 14  1  0
 14 15  2  0
 14 16  1  0
  2 17  1  0
 17 18  2  0
 18 19  1  0
 19 20  2  0
 20 21  1  0
 20 22  1  0
 13  7  1  0
 22 17  1  0
  4 23  1  0
  4 24  1  0
  5 25  1  0
  5 26  1  0
  8 27  1  0
  9 28  1  0
 10 29  1  0
 18 30  1  0
 19 31  1  0
M  CHG  5   3  -1  12  -1  16  -1  21  -1  22  -1
M  END
>  <UniqueID>  (6) 
5

>  <SMILES>  (6) 
O=C([N-]CCSc1cccc([O-])c1C(=O)[O-])c1ccc([O-])[n-]1

>  <Energy>  (6) 
59.49893773664874

>  <Genealogy>  (6) 
O=C([N-]CCSc1cccc([O-])c1C(=O)[O-])c1ccc([O-])[n-]1 (protonated)
O=C([N-]CCSc1cccc([O-])c1C(=O)[O-])c1ccc([O-])[n-]1 (3D coordinates assigned)
O=C([N-]CCSc1cccc([O-])c1C(=O)[O-])c1ccc([O-])[n-]1 (optimized conformer: 59.49893773664874 kcal/mol)

>  <smiles>  (6) 
O=C(NCCSc1cccc(O)c1C(=O)O)c1ccc(O)[nH]1

>  <score_type>  (6) 
oracle

>  <origin>  (6) 
adg

>  <m_score__min__energy>  (6) 
-16.440000000000001

>  <m_primary>  (6) 
energy

$$$$
6:0
     RDKit          3D

 39 41  0  0  0  0  0  0  0  0999 V2000
   58.5750   34.1420   43.9660 H   0  0  0  0  0  0  0  0  0  0  0  0
   58.2890   34.5940   44.8270 O   0  0  0  0  0  0  0  0  0  0  0  0
   58.8370   34.2340   46.0560 C   0  0  0  0  0  0  0  0  0  0  0  0
   60.1470   34.6090   46.3900 C   0  0  0  0  0  0  0  0  0  0  0  0
   60.7483   35.1919   45.6768 H   0  0  0  0  0  0  0  0  0  0  0  0
   60.6920   34.2450   47.6260 C   0  0  0  0  0  0  0  0  0  0  0  0
   61.7203   34.5396   47.8824 H   0  0  0  0  0  0  0  0  0  0  0  0
   59.9260   33.5040   48.5380 C   0  0  0  0  0  0  0  0  0  0  0  0
   60.4420   33.1230   49.7830 C   0  0  0  0  0  0  0  0  0  0  0  0
   61.4684   33.4017   50.0637 H   0  0  0  0  0  0  0  0  0  0  0  0
   59.6490   32.3880   50.6670 C   0  0  0  0  0  0  0  0  0  0  0  0
   60.0524   32.0775   51.6421 H   0  0  0  0  0  0  0  0  0  0  0  0
   58.3370   32.0470   50.3080 C   0  0  0  0  0  0  0  0  0  0  0  0
   57.5070   31.2430   51.2330 C   0  0  0  0  0  0  0  0  0  0  0  0
   57.7087   30.1629   51.2845 H   0  0  0  0  0  0  0  0  0  0  0  0
   56.5280   31.7260   52.0140 C   0  0  0  0  0  0  0  0  0  0  0  0
   56.6613   32.7367   52.4272 H   0  0  0  0  0  0  0  0  0  0  0  0
   55.2860   31.0070   52.3620 C   0  0  0  0  0  0  0  0  0  0  0  0
   55.2460   30.1080   53.4410 C   0  0  0  0  0  0  0  0  0  0  0  0
   56.1447   29.9484   54.0549 H   0  0  0  0  0  0  0  0  0  0  0  0
   54.0690   29.4160   53.7370 C   0  0  0  0  0  0  0  0  0  0  0  0
   54.0409   28.7195   54.5879 H   0  0  0  0  0  0  0  0  0  0  0  0
   52.9270   29.6070   52.9540 C   0  0  0  0  0  0  0  0  0  0  0  0
   52.0035   29.0571   53.1880 H   0  0  0  0  0  0  0  0  0  0  0  0
   52.9550   30.5000   51.8680 C   0  0  0  0  0  0  0  0  0  0  0  0
   51.8150   30.6980   51.0220 N   0  0  0  0  0  0  0  0  0  0  0  0
   51.2460   31.9600   50.6560 C   0  0  0  0  0  0  0  0  0  0  0  0
   50.9850   32.1860   49.4440 O   0  0  0  0  0  0  0  0  0  0  0  0
   51.0300   32.9780   51.6380 N   0  0  0  0  0  0  0  0  0  0  0  0
   50.1310   32.8050   52.7690 C   0  0  0  0  0  0  0  0  0  0  0  0
   50.6960   32.9137   53.7065 H   0  0  0  0  0  0  0  0  0  0  0  0
   49.3390   33.5672   52.7278 H   0  0  0  0  0  0  0  0  0  0  0  0
   49.6784   31.8033   52.7278 H   0  0  0  0  0  0  0  0  0  0  0  0
   54.1480   31.1690   51.5590 C   0  0  0  0  0  0  0  0  0  0  0  0
   54.1915   31.8270   50.6785 H   0  0  0  0  0  0  0  0  0  0  0  0
   57.8650   32.4090   49.0820 N   0  0  0  0  0  0  0  0  0  0  0  0
   58.6090   33.1260   48.2010 C   0  0  0  0  0  0  0  0  0  0  0  0
   58.0710   33.4930   46.9620 C   0  0  0  0  0  0  0  0  0  0  0  0
   57.0441   33.1982   46.7003 H   0  0  0  0  0  0  0  0  0  0  0  0
  1  2  1  0
  2  3  1  0
  3  4  2  0
  4  5  1  0
  4  6  1  0
  6  7  1  0
  6  8  2  0
  8  9  1  0
  9 10  1  0
  9 11  2  0
 11 12  1  0
 11 13  1  0
 13 14  1  0
 14 15  1  0
 14 16  2  0
 16 17  1  0
 16 18  1  0
 18 19  2  0
 19 20  1  0
 19 21  1  0
 21 22  1  0
 21 23  2  0
 23 24  1  0
 23 25  1  0
 25 26  1  0
 26 27  1  0
 27 28  2  0
 27 29  1  0
 29 30  1  0
 30 31  1  0
 30 32  1  0
 30 33  1  0
 25 34  2  0
 34 35  1  0
 13 36  2  0
 36 37  1  0
 37 38  2  0
 38 39  1  0
 38  3  1  0
 37  8  1  0
 34 18  1  0
M  CHG  2  26  -1  29  -1
M  END
>  <UniqueID>  (7) 
6

>  <SMILES>  (7) 
C[N-]C(=O)[N-]c1cccc(/C=C\c2ccc3ccc(O)cc3n2)c1

>  <Energy>  (7) 
52.185294831086054

>  <Genealogy>  (7) 
C[N-]C(=O)[N-]c1cccc(C=Cc2ccc3ccc(O)cc3n2)c1 (protonated)
C[N-]C(=O)[N-]c1cccc(/C=C\c2ccc3ccc(O)cc3n2)c1 (cis-trans isomerization)
C[N-]C(=O)[N-]c1cccc(/C=C\c2ccc3ccc(O)cc3n2)c1 (3D coordinates assigned)
C[N-]C(=O)[N-]c1cccc(/C=C\c2ccc3ccc(O)cc3n2)c1 (optimized conformer: 52.185294831086054 kcal/mol)

>  <smiles>  (7) 
CNC(=O)Nc1cccc(C=Cc2ccc3ccc(O)cc3n2)c1

>  <score_type>  (7) 
oracle

>  <origin>  (7) 
adg

>  <m_score__min__energy>  (7) 
-12.49

>  <m_primary>  (7) 
energy

$$$$
7:0
     RDKit          3D

 50 53  0  0  1  0  0  0  0  0999 V2000
   57.0320   21.4760   43.1710 C   0  0  0  0  0  0  0  0  0  0  0  0
   57.1140   22.8980   43.6060 C   0  0  0  0  0  0  0  0  0  0  0  0
   59.1020   27.2770   46.1470 C   0  0  0  0  0  0  0  0  0  0  0  0
   59.2610   28.6440   46.0690 C   0  0  0  0  0  0  0  0  0  0  0  0
   60.4030   29.1680   46.2990 N   0  0  0  0  0  0  0  0  0  0  0  0
   57.8610   26.7270   45.8930 C   0  0  0  0  0  0  0  0  0  0  0  0
   57.4550   23.2520   44.9060 C   0  0  0  0  0  0  0  0  0  0  0  0
   57.0120   28.8250   45.5120 C   0  0  0  0  0  0  0  0  0  0  0  0
   56.0080   29.5740   45.2060 N   0  0  0  0  0  0  0  0  0  0  0  0
   60.7350   29.8920   47.5020 C   0  0  0  0  0  0  0  0  0  0  0  0
   60.2020   31.2880   47.3140 C   0  0  0  0  0  0  0  0  0  0  0  0
   61.0020   32.4190   47.1440 C   0  0  0  0  0  0  0  0  0  0  0  0
   60.1150   33.4780   47.0080 C   0  0  0  0  0  0  0  0  0  0  0  0
   58.8370   32.9450   47.1000 C   0  0  0  0  0  0  0  0  0  0  0  0
   58.9420   31.6500   47.2800 O   0  0  0  0  0  0  0  0  0  0  0  0
   58.1970   29.4060   45.7480 N   0  0  0  0  0  0  0  0  0  0  0  0
   57.4210   24.6410   44.9020 C   0  0  0  0  0  0  0  0  0  0  0  0
   57.6910   25.3310   45.9700 N   0  0  0  0  0  0  0  0  0  0  0  0
   55.6670   30.0370   43.8990 C   0  0  0  0  0  0  0  0  0  0  0  0
   56.6530   31.0510   43.3790 C   0  0  0  0  0  0  0  0  0  0  0  0
   57.0440   31.0880   42.0670 C   0  0  0  0  0  0  0  0  0  0  0  0
   57.9570   32.0320   41.6040 C   0  0  0  0  0  0  0  0  0  0  0  0
   58.4790   32.9500   42.4860 C   0  0  0  0  0  0  0  0  0  0  0  0
   58.1110   32.9450   43.8160 C   0  0  0  0  0  0  0  0  0  0  0  0
   57.1960   31.9920   44.2570 C   0  0  0  0  0  0  0  0  0  0  0  0
   56.7980   31.9570   45.6020 O   0  0  0  0  0  0  0  0  0  0  0  0
   56.8010   27.4970   45.5730 N   0  0  0  0  0  0  0  0  0  0  0  0
   57.0820   25.0860   43.6810 N   0  0  0  0  0  0  0  0  0  0  0  0
   56.9010   24.0190   42.9140 N   0  0  0  0  0  0  0  0  0  0  0  0
   56.9944   20.8235   44.0558 H   0  0  0  0  0  0  0  0  0  0  0  0
   56.1239   21.3288   42.5680 H   0  0  0  0  0  0  0  0  0  0  0  0
   57.9172   21.2254   42.5680 H   0  0  0  0  0  0  0  0  0  0  0  0
   59.9536   26.6318   46.4085 H   0  0  0  0  0  0  0  0  0  0  0  0
   57.6967   22.5847   45.7464 H   0  0  0  0  0  0  0  0  0  0  0  0
   60.2624   29.4179   48.3749 H   0  0  0  0  0  0  0  0  0  0  0  0
   61.8207   29.8983   47.6789 H   0  0  0  0  0  0  0  0  0  0  0  0
   62.1009   32.4620   47.1224 H   0  0  0  0  0  0  0  0  0  0  0  0
   60.3750   34.5360   46.8565 H   0  0  0  0  0  0  0  0  0  0  0  0
   57.8966   33.5117   47.0334 H   0  0  0  0  0  0  0  0  0  0  0  0
   58.3300   30.4350   45.6940 H   0  0  0  0  0  0  0  0  0  0  0  0
   55.6475   29.1776   43.2127 H   0  0  0  0  0  0  0  0  0  0  0  0
   54.6823   30.5236   43.9594 H   0  0  0  0  0  0  0  0  0  0  0  0
   56.6267   30.3542   41.3618 H   0  0  0  0  0  0  0  0  0  0  0  0
   58.2573   32.0437   40.5458 H   0  0  0  0  0  0  0  0  0  0  0  0
   59.2000   33.6986   42.1258 H   0  0  0  0  0  0  0  0  0  0  0  0
   58.5331   33.6811   44.5160 H   0  0  0  0  0  0  0  0  0  0  0  0
   57.0980   31.1890   46.1520 H   0  0  0  0  0  0  0  0  0  0  0  0
   55.8640   27.0830   45.3840 H   0  0  0  0  0  0  0  0  0  0  0  0
   56.9890   26.0810   43.4240 H   0  0  0  0  0  0  0  0  0  0  0  0
   56.6270   24.0000   41.8910 H   0  0  0  0  0  0  0  0  0  0  0  0
  1  2  1  0
  2  3  2  0
  3  4  1  0
  4  5  2  0
  5  6  1  0
  6  7  2  0
  7  8  1  0
  8  9  2  0
  9 10  1  0
 10 11  1  0
 11 12  2  0
 12 13  1  0
 13 14  2  0
 14 15  1  0
  8 16  1  0
 16 17  1  0
 17 18  2  0
 18 19  1  0
 19 20  1  0
 20 21  2  0
 21 22  1  0
 22 23  2  0
 23 24  1  0
 24 25  2  0
 25 26  1  0
 17 27  1  0
  4 28  1  0
 28 29  1  0
 29  2  1  0
 27  6  1  0
 15 11  1  0
 25 20  1  0
  1 30  1  0
  1 31  1  0
  1 32  1  0
  3 33  1  0
  7 34  1  0
 10 35  1  0
 10 36  1  0
 12 37  1  0
 13 38  1  0
 14 39  1  0
 16 40  1  0
 19 41  1  0
 19 42  1  0
 21 43  1  0
 22 44  1  0
 23 45  1  0
 24 46  1  0
 26 47  1  0
 27 48  1  0
 28 49  1  0
 29 50  1  0
M  END
>  <smiles>  (8) 
Cc1cc(=Nc2cc(=NCc3ccco3)[nH]c(=NCc3ccccc3O)[nH]2)[nH][nH]1

>  <score_type>  (8) 
oracle

>  <origin>  (8) 
adg

>  <m_score__min__energy>  (8) 
-8.7400000000000002

>  <m_primary>  (8) 
energy

$$$$
8:0
     RDKit          3D

 38 40  0  0  0  0  0  0  0  0999 V2000
   55.3870   26.5560   46.0220 N   0  0  0  0  0  0  0  0  0  0  0  0
   57.1100   26.5530   46.1440 S   0  0  0  0  0  0  0  0  0  0  0  0
   57.6880   25.7090   45.0430 O   0  0  0  0  0  0  0  0  0  0  0  0
   57.5200   25.9680   47.4660 O   0  0  0  0  0  0  0  0  0  0  0  0
   57.7120   28.2030   46.0100 C   0  0  0  0  0  0  0  0  0  0  0  0
   57.0030   29.1550   45.2670 C   0  0  0  0  0  0  0  0  0  0  0  0
   57.4750   30.4670   45.1700 C   0  0  0  0  0  0  0  0  0  0  0  0
   58.6570   30.8470   45.8300 C   0  0  0  0  0  0  0  0  0  0  0  0
   59.1780   32.1840   45.7270 N   0  0  0  0  0  0  0  0  0  0  0  0
   58.3640   33.3660   45.6820 C   0  0  0  0  0  0  0  0  0  0  0  0
   57.1380   33.3140   45.9710 O   0  0  0  0  0  0  0  0  0  0  0  0
   58.9920   34.6890   45.3860 C   0  0  0  0  0  0  0  0  0  0  0  0
   59.8220   35.0680   46.4780 O   0  0  0  0  0  0  0  0  0  0  0  0
   60.7870   34.2180   47.0310 C   0  0  0  0  0  0  0  0  0  0  0  0
   61.8210   33.7640   46.2710 N   0  0  0  0  0  0  0  0  0  0  0  0
   62.7700   32.9380   46.7850 C   0  0  0  0  0  0  0  0  0  0  0  0
   62.7010   32.5470   48.0830 N   0  0  0  0  0  0  0  0  0  0  0  0
   61.6930   32.9690   48.8890 C   0  0  0  0  0  0  0  0  0  0  0  0
   61.6400   32.5550   50.2240 C   0  0  0  0  0  0  0  0  0  0  0  0
   60.5990   32.9900   51.0510 C   0  0  0  0  0  0  0  0  0  0  0  0
   59.6100   33.8400   50.5470 C   0  0  0  0  0  0  0  0  0  0  0  0
   59.6540   34.2600   49.2140 C   0  0  0  0  0  0  0  0  0  0  0  0
   60.6960   33.8270   48.3750 C   0  0  0  0  0  0  0  0  0  0  0  0
   59.3710   29.8860   46.5600 C   0  0  0  0  0  0  0  0  0  0  0  0
   58.8970   28.5740   46.6570 C   0  0  0  0  0  0  0  0  0  0  0  0
   55.1430   27.1000   45.1640 H   0  0  0  0  0  0  0  0  0  0  0  0
   56.0709   28.8691   44.7577 H   0  0  0  0  0  0  0  0  0  0  0  0
   56.9190   31.2060   44.5744 H   0  0  0  0  0  0  0  0  0  0  0  0
   60.2150   32.3110   45.7730 H   0  0  0  0  0  0  0  0  0  0  0  0
   59.5991   34.6118   44.4720 H   0  0  0  0  0  0  0  0  0  0  0  0
   58.2074   35.4457   45.2383 H   0  0  0  0  0  0  0  0  0  0  0  0
   63.5950   32.5859   46.1483 H   0  0  0  0  0  0  0  0  0  0  0  0
   62.4172   31.8871   50.6237 H   0  0  0  0  0  0  0  0  0  0  0  0
   60.5585   32.6625   52.1003 H   0  0  0  0  0  0  0  0  0  0  0  0
   58.7940   34.1797   51.2017 H   0  0  0  0  0  0  0  0  0  0  0  0
   58.8737   34.9289   48.8219 H   0  0  0  0  0  0  0  0  0  0  0  0
   60.3101   30.1660   47.0596 H   0  0  0  0  0  0  0  0  0  0  0  0
   59.4570   27.8309   47.2436 H   0  0  0  0  0  0  0  0  0  0  0  0
  1  2  1  0
  2  3  2  0
  2  4  2  0
  2  5  1  0
  5  6  2  0
  6  7  1  0
  7  8  2  0
  8  9  1  0
  9 10  1  0
 10 11  2  0
 10 12  1  0
 12 13  1  0
 13 14  1  0
 14 15  2  0
 15 16  1  0
 16 17  2  0
 17 18  1  0
 18 19  2  0
 19 20  1  0
 20 21  2  0
 21 22  1  0
 22 23  2  0
  8 24  1  0
 24 25  2  0
 25  5  1  0
 23 14  1  0
 23 18  1  0
  1 26  1  0
  6 27  1  0
  7 28  1  0
  9 29  1  0
 12 30  1  0
 12 31  1  0
 16 32  1  0
 19 33  1  0
 20 34  1  0
 21 35  1  0
 22 36  1  0
 24 37  1  0
 25 38  1  0
M  CHG  1   1  -1
M  END
>  <UniqueID>  (9) 
7

>  <SMILES>  (9) 
[NH-]S(=O)(=O)c1ccc(NC(=O)COc2ncnc3ccccc23)cc1

>  <Energy>  (9) 
44.76721234944236

>  <Genealogy>  (9) 
[NH-]S(=O)(=O)c1ccc(NC(=O)COc2ncnc3ccccc23)cc1 (protonated)
[NH-]S(=O)(=O)c1ccc(NC(=O)COc2ncnc3ccccc23)cc1 (3D coordinates assigned)
[NH-]S(=O)(=O)c1ccc(NC(=O)COc2ncnc3ccccc23)cc1 (optimized conformer: 44.76721234944236 kcal/mol)

>  <smiles>  (9) 
NS(=O)(=O)c1ccc(NC(=O)COc2ncnc3ccccc23)cc1

>  <score_type>  (9) 
oracle

>  <origin>  (9) 
adg

>  <m_score__min__energy>  (9) 
-11.050000000000001

>  <m_primary>  (9) 
energy

$$$$
9:0
     RDKit          3D

 30 32  0  0  0  0  0  0  0  0999 V2000
   58.4370   32.1450   42.1520 O   0  0  0  0  0  0  0  0  0  0  0  0
   57.8860   32.1940   43.2850 C   0  0  0  0  0  0  0  0  0  0  0  0
   57.8510   33.4520   43.9770 N   0  0  0  0  0  0  0  0  0  0  0  0
   58.3230   33.7120   45.1650 C   0  0  0  0  0  0  0  0  0  0  0  0
   59.3240   34.6830   45.3830 C   0  0  0  0  0  0  0  0  0  0  0  0
   59.7920   34.9120   46.6760 C   0  0  0  0  0  0  0  0  0  0  0  0
   59.2780   34.1770   47.7430 C   0  0  0  0  0  0  0  0  0  0  0  0
   58.3010   33.2110   47.4970 C   0  0  0  0  0  0  0  0  0  0  0  0
   57.8530   32.9970   46.2300 N   0  0  0  0  0  0  0  0  0  0  0  0
   57.3630   30.9480   43.9000 C   0  0  0  0  0  0  0  0  0  0  0  0
   55.9990   30.6170   43.8010 C   0  0  0  0  0  0  0  0  0  0  0  0
   55.5080   29.4430   44.3800 C   0  0  0  0  0  0  0  0  0  0  0  0
   56.3700   28.5880   45.0710 C   0  0  0  0  0  0  0  0  0  0  0  0
   55.8930   27.4450   45.6350 N   0  0  0  0  0  0  0  0  0  0  0  0
   56.7030   26.5910   46.3160 C   0  0  0  0  0  0  0  0  0  0  0  0
   56.2240   25.5430   46.8220 O   0  0  0  0  0  0  0  0  0  0  0  0
   58.0660   26.8750   46.4530 C   0  0  0  0  0  0  0  0  0  0  0  0
   58.5860   28.0410   45.8860 C   0  0  0  0  0  0  0  0  0  0  0  0
   57.7400   28.9120   45.1870 C   0  0  0  0  0  0  0  0  0  0  0  0
   58.2280   30.0910   44.6040 C   0  0  0  0  0  0  0  0  0  0  0  0
   59.7325   35.2558   44.5374 H   0  0  0  0  0  0  0  0  0  0  0  0
   60.5666   35.6724   46.8542 H   0  0  0  0  0  0  0  0  0  0  0  0
   59.6381   34.3561   48.7668 H   0  0  0  0  0  0  0  0  0  0  0  0
   57.8918   32.6207   48.3301 H   0  0  0  0  0  0  0  0  0  0  0  0
   57.1210   32.2650   46.0790 H   0  0  0  0  0  0  0  0  0  0  0  0
   55.3129   31.2879   43.2633 H   0  0  0  0  0  0  0  0  0  0  0  0
   54.4407   29.1920   44.2913 H   0  0  0  0  0  0  0  0  0  0  0  0
   58.7232   26.1854   47.0030 H   0  0  0  0  0  0  0  0  0  0  0  0
   59.6561   28.2745   45.9880 H   0  0  0  0  0  0  0  0  0  0  0  0
   59.2937   30.3468   44.6980 H   0  0  0  0  0  0  0  0  0  0  0  0
  1  2  2  0
  2  3  1  0
  3  4  2  3
  4  5  1  0
  5  6  2  0
  6  7  1  0
  7  8  2  0
  8  9  1  0
  2 10  1  0
 10 11  2  0
 11 12  1  0
 12 13  2  0
 13 14  1  0
 14 15  1  0
 15 16  2  0
 15 17  1  0
 17 18  2  0
 18 19  1  0
 19 20  2  0
  9  4  1  0
 20 10  1  0
 19 13  1  0
  5 21  1  0
  6 22  1  0
  7 23  1  0
  8 24  1  0
  9 25  1  0
 11 26  1  0
 12 27  1  0
 17 28  1  0
 18 29  1  0
 20 30  1  0
M  CHG  1  14  -1
M  END
>  <UniqueID>  (10) 
8

>  <SMILES>  (10) 
O=C(N=c1cccc[nH]1)c1ccc2[n-]c(=O)ccc2c1

>  <Energy>  (10) 
47.32024393796334

>  <Genealogy>  (10) 
O=C(N=c1cccc[nH]1)c1ccc2[n-]c(=O)ccc2c1 (protonated)
O=C(N=c1cccc[nH]1)c1ccc2[n-]c(=O)ccc2c1 (3D coordinates assigned)
O=C(N=c1cccc[nH]1)c1ccc2[n-]c(=O)ccc2c1 (optimized conformer: 47.32024393796334 kcal/mol)

>  <smiles>  (10) 
O=C(N=c1cccc[nH]1)c1ccc2[nH]c(=O)ccc2c1

>  <score_type>  (10) 
oracle

>  <origin>  (10) 
adg

>  <m_score__min__energy>  (10) 
-9.5299999999999994

>  <m_primary>  (10) 
energy

$$$$
10:0
     RDKit          3D

 55 58  0  0  0  0  0  0  0  0999 V2000
   63.3950   33.8060   49.9730 C   0  0  0  0  0  0  0  0  0  0  0  0
   63.3120   32.7890   48.8290 C   0  0  0  0  0  0  0  0  0  0  0  0
   64.1240   33.2540   47.6190 C   0  0  0  0  0  0  0  0  0  0  0  0
   61.9140   32.5500   48.4370 N   0  0  0  0  0  0  0  0  0  0  0  0
   61.1610   33.3470   47.6370 C   0  0  0  0  0  0  0  0  0  0  0  0
   59.9060   32.7850   47.4230 C   0  0  0  0  0  0  0  0  0  0  0  0
   58.8270   33.3330   46.5730 C   0  0  0  0  0  0  0  0  0  0  0  0
   58.2230   34.3760   46.9450 O   0  0  0  0  0  0  0  0  0  0  0  0
   58.4180   32.6780   45.3080 C   0  0  0  0  0  0  0  0  0  0  0  0
   58.1270   33.4500   44.1730 C   0  0  0  0  0  0  0  0  0  0  0  0
   57.7710   32.8480   43.0080 N   0  0  0  0  0  0  0  0  0  0  0  0
   57.6790   31.4970   42.8950 C   0  0  0  0  0  0  0  0  0  0  0  0
   57.9520   30.6770   44.0000 C   0  0  0  0  0  0  0  0  0  0  0  0
   57.9040   29.2440   43.9090 N   0  0  0  0  0  0  0  0  0  0  0  0
   57.5200   28.3830   44.9980 C   0  0  0  0  0  0  0  0  0  0  0  0
   57.2500   28.8770   46.1270 O   0  0  0  0  0  0  0  0  0  0  0  0
   57.4410   26.9130   44.8230 C   0  0  0  0  0  0  0  0  0  0  0  0
   57.0090   26.0710   45.8650 C   0  0  0  0  0  0  0  0  0  0  0  0
   56.9370   24.6870   45.6750 C   0  0  0  0  0  0  0  0  0  0  0  0
   57.2930   24.1240   44.4440 C   0  0  0  0  0  0  0  0  0  0  0  0
   57.1850   22.3840   44.1990 S   0  0  0  0  0  0  0  0  0  0  0  0
   56.6940   21.6010   45.7180 C   0  0  0  0  0  0  0  0  0  0  0  0
   58.5200   21.8450   43.7660 O   0  0  0  0  0  0  0  0  0  0  0  0
   56.1750   22.0840   43.1270 O   0  0  0  0  0  0  0  0  0  0  0  0
   57.7000   24.9560   43.3950 C   0  0  0  0  0  0  0  0  0  0  0  0
   57.7730   26.3390   43.5810 C   0  0  0  0  0  0  0  0  0  0  0  0
   58.3510   31.2800   45.1990 C   0  0  0  0  0  0  0  0  0  0  0  0
   59.9220   31.5800   48.1020 C   0  0  0  0  0  0  0  0  0  0  0  0
   58.9620   30.5780   48.2410 C   0  0  0  0  0  0  0  0  0  0  0  0
   59.2800   29.4760   48.9800 N   0  0  0  0  0  0  0  0  0  0  0  0
   60.5020   29.3310   49.5790 C   0  0  0  0  0  0  0  0  0  0  0  0
   61.4800   30.3320   49.4540 C   0  0  0  0  0  0  0  0  0  0  0  0
   61.1510   31.4650   48.7040 C   0  0  0  0  0  0  0  0  0  0  0  0
   63.3519   33.2779   50.9370 H   0  0  0  0  0  0  0  0  0  0  0  0
   64.3415   34.3619   49.9015 H   0  0  0  0  0  0  0  0  0  0  0  0
   62.5512   34.5080   49.9015 H   0  0  0  0  0  0  0  0  0  0  0  0
   63.7405   31.8441   49.1943 H   0  0  0  0  0  0  0  0  0  0  0  0
   65.0306   33.7732   47.9634 H   0  0  0  0  0  0  0  0  0  0  0  0
   64.4090   32.3822   47.0117 H   0  0  0  0  0  0  0  0  0  0  0  0
   63.5164   33.9410   47.0117 H   0  0  0  0  0  0  0  0  0  0  0  0
   61.4968   34.3059   47.2155 H   0  0  0  0  0  0  0  0  0  0  0  0
   58.1873   34.5470   44.2266 H   0  0  0  0  0  0  0  0  0  0  0  0
   57.3897   31.0452   41.9347 H   0  0  0  0  0  0  0  0  0  0  0  0
   58.2250   28.8170   43.0120 H   0  0  0  0  0  0  0  0  0  0  0  0
   56.7260   26.5044   46.8356 H   0  0  0  0  0  0  0  0  0  0  0  0
   56.5991   24.0383   46.4966 H   0  0  0  0  0  0  0  0  0  0  0  0
   57.0634   22.1901   46.5703 H   0  0  0  0  0  0  0  0  0  0  0  0
   55.5965   21.5414   45.7617 H   0  0  0  0  0  0  0  0  0  0  0  0
   57.1183   20.5871   45.7617 H   0  0  0  0  0  0  0  0  0  0  0  0
   57.9635   24.5196   42.4202 H   0  0  0  0  0  0  0  0  0  0  0  0
   58.0926   26.9848   42.7499 H   0  0  0  0  0  0  0  0  0  0  0  0
   58.6143   30.6527   46.0634 H   0  0  0  0  0  0  0  0  0  0  0  0
   57.9739   30.6736   47.7671 H   0  0  0  0  0  0  0  0  0  0  0  0
   60.7200   28.4243   50.1624 H   0  0  0  0  0  0  0  0  0  0  0  0
   62.4671   30.2281   49.9283 H   0  0  0  0  0  0  0  0  0  0  0  0
  1  2  1  0
  2  3  1  0
  2  4  1  0
  4  5  1  0
  5  6  2  0
  6  7  1  0
  7  8  2  0
  7  9  1  0
  9 10  2  0
 10 11  1  0
 11 12  2  0
 12 13  1  0
 13 14  1  0
 14 15  1  0
 15 16  2  0
 15 17  1  0
 17 18  2  0
 18 19  1  0
 19 20  2  0
 20 21  1  0
 21 22  1  0
 21 23  2  0
 21 24  2  0
 20 25  1  0
 25 26  2  0
 13 27  2  0
  6 28  1  0
 28 29  2  0
 29 30  1  0
 30 31  2  0
 31 32  1  0
 32 33  2  0
 33  4  1  0
 27  9  1  0
 33 28  1  0
 26 17  1  0
  1 34  1  0
  1 35  1  0
  1 36  1  0
  2 37  1  0
  3 38  1  0
  3 39  1  0
  3 40  1  0
  5 41  1  0
 10 42  1  0
 12 43  1  0
 14 44  1  0
 18 45  1  0
 19 46  1  0
 22 47  1  0
 22 48  1  0
 22 49  1  0
 25 50  1  0
 26 51  1  0
 27 52  1  0
 29 53  1  0
 31 54  1  0
 32 55  1  0
M  END
>  <UniqueID>  (11) 
9

>  <SMILES>  (11) 
CC(C)n1cc(C(=O)c2cncc(NC(=O)c3ccc(S(C)(=O)=O)cc3)c2)c2cnccc21

>  <Energy>  (11) 
100.86802432395868

>  <Genealogy>  (11) 
CC(C)n1cc(C(=O)c2cncc(NC(=O)c3ccc(S(C)(=O)=O)cc3)c2)c2cnccc21 (3D coordinates assigned)
CC(C)n1cc(C(=O)c2cncc(NC(=O)c3ccc(S(C)(=O)=O)cc3)c2)c2cnccc21 (optimized conformer: 100.86802432395868 kcal/mol)

>  <smiles>  (11) 
CC(C)n1cc(C(=O)c2cncc(NC(=O)c3ccc(S(C)(=O)=O)cc3)c2)c2cnccc21

>  <score_type>  (11) 
oracle

>  <origin>  (11) 
adg

>  <m_score__min__energy>  (11) 
-10.130000000000001

>  <m_primary>  (11) 
energy

$$$$
11:0
     RDKit          3D

 33 35  0  0  0  0  0  0  0  0999 V2000
   56.2352   31.5271   43.7204 H   0  0  0  0  0  0  0  0  0  0  0  0
   56.8280   30.7710   44.2560 C   0  0  0  0  0  0  0  0  0  0  0  0
   56.6470   29.1020   44.1250 S   0  0  0  0  0  0  0  0  0  0  0  0
   57.8770   28.7830   45.2150 C   0  0  0  0  0  0  0  0  0  0  0  0
   58.2430   27.5830   45.5550 N   0  0  0  0  0  0  0  0  0  0  0  0
   57.7360   26.3570   45.0060 C   0  0  0  0  0  0  0  0  0  0  0  0
   57.7150   26.1580   43.7600 O   0  0  0  0  0  0  0  0  0  0  0  0
   57.2660   25.2810   45.9320 C   0  0  0  0  0  0  0  0  0  0  0  0
   58.0108   24.4719   45.9579 H   0  0  0  0  0  0  0  0  0  0  0  0
   57.1377   25.7029   46.9397 H   0  0  0  0  0  0  0  0  0  0  0  0
   55.9430   24.7280   45.4540 C   0  0  0  0  0  0  0  0  0  0  0  0
   54.7510   25.4540   45.6270 C   0  0  0  0  0  0  0  0  0  0  0  0
   54.7700   26.7150   46.2160 O   0  0  0  0  0  0  0  0  0  0  0  0
   53.5670   24.9270   45.2180 N   0  0  0  0  0  0  0  0  0  0  0  0
   52.6880   25.4770   45.3470 H   0  0  0  0  0  0  0  0  0  0  0  0
   53.5100   23.6920   44.6510 C   0  0  0  0  0  0  0  0  0  0  0  0
   52.4060   23.2160   44.2780 O   0  0  0  0  0  0  0  0  0  0  0  0
   54.6450   22.9660   44.4880 N   0  0  0  0  0  0  0  0  0  0  0  0
   55.8520   23.4490   44.8780 C   0  0  0  0  0  0  0  0  0  0  0  0
   56.8800   22.7380   44.7200 O   0  0  0  0  0  0  0  0  0  0  0  0
   58.4390   29.9160   45.6890 N   0  0  0  0  0  0  0  0  0  0  0  0
   57.8630   31.0320   45.1640 C   0  0  0  0  0  0  0  0  0  0  0  0
   58.3290   32.3940   45.5430 C   0  0  0  0  0  0  0  0  0  0  0  0
   58.4620   33.3880   44.5530 C   0  0  0  0  0  0  0  0  0  0  0  0
   58.2195   33.1502   43.5068 H   0  0  0  0  0  0  0  0  0  0  0  0
   58.8990   34.6730   44.8870 C   0  0  0  0  0  0  0  0  0  0  0  0
   58.9965   35.4401   44.1047 H   0  0  0  0  0  0  0  0  0  0  0  0
   59.2120   34.9850   46.2110 C   0  0  0  0  0  0  0  0  0  0  0  0
   59.5544   35.9972   46.4721 H   0  0  0  0  0  0  0  0  0  0  0  0
   59.0900   34.0110   47.2030 C   0  0  0  0  0  0  0  0  0  0  0  0
   59.3384   34.2566   48.2461 H   0  0  0  0  0  0  0  0  0  0  0  0
   58.6530   32.7240   46.8750 C   0  0  0  0  0  0  0  0  0  0  0  0
   58.5611   31.9621   47.6631 H   0  0  0  0  0  0  0  0  0  0  0  0
  1  2  1  0
  2  3  1  0
  3  4  1  0
  4  5  2  0
  5  6  1  0
  6  7  2  0
  6  8  1  0
  8  9  1  0
  8 10  1  0
  8 11  1  0
 11 12  2  0
 12 13  1  0
 12 14  1  0
 14 15  1  0
 14 16  1  0
 16 17  2  0
 16 18  1  0
 18 19  1  0
 19 20  2  0
  4 21  1  0
 21 22  1  0
 22 23  1  0
 23 24  2  0
 24 25  1  0
 24 26  1  0
 26 27  1  0
 26 28  2  0
 28 29  1  0
 28 30  1  0
 30 31  1  0
 30 32  2  0
 32 33  1  0
 22  2  2  0
 32 23  1  0
 19 11  1  0
M  CHG  3  13  -1  18  -1  21  -1
M  END
>  <UniqueID>  (12) 
10

>  <SMILES>  (12) 
O=C(Cc1c([O-])[nH]c(=O)[n-]c1=O)/N=c1\[n-]c(-c2ccccc2)cs1

>  <Energy>  (12) 
70.42088982549052

>  <Genealogy>  (12) 
O=C(Cc1c([O-])[nH]c(=O)[n-]c1=O)N=c1[n-]c(-c2ccccc2)cs1 (protonated)
O=C(Cc1c([O-])[nH]c(=O)[n-]c1=O)/N=c1\[n-]c(-c2ccccc2)cs1 (cis-trans isomerization)
O=C(Cc1c([O-])[nH]c(=O)[n-]c1=O)/N=c1\[n-]c(-c2ccccc2)cs1 (3D coordinates assigned)
O=C(Cc1c([O-])[nH]c(=O)[n-]c1=O)/N=c1\[n-]c(-c2ccccc2)cs1 (optimized conformer: 70.42088982549052 kcal/mol)

>  <smiles>  (12) 
O=C(Cc1c(O)[nH]c(=O)[nH]c1=O)N=c1[nH]c(-c2ccccc2)cs1

>  <score_type>  (12) 
oracle

>  <origin>  (12) 
adg

>  <m_score__min__energy>  (12) 
-14.83

>  <m_primary>  (12) 
energy

$$$$
12:0
     RDKit          3D

 43 45  0  0  0  0  0  0  0  0999 V2000
   64.1360   32.6700   46.9910 N   0  0  0  0  0  0  0  0  0  0  0  0
   62.7710   32.6530   47.4190 C   0  0  0  0  0  0  0  0  0  0  0  0
   62.3890   31.8870   48.5290 C   0  0  0  0  0  0  0  0  0  0  0  0
   61.0530   31.8620   48.9420 C   0  0  0  0  0  0  0  0  0  0  0  0
   60.0930   32.6050   48.2500 C   0  0  0  0  0  0  0  0  0  0  0  0
   60.4640   33.3740   47.1390 C   0  0  0  0  0  0  0  0  0  0  0  0
   59.2620   34.3030   46.2500 S   0  0  0  0  0  0  0  0  0  0  0  0
   59.6920   35.7420   46.2040 O   0  0  0  0  0  0  0  0  0  0  0  0
   57.9170   34.2190   46.9170 O   0  0  0  0  0  0  0  0  0  0  0  0
   59.1300   33.6960   44.6320 N   0  0  0  0  0  0  0  0  0  0  0  0
   58.4780   32.4740   44.2580 C   0  0  0  0  0  0  0  0  0  0  0  0
   57.7840   32.4310   43.0430 C   0  0  0  0  0  0  0  0  0  0  0  0
   57.1370   31.2610   42.6410 C   0  0  0  0  0  0  0  0  0  0  0  0
   57.1750   30.1220   43.4490 C   0  0  0  0  0  0  0  0  0  0  0  0
   57.8720   30.1390   44.6710 C   0  0  0  0  0  0  0  0  0  0  0  0
   57.9350   28.9210   45.5220 C   0  0  0  0  0  0  0  0  0  0  0  0
   58.9300   28.7870   46.5080 C   0  0  0  0  0  0  0  0  0  0  0  0
   58.9900   27.6390   47.3030 C   0  0  0  0  0  0  0  0  0  0  0  0
   58.0560   26.6150   47.1300 C   0  0  0  0  0  0  0  0  0  0  0  0
   57.0540   26.7340   46.1600 C   0  0  0  0  0  0  0  0  0  0  0  0
   55.8850   25.4360   45.9420 S   0  0  0  0  0  0  0  0  0  0  0  0
   56.2650   24.5560   44.5040 N   0  0  0  0  0  0  0  0  0  0  0  0
   55.9330   24.5120   47.1270 O   0  0  0  0  0  0  0  0  0  0  0  0
   54.4990   26.0060   45.8330 O   0  0  0  0  0  0  0  0  0  0  0  0
   57.0020   27.8800   45.3520 C   0  0  0  0  0  0  0  0  0  0  0  0
   58.5210   31.3240   45.0690 C   0  0  0  0  0  0  0  0  0  0  0  0
   61.8040   33.3970   46.7260 C   0  0  0  0  0  0  0  0  0  0  0  0
   64.7990   33.3910   47.3530 H   0  0  0  0  0  0  0  0  0  0  0  0
   64.5010   31.9480   46.3330 H   0  0  0  0  0  0  0  0  0  0  0  0
   63.1430   31.3032   49.0774 H   0  0  0  0  0  0  0  0  0  0  0  0
   60.7578   31.2571   49.8120 H   0  0  0  0  0  0  0  0  0  0  0  0
   59.0433   32.5862   48.5783 H   0  0  0  0  0  0  0  0  0  0  0  0
   57.7483   33.3239   42.4016 H   0  0  0  0  0  0  0  0  0  0  0  0
   56.5951   31.2359   41.6841 H   0  0  0  0  0  0  0  0  0  0  0  0
   56.6569   29.2064   43.1279 H   0  0  0  0  0  0  0  0  0  0  0  0
   59.6658   29.5915   46.6541 H   0  0  0  0  0  0  0  0  0  0  0  0
   59.7752   27.5417   48.0672 H   0  0  0  0  0  0  0  0  0  0  0  0
   58.1080   25.7130   47.7575 H   0  0  0  0  0  0  0  0  0  0  0  0
   56.3270   25.2540   43.7270 H   0  0  0  0  0  0  0  0  0  0  0  0
   55.4460   23.9420   44.2950 H   0  0  0  0  0  0  0  0  0  0  0  0
   56.2249   27.9661   44.5783 H   0  0  0  0  0  0  0  0  0  0  0  0
   59.0672   31.3512   46.0235 H   0  0  0  0  0  0  0  0  0  0  0  0
   62.0983   34.0009   45.8550 H   0  0  0  0  0  0  0  0  0  0  0  0
  1  2  1  0
  2  3  2  0
  3  4  1  0
  4  5  2  0
  5  6  1  0
  6  7  1  0
  7  8  2  0
  7  9  2  0
  7 10  1  0
 10 11  1  0
 11 12  2  0
 12 13  1  0
 13 14  2  0
 14 15  1  0
 15 16  1  0
 16 17  2  0
 17 18  1  0
 18 19  2  0
 19 20  1  0
 20 21  1  0
 21 22  1  0
 21 23  2  0
 21 24  2  0
 20 25  2  0
 15 26  2  0
  6 27  2  0
 27  2  1  0
 26 11  1  0
 25 16  1  0
  1 28  1  0
  1 29  1  0
  3 30  1  0
  4 31  1  0
  5 32  1  0
 12 33  1  0
 13 34  1  0
 14 35  1  0
 17 36  1  0
 18 37  1  0
 19 38  1  0
 22 39  1  0
 22 40  1  0
 25 41  1  0
 26 42  1  0
 27 43  1  0
M  CHG  1  10  -1
M  END
>  <UniqueID>  (13) 
11

>  <SMILES>  (13) 
Nc1cccc(S(=O)(=O)[N-]c2cccc(-c3cccc(S(N)(=O)=O)c3)c2)c1

>  <Energy>  (13) 
51.03495809849151

>  <Genealogy>  (13) 
Nc1cccc(S(=O)(=O)[N-]c2cccc(-c3cccc(S(N)(=O)=O)c3)c2)c1 (protonated)
Nc1cccc(S(=O)(=O)[N-]c2cccc(-c3cccc(S(N)(=O)=O)c3)c2)c1 (3D coordinates assigned)
Nc1cccc(S(=O)(=O)[N-]c2cccc(-c3cccc(S(N)(=O)=O)c3)c2)c1 (optimized conformer: 51.03495809849151 kcal/mol)

>  <smiles>  (13) 
Nc1cccc(S(=O)(=O)Nc2cccc(-c3cccc(S(N)(=O)=O)c3)c2)c1

>  <score_type>  (13) 
oracle

>  <origin>  (13) 
adg

>  <m_score__min__energy>  (13) 
-10.48

>  <m_primary>  (13) 
energy

$$$$
13:0
     RDKit          3D

 38 40  0  0  0  0  0  0  0  0999 V2000
   59.9883   34.8141   50.1655 H   0  0  0  0  0  0  0  0  0  0  0  0
   60.0060   34.1470   49.2910 C   0  0  0  0  0  0  0  0  0  0  0  0
   60.3810   34.6530   48.1510 N   0  0  0  0  0  0  0  0  0  0  0  0
   60.5850   33.9680   46.9060 C   0  0  0  0  0  0  0  0  0  0  0  0
   61.7460   33.6620   46.5200 O   0  0  0  0  0  0  0  0  0  0  0  0
   59.4260   33.5300   46.1180 C   0  0  0  0  0  0  0  0  0  0  0  0
   58.4020   32.2560   46.5280 S   0  0  0  0  0  0  0  0  0  0  0  0
   57.4080   32.4150   45.1780 C   0  0  0  0  0  0  0  0  0  0  0  0
   56.2690   31.6070   44.8720 N   0  0  0  0  0  0  0  0  0  0  0  0
   56.3960   30.0090   44.2180 S   0  0  0  0  0  0  0  0  0  0  0  0
   55.1650   29.2270   44.5730 O   0  0  0  0  0  0  0  0  0  0  0  0
   56.5020   30.1000   42.7200 O   0  0  0  0  0  0  0  0  0  0  0  0
   57.8030   29.2000   44.8960 C   0  0  0  0  0  0  0  0  0  0  0  0
   59.0890   29.6000   44.5050 C   0  0  0  0  0  0  0  0  0  0  0  0
   59.2122   30.4221   43.7846 H   0  0  0  0  0  0  0  0  0  0  0  0
   60.2150   28.9570   45.0280 C   0  0  0  0  0  0  0  0  0  0  0  0
   61.2221   29.2765   44.7218 H   0  0  0  0  0  0  0  0  0  0  0  0
   60.0620   27.9080   45.9400 C   0  0  0  0  0  0  0  0  0  0  0  0
   60.9481   27.3985   46.3465 H   0  0  0  0  0  0  0  0  0  0  0  0
   58.7810   27.5070   46.3350 C   0  0  0  0  0  0  0  0  0  0  0  0
   58.6606   26.6843   47.0552 H   0  0  0  0  0  0  0  0  0  0  0  0
   57.6550   28.1500   45.8160 C   0  0  0  0  0  0  0  0  0  0  0  0
   56.6493   27.8328   46.1290 H   0  0  0  0  0  0  0  0  0  0  0  0
   57.8610   33.4590   44.3880 C   0  0  0  0  0  0  0  0  0  0  0  0
   57.3798   33.7629   43.4466 H   0  0  0  0  0  0  0  0  0  0  0  0
   58.9960   34.0860   44.9150 C   0  0  0  0  0  0  0  0  0  0  0  0
   59.4989   34.9341   44.4274 H   0  0  0  0  0  0  0  0  0  0  0  0
   59.6030   32.7410   49.4920 C   0  0  0  0  0  0  0  0  0  0  0  0
   60.2340   31.6930   49.0130 O   0  0  0  0  0  0  0  0  0  0  0  0
   59.6130   30.6110   49.4250 C   0  0  0  0  0  0  0  0  0  0  0  0
   60.0450   29.2220   49.0960 C   0  0  0  0  0  0  0  0  0  0  0  0
   60.2192   28.6620   50.0267 H   0  0  0  0  0  0  0  0  0  0  0  0
   59.2596   28.7230   48.5093 H   0  0  0  0  0  0  0  0  0  0  0  0
   60.9749   29.2565   48.5093 H   0  0  0  0  0  0  0  0  0  0  0  0
   58.5390   30.9530   50.2210 C   0  0  0  0  0  0  0  0  0  0  0  0
   57.8339   30.2689   50.7157 H   0  0  0  0  0  0  0  0  0  0  0  0
   58.5340   32.3320   50.2670 C   0  0  0  0  0  0  0  0  0  0  0  0
   57.8246   32.9743   50.8093 H   0  0  0  0  0  0  0  0  0  0  0  0
  1  2  1  0
  2  3  2  0
  3  4  1  0
  4  5  2  0
  4  6  1  0
  6  7  1  0
  7  8  1  0
  8  9  1  0
  9 10  1  0
 10 11  2  0
 10 12  2  0
 10 13  1  0
 13 14  2  0
 14 15  1  0
 14 16  1  0
 16 17  1  0
 16 18  2  0
 18 19  1  0
 18 20  1  0
 20 21  1  0
 20 22  2  0
 22 23  1  0
  8 24  2  0
 24 25  1  0
 24 26  1  0
 26 27  1  0
  2 28  1  0
 28 29  1  0
 29 30  1  0
 30 31  1  0
 31 32  1  0
 31 33  1  0
 31 34  1  0
 30 35  2  0
 35 36  1  0
 35 37  1  0
 37 38  1  0
 26  6  2  0
 37 28  2  0
 22 13  1  0
M  CHG  1   9  -1
M  END
>  <UniqueID>  (14) 
12

>  <SMILES>  (14) 
Cc1ccc(/C=N\C(=O)c2ccc([N-]S(=O)(=O)c3ccccc3)s2)o1

>  <Energy>  (14) 
99.13226437490803

>  <Genealogy>  (14) 
Cc1ccc(C=NC(=O)c2ccc([N-]S(=O)(=O)c3ccccc3)s2)o1 (protonated)
Cc1ccc(/C=N\C(=O)c2ccc([N-]S(=O)(=O)c3ccccc3)s2)o1 (cis-trans isomerization)
Cc1ccc(/C=N\C(=O)c2ccc([N-]S(=O)(=O)c3ccccc3)s2)o1 (3D coordinates assigned)
Cc1ccc(/C=N\C(=O)c2ccc([N-]S(=O)(=O)c3ccccc3)s2)o1 (optimized conformer: 99.13226437490803 kcal/mol)

>  <smiles>  (14) 
Cc1ccc(C=NC(=O)c2ccc(NS(=O)(=O)c3ccccc3)s2)o1

>  <score_type>  (14) 
oracle

>  <origin>  (14) 
adg

>  <m_score__min__energy>  (14) 
-10.08

>  <m_primary>  (14) 
energy

$$$$
14:0
     RDKit          3D

 62 65  0  0  0  0  0  0  0  0999 V2000
   59.6809   27.4290   49.0194 H   0  0  0  0  0  0  0  0  0  0  0  0
   59.3210   28.1420   48.2630 C   0  0  0  0  0  0  0  0  0  0  0  0
   59.5580   27.8010   46.8420 C   0  0  0  0  0  0  0  0  0  0  0  0
   60.7170   27.8610   46.3470 O   0  0  0  0  0  0  0  0  0  0  0  0
   58.4160   27.3490   45.9790 C   0  0  0  0  0  0  0  0  0  0  0  0
   58.7928   26.6505   45.2174 H   0  0  0  0  0  0  0  0  0  0  0  0
   57.6670   26.8524   46.6133 H   0  0  0  0  0  0  0  0  0  0  0  0
   57.7690   28.5280   45.2940 C   0  0  0  0  0  0  0  0  0  0  0  0
   58.5690   29.5930   44.8420 C   0  0  0  0  0  0  0  0  0  0  0  0
   59.6609   29.5481   44.9673 H   0  0  0  0  0  0  0  0  0  0  0  0
   57.9840   30.7090   44.2340 C   0  0  0  0  0  0  0  0  0  0  0  0
   58.6172   31.5344   43.8765 H   0  0  0  0  0  0  0  0  0  0  0  0
   56.5960   30.7770   44.0800 C   0  0  0  0  0  0  0  0  0  0  0  0
   56.1386   31.6523   43.5955 H   0  0  0  0  0  0  0  0  0  0  0  0
   55.7890   29.7320   44.5420 C   0  0  0  0  0  0  0  0  0  0  0  0
   54.6966   29.7908   44.4275 H   0  0  0  0  0  0  0  0  0  0  0  0
   56.3680   28.6110   45.1500 C   0  0  0  0  0  0  0  0  0  0  0  0
   55.5430   27.5870   45.6100 O   0  0  0  0  0  0  0  0  0  0  0  0
   58.7040   29.2480   48.7050 C   0  0  0  0  0  0  0  0  0  0  0  0
   57.6178   29.3179   48.5457 H   0  0  0  0  0  0  0  0  0  0  0  0
   59.3650   30.3830   49.3900 C   0  0  0  0  0  0  0  0  0  0  0  0
   60.6690   30.7250   49.0040 C   0  0  0  0  0  0  0  0  0  0  0  0
   61.1588   30.1720   48.1890 H   0  0  0  0  0  0  0  0  0  0  0  0
   61.3560   31.7680   49.6490 C   0  0  0  0  0  0  0  0  0  0  0  0
   62.6550   32.1420   49.2750 O   0  0  0  0  0  0  0  0  0  0  0  0
   62.9600   33.0100   48.2210 C   0  0  0  0  0  0  0  0  0  0  0  0
   64.1490   33.1180   47.8100 O   0  0  0  0  0  0  0  0  0  0  0  0
   61.8900   33.8710   47.6830 C   0  0  0  0  0  0  0  0  0  0  0  0
   61.5706   34.7225   48.3017 H   0  0  0  0  0  0  0  0  0  0  0  0
   61.2730   33.7040   46.5030 C   0  0  0  0  0  0  0  0  0  0  0  0
   61.9077   33.5900   45.6118 H   0  0  0  0  0  0  0  0  0  0  0  0
   59.8090   33.6610   46.3050 C   0  0  0  0  0  0  0  0  0  0  0  0
   59.2510   34.2300   45.1460 C   0  0  0  0  0  0  0  0  0  0  0  0
   59.9070   34.6824   44.3877 H   0  0  0  0  0  0  0  0  0  0  0  0
   57.8620   34.2230   44.9530 C   0  0  0  0  0  0  0  0  0  0  0  0
   57.4322   34.6538   44.0367 H   0  0  0  0  0  0  0  0  0  0  0  0
   57.0220   33.6680   45.9260 C   0  0  0  0  0  0  0  0  0  0  0  0
   55.9333   33.6530   45.7691 H   0  0  0  0  0  0  0  0  0  0  0  0
   57.5680   33.1320   47.0990 C   0  0  0  0  0  0  0  0  0  0  0  0
   56.9062   32.7061   47.8675 H   0  0  0  0  0  0  0  0  0  0  0  0
   58.9560   33.1370   47.2960 C   0  0  0  0  0  0  0  0  0  0  0  0
   59.3798   32.7309   48.2263 H   0  0  0  0  0  0  0  0  0  0  0  0
   60.7180   32.4790   50.6680 C   0  0  0  0  0  0  0  0  0  0  0  0
   61.2319   33.3255   51.1468 H   0  0  0  0  0  0  0  0  0  0  0  0
   59.4330   32.1240   51.0840 C   0  0  0  0  0  0  0  0  0  0  0  0
   58.9488   32.6826   51.8985 H   0  0  0  0  0  0  0  0  0  0  0  0
   58.7530   31.0560   50.4680 C   0  0  0  0  0  0  0  0  0  0  0  0
   57.4850   30.6310   50.9040 O   0  0  0  0  0  0  0  0  0  0  0  0
   56.6340   31.3440   51.8010 C   0  0  0  0  0  0  0  0  0  0  0  0
   57.1926   31.5734   52.7204 H   0  0  0  0  0  0  0  0  0  0  0  0
   56.3042   32.2704   51.3080 H   0  0  0  0  0  0  0  0  0  0  0  0
   55.4160   30.5300   52.1550 C   0  0  0  0  0  0  0  0  0  0  0  0
   55.5360   29.3890   52.9640 C   0  0  0  0  0  0  0  0  0  0  0  0
   56.5228   29.0891   53.3464 H   0  0  0  0  0  0  0  0  0  0  0  0
   54.4050   28.6330   53.2850 C   0  0  0  0  0  0  0  0  0  0  0  0
   54.5035   27.7440   53.9253 H   0  0  0  0  0  0  0  0  0  0  0  0
   53.1490   29.0030   52.7950 C   0  0  0  0  0  0  0  0  0  0  0  0
   52.2593   28.4113   53.0565 H   0  0  0  0  0  0  0  0  0  0  0  0
   53.0260   30.1250   51.9730 C   0  0  0  0  0  0  0  0  0  0  0  0
   52.0396   30.4120   51.5798 H   0  0  0  0  0  0  0  0  0  0  0  0
   54.1540   30.8840   51.6490 C   0  0  0  0  0  0  0  0  0  0  0  0
   54.0533   31.7626   50.9948 H   0  0  0  0  0  0  0  0  0  0  0  0
  1  2  1  0
  2  3  1  0
  3  4  2  0
  3  5  1  0
  5  6  1  0
  5  7  1  0
  5  8  1  0
  8  9  2  0
  9 10  1  0
  9 11  1  0
 11 12  1  0
 11 13  2  0
 13 14  1  0
 13 15  1  0
 15 16  1  0
 15 17  2  0
 17 18  1  0
  2 19  2  3
 19 20  1  0
 19 21  1  0
 21 22  2  0
 22 23  1  0
 22 24  1  0
 24 25  1  0
 25 26  1  0
 26 27  2  0
 26 28  1  0
 28 29  1  0
 28 30  2  0
 30 31  1  0
 30 32  1  0
 32 33  2  0
 33 34  1  0
 33 35  1  0
 35 36  1  0
 35 37  2  0
 37 38  1  0
 37 39  1  0
 39 40  1  0
 39 41  2  0
 41 42  1  0
 24 43  2  0
 43 44  1  0
 43 45  1  0
 45 46  1  0
 45 47  2  0
 47 48  1  0
 48 49  1  0
 49 50  1  0
 49 51  1  0
 49 52  1  0
 52 53  2  0
 53 54  1  0
 53 55  1  0
 55 56  1  0
 55 57  2  0
 57 58  1  0
 57 59  1  0
 59 60  1  0
 59 61  2  0
 61 62  1  0
 17  8  1  0
 47 21  1  0
 61 52  1  0
 41 32  1  0
M  CHG  1  18  -1
M  END
>  <UniqueID>  (15) 
13

>  <SMILES>  (15) 
O=C(C=Cc1cc(OC(=O)/C=C\c2ccccc2)ccc1OCc1ccccc1)Cc1ccccc1[O-]

>  <Energy>  (15) 
85.80894021954265

>  <Genealogy>  (15) 
O=C(C=Cc1cc(OC(=O)C=Cc2ccccc2)ccc1OCc1ccccc1)Cc1ccccc1[O-] (protonated)
O=C(C=Cc1cc(OC(=O)/C=C\c2ccccc2)ccc1OCc1ccccc1)Cc1ccccc1[O-] (cis-trans isomerization)
O=C(C=Cc1cc(OC(=O)/C=C\c2ccccc2)ccc1OCc1ccccc1)Cc1ccccc1[O-] (3D coordinates assigned)
O=C(C=Cc1cc(OC(=O)/C=C\c2ccccc2)ccc1OCc1ccccc1)Cc1ccccc1[O-] (optimized conformer: 85.80894021954265 kcal/mol)

>  <smiles>  (15) 
O=C(C=Cc1cc(OC(=O)C=Cc2ccccc2)ccc1OCc1ccccc1)Cc1ccccc1O

>  <score_type>  (15) 
oracle

>  <origin>  (15) 
adg

>  <m_score__min__energy>  (15) 
-13.31

>  <m_primary>  (15) 
energy

$$$$
15:0
     RDKit          3D

 52 56  0  0  0  0  0  0  0  0999 V2000
   57.9861   21.3682   46.4203 H   0  0  0  0  0  0  0  0  0  0  0  0
   57.5270   22.0160   45.6590 C   0  0  0  0  0  0  0  0  0  0  0  0
   57.3200   23.3340   45.9230 N   0  0  0  0  0  0  0  0  0  0  0  0
   56.7540   24.1760   45.0120 C   0  0  0  0  0  0  0  0  0  0  0  0
   56.5640   25.6050   45.3510 C   0  0  0  0  0  0  0  0  0  0  0  0
   55.5210   25.9650   45.9610 O   0  0  0  0  0  0  0  0  0  0  0  0
   57.5650   26.5760   44.9940 N   0  0  0  0  0  0  0  0  0  0  0  0
   58.4660   26.2440   44.5850 H   0  0  0  0  0  0  0  0  0  0  0  0
   57.4050   27.9930   45.1680 C   0  0  0  0  0  0  0  0  0  0  0  0
   56.3250   28.4650   45.6170 O   0  0  0  0  0  0  0  0  0  0  0  0
   58.4990   28.8700   44.8550 N   0  0  0  0  0  0  0  0  0  0  0  0
   59.4490   28.4450   44.7660 H   0  0  0  0  0  0  0  0  0  0  0  0
   58.3810   30.3020   44.7840 C   0  0  0  0  0  0  0  0  0  0  0  0
   57.7530   30.9230   43.6910 C   0  0  0  0  0  0  0  0  0  0  0  0
   57.3135   30.3089   42.8912 H   0  0  0  0  0  0  0  0  0  0  0  0
   57.6840   32.3150   43.6150 C   0  0  0  0  0  0  0  0  0  0  0  0
   57.1907   32.7930   42.7558 H   0  0  0  0  0  0  0  0  0  0  0  0
   58.2380   33.1020   44.6240 C   0  0  0  0  0  0  0  0  0  0  0  0
   58.1818   34.1985   44.5560 H   0  0  0  0  0  0  0  0  0  0  0  0
   58.8670   32.5020   45.7260 C   0  0  0  0  0  0  0  0  0  0  0  0
   59.4470   33.3530   46.7850 C   0  0  0  0  0  0  0  0  0  0  0  0
   58.7900   34.3650   47.4880 C   0  0  0  0  0  0  0  0  0  0  0  0
   57.7451   34.6661   47.3219 H   0  0  0  0  0  0  0  0  0  0  0  0
   59.6170   34.9240   48.4020 N   0  0  0  0  0  0  0  0  0  0  0  0
   59.3900   35.6960   49.0680 H   0  0  0  0  0  0  0  0  0  0  0  0
   60.7800   34.2640   48.2870 C   0  0  0  0  0  0  0  0  0  0  0  0
   61.8880   34.4610   49.0420 N   0  0  0  0  0  0  0  0  0  0  0  0
   62.9810   33.6690   48.8230 C   0  0  0  0  0  0  0  0  0  0  0  0
   64.0420   33.8440   49.5550 N   0  0  0  0  0  0  0  0  0  0  0  0
   64.9020   32.8220   50.0890 C   0  0  0  0  0  0  0  0  0  0  0  0
   66.3050   32.9550   50.0970 C   0  0  0  0  0  0  0  0  0  0  0  0
   66.7741   33.8482   49.6586 H   0  0  0  0  0  0  0  0  0  0  0  0
   67.1020   31.9540   50.6610 C   0  0  0  0  0  0  0  0  0  0  0  0
   68.1972   32.0559   50.6542 H   0  0  0  0  0  0  0  0  0  0  0  0
   66.5110   30.8250   51.2330 C   0  0  0  0  0  0  0  0  0  0  0  0
   67.1405   30.0335   51.6657 H   0  0  0  0  0  0  0  0  0  0  0  0
   65.1190   30.7020   51.2550 C   0  0  0  0  0  0  0  0  0  0  0  0
   64.6526   29.8175   51.7134 H   0  0  0  0  0  0  0  0  0  0  0  0
   64.3190   31.7020   50.6950 C   0  0  0  0  0  0  0  0  0  0  0  0
   63.2235   31.6087   50.7305 H   0  0  0  0  0  0  0  0  0  0  0  0
   62.9250   32.6730   47.8790 N   0  0  0  0  0  0  0  0  0  0  0  0
   61.8100   32.4660   47.1180 C   0  0  0  0  0  0  0  0  0  0  0  0
   61.7759   31.6637   46.3662 H   0  0  0  0  0  0  0  0  0  0  0  0
   60.7210   33.3020   47.3250 C   0  0  0  0  0  0  0  0  0  0  0  0
   58.9580   31.0980   45.7890 C   0  0  0  0  0  0  0  0  0  0  0  0
   59.6340   30.5040   46.8060 F   0  0  0  0  0  0  0  0  0  0  0  0
   56.3710   23.6720   43.7570 C   0  0  0  0  0  0  0  0  0  0  0  0
   55.9134   24.3362   43.0091 H   0  0  0  0  0  0  0  0  0  0  0  0
   56.5760   22.3210   43.4670 C   0  0  0  0  0  0  0  0  0  0  0  0
   56.2801   21.9166   42.4878 H   0  0  0  0  0  0  0  0  0  0  0  0
   57.1570   21.4850   44.4220 C   0  0  0  0  0  0  0  0  0  0  0  0
   57.3215   20.4198   44.2024 H   0  0  0  0  0  0  0  0  0  0  0  0
  1  2  1  0
  2  3  2  0
  3  4  1  0
  4  5  1  0
  5  6  2  0
  5  7  1  0
  7  8  1  0
  7  9  1  0
  9 10  2  0
  9 11  1  0
 11 12  1  0
 11 13  1  0
 13 14  2  0
 14 15  1  0
 14 16  1  0
 16 17  1  0
 16 18  2  0
 18 19  1  0
 18 20  1  0
 20 21  1  0
 21 22  2  0
 22 23  1  0
 22 24  1  0
 24 25  1  0
 24 26  1  0
 26 27  2  0
 27 28  1  0
 28 29  2  0
 29 30  1  0
 30 31  2  0
 31 32  1  0
 31 33  1  0
 33 34  1  0
 33 35  2  0
 35 36  1  0
 35 37  1  0
 37 38  1  0
 37 39  2  0
 39 40  1  0
 28 41  1  0
 41 42  1  0
 42 43  1  0
 42 44  2  0
 20 45  2  0
 45 46  1  0
  4 47  2  0
 47 48  1  0
 47 49  1  0
 49 50  1  0
 49 51  2  0
 51 52  1  0
 51  2  1  0
 45 13  1  0
 44 21  1  0
 44 26  1  0
 39 30  1  0
M  CHG  1  41  -1
M  END
>  <UniqueID>  (16) 
14

>  <SMILES>  (16) 
O=C(NC(=O)c1ccccn1)Nc1cccc(-c2c[nH]c3n/c(=N/c4ccccc4)[n-]cc23)c1F

>  <Energy>  (16) 
112.05215629545489

>  <Genealogy>  (16) 
O=C(NC(=O)c1ccccn1)Nc1cccc(-c2c[nH]c3nc(=Nc4ccccc4)[n-]cc23)c1F (protonated)
O=C(NC(=O)c1ccccn1)Nc1cccc(-c2c[nH]c3n/c(=N/c4ccccc4)[n-]cc23)c1F (cis-trans isomerization)
O=C(NC(=O)c1ccccn1)Nc1cccc(-c2c[nH]c3n/c(=N/c4ccccc4)[n-]cc23)c1F (3D coordinates assigned)
O=C(NC(=O)c1ccccn1)Nc1cccc(-c2c[nH]c3n/c(=N/c4ccccc4)[n-]cc23)c1F (optimized conformer: 112.05215629545489 kcal/mol)

>  <smiles>  (16) 
O=C(NC(=O)c1ccccn1)Nc1cccc(-c2c[nH]c3nc(=Nc4ccccc4)[nH]cc23)c1F

>  <score_type>  (16) 
oracle

>  <origin>  (16) 
adg

>  <m_score__min__energy>  (16) 
-10.81

>  <m_primary>  (16) 
energy

$$$$
16:0
     RDKit          3D

 42 44  0  0  0  0  0  0  0  0999 V2000
   56.3230   20.8970   44.5150 C   0  0  0  0  0  0  0  0  0  0  0  0
   56.4950   22.3770   44.6540 C   0  0  0  0  0  0  0  0  0  0  0  0
   57.8480   23.2170   44.1230 S   0  0  0  0  0  0  0  0  0  0  0  0
   57.3230   24.7310   44.6300 C   0  0  0  0  0  0  0  0  0  0  0  0
   58.1020   25.9320   44.6030 N   0  0  0  0  0  0  0  0  0  0  0  0
   59.0620   26.3460   45.5820 C   0  0  0  0  0  0  0  0  0  0  0  0
   59.5460   25.5250   46.4060 O   0  0  0  0  0  0  0  0  0  0  0  0
   59.4360   27.7910   45.6610 C   0  0  0  0  0  0  0  0  0  0  0  0
   59.2200   28.4480   47.3570 S   0  0  0  0  0  0  0  0  0  0  0  0
   58.9590   30.1590   46.8530 C   0  0  0  0  0  0  0  0  0  0  0  0
   59.8950   31.0840   47.1840 N   0  0  0  0  0  0  0  0  0  0  0  0
   59.7950   32.3690   46.7670 C   0  0  0  0  0  0  0  0  0  0  0  0
   60.7870   33.2960   47.1080 C   0  0  0  0  0  0  0  0  0  0  0  0
   60.7050   34.6120   46.6440 C   0  0  0  0  0  0  0  0  0  0  0  0
   59.6320   35.0060   45.8390 C   0  0  0  0  0  0  0  0  0  0  0  0
   58.6350   34.0880   45.4960 C   0  0  0  0  0  0  0  0  0  0  0  0
   58.7090   32.7610   45.9620 C   0  0  0  0  0  0  0  0  0  0  0  0
   57.7430   31.7940   45.6350 C   0  0  0  0  0  0  0  0  0  0  0  0
   56.7900   32.1010   44.8650 O   0  0  0  0  0  0  0  0  0  0  0  0
   57.8640   30.5130   46.1130 N   0  0  0  0  0  0  0  0  0  0  0  0
   56.9210   29.5140   45.7930 N   0  0  0  0  0  0  0  0  0  0  0  0
   56.3480   29.3370   44.4950 C   0  0  0  0  0  0  0  0  0  0  0  0
   55.0990   29.3760   44.3540 O   0  0  0  0  0  0  0  0  0  0  0  0
   56.0780   24.6110   45.2540 C   0  0  0  0  0  0  0  0  0  0  0  0
   55.3800   25.7640   45.8760 C   0  0  0  0  0  0  0  0  0  0  0  0
   54.1620   25.9840   45.6500 O   0  0  0  0  0  0  0  0  0  0  0  0
   56.0600   26.6200   46.7340 O   0  0  0  0  0  0  0  0  0  0  0  0
   55.6030   23.2740   45.2550 C   0  0  0  0  0  0  0  0  0  0  0  0
   54.2980   22.8430   45.8680 C   0  0  0  0  0  0  0  0  0  0  0  0
   56.2697   20.4387   45.5135 H   0  0  0  0  0  0  0  0  0  0  0  0
   55.3943   20.6859   43.9646 H   0  0  0  0  0  0  0  0  0  0  0  0
   57.1786   20.4785   43.9646 H   0  0  0  0  0  0  0  0  0  0  0  0
   60.4894   27.9043   45.3652 H   0  0  0  0  0  0  0  0  0  0  0  0
   58.7768   28.3557   44.9854 H   0  0  0  0  0  0  0  0  0  0  0  0
   61.6319   32.9885   47.7417 H   0  0  0  0  0  0  0  0  0  0  0  0
   61.4859   35.3387   46.9126 H   0  0  0  0  0  0  0  0  0  0  0  0
   59.5720   36.0420   45.4742 H   0  0  0  0  0  0  0  0  0  0  0  0
   57.7927   34.4021   44.8621 H   0  0  0  0  0  0  0  0  0  0  0  0
   56.9971   29.1674   43.6233 H   0  0  0  0  0  0  0  0  0  0  0  0
   54.3812   22.8705   46.9645 H   0  0  0  0  0  0  0  0  0  0  0  0
   53.4978   23.5246   45.5438 H   0  0  0  0  0  0  0  0  0  0  0  0
   54.0611   21.8189   45.5438 H   0  0  0  0  0  0  0  0  0  0  0  0
  1  2  1  0
  2  3  1  0
  3  4  1  0
  4  5  1  0
  5  6  1  0
  6  7  2  0
  6  8  1  0
  8  9  1  0
  9 10  1  0
 10 11  2  0
 11 12  1  0
 12 13  2  0
 13 14  1  0
 14 15  2  0
 15 16  1  0
 16 17  2  0
 17 18  1  0
 18 19  2  0
 18 20  1  0
 20 21  1  0
 21 22  1  0
 22 23  2  0
  4 24  2  0
 24 25  1  0
 25 26  2  0
 25 27  1  0
 24 28  1  0
 28 29  1  0
 28  2  2  0
 20 10  1  0
 17 12  1  0
  1 30  1  0
  1 31  1  0
  1 32  1  0
  8 33  1  0
  8 34  1  0
 13 35  1  0
 14 36  1  0
 15 37  1  0
 16 38  1  0
 22 39  1  0
 29 40  1  0
 29 41  1  0
 29 42  1  0
M  CHG  3   5  -1  21  -1  27  -1
M  END
>  <UniqueID>  (17) 
15

>  <SMILES>  (17) 
Cc1sc([N-]C(=O)CSc2nc3ccccc3c(=O)n2[N-]C=O)c(C(=O)[O-])c1C

>  <Energy>  (17) 
74.3077448682929

>  <Genealogy>  (17) 
Cc1sc([N-]C(=O)CSc2nc3ccccc3c(=O)n2[N-]C=O)c(C(=O)[O-])c1C (protonated)
Cc1sc([N-]C(=O)CSc2nc3ccccc3c(=O)n2[N-]C=O)c(C(=O)[O-])c1C (3D coordinates assigned)
Cc1sc([N-]C(=O)CSc2nc3ccccc3c(=O)n2[N-]C=O)c(C(=O)[O-])c1C (optimized conformer: 74.3077448682929 kcal/mol)

>  <smiles>  (17) 
Cc1sc(NC(=O)CSc2nc3ccccc3c(=O)n2NC=O)c(C(=O)O)c1C

>  <score_type>  (17) 
oracle

>  <origin>  (17) 
adg

>  <m_score__min__energy>  (17) 
-14.42

>  <m_primary>  (17) 
energy

$$$$
17:0
     RDKit          3D

 41 43  0  0  0  0  0  0  0  0999 V2000
   62.8810   33.8460   48.7440 C   0  0  0  0  0  0  0  0  0  0  0  0
   61.5240   34.4910   48.9970 C   0  0  0  0  0  0  0  0  0  0  0  0
   60.5800   34.1960   47.8750 C   0  0  0  0  0  0  0  0  0  0  0  0
   60.4250   32.9520   47.2570 C   0  0  0  0  0  0  0  0  0  0  0  0
   59.4160   32.9700   46.2870 C   0  0  0  0  0  0  0  0  0  0  0  0
   58.9870   31.9190   45.4780 C   0  0  0  0  0  0  0  0  0  0  0  0
   59.5330   30.7850   45.5750 O   0  0  0  0  0  0  0  0  0  0  0  0
   57.9670   32.1400   44.5790 N   0  0  0  0  0  0  0  0  0  0  0  0
   57.4570   31.0550   43.7280 C   0  0  0  0  0  0  0  0  0  0  0  0
   57.3890   29.7760   44.5070 C   0  0  0  0  0  0  0  0  0  0  0  0
   56.3790   29.5490   45.2270 O   0  0  0  0  0  0  0  0  0  0  0  0
   58.5000   28.8660   44.4980 N   0  0  0  0  0  0  0  0  0  0  0  0
   58.4810   27.5650   45.1090 C   0  0  0  0  0  0  0  0  0  0  0  0
   59.6510   26.9810   45.6270 C   0  0  0  0  0  0  0  0  0  0  0  0
   59.6020   25.7220   46.2320 C   0  0  0  0  0  0  0  0  0  0  0  0
   58.3870   25.0420   46.3410 C   0  0  0  0  0  0  0  0  0  0  0  0
   57.2090   25.6260   45.8560 C   0  0  0  0  0  0  0  0  0  0  0  0
   55.6740   24.7720   45.9880 S   0  0  0  0  0  0  0  0  0  0  0  0
   54.3740   25.8850   45.7500 N   0  0  0  0  0  0  0  0  0  0  0  0
   55.5570   24.1440   47.3470 O   0  0  0  0  0  0  0  0  0  0  0  0
   55.6010   23.6890   44.9480 O   0  0  0  0  0  0  0  0  0  0  0  0
   57.2610   26.8860   45.2430 C   0  0  0  0  0  0  0  0  0  0  0  0
   57.3720   33.3800   44.5020 C   0  0  0  0  0  0  0  0  0  0  0  0
   57.7880   34.4060   45.2950 N   0  0  0  0  0  0  0  0  0  0  0  0
   58.7980   34.1930   46.1670 C   0  0  0  0  0  0  0  0  0  0  0  0
   59.4580   35.2970   47.2420 S   0  0  0  0  0  0  0  0  0  0  0  0
   63.3631   33.6169   49.7058 H   0  0  0  0  0  0  0  0  0  0  0  0
   62.7442   32.9166   48.1718 H   0  0  0  0  0  0  0  0  0  0  0  0
   63.5154   34.5389   48.1718 H   0  0  0  0  0  0  0  0  0  0  0  0
   61.1055   34.0955   49.9342 H   0  0  0  0  0  0  0  0  0  0  0  0
   61.6585   35.5804   49.0683 H   0  0  0  0  0  0  0  0  0  0  0  0
   61.0251   32.0637   47.5038 H   0  0  0  0  0  0  0  0  0  0  0  0
   56.4504   31.3165   43.3698 H   0  0  0  0  0  0  0  0  0  0  0  0
   58.1358   30.9195   42.8731 H   0  0  0  0  0  0  0  0  0  0  0  0
   59.4060   29.2060   44.1040 H   0  0  0  0  0  0  0  0  0  0  0  0
   60.6087   27.5174   45.5557 H   0  0  0  0  0  0  0  0  0  0  0  0
   60.5230   25.2654   46.6234 H   0  0  0  0  0  0  0  0  0  0  0  0
   58.3546   24.0467   46.8082 H   0  0  0  0  0  0  0  0  0  0  0  0
   54.7660   26.7070   45.2380 H   0  0  0  0  0  0  0  0  0  0  0  0
   56.3366   27.3461   44.8637 H   0  0  0  0  0  0  0  0  0  0  0  0
   56.5495   33.5437   43.7902 H   0  0  0  0  0  0  0  0  0  0  0  0
  1  2  1  0
  2  3  1  0
  3  4  2  0
  4  5  1  0
  5  6  1  0
  6  7  2  0
  6  8  1  0
  8  9  1  0
  9 10  1  0
 10 11  2  0
 10 12  1  0
 12 13  1  0
 13 14  2  0
 14 15  1  0
 15 16  2  0
 16 17  1  0
 17 18  1  0
 18 19  1  0
 18 20  2  0
 18 21  2  0
 17 22  2  0
  8 23  1  0
 23 24  2  0
 24 25  1  0
 25 26  1  0
 26  3  1  0
 25  5  2  0
 22 13  1  0
  1 27  1  0
  1 28  1  0
  1 29  1  0
  2 30  1  0
  2 31  1  0
  4 32  1  0
  9 33  1  0
  9 34  1  0
 12 35  1  0
 14 36  1  0
 15 37  1  0
 16 38  1  0
 19 39  1  0
 22 40  1  0
 23 41  1  0
M  CHG  1  19  -1
M  END
>  <UniqueID>  (18) 
16

>  <SMILES>  (18) 
CCc1cc2c(=O)n(CC(=O)Nc3cccc(S([NH-])(=O)=O)c3)cnc2s1

>  <Energy>  (18) 
76.1251856315955

>  <Genealogy>  (18) 
CCc1cc2c(=O)n(CC(=O)Nc3cccc(S([NH-])(=O)=O)c3)cnc2s1 (protonated)
CCc1cc2c(=O)n(CC(=O)Nc3cccc(S([NH-])(=O)=O)c3)cnc2s1 (3D coordinates assigned)
CCc1cc2c(=O)n(CC(=O)Nc3cccc(S([NH-])(=O)=O)c3)cnc2s1 (optimized conformer: 76.1251856315955 kcal/mol)

>  <smiles>  (18) 
CCc1cc2c(=O)n(CC(=O)Nc3cccc(S(N)(=O)=O)c3)cnc2s1

>  <score_type>  (18) 
oracle

>  <origin>  (18) 
adg

>  <m_score__min__energy>  (18) 
-11.48

>  <m_primary>  (18) 
energy

$$$$
18:0
     RDKit          3D

 50 52  0  0  0  0  0  0  0  0999 V2000
   58.8440   33.0900   48.1220 C   0  0  0  0  0  0  0  0  0  0  0  0
   60.0920   33.9700   48.0770 C   0  0  0  0  0  0  0  0  0  0  0  0
   61.2750   33.1710   47.6860 N   0  0  0  0  0  0  0  0  0  0  0  0
   62.0550   33.8470   46.6230 C   0  0  0  0  0  0  0  0  0  0  0  0
   63.5390   33.5090   46.7550 C   0  0  0  0  0  0  0  0  0  0  0  0
   62.1250   32.8650   48.8610 C   0  0  0  0  0  0  0  0  0  0  0  0
   62.4820   31.3720   48.9040 C   0  0  0  0  0  0  0  0  0  0  0  0
   61.2730   30.5440   48.9150 N   0  0  0  0  0  0  0  0  0  0  0  0
   60.5420   30.2260   50.0110 C   0  0  0  0  0  0  0  0  0  0  0  0
   59.3810   29.5550   49.6470 C   0  0  0  0  0  0  0  0  0  0  0  0
   59.4200   29.4800   48.2710 C   0  0  0  0  0  0  0  0  0  0  0  0
   58.4860   28.9760   47.3700 C   0  0  0  0  0  0  0  0  0  0  0  0
   58.7500   29.1110   45.9930 C   0  0  0  0  0  0  0  0  0  0  0  0
   57.7580   28.6680   45.0590 N   0  0  0  0  0  0  0  0  0  0  0  0
   56.6090   29.7140   44.2900 S   0  0  0  0  0  0  0  0  0  0  0  0
   55.2450   29.4710   44.8700 O   0  0  0  0  0  0  0  0  0  0  0  0
   56.5800   29.4260   42.8150 O   0  0  0  0  0  0  0  0  0  0  0  0
   57.0640   31.3830   44.5800 C   0  0  0  0  0  0  0  0  0  0  0  0
   58.2610   31.9650   44.2330 C   0  0  0  0  0  0  0  0  0  0  0  0
   58.2400   33.2250   44.6950 N   0  0  0  0  0  0  0  0  0  0  0  0
   59.2650   34.2430   44.5060 C   0  0  0  0  0  0  0  0  0  0  0  0
   57.0400   33.3860   45.2880 C   0  0  0  0  0  0  0  0  0  0  0  0
   56.2900   32.2640   45.2460 N   0  0  0  0  0  0  0  0  0  0  0  0
   59.9670   29.7040   45.5650 C   0  0  0  0  0  0  0  0  0  0  0  0
   60.8940   30.1950   46.5010 C   0  0  0  0  0  0  0  0  0  0  0  0
   60.5790   30.0810   47.8560 C   0  0  0  0  0  0  0  0  0  0  0  0
   58.5694   32.8964   49.1694 H   0  0  0  0  0  0  0  0  0  0  0  0
   58.0144   33.6040   47.6145 H   0  0  0  0  0  0  0  0  0  0  0  0
   59.0496   32.1360   47.6145 H   0  0  0  0  0  0  0  0  0  0  0  0
   59.9407   34.7757   47.3436 H   0  0  0  0  0  0  0  0  0  0  0  0
   60.2641   34.3952   49.0768 H   0  0  0  0  0  0  0  0  0  0  0  0
   61.6931   33.5126   45.6395 H   0  0  0  0  0  0  0  0  0  0  0  0
   61.9265   34.9349   46.7230 H   0  0  0  0  0  0  0  0  0  0  0  0
   63.8078   33.4478   47.8199 H   0  0  0  0  0  0  0  0  0  0  0  0
   63.7394   32.5422   46.2701 H   0  0  0  0  0  0  0  0  0  0  0  0
   64.1383   34.2936   46.2701 H   0  0  0  0  0  0  0  0  0  0  0  0
   63.0511   33.4553   48.7993 H   0  0  0  0  0  0  0  0  0  0  0  0
   61.5676   33.1199   49.7744 H   0  0  0  0  0  0  0  0  0  0  0  0
   63.0828   31.1199   48.0177 H   0  0  0  0  0  0  0  0  0  0  0  0
   63.0514   31.1738   49.8240 H   0  0  0  0  0  0  0  0  0  0  0  0
   60.8282   30.4659   51.0457 H   0  0  0  0  0  0  0  0  0  0  0  0
   58.5977   29.1665   50.3145 H   0  0  0  0  0  0  0  0  0  0  0  0
   57.5670   28.4858   47.7238 H   0  0  0  0  0  0  0  0  0  0  0  0
   59.0827   31.4867   43.6797 H   0  0  0  0  0  0  0  0  0  0  0  0
   59.6184   34.5940   45.4868 H   0  0  0  0  0  0  0  0  0  0  0  0
   60.1081   33.8145   43.9443 H   0  0  0  0  0  0  0  0  0  0  0  0
   58.8423   35.0891   43.9443 H   0  0  0  0  0  0  0  0  0  0  0  0
   56.7090   34.3260   45.7538 H   0  0  0  0  0  0  0  0  0  0  0  0
   60.1868   29.7800   44.4899 H   0  0  0  0  0  0  0  0  0  0  0  0
   61.8387   30.6550   46.1754 H   0  0  0  0  0  0  0  0  0  0  0  0
  1  2  1  0
  2  3  1  0
  3  4  1  0
  4  5  1  0
  3  6  1  0
  6  7  1  0
  7  8  1  0
  8  9  1  0
  9 10  2  0
 10 11  1  0
 11 12  2  0
 12 13  1  0
 13 14  1  0
 14 15  1  0
 15 16  2  0
 15 17  2  0
 15 18  1  0
 18 19  2  0
 19 20  1  0
 20 21  1  0
 20 22  1  0
 22 23  2  0
 13 24  2  0
 24 25  1  0
 25 26  2  0
 26  8  1  0
 26 11  1  0
 23 18  1  0
  1 27  1  0
  1 28  1  0
  1 29  1  0
  2 30  1  0
  2 31  1  0
  4 32  1  0
  4 33  1  0
  5 34  1  0
  5 35  1  0
  5 36  1  0
  6 37  1  0
  6 38  1  0
  7 39  1  0
  7 40  1  0
  9 41  1  0
 10 42  1  0
 12 43  1  0
 19 44  1  0
 21 45  1  0
 21 46  1  0
 21 47  1  0
 22 48  1  0
 24 49  1  0
 25 50  1  0
M  CHG  1  14  -1
M  END
>  <UniqueID>  (19) 
17

>  <SMILES>  (19) 
CCN(CC)CCn1ccc2cc([N-]S(=O)(=O)c3cn(C)cn3)ccc21

>  <Energy>  (19) 
110.03526278395205

>  <Genealogy>  (19) 
CCN(CC)CCn1ccc2cc([N-]S(=O)(=O)c3cn(C)cn3)ccc21 (protonated)
CCN(CC)CCn1ccc2cc([N-]S(=O)(=O)c3cn(C)cn3)ccc21 (3D coordinates assigned)
CCN(CC)CCn1ccc2cc([N-]S(=O)(=O)c3cn(C)cn3)ccc21 (optimized conformer: 110.03526278395205 kcal/mol)

>  <smiles>  (19) 
CCN(CC)CCn1ccc2cc(NS(=O)(=O)c3cn(C)cn3)ccc21

>  <score_type>  (19) 
oracle

>  <origin>  (19) 
adg

>  <m_score__min__energy>  (19) 
-9.2100000000000009

>  <m_primary>  (19) 
energy

$$$$
19:0
     RDKit          3D

 28 29  0  0  0  0  0  0  0  0999 V2000
   55.9310   30.3690   44.6380 O   0  0  0  0  0  0  0  0  0  0  0  0
   57.1710   30.4290   44.8670 C   0  0  0  0  0  0  0  0  0  0  0  0
   58.0270   29.2070   44.6700 C   0  0  0  0  0  0  0  0  0  0  0  0
   57.2620   27.9820   44.8980 N   0  0  0  0  0  0  0  0  0  0  0  0
   57.8750   26.7780   45.3880 C   0  0  0  0  0  0  0  0  0  0  0  0
   59.0780   26.7980   45.7680 O   0  0  0  0  0  0  0  0  0  0  0  0
   57.1030   25.5200   45.4950 C   0  0  0  0  0  0  0  0  0  0  0  0
   57.7470   24.2940   45.2470 C   0  0  0  0  0  0  0  0  0  0  0  0
   57.0450   23.0900   45.3480 C   0  0  0  0  0  0  0  0  0  0  0  0
   55.6910   23.0960   45.6890 C   0  0  0  0  0  0  0  0  0  0  0  0
   55.0350   24.3060   45.9200 C   0  0  0  0  0  0  0  0  0  0  0  0
   55.7290   25.5180   45.8150 C   0  0  0  0  0  0  0  0  0  0  0  0
   55.0340   26.7090   46.0000 O   0  0  0  0  0  0  0  0  0  0  0  0
   57.7630   31.7170   45.2680 C   0  0  0  0  0  0  0  0  0  0  0  0
   58.9690   31.9090   45.9380 C   0  0  0  0  0  0  0  0  0  0  0  0
   59.2640   33.2570   46.1710 C   0  0  0  0  0  0  0  0  0  0  0  0
   58.2990   34.1330   45.6890 C   0  0  0  0  0  0  0  0  0  0  0  0
   57.0800   33.2270   44.9710 S   0  0  0  0  0  0  0  0  0  0  0  0
   58.4134   29.2021   43.6401 H   0  0  0  0  0  0  0  0  0  0  0  0
   58.8537   29.2408   45.3948 H   0  0  0  0  0  0  0  0  0  0  0  0
   56.2300   28.0100   44.7420 H   0  0  0  0  0  0  0  0  0  0  0  0
   58.8118   24.2831   44.9713 H   0  0  0  0  0  0  0  0  0  0  0  0
   57.5596   22.1364   45.1587 H   0  0  0  0  0  0  0  0  0  0  0  0
   55.1414   22.1471   45.7756 H   0  0  0  0  0  0  0  0  0  0  0  0
   53.9676   24.3078   46.1858 H   0  0  0  0  0  0  0  0  0  0  0  0
   59.6242   31.0833   46.2526 H   0  0  0  0  0  0  0  0  0  0  0  0
   60.1754   33.5921   46.6878 H   0  0  0  0  0  0  0  0  0  0  0  0
   58.3282   35.2300   45.7645 H   0  0  0  0  0  0  0  0  0  0  0  0
  1  2  2  0
  2  3  1  0
  3  4  1  0
  4  5  1  0
  5  6  2  0
  5  7  1  0
  7  8  2  0
  8  9  1  0
  9 10  2  0
 10 11  1  0
 11 12  2  0
 12 13  1  0
  2 14  1  0
 14 15  2  0
 15 16  1  0
 16 17  2  0
 17 18  1  0
 12  7  1  0
 18 14  1  0
  3 19  1  0
  3 20  1  0
  4 21  1  0
  8 22  1  0
  9 23  1  0
 10 24  1  0
 11 25  1  0
 15 26  1  0
 16 27  1  0
 17 28  1  0
M  CHG  1  13  -1
M  END
>  <UniqueID>  (20) 
18

>  <SMILES>  (20) 
O=C(CNC(=O)c1ccccc1[O-])c1cccs1

>  <Energy>  (20) 
56.815412070447344

>  <Genealogy>  (20) 
O=C(CNC(=O)c1ccccc1[O-])c1cccs1 (protonated)
O=C(CNC(=O)c1ccccc1[O-])c1cccs1 (3D coordinates assigned)
O=C(CNC(=O)c1ccccc1[O-])c1cccs1 (optimized conformer: 56.815412070447344 kcal/mol)

>  <smiles>  (20) 
O=C(CNC(=O)c1ccccc1O)c1cccs1

>  <score_type>  (20) 
oracle

>  <origin>  (20) 
adg

>  <m_score__min__energy>  (20) 
-11.550000000000001

>  <m_primary>  (20) 
energy

$$$$
20:0
     RDKit          3D

 53 56  0  0  0  0  0  0  0  0999 V2000
   54.1850   26.6660   46.7640 H   0  0  0  0  0  0  0  0  0  0  0  0
   54.0230   26.0470   45.9830 O   0  0  0  0  0  0  0  0  0  0  0  0
   54.9180   25.0480   45.6060 C   0  0  0  0  0  0  0  0  0  0  0  0
   56.2810   25.3540   45.5530 C   0  0  0  0  0  0  0  0  0  0  0  0
   56.6176   26.3778   45.7733 H   0  0  0  0  0  0  0  0  0  0  0  0
   57.2240   24.3700   45.2220 C   0  0  0  0  0  0  0  0  0  0  0  0
   58.6280   24.6680   45.2150 N   0  0  0  0  0  0  0  0  0  0  0  0
   59.2050   25.7240   45.7170 C   0  0  0  0  0  0  0  0  0  0  0  0
   60.3620   25.5570   46.4150 N   0  0  0  0  0  0  0  0  0  0  0  0
   61.0330   26.6010   46.9660 C   0  0  0  0  0  0  0  0  0  0  0  0
   61.9580   26.4202   47.5332 H   0  0  0  0  0  0  0  0  0  0  0  0
   60.5530   27.9020   46.8150 C   0  0  0  0  0  0  0  0  0  0  0  0
   61.0935   28.7466   47.2673 H   0  0  0  0  0  0  0  0  0  0  0  0
   59.3770   28.1280   46.0830 C   0  0  0  0  0  0  0  0  0  0  0  0
   58.8700   29.5090   45.8740 C   0  0  0  0  0  0  0  0  0  0  0  0
   58.6380   30.3640   46.9620 C   0  0  0  0  0  0  0  0  0  0  0  0
   58.8196   30.0071   47.9865 H   0  0  0  0  0  0  0  0  0  0  0  0
   58.1900   31.6310   46.7570 N   0  0  0  0  0  0  0  0  0  0  0  0
   57.9500   32.1240   45.5100 C   0  0  0  0  0  0  0  0  0  0  0  0
   57.5430   33.3510   45.3530 N   0  0  0  0  0  0  0  0  0  0  0  0
   58.3960   34.5260   45.4870 C   0  0  0  0  0  0  0  0  0  0  0  0
   58.8528   34.7611   44.5144 H   0  0  0  0  0  0  0  0  0  0  0  0
   57.7930   35.3823   45.8235 H   0  0  0  0  0  0  0  0  0  0  0  0
   59.4740   34.2450   46.4920 C   0  0  0  0  0  0  0  0  0  0  0  0
   60.7580   33.8730   46.0600 C   0  0  0  0  0  0  0  0  0  0  0  0
   60.9602   33.7519   44.9856 H   0  0  0  0  0  0  0  0  0  0  0  0
   61.7800   33.6560   46.9890 C   0  0  0  0  0  0  0  0  0  0  0  0
   62.7813   33.3576   46.6451 H   0  0  0  0  0  0  0  0  0  0  0  0
   61.5300   33.8180   48.3540 C   0  0  0  0  0  0  0  0  0  0  0  0
   62.3332   33.6416   49.0846 H   0  0  0  0  0  0  0  0  0  0  0  0
   60.2600   34.2040   48.7920 C   0  0  0  0  0  0  0  0  0  0  0  0
   60.0210   34.3680   50.1170 F   0  0  0  0  0  0  0  0  0  0  0  0
   59.2350   34.4230   47.8650 C   0  0  0  0  0  0  0  0  0  0  0  0
   58.2391   34.7355   48.2123 H   0  0  0  0  0  0  0  0  0  0  0  0
   58.1620   31.3030   44.3900 C   0  0  0  0  0  0  0  0  0  0  0  0
   57.9200   31.7810   43.0500 C   0  0  0  0  0  0  0  0  0  0  0  0
   57.7240   32.1670   41.9760 N   0  0  0  0  0  0  0  0  0  0  0  0
   58.6230   29.9960   44.5790 C   0  0  0  0  0  0  0  0  0  0  0  0
   58.7933   29.3453   43.7086 H   0  0  0  0  0  0  0  0  0  0  0  0
   58.6980   27.0270   45.5340 C   0  0  0  0  0  0  0  0  0  0  0  0
   57.7714   27.1815   44.9617 H   0  0  0  0  0  0  0  0  0  0  0  0
   56.8000   23.0580   45.0040 C   0  0  0  0  0  0  0  0  0  0  0  0
   57.5404   22.2681   44.8094 H   0  0  0  0  0  0  0  0  0  0  0  0
   55.4380   22.7440   45.0320 C   0  0  0  0  0  0  0  0  0  0  0  0
   55.1109   21.7114   44.8404 H   0  0  0  0  0  0  0  0  0  0  0  0
   54.4860   23.7380   45.3030 C   0  0  0  0  0  0  0  0  0  0  0  0
   53.0550   23.3850   45.2610 C   0  0  0  0  0  0  0  0  0  0  0  0
   52.2140   24.2610   44.9300 O   0  0  0  0  0  0  0  0  0  0  0  0
   52.5890   22.0810   45.6290 N   0  0  0  0  0  0  0  0  0  0  0  0
   52.7960   21.4850   46.9420 C   0  0  0  0  0  0  0  0  0  0  0  0
   52.5414   22.2180   47.7217 H   0  0  0  0  0  0  0  0  0  0  0  0
   52.1530   20.5988   47.0479 H   0  0  0  0  0  0  0  0  0  0  0  0
   53.8499   21.1881   47.0479 H   0  0  0  0  0  0  0  0  0  0  0  0
  1  2  1  0
  2  3  1  0
  3  4  2  0
  4  5  1  0
  4  6  1  0
  6  7  1  0
  7  8  2  0
  8  9  1  0
  9 10  1  0
 10 11  1  0
 10 12  2  0
 12 13  1  0
 12 14  1  0
 14 15  1  0
 15 16  2  0
 16 17  1  0
 16 18  1  0
 18 19  1  0
 19 20  2  3
 20 21  1  0
 21 22  1  0
 21 23  1  0
 21 24  1  0
 24 25  2  0
 25 26  1  0
 25 27  1  0
 27 28  1  0
 27 29  2  0
 29 30  1  0
 29 31  1  0
 31 32  1  0
 31 33  2  0
 33 34  1  0
 19 35  1  0
 35 36  1  0
 36 37  3  0
 35 38  2  0
 38 39  1  0
 14 40  2  0
 40 41  1  0
  6 42  2  0
 42 43  1  0
 42 44  1  0
 44 45  1  0
 44 46  2  0
 46 47  1  0
 47 48  2  0
 47 49  1  0
 49 50  1  0
 50 51  1  0
 50 52  1  0
 50 53  1  0
 46  3  1  0
 40  8  1  0
 38 15  1  0
 33 24  1  0
M  CHG  3   9  -1  18  -1  49  -1
M  END
>  <UniqueID>  (21) 
19

>  <SMILES>  (21) 
C[N-]C(=O)c1ccc(/N=c2\cc(-c3c[n-]c(=NCc4cccc(F)c4)c(C#N)c3)cc[n-]2)cc1O

>  <Energy>  (21) 
78.16109345377461

>  <Genealogy>  (21) 
C[N-]C(=O)c1ccc(N=c2cc(-c3c[n-]c(=NCc4cccc(F)c4)c(C#N)c3)cc[n-]2)cc1O (protonated)
C[N-]C(=O)c1ccc(/N=c2\cc(-c3c[n-]c(=NCc4cccc(F)c4)c(C#N)c3)cc[n-]2)cc1O (cis-trans isomerization)
C[N-]C(=O)c1ccc(/N=c2\cc(-c3c[n-]c(=NCc4cccc(F)c4)c(C#N)c3)cc[n-]2)cc1O (3D coordinates assigned)
C[N-]C(=O)c1ccc(/N=c2\cc(-c3c[n-]c(=NCc4cccc(F)c4)c(C#N)c3)cc[n-]2)cc1O (optimized conformer: 78.16109345377461 kcal/mol)

>  <smiles>  (21) 
CNC(=O)c1ccc(N=c2cc(-c3c[nH]c(=NCc4cccc(F)c4)c(C#N)c3)cc[nH]2)cc1O

>  <score_type>  (21) 
oracle

>  <origin>  (21) 
adg

>  <m_score__min__energy>  (21) 
-13.48

>  <m_primary>  (21) 
energy

$$$$
21:0
     RDKit          3D

 45 47  0  0  0  0  0  0  0  0999 V2000
   62.7880   33.8290   46.3550 C   0  0  0  0  0  0  0  0  0  0  0  0
   61.7670   33.9350   47.4550 C   0  0  0  0  0  0  0  0  0  0  0  0
   62.1970   33.8590   48.7910 C   0  0  0  0  0  0  0  0  0  0  0  0
   61.2840   33.9950   49.8380 C   0  0  0  0  0  0  0  0  0  0  0  0
   59.9320   34.2090   49.5660 C   0  0  0  0  0  0  0  0  0  0  0  0
   59.4860   34.2680   48.2450 C   0  0  0  0  0  0  0  0  0  0  0  0
   60.3860   34.1020   47.1830 C   0  0  0  0  0  0  0  0  0  0  0  0
   59.8840   34.1530   45.8400 N   0  0  0  0  0  0  0  0  0  0  0  0
   59.0100   33.1490   45.3040 C   0  0  0  0  0  0  0  0  0  0  0  0
   58.5780   33.2300   43.9820 C   0  0  0  0  0  0  0  0  0  0  0  0
   57.7290   32.2390   43.4880 C   0  0  0  0  0  0  0  0  0  0  0  0
   57.3540   32.3040   42.2840 O   0  0  0  0  0  0  0  0  0  0  0  0
   57.3140   31.2100   44.2990 N   0  0  0  0  0  0  0  0  0  0  0  0
   56.4470   30.1480   43.7520 C   0  0  0  0  0  0  0  0  0  0  0  0
   57.0940   28.8080   43.9350 C   0  0  0  0  0  0  0  0  0  0  0  0
   57.7720   28.3120   42.9930 O   0  0  0  0  0  0  0  0  0  0  0  0
   56.9390   28.0970   45.1720 N   0  0  0  0  0  0  0  0  0  0  0  0
   57.7110   26.9320   45.5120 C   0  0  0  0  0  0  0  0  0  0  0  0
   59.1160   27.0030   45.4790 C   0  0  0  0  0  0  0  0  0  0  0  0
   59.8920   25.9180   45.8880 C   0  0  0  0  0  0  0  0  0  0  0  0
   59.2780   24.7550   46.3520 C   0  0  0  0  0  0  0  0  0  0  0  0
   57.8850   24.6700   46.4000 C   0  0  0  0  0  0  0  0  0  0  0  0
   57.0840   25.7460   45.9760 C   0  0  0  0  0  0  0  0  0  0  0  0
   55.6090   25.5840   46.0020 C   0  0  0  0  0  0  0  0  0  0  0  0
   55.0840   24.4400   46.0310 O   0  0  0  0  0  0  0  0  0  0  0  0
   54.7840   26.7040   46.0280 O   0  0  0  0  0  0  0  0  0  0  0  0
   57.7520   31.1610   45.6020 C   0  0  0  0  0  0  0  0  0  0  0  0
   57.3950   30.2260   46.3700 O   0  0  0  0  0  0  0  0  0  0  0  0
   58.5810   32.1220   46.0830 N   0  0  0  0  0  0  0  0  0  0  0  0
   63.7910   33.7249   46.7945 H   0  0  0  0  0  0  0  0  0  0  0  0
   62.5670   32.9490   45.7331 H   0  0  0  0  0  0  0  0  0  0  0  0
   62.7525   34.7357   45.7331 H   0  0  0  0  0  0  0  0  0  0  0  0
   63.2612   33.6911   49.0132 H   0  0  0  0  0  0  0  0  0  0  0  0
   61.6310   33.9334   50.8800 H   0  0  0  0  0  0  0  0  0  0  0  0
   59.2175   34.3312   50.3934 H   0  0  0  0  0  0  0  0  0  0  0  0
   58.4209   34.4460   48.0356 H   0  0  0  0  0  0  0  0  0  0  0  0
   60.0310   35.0330   45.2950 H   0  0  0  0  0  0  0  0  0  0  0  0
   58.9009   34.0615   43.3383 H   0  0  0  0  0  0  0  0  0  0  0  0
   55.4810   30.1603   44.2780 H   0  0  0  0  0  0  0  0  0  0  0  0
   56.2913   30.3285   42.6781 H   0  0  0  0  0  0  0  0  0  0  0  0
   56.2300   28.4420   45.8560 H   0  0  0  0  0  0  0  0  0  0  0  0
   59.6070   27.9224   45.1275 H   0  0  0  0  0  0  0  0  0  0  0  0
   60.9894   25.9800   45.8444 H   0  0  0  0  0  0  0  0  0  0  0  0
   59.8919   23.9034   46.6806 H   0  0  0  0  0  0  0  0  0  0  0  0
   57.4087   23.7515   46.7735 H   0  0  0  0  0  0  0  0  0  0  0  0
  1  2  1  0
  2  3  2  0
  3  4  1  0
  4  5  2  0
  5  6  1  0
  6  7  2  0
  7  8  1  0
  8  9  1  0
  9 10  2  0
 10 11  1  0
 11 12  2  0
 11 13  1  0
 13 14  1  0
 14 15  1  0
 15 16  2  0
 15 17  1  0
 17 18  1  0
 18 19  2  0
 19 20  1  0
 20 21  2  0
 21 22  1  0
 22 23  2  0
 23 24  1  0
 24 25  2  0
 24 26  1  0
 13 27  1  0
 27 28  2  0
 27 29  1  0
  7  2  1  0
 29  9  1  0
 23 18  1  0
  1 30  1  0
  1 31  1  0
  1 32  1  0
  3 33  1  0
  4 34  1  0
  5 35  1  0
  6 36  1  0
  8 37  1  0
 10 38  1  0
 14 39  1  0
 14 40  1  0
 17 41  1  0
 19 42  1  0
 20 43  1  0
 21 44  1  0
 22 45  1  0
M  CHG  2  26  -1  29  -1
M  END
>  <UniqueID>  (22) 
20

>  <SMILES>  (22) 
Cc1ccccc1Nc1cc(=O)n(CC(=O)Nc2ccccc2C(=O)[O-])c(=O)[n-]1

>  <Energy>  (22) 
63.85081672658167

>  <Genealogy>  (22) 
Cc1ccccc1Nc1cc(=O)n(CC(=O)Nc2ccccc2C(=O)[O-])c(=O)[n-]1 (protonated)
Cc1ccccc1Nc1cc(=O)n(CC(=O)Nc2ccccc2C(=O)[O-])c(=O)[n-]1 (3D coordinates assigned)
Cc1ccccc1Nc1cc(=O)n(CC(=O)Nc2ccccc2C(=O)[O-])c(=O)[n-]1 (optimized conformer: 63.85081672658167 kcal/mol)

>  <smiles>  (22) 
Cc1ccccc1Nc1cc(=O)n(CC(=O)Nc2ccccc2C(=O)O)c(=O)[nH]1

>  <score_type>  (22) 
oracle

>  <origin>  (22) 
adg

>  <m_score__min__energy>  (22) 
-12.710000000000001

>  <m_primary>  (22) 
energy

$$$$
22:0
     RDKit          3D

 30 31  0  0  0  0  0  0  0  0999 V2000
   53.7650   24.8310   45.5890 C   0  0  0  0  0  0  0  0  0  0  0  0
   54.4560   26.0620   45.9440 N   0  0  0  0  0  0  0  0  0  0  0  0
   55.8370   26.0940   46.3160 C   0  0  0  0  0  0  0  0  0  0  0  0
   56.2660   25.3070   47.2030 O   0  0  0  0  0  0  0  0  0  0  0  0
   56.7330   27.0990   45.6960 C   0  0  0  0  0  0  0  0  0  0  0  0
   56.1750   28.2600   45.2440 N   0  0  0  0  0  0  0  0  0  0  0  0
   56.9310   29.2410   44.6820 C   0  0  0  0  0  0  0  0  0  0  0  0
   56.2380   30.6300   44.1660 S   0  0  0  0  0  0  0  0  0  0  0  0
   58.2670   29.0760   44.5500 N   0  0  0  0  0  0  0  0  0  0  0  0
   58.8810   27.9400   44.9610 C   0  0  0  0  0  0  0  0  0  0  0  0
   60.1280   27.8270   44.8070 O   0  0  0  0  0  0  0  0  0  0  0  0
   58.1330   26.9000   45.5470 C   0  0  0  0  0  0  0  0  0  0  0  0
   58.8390   25.6130   45.9380 C   0  0  0  0  0  0  0  0  0  0  0  0
   58.2970   24.4220   45.1820 C   0  0  0  0  0  0  0  0  0  0  0  0
   58.6880   23.1200   45.5440 C   0  0  0  0  0  0  0  0  0  0  0  0
   58.2070   22.0150   44.8360 C   0  0  0  0  0  0  0  0  0  0  0  0
   57.3370   22.1970   43.7580 C   0  0  0  0  0  0  0  0  0  0  0  0
   56.9490   23.4850   43.3850 C   0  0  0  0  0  0  0  0  0  0  0  0
   57.4280   24.5940   44.0880 C   0  0  0  0  0  0  0  0  0  0  0  0
   53.4671   24.3004   46.5054 H   0  0  0  0  0  0  0  0  0  0  0  0
   52.8696   25.0708   44.9967 H   0  0  0  0  0  0  0  0  0  0  0  0
   54.4360   24.1916   44.9967 H   0  0  0  0  0  0  0  0  0  0  0  0
   55.1450   28.4140   45.3490 H   0  0  0  0  0  0  0  0  0  0  0  0
   59.9121   25.7152   45.7190 H   0  0  0  0  0  0  0  0  0  0  0  0
   58.6683   25.4425   47.0112 H   0  0  0  0  0  0  0  0  0  0  0  0
   59.3762   22.9707   46.3891 H   0  0  0  0  0  0  0  0  0  0  0  0
   58.5141   20.9999   45.1281 H   0  0  0  0  0  0  0  0  0  0  0  0
   56.9580   21.3258   43.2035 H   0  0  0  0  0  0  0  0  0  0  0  0
   56.2646   23.6275   42.5357 H   0  0  0  0  0  0  0  0  0  0  0  0
   57.1242   25.6068   43.7847 H   0  0  0  0  0  0  0  0  0  0  0  0
  1  2  1  0
  2  3  1  0
  3  4  2  0
  3  5  1  0
  5  6  1  0
  6  7  1  0
  7  8  2  0
  7  9  1  0
  9 10  1  0
 10 11  2  0
 10 12  1  0
 12 13  1  0
 13 14  1  0
 14 15  2  0
 15 16  1  0
 16 17  2  0
 17 18  1  0
 18 19  2  0
 12  5  2  0
 19 14  1  0
  1 20  1  0
  1 21  1  0
  1 22  1  0
  6 23  1  0
 13 24  1  0
 13 25  1  0
 15 26  1  0
 16 27  1  0
 17 28  1  0
 18 29  1  0
 19 30  1  0
M  CHG  2   2  -1   9  -1
M  END
>  <UniqueID>  (23) 
21

>  <SMILES>  (23) 
C[N-]C(=O)c1[nH]c(=S)[n-]c(=O)c1Cc1ccccc1

>  <Energy>  (23) 
36.39631129030128

>  <Genealogy>  (23) 
C[N-]C(=O)c1[nH]c(=S)[n-]c(=O)c1Cc1ccccc1 (protonated)
C[N-]C(=O)c1[nH]c(=S)[n-]c(=O)c1Cc1ccccc1 (3D coordinates assigned)
C[N-]C(=O)c1[nH]c(=S)[n-]c(=O)c1Cc1ccccc1 (optimized conformer: 36.39631129030128 kcal/mol)

>  <smiles>  (23) 
CNC(=O)c1[nH]c(=S)[nH]c(=O)c1Cc1ccccc1

>  <score_type>  (23) 
oracle

>  <origin>  (23) 
adg

>  <m_score__min__energy>  (23) 
-10.56

>  <m_primary>  (23) 
energy

$$$$
23:0
     RDKit          3D

 52 53  0  0  0  0  0  0  0  0999 V2000
   58.9890   29.7530   48.8590 C   0  0  0  0  0  0  0  0  0  0  0  0
   59.3790   31.1320   49.2810 C   0  0  0  0  0  0  0  0  0  0  0  0
   58.9720   31.5860   50.3850 O   0  0  0  0  0  0  0  0  0  0  0  0
   60.2320   31.9210   48.4400 N   0  0  0  0  0  0  0  0  0  0  0  0
   60.7500   33.2350   48.8440 C   0  0  0  0  0  0  0  0  0  0  0  0
   59.6060   34.2790   48.8910 C   0  0  0  0  0  0  0  0  0  0  0  0
   59.3970   35.0230   47.5550 C   0  0  0  0  0  0  0  0  0  0  0  0
   59.9230   34.2460   46.4230 N   0  0  0  0  0  0  0  0  0  0  0  0
   59.1360   34.0310   45.2400 C   0  0  0  0  0  0  0  0  0  0  0  0
   59.6620   34.1920   44.1050 O   0  0  0  0  0  0  0  0  0  0  0  0
   57.7030   33.5870   45.3330 C   0  0  0  0  0  0  0  0  0  0  0  0
   57.6080   32.0880   45.2370 C   0  0  0  0  0  0  0  0  0  0  0  0
   56.6160   31.4860   44.4450 C   0  0  0  0  0  0  0  0  0  0  0  0
   56.5530   30.0940   44.3320 C   0  0  0  0  0  0  0  0  0  0  0  0
   57.4750   29.2850   45.0130 C   0  0  0  0  0  0  0  0  0  0  0  0
   57.4090   27.8180   44.8720 C   0  0  0  0  0  0  0  0  0  0  0  0
   58.1840   27.2470   44.0590 O   0  0  0  0  0  0  0  0  0  0  0  0
   56.4870   27.0160   45.6230 N   0  0  0  0  0  0  0  0  0  0  0  0
   56.5520   25.5640   45.7930 C   0  0  1  0  0  0  0  0  0  0  0  0
   57.1090   25.2220   47.1800 C   0  0  0  0  0  0  0  0  0  0  0  0
   55.1440   24.9810   45.6090 C   0  0  0  0  0  0  0  0  0  0  0  0
   54.1640   25.9720   45.7770 O   0  0  0  0  0  0  0  0  0  0  0  0
   58.4870   29.8870   45.7750 C   0  0  0  0  0  0  0  0  0  0  0  0
   58.5500   31.2780   45.8890 C   0  0  0  0  0  0  0  0  0  0  0  0
   61.3210   33.7960   46.4410 C   0  0  0  0  0  0  0  0  0  0  0  0
   61.8570   33.6950   47.8780 C   0  0  0  0  0  0  0  0  0  0  0  0
   58.8136   29.1327   49.7503 H   0  0  0  0  0  0  0  0  0  0  0  0
   58.0689   29.7999   48.2580 H   0  0  0  0  0  0  0  0  0  0  0  0
   59.7974   29.3111   48.2580 H   0  0  0  0  0  0  0  0  0  0  0  0
   60.4830   31.5350   47.5030 H   0  0  0  0  0  0  0  0  0  0  0  0
   61.1800   33.1447   49.8524 H   0  0  0  0  0  0  0  0  0  0  0  0
   58.6714   33.7601   49.1506 H   0  0  0  0  0  0  0  0  0  0  0  0
   59.8864   35.0331   49.6411 H   0  0  0  0  0  0  0  0  0  0  0  0
   58.3207   35.1927   47.4039 H   0  0  0  0  0  0  0  0  0  0  0  0
   59.9389   35.9791   47.6015 H   0  0  0  0  0  0  0  0  0  0  0  0
   57.2841   33.9153   46.2957 H   0  0  0  0  0  0  0  0  0  0  0  0
   57.1378   34.0331   44.5014 H   0  0  0  0  0  0  0  0  0  0  0  0
   55.8859   32.1125   43.9116 H   0  0  0  0  0  0  0  0  0  0  0  0
   55.7764   29.6306   43.7058 H   0  0  0  0  0  0  0  0  0  0  0  0
   57.2250   25.1261   45.0411 H   0  0  0  0  0  0  0  0  0  0  0  0
   56.4427   25.6311   47.9538 H   0  0  0  0  0  0  0  0  0  0  0  0
   57.1720   24.1294   47.2906 H   0  0  0  0  0  0  0  0  0  0  0  0
   58.1119   25.6602   47.2906 H   0  0  0  0  0  0  0  0  0  0  0  0
   55.0588   24.5586   44.5969 H   0  0  0  0  0  0  0  0  0  0  0  0
   54.9861   24.1995   46.3669 H   0  0  0  0  0  0  0  0  0  0  0  0
   54.3910   26.7060   45.1490 H   0  0  0  0  0  0  0  0  0  0  0  0
   59.2342   29.2613   46.2850 H   0  0  0  0  0  0  0  0  0  0  0  0
   59.3434   31.7412   46.4939 H   0  0  0  0  0  0  0  0  0  0  0  0
   61.3851   32.8067   45.9643 H   0  0  0  0  0  0  0  0  0  0  0  0
   61.9295   34.5316   45.8945 H   0  0  0  0  0  0  0  0  0  0  0  0
   62.6831   32.9691   47.9045 H   0  0  0  0  0  0  0  0  0  0  0  0
   62.2093   34.6882   48.1932 H   0  0  0  0  0  0  0  0  0  0  0  0
  1  2  1  0
  2  3  2  0
  2  4  1  0
  4  5  1  0
  5  6  1  0
  6  7  1  0
  7  8  1  0
  8  9  1  0
  9 10  2  0
  9 11  1  0
 11 12  1  0
 12 13  2  0
 13 14  1  0
 14 15  2  0
 15 16  1  0
 16 17  2  0
 16 18  1  0
 18 19  1  0
 19 20  1  0
 19 21  1  0
 21 22  1  0
 15 23  1  0
 23 24  2  0
  8 25  1  0
 25 26  1  0
 26  5  1  0
 24 12  1  0
  1 27  1  0
  1 28  1  0
  1 29  1  0
  4 30  1  0
  5 31  1  0
  6 32  1  0
  6 33  1  0
  7 34  1  0
  7 35  1  0
 11 36  1  0
 11 37  1  0
 13 38  1  0
 14 39  1  0
 19 40  1  6
 20 41  1  0
 20 42  1  0
 20 43  1  0
 21 44  1  0
 21 45  1  0
 22 46  1  0
 23 47  1  0
 24 48  1  0
 25 49  1  0
 25 50  1  0
 26 51  1  0
 26 52  1  0
M  CHG  1  18  -1
M  END
>  <UniqueID>  (24) 
22

>  <SMILES>  (24) 
CC(=O)NC1CCN(C(=O)Cc2ccc(C(=O)[N-][C@@H](C)CO)cc2)CC1

>  <Energy>  (24) 
50.19925670076447

>  <Genealogy>  (24) 
CC(=O)NC1CCN(C(=O)Cc2ccc(C(=O)[N-]C(C)CO)cc2)CC1 (protonated)
CC(=O)NC1CCN(C(=O)Cc2ccc(C(=O)[N-][C@@H](C)CO)cc2)CC1 (chirality)
CC(=O)NC1CCN(C(=O)Cc2ccc(C(=O)[N-][C@@H](C)CO)cc2)CC1 (3D coordinates assigned)
CC(=O)NC1CCN(C(=O)Cc2ccc(C(=O)[N-][C@@H](C)CO)cc2)CC1 (nonaromatic ring conformer: 50.19925670076447 kcal/mol)

>  <smiles>  (24) 
CC(=O)NC1CCN(C(=O)Cc2ccc(C(=O)NC(C)CO)cc2)CC1

>  <score_type>  (24) 
oracle

>  <origin>  (24) 
adg

>  <m_score__min__energy>  (24) 
-10.15

>  <m_primary>  (24) 
energy

$$$$
24:0
     RDKit          3D

 73 77  0  0  0  0  0  0  0  0999 V2000
   58.8160   27.8220   47.8330 O   0  0  0  0  0  0  0  0  0  0  0  0
   59.3960   28.9390   47.9160 C   0  0  0  0  0  0  0  0  0  0  0  0
   59.2150   29.7770   49.0620 N   0  0  0  0  0  0  0  0  0  0  0  0
   60.2630   30.3730   49.8370 C   0  0  0  0  0  0  0  0  0  0  0  0
   61.5850   29.5630   50.4920 S   0  0  0  0  0  0  0  0  0  0  0  0
   62.2810   30.9300   51.1720 C   0  0  0  0  0  0  0  0  0  0  0  0
   63.8130   30.9440   52.0240 S   0  0  0  0  0  0  0  0  0  0  0  0
   63.9110   32.2050   52.8360 O   0  0  0  0  0  0  0  0  0  0  0  0
   63.8240   29.7650   52.9530 O   0  0  0  0  0  0  0  0  0  0  0  0
   65.1680   30.8390   50.9090 N   0  0  0  0  0  0  0  0  0  0  0  0
   65.4340   32.1550   50.2850 C   0  0  0  0  0  0  0  0  0  0  0  0
   64.3150   32.5440   49.3530 C   0  0  0  0  0  0  0  0  0  0  0  0
   63.8520   31.6430   48.3760 C   0  0  0  0  0  0  0  0  0  0  0  0
   62.8030   32.0070   47.5230 C   0  0  0  0  0  0  0  0  0  0  0  0
   62.2240   33.2760   47.6240 C   0  0  0  0  0  0  0  0  0  0  0  0
   62.7080   34.1900   48.5620 C   0  0  0  0  0  0  0  0  0  0  0  0
   63.7590   33.8320   49.4120 C   0  0  0  0  0  0  0  0  0  0  0  0
   66.3680   30.3430   51.6120 C   0  0  0  0  0  0  0  0  0  0  0  0
   66.6510   28.9100   51.2500 C   0  0  0  0  0  0  0  0  0  0  0  0
   65.7890   27.8810   51.6680 C   0  0  0  0  0  0  0  0  0  0  0  0
   66.0480   26.5560   51.3060 C   0  0  0  0  0  0  0  0  0  0  0  0
   67.1680   26.2470   50.5290 C   0  0  0  0  0  0  0  0  0  0  0  0
   68.0360   27.2640   50.1180 C   0  0  0  0  0  0  0  0  0  0  0  0
   67.7790   28.5910   50.4750 C   0  0  0  0  0  0  0  0  0  0  0  0
   61.4710   32.0320   50.9340 C   0  0  0  0  0  0  0  0  0  0  0  0
   60.3340   31.7260   50.1680 C   0  0  0  0  0  0  0  0  0  0  0  0
   59.0850   32.9000   49.7100 S   0  0  0  0  0  0  0  0  0  0  0  0
   59.2970   34.1590   50.5070 O   0  0  0  0  0  0  0  0  0  0  0  0
   57.7410   32.3320   50.0690 O   0  0  0  0  0  0  0  0  0  0  0  0
   59.0470   33.2880   48.0050 N   0  0  0  0  0  0  0  0  0  0  0  0
   59.4760   34.6740   47.7620 C   0  0  0  0  0  0  0  0  0  0  0  0
   59.5020   34.9670   46.2460 C   0  0  0  0  0  0  0  0  0  0  0  0
   58.7640   34.0230   45.4830 O   0  0  0  0  0  0  0  0  0  0  0  0
   57.5210   33.7710   46.1000 C   0  0  0  0  0  0  0  0  0  0  0  0
   57.7340   32.9820   47.4010 C   0  0  0  0  0  0  0  0  0  0  0  0
   60.2610   29.3630   46.9010 O   0  0  0  0  0  0  0  0  0  0  0  0
   59.9650   30.4530   46.0290 C   0  0  0  0  0  0  0  0  0  0  0  0
   58.8780   30.0670   45.0640 C   0  0  0  0  0  0  0  0  0  0  0  0
   58.7360   28.7270   44.6680 C   0  0  0  0  0  0  0  0  0  0  0  0
   57.6990   28.3520   43.8040 C   0  0  0  0  0  0  0  0  0  0  0  0
   56.7940   29.3120   43.3400 C   0  0  0  0  0  0  0  0  0  0  0  0
   56.9230   30.6460   43.7380 C   0  0  0  0  0  0  0  0  0  0  0  0
   57.9600   31.0240   44.5980 C   0  0  0  0  0  0  0  0  0  0  0  0
   65.5264   32.9157   51.0741 H   0  0  0  0  0  0  0  0  0  0  0  0
   66.3666   32.0873   49.7057 H   0  0  0  0  0  0  0  0  0  0  0  0
   64.3156   30.6499   48.2822 H   0  0  0  0  0  0  0  0  0  0  0  0
   62.4335   31.2933   46.7719 H   0  0  0  0  0  0  0  0  0  0  0  0
   61.3881   33.5538   46.9651 H   0  0  0  0  0  0  0  0  0  0  0  0
   62.2619   35.1930   48.6324 H   0  0  0  0  0  0  0  0  0  0  0  0
   64.1529   34.5645   50.1319 H   0  0  0  0  0  0  0  0  0  0  0  0
   67.2320   30.9627   51.3300 H   0  0  0  0  0  0  0  0  0  0  0  0
   66.1889   30.4020   52.6957 H   0  0  0  0  0  0  0  0  0  0  0  0
   64.9079   28.1194   52.2819 H   0  0  0  0  0  0  0  0  0  0  0  0
   65.3690   25.7548   51.6333 H   0  0  0  0  0  0  0  0  0  0  0  0
   67.3668   25.2042   50.2408 H   0  0  0  0  0  0  0  0  0  0  0  0
   68.9217   27.0194   49.5133 H   0  0  0  0  0  0  0  0  0  0  0  0
   68.4624   29.3885   50.1480 H   0  0  0  0  0  0  0  0  0  0  0  0
   61.6966   33.0419   51.3072 H   0  0  0  0  0  0  0  0  0  0  0  0
   58.7732   35.3631   48.2531 H   0  0  0  0  0  0  0  0  0  0  0  0
   60.4873   34.8134   48.1716 H   0  0  0  0  0  0  0  0  0  0  0  0
   59.0745   35.9660   46.0752 H   0  0  0  0  0  0  0  0  0  0  0  0
   60.5502   34.9059   45.9182 H   0  0  0  0  0  0  0  0  0  0  0  0
   57.0273   34.7268   46.3296 H   0  0  0  0  0  0  0  0  0  0  0  0
   56.8907   33.1816   45.4178 H   0  0  0  0  0  0  0  0  0  0  0  0
   56.9404   33.2473   48.1151 H   0  0  0  0  0  0  0  0  0  0  0  0
   57.7019   31.9081   47.1652 H   0  0  0  0  0  0  0  0  0  0  0  0
   59.6318   31.3151   46.6255 H   0  0  0  0  0  0  0  0  0  0  0  0
   60.8708   30.7151   45.4626 H   0  0  0  0  0  0  0  0  0  0  0  0
   59.4420   27.9688   45.0378 H   0  0  0  0  0  0  0  0  0  0  0  0
   57.5966   27.3026   43.4906 H   0  0  0  0  0  0  0  0  0  0  0  0
   55.9800   29.0172   42.6614 H   0  0  0  0  0  0  0  0  0  0  0  0
   56.2085   31.3993   43.3747 H   0  0  0  0  0  0  0  0  0  0  0  0
   58.0572   32.0742   44.9106 H   0  0  0  0  0  0  0  0  0  0  0  0
  1  2  2  0
  2  3  1  0
  3  4  1  0
  4  5  1  0
  5  6  1  0
  6  7  1  0
  7  8  2  0
  7  9  2  0
  7 10  1  0
 10 11  1  0
 11 12  1  0
 12 13  2  0
 13 14  1  0
 14 15  2  0
 15 16  1  0
 16 17  2  0
 10 18  1  0
 18 19  1  0
 19 20  2  0
 20 21  1  0
 21 22  2  0
 22 23  1  0
 23 24  2  0
  6 25  2  0
 25 26  1  0
 26 27  1  0
 27 28  2  0
 27 29  2  0
 27 30  1  0
 30 31  1  0
 31 32  1  0
 32 33  1  0
 33 34  1  0
 34 35  1  0
  2 36  1  0
 36 37  1  0
 37 38  1  0
 38 39  2  0
 39 40  1  0
 40 41  2  0
 41 42  1  0
 42 43  2  0
 26  4  2  0
 35 30  1  0
 43 38  1  0
 17 12  1  0
 24 19  1  0
 11 44  1  0
 11 45  1  0
 13 46  1  0
 14 47  1  0
 15 48  1  0
 16 49  1  0
 17 50  1  0
 18 51  1  0
 18 52  1  0
 20 53  1  0
 21 54  1  0
 22 55  1  0
 23 56  1  0
 24 57  1  0
 25 58  1  0
 31 59  1  0
 31 60  1  0
 32 61  1  0
 32 62  1  0
 34 63  1  0
 34 64  1  0
 35 65  1  0
 35 66  1  0
 37 67  1  0
 37 68  1  0
 39 69  1  0
 40 70  1  0
 41 71  1  0
 42 72  1  0
 43 73  1  0
M  CHG  1   3  -1
M  END
>  <UniqueID>  (25) 
23

>  <SMILES>  (25) 
O=C([N-]c1sc(S(=O)(=O)N(Cc2ccccc2)Cc2ccccc2)cc1S(=O)(=O)N1CCOCC1)OCc1ccccc1

>  <Energy>  (25) 
108.73488002597665

>  <Genealogy>  (25) 
O=C([N-]c1sc(S(=O)(=O)N(Cc2ccccc2)Cc2ccccc2)cc1S(=O)(=O)N1CCOCC1)OCc1ccccc1 (protonated)
O=C([N-]c1sc(S(=O)(=O)N(Cc2ccccc2)Cc2ccccc2)cc1S(=O)(=O)N1CCOCC1)OCc1ccccc1 (3D coordinates assigned)
O=C([N-]c1sc(S(=O)(=O)N(Cc2ccccc2)Cc2ccccc2)cc1S(=O)(=O)N1CCOCC1)OCc1ccccc1 (nonaromatic ring conformer: 108.73488002597665 kcal/mol)

>  <smiles>  (25) 
O=C(Nc1sc(S(=O)(=O)N(Cc2ccccc2)Cc2ccccc2)cc1S(=O)(=O)N1CCOCC1)OCc1ccccc1

>  <score_type>  (25) 
oracle

>  <origin>  (25) 
adg

>  <m_score__min__energy>  (25) 
-13.43

>  <m_primary>  (25) 
energy

$$$$
25:0
     RDKit          3D

 39 41  0  0  0  0  0  0  0  0999 V2000
   60.3160   32.0980   50.8960 O   0  0  0  0  0  0  0  0  0  0  0  0
   60.3590   32.6880   49.7840 C   0  0  0  0  0  0  0  0  0  0  0  0
   59.1540   33.2630   49.2620 N   0  0  0  0  0  0  0  0  0  0  0  0
   58.9220   33.5690   47.8810 C   0  0  0  0  0  0  0  0  0  0  0  0
   59.5180   34.6830   47.2680 C   0  0  0  0  0  0  0  0  0  0  0  0
   59.2790   34.9530   45.9180 C   0  0  0  0  0  0  0  0  0  0  0  0
   58.4310   34.1260   45.1770 C   0  0  0  0  0  0  0  0  0  0  0  0
   57.8130   33.0260   45.7830 C   0  0  0  0  0  0  0  0  0  0  0  0
   56.9070   32.2220   45.0130 N   0  0  0  0  0  0  0  0  0  0  0  0
   57.2780   31.1130   44.1800 C   0  0  0  0  0  0  0  0  0  0  0  0
   57.3410   31.2890   42.9360 O   0  0  0  0  0  0  0  0  0  0  0  0
   57.5280   29.7630   44.7430 C   0  0  0  0  0  0  0  0  0  0  0  0
   58.8470   29.3050   44.9110 C   0  0  0  0  0  0  0  0  0  0  0  0
   59.0960   28.0300   45.4210 C   0  0  0  0  0  0  0  0  0  0  0  0
   58.0340   27.2010   45.7820 C   0  0  0  0  0  0  0  0  0  0  0  0
   56.7150   27.6400   45.6370 C   0  0  0  0  0  0  0  0  0  0  0  0
   55.6740   26.7900   46.0100 O   0  0  0  0  0  0  0  0  0  0  0  0
   56.4560   28.9230   45.1170 C   0  0  0  0  0  0  0  0  0  0  0  0
   55.1410   29.3480   44.9580 O   0  0  0  0  0  0  0  0  0  0  0  0
   58.0970   32.7270   47.1270 C   0  0  0  0  0  0  0  0  0  0  0  0
   61.6540   32.8150   49.0740 C   0  0  0  0  0  0  0  0  0  0  0  0
   62.6370   33.7010   49.5500 C   0  0  0  0  0  0  0  0  0  0  0  0
   63.8580   33.8280   48.8800 C   0  0  0  0  0  0  0  0  0  0  0  0
   64.1050   33.0800   47.7260 C   0  0  0  0  0  0  0  0  0  0  0  0
   63.1300   32.2080   47.2360 C   0  0  0  0  0  0  0  0  0  0  0  0
   61.9070   32.0790   47.9010 C   0  0  0  0  0  0  0  0  0  0  0  0
   60.1746   35.3447   47.8520 H   0  0  0  0  0  0  0  0  0  0  0  0
   59.7594   35.8182   45.4378 H   0  0  0  0  0  0  0  0  0  0  0  0
   58.2484   34.3401   44.1136 H   0  0  0  0  0  0  0  0  0  0  0  0
   59.6896   29.9573   44.6381 H   0  0  0  0  0  0  0  0  0  0  0  0
   60.1316   27.6783   45.5385 H   0  0  0  0  0  0  0  0  0  0  0  0
   58.2355   26.1967   46.1828 H   0  0  0  0  0  0  0  0  0  0  0  0
   54.7070   27.0920   46.0130 H   0  0  0  0  0  0  0  0  0  0  0  0
   57.6680   31.8255   47.5888 H   0  0  0  0  0  0  0  0  0  0  0  0
   62.4445   34.2973   50.4541 H   0  0  0  0  0  0  0  0  0  0  0  0
   64.6250   34.5177   49.2621 H   0  0  0  0  0  0  0  0  0  0  0  0
   65.0678   33.1779   47.2031 H   0  0  0  0  0  0  0  0  0  0  0  0
   63.3247   31.6220   46.3257 H   0  0  0  0  0  0  0  0  0  0  0  0
   61.1383   31.3987   47.5055 H   0  0  0  0  0  0  0  0  0  0  0  0
  1  2  2  0
  2  3  1  0
  3  4  1  0
  4  5  2  0
  5  6  1  0
  6  7  2  0
  7  8  1  0
  8  9  1  0
  9 10  1  0
 10 11  2  0
 10 12  1  0
 12 13  2  0
 13 14  1  0
 14 15  2  0
 15 16  1  0
 16 17  1  0
 16 18  2  0
 18 19  1  0
  8 20  2  0
  2 21  1  0
 21 22  2  0
 22 23  1  0
 23 24  2  0
 24 25  1  0
 25 26  2  0
 20  4  1  0
 26 21  1  0
 18 12  1  0
  5 27  1  0
  6 28  1  0
  7 29  1  0
 13 30  1  0
 14 31  1  0
 15 32  1  0
 17 33  1  0
 20 34  1  0
 22 35  1  0
 23 36  1  0
 24 37  1  0
 25 38  1  0
 26 39  1  0
M  CHG  3   3  -1   9  -1  19  -1
M  END
>  <UniqueID>  (26) 
24

>  <SMILES>  (26) 
O=C([N-]c1cccc([N-]C(=O)c2cccc(O)c2[O-])c1)c1ccccc1

>  <Energy>  (26) 
56.302259615318654

>  <Genealogy>  (26) 
O=C([N-]c1cccc([N-]C(=O)c2cccc(O)c2[O-])c1)c1ccccc1 (protonated)
O=C([N-]c1cccc([N-]C(=O)c2cccc(O)c2[O-])c1)c1ccccc1 (3D coordinates assigned)
O=C([N-]c1cccc([N-]C(=O)c2cccc(O)c2[O-])c1)c1ccccc1 (optimized conformer: 56.302259615318654 kcal/mol)

>  <smiles>  (26) 
O=C(Nc1cccc(NC(=O)c2cccc(O)c2O)c1)c1ccccc1

>  <score_type>  (26) 
oracle

>  <origin>  (26) 
adg

>  <m_score__min__energy>  (26) 
-15.42

>  <m_primary>  (26) 
energy

$$$$
26:0
     RDKit          3D

 39 41  0  0  0  0  0  0  0  0999 V2000
   59.0870   27.9390   44.1170 C   0  0  0  0  0  0  0  0  0  0  0  0
   57.6820   28.2890   43.6380 C   0  0  0  0  0  0  0  0  0  0  0  0
   56.9240   28.8950   44.6850 O   0  0  0  0  0  0  0  0  0  0  0  0
   56.6420   30.2660   44.7390 C   0  0  0  0  0  0  0  0  0  0  0  0
   55.5070   30.6850   44.3840 O   0  0  0  0  0  0  0  0  0  0  0  0
   57.6950   31.2190   45.1750 C   0  0  0  0  0  0  0  0  0  0  0  0
   57.7330   32.4970   44.5840 C   0  0  0  0  0  0  0  0  0  0  0  0
   58.6690   33.4470   44.9940 C   0  0  0  0  0  0  0  0  0  0  0  0
   59.5870   33.1390   45.9960 C   0  0  0  0  0  0  0  0  0  0  0  0
   59.5740   31.8770   46.5890 C   0  0  0  0  0  0  0  0  0  0  0  0
   58.6360   30.9070   46.1940 C   0  0  0  0  0  0  0  0  0  0  0  0
   58.7020   29.5930   46.7700 N   0  0  0  0  0  0  0  0  0  0  0  0
   59.5750   29.2600   47.8620 C   0  0  0  0  0  0  0  0  0  0  0  0
   60.3170   30.1380   48.3780 O   0  0  0  0  0  0  0  0  0  0  0  0
   59.6120   27.8570   48.3920 C   0  0  0  0  0  0  0  0  0  0  0  0
   60.2700   26.6890   47.1510 S   0  0  0  0  0  0  0  0  0  0  0  0
   58.6870   25.9320   46.7880 C   0  0  0  0  0  0  0  0  0  0  0  0
   58.5840   24.5640   46.7360 N   0  0  0  0  0  0  0  0  0  0  0  0
   57.3980   23.9530   46.4470 C   0  0  0  0  0  0  0  0  0  0  0  0
   57.3130   22.6980   46.4080 O   0  0  0  0  0  0  0  0  0  0  0  0
   56.2970   24.7630   46.2080 C   0  0  0  0  0  0  0  0  0  0  0  0
   54.9760   24.5300   45.9150 C   0  0  0  0  0  0  0  0  0  0  0  0
   54.3580   25.7330   45.8080 N   0  0  0  0  0  0  0  0  0  0  0  0
   55.2410   26.7060   46.0230 N   0  0  0  0  0  0  0  0  0  0  0  0
   56.4180   26.1100   46.2660 C   0  0  0  0  0  0  0  0  0  0  0  0
   57.5940   26.7200   46.5480 N   0  0  0  0  0  0  0  0  0  0  0  0
   59.1087   27.9336   45.2168 H   0  0  0  0  0  0  0  0  0  0  0  0
   59.3657   26.9440   43.7399 H   0  0  0  0  0  0  0  0  0  0  0  0
   59.7999   28.6870   43.7399 H   0  0  0  0  0  0  0  0  0  0  0  0
   57.7535   28.9896   42.7930 H   0  0  0  0  0  0  0  0  0  0  0  0
   57.1754   27.3634   43.3273 H   0  0  0  0  0  0  0  0  0  0  0  0
   57.0157   32.7493   43.7892 H   0  0  0  0  0  0  0  0  0  0  0  0
   58.6823   34.4419   44.5249 H   0  0  0  0  0  0  0  0  0  0  0  0
   60.3217   33.8912   46.3191 H   0  0  0  0  0  0  0  0  0  0  0  0
   60.3058   31.6377   47.3746 H   0  0  0  0  0  0  0  0  0  0  0  0
   58.0670   28.8550   46.3930 H   0  0  0  0  0  0  0  0  0  0  0  0
   60.2541   27.8291   49.2847 H   0  0  0  0  0  0  0  0  0  0  0  0
   58.5837   27.5545   48.6392 H   0  0  0  0  0  0  0  0  0  0  0  0
   54.5035   23.5446   45.7895 H   0  0  0  0  0  0  0  0  0  0  0  0
  1  2  1  0
  2  3  1  0
  3  4  1  0
  4  5  2  0
  4  6  1  0
  6  7  2  0
  7  8  1  0
  8  9  2  0
  9 10  1  0
 10 11  2  0
 11 12  1  0
 12 13  1  0
 13 14  2  0
 13 15  1  0
 15 16  1  0
 16 17  1  0
 17 18  2  0
 18 19  1  0
 19 20  2  0
 19 21  1  0
 21 22  2  0
 22 23  1  0
 23 24  1  0
 24 25  2  0
 25 26  1  0
 11  6  1  0
 26 17  1  0
 25 21  1  0
  1 27  1  0
  1 28  1  0
  1 29  1  0
  2 30  1  0
  2 31  1  0
  7 32  1  0
  8 33  1  0
  9 34  1  0
 10 35  1  0
 12 36  1  0
 15 37  1  0
 15 38  1  0
 22 39  1  0
M  CHG  2  23  -1  26  -1
M  END
>  <UniqueID>  (27) 
25

>  <SMILES>  (27) 
CCOC(=O)c1ccccc1NC(=O)CSc1nc(=O)c2c[n-]nc2[n-]1

>  <Energy>  (27) 
79.63146640554473

>  <Genealogy>  (27) 
CCOC(=O)c1ccccc1NC(=O)CSc1nc(=O)c2c[n-]nc2[n-]1 (protonated)
CCOC(=O)c1ccccc1NC(=O)CSc1nc(=O)c2c[n-]nc2[n-]1 (3D coordinates assigned)
CCOC(=O)c1ccccc1NC(=O)CSc1nc(=O)c2c[n-]nc2[n-]1 (optimized conformer: 79.63146640554473 kcal/mol)

>  <smiles>  (27) 
CCOC(=O)c1ccccc1NC(=O)CSc1nc(=O)c2c[nH]nc2[nH]1

>  <score_type>  (27) 
oracle

>  <origin>  (27) 
adg

>  <m_score__min__energy>  (27) 
-12.220000000000001

>  <m_primary>  (27) 
energy

$$$$
27:0
     RDKit          3D

 29 30  0  0  0  0  0  0  0  0999 V2000
   60.6181   27.4434   47.1943 H   0  0  0  0  0  0  0  0  0  0  0  0
   59.8740   27.9940   46.6000 C   0  0  0  0  0  0  0  0  0  0  0  0
   59.4430   27.4880   45.4210 N   0  0  0  0  0  0  0  0  0  0  0  0
   58.4990   28.1200   44.6770 C   0  0  0  0  0  0  0  0  0  0  0  0
   58.1706   27.6757   43.7258 H   0  0  0  0  0  0  0  0  0  0  0  0
   57.9360   29.3340   45.1060 C   0  0  0  0  0  0  0  0  0  0  0  0
   56.4520   29.8440   44.2720 S   0  0  0  0  0  0  0  0  0  0  0  0
   56.1880   31.3050   44.5010 O   0  0  0  0  0  0  0  0  0  0  0  0
   56.5410   29.5580   42.8010 O   0  0  0  0  0  0  0  0  0  0  0  0
   55.1450   28.9940   44.8990 O   0  0  0  0  0  0  0  0  0  0  0  0
   58.4550   29.9350   46.2970 C   0  0  0  0  0  0  0  0  0  0  0  0
   58.1630   31.1340   46.7280 N   0  0  0  0  0  0  0  0  0  0  0  0
   58.6750   32.4090   46.3210 C   0  0  0  0  0  0  0  0  0  0  0  0
   57.8620   33.2540   45.5530 C   0  0  0  0  0  0  0  0  0  0  0  0
   56.8738   32.9065   45.2174 H   0  0  0  0  0  0  0  0  0  0  0  0
   58.3010   34.5350   45.2120 C   0  0  0  0  0  0  0  0  0  0  0  0
   57.6728   35.1818   44.5819 H   0  0  0  0  0  0  0  0  0  0  0  0
   59.5360   34.9950   45.6700 C   0  0  0  0  0  0  0  0  0  0  0  0
   59.8855   36.0000   45.3908 H   0  0  0  0  0  0  0  0  0  0  0  0
   60.3300   34.1810   46.4830 C   0  0  0  0  0  0  0  0  0  0  0  0
   61.2981   34.5522   46.8505 H   0  0  0  0  0  0  0  0  0  0  0  0
   59.8960   32.8870   46.8340 C   0  0  0  0  0  0  0  0  0  0  0  0
   60.6440   32.0560   47.6840 O   0  0  0  0  0  0  0  0  0  0  0  0
   62.0130   31.7220   47.4850 C   0  0  0  0  0  0  0  0  0  0  0  0
   62.5066   31.6016   48.4606 H   0  0  0  0  0  0  0  0  0  0  0  0
   62.0824   30.7806   46.9203 H   0  0  0  0  0  0  0  0  0  0  0  0
   62.5082   32.5257   46.9203 H   0  0  0  0  0  0  0  0  0  0  0  0
   59.3780   29.2090   47.0620 C   0  0  0  0  0  0  0  0  0  0  0  0
   59.7123   29.6021   48.0335 H   0  0  0  0  0  0  0  0  0  0  0  0
  1  2  1  0
  2  3  1  0
  3  4  1  0
  4  5  1  0
  4  6  2  0
  6  7  1  0
  7  8  2  0
  7  9  2  0
  7 10  1  0
  6 11  1  0
 11 12  2  0
 12 13  1  0
 13 14  2  0
 14 15  1  0
 14 16  1  0
 16 17  1  0
 16 18  2  0
 18 19  1  0
 18 20  1  0
 20 21  1  0
 20 22  2  0
 22 23  1  0
 23 24  1  0
 24 25  1  0
 24 26  1  0
 24 27  1  0
 11 28  1  0
 28 29  1  0
 28  2  2  0
 22 13  1  0
M  CHG  2   3  -1  10  -1
M  END
>  <UniqueID>  (28) 
26

>  <SMILES>  (28) 
COc1ccccc1/N=c1/cc[n-]cc1S(=O)(=O)[O-]

>  <Energy>  (28) 
52.0283206575558

>  <Genealogy>  (28) 
COc1ccccc1N=c1cc[n-]cc1S(=O)(=O)[O-] (protonated)
COc1ccccc1/N=c1/cc[n-]cc1S(=O)(=O)[O-] (cis-trans isomerization)
COc1ccccc1/N=c1/cc[n-]cc1S(=O)(=O)[O-] (3D coordinates assigned)
COc1ccccc1/N=c1/cc[n-]cc1S(=O)(=O)[O-] (optimized conformer: 52.0283206575558 kcal/mol)

>  <smiles>  (28) 
COc1ccccc1N=c1cc[nH]cc1S(=O)(=O)O

>  <score_type>  (28) 
oracle

>  <origin>  (28) 
adg

>  <m_score__min__energy>  (28) 
-10.859999999999999

>  <m_primary>  (28) 
energy

$$$$
28:0
     RDKit          3D

 47 51  0  0  0  0  0  0  0  0999 V2000
   54.7720   27.0930   45.2850 H   0  0  0  0  0  0  0  0  0  0  0  0
   54.7320   26.3430   45.9620 O   0  0  0  0  0  0  0  0  0  0  0  0
   54.4660   25.0260   45.5950 C   0  0  0  0  0  0  0  0  0  0  0  0
   53.2740   24.4390   45.7910 N   0  0  0  0  0  0  0  0  0  0  0  0
   53.4640   23.1980   45.2980 C   0  0  0  0  0  0  0  0  0  0  0  0
   52.5600   22.3220   45.2960 O   0  0  0  0  0  0  0  0  0  0  0  0
   54.6990   22.9700   44.8050 N   0  0  0  0  0  0  0  0  0  0  0  0
   55.3410   24.1370   44.9970 C   0  0  0  0  0  0  0  0  0  0  0  0
   56.7420   24.4160   44.6050 C   0  0  0  0  0  0  0  0  0  0  0  0
   57.0574   24.1057   43.5979 H   0  0  0  0  0  0  0  0  0  0  0  0
   57.6580   25.0180   45.3820 C   0  0  0  0  0  0  0  0  0  0  0  0
   58.6710   24.4720   46.1740 C   0  0  0  0  0  0  0  0  0  0  0  0
   58.8907   23.3984   46.2693 H   0  0  0  0  0  0  0  0  0  0  0  0
   59.3420   25.4640   46.8070 N   0  0  0  0  0  0  0  0  0  0  0  0
   58.8040   26.6110   46.4270 N   0  0  0  0  0  0  0  0  0  0  0  0
   59.1060   27.8800   46.8290 C   0  0  0  0  0  0  0  0  0  0  0  0
   60.0890   28.1660   47.6380 N   0  0  0  0  0  0  0  0  0  0  0  0
   60.1290   29.1610   48.6670 C   0  0  0  0  0  0  0  0  0  0  0  0
   59.1300   29.3020   49.4200 O   0  0  0  0  0  0  0  0  0  0  0  0
   61.2680   30.0240   48.7920 N   0  0  0  0  0  0  0  0  0  0  0  0
   61.4740   31.2820   48.1340 C   0  0  0  0  0  0  0  0  0  0  0  0
   62.7850   31.6670   47.8260 C   0  0  0  0  0  0  0  0  0  0  0  0
   63.6256   31.0129   48.1009 H   0  0  0  0  0  0  0  0  0  0  0  0
   63.0320   32.8780   47.1710 C   0  0  0  0  0  0  0  0  0  0  0  0
   64.0654   33.1788   46.9438 H   0  0  0  0  0  0  0  0  0  0  0  0
   61.9680   33.7060   46.8050 C   0  0  0  0  0  0  0  0  0  0  0  0
   62.1641   34.6612   46.2960 H   0  0  0  0  0  0  0  0  0  0  0  0
   60.6530   33.3200   47.0860 C   0  0  0  0  0  0  0  0  0  0  0  0
   59.3160   34.3470   46.6010 Cl  0  0  0  0  0  0  0  0  0  0  0  0
   60.4040   32.1090   47.7440 C   0  0  0  0  0  0  0  0  0  0  0  0
   59.3690   31.8033   47.9567 H   0  0  0  0  0  0  0  0  0  0  0  0
   58.3130   28.8910   46.3780 N   0  0  0  0  0  0  0  0  0  0  0  0
   57.2660   28.6480   45.5300 C   0  0  0  0  0  0  0  0  0  0  0  0
   56.5320   29.6200   45.0710 N   0  0  0  0  0  0  0  0  0  0  0  0
   56.9340   30.6420   44.1440 C   0  0  0  0  0  0  0  0  0  0  0  0
   57.6770   31.7300   44.6230 C   0  0  0  0  0  0  0  0  0  0  0  0
   57.9178   31.7985   45.6941 H   0  0  0  0  0  0  0  0  0  0  0  0
   58.1140   32.7290   43.7470 C   0  0  0  0  0  0  0  0  0  0  0  0
   58.6830   33.5876   44.1331 H   0  0  0  0  0  0  0  0  0  0  0  0
   57.8290   32.6380   42.3830 C   0  0  0  0  0  0  0  0  0  0  0  0
   58.1657   33.4290   41.6967 H   0  0  0  0  0  0  0  0  0  0  0  0
   57.1160   31.5420   41.8900 C   0  0  0  0  0  0  0  0  0  0  0  0
   56.8997   31.4663   40.8141 H   0  0  0  0  0  0  0  0  0  0  0  0
   56.6770   30.5410   42.7630 C   0  0  0  0  0  0  0  0  0  0  0  0
   56.1292   29.6720   42.3695 H   0  0  0  0  0  0  0  0  0  0  0  0
   57.0030   27.3740   45.1250 N   0  0  0  0  0  0  0  0  0  0  0  0
   57.7870   26.3740   45.5930 C   0  0  0  0  0  0  0  0  0  0  0  0
  1  2  1  0
  2  3  1  0
  3  4  1  0
  4  5  1  0
  5  6  2  0
  5  7  1  0
  7  8  1  0
  8  9  1  0
  9 10  1  0
  9 11  2  3
 11 12  1  0
 12 13  1  0
 12 14  2  0
 14 15  1  0
 15 16  1  0
 16 17  2  3
 17 18  1  0
 18 19  2  0
 18 20  1  0
 20 21  1  0
 21 22  2  0
 22 23  1  0
 22 24  1  0
 24 25  1  0
 24 26  2  0
 26 27  1  0
 26 28  1  0
 28 29  1  0
 28 30  2  0
 30 31  1  0
 16 32  1  0
 32 33  1  0
 33 34  2  0
 34 35  1  0
 35 36  2  0
 36 37  1  0
 36 38  1  0
 38 39  1  0
 38 40  2  0
 40 41  1  0
 40 42  1  0
 42 43  1  0
 42 44  2  0
 44 45  1  0
 33 46  1  0
 46 47  2  0
  8  3  2  0
 47 11  1  0
 47 15  1  0
 30 21  1  0
 44 35  1  0
M  CHG  4   4  -1   7  -1  20  -1  32  -1
M  END
>  <UniqueID>  (29) 
27

>  <SMILES>  (29) 
O=C(N=c1[n-]/c(=N\c2ccccc2)nc2c(=Cc3[n-]c(=O)[n-]c3O)cnn12)[N-]c1cccc(Cl)c1

>  <Energy>  (29) 
144.32937796550283

>  <Genealogy>  (29) 
O=C(N=c1[n-]c(=Nc2ccccc2)nc2c(=Cc3[n-]c(=O)[n-]c3O)cnn12)[N-]c1cccc(Cl)c1 (protonated)
O=C(N=c1[n-]/c(=N\c2ccccc2)nc2c(=Cc3[n-]c(=O)[n-]c3O)cnn12)[N-]c1cccc(Cl)c1 (cis-trans isomerization)
O=C(N=c1[n-]/c(=N\c2ccccc2)nc2c(=Cc3[n-]c(=O)[n-]c3O)cnn12)[N-]c1cccc(Cl)c1 (3D coordinates assigned)
O=C(N=c1[n-]/c(=N\c2ccccc2)nc2c(=Cc3[n-]c(=O)[n-]c3O)cnn12)[N-]c1cccc(Cl)c1 (optimized conformer: 144.32937796550283 kcal/mol)

>  <smiles>  (29) 
O=C(N=c1[nH]c(=Nc2ccccc2)nc2c(=Cc3[nH]c(=O)[nH]c3O)cnn12)Nc1cccc(Cl)c1

>  <score_type>  (29) 
oracle

>  <origin>  (29) 
adg

>  <m_score__min__energy>  (29) 
-16.449999999999999

>  <m_primary>  (29) 
energy

$$$$
29:0
     RDKit          3D

 43 44  0  0  0  0  0  0  0  0999 V2000
   59.1658   27.7632   47.1114 H   0  0  0  0  0  0  0  0  0  0  0  0
   58.1810   27.6360   46.6380 C   0  0  0  0  0  0  0  0  0  0  0  0
   57.4160   26.6190   47.0680 C   0  0  0  0  0  0  0  0  0  0  0  0
   57.1597   26.5916   48.1374 H   0  0  0  0  0  0  0  0  0  0  0  0
   56.8910   25.5300   46.2080 C   0  0  0  0  0  0  0  0  0  0  0  0
   55.5920   25.6140   45.7030 C   0  0  0  0  0  0  0  0  0  0  0  0
   54.7840   26.7040   46.0120 O   0  0  0  0  0  0  0  0  0  0  0  0
   55.1060   24.6240   44.9170 N   0  0  0  0  0  0  0  0  0  0  0  0
   54.1280   24.6970   44.5530 H   0  0  0  0  0  0  0  0  0  0  0  0
   55.8600   23.5400   44.5940 C   0  0  0  0  0  0  0  0  0  0  0  0
   55.3580   22.6410   43.8630 O   0  0  0  0  0  0  0  0  0  0  0  0
   57.1510   23.4310   45.0500 N   0  0  0  0  0  0  0  0  0  0  0  0
   57.9840   22.2660   44.6790 C   0  0  0  0  0  0  0  0  0  0  0  0
   59.0043   22.4209   45.0598 H   0  0  0  0  0  0  0  0  0  0  0  0
   57.9832   22.1776   43.5826 H   0  0  0  0  0  0  0  0  0  0  0  0
   57.4250   20.9610   45.2670 C   0  0  0  0  0  0  0  0  0  0  0  0
   58.2660   20.2933   45.5055 H   0  0  0  0  0  0  0  0  0  0  0  0
   56.7551   20.5169   44.5159 H   0  0  0  0  0  0  0  0  0  0  0  0
   56.6050   21.1930   46.5420 C   0  0  0  0  0  0  0  0  0  0  0  0
   56.2768   20.2234   46.9448 H   0  0  0  0  0  0  0  0  0  0  0  0
   55.7298   21.8134   46.2989 H   0  0  0  0  0  0  0  0  0  0  0  0
   57.3910   21.8610   47.5120 O   0  0  0  0  0  0  0  0  0  0  0  0
   56.5640   22.5290   48.4400 C   0  0  0  0  0  0  0  0  0  0  0  0
   56.8797   22.2740   49.4624 H   0  0  0  0  0  0  0  0  0  0  0  0
   56.6482   23.6155   48.2905 H   0  0  0  0  0  0  0  0  0  0  0  0
   55.5195   22.2182   48.2905 H   0  0  0  0  0  0  0  0  0  0  0  0
   57.6780   24.4250   45.8370 C   0  0  0  0  0  0  0  0  0  0  0  0
   58.8800   24.3600   46.2220 O   0  0  0  0  0  0  0  0  0  0  0  0
   57.8060   28.5990   45.5790 C   0  0  0  0  0  0  0  0  0  0  0  0
   57.7750   29.9850   45.8160 C   0  0  0  0  0  0  0  0  0  0  0  0
   58.0428   30.3758   46.8087 H   0  0  0  0  0  0  0  0  0  0  0  0
   57.4060   30.8690   44.7980 C   0  0  0  0  0  0  0  0  0  0  0  0
   57.4018   31.9524   44.9883 H   0  0  0  0  0  0  0  0  0  0  0  0
   57.0400   30.3790   43.5310 C   0  0  0  0  0  0  0  0  0  0  0  0
   56.6670   31.2250   42.4750 O   0  0  0  0  0  0  0  0  0  0  0  0
   57.5740   32.0390   41.7390 C   0  0  0  0  0  0  0  0  0  0  0  0
   58.2066   32.6067   42.4372 H   0  0  0  0  0  0  0  0  0  0  0  0
   58.2080   31.4012   41.1056 H   0  0  0  0  0  0  0  0  0  0  0  0
   57.0082   32.7380   41.1056 H   0  0  0  0  0  0  0  0  0  0  0  0
   57.0410   28.9970   43.3080 C   0  0  0  0  0  0  0  0  0  0  0  0
   56.7479   28.6034   42.3235 H   0  0  0  0  0  0  0  0  0  0  0  0
   57.4110   28.1130   44.3250 C   0  0  0  0  0  0  0  0  0  0  0  0
   57.3922   27.0288   44.1403 H   0  0  0  0  0  0  0  0  0  0  0  0
  1  2  1  0
  2  3  2  0
  3  4  1  0
  3  5  1  0
  5  6  2  0
  6  7  1  0
  6  8  1  0
  8  9  1  0
  8 10  1  0
 10 11  2  0
 10 12  1  0
 12 13  1  0
 13 14  1  0
 13 15  1  0
 13 16  1  0
 16 17  1  0
 16 18  1  0
 16 19  1  0
 19 20  1  0
 19 21  1  0
 19 22  1  0
 22 23  1  0
 23 24  1  0
 23 25  1  0
 23 26  1  0
 12 27  1  0
 27 28  2  0
  2 29  1  0
 29 30  2  0
 30 31  1  0
 30 32  1  0
 32 33  1  0
 32 34  2  0
 34 35  1  0
 35 36  1  0
 36 37  1  0
 36 38  1  0
 36 39  1  0
 34 40  1  0
 40 41  1  0
 40 42  2  0
 42 43  1  0
 27  5  1  0
 42 29  1  0
M  CHG  1   7  -1
M  END
>  <UniqueID>  (30) 
28

>  <SMILES>  (30) 
COCCCn1c(=O)[nH]c([O-])c(/C=C\c2ccc(OC)cc2)c1=O

>  <Energy>  (30) 
56.04985838329447

>  <Genealogy>  (30) 
COCCCn1c(=O)[nH]c([O-])c(C=Cc2ccc(OC)cc2)c1=O (protonated)
COCCCn1c(=O)[nH]c([O-])c(/C=C\c2ccc(OC)cc2)c1=O (cis-trans isomerization)
COCCCn1c(=O)[nH]c([O-])c(/C=C\c2ccc(OC)cc2)c1=O (3D coordinates assigned)
COCCCn1c(=O)[nH]c([O-])c(/C=C\c2ccc(OC)cc2)c1=O (optimized conformer: 56.04985838329447 kcal/mol)

>  <smiles>  (30) 
COCCCn1c(=O)[nH]c(O)c(C=Cc2ccc(OC)cc2)c1=O

>  <score_type>  (30) 
oracle

>  <origin>  (30) 
adg

>  <m_score__min__energy>  (30) 
-10.4

>  <m_primary>  (30) 
energy

$$$$
30:0
     RDKit          3D

 39 40  0  0  0  0  0  0  0  0999 V2000
   54.7680   27.0400   46.3850 H   0  0  0  0  0  0  0  0  0  0  0  0
   54.5620   26.1120   45.9530 N   0  0  0  0  0  0  0  0  0  0  0  0
   55.5060   25.0480   46.0200 C   0  0  0  0  0  0  0  0  0  0  0  0
   55.2960   24.0700   46.7860 O   0  0  0  0  0  0  0  0  0  0  0  0
   56.7220   25.0690   45.1480 C   0  0  0  0  0  0  0  0  0  0  0  0
   56.6970   25.9676   44.5140 H   0  0  0  0  0  0  0  0  0  0  0  0
   56.7269   24.1634   44.5235 H   0  0  0  0  0  0  0  0  0  0  0  0
   57.9930   25.0890   45.9990 C   0  0  0  0  0  0  0  0  0  0  0  0
   58.7023   24.3453   45.6068 H   0  0  0  0  0  0  0  0  0  0  0  0
   57.7270   24.8498   47.0392 H   0  0  0  0  0  0  0  0  0  0  0  0
   58.6150   26.4110   45.9640 N   0  0  0  0  0  0  0  0  0  0  0  0
   58.0110   27.4950   45.5800 C   0  0  0  0  0  0  0  0  0  0  0  0
   56.6800   27.7000   45.6940 N   0  0  0  0  0  0  0  0  0  0  0  0
   56.3270   28.9210   45.2130 C   0  0  0  0  0  0  0  0  0  0  0  0
   55.0040   29.3470   45.2190 O   0  0  0  0  0  0  0  0  0  0  0  0
   57.3770   29.7010   44.7260 C   0  0  0  0  0  0  0  0  0  0  0  0
   57.2530   31.0310   44.0890 C   0  0  0  0  0  0  0  0  0  0  0  0
   57.3270   31.1170   42.8340 O   0  0  0  0  0  0  0  0  0  0  0  0
   57.0900   32.2770   44.8630 C   0  0  0  0  0  0  0  0  0  0  0  0
   56.0868   32.5419   45.2282 H   0  0  0  0  0  0  0  0  0  0  0  0
   58.1100   33.0990   45.1400 C   0  0  0  0  0  0  0  0  0  0  0  0
   58.2046   34.0342   44.5687 H   0  0  0  0  0  0  0  0  0  0  0  0
   59.1170   32.7990   46.1860 C   0  0  0  0  0  0  0  0  0  0  0  0
   59.5930   31.4850   46.3490 C   0  0  0  0  0  0  0  0  0  0  0  0
   59.1846   30.6760   45.7255 H   0  0  0  0  0  0  0  0  0  0  0  0
   60.5780   31.1990   47.2940 C   0  0  0  0  0  0  0  0  0  0  0  0
   60.9348   30.1659   47.4179 H   0  0  0  0  0  0  0  0  0  0  0  0
   61.1120   32.2170   48.0820 C   0  0  0  0  0  0  0  0  0  0  0  0
   61.8923   31.9850   48.8218 H   0  0  0  0  0  0  0  0  0  0  0  0
   60.6570   33.5400   47.9350 C   0  0  0  0  0  0  0  0  0  0  0  0
   61.1670   34.5930   48.7120 O   0  0  0  0  0  0  0  0  0  0  0  0
   62.2520   34.4690   49.6260 C   0  0  0  0  0  0  0  0  0  0  0  0
   61.8700   34.5127   50.6566 H   0  0  0  0  0  0  0  0  0  0  0  0
   62.7600   33.5069   49.4637 H   0  0  0  0  0  0  0  0  0  0  0  0
   62.9640   35.2916   49.4637 H   0  0  0  0  0  0  0  0  0  0  0  0
   59.6570   33.8310   46.9920 C   0  0  0  0  0  0  0  0  0  0  0  0
   59.2090   35.1510   46.8960 O   0  0  0  0  0  0  0  0  0  0  0  0
   59.5220   35.8930   47.5090 H   0  0  0  0  0  0  0  0  0  0  0  0
   58.7990   28.8040   44.8840 S   0  0  0  0  0  0  0  0  0  0  0  0
  1  2  1  0
  2  3  1  0
  3  4  2  0
  3  5  1  0
  5  6  1  0
  5  7  1  0
  5  8  1  0
  8  9  1  0
  8 10  1  0
  8 11  1  0
 11 12  2  3
 12 13  1  0
 13 14  1  0
 14 15  1  0
 14 16  2  0
 16 17  1  0
 17 18  2  0
 17 19  1  0
 19 20  1  0
 19 21  2  0
 21 22  1  0
 21 23  1  0
 23 24  2  0
 24 25  1  0
 24 26  1  0
 26 27  1  0
 26 28  2  0
 28 29  1  0
 28 30  1  0
 30 31  1  0
 31 32  1  0
 32 33  1  0
 32 34  1  0
 32 35  1  0
 30 36  2  0
 36 37  1  0
 37 38  1  0
 16 39  1  0
 39 12  1  0
 36 23  1  0
M  CHG  3   2  -1  13  -1  15  -1
M  END
>  <UniqueID>  (31) 
29

>  <SMILES>  (31) 
COc1cccc(/C=C/C(=O)c2sc(=NCCC([NH-])=O)[n-]c2[O-])c1O

>  <Energy>  (31) 
73.23108057108055

>  <Genealogy>  (31) 
COc1cccc(C=CC(=O)c2sc(=NCCC([NH-])=O)[n-]c2[O-])c1O (protonated)
COc1cccc(/C=C/C(=O)c2sc(=NCCC([NH-])=O)[n-]c2[O-])c1O (cis-trans isomerization)
COc1cccc(/C=C/C(=O)c2sc(=NCCC([NH-])=O)[n-]c2[O-])c1O (3D coordinates assigned)
COc1cccc(/C=C/C(=O)c2sc(=NCCC([NH-])=O)[n-]c2[O-])c1O (optimized conformer: 73.23108057108055 kcal/mol)

>  <smiles>  (31) 
COc1cccc(C=CC(=O)c2sc(=NCCC(N)=O)[nH]c2O)c1O

>  <score_type>  (31) 
oracle

>  <origin>  (31) 
adg

>  <m_score__min__energy>  (31) 
-15.720000000000001

>  <m_primary>  (31) 
energy

$$$$
31:0
     RDKit          3D

 32 35  0  0  0  0  0  0  0  0999 V2000
   54.5370   25.6650   46.3830 H   0  0  0  0  0  0  0  0  0  0  0  0
   55.0290   26.1020   45.6130 O   0  0  0  0  0  0  0  0  0  0  0  0
   56.0650   27.0200   45.7930 C   0  0  0  0  0  0  0  0  0  0  0  0
   55.8890   28.2840   45.3290 N   0  0  0  0  0  0  0  0  0  0  0  0
   56.8370   29.2470   45.4450 C   0  0  0  0  0  0  0  0  0  0  0  0
   56.6010   30.3960   44.9840 O   0  0  0  0  0  0  0  0  0  0  0  0
   58.0580   28.9580   46.0780 C   0  0  0  0  0  0  0  0  0  0  0  0
   59.0540   29.9430   46.2240 C   0  0  0  0  0  0  0  0  0  0  0  0
   58.8859   30.9531   45.8221 H   0  0  0  0  0  0  0  0  0  0  0  0
   60.2530   29.6470   46.8750 C   0  0  0  0  0  0  0  0  0  0  0  0
   61.5940   30.9920   47.0680 Br  0  0  0  0  0  0  0  0  0  0  0  0
   60.4680   28.3690   47.3940 C   0  0  0  0  0  0  0  0  0  0  0  0
   61.4104   28.1405   47.9134 H   0  0  0  0  0  0  0  0  0  0  0  0
   59.4930   27.3800   47.2570 C   0  0  0  0  0  0  0  0  0  0  0  0
   59.6705   26.3787   47.6763 H   0  0  0  0  0  0  0  0  0  0  0  0
   58.2800   27.6520   46.5850 C   0  0  0  0  0  0  0  0  0  0  0  0
   57.2750   26.6630   46.4220 C   0  0  0  0  0  0  0  0  0  0  0  0
   57.4590   25.2780   46.9080 C   0  0  0  0  0  0  0  0  0  0  0  0
   57.1217   25.0215   47.9231 H   0  0  0  0  0  0  0  0  0  0  0  0
   58.0220   24.3270   46.1540 C   0  0  0  0  0  0  0  0  0  0  0  0
   59.4510   24.0000   46.0030 C   0  0  0  0  0  0  0  0  0  0  0  0
   60.2620   24.5227   46.5313 H   0  0  0  0  0  0  0  0  0  0  0  0
   59.6380   23.0180   45.1690 N   0  0  0  0  0  0  0  0  0  0  0  0
   58.3470   22.6310   44.7090 C   0  0  0  0  0  0  0  0  0  0  0  0
   58.0490   21.6180   43.8000 C   0  0  0  0  0  0  0  0  0  0  0  0
   58.8422   21.0066   43.3451 H   0  0  0  0  0  0  0  0  0  0  0  0
   56.6940   21.4080   43.4870 C   0  0  0  0  0  0  0  0  0  0  0  0
   56.4142   20.6185   42.7740 H   0  0  0  0  0  0  0  0  0  0  0  0
   55.7200   22.1800   44.0640 N   0  0  0  0  0  0  0  0  0  0  0  0
   56.0180   23.1720   44.9540 C   0  0  0  0  0  0  0  0  0  0  0  0
   55.2232   23.7823   45.4076 H   0  0  0  0  0  0  0  0  0  0  0  0
   57.3560   23.3890   45.2710 C   0  0  0  0  0  0  0  0  0  0  0  0
  1  2  1  0
  2  3  1  0
  3  4  1  0
  4  5  1  0
  5  6  2  0
  5  7  1  0
  7  8  2  0
  8  9  1  0
  8 10  1  0
 10 11  1  0
 10 12  2  0
 12 13  1  0
 12 14  1  0
 14 15  1  0
 14 16  2  0
 16 17  1  0
 17 18  1  0
 18 19  1  0
 18 20  2  0
 20 21  1  0
 21 22  1  0
 21 23  2  0
 23 24  1  0
 24 25  2  0
 25 26  1  0
 25 27  1  0
 27 28  1  0
 27 29  2  0
 29 30  1  0
 30 31  1  0
 30 32  2  0
 17  3  2  0
 32 20  1  0
 16  7  1  0
 32 24  1  0
M  CHG  1   4  -1
M  END
>  <UniqueID>  (32) 
30

>  <SMILES>  (32) 
O=c1[n-]c(O)c(/C=C2\C=Nc3ccncc32)c2ccc(Br)cc12

>  <Energy>  (32) 
83.44545127769364

>  <Genealogy>  (32) 
O=c1[n-]c(O)c(C=C2C=Nc3ccncc32)c2ccc(Br)cc12 (protonated)
O=c1[n-]c(O)c(/C=C2\C=Nc3ccncc32)c2ccc(Br)cc12 (cis-trans isomerization)
O=c1[n-]c(O)c(/C=C2\C=Nc3ccncc32)c2ccc(Br)cc12 (3D coordinates assigned)
O=c1[n-]c(O)c(/C=C2\C=Nc3ccncc32)c2ccc(Br)cc12 (nonaromatic ring conformer: 83.44545127769364 kcal/mol)

>  <smiles>  (32) 
O=c1[nH]c(O)c(C=C2C=Nc3ccncc32)c2ccc(Br)cc12

>  <score_type>  (32) 
oracle

>  <origin>  (32) 
adg

>  <m_score__min__energy>  (32) 
-10.27

>  <m_primary>  (32) 
energy

$$$$
32:0
     RDKit          3D

 53 55  0  0  0  0  0  0  0  0999 V2000
   55.2190   23.8570   44.8600 C   0  0  0  0  0  0  0  0  0  0  0  0
   55.1480   24.9380   45.8850 C   0  0  0  0  0  0  0  0  0  0  0  0
   54.4070   25.9400   45.6940 O   0  0  0  0  0  0  0  0  0  0  0  0
   55.9190   24.8220   47.0850 N   0  0  0  0  0  0  0  0  0  0  0  0
   57.3100   25.2480   47.1930 C   0  0  0  0  0  0  0  0  0  0  0  0
   57.8270   25.7380   45.8370 C   0  0  0  0  0  0  0  0  0  0  0  0
   58.1130   27.2190   45.8830 C   0  0  0  0  0  0  0  0  0  0  0  0
   57.8140   27.9780   44.8090 C   0  0  0  0  0  0  0  0  0  0  0  0
   57.5230   29.4300   44.8690 C   0  0  0  0  0  0  0  0  0  0  0  0
   56.2010   29.8750   44.8010 C   0  0  0  0  0  0  0  0  0  0  0  0
   55.1540   28.9700   44.6540 O   0  0  0  0  0  0  0  0  0  0  0  0
   55.9310   31.1990   44.8650 N   0  0  0  0  0  0  0  0  0  0  0  0
   56.9160   32.1210   45.0060 C   0  0  0  0  0  0  0  0  0  0  0  0
   56.6040   33.3410   45.0590 O   0  0  0  0  0  0  0  0  0  0  0  0
   58.2280   31.7270   45.0970 N   0  0  0  0  0  0  0  0  0  0  0  0
   59.2860   32.7360   45.3100 C   0  0  0  0  0  0  0  0  0  0  0  0
   59.5770   32.9340   46.8060 C   0  0  0  0  0  0  0  0  0  0  0  0
   61.0480   32.8100   47.1080 C   0  0  0  0  0  0  0  0  0  0  0  0
   61.9540   33.7780   46.6380 C   0  0  0  0  0  0  0  0  0  0  0  0
   63.3100   33.6930   46.9700 C   0  0  0  0  0  0  0  0  0  0  0  0
   63.7690   32.6450   47.7730 C   0  0  0  0  0  0  0  0  0  0  0  0
   62.8750   31.6820   48.2480 C   0  0  0  0  0  0  0  0  0  0  0  0
   61.5180   31.7640   47.9200 C   0  0  0  0  0  0  0  0  0  0  0  0
   58.5380   30.3890   45.0450 C   0  0  0  0  0  0  0  0  0  0  0  0
   59.7350   30.0080   45.1820 O   0  0  0  0  0  0  0  0  0  0  0  0
   58.8490   27.7600   47.0520 C   0  0  0  0  0  0  0  0  0  0  0  0
   58.3560   28.8740   47.7550 C   0  0  0  0  0  0  0  0  0  0  0  0
   59.0550   29.3790   48.8560 C   0  0  0  0  0  0  0  0  0  0  0  0
   60.2520   28.7830   49.2590 C   0  0  0  0  0  0  0  0  0  0  0  0
   60.7560   27.6830   48.5580 C   0  0  0  0  0  0  0  0  0  0  0  0
   60.0600   27.1750   47.4570 C   0  0  0  0  0  0  0  0  0  0  0  0
   55.2832   22.8800   45.3613 H   0  0  0  0  0  0  0  0  0  0  0  0
   54.3169   23.8880   44.2313 H   0  0  0  0  0  0  0  0  0  0  0  0
   56.1093   24.0057   44.2313 H   0  0  0  0  0  0  0  0  0  0  0  0
   57.3825   26.0657   47.9252 H   0  0  0  0  0  0  0  0  0  0  0  0
   57.9201   24.3926   47.5187 H   0  0  0  0  0  0  0  0  0  0  0  0
   58.7522   25.1985   45.5861 H   0  0  0  0  0  0  0  0  0  0  0  0
   57.0579   25.5482   45.0738 H   0  0  0  0  0  0  0  0  0  0  0  0
   57.7842   27.4876   43.8248 H   0  0  0  0  0  0  0  0  0  0  0  0
   60.2057   32.4022   44.8073 H   0  0  0  0  0  0  0  0  0  0  0  0
   58.9404   33.6939   44.8941 H   0  0  0  0  0  0  0  0  0  0  0  0
   59.2344   33.9352   47.1065 H   0  0  0  0  0  0  0  0  0  0  0  0
   59.0445   32.1510   47.3658 H   0  0  0  0  0  0  0  0  0  0  0  0
   61.5948   34.6045   46.0073 H   0  0  0  0  0  0  0  0  0  0  0  0
   64.0155   34.4511   46.5991 H   0  0  0  0  0  0  0  0  0  0  0  0
   64.8361   32.5783   48.0315 H   0  0  0  0  0  0  0  0  0  0  0  0
   63.2388   30.8588   48.8804 H   0  0  0  0  0  0  0  0  0  0  0  0
   60.8159   31.0068   48.2991 H   0  0  0  0  0  0  0  0  0  0  0  0
   57.4166   29.3501   47.4374 H   0  0  0  0  0  0  0  0  0  0  0  0
   58.6614   30.2469   49.4054 H   0  0  0  0  0  0  0  0  0  0  0  0
   60.7983   29.1789   50.1278 H   0  0  0  0  0  0  0  0  0  0  0  0
   61.7012   27.2168   48.8732 H   0  0  0  0  0  0  0  0  0  0  0  0
   60.4628   26.3129   46.9052 H   0  0  0  0  0  0  0  0  0  0  0  0
  1  2  1  0
  2  3  2  0
  2  4  1  0
  4  5  1  0
  5  6  1  0
  6  7  1  0
  7  8  2  3
  8  9  1  0
  9 10  2  0
 10 11  1  0
 10 12  1  0
 12 13  1  0
 13 14  2  0
 13 15  1  0
 15 16  1  0
 16 17  1  0
 17 18  1  0
 18 19  2  0
 19 20  1  0
 20 21  2  0
 21 22  1  0
 22 23  2  0
 15 24  1  0
 24 25  2  0
  7 26  1  0
 26 27  2  0
 27 28  1  0
 28 29  2  0
 29 30  1  0
 30 31  2  0
 24  9  1  0
 31 26  1  0
 23 18  1  0
  1 32  1  0
  1 33  1  0
  1 34  1  0
  5 35  1  0
  5 36  1  0
  6 37  1  0
  6 38  1  0
  8 39  1  0
 16 40  1  0
 16 41  1  0
 17 42  1  0
 17 43  1  0
 19 44  1  0
 20 45  1  0
 21 46  1  0
 22 47  1  0
 23 48  1  0
 27 49  1  0
 28 50  1  0
 29 51  1  0
 30 52  1  0
 31 53  1  0
M  CHG  3   4  -1  11  -1  12  -1
M  END
>  <UniqueID>  (33) 
31

>  <SMILES>  (33) 
CC(=O)[N-]CCC(=Cc1c([O-])[n-]c(=O)n(CCc2ccccc2)c1=O)c1ccccc1

>  <Energy>  (33) 
61.76982461372505

>  <Genealogy>  (33) 
CC(=O)[N-]CCC(=Cc1c([O-])[n-]c(=O)n(CCc2ccccc2)c1=O)c1ccccc1 (protonated)
CC(=O)[N-]CCC(=Cc1c([O-])[n-]c(=O)n(CCc2ccccc2)c1=O)c1ccccc1 (3D coordinates assigned)
CC(=O)[N-]CCC(=Cc1c([O-])[n-]c(=O)n(CCc2ccccc2)c1=O)c1ccccc1 (optimized conformer: 61.76982461372505 kcal/mol)

>  <smiles>  (33) 
CC(=O)NCCC(=Cc1c(O)[nH]c(=O)n(CCc2ccccc2)c1=O)c1ccccc1

>  <score_type>  (33) 
oracle

>  <origin>  (33) 
adg

>  <m_score__min__energy>  (33) 
-15.32

>  <m_primary>  (33) 
energy

$$$$
33:0
     RDKit          3D

 42 44  0  0  0  0  0  0  0  0999 V2000
   55.1520   26.2920   46.9810 H   0  0  0  0  0  0  0  0  0  0  0  0
   55.1430   26.7210   46.0620 O   0  0  0  0  0  0  0  0  0  0  0  0
   56.2510   27.4170   45.5860 C   0  0  0  0  0  0  0  0  0  0  0  0
   56.0700   28.5800   44.9030 N   0  0  0  0  0  0  0  0  0  0  0  0
   57.1170   29.3230   44.4420 C   0  0  0  0  0  0  0  0  0  0  0  0
   56.9250   30.4290   43.7840 N   0  0  0  0  0  0  0  0  0  0  0  0
   57.2980   31.7570   44.1920 C   0  0  0  0  0  0  0  0  0  0  0  0
   57.4730   32.6700   43.3410 O   0  0  0  0  0  0  0  0  0  0  0  0
   57.4160   32.0800   45.5810 N   0  0  0  0  0  0  0  0  0  0  0  0
   58.4470   32.8770   46.1820 C   0  0  0  0  0  0  0  0  0  0  0  0
   58.2370   34.2250   46.5290 C   0  0  0  0  0  0  0  0  0  0  0  0
   57.2661   34.6997   46.3238 H   0  0  0  0  0  0  0  0  0  0  0  0
   59.2600   34.9620   47.1340 C   0  0  0  0  0  0  0  0  0  0  0  0
   59.0965   36.0189   47.3915 H   0  0  0  0  0  0  0  0  0  0  0  0
   60.4890   34.3590   47.4120 C   0  0  0  0  0  0  0  0  0  0  0  0
   61.2948   34.9432   47.8804 H   0  0  0  0  0  0  0  0  0  0  0  0
   60.6950   33.0130   47.0950 C   0  0  0  0  0  0  0  0  0  0  0  0
   62.2320   32.2510   47.4590 Cl  0  0  0  0  0  0  0  0  0  0  0  0
   59.6730   32.2730   46.4890 C   0  0  0  0  0  0  0  0  0  0  0  0
   59.8336   31.2108   46.2524 H   0  0  0  0  0  0  0  0  0  0  0  0
   58.4250   28.8890   44.6820 C   0  0  0  0  0  0  0  0  0  0  0  0
   59.2794   29.4814   44.3227 H   0  0  0  0  0  0  0  0  0  0  0  0
   58.6390   27.7000   45.3800 C   0  0  0  0  0  0  0  0  0  0  0  0
   59.6651   27.3590   45.5819 H   0  0  0  0  0  0  0  0  0  0  0  0
   57.5500   26.9400   45.8240 C   0  0  0  0  0  0  0  0  0  0  0  0
   57.7830   25.6830   46.5570 C   0  0  0  0  0  0  0  0  0  0  0  0
   58.9090   25.1270   46.4790 O   0  0  0  0  0  0  0  0  0  0  0  0
   56.7520   25.0590   47.3310 N   0  0  0  0  0  0  0  0  0  0  0  0
   56.3370   23.6700   47.1720 C   0  0  0  0  0  0  0  0  0  0  0  0
   57.0181   23.0161   47.7363 H   0  0  0  0  0  0  0  0  0  0  0  0
   55.3128   23.5455   47.5533 H   0  0  0  0  0  0  0  0  0  0  0  0
   56.3800   23.3030   45.7180 C   0  0  0  0  0  0  0  0  0  0  0  0
   55.4590   23.8650   44.8170 C   0  0  0  0  0  0  0  0  0  0  0  0
   54.6861   24.5566   45.1834 H   0  0  0  0  0  0  0  0  0  0  0  0
   55.5220   23.5480   43.4570 C   0  0  0  0  0  0  0  0  0  0  0  0
   54.7938   23.9838   42.7572 H   0  0  0  0  0  0  0  0  0  0  0  0
   56.5090   22.6780   42.9850 C   0  0  0  0  0  0  0  0  0  0  0  0
   56.5555   22.4277   41.9149 H   0  0  0  0  0  0  0  0  0  0  0  0
   57.4370   22.1260   43.8730 C   0  0  0  0  0  0  0  0  0  0  0  0
   58.2146   21.4430   43.5005 H   0  0  0  0  0  0  0  0  0  0  0  0
   57.3780   22.4410   45.2340 C   0  0  0  0  0  0  0  0  0  0  0  0
   58.1157   22.0123   45.9282 H   0  0  0  0  0  0  0  0  0  0  0  0
  1  2  1  0
  2  3  1  0
  3  4  1  0
  4  5  1  0
  5  6  2  0
  6  7  1  0
  7  8  2  0
  7  9  1  0
  9 10  1  0
 10 11  2  0
 11 12  1  0
 11 13  1  0
 13 14  1  0
 13 15  2  0
 15 16  1  0
 15 17  1  0
 17 18  1  0
 17 19  2  0
 19 20  1  0
  5 21  1  0
 21 22  1  0
 21 23  2  0
 23 24  1  0
 23 25  1  0
 25 26  1  0
 26 27  2  0
 26 28  1  0
 28 29  1  0
 29 30  1  0
 29 31  1  0
 29 32  1  0
 32 33  2  0
 33 34  1  0
 33 35  1  0
 35 36  1  0
 35 37  2  0
 37 38  1  0
 37 39  1  0
 39 40  1  0
 39 41  2  0
 41 42  1  0
 25  3  2  0
 41 32  1  0
 19 10  1  0
M  CHG  3   4  -1   9  -1  28  -1
M  END
>  <UniqueID>  (34) 
32

>  <SMILES>  (34) 
O=C(/N=c1/ccc(C(=O)[N-]Cc2ccccc2)c(O)[n-]1)[N-]c1cccc(Cl)c1

>  <Energy>  (34) 
54.95621584866975

>  <Genealogy>  (34) 
O=C(N=c1ccc(C(=O)[N-]Cc2ccccc2)c(O)[n-]1)[N-]c1cccc(Cl)c1 (protonated)
O=C(/N=c1/ccc(C(=O)[N-]Cc2ccccc2)c(O)[n-]1)[N-]c1cccc(Cl)c1 (cis-trans isomerization)
O=C(/N=c1/ccc(C(=O)[N-]Cc2ccccc2)c(O)[n-]1)[N-]c1cccc(Cl)c1 (3D coordinates assigned)
O=C(/N=c1/ccc(C(=O)[N-]Cc2ccccc2)c(O)[n-]1)[N-]c1cccc(Cl)c1 (optimized conformer: 54.95621584866975 kcal/mol)

>  <smiles>  (34) 
O=C(N=c1ccc(C(=O)NCc2ccccc2)c(O)[nH]1)Nc1cccc(Cl)c1

>  <score_type>  (34) 
oracle

>  <origin>  (34) 
adg

>  <m_score__min__energy>  (34) 
-13.710000000000001

>  <m_primary>  (34) 
energy

$$$$
34:0
     RDKit          3D

 66 70  0  0  0  0  0  0  0  0999 V2000
   60.4836   35.2773   47.6211 H   0  0  0  0  0  0  0  0  0  0  0  0
   59.9000   34.6850   46.9010 C   0  0  0  0  0  0  0  0  0  0  0  0
   59.2410   35.3260   45.8350 C   0  0  0  0  0  0  0  0  0  0  0  0
   59.3080   36.4185   45.7255 H   0  0  0  0  0  0  0  0  0  0  0  0
   58.4990   34.5740   44.9120 C   0  0  0  0  0  0  0  0  0  0  0  0
   57.9796   35.0666   44.0768 H   0  0  0  0  0  0  0  0  0  0  0  0
   58.4320   33.1890   45.0730 C   0  0  0  0  0  0  0  0  0  0  0  0
   59.0740   32.5640   46.1140 C   0  0  0  0  0  0  0  0  0  0  0  0
   59.8140   33.2920   47.0470 C   0  0  0  0  0  0  0  0  0  0  0  0
   60.3201   32.7835   47.8808 H   0  0  0  0  0  0  0  0  0  0  0  0
   58.8750   31.0990   46.0950 C   0  0  0  0  0  0  0  0  0  0  0  0
   58.2546   30.7768   46.9443 H   0  0  0  0  0  0  0  0  0  0  0  0
   59.8187   30.5405   46.1814 H   0  0  0  0  0  0  0  0  0  0  0  0
   58.1480   30.8420   44.7520 C   0  0  0  0  0  0  0  0  0  0  0  0
   58.8159   30.3140   44.0555 H   0  0  0  0  0  0  0  0  0  0  0  0
   59.3390   26.6130   46.9400 N   0  0  0  0  0  0  0  0  0  0  0  0
   58.2180   27.0500   46.4500 C   0  0  0  0  0  0  0  0  0  0  0  0
   57.1010   26.2760   46.4550 N   0  0  0  0  0  0  0  0  0  0  0  0
   55.9320   26.7550   45.9600 C   0  0  0  0  0  0  0  0  0  0  0  0
   54.8700   26.0070   45.9850 N   0  0  0  0  0  0  0  0  0  0  0  0
   54.7600   24.7280   45.2830 C   0  0  0  0  0  0  0  0  0  0  0  0
   53.7009   24.4398   45.2108 H   0  0  0  0  0  0  0  0  0  0  0  0
   55.1838   24.8278   44.2728 H   0  0  0  0  0  0  0  0  0  0  0  0
   55.5140   23.6740   46.0380 C   0  0  0  0  0  0  0  0  0  0  0  0
   55.1860   23.3970   47.3760 C   0  0  0  0  0  0  0  0  0  0  0  0
   54.3546   23.9316   47.8586 H   0  0  0  0  0  0  0  0  0  0  0  0
   55.9130   22.4440   48.0960 C   0  0  0  0  0  0  0  0  0  0  0  0
   55.6440   22.2229   49.1394 H   0  0  0  0  0  0  0  0  0  0  0  0
   56.9810   21.7710   47.4940 C   0  0  0  0  0  0  0  0  0  0  0  0
   57.7070   20.8300   48.2180 O   0  0  0  0  0  0  0  0  0  0  0  0
   57.3220   22.0520   46.1660 C   0  0  0  0  0  0  0  0  0  0  0  0
   58.1619   21.5239   45.6910 H   0  0  0  0  0  0  0  0  0  0  0  0
   56.5950   23.0050   45.4410 C   0  0  0  0  0  0  0  0  0  0  0  0
   56.8718   23.2302   44.4005 H   0  0  0  0  0  0  0  0  0  0  0  0
   55.8850   28.0150   45.4530 N   0  0  0  0  0  0  0  0  0  0  0  0
   57.0000   28.7900   45.4320 C   0  0  0  0  0  0  0  0  0  0  0  0
   56.9710   29.9880   44.9320 N   0  0  0  0  0  0  0  0  0  0  0  0
   59.7290   26.7480   48.3400 C   0  0  0  0  0  0  0  0  0  0  0  0
   60.7383   26.3342   48.4815 H   0  0  0  0  0  0  0  0  0  0  0  0
   59.0171   26.1999   48.9746 H   0  0  0  0  0  0  0  0  0  0  0  0
   59.7250   28.2270   48.7270 C   0  0  0  0  0  0  0  0  0  0  0  0
   58.6852   28.5586   48.8643 H   0  0  0  0  0  0  0  0  0  0  0  0
   60.2126   28.7975   47.9228 H   0  0  0  0  0  0  0  0  0  0  0  0
   60.5010   28.4650   50.0280 C   0  0  0  0  0  0  0  0  0  0  0  0
   61.5496   28.1661   49.8826 H   0  0  0  0  0  0  0  0  0  0  0  0
   60.0405   27.8671   50.8283 H   0  0  0  0  0  0  0  0  0  0  0  0
   60.4540   29.8420   50.4000 O   0  0  0  0  0  0  0  0  0  0  0  0
   61.1630   30.8830   49.7790 C   0  0  0  0  0  0  0  0  0  0  0  0
   61.7460   30.6320   48.5320 C   0  0  0  0  0  0  0  0  0  0  0  0
   61.6211   29.6459   48.0608 H   0  0  0  0  0  0  0  0  0  0  0  0
   62.4860   31.6230   47.8790 C   0  0  0  0  0  0  0  0  0  0  0  0
   62.9422   31.4077   46.9015 H   0  0  0  0  0  0  0  0  0  0  0  0
   62.6510   32.8850   48.4580 C   0  0  0  0  0  0  0  0  0  0  0  0
   63.4130   33.8410   47.7660 O   0  0  0  0  0  0  0  0  0  0  0  0
   63.3750   34.0320   46.3550 C   0  0  0  0  0  0  0  0  0  0  0  0
   63.1648   35.0888   46.1336 H   0  0  0  0  0  0  0  0  0  0  0  0
   64.3463   33.7526   45.9209 H   0  0  0  0  0  0  0  0  0  0  0  0
   62.5846   33.4021   45.9209 H   0  0  0  0  0  0  0  0  0  0  0  0
   62.0520   33.1520   49.7020 C   0  0  0  0  0  0  0  0  0  0  0  0
   62.1678   34.1434   50.1644 H   0  0  0  0  0  0  0  0  0  0  0  0
   61.3090   32.1610   50.3540 C   0  0  0  0  0  0  0  0  0  0  0  0
   60.8357   32.3815   51.3222 H   0  0  0  0  0  0  0  0  0  0  0  0
   58.1640   28.3050   45.9330 N   0  0  0  0  0  0  0  0  0  0  0  0
   57.7340   32.2210   44.1920 C   0  0  0  0  0  0  0  0  0  0  0  0
   56.6437   32.3553   44.2495 H   0  0  0  0  0  0  0  0  0  0  0  0
   57.9995   32.3450   43.1318 H   0  0  0  0  0  0  0  0  0  0  0  0
  1  2  1  0
  2  3  2  0
  3  4  1  0
  3  5  1  0
  5  6  1  0
  5  7  2  0
  7  8  1  0
  8  9  2  0
  9 10  1  0
  8 11  1  0
 11 12  1  0
 11 13  1  0
 11 14  1  0
 14 15  1  0
 14 16  1  0
 16 17  2  0
 17 18  1  0
 18 19  1  0
 19 20  2  3
 20 21  1  0
 21 22  1  0
 21 23  1  0
 21 24  1  0
 24 25  2  0
 25 26  1  0
 25 27  1  0
 27 28  1  0
 27 29  2  0
 29 30  1  0
 29 31  1  0
 31 32  1  0
 31 33  2  0
 33 34  1  0
 19 35  1  0
 35 36  1  0
 36 37  2  0
 37 38  1  0
 38 39  1  0
 38 40  1  0
 38 41  1  0
 41 42  1  0
 41 43  1  0
 41 44  1  0
 44 45  1  0
 44 46  1  0
 44 47  1  0
 47 48  1  0
 48 49  2  0
 49 50  1  0
 49 51  1  0
 51 52  1  0
 51 53  2  0
 53 54  1  0
 54 55  1  0
 55 56  1  0
 55 57  1  0
 55 58  1  0
 53 59  1  0
 59 60  1  0
 59 61  2  0
 61 62  1  0
 36 63  1  0
 14 64  1  0
 64 65  1  0
 64 66  1  0
  9  2  1  0
 63 17  1  0
 64  7  1  0
 33 24  1  0
 61 48  1  0
M  CHG  4  18  -1  30  -1  35  -1  63  -1
M  END
>  <UniqueID>  (35) 
33

>  <SMILES>  (35) 
COc1ccc(OCCC/N=c2\[n-]c(=NCc3ccc([O-])cc3)[n-]/c(=N\C3Cc4ccccc4C3)[n-]2)cc1

>  <Energy>  (35) 
73.84013105462509

>  <Genealogy>  (35) 
COc1ccc(OCCCN=c2[n-]c(=NCc3ccc([O-])cc3)[n-]c(=NC3Cc4ccccc4C3)[n-]2)cc1 (protonated)
COc1ccc(OCCC/N=c2\[n-]c(=NCc3ccc([O-])cc3)[n-]/c(=N\C3Cc4ccccc4C3)[n-]2)cc1 (cis-trans isomerization)
COc1ccc(OCCC/N=c2\[n-]c(=NCc3ccc([O-])cc3)[n-]/c(=N\C3Cc4ccccc4C3)[n-]2)cc1 (3D coordinates assigned)
COc1ccc(OCCC/N=c2\[n-]c(=NCc3ccc([O-])cc3)[n-]/c(=N\C3Cc4ccccc4C3)[n-]2)cc1 (nonaromatic ring conformer: 73.84013105462509 kcal/mol)

>  <smiles>  (35) 
COc1ccc(OCCCN=c2[nH]c(=NCc3ccc(O)cc3)[nH]c(=NC3Cc4ccccc4C3)[nH]2)cc1

>  <score_type>  (35) 
oracle

>  <origin>  (35) 
adg

>  <m_score__min__energy>  (35) 
-16.280000000000001

>  <m_primary>  (35) 
energy

$$$$
35:0
     RDKit          3D

 44 47  0  0  0  0  0  0  0  0999 V2000
   57.2910   22.9100   47.8860 O   0  0  0  0  0  0  0  0  0  0  0  0
   57.0430   23.9510   47.2250 C   0  0  0  0  0  0  0  0  0  0  0  0
   55.8060   24.4890   47.1560 N   0  0  0  0  0  0  0  0  0  0  0  0
   55.9940   25.5560   46.3600 C   0  0  0  0  0  0  0  0  0  0  0  0
   54.9800   26.4270   45.9750 O   0  0  0  0  0  0  0  0  0  0  0  0
   57.3130   25.6440   45.9900 C   0  0  0  0  0  0  0  0  0  0  0  0
   57.9230   26.6650   45.0790 C   0  0  0  0  0  0  0  0  0  0  0  0
   58.6670   27.6970   45.8800 C   0  0  0  0  0  0  0  0  0  0  0  0
   59.5040   28.6240   45.2410 C   0  0  0  0  0  0  0  0  0  0  0  0
   60.1760   29.5970   45.9860 C   0  0  0  0  0  0  0  0  0  0  0  0
   60.0080   29.6750   47.3720 C   0  0  0  0  0  0  0  0  0  0  0  0
   60.6850   30.6960   48.0630 O   0  0  0  0  0  0  0  0  0  0  0  0
   60.1170   31.9330   48.5040 C   0  0  0  0  0  0  0  0  0  0  0  0
   58.6240   32.0150   48.1580 C   0  0  0  0  0  0  0  0  0  0  0  0
   58.3940   32.2190   46.6890 C   0  0  0  0  0  0  0  0  0  0  0  0
   58.9520   33.3220   46.0230 C   0  0  0  0  0  0  0  0  0  0  0  0
   58.7820   33.4550   44.6440 C   0  0  0  0  0  0  0  0  0  0  0  0
   58.0610   32.4870   43.9360 C   0  0  0  0  0  0  0  0  0  0  0  0
   57.8710   32.5900   42.5500 C   0  0  0  0  0  0  0  0  0  0  0  0
   57.1640   31.5960   41.8670 C   0  0  0  0  0  0  0  0  0  0  0  0
   56.6390   30.5020   42.5620 C   0  0  0  0  0  0  0  0  0  0  0  0
   56.8120   30.3990   43.9450 C   0  0  0  0  0  0  0  0  0  0  0  0
   57.5190   31.3870   44.6380 C   0  0  0  0  0  0  0  0  0  0  0  0
   57.6980   31.2860   45.9830 N   0  0  0  0  0  0  0  0  0  0  0  0
   59.1720   28.7400   48.0140 C   0  0  0  0  0  0  0  0  0  0  0  0
   58.5000   27.7670   47.2700 C   0  0  0  0  0  0  0  0  0  0  0  0
   57.9900   24.6150   46.5290 N   0  0  0  0  0  0  0  0  0  0  0  0
   54.0530   26.3460   46.3720 H   0  0  0  0  0  0  0  0  0  0  0  0
   58.6213   26.1666   44.3905 H   0  0  0  0  0  0  0  0  0  0  0  0
   57.1234   27.1609   44.5091 H   0  0  0  0  0  0  0  0  0  0  0  0
   59.6319   28.5849   44.1492 H   0  0  0  0  0  0  0  0  0  0  0  0
   60.8434   30.3082   45.4772 H   0  0  0  0  0  0  0  0  0  0  0  0
   60.2372   32.0141   49.5944 H   0  0  0  0  0  0  0  0  0  0  0  0
   60.6378   32.7562   47.9931 H   0  0  0  0  0  0  0  0  0  0  0  0
   58.1367   31.0783   48.4663 H   0  0  0  0  0  0  0  0  0  0  0  0
   58.2006   32.8798   48.6899 H   0  0  0  0  0  0  0  0  0  0  0  0
   59.5203   34.0776   46.5852 H   0  0  0  0  0  0  0  0  0  0  0  0
   59.2134   34.3179   44.1155 H   0  0  0  0  0  0  0  0  0  0  0  0
   58.2779   33.4520   42.0011 H   0  0  0  0  0  0  0  0  0  0  0  0
   57.0202   31.6747   40.7793 H   0  0  0  0  0  0  0  0  0  0  0  0
   56.0882   29.7202   42.0185 H   0  0  0  0  0  0  0  0  0  0  0  0
   56.3918   29.5402   44.4889 H   0  0  0  0  0  0  0  0  0  0  0  0
   59.0478   28.7763   49.1064 H   0  0  0  0  0  0  0  0  0  0  0  0
   57.8362   27.0519   47.7778 H   0  0  0  0  0  0  0  0  0  0  0  0
  1  2  2  0
  2  3  1  0
  3  4  1  0
  4  5  1  0
  4  6  2  0
  6  7  1  0
  7  8  1  0
  8  9  2  0
  9 10  1  0
 10 11  2  0
 11 12  1  0
 12 13  1  0
 13 14  1  0
 14 15  1  0
 15 16  2  0
 16 17  1  0
 17 18  2  0
 18 19  1  0
 19 20  2  0
 20 21  1  0
 21 22  2  0
 22 23  1  0
 23 24  2  0
 11 25  1  0
 25 26  2  0
  6 27  1  0
 27  2  1  0
 26  8  1  0
 24 15  1  0
 23 18  1  0
  5 28  1  0
  7 29  1  0
  7 30  1  0
  9 31  1  0
 10 32  1  0
 13 33  1  0
 13 34  1  0
 14 35  1  0
 14 36  1  0
 16 37  1  0
 17 38  1  0
 19 39  1  0
 20 40  1  0
 21 41  1  0
 22 42  1  0
 25 43  1  0
 26 44  1  0
M  CHG  2   3  -1  27  -1
M  END
>  <UniqueID>  (36) 
34

>  <SMILES>  (36) 
O=c1[n-]c(O)c(Cc2ccc(OCCc3ccc4ccccc4n3)cc2)[n-]1

>  <Energy>  (36) 
72.08935856344625

>  <Genealogy>  (36) 
O=c1[n-]c(O)c(Cc2ccc(OCCc3ccc4ccccc4n3)cc2)[n-]1 (protonated)
O=c1[n-]c(O)c(Cc2ccc(OCCc3ccc4ccccc4n3)cc2)[n-]1 (3D coordinates assigned)
O=c1[n-]c(O)c(Cc2ccc(OCCc3ccc4ccccc4n3)cc2)[n-]1 (optimized conformer: 72.08935856344625 kcal/mol)

>  <smiles>  (36) 
O=c1[nH]c(O)c(Cc2ccc(OCCc3ccc4ccccc4n3)cc2)[nH]1

>  <score_type>  (36) 
oracle

>  <origin>  (36) 
adg

>  <m_score__min__energy>  (36) 
-14.050000000000001

>  <m_primary>  (36) 
energy

$$$$
36:0
     RDKit          3D

 33 35  0  0  0  0  0  0  0  0999 V2000
   56.4075   33.2549   47.2876 H   0  0  0  0  0  0  0  0  0  0  0  0
   57.3810   33.4320   46.8070 C   0  0  0  0  0  0  0  0  0  0  0  0
   58.5190   32.9660   47.3870 N   0  0  0  0  0  0  0  0  0  0  0  0
   59.7480   33.1550   46.8310 C   0  0  0  0  0  0  0  0  0  0  0  0
   60.7900   32.6820   47.4560 N   0  0  0  0  0  0  0  0  0  0  0  0
   61.3420   31.3610   47.3400 C   0  0  0  0  0  0  0  0  0  0  0  0
   62.5950   31.2300   47.3300 O   0  0  0  0  0  0  0  0  0  0  0  0
   60.4790   30.1540   47.3140 C   0  0  0  0  0  0  0  0  0  0  0  0
   60.7870   29.0260   48.1230 C   0  0  0  0  0  0  0  0  0  0  0  0
   61.6754   29.0482   48.7712 H   0  0  0  0  0  0  0  0  0  0  0  0
   59.9680   27.8810   48.1040 C   0  0  0  0  0  0  0  0  0  0  0  0
   60.1978   27.0085   48.7333 H   0  0  0  0  0  0  0  0  0  0  0  0
   58.8600   27.8880   47.2650 C   0  0  0  0  0  0  0  0  0  0  0  0
   57.9490   26.9080   47.1040 N   0  0  0  0  0  0  0  0  0  0  0  0
   57.1020   27.4440   46.1900 C   0  0  0  0  0  0  0  0  0  0  0  0
   56.0850   26.8330   45.7680 O   0  0  0  0  0  0  0  0  0  0  0  0
   57.4460   28.6900   45.7830 N   0  0  0  0  0  0  0  0  0  0  0  0
   56.6120   29.7170   44.6580 S   0  0  0  0  0  0  0  0  0  0  0  0
   57.0230   31.1470   44.8660 O   0  0  0  0  0  0  0  0  0  0  0  0
   55.1290   29.6020   44.8740 O   0  0  0  0  0  0  0  0  0  0  0  0
   57.0210   29.2300   42.9960 C   0  0  0  0  0  0  0  0  0  0  0  0
   57.7282   28.3879   43.0242 H   0  0  0  0  0  0  0  0  0  0  0  0
   56.1060   28.9229   42.4682 H   0  0  0  0  0  0  0  0  0  0  0  0
   57.4816   30.0781   42.4682 H   0  0  0  0  0  0  0  0  0  0  0  0
   58.5620   28.9610   46.4750 C   0  0  0  0  0  0  0  0  0  0  0  0
   59.3460   30.1150   46.4670 C   0  0  0  0  0  0  0  0  0  0  0  0
   59.0912   30.9687   45.8218 H   0  0  0  0  0  0  0  0  0  0  0  0
   59.8490   33.8780   45.6230 C   0  0  0  0  0  0  0  0  0  0  0  0
   60.8329   34.0595   45.1658 H   0  0  0  0  0  0  0  0  0  0  0  0
   58.6890   34.3610   45.0130 C   0  0  0  0  0  0  0  0  0  0  0  0
   58.7556   34.9197   44.0678 H   0  0  0  0  0  0  0  0  0  0  0  0
   57.4460   34.1340   45.6040 C   0  0  0  0  0  0  0  0  0  0  0  0
   56.5271   34.5047   45.1262 H   0  0  0  0  0  0  0  0  0  0  0  0
  1  2  1  0
  2  3  1  0
  3  4  1  0
  4  5  2  0
  5  6  1  0
  6  7  2  0
  6  8  1  0
  8  9  2  0
  9 10  1  0
  9 11  1  0
 11 12  1  0
 11 13  2  0
 13 14  1  0
 14 15  1  0
 15 16  2  0
 15 17  1  0
 17 18  1  0
 18 19  2  0
 18 20  2  0
 18 21  1  0
 21 22  1  0
 21 23  1  0
 21 24  1  0
 17 25  1  0
 25 26  2  0
 26 27  1  0
  4 28  1  0
 28 29  1  0
 28 30  2  0
 30 31  1  0
 30 32  1  0
 32 33  1  0
 32  2  2  0
 26  8  1  0
 25 13  1  0
M  CHG  2   3  -1  14  -1
M  END
>  <UniqueID>  (37) 
35

>  <SMILES>  (37) 
CS(=O)(=O)n1c(=O)[n-]c2ccc(C(=O)/N=c3\cccc[n-]3)cc21

>  <Energy>  (37) 
83.05530341342279

>  <Genealogy>  (37) 
CS(=O)(=O)n1c(=O)[n-]c2ccc(C(=O)N=c3cccc[n-]3)cc21 (protonated)
CS(=O)(=O)n1c(=O)[n-]c2ccc(C(=O)/N=c3\cccc[n-]3)cc21 (cis-trans isomerization)
CS(=O)(=O)n1c(=O)[n-]c2ccc(C(=O)/N=c3\cccc[n-]3)cc21 (3D coordinates assigned)
CS(=O)(=O)n1c(=O)[n-]c2ccc(C(=O)/N=c3\cccc[n-]3)cc21 (optimized conformer: 83.05530341342279 kcal/mol)

>  <smiles>  (37) 
CS(=O)(=O)n1c(=O)[nH]c2ccc(C(=O)N=c3cccc[nH]3)cc21

>  <score_type>  (37) 
oracle

>  <origin>  (37) 
adg

>  <m_score__min__energy>  (37) 
-11.199999999999999

>  <m_primary>  (37) 
energy

$$$$
37:0
     RDKit          3D

 35 37  0  0  0  0  0  0  0  0999 V2000
   65.0810   33.0380   47.1280 H   0  0  0  0  0  0  0  0  0  0  0  0
   64.2620   33.4460   47.5640 O   0  0  0  0  0  0  0  0  0  0  0  0
   62.9780   32.9900   47.2700 C   0  0  0  0  0  0  0  0  0  0  0  0
   62.0320   33.8810   46.7550 C   0  0  0  0  0  0  0  0  0  0  0  0
   62.3044   34.9332   46.5855 H   0  0  0  0  0  0  0  0  0  0  0  0
   60.7410   33.4380   46.4550 C   0  0  0  0  0  0  0  0  0  0  0  0
   59.9962   34.1473   46.0649 H   0  0  0  0  0  0  0  0  0  0  0  0
   60.3890   32.0910   46.6490 C   0  0  0  0  0  0  0  0  0  0  0  0
   59.0140   31.6270   46.3820 C   0  0  0  0  0  0  0  0  0  0  0  0
   58.4226   31.2485   47.2287 H   0  0  0  0  0  0  0  0  0  0  0  0
   58.4410   31.6390   45.1670 C   0  0  0  0  0  0  0  0  0  0  0  0
   58.2460   32.7420   44.2370 C   0  0  0  0  0  0  0  0  0  0  0  0
   58.7140   33.9080   44.3200 O   0  0  0  0  0  0  0  0  0  0  0  0
   57.4980   32.2770   43.1740 O   0  0  0  0  0  0  0  0  0  0  0  0
   57.2310   30.9380   43.3560 N   0  0  0  0  0  0  0  0  0  0  0  0
   57.7660   30.5290   44.4670 C   0  0  0  0  0  0  0  0  0  0  0  0
   57.6780   29.1230   44.9080 C   0  0  0  0  0  0  0  0  0  0  0  0
   58.8230   28.3140   44.9660 C   0  0  0  0  0  0  0  0  0  0  0  0
   59.8029   28.7340   44.6949 H   0  0  0  0  0  0  0  0  0  0  0  0
   58.7270   26.9780   45.3660 C   0  0  0  0  0  0  0  0  0  0  0  0
   59.6327   26.3560   45.4192 H   0  0  0  0  0  0  0  0  0  0  0  0
   57.4770   26.4250   45.7010 C   0  0  0  0  0  0  0  0  0  0  0  0
   57.3340   25.0900   46.1110 O   0  0  0  0  0  0  0  0  0  0  0  0
   56.9430   24.6870   47.4190 C   0  0  0  0  0  0  0  0  0  0  0  0
   57.5059   25.2672   48.1650 H   0  0  0  0  0  0  0  0  0  0  0  0
   55.8659   24.8666   47.5514 H   0  0  0  0  0  0  0  0  0  0  0  0
   57.1551   23.6158   47.5514 H   0  0  0  0  0  0  0  0  0  0  0  0
   56.3300   27.2280   45.6230 C   0  0  0  0  0  0  0  0  0  0  0  0
   55.0870   26.6980   45.9430 O   0  0  0  0  0  0  0  0  0  0  0  0
   56.4290   28.5650   45.2210 C   0  0  0  0  0  0  0  0  0  0  0  0
   55.5215   29.1826   45.1499 H   0  0  0  0  0  0  0  0  0  0  0  0
   61.3350   31.2030   47.1910 C   0  0  0  0  0  0  0  0  0  0  0  0
   61.0030   29.8740   47.4270 O   0  0  0  0  0  0  0  0  0  0  0  0
   62.6260   31.6520   47.4910 C   0  0  0  0  0  0  0  0  0  0  0  0
   63.3677   30.9514   47.9021 H   0  0  0  0  0  0  0  0  0  0  0  0
  1  2  1  0
  2  3  1  0
  3  4  2  0
  4  5  1  0
  4  6  1  0
  6  7  1  0
  6  8  2  0
  8  9  1  0
  9 10  1  0
  9 11  2  0
 11 12  1  0
 12 13  2  0
 12 14  1  0
 14 15  1  0
 15 16  2  0
 16 17  1  0
 17 18  2  0
 18 19  1  0
 18 20  1  0
 20 21  1  0
 20 22  2  0
 22 23  1  0
 23 24  1  0
 24 25  1  0
 24 26  1  0
 24 27  1  0
 22 28  1  0
 28 29  1  0
 28 30  2  0
 30 31  1  0
  8 32  1  0
 32 33  1  0
 32 34  2  0
 34 35  1  0
 34  3  1  0
 16 11  1  0
 30 17  1  0
M  CHG  2  29  -1  33  -1
M  END
>  <UniqueID>  (38) 
36

>  <SMILES>  (38) 
COc1ccc(C2=NOC(=O)/C2=C\c2ccc(O)cc2[O-])cc1[O-]

>  <Energy>  (38) 
79.66559802200508

>  <Genealogy>  (38) 
COc1ccc(C2=NOC(=O)C2=Cc2ccc(O)cc2[O-])cc1[O-] (protonated)
COc1ccc(C2=NOC(=O)/C2=C\c2ccc(O)cc2[O-])cc1[O-] (cis-trans isomerization)
COc1ccc(C2=NOC(=O)/C2=C\c2ccc(O)cc2[O-])cc1[O-] (3D coordinates assigned)
COc1ccc(C2=NOC(=O)/C2=C\c2ccc(O)cc2[O-])cc1[O-] (nonaromatic ring conformer: 79.66559802200508 kcal/mol)

>  <smiles>  (38) 
COc1ccc(C2=NOC(=O)C2=Cc2ccc(O)cc2O)cc1O

>  <score_type>  (38) 
oracle

>  <origin>  (38) 
adg

>  <m_score__min__energy>  (38) 
-13.32

>  <m_primary>  (38) 
energy

$$$$
38:0
     RDKit          3D

 36 37  0  0  0  0  0  0  0  0999 V2000
   60.0890   28.1670   46.2540 C   0  0  0  0  0  0  0  0  0  0  0  0
   58.6280   28.3230   46.6650 C   0  0  0  0  0  0  0  0  0  0  0  0
   57.7500   28.3860   45.4830 N   0  0  0  0  0  0  0  0  0  0  0  0
   57.5290   27.1570   44.7050 C   0  0  0  0  0  0  0  0  0  0  0  0
   57.1270   26.0350   45.6090 C   0  0  0  0  0  0  0  0  0  0  0  0
   58.1360   24.7750   46.0920 S   0  0  0  0  0  0  0  0  0  0  0  0
   56.9270   24.0500   47.0080 C   0  0  0  0  0  0  0  0  0  0  0  0
   57.0750   22.9880   47.6640 O   0  0  0  0  0  0  0  0  0  0  0  0
   55.7640   24.7350   46.9700 N   0  0  0  0  0  0  0  0  0  0  0  0
   55.8770   25.8440   46.1940 C   0  0  0  0  0  0  0  0  0  0  0  0
   54.8110   26.7140   46.0050 O   0  0  0  0  0  0  0  0  0  0  0  0
   57.1920   29.6380   45.0130 C   0  0  0  0  0  0  0  0  0  0  0  0
   55.9420   29.7770   44.9380 O   0  0  0  0  0  0  0  0  0  0  0  0
   58.0210   30.7110   44.5500 N   0  0  0  0  0  0  0  0  0  0  0  0
   58.1230   32.0110   45.1470 C   0  0  0  0  0  0  0  0  0  0  0  0
   57.8870   33.1330   44.3420 C   0  0  0  0  0  0  0  0  0  0  0  0
   57.9920   34.4190   44.8740 C   0  0  0  0  0  0  0  0  0  0  0  0
   58.3170   34.5940   46.2180 C   0  0  0  0  0  0  0  0  0  0  0  0
   58.5230   33.4830   47.0410 C   0  0  0  0  0  0  0  0  0  0  0  0
   58.4120   32.1780   46.5180 C   0  0  0  0  0  0  0  0  0  0  0  0
   58.5540   31.0430   47.3320 O   0  0  0  0  0  0  0  0  0  0  0  0
   59.2960   31.0110   48.5460 C   0  0  0  0  0  0  0  0  0  0  0  0
   60.7179   28.0998   47.1540 H   0  0  0  0  0  0  0  0  0  0  0  0
   60.2059   27.2513   45.6559 H   0  0  0  0  0  0  0  0  0  0  0  0
   60.3966   29.0374   45.6559 H   0  0  0  0  0  0  0  0  0  0  0  0
   58.3351   27.4630   47.2851 H   0  0  0  0  0  0  0  0  0  0  0  0
   58.5215   29.2604   47.2306 H   0  0  0  0  0  0  0  0  0  0  0  0
   56.7315   27.3326   43.9680 H   0  0  0  0  0  0  0  0  0  0  0  0
   58.4634   26.8856   44.1920 H   0  0  0  0  0  0  0  0  0  0  0  0
   57.6172   32.9996   43.2840 H   0  0  0  0  0  0  0  0  0  0  0  0
   57.8181   35.2952   44.2321 H   0  0  0  0  0  0  0  0  0  0  0  0
   58.4116   35.6087   46.6320 H   0  0  0  0  0  0  0  0  0  0  0  0
   58.7731   33.6274   48.1024 H   0  0  0  0  0  0  0  0  0  0  0  0
   58.6033   31.0409   49.4000 H   0  0  0  0  0  0  0  0  0  0  0  0
   59.8904   30.0864   48.5882 H   0  0  0  0  0  0  0  0  0  0  0  0
   59.9678   31.8810   48.5882 H   0  0  0  0  0  0  0  0  0  0  0  0
  1  2  1  0
  2  3  1  0
  3  4  1  0
  4  5  1  0
  5  6  1  0
  6  7  1  0
  7  8  2  0
  7  9  1  0
  9 10  1  0
 10 11  1  0
  3 12  1  0
 12 13  2  0
 12 14  1  0
 14 15  1  0
 15 16  2  0
 16 17  1  0
 17 18  2  0
 18 19  1  0
 19 20  2  0
 20 21  1  0
 21 22  1  0
 10  5  2  0
 20 15  1  0
  1 23  1  0
  1 24  1  0
  1 25  1  0
  2 26  1  0
  2 27  1  0
  4 28  1  0
  4 29  1  0
 16 30  1  0
 17 31  1  0
 18 32  1  0
 19 33  1  0
 22 34  1  0
 22 35  1  0
 22 36  1  0
M  CHG  3   9  -1  11  -1  14  -1
M  END
>  <UniqueID>  (39) 
37

>  <SMILES>  (39) 
CCN(Cc1sc(=O)[n-]c1[O-])C(=O)[N-]c1ccccc1OC

>  <Energy>  (39) 
68.30019739126983

>  <Genealogy>  (39) 
CCN(Cc1sc(=O)[n-]c1[O-])C(=O)[N-]c1ccccc1OC (protonated)
CCN(Cc1sc(=O)[n-]c1[O-])C(=O)[N-]c1ccccc1OC (3D coordinates assigned)
CCN(Cc1sc(=O)[n-]c1[O-])C(=O)[N-]c1ccccc1OC (optimized conformer: 68.30019739126983 kcal/mol)

>  <smiles>  (39) 
CCN(Cc1sc(=O)[nH]c1O)C(=O)Nc1ccccc1OC

>  <score_type>  (39) 
oracle

>  <origin>  (39) 
adg

>  <m_score__min__energy>  (39) 
-14.75

>  <m_primary>  (39) 
energy

$$$$
39:0
     RDKit          3D

 48 50  0  0  0  0  0  0  0  0999 V2000
   58.7970   31.6280   50.6570 C   0  0  0  0  0  0  0  0  0  0  0  0
   59.9730   30.9060   50.3040 O   0  0  0  0  0  0  0  0  0  0  0  0
   60.9200   31.3330   49.3600 C   0  0  0  0  0  0  0  0  0  0  0  0
   61.8680   32.3320   49.6610 C   0  0  0  0  0  0  0  0  0  0  0  0
   62.8190   32.7140   48.7130 C   0  0  0  0  0  0  0  0  0  0  0  0
   62.8360   32.1110   47.4560 C   0  0  0  0  0  0  0  0  0  0  0  0
   61.8990   31.1250   47.1410 C   0  0  0  0  0  0  0  0  0  0  0  0
   60.9320   30.7320   48.0820 C   0  0  0  0  0  0  0  0  0  0  0  0
   59.9610   29.7280   47.7330 N   0  0  0  0  0  0  0  0  0  0  0  0
   59.2790   29.6460   46.5710 C   0  0  0  0  0  0  0  0  0  0  0  0
   58.4580   28.5320   46.5920 C   0  0  0  0  0  0  0  0  0  0  0  0
   57.5560   28.0950   45.5180 C   0  0  0  0  0  0  0  0  0  0  0  0
   57.8300   27.0620   44.8490 O   0  0  0  0  0  0  0  0  0  0  0  0
   56.3720   28.8470   45.2320 N   0  0  0  0  0  0  0  0  0  0  0  0
   56.2200   29.7070   44.0620 C   0  0  0  0  0  0  0  0  0  0  0  0
   56.2770   31.1820   44.4560 C   0  0  0  0  0  0  0  0  0  0  0  0
   57.6670   32.0180   43.6190 S   0  0  0  0  0  0  0  0  0  0  0  0
   58.2780   32.7720   45.1260 C   0  0  0  0  0  0  0  0  0  0  0  0
   57.7840   32.3570   46.3680 C   0  0  0  0  0  0  0  0  0  0  0  0
   58.2590   32.9460   47.5440 C   0  0  0  0  0  0  0  0  0  0  0  0
   59.2390   33.9500   47.4870 C   0  0  0  0  0  0  0  0  0  0  0  0
   59.7170   34.6090   48.7470 C   0  0  0  0  0  0  0  0  0  0  0  0
   59.7150   34.3780   46.2380 C   0  0  0  0  0  0  0  0  0  0  0  0
   59.2400   33.7880   45.0630 C   0  0  0  0  0  0  0  0  0  0  0  0
   58.6470   27.9040   47.8100 C   0  0  0  0  0  0  0  0  0  0  0  0
   59.5800   28.6710   48.4790 C   0  0  0  0  0  0  0  0  0  0  0  0
   60.0530   28.4120   49.7630 O   0  0  0  0  0  0  0  0  0  0  0  0
   58.7133   31.6794   51.7526 H   0  0  0  0  0  0  0  0  0  0  0  0
   58.8547   32.6465   50.2455 H   0  0  0  0  0  0  0  0  0  0  0  0
   57.9148   31.1157   50.2455 H   0  0  0  0  0  0  0  0  0  0  0  0
   61.8583   32.8139   50.6498 H   0  0  0  0  0  0  0  0  0  0  0  0
   63.5565   33.4924   48.9583 H   0  0  0  0  0  0  0  0  0  0  0  0
   63.5881   32.4123   46.7120 H   0  0  0  0  0  0  0  0  0  0  0  0
   61.9178   30.6519   46.1481 H   0  0  0  0  0  0  0  0  0  0  0  0
   59.3629   30.3561   45.7351 H   0  0  0  0  0  0  0  0  0  0  0  0
   57.0311   29.4931   43.3504 H   0  0  0  0  0  0  0  0  0  0  0  0
   55.2412   29.5044   43.6027 H   0  0  0  0  0  0  0  0  0  0  0  0
   55.3346   31.6701   44.1666 H   0  0  0  0  0  0  0  0  0  0  0  0
   56.4241   31.2528   45.5438 H   0  0  0  0  0  0  0  0  0  0  0  0
   57.0210   31.5663   46.4192 H   0  0  0  0  0  0  0  0  0  0  0  0
   57.8633   32.6215   48.5177 H   0  0  0  0  0  0  0  0  0  0  0  0
   59.3224   34.0649   49.6178 H   0  0  0  0  0  0  0  0  0  0  0  0
   60.8166   34.5953   48.7736 H   0  0  0  0  0  0  0  0  0  0  0  0
   59.3625   35.6500   48.7736 H   0  0  0  0  0  0  0  0  0  0  0  0
   60.4649   35.1809   46.1834 H   0  0  0  0  0  0  0  0  0  0  0  0
   59.6224   34.1223   44.0873 H   0  0  0  0  0  0  0  0  0  0  0  0
   58.1573   26.9870   48.1697 H   0  0  0  0  0  0  0  0  0  0  0  0
   60.1560   29.1570   50.4400 H   0  0  0  0  0  0  0  0  0  0  0  0
  1  2  1  0
  2  3  1  0
  3  4  2  0
  4  5  1  0
  5  6  2  0
  6  7  1  0
  7  8  2  0
  8  9  1  0
  9 10  1  0
 10 11  2  0
 11 12  1  0
 12 13  2  0
 12 14  1  0
 14 15  1  0
 15 16  1  0
 16 17  1  0
 17 18  1  0
 18 19  2  0
 19 20  1  0
 20 21  2  0
 21 22  1  0
 21 23  1  0
 23 24  2  0
 11 25  1  0
 25 26  2  0
 26 27  1  0
  8  3  1  0
 26  9  1  0
 24 18  1  0
  1 28  1  0
  1 29  1  0
  1 30  1  0
  4 31  1  0
  5 32  1  0
  6 33  1  0
  7 34  1  0
 10 35  1  0
 15 36  1  0
 15 37  1  0
 16 38  1  0
 16 39  1  0
 19 40  1  0
 20 41  1  0
 22 42  1  0
 22 43  1  0
 22 44  1  0
 23 45  1  0
 24 46  1  0
 25 47  1  0
 27 48  1  0
M  CHG  1  14  -1
M  END
>  <UniqueID>  (40) 
38

>  <SMILES>  (40) 
COc1ccccc1-n1cc(C(=O)[N-]CCSc2ccc(C)cc2)cc1O

>  <Energy>  (40) 
71.93266840701808

>  <Genealogy>  (40) 
COc1ccccc1-n1cc(C(=O)[N-]CCSc2ccc(C)cc2)cc1O (protonated)
COc1ccccc1-n1cc(C(=O)[N-]CCSc2ccc(C)cc2)cc1O (3D coordinates assigned)
COc1ccccc1-n1cc(C(=O)[N-]CCSc2ccc(C)cc2)cc1O (optimized conformer: 71.93266840701808 kcal/mol)

>  <smiles>  (40) 
COc1ccccc1-n1cc(C(=O)NCCSc2ccc(C)cc2)cc1O

>  <score_type>  (40) 
oracle

>  <origin>  (40) 
adg

>  <m_score__min__energy>  (40) 
-8.7599999999999998

>  <m_primary>  (40) 
energy

$$$$
40:0
     RDKit          3D

 31 33  0  0  0  0  0  0  0  0999 V2000
   54.6677   28.2319   53.2878 H   0  0  0  0  0  0  0  0  0  0  0  0
   55.1350   29.1390   52.8770 C   0  0  0  0  0  0  0  0  0  0  0  0
   56.3600   29.0660   52.2940 N   0  0  0  0  0  0  0  0  0  0  0  0
   56.9890   30.1520   51.7690 C   0  0  0  0  0  0  0  0  0  0  0  0
   58.1620   29.9770   51.2250 N   0  0  0  0  0  0  0  0  0  0  0  0
   58.6230   30.3550   49.9170 C   0  0  0  0  0  0  0  0  0  0  0  0
   58.7840   31.5670   49.6060 O   0  0  0  0  0  0  0  0  0  0  0  0
   59.0000   29.3050   48.9600 C   0  0  0  0  0  0  0  0  0  0  0  0
   59.8150   28.2770   49.2720 N   0  0  0  0  0  0  0  0  0  0  0  0
   59.9020   27.5540   48.1400 C   0  0  0  0  0  0  0  0  0  0  0  0
   60.6580   26.3940   48.0350 O   0  0  0  0  0  0  0  0  0  0  0  0
   59.1590   28.0990   47.1180 C   0  0  0  0  0  0  0  0  0  0  0  0
   59.0536   27.7125   46.0936 H   0  0  0  0  0  0  0  0  0  0  0  0
   58.5750   29.2290   47.6450 C   0  0  0  0  0  0  0  0  0  0  0  0
   57.9054   29.9303   47.1255 H   0  0  0  0  0  0  0  0  0  0  0  0
   56.3320   31.4000   51.8020 C   0  0  0  0  0  0  0  0  0  0  0  0
   56.8076   32.2891   51.3623 H   0  0  0  0  0  0  0  0  0  0  0  0
   55.0720   31.4970   52.3980 C   0  0  0  0  0  0  0  0  0  0  0  0
   54.5542   32.4670   52.4284 H   0  0  0  0  0  0  0  0  0  0  0  0
   54.4660   30.3670   52.9560 C   0  0  0  0  0  0  0  0  0  0  0  0
   53.0930   30.4530   53.5630 C   0  0  0  0  0  0  0  0  0  0  0  0
   52.6778   29.4398   53.6680 H   0  0  0  0  0  0  0  0  0  0  0  0
   53.1659   30.9325   54.5503 H   0  0  0  0  0  0  0  0  0  0  0  0
   52.1920   31.2690   52.6880 C   0  0  0  0  0  0  0  0  0  0  0  0
   51.1820   32.1190   53.0940 C   0  0  0  0  0  0  0  0  0  0  0  0
   50.7860   32.3140   54.4110 O   0  0  0  0  0  0  0  0  0  0  0  0
   50.6160   32.7560   52.0500 N   0  0  0  0  0  0  0  0  0  0  0  0
   51.2930   32.3040   50.9760 C   0  0  0  0  0  0  0  0  0  0  0  0
   51.0260   32.7210   49.6790 O   0  0  0  0  0  0  0  0  0  0  0  0
   52.2750   31.3950   51.3180 C   0  0  0  0  0  0  0  0  0  0  0  0
   52.9740   30.8814   50.6415 H   0  0  0  0  0  0  0  0  0  0  0  0
  1  2  1  0
  2  3  1  0
  3  4  1  0
  4  5  2  0
  5  6  1  0
  6  7  2  0
  6  8  1  0
  8  9  1  0
  9 10  1  0
 10 11  1  0
 10 12  2  0
 12 13  1  0
 12 14  1  0
 14 15  1  0
  4 16  1  0
 16 17  1  0
 16 18  2  0
 18 19  1  0
 18 20  1  0
 20 21  1  0
 21 22  1  0
 21 23  1  0
 21 24  1  0
 24 25  2  0
 25 26  1  0
 25 27  1  0
 27 28  1  0
 28 29  1  0
 28 30  2  0
 30 31  1  0
 20  2  2  0
 30 24  1  0
 14  8  2  0
M  CHG  6   3  -1   9  -1  11  -1  26  -1  27  -1  29  -1
M  END
>  <UniqueID>  (41) 
39

>  <SMILES>  (41) 
O=C(/N=c1\ccc(Cc2cc([O-])[n-]c2[O-])c[n-]1)c1ccc([O-])[n-]1

>  <Energy>  (41) 
90.69351645367874

>  <Genealogy>  (41) 
O=C(N=c1ccc(Cc2cc([O-])[n-]c2[O-])c[n-]1)c1ccc([O-])[n-]1 (protonated)
O=C(/N=c1\ccc(Cc2cc([O-])[n-]c2[O-])c[n-]1)c1ccc([O-])[n-]1 (cis-trans isomerization)
O=C(/N=c1\ccc(Cc2cc([O-])[n-]c2[O-])c[n-]1)c1ccc([O-])[n-]1 (3D coordinates assigned)
O=C(/N=c1\ccc(Cc2cc([O-])[n-]c2[O-])c[n-]1)c1ccc([O-])[n-]1 (optimized conformer: 90.69351645367874 kcal/mol)

>  <smiles>  (41) 
O=C(N=c1ccc(Cc2cc(O)[nH]c2O)c[nH]1)c1ccc(O)[nH]1

>  <score_type>  (41) 
oracle

>  <origin>  (41) 
adg

>  <m_score__min__energy>  (41) 
-17.989999999999998

>  <m_primary>  (41) 
energy

$$$$
41:0
     RDKit          3D

 44 46  0  0  0  0  0  0  0  0999 V2000
   57.1040   33.7990   44.5220 O   0  0  0  0  0  0  0  0  0  0  0  0
   57.3370   32.7370   45.1590 C   0  0  0  0  0  0  0  0  0  0  0  0
   58.3470   32.7580   46.2710 C   0  0  0  0  0  0  0  0  0  0  0  0
   58.7890   34.4760   46.6950 S   0  0  0  0  0  0  0  0  0  0  0  0
   60.4430   34.0640   47.2480 C   0  0  0  0  0  0  0  0  0  0  0  0
   60.7140   33.8900   48.6100 C   0  0  0  0  0  0  0  0  0  0  0  0
   62.0070   33.5380   49.0100 C   0  0  0  0  0  0  0  0  0  0  0  0
   63.0130   33.3730   48.0530 C   0  0  0  0  0  0  0  0  0  0  0  0
   62.7070   33.5680   46.7020 C   0  0  0  0  0  0  0  0  0  0  0  0
   61.4400   33.9080   46.3330 N   0  0  0  0  0  0  0  0  0  0  0  0
   56.7070   31.5220   44.7330 N   0  0  0  0  0  0  0  0  0  0  0  0
   57.1240   30.2060   45.1110 C   0  0  0  0  0  0  0  0  0  0  0  0
   58.4850   29.9630   45.3390 C   0  0  0  0  0  0  0  0  0  0  0  0
   58.9240   28.6810   45.7010 C   0  0  0  0  0  0  0  0  0  0  0  0
   60.6330   28.3770   46.0000 S   0  0  0  0  0  0  0  0  0  0  0  0
   61.4210   28.8900   44.8280 O   0  0  0  0  0  0  0  0  0  0  0  0
   60.8630   26.8980   46.1430 O   0  0  0  0  0  0  0  0  0  0  0  0
   61.1220   29.2050   47.4660 N   0  0  0  0  0  0  0  0  0  0  0  0
   60.6170   30.5970   47.5050 C   0  0  0  0  0  0  0  0  0  0  0  0
   59.3900   30.7590   48.4210 C   0  0  0  0  0  0  0  0  0  0  0  0
   58.5860   29.6020   48.3640 O   0  0  0  0  0  0  0  0  0  0  0  0
   59.2460   28.5130   48.9840 C   0  0  0  0  0  0  0  0  0  0  0  0
   60.7620   28.4380   48.6710 C   0  0  0  0  0  0  0  0  0  0  0  0
   57.9950   27.6400   45.8300 C   0  0  0  0  0  0  0  0  0  0  0  0
   56.6420   27.8700   45.5640 C   0  0  0  0  0  0  0  0  0  0  0  0
   56.2050   29.1420   45.1850 C   0  0  0  0  0  0  0  0  0  0  0  0
   54.8680   29.3370   44.8610 O   0  0  0  0  0  0  0  0  0  0  0  0
   57.9213   32.2640   47.1568 H   0  0  0  0  0  0  0  0  0  0  0  0
   59.2523   32.2273   45.9412 H   0  0  0  0  0  0  0  0  0  0  0  0
   59.9189   34.0286   49.3574 H   0  0  0  0  0  0  0  0  0  0  0  0
   62.2324   33.3911   50.0766 H   0  0  0  0  0  0  0  0  0  0  0  0
   64.0320   33.0934   48.3586 H   0  0  0  0  0  0  0  0  0  0  0  0
   63.4888   33.4469   45.9378 H   0  0  0  0  0  0  0  0  0  0  0  0
   59.2124   30.7814   45.2336 H   0  0  0  0  0  0  0  0  0  0  0  0
   61.4200   31.2524   47.8733 H   0  0  0  0  0  0  0  0  0  0  0  0
   60.3074   30.8666   46.4845 H   0  0  0  0  0  0  0  0  0  0  0  0
   59.7271   30.9170   49.4561 H   0  0  0  0  0  0  0  0  0  0  0  0
   58.8003   31.6239   48.0830 H   0  0  0  0  0  0  0  0  0  0  0  0
   59.1212   28.6067   50.0729 H   0  0  0  0  0  0  0  0  0  0  0  0
   58.7913   27.5944   48.5847 H   0  0  0  0  0  0  0  0  0  0  0  0
   61.3207   28.8424   49.5279 H   0  0  0  0  0  0  0  0  0  0  0  0
   61.0163   27.3836   48.4876 H   0  0  0  0  0  0  0  0  0  0  0  0
   58.3310   26.6399   46.1412 H   0  0  0  0  0  0  0  0  0  0  0  0
   55.9184   27.0463   45.6534 H   0  0  0  0  0  0  0  0  0  0  0  0
  1  2  2  0
  2  3  1  0
  3  4  1  0
  4  5  1  0
  5  6  2  0
  6  7  1  0
  7  8  2  0
  8  9  1  0
  9 10  2  0
  2 11  1  0
 11 12  1  0
 12 13  2  0
 13 14  1  0
 14 15  1  0
 15 16  2  0
 15 17  2  0
 15 18  1  0
 18 19  1  0
 19 20  1  0
 20 21  1  0
 21 22  1  0
 22 23  1  0
 14 24  2  0
 24 25  1  0
 25 26  2  0
 26 27  1  0
 10  5  1  0
 26 12  1  0
 23 18  1  0
  3 28  1  0
  3 29  1  0
  6 30  1  0
  7 31  1  0
  8 32  1  0
  9 33  1  0
 13 34  1  0
 19 35  1  0
 19 36  1  0
 20 37  1  0
 20 38  1  0
 22 39  1  0
 22 40  1  0
 23 41  1  0
 23 42  1  0
 24 43  1  0
 25 44  1  0
M  CHG  2  11  -1  27  -1
M  END
>  <UniqueID>  (42) 
40

>  <SMILES>  (42) 
O=C(CSc1ccccn1)[N-]c1cc(S(=O)(=O)N2CCOCC2)ccc1[O-]

>  <Energy>  (42) 
59.345170502973

>  <Genealogy>  (42) 
O=C(CSc1ccccn1)[N-]c1cc(S(=O)(=O)N2CCOCC2)ccc1[O-] (protonated)
O=C(CSc1ccccn1)[N-]c1cc(S(=O)(=O)N2CCOCC2)ccc1[O-] (3D coordinates assigned)
O=C(CSc1ccccn1)[N-]c1cc(S(=O)(=O)N2CCOCC2)ccc1[O-] (nonaromatic ring conformer: 59.345170502973 kcal/mol)

>  <smiles>  (42) 
O=C(CSc1ccccn1)Nc1cc(S(=O)(=O)N2CCOCC2)ccc1O

>  <score_type>  (42) 
oracle

>  <origin>  (42) 
adg

>  <m_score__min__energy>  (42) 
-14.18

>  <m_primary>  (42) 
energy

$$$$
42:0
     RDKit          3D

 50 53  0  0  0  0  0  0  0  0999 V2000
   57.7110   19.3330   47.1300 C   0  0  0  0  0  0  0  0  0  0  0  0
   58.0770   20.4770   46.3670 O   0  0  0  0  0  0  0  0  0  0  0  0
   57.2380   21.5780   46.1380 C   0  0  0  0  0  0  0  0  0  0  0  0
   57.3590   22.3950   44.9980 C   0  0  0  0  0  0  0  0  0  0  0  0
   56.5140   23.4970   44.8280 C   0  0  0  0  0  0  0  0  0  0  0  0
   55.5480   23.8130   45.8000 C   0  0  0  0  0  0  0  0  0  0  0  0
   54.6780   25.0050   45.6500 C   0  0  0  0  0  0  0  0  0  0  0  0
   53.5120   24.8650   45.1940 O   0  0  0  0  0  0  0  0  0  0  0  0
   55.1360   26.3270   45.9700 N   0  0  0  0  0  0  0  0  0  0  0  0
   56.5020   26.7020   46.2030 C   0  0  0  0  0  0  0  0  0  0  0  0
   57.3130   25.9950   47.1060 C   0  0  0  0  0  0  0  0  0  0  0  0
   58.6540   26.3460   47.2670 C   0  0  0  0  0  0  0  0  0  0  0  0
   59.1980   27.3990   46.5270 C   0  0  0  0  0  0  0  0  0  0  0  0
   58.3980   28.1200   45.6230 C   0  0  0  0  0  0  0  0  0  0  0  0
   59.0050   29.2280   44.7960 C   0  0  0  0  0  0  0  0  0  0  0  0
   58.4260   30.5780   45.1480 C   0  0  0  0  0  0  0  0  0  0  0  0
   57.1880   30.8810   44.6710 N   0  0  0  0  0  0  0  0  0  0  0  0
   56.5950   32.0450   44.9290 N   0  0  0  0  0  0  0  0  0  0  0  0
   57.1940   32.9940   45.6880 C   0  0  0  0  0  0  0  0  0  0  0  0
   56.5970   34.0840   45.8980 O   0  0  0  0  0  0  0  0  0  0  0  0
   58.4680   32.7550   46.2290 C   0  0  0  0  0  0  0  0  0  0  0  0
   59.1220   31.5340   45.9300 C   0  0  0  0  0  0  0  0  0  0  0  0
   60.4090   31.2100   46.5220 N   0  0  0  0  0  0  0  0  0  0  0  0
   61.1920   32.3980   46.8900 C   0  0  0  0  0  0  0  0  0  0  0  0
   60.3740   33.3190   47.7900 C   0  0  0  0  0  0  0  0  0  0  0  0
   59.1590   33.8400   47.0270 C   0  0  0  0  0  0  0  0  0  0  0  0
   57.0370   27.7900   45.5010 C   0  0  0  0  0  0  0  0  0  0  0  0
   55.4100   22.9760   46.9190 C   0  0  0  0  0  0  0  0  0  0  0  0
   56.2510   21.8700   47.0850 C   0  0  0  0  0  0  0  0  0  0  0  0
   57.7861   19.5679   48.2020 H   0  0  0  0  0  0  0  0  0  0  0  0
   56.6765   19.0471   46.8889 H   0  0  0  0  0  0  0  0  0  0  0  0
   58.3874   18.4997   46.8889 H   0  0  0  0  0  0  0  0  0  0  0  0
   58.1207   22.1661   44.2381 H   0  0  0  0  0  0  0  0  0  0  0  0
   56.6059   24.1212   43.9269 H   0  0  0  0  0  0  0  0  0  0  0  0
   56.8901   25.1627   47.6877 H   0  0  0  0  0  0  0  0  0  0  0  0
   59.2844   25.7923   47.9783 H   0  0  0  0  0  0  0  0  0  0  0  0
   60.2579   27.6654   46.6523 H   0  0  0  0  0  0  0  0  0  0  0  0
   60.0904   29.2498   44.9732 H   0  0  0  0  0  0  0  0  0  0  0  0
   58.7788   29.0262   43.7386 H   0  0  0  0  0  0  0  0  0  0  0  0
   60.9930   30.6660   45.8490 H   0  0  0  0  0  0  0  0  0  0  0  0
   60.2470   30.6220   47.3750 H   0  0  0  0  0  0  0  0  0  0  0  0
   62.0998   32.0819   47.4248 H   0  0  0  0  0  0  0  0  0  0  0  0
   61.4624   32.9438   45.9740 H   0  0  0  0  0  0  0  0  0  0  0  0
   60.0372   32.7599   48.6754 H   0  0  0  0  0  0  0  0  0  0  0  0
   60.9980   34.1687   48.1041 H   0  0  0  0  0  0  0  0  0  0  0  0
   58.4419   34.2585   47.7486 H   0  0  0  0  0  0  0  0  0  0  0  0
   59.5112   34.6040   46.3183 H   0  0  0  0  0  0  0  0  0  0  0  0
   56.3865   28.3912   44.8488 H   0  0  0  0  0  0  0  0  0  0  0  0
   54.6357   23.1912   47.6701 H   0  0  0  0  0  0  0  0  0  0  0  0
   56.1348   21.2245   47.9681 H   0  0  0  0  0  0  0  0  0  0  0  0
  1  2  1  0
  2  3  1  0
  3  4  2  0
  4  5  1  0
  5  6  2  0
  6  7  1  0
  7  8  2  0
  7  9  1  0
  9 10  1  0
 10 11  2  0
 11 12  1  0
 12 13  2  0
 13 14  1  0
 14 15  1  0
 15 16  1  0
 16 17  2  0
 17 18  1  0
 18 19  1  0
 19 20  2  0
 19 21  1  0
 21 22  2  0
 22 23  1  0
 23 24  1  0
 24 25  1  0
 25 26  1  0
 14 27  2  0
  6 28  1  0
 28 29  2  0
 29  3  1  0
 27 10  1  0
 22 16  1  0
 26 21  1  0
  1 30  1  0
  1 31  1  0
  1 32  1  0
  4 33  1  0
  5 34  1  0
 11 35  1  0
 12 36  1  0
 13 37  1  0
 15 38  1  0
 15 39  1  0
 23 40  1  0
 23 41  1  0
 24 42  1  0
 24 43  1  0
 25 44  1  0
 25 45  1  0
 26 46  1  0
 26 47  1  0
 27 48  1  0
 28 49  1  0
 29 50  1  0
M  CHG  3   9  -1  18  -1  23   1
M  END
>  <UniqueID>  (43) 
41

>  <SMILES>  (43) 
COc1ccc(C(=O)[N-]c2cccc(Cc3n[n-]c(=O)c4c3[NH2+]CCC4)c2)cc1

>  <Energy>  (43) 
65.39754457619209

>  <Genealogy>  (43) 
COc1ccc(C(=O)[N-]c2cccc(Cc3n[n-]c(=O)c4c3[NH2+]CCC4)c2)cc1 (protonated)
COc1ccc(C(=O)[N-]c2cccc(Cc3n[n-]c(=O)c4c3[NH2+]CCC4)c2)cc1 (3D coordinates assigned)
COc1ccc(C(=O)[N-]c2cccc(Cc3n[n-]c(=O)c4c3[NH2+]CCC4)c2)cc1 (nonaromatic ring conformer: 65.39754457619209 kcal/mol)

>  <smiles>  (43) 
COc1ccc(C(=O)Nc2cccc(Cc3n[nH]c(=O)c4c3NCCC4)c2)cc1

>  <score_type>  (43) 
oracle

>  <origin>  (43) 
adg

>  <m_score__min__energy>  (43) 
-10.890000000000001

>  <m_primary>  (43) 
energy

$$$$
43:0
     RDKit          3D

 40 41  0  0  0  0  0  0  0  0999 V2000
   57.5640   31.6200   41.8490 N   0  0  0  0  0  0  0  0  0  0  0  0
   58.0280   32.5030   42.9170 C   0  0  0  0  0  0  0  0  0  0  0  0
   57.6630   31.9370   44.2970 C   0  0  0  0  0  0  0  0  0  0  0  0
   56.2950   31.2370   44.3350 C   0  0  0  0  0  0  0  0  0  0  0  0
   56.4140   29.7530   44.0920 C   0  0  0  0  0  0  0  0  0  0  0  0
   56.9130   29.3550   43.0070 O   0  0  0  0  0  0  0  0  0  0  0  0
   55.9190   28.7770   45.0200 N   0  0  0  0  0  0  0  0  0  0  0  0
   56.7080   27.7890   45.6920 C   0  0  0  0  0  0  0  0  0  0  0  0
   58.0630   28.0560   45.9200 C   0  0  0  0  0  0  0  0  0  0  0  0
   58.8800   27.0980   46.5210 C   0  0  0  0  0  0  0  0  0  0  0  0
   58.3470   25.8670   46.9040 C   0  0  0  0  0  0  0  0  0  0  0  0
   56.9840   25.5920   46.7050 C   0  0  0  0  0  0  0  0  0  0  0  0
   56.4190   24.3340   47.1030 N   0  0  0  0  0  0  0  0  0  0  0  0
   56.8610   23.0450   46.6550 C   0  0  0  0  0  0  0  0  0  0  0  0
   57.2510   22.2100   47.5110 O   0  0  0  0  0  0  0  0  0  0  0  0
   56.8120   22.6590   45.2240 C   0  0  0  0  0  0  0  0  0  0  0  0
   57.7400   21.7370   44.7050 C   0  0  0  0  0  0  0  0  0  0  0  0
   57.6940   21.3660   43.3590 C   0  0  0  0  0  0  0  0  0  0  0  0
   56.7310   21.9180   42.5130 C   0  0  0  0  0  0  0  0  0  0  0  0
   55.8140   22.8470   43.0110 C   0  0  0  0  0  0  0  0  0  0  0  0
   55.8520   23.2210   44.3590 C   0  0  0  0  0  0  0  0  0  0  0  0
   54.9360   24.1100   44.8210 F   0  0  0  0  0  0  0  0  0  0  0  0
   56.1510   26.5690   46.1400 C   0  0  0  0  0  0  0  0  0  0  0  0
   54.7830   26.3110   46.0340 O   0  0  0  0  0  0  0  0  0  0  0  0
   56.5800   31.3360   42.0550 H   0  0  0  0  0  0  0  0  0  0  0  0
   58.1310   30.7430   41.8930 H   0  0  0  0  0  0  0  0  0  0  0  0
   59.1209   32.6068   42.8485 H   0  0  0  0  0  0  0  0  0  0  0  0
   57.5396   33.4816   42.7994 H   0  0  0  0  0  0  0  0  0  0  0  0
   58.4341   31.2088   44.5888 H   0  0  0  0  0  0  0  0  0  0  0  0
   57.6075   32.7895   44.9900 H   0  0  0  0  0  0  0  0  0  0  0  0
   55.8398   31.3999   45.3230 H   0  0  0  0  0  0  0  0  0  0  0  0
   55.6720   31.6639   43.5353 H   0  0  0  0  0  0  0  0  0  0  0  0
   58.4862   29.0271   45.6235 H   0  0  0  0  0  0  0  0  0  0  0  0
   59.9449   27.3134   46.6929 H   0  0  0  0  0  0  0  0  0  0  0  0
   58.9971   25.1082   47.3640 H   0  0  0  0  0  0  0  0  0  0  0  0
   58.5074   21.3052   45.3643 H   0  0  0  0  0  0  0  0  0  0  0  0
   58.4181   20.6375   42.9652 H   0  0  0  0  0  0  0  0  0  0  0  0
   56.6940   21.6217   41.4543 H   0  0  0  0  0  0  0  0  0  0  0  0
   55.0597   23.2859   42.3414 H   0  0  0  0  0  0  0  0  0  0  0  0
   54.3620   25.4550   46.3710 H   0  0  0  0  0  0  0  0  0  0  0  0
  1  2  1  0
  2  3  1  0
  3  4  1  0
  4  5  1  0
  5  6  2  0
  5  7  1  0
  7  8  1  0
  8  9  2  0
  9 10  1  0
 10 11  2  0
 11 12  1  0
 12 13  1  0
 13 14  1  0
 14 15  2  0
 14 16  1  0
 16 17  2  0
 17 18  1  0
 18 19  2  0
 19 20  1  0
 20 21  2  0
 21 22  1  0
 12 23  2  0
 23 24  1  0
 23  8  1  0
 21 16  1  0
  1 25  1  0
  1 26  1  0
  2 27  1  0
  2 28  1  0
  3 29  1  0
  3 30  1  0
  4 31  1  0
  4 32  1  0
  9 33  1  0
 10 34  1  0
 11 35  1  0
 17 36  1  0
 18 37  1  0
 19 38  1  0
 20 39  1  0
 24 40  1  0
M  CHG  2   7  -1  13  -1
M  END
>  <UniqueID>  (44) 
42

>  <SMILES>  (44) 
NCCCC(=O)[N-]c1cccc([N-]C(=O)c2ccccc2F)c1O

>  <Energy>  (44) 
48.506858499273555

>  <Genealogy>  (44) 
NCCCC(=O)[N-]c1cccc([N-]C(=O)c2ccccc2F)c1O (protonated)
NCCCC(=O)[N-]c1cccc([N-]C(=O)c2ccccc2F)c1O (3D coordinates assigned)
NCCCC(=O)[N-]c1cccc([N-]C(=O)c2ccccc2F)c1O (optimized conformer: 48.506858499273555 kcal/mol)

>  <smiles>  (44) 
NCCCC(=O)Nc1cccc(NC(=O)c2ccccc2F)c1O

>  <score_type>  (44) 
oracle

>  <origin>  (44) 
adg

>  <m_score__min__energy>  (44) 
-12.380000000000001

>  <m_primary>  (44) 
energy

$$$$
44:0
     RDKit          3D

 50 52  0  0  0  0  0  0  0  0999 V2000
   58.2250   32.3370   41.3940 C   0  0  0  0  0  0  0  0  0  0  0  0
   57.3550   32.5180   42.5070 O   0  0  0  0  0  0  0  0  0  0  0  0
   57.7790   32.8590   43.8010 C   0  0  0  0  0  0  0  0  0  0  0  0
   58.9430   33.6180   44.0310 C   0  0  0  0  0  0  0  0  0  0  0  0
   59.3320   33.9330   45.3350 C   0  0  0  0  0  0  0  0  0  0  0  0
   58.5610   33.5140   46.4270 C   0  0  0  0  0  0  0  0  0  0  0  0
   59.0180   33.8000   47.8260 C   0  0  0  0  0  0  0  0  0  0  0  0
   57.4070   32.7510   46.2010 C   0  0  0  0  0  0  0  0  0  0  0  0
   57.0170   32.4250   44.8980 C   0  0  0  0  0  0  0  0  0  0  0  0
   55.8830   31.5810   44.7000 N   0  0  0  0  0  0  0  0  0  0  0  0
   56.0950   29.9540   44.1540 S   0  0  0  0  0  0  0  0  0  0  0  0
   54.7620   29.2620   44.1280 O   0  0  0  0  0  0  0  0  0  0  0  0
   56.6680   29.9460   42.7660 O   0  0  0  0  0  0  0  0  0  0  0  0
   57.1550   29.1200   45.2960 C   0  0  0  0  0  0  0  0  0  0  0  0
   58.4270   29.6490   45.5400 C   0  0  0  0  0  0  0  0  0  0  0  0
   59.3520   28.9550   46.3340 C   0  0  0  0  0  0  0  0  0  0  0  0
   60.6980   29.5240   46.5590 C   0  0  0  0  0  0  0  0  0  0  0  0
   61.5550   29.4310   45.6360 O   0  0  0  0  0  0  0  0  0  0  0  0
   61.0570   30.1740   47.7990 N   0  0  0  0  0  0  0  0  0  0  0  0
   62.1300   31.1820   47.7840 C   0  0  0  0  0  0  0  0  0  0  0  0
   62.3850   31.7580   49.1830 C   0  0  0  0  0  0  0  0  0  0  0  0
   62.5770   30.6280   50.2040 C   0  0  0  0  0  0  0  0  0  0  0  0
   61.4560   29.5650   50.1630 C   0  0  0  0  0  0  0  0  0  0  0  0
   60.4060   29.8130   49.0680 C   0  0  0  0  0  0  0  0  0  0  0  0
   58.9810   27.7310   46.9130 C   0  0  0  0  0  0  0  0  0  0  0  0
   57.7100   27.2000   46.6800 C   0  0  0  0  0  0  0  0  0  0  0  0
   56.8000   27.8810   45.8650 C   0  0  0  0  0  0  0  0  0  0  0  0
   55.5570   27.3120   45.6190 O   0  0  0  0  0  0  0  0  0  0  0  0
   59.2424   32.1253   41.7545 H   0  0  0  0  0  0  0  0  0  0  0  0
   57.8693   31.4936   40.7839 H   0  0  0  0  0  0  0  0  0  0  0  0
   58.2352   33.2523   40.7839 H   0  0  0  0  0  0  0  0  0  0  0  0
   59.5482   33.9641   43.1802 H   0  0  0  0  0  0  0  0  0  0  0  0
   60.2502   34.5142   45.5057 H   0  0  0  0  0  0  0  0  0  0  0  0
   58.3094   33.3566   48.5411 H   0  0  0  0  0  0  0  0  0  0  0  0
   60.0164   33.3653   47.9817 H   0  0  0  0  0  0  0  0  0  0  0  0
   59.0635   34.8880   47.9817 H   0  0  0  0  0  0  0  0  0  0  0  0
   56.8042   32.4064   47.0541 H   0  0  0  0  0  0  0  0  0  0  0  0
   58.7049   30.6201   45.1043 H   0  0  0  0  0  0  0  0  0  0  0  0
   63.0550   30.7130   47.4172 H   0  0  0  0  0  0  0  0  0  0  0  0
   61.8184   32.0057   47.1249 H   0  0  0  0  0  0  0  0  0  0  0  0
   63.2913   32.3810   49.1581 H   0  0  0  0  0  0  0  0  0  0  0  0
   61.5163   32.3631   49.4819 H   0  0  0  0  0  0  0  0  0  0  0  0
   63.5363   30.1309   49.9973 H   0  0  0  0  0  0  0  0  0  0  0  0
   62.5524   31.0866   51.2035 H   0  0  0  0  0  0  0  0  0  0  0  0
   61.9165   28.5819   49.9857 H   0  0  0  0  0  0  0  0  0  0  0  0
   60.9307   29.6158   51.1281 H   0  0  0  0  0  0  0  0  0  0  0  0
   59.8124   28.8984   48.9225 H   0  0  0  0  0  0  0  0  0  0  0  0
   59.7555   30.6428   49.3816 H   0  0  0  0  0  0  0  0  0  0  0  0
   59.6932   27.1885   47.5520 H   0  0  0  0  0  0  0  0  0  0  0  0
   57.4238   26.2424   47.1394 H   0  0  0  0  0  0  0  0  0  0  0  0
  1  2  1  0
  2  3  1  0
  3  4  2  0
  4  5  1  0
  5  6  2  0
  6  7  1  0
  6  8  1  0
  8  9  2  0
  9 10  1  0
 10 11  1  0
 11 12  2  0
 11 13  2  0
 11 14  1  0
 14 15  2  0
 15 16  1  0
 16 17  1  0
 17 18  2  0
 17 19  1  0
 19 20  1  0
 20 21  1  0
 21 22  1  0
 22 23  1  0
 23 24  1  0
 16 25  2  0
 25 26  1  0
 26 27  2  0
 27 28  1  0
  9  3  1  0
 27 14  1  0
 24 19  1  0
  1 29  1  0
  1 30  1  0
  1 31  1  0
  4 32  1  0
  5 33  1  0
  7 34  1  0
  7 35  1  0
  7 36  1  0
  8 37  1  0
 15 38  1  0
 20 39  1  0
 20 40  1  0
 21 41  1  0
 21 42  1  0
 22 43  1  0
 22 44  1  0
 23 45  1  0
 23 46  1  0
 24 47  1  0
 24 48  1  0
 25 49  1  0
 26 50  1  0
M  CHG  2  10  -1  28  -1
M  END
>  <UniqueID>  (45) 
43

>  <SMILES>  (45) 
COc1ccc(C)cc1[N-]S(=O)(=O)c1cc(C(=O)N2CCCCC2)ccc1[O-]

>  <Energy>  (45) 
63.61203733963278

>  <Genealogy>  (45) 
COc1ccc(C)cc1[N-]S(=O)(=O)c1cc(C(=O)N2CCCCC2)ccc1[O-] (protonated)
COc1ccc(C)cc1[N-]S(=O)(=O)c1cc(C(=O)N2CCCCC2)ccc1[O-] (3D coordinates assigned)
COc1ccc(C)cc1[N-]S(=O)(=O)c1cc(C(=O)N2CCCCC2)ccc1[O-] (nonaromatic ring conformer: 63.61203733963278 kcal/mol)

>  <smiles>  (45) 
COc1ccc(C)cc1NS(=O)(=O)c1cc(C(=O)N2CCCCC2)ccc1O

>  <score_type>  (45) 
oracle

>  <origin>  (45) 
adg

>  <m_score__min__energy>  (45) 
-12.83

>  <m_primary>  (45) 
energy

$$$$
45:0
     RDKit          3D

 42 44  0  0  0  0  0  0  0  0999 V2000
   58.0000   26.0970   47.3400 O   0  0  0  0  0  0  0  0  0  0  0  0
   57.9830   27.0710   46.5400 C   0  0  0  0  0  0  0  0  0  0  0  0
   56.7860   27.5220   46.0880 N   0  0  0  0  0  0  0  0  0  0  0  0
   56.6920   28.5610   45.2250 C   0  0  0  0  0  0  0  0  0  0  0  0
   55.4260   28.9310   44.7680 O   0  0  0  0  0  0  0  0  0  0  0  0
   57.8620   29.2140   44.7990 C   0  0  0  0  0  0  0  0  0  0  0  0
   57.8260   30.3810   43.8870 C   0  0  0  0  0  0  0  0  0  0  0  0
   57.2760   31.5680   44.1920 C   0  0  0  0  0  0  0  0  0  0  0  0
   57.9430   32.6390   44.9660 C   0  0  0  0  0  0  0  0  0  0  0  0
   58.8380   33.5430   44.3640 C   0  0  0  0  0  0  0  0  0  0  0  0
   59.4350   34.5550   45.1230 C   0  0  0  0  0  0  0  0  0  0  0  0
   59.1320   34.6840   46.4810 C   0  0  0  0  0  0  0  0  0  0  0  0
   59.7120   35.6660   47.2140 F   0  0  0  0  0  0  0  0  0  0  0  0
   58.2220   33.8090   47.0790 C   0  0  0  0  0  0  0  0  0  0  0  0
   57.6220   32.7950   46.3240 C   0  0  0  0  0  0  0  0  0  0  0  0
   59.0980   28.7180   45.2470 C   0  0  0  0  0  0  0  0  0  0  0  0
   60.1640   29.2670   44.8500 O   0  0  0  0  0  0  0  0  0  0  0  0
   59.1490   27.6580   46.1180 N   0  0  0  0  0  0  0  0  0  0  0  0
   60.4570   27.1340   46.5660 C   0  0  0  0  0  0  0  0  0  0  0  0
   60.7380   27.5090   48.0290 C   0  0  0  0  0  0  0  0  0  0  0  0
   60.3310   28.9270   48.3290 C   0  0  0  0  0  0  0  0  0  0  0  0
   61.0120   30.0030   47.7340 C   0  0  0  0  0  0  0  0  0  0  0  0
   60.6620   31.3190   48.0490 C   0  0  0  0  0  0  0  0  0  0  0  0
   59.6340   31.5710   48.9620 C   0  0  0  0  0  0  0  0  0  0  0  0
   58.9570   30.5070   49.5640 C   0  0  0  0  0  0  0  0  0  0  0  0
   59.3050   29.1880   49.2520 C   0  0  0  0  0  0  0  0  0  0  0  0
   54.6140   28.9790   45.3700 H   0  0  0  0  0  0  0  0  0  0  0  0
   58.2808   30.2677   42.8919 H   0  0  0  0  0  0  0  0  0  0  0  0
   56.2516   31.7587   43.8396 H   0  0  0  0  0  0  0  0  0  0  0  0
   59.0690   33.4534   43.2923 H   0  0  0  0  0  0  0  0  0  0  0  0
   60.1441   35.2504   44.6501 H   0  0  0  0  0  0  0  0  0  0  0  0
   57.9765   33.9173   48.1458 H   0  0  0  0  0  0  0  0  0  0  0  0
   56.8958   32.1172   46.7964 H   0  0  0  0  0  0  0  0  0  0  0  0
   60.4553   26.0381   46.4711 H   0  0  0  0  0  0  0  0  0  0  0  0
   61.2425   27.5783   45.9370 H   0  0  0  0  0  0  0  0  0  0  0  0
   60.1742   26.8299   48.6855 H   0  0  0  0  0  0  0  0  0  0  0  0
   61.8202   27.4188   48.2040 H   0  0  0  0  0  0  0  0  0  0  0  0
   61.8237   29.8086   47.0175 H   0  0  0  0  0  0  0  0  0  0  0  0
   61.1961   32.1573   47.5779 H   0  0  0  0  0  0  0  0  0  0  0  0
   59.3578   32.6073   49.2067 H   0  0  0  0  0  0  0  0  0  0  0  0
   58.1496   30.7065   50.2839 H   0  0  0  0  0  0  0  0  0  0  0  0
   58.7732   28.3528   49.7312 H   0  0  0  0  0  0  0  0  0  0  0  0
  1  2  2  0
  2  3  1  0
  3  4  1  0
  4  5  1  0
  4  6  2  0
  6  7  1  0
  7  8  2  3
  8  9  1  0
  9 10  2  0
 10 11  1  0
 11 12  2  0
 12 13  1  0
 12 14  1  0
 14 15  2  0
  6 16  1  0
 16 17  2  0
 16 18  1  0
 18 19  1  0
 19 20  1  0
 20 21  1  0
 21 22  2  0
 22 23  1  0
 23 24  2  0
 24 25  1  0
 25 26  2  0
 18  2  1  0
 26 21  1  0
 15  9  1  0
  5 27  1  0
  7 28  1  0
  8 29  1  0
 10 30  1  0
 11 31  1  0
 14 32  1  0
 15 33  1  0
 19 34  1  0
 19 35  1  0
 20 36  1  0
 20 37  1  0
 22 38  1  0
 23 39  1  0
 24 40  1  0
 25 41  1  0
 26 42  1  0
M  CHG  1   3  -1
M  END
>  <UniqueID>  (46) 
44

>  <SMILES>  (46) 
O=c1[n-]c(O)c(C=Cc2ccc(F)cc2)c(=O)n1CCc1ccccc1

>  <Energy>  (46) 
58.082595172443796

>  <Genealogy>  (46) 
O=c1[n-]c(O)c(C=Cc2ccc(F)cc2)c(=O)n1CCc1ccccc1 (protonated)
O=c1[n-]c(O)c(C=Cc2ccc(F)cc2)c(=O)n1CCc1ccccc1 (3D coordinates assigned)
O=c1[n-]c(O)c(C=Cc2ccc(F)cc2)c(=O)n1CCc1ccccc1 (optimized conformer: 58.082595172443796 kcal/mol)

>  <smiles>  (46) 
O=c1[nH]c(O)c(C=Cc2ccc(F)cc2)c(=O)n1CCc1ccccc1

>  <score_type>  (46) 
oracle

>  <origin>  (46) 
adg

>  <m_score__min__energy>  (46) 
-10.68

>  <m_primary>  (46) 
energy

$$$$
46:0
     RDKit          3D

 65 67  0  0  0  0  0  0  0  0999 V2000
   50.9370   32.3990   49.4880 N   0  0  0  0  0  0  0  0  0  0  0  0
   51.4650   32.0920   50.7780 C   0  0  0  0  0  0  0  0  0  0  0  0
   51.0350   32.7060   51.7850 O   0  0  0  0  0  0  0  0  0  0  0  0
   52.5640   31.0770   50.9380 C   0  0  2  0  0  0  0  0  0  0  0  0
   51.9950   29.6470   51.0060 C   0  0  0  0  0  0  0  0  0  0  0  0
   51.6270   29.2250   52.4080 C   0  0  0  0  0  0  0  0  0  0  0  0
   50.6820   29.9560   53.1470 C   0  0  0  0  0  0  0  0  0  0  0  0
   50.3140   29.5430   54.4320 C   0  0  0  0  0  0  0  0  0  0  0  0
   50.8870   28.3940   54.9880 C   0  0  0  0  0  0  0  0  0  0  0  0
   51.8300   27.6660   54.2590 C   0  0  0  0  0  0  0  0  0  0  0  0
   52.1970   28.0750   52.9760 C   0  0  0  0  0  0  0  0  0  0  0  0
   53.3510   31.3590   52.1380 N   0  0  0  0  0  0  0  0  0  0  0  0
   54.6180   30.7750   52.4530 C   0  0  0  0  0  0  0  0  0  0  0  0
   54.6720   29.9330   53.3860 O   0  0  0  0  0  0  0  0  0  0  0  0
   55.8570   31.1110   51.6670 C   0  0  0  0  0  0  0  0  0  0  0  0
   56.8490   30.0500   51.7640 N   0  0  0  0  0  0  0  0  0  0  0  0
   58.1610   30.0220   51.1920 C   0  0  0  0  0  0  0  0  0  0  0  0
   59.1060   29.5530   51.8820 O   0  0  0  0  0  0  0  0  0  0  0  0
   58.4910   30.6350   49.8470 C   0  0  2  0  0  0  0  0  0  0  0  0
   59.9280   30.2980   49.4060 C   0  0  0  0  0  0  0  0  0  0  0  0
   59.9900   29.0250   48.5980 C   0  0  0  0  0  0  0  0  0  0  0  0
   60.6840   27.9050   49.0900 C   0  0  0  0  0  0  0  0  0  0  0  0
   60.7320   26.7200   48.3480 C   0  0  0  0  0  0  0  0  0  0  0  0
   60.0810   26.6420   47.1140 C   0  0  0  0  0  0  0  0  0  0  0  0
   60.1320   25.4670   46.3770 O   0  0  0  0  0  0  0  0  0  0  0  0
   59.3800   27.7490   46.6220 C   0  0  0  0  0  0  0  0  0  0  0  0
   59.3320   28.9370   47.3610 C   0  0  0  0  0  0  0  0  0  0  0  0
   58.3180   32.0860   49.8650 N   0  0  0  0  0  0  0  0  0  0  0  0
   59.2970   33.0570   50.2600 C   0  0  0  0  0  0  0  0  0  0  0  0
   59.3980   33.3380   51.4840 O   0  0  0  0  0  0  0  0  0  0  0  0
   60.2440   33.6950   49.2680 C   0  0  1  0  0  0  0  0  0  0  0  0
   61.8580   33.9340   49.9970 S   0  0  0  0  0  0  0  0  0  0  0  0
   60.3390   32.9020   47.9460 C   0  0  0  0  0  0  0  0  0  0  0  0
   59.3810   33.3730   46.8770 C   0  0  0  0  0  0  0  0  0  0  0  0
   58.0760   32.8580   46.8220 C   0  0  0  0  0  0  0  0  0  0  0  0
   57.1850   33.2950   45.8400 C   0  0  0  0  0  0  0  0  0  0  0  0
   57.5890   34.2480   44.9010 C   0  0  0  0  0  0  0  0  0  0  0  0
   58.8860   34.7650   44.9450 C   0  0  0  0  0  0  0  0  0  0  0  0
   59.7820   34.3290   45.9290 C   0  0  0  0  0  0  0  0  0  0  0  0
   49.9290   32.6400   49.3650 H   0  0  0  0  0  0  0  0  0  0  0  0
   53.2174   31.1477   50.0559 H   0  0  0  0  0  0  0  0  0  0  0  0
   51.0938   29.5980   50.3772 H   0  0  0  0  0  0  0  0  0  0  0  0
   52.7803   28.9630   50.6518 H   0  0  0  0  0  0  0  0  0  0  0  0
   50.2284   30.8590   52.7125 H   0  0  0  0  0  0  0  0  0  0  0  0
   49.5744   30.1214   55.0051 H   0  0  0  0  0  0  0  0  0  0  0  0
   50.5956   28.0650   55.9964 H   0  0  0  0  0  0  0  0  0  0  0  0
   52.2856   26.7662   54.6980 H   0  0  0  0  0  0  0  0  0  0  0  0
   52.9369   27.4930   52.4070 H   0  0  0  0  0  0  0  0  0  0  0  0
   55.5842   31.2509   50.6106 H   0  0  0  0  0  0  0  0  0  0  0  0
   56.2922   32.0321   52.0819 H   0  0  0  0  0  0  0  0  0  0  0  0
   57.7872   30.1993   49.1225 H   0  0  0  0  0  0  0  0  0  0  0  0
   60.3145   31.1260   48.7936 H   0  0  0  0  0  0  0  0  0  0  0  0
   60.5354   30.1542   50.3118 H   0  0  0  0  0  0  0  0  0  0  0  0
   61.1921   27.9611   50.0640 H   0  0  0  0  0  0  0  0  0  0  0  0
   61.2820   25.8499   48.7358 H   0  0  0  0  0  0  0  0  0  0  0  0
   58.8653   27.6854   45.6519 H   0  0  0  0  0  0  0  0  0  0  0  0
   58.7775   29.8035   46.9716 H   0  0  0  0  0  0  0  0  0  0  0  0
   59.8276   34.6806   49.0124 H   0  0  0  0  0  0  0  0  0  0  0  0
   61.3640   32.9973   47.5583 H   0  0  0  0  0  0  0  0  0  0  0  0
   60.0694   31.8613   48.1790 H   0  0  0  0  0  0  0  0  0  0  0  0
   57.7537   32.1057   47.5570 H   0  0  0  0  0  0  0  0  0  0  0  0
   56.1634   32.8886   45.8053 H   0  0  0  0  0  0  0  0  0  0  0  0
   56.8860   34.5909   44.1276 H   0  0  0  0  0  0  0  0  0  0  0  0
   59.2038   35.5153   44.2060 H   0  0  0  0  0  0  0  0  0  0  0  0
   60.8033   34.7365   45.9597 H   0  0  0  0  0  0  0  0  0  0  0  0
  1  2  1  0
  2  3  2  0
  2  4  1  0
  4  5  1  0
  5  6  1  0
  6  7  2  0
  7  8  1  0
  8  9  2  0
  9 10  1  0
 10 11  2  0
  4 12  1  0
 12 13  1  0
 13 14  2  0
 13 15  1  0
 15 16  1  0
 16 17  1  0
 17 18  2  0
 17 19  1  0
 19 20  1  0
 20 21  1  0
 21 22  2  0
 22 23  1  0
 23 24  2  0
 24 25  1  0
 24 26  1  0
 26 27  2  0
 19 28  1  0
 28 29  1  0
 29 30  2  0
 29 31  1  0
 31 32  1  0
 31 33  1  0
 33 34  1  0
 34 35  2  0
 35 36  1  0
 36 37  2  0
 37 38  1  0
 38 39  2  0
 11  6  1  0
 27 21  1  0
 39 34  1  0
  1 40  1  0
  4 41  1  6
  5 42  1  0
  5 43  1  0
  7 44  1  0
  8 45  1  0
  9 46  1  0
 10 47  1  0
 11 48  1  0
 15 49  1  0
 15 50  1  0
 19 51  1  6
 20 52  1  0
 20 53  1  0
 22 54  1  0
 23 55  1  0
 26 56  1  0
 27 57  1  0
 31 58  1  6
 33 59  1  0
 33 60  1  0
 35 61  1  0
 36 62  1  0
 37 63  1  0
 38 64  1  0
 39 65  1  0
M  CHG  6   1  -1  12  -1  16  -1  25  -1  28  -1  32  -1
M  END
>  <UniqueID>  (47) 
45

>  <SMILES>  (47) 
[NH-]C(=O)[C@H](Cc1ccccc1)[N-]C(=O)C[N-]C(=O)[C@H](Cc1ccc([O-])cc1)[N-]C(=O)C([S-])Cc1ccccc1

>  <Energy>  (47) 
59.49149987422631

>  <Genealogy>  (47) 
[NH-]C(=O)C(Cc1ccccc1)[N-]C(=O)C[N-]C(=O)C(Cc1ccc([O-])cc1)[N-]C(=O)C([S-])Cc1ccccc1 (protonated)
[NH-]C(=O)[C@H](Cc1ccccc1)[N-]C(=O)C[N-]C(=O)[C@H](Cc1ccc([O-])cc1)[N-]C(=O)C([S-])Cc1ccccc1 (chirality)
[NH-]C(=O)[C@H](Cc1ccccc1)[N-]C(=O)C[N-]C(=O)[C@H](Cc1ccc([O-])cc1)[N-]C(=O)C([S-])Cc1ccccc1 (3D coordinates assigned)
[NH-]C(=O)[C@H](Cc1ccccc1)[N-]C(=O)C[N-]C(=O)[C@H](Cc1ccc([O-])cc1)[N-]C(=O)C([S-])Cc1ccccc1 (optimized conformer: 59.49149987422631 kcal/mol)

>  <smiles>  (47) 
NC(=O)C(Cc1ccccc1)NC(=O)CNC(=O)C(Cc1ccc(O)cc1)NC(=O)C(S)Cc1ccccc1

>  <score_type>  (47) 
oracle

>  <origin>  (47) 
adg

>  <m_score__min__energy>  (47) 
-18.57

>  <m_primary>  (47) 
energy

$$$$
47:0
     RDKit          3D

 25 25  0  0  0  0  0  0  0  0999 V2000
   53.4340   22.5590   46.0010 H   0  0  0  0  0  0  0  0  0  0  0  0
   53.8830   23.1300   45.2520 N   0  0  0  0  0  0  0  0  0  0  0  0
   54.4910   24.2370   45.5300 C   0  0  0  0  0  0  0  0  0  0  0  0
   55.8130   24.3250   45.7670 N   0  0  0  0  0  0  0  0  0  0  0  0
   55.9480   25.6480   46.0080 C   0  0  0  0  0  0  0  0  0  0  0  0
   57.5130   26.4270   46.3950 S   0  0  0  0  0  0  0  0  0  0  0  0
   57.6860   27.2750   44.7810 C   0  0  0  0  0  0  0  0  0  0  0  0
   58.5407   26.8425   44.2403 H   0  0  0  0  0  0  0  0  0  0  0  0
   56.7523   27.1344   44.2167 H   0  0  0  0  0  0  0  0  0  0  0  0
   57.9180   28.7780   44.9560 C   0  0  0  0  0  0  0  0  0  0  0  0
   58.4046   28.9525   45.9269 H   0  0  0  0  0  0  0  0  0  0  0  0
   58.5531   29.1248   44.1275 H   0  0  0  0  0  0  0  0  0  0  0  0
   56.6350   29.5470   44.9120 C   0  0  0  0  0  0  0  0  0  0  0  0
   55.5360   28.9300   44.8570 O   0  0  0  0  0  0  0  0  0  0  0  0
   56.6720   30.9460   44.9120 O   0  0  0  0  0  0  0  0  0  0  0  0
   57.5980   31.7070   44.1390 C   0  0  0  0  0  0  0  0  0  0  0  0
   57.4500   32.7768   44.3479 H   0  0  0  0  0  0  0  0  0  0  0  0
   58.6199   31.4040   44.4107 H   0  0  0  0  0  0  0  0  0  0  0  0
   57.3900   31.4540   42.6510 C   0  0  0  0  0  0  0  0  0  0  0  0
   56.6967   30.6107   42.5158 H   0  0  0  0  0  0  0  0  0  0  0  0
   56.9678   32.3547   42.1814 H   0  0  0  0  0  0  0  0  0  0  0  0
   58.3553   31.2139   42.1814 H   0  0  0  0  0  0  0  0  0  0  0  0
   54.7850   26.3250   45.9130 N   0  0  0  0  0  0  0  0  0  0  0  0
   53.8700   25.4220   45.6140 N   0  0  0  0  0  0  0  0  0  0  0  0
   52.8550   25.6210   45.4730 H   0  0  0  0  0  0  0  0  0  0  0  0
  1  2  1  0
  2  3  2  0
  3  4  1  0
  4  5  2  0
  5  6  1  0
  6  7  1  0
  7  8  1  0
  7  9  1  0
  7 10  1  0
 10 11  1  0
 10 12  1  0
 10 13  1  0
 13 14  2  0
 13 15  1  0
 15 16  1  0
 16 17  1  0
 16 18  1  0
 16 19  1  0
 19 20  1  0
 19 21  1  0
 19 22  1  0
  5 23  1  0
 23 24  1  0
 24 25  1  0
 24  3  1  0
M  CHG  1  23  -1
M  END
>  <UniqueID>  (48) 
46

>  <SMILES>  (48) 
[H]/N=c1\nc(SCCC(=O)OCC)[n-][nH]1

>  <Energy>  (48) 
45.18599337324246

>  <Genealogy>  (48) 
CCOC(=O)CCSc1nc(=N)[nH][n-]1 (protonated)
[H]/N=c1\nc(SCCC(=O)OCC)[n-][nH]1 (cis-trans isomerization)
[H]/N=c1\nc(SCCC(=O)OCC)[n-][nH]1 (3D coordinates assigned)
[H]/N=c1\nc(SCCC(=O)OCC)[n-][nH]1 (optimized conformer: 45.18599337324246 kcal/mol)

>  <smiles>  (48) 
CCOC(=O)CCSc1nc(=N)[nH][nH]1

>  <score_type>  (48) 
oracle

>  <origin>  (48) 
adg

>  <m_score__min__energy>  (48) 
-7.1799999999999997

>  <m_primary>  (48) 
energy

$$$$
48:0
     RDKit          3D

 46 49  0  0  0  0  0  0  0  0999 V2000
   65.7860   32.6190   50.1240 C   0  0  0  0  0  0  0  0  0  0  0  0
   64.6030   33.2490   50.6020 O   0  0  0  0  0  0  0  0  0  0  0  0
   63.3460   33.1390   49.9890 C   0  0  0  0  0  0  0  0  0  0  0  0
   62.1930   33.7550   50.5120 C   0  0  0  0  0  0  0  0  0  0  0  0
   60.9630   33.6210   49.8620 C   0  0  0  0  0  0  0  0  0  0  0  0
   60.8670   32.8820   48.6680 C   0  0  0  0  0  0  0  0  0  0  0  0
   59.6090   32.7190   47.9870 N   0  0  0  0  0  0  0  0  0  0  0  0
   59.2890   33.3590   46.7400 C   0  0  0  0  0  0  0  0  0  0  0  0
   59.7160   34.6560   46.4360 C   0  0  0  0  0  0  0  0  0  0  0  0
   59.2590   35.0160   44.8530 S   0  0  0  0  0  0  0  0  0  0  0  0
   58.5450   33.5160   44.6240 C   0  0  0  0  0  0  0  0  0  0  0  0
   57.9350   33.1060   43.4900 N   0  0  0  0  0  0  0  0  0  0  0  0
   57.3840   31.8660   43.4330 C   0  0  0  0  0  0  0  0  0  0  0  0
   57.4330   31.0030   44.5480 C   0  0  0  0  0  0  0  0  0  0  0  0
   56.8150   29.6510   44.4610 C   0  0  0  0  0  0  0  0  0  0  0  0
   55.8070   29.3760   45.1690 O   0  0  0  0  0  0  0  0  0  0  0  0
   57.3430   28.6580   43.5770 N   0  0  0  0  0  0  0  0  0  0  0  0
   58.3180   27.6610   43.9930 C   0  0  0  0  0  0  0  0  0  0  0  0
   59.0120   28.1330   45.2380 C   0  0  0  0  0  0  0  0  0  0  0  0
   60.1190   28.9940   45.1480 C   0  0  0  0  0  0  0  0  0  0  0  0
   60.7880   29.4020   46.3070 C   0  0  0  0  0  0  0  0  0  0  0  0
   60.3650   28.9450   47.5590 C   0  0  0  0  0  0  0  0  0  0  0  0
   61.0160   29.3400   48.6810 F   0  0  0  0  0  0  0  0  0  0  0  0
   59.2750   28.0750   47.6520 C   0  0  0  0  0  0  0  0  0  0  0  0
   58.6040   27.6650   46.4970 C   0  0  0  0  0  0  0  0  0  0  0  0
   58.0740   31.4750   45.7210 C   0  0  0  0  0  0  0  0  0  0  0  0
   58.1100   30.7630   46.7610 O   0  0  0  0  0  0  0  0  0  0  0  0
   58.6340   32.7250   45.7170 N   0  0  0  0  0  0  0  0  0  0  0  0
   62.0140   32.2530   48.1620 C   0  0  0  0  0  0  0  0  0  0  0  0
   63.2420   32.3860   48.8140 C   0  0  0  0  0  0  0  0  0  0  0  0
   66.3983   32.2929   50.9777 H   0  0  0  0  0  0  0  0  0  0  0  0
   65.5149   31.7458   49.5124 H   0  0  0  0  0  0  0  0  0  0  0  0
   66.3593   33.3313   49.5124 H   0  0  0  0  0  0  0  0  0  0  0  0
   62.2607   34.3453   51.4377 H   0  0  0  0  0  0  0  0  0  0  0  0
   60.0655   34.0954   50.2857 H   0  0  0  0  0  0  0  0  0  0  0  0
   58.9370   32.0080   48.3530 H   0  0  0  0  0  0  0  0  0  0  0  0
   60.2592   35.3288   47.1160 H   0  0  0  0  0  0  0  0  0  0  0  0
   56.8940   31.5307   42.5070 H   0  0  0  0  0  0  0  0  0  0  0  0
   57.8058   26.7090   44.1966 H   0  0  0  0  0  0  0  0  0  0  0  0
   59.0580   27.5137   43.1926 H   0  0  0  0  0  0  0  0  0  0  0  0
   60.4603   29.3480   44.1640 H   0  0  0  0  0  0  0  0  0  0  0  0
   61.6483   30.0835   46.2332 H   0  0  0  0  0  0  0  0  0  0  0  0
   58.9447   27.7123   48.6366 H   0  0  0  0  0  0  0  0  0  0  0  0
   57.7527   26.9728   46.5746 H   0  0  0  0  0  0  0  0  0  0  0  0
   61.9459   31.6502   47.2444 H   0  0  0  0  0  0  0  0  0  0  0  0
   64.1350   31.8947   48.4004 H   0  0  0  0  0  0  0  0  0  0  0  0
  1  2  1  0
  2  3  1  0
  3  4  2  0
  4  5  1  0
  5  6  2  0
  6  7  1  0
  7  8  1  0
  8  9  2  0
  9 10  1  0
 10 11  1  0
 11 12  2  0
 12 13  1  0
 13 14  2  0
 14 15  1  0
 15 16  2  0
 15 17  1  0
 17 18  1  0
 18 19  1  0
 19 20  2  0
 20 21  1  0
 21 22  2  0
 22 23  1  0
 22 24  1  0
 24 25  2  0
 14 26  1  0
 26 27  2  0
 26 28  1  0
  6 29  1  0
 29 30  2  0
 30  3  1  0
 28  8  1  0
 28 11  1  0
 25 19  1  0
  1 31  1  0
  1 32  1  0
  1 33  1  0
  4 34  1  0
  5 35  1  0
  7 36  1  0
  9 37  1  0
 13 38  1  0
 18 39  1  0
 18 40  1  0
 20 41  1  0
 21 42  1  0
 24 43  1  0
 25 44  1  0
 29 45  1  0
 30 46  1  0
M  CHG  1  17  -1
M  END
>  <UniqueID>  (49) 
47

>  <SMILES>  (49) 
COc1ccc(Nc2csc3ncc(C(=O)[N-]Cc4ccc(F)cc4)c(=O)n23)cc1

>  <Energy>  (49) 
92.46920979698638

>  <Genealogy>  (49) 
COc1ccc(Nc2csc3ncc(C(=O)[N-]Cc4ccc(F)cc4)c(=O)n23)cc1 (protonated)
COc1ccc(Nc2csc3ncc(C(=O)[N-]Cc4ccc(F)cc4)c(=O)n23)cc1 (3D coordinates assigned)
COc1ccc(Nc2csc3ncc(C(=O)[N-]Cc4ccc(F)cc4)c(=O)n23)cc1 (optimized conformer: 92.46920979698638 kcal/mol)

>  <smiles>  (49) 
COc1ccc(Nc2csc3ncc(C(=O)NCc4ccc(F)cc4)c(=O)n23)cc1

>  <score_type>  (49) 
oracle

>  <origin>  (49) 
adg

>  <m_score__min__energy>  (49) 
-9.9299999999999997

>  <m_primary>  (49) 
energy

$$$$
49:0
     RDKit          3D

 46 49  0  0  1  0  0  0  0  0999 V2000
   57.0130   20.6770   47.1790 C   0  0  0  0  0  0  0  0  0  0  0  0
   57.3730   22.0350   47.1640 O   0  0  0  0  0  0  0  0  0  0  0  0
   57.2590   22.7500   45.9800 C   0  0  0  0  0  0  0  0  0  0  0  0
   56.7180   22.2420   44.8230 C   0  0  0  0  0  0  0  0  0  0  0  0
   56.6580   23.0390   43.7170 C   0  0  0  0  0  0  0  0  0  0  0  0
   57.1300   24.3470   43.7380 C   0  0  0  0  0  0  0  0  0  0  0  0
   57.6740   24.8750   44.8870 C   0  0  0  0  0  0  0  0  0  0  0  0
   58.1840   26.2770   44.9500 C   0  0  0  0  0  0  0  0  0  0  0  0
   59.2680   26.5390   45.7580 C   0  0  0  0  0  0  0  0  0  0  0  0
   59.5550   28.3650   45.5150 S   0  0  0  0  0  0  0  0  0  0  0  0
   61.2920   34.0340   47.4870 C   0  0  0  0  0  0  0  0  0  0  0  0
   60.0470   34.3600   47.2530 N   0  0  0  0  0  0  0  0  0  0  0  0
   57.0400   30.5160   44.5090 C   0  0  0  0  0  0  0  0  0  0  0  0
   55.7870   30.5310   44.5240 O   0  0  0  0  0  0  0  0  0  0  0  0
   57.8150   31.5340   45.2640 C   0  0  0  0  0  0  0  0  0  0  0  0
   58.3840   31.1850   46.4550 C   0  0  0  0  0  0  0  0  0  0  0  0
   59.1210   32.1580   47.1160 C   0  0  0  0  0  0  0  0  0  0  0  0
   59.2280   33.3840   46.5420 C   0  0  0  0  0  0  0  0  0  0  0  0
   57.8300   29.5720   43.8070 N   0  0  0  0  0  0  0  0  0  0  0  0
   58.1250   28.4720   44.3320 C   0  0  0  0  0  0  0  0  0  0  0  0
   62.1070   33.8060   46.3820 C   0  0  0  0  0  0  0  0  0  0  0  0
   63.4430   33.4660   46.5480 C   0  0  0  0  0  0  0  0  0  0  0  0
   63.9450   33.3590   47.8050 N   0  0  0  0  0  0  0  0  0  0  0  0
   63.1430   33.5830   48.8600 C   0  0  0  0  0  0  0  0  0  0  0  0
   61.8220   33.9200   48.7050 N   0  0  0  0  0  0  0  0  0  0  0  0
   58.6590   33.7520   45.3420 C   0  0  0  0  0  0  0  0  0  0  0  0
   57.9180   32.7730   44.6770 C   0  0  0  0  0  0  0  0  0  0  0  0
   57.6580   27.2450   44.2720 N   0  0  0  0  0  0  0  0  0  0  0  0
   57.7240   24.0490   45.9890 C   0  0  0  0  0  0  0  0  0  0  0  0
   56.9219   20.3333   48.2199 H   0  0  0  0  0  0  0  0  0  0  0  0
   56.0495   20.5474   46.6644 H   0  0  0  0  0  0  0  0  0  0  0  0
   57.7858   20.0871   46.6644 H   0  0  0  0  0  0  0  0  0  0  0  0
   56.3395   21.2097   44.7892 H   0  0  0  0  0  0  0  0  0  0  0  0
   56.2266   22.6379   42.7880 H   0  0  0  0  0  0  0  0  0  0  0  0
   57.0682   24.9643   42.8296 H   0  0  0  0  0  0  0  0  0  0  0  0
   59.8296   25.8390   46.3940 H   0  0  0  0  0  0  0  0  0  0  0  0
   58.2634   30.1748   46.8733 H   0  0  0  0  0  0  0  0  0  0  0  0
   59.6056   31.9416   48.0795 H   0  0  0  0  0  0  0  0  0  0  0  0
   61.6891   33.8959   45.3684 H   0  0  0  0  0  0  0  0  0  0  0  0
   64.0856   33.2859   45.6735 H   0  0  0  0  0  0  0  0  0  0  0  0
   64.9460   33.1010   47.8970 H   0  0  0  0  0  0  0  0  0  0  0  0
   63.5569   33.4937   49.8753 H   0  0  0  0  0  0  0  0  0  0  0  0
   58.7822   34.7643   44.9295 H   0  0  0  0  0  0  0  0  0  0  0  0
   57.4319   32.9864   43.7136 H   0  0  0  0  0  0  0  0  0  0  0  0
   56.7960   27.0740   43.6210 H   0  0  0  0  0  0  0  0  0  0  0  0
   58.1553   24.4443   46.9205 H   0  0  0  0  0  0  0  0  0  0  0  0
  1  2  1  0
  2  3  1  0
  3  4  2  0
  4  5  1  0
  5  6  2  0
  6  7  1  0
  7  8  1  0
  8  9  2  0
  9 10  1  0
 10 11  1  0
 11 12  2  0
 12 13  1  0
 13 14  2  0
 13 15  1  0
 15 16  2  0
 16 17  1  0
 17 18  2  0
 18 19  1  0
 19 20  2  0
 20 21  1  0
 21 22  2  0
 22 23  1  0
 23 24  1  0
 24 25  2  0
 18 26  1  0
 26 27  2  0
 11 28  1  0
  7 29  2  0
 29  3  1  0
 28  8  1  0
 27 15  1  0
 25 20  1  0
  1 30  1  0
  1 31  1  0
  1 32  1  0
  4 33  1  0
  5 34  1  0
  6 35  1  0
  9 36  1  0
 16 37  1  0
 17 38  1  0
 21 39  1  0
 22 40  1  0
 23 41  1  0
 24 42  1  0
 26 43  1  0
 27 44  1  0
 28 45  1  0
 29 46  1  0
M  END
>  <smiles>  (50) 
COc1cccc(-c2csc(=NC(=O)c3ccc(N=c4cc[nH]cn4)cc3)[nH]2)c1

>  <score_type>  (50) 
oracle

>  <origin>  (50) 
adg

>  <m_score__min__energy>  (50) 
-9.4800000000000004

>  <m_primary>  (50) 
energy

$$$$
50:0
     RDKit          3D

 33 34  0  0  0  0  0  0  0  0999 V2000
   58.9760   32.3100   48.8020 C   0  0  0  0  0  0  0  0  0  0  0  0
   58.8860   31.2890   47.7000 C   0  0  0  0  0  0  0  0  0  0  0  0
   59.5690   30.0690   47.8350 C   0  0  0  0  0  0  0  0  0  0  0  0
   59.4990   29.0870   46.8360 C   0  0  0  0  0  0  0  0  0  0  0  0
   60.2480   27.7930   47.0100 C   0  0  0  0  0  0  0  0  0  0  0  0
   58.7280   29.3320   45.6820 C   0  0  0  0  0  0  0  0  0  0  0  0
   58.5780   28.1070   44.3710 S   0  0  0  0  0  0  0  0  0  0  0  0
   57.4430   27.0900   45.3150 C   0  0  0  0  0  0  0  0  0  0  0  0
   57.7990   25.5770   45.9570 S   0  0  0  0  0  0  0  0  0  0  0  0
   56.2590   25.4140   46.6160 C   0  0  0  0  0  0  0  0  0  0  0  0
   55.8730   24.4140   47.2750 O   0  0  0  0  0  0  0  0  0  0  0  0
   55.4670   26.4770   46.3620 N   0  0  0  0  0  0  0  0  0  0  0  0
   56.1290   27.4120   45.6330 C   0  0  0  0  0  0  0  0  0  0  0  0
   55.5220   28.5970   45.2380 O   0  0  0  0  0  0  0  0  0  0  0  0
   58.0700   30.5560   45.5320 C   0  0  0  0  0  0  0  0  0  0  0  0
   58.1260   31.5380   46.5340 C   0  0  0  0  0  0  0  0  0  0  0  0
   57.4310   32.7850   46.3630 N   0  0  0  0  0  0  0  0  0  0  0  0
   57.7360   33.8530   45.0290 S   0  0  0  0  0  0  0  0  0  0  0  0
   59.2660   34.7270   45.2840 C   0  0  0  0  0  0  0  0  0  0  0  0
   56.6000   34.8250   44.8790 O   0  0  0  0  0  0  0  0  0  0  0  0
   57.8550   33.0410   43.7710 O   0  0  0  0  0  0  0  0  0  0  0  0
   58.9312   31.8023   49.7768 H   0  0  0  0  0  0  0  0  0  0  0  0
   59.9259   32.8581   48.7173 H   0  0  0  0  0  0  0  0  0  0  0  0
   58.1366   33.0159   48.7173 H   0  0  0  0  0  0  0  0  0  0  0  0
   60.1680   29.8809   48.7382 H   0  0  0  0  0  0  0  0  0  0  0  0
   60.3704   27.5815   48.0825 H   0  0  0  0  0  0  0  0  0  0  0  0
   59.6832   26.9760   46.5373 H   0  0  0  0  0  0  0  0  0  0  0  0
   61.2378   27.8758   46.5373 H   0  0  0  0  0  0  0  0  0  0  0  0
   57.4984   30.7534   44.6131 H   0  0  0  0  0  0  0  0  0  0  0  0
   56.6100   33.0120   46.9670 H   0  0  0  0  0  0  0  0  0  0  0  0
   59.4521   34.8333   46.3629 H   0  0  0  0  0  0  0  0  0  0  0  0
   60.0911   34.1640   44.8233 H   0  0  0  0  0  0  0  0  0  0  0  0
   59.2001   35.7237   44.8233 H   0  0  0  0  0  0  0  0  0  0  0  0
  1  2  1  0
  2  3  2  0
  3  4  1  0
  4  5  1  0
  4  6  2  0
  6  7  1  0
  7  8  1  0
  8  9  1  0
  9 10  1  0
 10 11  2  0
 10 12  1  0
 12 13  1  0
 13 14  1  0
  6 15  1  0
 15 16  2  0
 16 17  1  0
 17 18  1  0
 18 19  1  0
 18 20  2  0
 18 21  2  0
 16  2  1  0
 13  8  2  0
  1 22  1  0
  1 23  1  0
  1 24  1  0
  3 25  1  0
  5 26  1  0
  5 27  1  0
  5 28  1  0
 15 29  1  0
 17 30  1  0
 19 31  1  0
 19 32  1  0
 19 33  1  0
M  CHG  2  12  -1  14  -1
M  END
>  <UniqueID>  (51) 
48

>  <SMILES>  (51) 
Cc1cc(C)c(Sc2sc(=O)[n-]c2[O-])cc1NS(C)(=O)=O

>  <Energy>  (51) 
59.733598630077374

>  <Genealogy>  (51) 
Cc1cc(C)c(Sc2sc(=O)[n-]c2[O-])cc1NS(C)(=O)=O (protonated)
Cc1cc(C)c(Sc2sc(=O)[n-]c2[O-])cc1NS(C)(=O)=O (3D coordinates assigned)
Cc1cc(C)c(Sc2sc(=O)[n-]c2[O-])cc1NS(C)(=O)=O (optimized conformer: 59.733598630077374 kcal/mol)

>  <smiles>  (51) 
Cc1cc(C)c(Sc2sc(=O)[nH]c2O)cc1NS(C)(=O)=O

>  <score_type>  (51) 
oracle

>  <origin>  (51) 
adg

>  <m_score__min__energy>  (51) 
-14.1

>  <m_primary>  (51) 
energy

$$$$
51:0
     RDKit          3D

 45 47  0  0  0  0  0  0  0  0999 V2000
   58.6310   34.1280   46.1220 C   0  0  0  0  0  0  0  0  0  0  0  0
   58.8470   32.6920   46.5980 C   0  0  0  0  0  0  0  0  0  0  0  0
   57.9390   31.7530   45.8630 C   0  0  0  0  0  0  0  0  0  0  0  0
   57.0210   32.1540   44.9620 N   0  0  0  0  0  0  0  0  0  0  0  0
   56.4300   31.0630   44.4940 N   0  0  0  0  0  0  0  0  0  0  0  0
   56.9990   30.0180   45.1190 C   0  0  0  0  0  0  0  0  0  0  0  0
   57.9670   30.4120   45.9550 N   0  0  0  0  0  0  0  0  0  0  0  0
   58.6660   29.5510   46.9020 C   0  0  0  0  0  0  0  0  0  0  0  0
   58.6240   28.0940   46.4210 C   0  0  0  0  0  0  0  0  0  0  0  0
   57.2740   27.7530   45.9470 N   0  0  0  0  0  0  0  0  0  0  0  0
   56.6330   26.5400   46.3740 C   0  0  0  0  0  0  0  0  0  0  0  0
   55.4210   26.3550   46.1010 O   0  0  0  0  0  0  0  0  0  0  0  0
   57.4040   25.4220   47.0210 C   0  0  0  0  0  0  0  0  0  0  0  0
   58.3180   24.7120   46.0040 C   0  0  0  0  0  0  0  0  0  0  0  0
   57.5470   23.7080   45.1790 C   0  0  0  0  0  0  0  0  0  0  0  0
   57.2940   23.9890   43.8220 C   0  0  0  0  0  0  0  0  0  0  0  0
   56.6550   23.0520   43.0140 C   0  0  0  0  0  0  0  0  0  0  0  0
   56.2680   21.8200   43.5510 C   0  0  0  0  0  0  0  0  0  0  0  0
   56.5090   21.5280   44.8960 C   0  0  0  0  0  0  0  0  0  0  0  0
   57.1490   22.4680   45.7250 C   0  0  0  0  0  0  0  0  0  0  0  0
   57.3950   22.2050   47.0790 O   0  0  0  0  0  0  0  0  0  0  0  0
   56.3920   22.1390   48.0920 C   0  0  0  0  0  0  0  0  0  0  0  0
   56.6310   28.5850   44.9170 C   0  0  0  0  0  0  0  0  0  0  0  0
   58.5311   34.7920   46.9933 H   0  0  0  0  0  0  0  0  0  0  0  0
   59.4914   34.4464   45.5150 H   0  0  0  0  0  0  0  0  0  0  0  0
   57.7150   34.1792   45.5150 H   0  0  0  0  0  0  0  0  0  0  0  0
   59.8923   32.4030   46.4140 H   0  0  0  0  0  0  0  0  0  0  0  0
   58.6217   32.6360   47.6732 H   0  0  0  0  0  0  0  0  0  0  0  0
   59.7134   29.8766   46.9851 H   0  0  0  0  0  0  0  0  0  0  0  0
   58.1734   29.6205   47.8831 H   0  0  0  0  0  0  0  0  0  0  0  0
   59.3418   27.9625   45.5980 H   0  0  0  0  0  0  0  0  0  0  0  0
   58.8874   27.4321   47.2592 H   0  0  0  0  0  0  0  0  0  0  0  0
   58.0224   25.8351   47.8315 H   0  0  0  0  0  0  0  0  0  0  0  0
   56.6863   24.6876   47.4154 H   0  0  0  0  0  0  0  0  0  0  0  0
   58.7590   25.4638   45.3329 H   0  0  0  0  0  0  0  0  0  0  0  0
   59.1028   24.1761   46.5580 H   0  0  0  0  0  0  0  0  0  0  0  0
   57.6034   24.9555   43.3976 H   0  0  0  0  0  0  0  0  0  0  0  0
   56.4552   23.2801   41.9566 H   0  0  0  0  0  0  0  0  0  0  0  0
   55.7709   21.0764   42.9107 H   0  0  0  0  0  0  0  0  0  0  0  0
   56.1966   20.5576   45.3093 H   0  0  0  0  0  0  0  0  0  0  0  0
   56.8689   22.1704   49.0828 H   0  0  0  0  0  0  0  0  0  0  0  0
   55.7080   22.9941   47.9870 H   0  0  0  0  0  0  0  0  0  0  0  0
   55.8260   21.2017   47.9870 H   0  0  0  0  0  0  0  0  0  0  0  0
   56.9677   28.2587   43.9219 H   0  0  0  0  0  0  0  0  0  0  0  0
   55.5390   28.4771   44.9938 H   0  0  0  0  0  0  0  0  0  0  0  0
  1  2  1  0
  2  3  1  0
  3  4  2  0
  4  5  1  0
  5  6  2  0
  6  7  1  0
  7  8  1  0
  8  9  1  0
  9 10  1  0
 10 11  1  0
 11 12  2  0
 11 13  1  0
 13 14  1  0
 14 15  1  0
 15 16  2  0
 16 17  1  0
 17 18  2  0
 18 19  1  0
 19 20  2  0
 20 21  1  0
 21 22  1  0
 10 23  1  0
  7  3  1  0
 20 15  1  0
 23  6  1  0
  1 24  1  0
  1 25  1  0
  1 26  1  0
  2 27  1  0
  2 28  1  0
  8 29  1  0
  8 30  1  0
  9 31  1  0
  9 32  1  0
 13 33  1  0
 13 34  1  0
 14 35  1  0
 14 36  1  0
 16 37  1  0
 17 38  1  0
 18 39  1  0
 19 40  1  0
 22 41  1  0
 22 42  1  0
 22 43  1  0
 23 44  1  0
 23 45  1  0
M  END
>  <UniqueID>  (52) 
49

>  <SMILES>  (52) 
CCc1nnc2n1CCN(C(=O)CCc1ccccc1OC)C2

>  <Energy>  (52) 
78.70447069739338

>  <Genealogy>  (52) 
CCc1nnc2n1CCN(C(=O)CCc1ccccc1OC)C2 (3D coordinates assigned)
CCc1nnc2n1CCN(C(=O)CCc1ccccc1OC)C2 (nonaromatic ring conformer: 78.70447069739338 kcal/mol)

>  <smiles>  (52) 
CCc1nnc2n1CCN(C(=O)CCc1ccccc1OC)C2

>  <score_type>  (52) 
oracle

>  <origin>  (52) 
adg

>  <m_score__min__energy>  (52) 
-7.6100000000000003

>  <m_primary>  (52) 
energy

$$$$
52:0
     RDKit          3D

 39 41  0  0  0  0  0  0  0  0999 V2000
   59.2060   29.5870   50.2210 C   0  0  0  0  0  0  0  0  0  0  0  0
   58.3340   30.5100   51.0090 C   0  0  0  0  0  0  0  0  0  0  0  0
   57.1200   30.1140   51.4790 N   0  0  0  0  0  0  0  0  0  0  0  0
   56.5030   31.1040   52.1630 C   0  0  0  0  0  0  0  0  0  0  0  0
   55.3360   30.9920   52.7240 N   0  0  0  0  0  0  0  0  0  0  0  0
   54.1940   30.3120   52.1760 C   0  0  0  0  0  0  0  0  0  0  0  0
   54.2710   29.1020   51.8240 O   0  0  0  0  0  0  0  0  0  0  0  0
   52.9140   31.0260   52.0180 C   0  0  0  0  0  0  0  0  0  0  0  0
   52.0370   31.2030   53.0990 C   0  0  0  0  0  0  0  0  0  0  0  0
   50.8360   31.8800   52.8830 C   0  0  0  0  0  0  0  0  0  0  0  0
   50.0260   32.0550   53.8310 O   0  0  0  0  0  0  0  0  0  0  0  0
   50.5380   32.3530   51.6440 N   0  0  0  0  0  0  0  0  0  0  0  0
   51.3960   32.1760   50.6060 C   0  0  0  0  0  0  0  0  0  0  0  0
   51.1020   32.6210   49.4670 O   0  0  0  0  0  0  0  0  0  0  0  0
   52.5690   31.5190   50.7970 N   0  0  0  0  0  0  0  0  0  0  0  0
   57.4250   32.5070   52.2180 S   0  0  0  0  0  0  0  0  0  0  0  0
   58.6860   31.8220   51.3350 C   0  0  0  0  0  0  0  0  0  0  0  0
   59.9270   32.5440   50.9200 C   0  0  0  0  0  0  0  0  0  0  0  0
   59.5640   33.7410   50.1680 N   0  0  0  0  0  0  0  0  0  0  0  0
   59.4370   33.7640   48.8760 C   0  0  0  0  0  0  0  0  0  0  0  0
   59.6540   34.8790   48.1440 N   0  0  0  0  0  0  0  0  0  0  0  0
   59.4080   34.4230   46.9010 C   0  0  0  0  0  0  0  0  0  0  0  0
   59.5000   35.1390   45.8690 O   0  0  0  0  0  0  0  0  0  0  0  0
   59.0590   33.1240   46.8900 N   0  0  0  0  0  0  0  0  0  0  0  0
   58.7750   32.2860   45.7290 C   0  0  0  0  0  0  0  0  0  0  0  0
   57.3980   32.5710   45.2180 C   0  0  0  0  0  0  0  0  0  0  0  0
   56.9150   33.9120   45.1500 N   0  0  0  0  0  0  0  0  0  0  0  0
   56.6780   31.6260   44.7970 O   0  0  0  0  0  0  0  0  0  0  0  0
   59.0840   32.6900   48.1360 N   0  0  0  0  0  0  0  0  0  0  0  0
   59.7955   28.9630   50.9089 H   0  0  0  0  0  0  0  0  0  0  0  0
   58.5793   28.9425   49.5871 H   0  0  0  0  0  0  0  0  0  0  0  0
   59.8850   30.1761   49.5871 H   0  0  0  0  0  0  0  0  0  0  0  0
   52.2911   30.8158   54.0968 H   0  0  0  0  0  0  0  0  0  0  0  0
   60.5001   32.8320   51.8137 H   0  0  0  0  0  0  0  0  0  0  0  0
   60.5407   31.8855   50.2878 H   0  0  0  0  0  0  0  0  0  0  0  0
   59.5087   32.4989   44.9376 H   0  0  0  0  0  0  0  0  0  0  0  0
   58.8399   31.2278   46.0224 H   0  0  0  0  0  0  0  0  0  0  0  0
   55.9540   34.1070   44.7890 H   0  0  0  0  0  0  0  0  0  0  0  0
   57.5200   34.7140   45.4340 H   0  0  0  0  0  0  0  0  0  0  0  0
  1  2  1  0
  2  3  1  0
  3  4  1  0
  4  5  2  3
  5  6  1  0
  6  7  2  0
  6  8  1  0
  8  9  2  0
  9 10  1  0
 10 11  2  0
 10 12  1  0
 12 13  1  0
 13 14  2  0
 13 15  1  0
  4 16  1  0
 16 17  1  0
 17 18  1  0
 18 19  1  0
 19 20  2  3
 20 21  1  0
 21 22  1  0
 22 23  2  0
 22 24  1  0
 24 25  1  0
 25 26  1  0
 26 27  1  0
 26 28  2  0
 24 29  1  0
 17  2  2  0
 29 20  1  0
 15  8  1  0
  1 30  1  0
  1 31  1  0
  1 32  1  0
  9 33  1  0
 18 34  1  0
 18 35  1  0
 25 36  1  0
 25 37  1  0
 27 38  1  0
 27 39  1  0
M  CHG  5   3  -1  12  -1  15  -1  21  -1  29  -1
M  END
>  <UniqueID>  (53) 
50

>  <SMILES>  (53) 
Cc1[n-]c(=NC(=O)c2cc(=O)[n-]c(=O)[n-]2)sc1CN=c1[n-]c(=O)n(CC(N)=O)[n-]1

>  <Energy>  (53) 
102.31786476043023

>  <Genealogy>  (53) 
Cc1[n-]c(=NC(=O)c2cc(=O)[n-]c(=O)[n-]2)sc1CN=c1[n-]c(=O)n(CC(N)=O)[n-]1 (protonated)
Cc1[n-]c(=NC(=O)c2cc(=O)[n-]c(=O)[n-]2)sc1CN=c1[n-]c(=O)n(CC(N)=O)[n-]1 (3D coordinates assigned)
Cc1[n-]c(=NC(=O)c2cc(=O)[n-]c(=O)[n-]2)sc1CN=c1[n-]c(=O)n(CC(N)=O)[n-]1 (optimized conformer: 102.31786476043023 kcal/mol)

>  <smiles>  (53) 
Cc1[nH]c(=NC(=O)c2cc(=O)[nH]c(=O)[nH]2)sc1CN=c1[nH]c(=O)n(CC(N)=O)[nH]1

>  <score_type>  (53) 
oracle

>  <origin>  (53) 
adg

>  <m_score__min__energy>  (53) 
-15.9

>  <m_primary>  (53) 
energy

$$$$
53:0
     RDKit          3D

 26 27  0  0  0  0  0  0  0  0999 V2000
   60.3186   27.7268   46.1617 H   0  0  0  0  0  0  0  0  0  0  0  0
   59.2410   27.5100   46.1190 C   0  0  0  0  0  0  0  0  0  0  0  0
   58.3710   28.4680   45.7030 N   0  0  0  0  0  0  0  0  0  0  0  0
   57.0280   28.2430   45.6270 C   0  0  0  0  0  0  0  0  0  0  0  0
   56.2120   29.1770   45.2310 N   0  0  0  0  0  0  0  0  0  0  0  0
   56.3850   30.0240   44.0840 C   0  0  0  0  0  0  0  0  0  0  0  0
   56.3020   29.3530   42.5960 S   0  0  0  0  0  0  0  0  0  0  0  0
   56.6820   31.4250   44.2050 N   0  0  0  0  0  0  0  0  0  0  0  0
   56.2990   32.0670   43.4750 H   0  0  0  0  0  0  0  0  0  0  0  0
   57.5330   31.9840   45.2210 C   0  0  0  0  0  0  0  0  0  0  0  0
   58.7130   31.3360   45.6330 C   0  0  0  0  0  0  0  0  0  0  0  0
   59.0034   30.3813   45.1703 H   0  0  0  0  0  0  0  0  0  0  0  0
   59.5170   31.9000   46.6270 C   0  0  0  0  0  0  0  0  0  0  0  0
   60.4318   31.3829   46.9521 H   0  0  0  0  0  0  0  0  0  0  0  0
   59.1610   33.1200   47.2090 C   0  0  0  0  0  0  0  0  0  0  0  0
   60.2610   33.8870   48.5690 Br  0  0  0  0  0  0  0  0  0  0  0  0
   58.0010   33.7800   46.7930 C   0  0  0  0  0  0  0  0  0  0  0  0
   57.7225   34.7419   47.2481 H   0  0  0  0  0  0  0  0  0  0  0  0
   57.1950   33.2180   45.7990 C   0  0  0  0  0  0  0  0  0  0  0  0
   56.2891   33.7464   45.4671 H   0  0  0  0  0  0  0  0  0  0  0  0
   56.5180   26.9920   46.0060 C   0  0  0  0  0  0  0  0  0  0  0  0
   55.1510   26.7360   45.9530 O   0  0  0  0  0  0  0  0  0  0  0  0
   57.3970   25.9950   46.4370 C   0  0  0  0  0  0  0  0  0  0  0  0
   57.0089   25.0091   46.7327 H   0  0  0  0  0  0  0  0  0  0  0  0
   58.7670   26.2510   46.4920 C   0  0  0  0  0  0  0  0  0  0  0  0
   59.4660   25.4698   46.8255 H   0  0  0  0  0  0  0  0  0  0  0  0
  1  2  1  0
  2  3  1  0
  3  4  1  0
  4  5  2  0
  5  6  1  0
  6  7  2  0
  6  8  1  0
  8  9  1  0
  8 10  1  0
 10 11  2  0
 11 12  1  0
 11 13  1  0
 13 14  1  0
 13 15  2  0
 15 16  1  0
 15 17  1  0
 17 18  1  0
 17 19  2  0
 19 20  1  0
  4 21  1  0
 21 22  1  0
 21 23  2  0
 23 24  1  0
 23 25  1  0
 25 26  1  0
 25  2  2  0
 19 10  1  0
M  CHG  2   3  -1  22  -1
M  END
>  <UniqueID>  (54) 
51

>  <SMILES>  (54) 
[O-]c1ccc[n-]/c1=N\C(=S)Nc1ccc(Br)cc1

>  <Energy>  (54) 
35.33572432527373

>  <Genealogy>  (54) 
[O-]c1ccc[n-]c1=NC(=S)Nc1ccc(Br)cc1 (protonated)
[O-]c1ccc[n-]/c1=N\C(=S)Nc1ccc(Br)cc1 (cis-trans isomerization)
[O-]c1ccc[n-]/c1=N\C(=S)Nc1ccc(Br)cc1 (3D coordinates assigned)
[O-]c1ccc[n-]/c1=N\C(=S)Nc1ccc(Br)cc1 (optimized conformer: 35.33572432527373 kcal/mol)

>  <smiles>  (54) 
Oc1ccc[nH]c1=NC(=S)Nc1ccc(Br)cc1

>  <score_type>  (54) 
oracle

>  <origin>  (54) 
adg

>  <m_score__min__energy>  (54) 
-12.44

>  <m_primary>  (54) 
energy

$$$$
54:0
     RDKit          3D

 57 60  0  0  0  0  0  0  0  0999 V2000
   58.8140   32.4380   49.7430 C   0  0  0  0  0  0  0  0  0  0  0  0
   59.1800   33.5100   48.8810 O   0  0  0  0  0  0  0  0  0  0  0  0
   58.9940   33.5060   47.4920 C   0  0  0  0  0  0  0  0  0  0  0  0
   59.2370   34.6520   46.6890 C   0  0  0  0  0  0  0  0  0  0  0  0
   59.0370   34.6050   45.2980 C   0  0  0  0  0  0  0  0  0  0  0  0
   58.6140   33.4030   44.7360 C   0  0  0  0  0  0  0  0  0  0  0  0
   58.4170   33.1430   43.4330 N   0  0  0  0  0  0  0  0  0  0  0  0
   58.0720   31.8400   43.3630 C   0  0  0  0  0  0  0  0  0  0  0  0
   58.0320   31.2730   44.6350 C   0  0  0  0  0  0  0  0  0  0  0  0
   57.8150   29.8130   44.9370 C   0  0  0  0  0  0  0  0  0  0  0  0
   56.3540   29.4440   44.9750 C   0  0  0  0  0  0  0  0  0  0  0  0
   55.5190   30.2240   44.4470 O   0  0  0  0  0  0  0  0  0  0  0  0
   55.8960   28.1610   45.4340 N   0  0  0  0  0  0  0  0  0  0  0  0
   56.6350   27.1190   45.6750 C   0  0  0  0  0  0  0  0  0  0  0  0
   57.9550   27.1710   45.9400 N   0  0  0  0  0  0  0  0  0  0  0  0
   58.4730   25.9570   46.2600 C   0  0  0  0  0  0  0  0  0  0  0  0
   59.9170   25.8500   46.5460 C   0  0  0  0  0  0  0  0  0  0  0  0
   60.6250   24.9540   46.0160 O   0  0  0  0  0  0  0  0  0  0  0  0
   60.5180   26.8260   47.4010 N   0  0  0  0  0  0  0  0  0  0  0  0
   59.7710   27.8440   48.1150 C   0  0  0  0  0  0  0  0  0  0  0  0
   60.5260   29.1450   48.0890 C   0  0  0  0  0  0  0  0  0  0  0  0
   61.0480   29.6880   49.2710 C   0  0  0  0  0  0  0  0  0  0  0  0
   61.7960   30.8680   49.2360 C   0  0  0  0  0  0  0  0  0  0  0  0
   62.0440   31.5250   48.0170 C   0  0  0  0  0  0  0  0  0  0  0  0
   62.8610   32.7670   47.9720 C   0  0  0  0  0  0  0  0  0  0  0  0
   62.2640   34.0320   48.2810 N   0  0  0  0  0  0  0  0  0  0  0  0
   64.1180   32.7200   47.6390 N   0  0  0  0  0  0  0  0  0  0  0  0
   61.5160   30.9800   46.8320 C   0  0  0  0  0  0  0  0  0  0  0  0
   60.7690   29.7970   46.8670 C   0  0  0  0  0  0  0  0  0  0  0  0
   57.5290   24.9100   46.2580 C   0  0  0  0  0  0  0  0  0  0  0  0
   57.7100   23.4950   46.6270 C   0  0  0  0  0  0  0  0  0  0  0  0
   58.6720   22.7070   45.9310 N   0  0  0  0  0  0  0  0  0  0  0  0
   57.0050   22.9630   47.5220 O   0  0  0  0  0  0  0  0  0  0  0  0
   56.0320   25.5630   45.8260 S   0  0  0  0  0  0  0  0  0  0  0  0
   58.3870   32.2900   45.5020 C   0  0  0  0  0  0  0  0  0  0  0  0
   58.5530   32.3150   46.8870 C   0  0  0  0  0  0  0  0  0  0  0  0
   58.9226   32.7562   50.7903 H   0  0  0  0  0  0  0  0  0  0  0  0
   57.7683   32.1549   49.5524 H   0  0  0  0  0  0  0  0  0  0  0  0
   59.4682   31.5745   49.5524 H   0  0  0  0  0  0  0  0  0  0  0  0
   59.5845   35.5838   47.1591 H   0  0  0  0  0  0  0  0  0  0  0  0
   59.2097   35.4925   44.6715 H   0  0  0  0  0  0  0  0  0  0  0  0
   58.5390   33.8000   42.6320 H   0  0  0  0  0  0  0  0  0  0  0  0
   57.8526   31.3001   42.4301 H   0  0  0  0  0  0  0  0  0  0  0  0
   58.3103   29.2140   44.1586 H   0  0  0  0  0  0  0  0  0  0  0  0
   58.2376   29.6104   45.9322 H   0  0  0  0  0  0  0  0  0  0  0  0
   58.7908   27.9813   47.6350 H   0  0  0  0  0  0  0  0  0  0  0  0
   59.6322   27.5263   49.1589 H   0  0  0  0  0  0  0  0  0  0  0  0
   60.8680   29.1827   50.2313 H   0  0  0  0  0  0  0  0  0  0  0  0
   62.1950   31.2874   50.1714 H   0  0  0  0  0  0  0  0  0  0  0  0
   62.8360   34.9030   48.2600 H   0  0  0  0  0  0  0  0  0  0  0  0
   61.2670   34.1020   48.5840 H   0  0  0  0  0  0  0  0  0  0  0  0
   64.4070   32.3830   46.6950 H   0  0  0  0  0  0  0  0  0  0  0  0
   64.8760   32.9820   48.3070 H   0  0  0  0  0  0  0  0  0  0  0  0
   61.6915   31.4871   45.8718 H   0  0  0  0  0  0  0  0  0  0  0  0
   60.3696   29.3747   45.9331 H   0  0  0  0  0  0  0  0  0  0  0  0
   59.6740   22.9990   45.8860 H   0  0  0  0  0  0  0  0  0  0  0  0
   58.3433   31.4216   47.4936 H   0  0  0  0  0  0  0  0  0  0  0  0
  1  2  1  0
  2  3  1  0
  3  4  2  0
  4  5  1  0
  5  6  2  0
  6  7  1  0
  7  8  1  0
  8  9  2  0
  9 10  1  0
 10 11  1  0
 11 12  2  0
 11 13  1  0
 13 14  2  3
 14 15  1  0
 15 16  1  0
 16 17  1  0
 17 18  2  0
 17 19  1  0
 19 20  1  0
 20 21  1  0
 21 22  2  0
 22 23  1  0
 23 24  2  0
 24 25  1  0
 25 26  1  0
 25 27  2  0
 24 28  1  0
 28 29  2  0
 16 30  2  0
 30 31  1  0
 31 32  1  0
 31 33  2  0
 30 34  1  0
  9 35  1  0
 35 36  2  0
 36  3  1  0
 35  6  1  0
 34 14  1  0
 29 21  1  0
  1 37  1  0
  1 38  1  0
  1 39  1  0
  4 40  1  0
  5 41  1  0
  7 42  1  0
  8 43  1  0
 10 44  1  0
 10 45  1  0
 20 46  1  0
 20 47  1  0
 22 48  1  0
 23 49  1  0
 26 50  1  0
 26 51  1  0
 27 52  1  0
 27 53  1  0
 28 54  1  0
 29 55  1  0
 32 56  1  0
 36 57  1  0
M  CHG  4  15  -1  19  -1  27   1  32  -1
M  END
>  <UniqueID>  (55) 
52

>  <SMILES>  (55) 
COc1ccc2[nH]cc(CC(=O)N=c3[n-]c(C(=O)[N-]Cc4ccc(C(N)=[NH2+])cc4)c(C([NH-])=O)s3)c2c1

>  <Energy>  (55) 
123.71192423634771

>  <Genealogy>  (55) 
COc1ccc2[nH]cc(CC(=O)N=c3[n-]c(C(=O)[N-]Cc4ccc(C(N)=[NH2+])cc4)c(C([NH-])=O)s3)c2c1 (protonated)
COc1ccc2[nH]cc(CC(=O)N=c3[n-]c(C(=O)[N-]Cc4ccc(C(N)=[NH2+])cc4)c(C([NH-])=O)s3)c2c1 (3D coordinates assigned)
COc1ccc2[nH]cc(CC(=O)N=c3[n-]c(C(=O)[N-]Cc4ccc(C(N)=[NH2+])cc4)c(C([NH-])=O)s3)c2c1 (optimized conformer: 123.71192423634771 kcal/mol)

>  <smiles>  (55) 
COc1ccc2[nH]cc(CC(=O)N=c3[nH]c(C(=O)NCc4ccc(C(=N)N)cc4)c(C(N)=O)s3)c2c1

>  <score_type>  (55) 
oracle

>  <origin>  (55) 
adg

>  <m_score__min__energy>  (55) 
-13.029999999999999

>  <m_primary>  (55) 
energy

$$$$
55:0
     RDKit          3D

 59 62  0  0  0  0  0  0  0  0999 V2000
   59.9710   34.6030   48.7010 C   0  0  0  0  0  0  0  0  0  0  0  0
   59.6230   34.6900   47.3230 O   0  0  0  0  0  0  0  0  0  0  0  0
   58.9700   33.6770   46.6020 C   0  0  0  0  0  0  0  0  0  0  0  0
   57.7790   33.9130   45.8900 C   0  0  0  0  0  0  0  0  0  0  0  0
   57.1510   32.8750   45.1980 C   0  0  0  0  0  0  0  0  0  0  0  0
   57.6990   31.5880   45.2070 C   0  0  0  0  0  0  0  0  0  0  0  0
   56.8270   30.2570   44.4390 S   0  0  0  0  0  0  0  0  0  0  0  0
   57.6810   29.6060   43.3840 O   0  0  0  0  0  0  0  0  0  0  0  0
   55.5880   30.8120   43.7960 O   0  0  0  0  0  0  0  0  0  0  0  0
   56.3740   29.0620   45.6140 N   0  0  0  0  0  0  0  0  0  0  0  0
   56.9500   27.7510   45.6970 C   0  0  0  0  0  0  0  0  0  0  0  0
   56.1550   26.5940   45.7650 C   0  0  0  0  0  0  0  0  0  0  0  0
   54.7870   26.6950   46.0030 O   0  0  0  0  0  0  0  0  0  0  0  0
   56.7490   25.3320   45.6070 C   0  0  0  0  0  0  0  0  0  0  0  0
   55.9760   24.1660   45.4880 C   0  0  0  0  0  0  0  0  0  0  0  0
   56.5960   22.9350   45.2400 C   0  0  0  0  0  0  0  0  0  0  0  0
   55.7640   21.7610   44.9340 C   0  0  0  0  0  0  0  0  0  0  0  0
   55.9140   21.1910   43.8200 O   0  0  0  0  0  0  0  0  0  0  0  0
   54.8460   21.2210   45.9130 N   0  0  0  0  0  0  0  0  0  0  0  0
   54.5590   19.7830   45.9460 C   0  0  0  0  0  0  0  0  0  0  0  0
   54.0560   22.1250   46.7590 C   0  0  0  0  0  0  0  0  0  0  0  0
   52.8340   22.5910   46.0110 C   0  0  0  0  0  0  0  0  0  0  0  0
   51.5960   21.9550   46.2050 C   0  0  0  0  0  0  0  0  0  0  0  0
   50.4540   22.4120   45.5400 C   0  0  0  0  0  0  0  0  0  0  0  0
   50.5390   23.5090   44.6770 C   0  0  0  0  0  0  0  0  0  0  0  0
   51.7630   24.1610   44.4920 C   0  0  0  0  0  0  0  0  0  0  0  0
   52.9060   23.7090   45.1580 C   0  0  0  0  0  0  0  0  0  0  0  0
   57.9940   22.8510   45.1930 C   0  0  0  0  0  0  0  0  0  0  0  0
   58.7710   24.0030   45.3360 C   0  0  0  0  0  0  0  0  0  0  0  0
   58.1560   25.2480   45.5110 C   0  0  0  0  0  0  0  0  0  0  0  0
   58.9080   26.3780   45.5570 N   0  0  0  0  0  0  0  0  0  0  0  0
   58.3460   27.6120   45.6440 C   0  0  0  0  0  0  0  0  0  0  0  0
   59.0860   28.6310   45.6440 O   0  0  0  0  0  0  0  0  0  0  0  0
   58.8990   31.3530   45.8920 C   0  0  0  0  0  0  0  0  0  0  0  0
   59.5350   32.3910   46.5990 C   0  0  0  0  0  0  0  0  0  0  0  0
   60.7230   32.1840   47.3170 O   0  0  0  0  0  0  0  0  0  0  0  0
   61.5240   31.0100   47.2260 C   0  0  0  0  0  0  0  0  0  0  0  0
   59.0869   34.8240   49.3171 H   0  0  0  0  0  0  0  0  0  0  0  0
   60.3296   33.5876   48.9252 H   0  0  0  0  0  0  0  0  0  0  0  0
   60.7653   35.3302   48.9252 H   0  0  0  0  0  0  0  0  0  0  0  0
   57.3400   34.9215   45.8785 H   0  0  0  0  0  0  0  0  0  0  0  0
   56.2213   33.0704   44.6434 H   0  0  0  0  0  0  0  0  0  0  0  0
   54.8820   24.2194   45.5897 H   0  0  0  0  0  0  0  0  0  0  0  0
   54.4918   19.4464   46.9911 H   0  0  0  0  0  0  0  0  0  0  0  0
   53.6042   19.5879   45.4358 H   0  0  0  0  0  0  0  0  0  0  0  0
   55.3657   19.2363   45.4358 H   0  0  0  0  0  0  0  0  0  0  0  0
   53.7450   21.5929   47.6701 H   0  0  0  0  0  0  0  0  0  0  0  0
   54.6698   22.9971   47.0286 H   0  0  0  0  0  0  0  0  0  0  0  0
   51.5249   21.0925   46.8840 H   0  0  0  0  0  0  0  0  0  0  0  0
   49.4885   21.9084   45.6958 H   0  0  0  0  0  0  0  0  0  0  0  0
   49.6432   23.8595   44.1434 H   0  0  0  0  0  0  0  0  0  0  0  0
   51.8261   25.0307   43.8214 H   0  0  0  0  0  0  0  0  0  0  0  0
   53.8650   24.2285   45.0152 H   0  0  0  0  0  0  0  0  0  0  0  0
   58.4805   21.8759   45.0432 H   0  0  0  0  0  0  0  0  0  0  0  0
   59.8684   23.9315   45.3110 H   0  0  0  0  0  0  0  0  0  0  0  0
   59.3477   30.3488   45.8770 H   0  0  0  0  0  0  0  0  0  0  0  0
   61.7676   30.6530   48.2375 H   0  0  0  0  0  0  0  0  0  0  0  0
   60.9696   30.2289   46.6851 H   0  0  0  0  0  0  0  0  0  0  0  0
   62.4535   31.2413   46.6851 H   0  0  0  0  0  0  0  0  0  0  0  0
  1  2  1  0
  2  3  1  0
  3  4  2  0
  4  5  1  0
  5  6  2  0
  6  7  1  0
  7  8  2  0
  7  9  2  0
  7 10  1  0
 10 11  1  0
 11 12  2  0
 12 13  1  0
 12 14  1  0
 14 15  2  0
 15 16  1  0
 16 17  1  0
 17 18  2  0
 17 19  1  0
 19 20  1  0
 19 21  1  0
 21 22  1  0
 22 23  2  0
 23 24  1  0
 24 25  2  0
 25 26  1  0
 26 27  2  0
 16 28  2  0
 28 29  1  0
 29 30  2  0
 30 31  1  0
 31 32  1  0
 32 33  2  0
  6 34  1  0
 34 35  2  0
 35 36  1  0
 36 37  1  0
 35  3  1  0
 32 11  1  0
 30 14  1  0
 27 22  1  0
  1 38  1  0
  1 39  1  0
  1 40  1  0
  4 41  1  0
  5 42  1  0
 15 43  1  0
 20 44  1  0
 20 45  1  0
 20 46  1  0
 21 47  1  0
 21 48  1  0
 23 49  1  0
 24 50  1  0
 25 51  1  0
 26 52  1  0
 27 53  1  0
 28 54  1  0
 29 55  1  0
 34 56  1  0
 37 57  1  0
 37 58  1  0
 37 59  1  0
M  CHG  3  10  -1  13  -1  31  -1
M  END
>  <UniqueID>  (56) 
53

>  <SMILES>  (56) 
COc1ccc(S(=O)(=O)[N-]c2c([O-])c3cc(C(=O)N(C)Cc4ccccc4)ccc3[n-]c2=O)cc1OC

>  <Energy>  (56) 
75.26971404996904

>  <Genealogy>  (56) 
COc1ccc(S(=O)(=O)[N-]c2c([O-])c3cc(C(=O)N(C)Cc4ccccc4)ccc3[n-]c2=O)cc1OC (protonated)
COc1ccc(S(=O)(=O)[N-]c2c([O-])c3cc(C(=O)N(C)Cc4ccccc4)ccc3[n-]c2=O)cc1OC (3D coordinates assigned)
COc1ccc(S(=O)(=O)[N-]c2c([O-])c3cc(C(=O)N(C)Cc4ccccc4)ccc3[n-]c2=O)cc1OC (optimized conformer: 75.26971404996904 kcal/mol)

>  <smiles>  (56) 
COc1ccc(S(=O)(=O)Nc2c(O)c3cc(C(=O)N(C)Cc4ccccc4)ccc3[nH]c2=O)cc1OC

>  <score_type>  (56) 
oracle

>  <origin>  (56) 
adg

>  <m_score__min__energy>  (56) 
-15.23

>  <m_primary>  (56) 
energy

$$$$
56:0
     RDKit          3D

 78 82  0  0  0  0  0  0  0  0999 V2000
   55.1110   30.8130   52.6440 C   0  0  0  0  0  0  0  0  0  0  0  0
   56.5370   31.0170   52.2210 C   0  0  0  0  0  0  0  0  0  0  0  0
   57.0160   32.3060   51.9360 C   0  0  0  0  0  0  0  0  0  0  0  0
   58.3580   32.4970   51.5910 C   0  0  0  0  0  0  0  0  0  0  0  0
   59.2370   31.4070   51.5380 C   0  0  0  0  0  0  0  0  0  0  0  0
   60.9380   31.6570   51.1630 S   0  0  0  0  0  0  0  0  0  0  0  0
   61.7150   31.8550   52.4350 O   0  0  0  0  0  0  0  0  0  0  0  0
   61.0890   32.8880   50.3140 O   0  0  0  0  0  0  0  0  0  0  0  0
   61.5600   30.3090   50.3230 O   0  0  0  0  0  0  0  0  0  0  0  0
   60.9330   29.8340   49.1740 C   0  0  0  0  0  0  0  0  0  0  0  0
   59.9540   28.8390   49.2770 C   0  0  0  0  0  0  0  0  0  0  0  0
   59.3540   28.3210   48.1260 C   0  0  0  0  0  0  0  0  0  0  0  0
   59.7170   28.8090   46.8590 C   0  0  0  0  0  0  0  0  0  0  0  0
   59.1460   28.1890   45.6110 C   0  0  0  0  0  0  0  0  0  0  0  0
   57.6790   27.9030   45.7960 C   0  0  0  0  0  0  0  0  0  0  0  0
   57.3410   26.7490   46.3080 N   0  0  0  0  0  0  0  0  0  0  0  0
   56.3840   25.8020   45.8050 C   0  0  0  0  0  0  0  0  0  0  0  0
   55.1620   26.0180   46.0080 O   0  0  0  0  0  0  0  0  0  0  0  0
   56.7970   24.5470   45.1300 C   0  0  0  0  0  0  0  0  0  0  0  0
   56.0460   24.0480   44.0500 C   0  0  0  0  0  0  0  0  0  0  0  0
   56.4670   22.9030   43.3680 C   0  0  0  0  0  0  0  0  0  0  0  0
   57.6280   22.2360   43.7650 C   0  0  0  0  0  0  0  0  0  0  0  0
   58.3730   22.7140   44.8460 C   0  0  0  0  0  0  0  0  0  0  0  0
   57.9540   23.8570   45.5340 C   0  0  0  0  0  0  0  0  0  0  0  0
   56.6850   28.9530   45.4590 C   0  0  0  0  0  0  0  0  0  0  0  0
   55.5200   28.6190   45.1170 O   0  0  0  0  0  0  0  0  0  0  0  0
   57.0780   30.3300   45.4320 N   0  0  0  0  0  0  0  0  0  0  0  0
   57.4190   31.1340   44.2920 C   0  0  0  0  0  0  0  0  0  0  0  0
   57.0130   30.7020   43.0130 C   0  0  0  0  0  0  0  0  0  0  0  0
   57.3040   31.4450   41.8770 C   0  0  0  0  0  0  0  0  0  0  0  0
   58.0010   32.6360   41.9890 C   0  0  0  0  0  0  0  0  0  0  0  0
   58.3850   33.1100   43.2410 C   0  0  0  0  0  0  0  0  0  0  0  0
   58.0840   32.4020   44.4390 C   0  0  0  0  0  0  0  0  0  0  0  0
   58.4420   32.9950   45.7440 N   0  0  0  0  0  0  0  0  0  0  0  0
   58.5740   32.0850   46.9090 C   0  0  0  0  0  0  0  0  0  0  0  0
   58.9650   32.7560   48.2320 C   0  0  0  0  0  0  0  0  0  0  0  0
   59.8920   33.8800   48.0500 N   0  0  0  0  0  0  0  0  0  0  0  0
   61.1990   33.4690   47.4980 C   0  0  0  0  0  0  0  0  0  0  0  0
   59.2370   34.9160   47.2450 C   0  0  0  0  0  0  0  0  0  0  0  0
   58.8180   34.4250   45.8460 C   0  0  0  0  0  0  0  0  0  0  0  0
   60.6790   29.8300   46.7630 C   0  0  0  0  0  0  0  0  0  0  0  0
   61.2800   30.3420   47.9160 C   0  0  0  0  0  0  0  0  0  0  0  0
   58.7630   30.1220   51.8390 C   0  0  0  0  0  0  0  0  0  0  0  0
   57.4210   29.9280   52.1760 C   0  0  0  0  0  0  0  0  0  0  0  0
   55.0520   30.8046   53.7424 H   0  0  0  0  0  0  0  0  0  0  0  0
   54.4909   31.6316   52.2498 H   0  0  0  0  0  0  0  0  0  0  0  0
   54.7453   29.8534   52.2498 H   0  0  0  0  0  0  0  0  0  0  0  0
   56.3340   33.1677   51.9842 H   0  0  0  0  0  0  0  0  0  0  0  0
   58.7252   33.5079   51.3601 H   0  0  0  0  0  0  0  0  0  0  0  0
   59.6559   28.4636   50.2670 H   0  0  0  0  0  0  0  0  0  0  0  0
   58.5954   27.5290   48.2120 H   0  0  0  0  0  0  0  0  0  0  0  0
   59.2773   28.8831   44.7678 H   0  0  0  0  0  0  0  0  0  0  0  0
   59.6724   27.2451   45.4062 H   0  0  0  0  0  0  0  0  0  0  0  0
   55.1235   24.5613   43.7410 H   0  0  0  0  0  0  0  0  0  0  0  0
   55.8822   22.5261   42.5160 H   0  0  0  0  0  0  0  0  0  0  0  0
   57.9558   21.3345   43.2267 H   0  0  0  0  0  0  0  0  0  0  0  0
   59.2897   22.1909   45.1560 H   0  0  0  0  0  0  0  0  0  0  0  0
   58.5329   24.2187   46.3966 H   0  0  0  0  0  0  0  0  0  0  0  0
   56.4555   29.7590   42.9133 H   0  0  0  0  0  0  0  0  0  0  0  0
   56.9809   31.0876   40.8881 H   0  0  0  0  0  0  0  0  0  0  0  0
   58.2526   33.2104   41.0852 H   0  0  0  0  0  0  0  0  0  0  0  0
   58.9370   34.0592   43.3062 H   0  0  0  0  0  0  0  0  0  0  0  0
   57.6069   31.5822   47.0572 H   0  0  0  0  0  0  0  0  0  0  0  0
   59.3983   31.3992   46.6638 H   0  0  0  0  0  0  0  0  0  0  0  0
   58.0523   33.1291   48.7196 H   0  0  0  0  0  0  0  0  0  0  0  0
   59.4777   32.0012   48.8463 H   0  0  0  0  0  0  0  0  0  0  0  0
   60.0730   34.2910   48.9980 H   0  0  0  0  0  0  0  0  0  0  0  0
   61.8931   33.2507   48.3229 H   0  0  0  0  0  0  0  0  0  0  0  0
   61.0692   32.5683   46.8800 H   0  0  0  0  0  0  0  0  0  0  0  0
   61.6080   34.2819   46.8800 H   0  0  0  0  0  0  0  0  0  0  0  0
   58.3380   35.2572   47.7792 H   0  0  0  0  0  0  0  0  0  0  0  0
   59.9660   35.7271   47.1014 H   0  0  0  0  0  0  0  0  0  0  0  0
   57.9533   35.0239   45.5243 H   0  0  0  0  0  0  0  0  0  0  0  0
   59.7089   34.5429   45.2116 H   0  0  0  0  0  0  0  0  0  0  0  0
   60.9596   30.2273   45.7764 H   0  0  0  0  0  0  0  0  0  0  0  0
   62.0270   31.1455   47.8353 H   0  0  0  0  0  0  0  0  0  0  0  0
   59.4503   29.2636   51.8097 H   0  0  0  0  0  0  0  0  0  0  0  0
   57.0555   28.9166   52.4072 H   0  0  0  0  0  0  0  0  0  0  0  0
  1  2  1  0
  2  3  2  0
  3  4  1  0
  4  5  2  0
  5  6  1  0
  6  7  2  0
  6  8  2  0
  6  9  1  0
  9 10  1  0
 10 11  2  0
 11 12  1  0
 12 13  2  0
 13 14  1  0
 14 15  1  0
 15 16  2  3
 16 17  1  0
 17 18  2  0
 17 19  1  0
 19 20  2  0
 20 21  1  0
 21 22  2  0
 22 23  1  0
 23 24  2  0
 15 25  1  0
 25 26  2  0
 25 27  1  0
 27 28  1  0
 28 29  2  0
 29 30  1  0
 30 31  2  0
 31 32  1  0
 32 33  2  0
 33 34  1  0
 34 35  1  0
 35 36  1  0
 36 37  1  0
 37 38  1  0
 37 39  1  0
 39 40  1  0
 13 41  1  0
 41 42  2  0
  5 43  1  0
 43 44  2  0
 44  2  1  0
 42 10  1  0
 24 19  1  0
 33 28  1  0
 40 34  1  0
  1 45  1  0
  1 46  1  0
  1 47  1  0
  3 48  1  0
  4 49  1  0
 11 50  1  0
 12 51  1  0
 14 52  1  0
 14 53  1  0
 20 54  1  0
 21 55  1  0
 22 56  1  0
 23 57  1  0
 24 58  1  0
 29 59  1  0
 30 60  1  0
 31 61  1  0
 32 62  1  0
 35 63  1  0
 35 64  1  0
 36 65  1  0
 36 66  1  0
 37 67  1  0
 38 68  1  0
 38 69  1  0
 38 70  1  0
 39 71  1  0
 39 72  1  0
 40 73  1  0
 40 74  1  0
 41 75  1  0
 42 76  1  0
 43 77  1  0
 44 78  1  0
M  CHG  2  27  -1  37   1
M  END
>  <UniqueID>  (57) 
54

>  <SMILES>  (57) 
Cc1ccc(S(=O)(=O)Oc2ccc(CC(=NC(=O)c3ccccc3)C(=O)[N-]c3ccccc3N3CC[NH+](C)CC3)cc2)cc1

>  <Energy>  (57) 
112.41283250649262

>  <Genealogy>  (57) 
Cc1ccc(S(=O)(=O)Oc2ccc(CC(=NC(=O)c3ccccc3)C(=O)[N-]c3ccccc3N3CC[NH+](C)CC3)cc2)cc1 (protonated)
Cc1ccc(S(=O)(=O)Oc2ccc(CC(=NC(=O)c3ccccc3)C(=O)[N-]c3ccccc3N3CC[NH+](C)CC3)cc2)cc1 (3D coordinates assigned)
Cc1ccc(S(=O)(=O)Oc2ccc(CC(=NC(=O)c3ccccc3)C(=O)[N-]c3ccccc3N3CC[NH+](C)CC3)cc2)cc1 (nonaromatic ring conformer: 112.41283250649262 kcal/mol)

>  <smiles>  (57) 
Cc1ccc(S(=O)(=O)Oc2ccc(CC(=NC(=O)c3ccccc3)C(=O)Nc3ccccc3N3CCN(C)CC3)cc2)cc1

>  <score_type>  (57) 
oracle

>  <origin>  (57) 
adg

>  <m_score__min__energy>  (57) 
-11.27

>  <m_primary>  (57) 
energy

$$$$
57:0
     RDKit          3D

 43 45  0  0  0  0  0  0  0  0999 V2000
   57.1010   31.2610   42.2260 C   0  0  0  0  0  0  0  0  0  0  0  0
   57.5240   31.7700   43.5770 C   0  0  0  0  0  0  0  0  0  0  0  0
   58.0640   33.0630   43.6760 C   0  0  0  0  0  0  0  0  0  0  0  0
   58.4570   33.5820   44.9110 C   0  0  0  0  0  0  0  0  0  0  0  0
   58.9860   34.8650   44.9780 O   0  0  0  0  0  0  0  0  0  0  0  0
   58.3160   32.8180   46.0750 C   0  0  0  0  0  0  0  0  0  0  0  0
   58.7090   33.3900   47.3310 N   0  0  0  0  0  0  0  0  0  0  0  0
   60.0000   32.8070   48.3320 S   0  0  0  0  0  0  0  0  0  0  0  0
   61.3030   33.3640   47.8340 O   0  0  0  0  0  0  0  0  0  0  0  0
   59.7760   33.2650   49.7450 O   0  0  0  0  0  0  0  0  0  0  0  0
   60.0120   31.0500   48.2980 C   0  0  0  0  0  0  0  0  0  0  0  0
   59.6210   30.3040   49.4180 C   0  0  0  0  0  0  0  0  0  0  0  0
   59.6710   28.9100   49.3600 C   0  0  0  0  0  0  0  0  0  0  0  0
   60.1040   28.2760   48.1940 C   0  0  0  0  0  0  0  0  0  0  0  0
   60.4830   29.0540   47.0970 C   0  0  0  0  0  0  0  0  0  0  0  0
   60.4310   30.4100   47.1720 N   0  0  0  0  0  0  0  0  0  0  0  0
   57.7960   31.5150   45.9820 C   0  0  0  0  0  0  0  0  0  0  0  0
   57.4010   30.9800   44.7460 C   0  0  0  0  0  0  0  0  0  0  0  0
   56.7600   29.3260   44.7000 S   0  0  0  0  0  0  0  0  0  0  0  0
   55.2710   29.3640   44.8930 O   0  0  0  0  0  0  0  0  0  0  0  0
   57.0330   28.7070   43.3580 O   0  0  0  0  0  0  0  0  0  0  0  0
   57.5510   28.3590   45.9100 N   0  0  0  0  0  0  0  0  0  0  0  0
   57.6540   26.9290   45.9440 C   0  0  0  0  0  0  0  0  0  0  0  0
   58.8920   26.2630   45.8870 C   0  0  0  0  0  0  0  0  0  0  0  0
   58.9450   24.8670   45.9020 C   0  0  0  0  0  0  0  0  0  0  0  0
   57.7660   24.1210   45.9590 C   0  0  0  0  0  0  0  0  0  0  0  0
   56.5300   24.7710   45.9910 C   0  0  0  0  0  0  0  0  0  0  0  0
   56.4700   26.1720   45.9770 C   0  0  0  0  0  0  0  0  0  0  0  0
   55.2350   26.8200   46.0050 O   0  0  0  0  0  0  0  0  0  0  0  0
   56.4026   30.4207   42.3530 H   0  0  0  0  0  0  0  0  0  0  0  0
   56.6048   32.0691   41.6686 H   0  0  0  0  0  0  0  0  0  0  0  0
   57.9863   30.9210   41.6686 H   0  0  0  0  0  0  0  0  0  0  0  0
   58.1787   33.6744   42.7688 H   0  0  0  0  0  0  0  0  0  0  0  0
   59.2786   30.8109   50.3323 H   0  0  0  0  0  0  0  0  0  0  0  0
   59.3695   28.3116   50.2324 H   0  0  0  0  0  0  0  0  0  0  0  0
   60.1463   27.1782   48.1396 H   0  0  0  0  0  0  0  0  0  0  0  0
   60.8241   28.5681   46.1710 H   0  0  0  0  0  0  0  0  0  0  0  0
   57.6972   30.9053   46.8922 H   0  0  0  0  0  0  0  0  0  0  0  0
   59.8238   26.8449   45.8303 H   0  0  0  0  0  0  0  0  0  0  0  0
   59.9177   24.3544   45.8688 H   0  0  0  0  0  0  0  0  0  0  0  0
   57.8105   23.0221   45.9787 H   0  0  0  0  0  0  0  0  0  0  0  0
   55.6014   24.1824   46.0273 H   0  0  0  0  0  0  0  0  0  0  0  0
   55.1610   27.8240   45.8880 H   0  0  0  0  0  0  0  0  0  0  0  0
  1  2  1  0
  2  3  2  0
  3  4  1  0
  4  5  1  0
  4  6  2  0
  6  7  1  0
  7  8  1  0
  8  9  2  0
  8 10  2  0
  8 11  1  0
 11 12  2  0
 12 13  1  0
 13 14  2  0
 14 15  1  0
 15 16  2  0
  6 17  1  0
 17 18  2  0
 18 19  1  0
 19 20  2  0
 19 21  2  0
 19 22  1  0
 22 23  1  0
 23 24  2  0
 24 25  1  0
 25 26  2  0
 26 27  1  0
 27 28  2  0
 28 29  1  0
 18  2  1  0
 28 23  1  0
 16 11  1  0
  1 30  1  0
  1 31  1  0
  1 32  1  0
  3 33  1  0
 12 34  1  0
 13 35  1  0
 14 36  1  0
 15 37  1  0
 17 38  1  0
 24 39  1  0
 25 40  1  0
 26 41  1  0
 27 42  1  0
 29 43  1  0
M  CHG  3   5  -1   7  -1  22  -1
M  END
>  <UniqueID>  (58) 
55

>  <SMILES>  (58) 
Cc1cc([O-])c([N-]S(=O)(=O)c2ccccn2)cc1S(=O)(=O)[N-]c1ccccc1O

>  <Energy>  (58) 
58.67293399796977

>  <Genealogy>  (58) 
Cc1cc([O-])c([N-]S(=O)(=O)c2ccccn2)cc1S(=O)(=O)[N-]c1ccccc1O (protonated)
Cc1cc([O-])c([N-]S(=O)(=O)c2ccccn2)cc1S(=O)(=O)[N-]c1ccccc1O (3D coordinates assigned)
Cc1cc([O-])c([N-]S(=O)(=O)c2ccccn2)cc1S(=O)(=O)[N-]c1ccccc1O (optimized conformer: 58.67293399796977 kcal/mol)

>  <smiles>  (58) 
Cc1cc(O)c(NS(=O)(=O)c2ccccn2)cc1S(=O)(=O)Nc1ccccc1O

>  <score_type>  (58) 
oracle

>  <origin>  (58) 
adg

>  <m_score__min__energy>  (58) 
-13.619999999999999

>  <m_primary>  (58) 
energy

$$$$
58:0
     RDKit          3D

 77 81  0  0  0  0  0  0  0  0999 V2000
   62.2790   31.0680   50.9850 N   0  0  0  0  0  0  0  0  0  0  0  0
   63.1650   31.8890   50.1990 C   0  0  0  0  0  0  0  0  0  0  0  0
   62.6630   32.5130   49.0400 C   0  0  0  0  0  0  0  0  0  0  0  0
   61.2760   32.3960   48.6740 N   0  0  0  0  0  0  0  0  0  0  0  0
   60.4330   33.6030   48.7500 C   0  0  0  0  0  0  0  0  0  0  0  0
   59.5930   33.7400   47.5060 C   0  0  0  0  0  0  0  0  0  0  0  0
   60.0860   34.4510   46.3970 C   0  0  0  0  0  0  0  0  0  0  0  0
   59.2780   34.6600   45.2760 C   0  0  0  0  0  0  0  0  0  0  0  0
   57.9710   34.1690   45.2530 C   0  0  0  0  0  0  0  0  0  0  0  0
   57.4720   33.4600   46.3500 C   0  0  0  0  0  0  0  0  0  0  0  0
   58.2800   33.2420   47.4720 C   0  0  0  0  0  0  0  0  0  0  0  0
   60.8080   31.1390   48.1350 C   0  0  0  0  0  0  0  0  0  0  0  0
   60.1640   30.3510   48.8810 O   0  0  0  0  0  0  0  0  0  0  0  0
   61.0920   30.7110   46.7210 C   0  0  0  0  0  0  0  0  0  0  0  0
   60.6800   29.3180   46.5280 N   0  0  0  0  0  0  0  0  0  0  0  0
   59.1520   29.2570   45.7000 S   0  0  0  0  0  0  0  0  0  0  0  0
   58.2520   30.3340   46.2400 O   0  0  0  0  0  0  0  0  0  0  0  0
   59.3430   29.4950   44.2270 O   0  0  0  0  0  0  0  0  0  0  0  0
   58.4030   27.6860   45.9720 C   0  0  0  0  0  0  0  0  0  0  0  0
   57.0220   27.5210   45.8110 C   0  0  0  0  0  0  0  0  0  0  0  0
   56.4360   26.2650   46.0000 C   0  0  0  0  0  0  0  0  0  0  0  0
   57.2270   25.1650   46.3560 C   0  0  0  0  0  0  0  0  0  0  0  0
   56.4920   23.5780   46.5860 S   0  0  0  0  0  0  0  0  0  0  0  0
   57.3350   22.7810   47.5430 O   0  0  0  0  0  0  0  0  0  0  0  0
   55.1290   23.7490   47.1990 O   0  0  0  0  0  0  0  0  0  0  0  0
   56.3310   22.7070   45.0790 N   0  0  0  0  0  0  0  0  0  0  0  0
   57.4960   21.8360   44.8620 C   0  0  0  0  0  0  0  0  0  0  0  0
   57.4280   21.1820   43.4650 C   0  0  0  0  0  0  0  0  0  0  0  0
   56.2030   21.4680   42.8180 O   0  0  0  0  0  0  0  0  0  0  0  0
   56.0780   22.8660   42.6250 C   0  0  0  0  0  0  0  0  0  0  0  0
   56.1830   23.6440   43.9550 C   0  0  0  0  0  0  0  0  0  0  0  0
   58.6080   25.3330   46.5200 C   0  0  0  0  0  0  0  0  0  0  0  0
   59.1950   26.5850   46.3210 C   0  0  0  0  0  0  0  0  0  0  0  0
   63.5340   33.2730   48.2590 C   0  0  0  0  0  0  0  0  0  0  0  0
   63.1330   33.8250   47.2000 O   0  0  0  0  0  0  0  0  0  0  0  0
   64.8240   33.4160   48.6350 N   0  0  0  0  0  0  0  0  0  0  0  0
   65.3020   32.8470   49.7690 C   0  0  0  0  0  0  0  0  0  0  0  0
   66.5100   33.0400   50.0750 O   0  0  0  0  0  0  0  0  0  0  0  0
   64.4810   32.0850   50.5690 N   0  0  0  0  0  0  0  0  0  0  0  0
   64.9980   31.5600   51.8540 C   0  0  0  0  0  0  0  0  0  0  0  0
   65.6470   30.2110   51.6560 C   0  0  0  0  0  0  0  0  0  0  0  0
   66.9470   30.1260   51.1240 C   0  0  0  0  0  0  0  0  0  0  0  0
   67.5490   28.8810   50.9220 C   0  0  0  0  0  0  0  0  0  0  0  0
   66.8620   27.7110   51.2550 C   0  0  0  0  0  0  0  0  0  0  0  0
   65.5700   27.7840   51.7870 C   0  0  0  0  0  0  0  0  0  0  0  0
   64.9600   29.0280   51.9820 C   0  0  0  0  0  0  0  0  0  0  0  0
   62.5360   30.7040   51.9270 H   0  0  0  0  0  0  0  0  0  0  0  0
   61.3920   30.6850   50.5880 H   0  0  0  0  0  0  0  0  0  0  0  0
   59.7724   33.5284   49.6264 H   0  0  0  0  0  0  0  0  0  0  0  0
   61.0832   34.4858   48.8390 H   0  0  0  0  0  0  0  0  0  0  0  0
   61.1130   34.8446   46.4121 H   0  0  0  0  0  0  0  0  0  0  0  0
   59.6723   35.2123   44.4103 H   0  0  0  0  0  0  0  0  0  0  0  0
   57.3343   34.3399   44.3724 H   0  0  0  0  0  0  0  0  0  0  0  0
   56.4426   33.0728   46.3312 H   0  0  0  0  0  0  0  0  0  0  0  0
   57.8853   32.6786   48.3303 H   0  0  0  0  0  0  0  0  0  0  0  0
   60.5341   31.3558   46.0260 H   0  0  0  0  0  0  0  0  0  0  0  0
   62.1710   30.7993   46.5262 H   0  0  0  0  0  0  0  0  0  0  0  0
   60.5330   28.8900   47.4710 H   0  0  0  0  0  0  0  0  0  0  0  0
   56.3956   28.3821   45.5349 H   0  0  0  0  0  0  0  0  0  0  0  0
   55.3510   26.1407   45.8687 H   0  0  0  0  0  0  0  0  0  0  0  0
   58.4153   22.4354   44.9370 H   0  0  0  0  0  0  0  0  0  0  0  0
   57.4965   21.0447   45.6261 H   0  0  0  0  0  0  0  0  0  0  0  0
   58.2553   21.5658   42.8499 H   0  0  0  0  0  0  0  0  0  0  0  0
   57.5062   20.0919   43.5900 H   0  0  0  0  0  0  0  0  0  0  0  0
   56.8786   23.2047   41.9510 H   0  0  0  0  0  0  0  0  0  0  0  0
   55.0856   23.0625   42.1932 H   0  0  0  0  0  0  0  0  0  0  0  0
   57.0579   24.3097   43.9188 H   0  0  0  0  0  0  0  0  0  0  0  0
   55.2673   24.2363   44.0986 H   0  0  0  0  0  0  0  0  0  0  0  0
   59.2334   24.4748   46.8069 H   0  0  0  0  0  0  0  0  0  0  0  0
   60.2819   26.7063   46.4387 H   0  0  0  0  0  0  0  0  0  0  0  0
   65.7414   32.2627   52.2584 H   0  0  0  0  0  0  0  0  0  0  0  0
   64.1575   31.4491   52.5549 H   0  0  0  0  0  0  0  0  0  0  0  0
   67.4929   31.0453   50.8655 H   0  0  0  0  0  0  0  0  0  0  0  0
   68.5635   28.8223   50.5009 H   0  0  0  0  0  0  0  0  0  0  0  0
   67.3373   26.7314   51.0988 H   0  0  0  0  0  0  0  0  0  0  0  0
   65.0328   26.8616   52.0525 H   0  0  0  0  0  0  0  0  0  0  0  0
   63.9404   29.0808   52.3914 H   0  0  0  0  0  0  0  0  0  0  0  0
  1  2  1  0
  2  3  2  0
  3  4  1  0
  4  5  1  0
  5  6  1  0
  6  7  2  0
  7  8  1  0
  8  9  2  0
  9 10  1  0
 10 11  2  0
  4 12  1  0
 12 13  2  0
 12 14  1  0
 14 15  1  0
 15 16  1  0
 16 17  2  0
 16 18  2  0
 16 19  1  0
 19 20  2  0
 20 21  1  0
 21 22  2  0
 22 23  1  0
 23 24  2  0
 23 25  2  0
 23 26  1  0
 26 27  1  0
 27 28  1  0
 28 29  1  0
 29 30  1  0
 30 31  1  0
 22 32  1  0
 32 33  2  0
  3 34  1  0
 34 35  2  0
 34 36  1  0
 36 37  1  0
 37 38  2  0
 37 39  1  0
 39 40  1  0
 40 41  1  0
 41 42  2  0
 42 43  1  0
 43 44  2  0
 44 45  1  0
 45 46  2  0
 39  2  1  0
 46 41  1  0
 11  6  1  0
 33 19  1  0
 31 26  1  0
  1 47  1  0
  1 48  1  0
  5 49  1  0
  5 50  1  0
  7 51  1  0
  8 52  1  0
  9 53  1  0
 10 54  1  0
 11 55  1  0
 14 56  1  0
 14 57  1  0
 15 58  1  0
 20 59  1  0
 21 60  1  0
 27 61  1  0
 27 62  1  0
 28 63  1  0
 28 64  1  0
 30 65  1  0
 30 66  1  0
 31 67  1  0
 31 68  1  0
 32 69  1  0
 33 70  1  0
 40 71  1  0
 40 72  1  0
 42 73  1  0
 43 74  1  0
 44 75  1  0
 45 76  1  0
 46 77  1  0
M  CHG  1  36  -1
M  END
>  <UniqueID>  (59) 
56

>  <SMILES>  (59) 
Nc1c(N(Cc2ccccc2)C(=O)CNS(=O)(=O)c2ccc(S(=O)(=O)N3CCOCC3)cc2)c(=O)[n-]c(=O)n1Cc1ccccc1

>  <Energy>  (59) 
98.00537123477379

>  <Genealogy>  (59) 
Nc1c(N(Cc2ccccc2)C(=O)CNS(=O)(=O)c2ccc(S(=O)(=O)N3CCOCC3)cc2)c(=O)[n-]c(=O)n1Cc1ccccc1 (protonated)
Nc1c(N(Cc2ccccc2)C(=O)CNS(=O)(=O)c2ccc(S(=O)(=O)N3CCOCC3)cc2)c(=O)[n-]c(=O)n1Cc1ccccc1 (3D coordinates assigned)
Nc1c(N(Cc2ccccc2)C(=O)CNS(=O)(=O)c2ccc(S(=O)(=O)N3CCOCC3)cc2)c(=O)[n-]c(=O)n1Cc1ccccc1 (nonaromatic ring conformer: 98.00537123477379 kcal/mol)

>  <smiles>  (59) 
Nc1c(N(Cc2ccccc2)C(=O)CNS(=O)(=O)c2ccc(S(=O)(=O)N3CCOCC3)cc2)c(=O)[nH]c(=O)n1Cc1ccccc1

>  <score_type>  (59) 
oracle

>  <origin>  (59) 
adg

>  <m_score__min__energy>  (59) 
-11.98

>  <m_primary>  (59) 
energy

$$$$
59:0
     RDKit          3D

 64 68  0  0  0  0  0  0  0  0999 V2000
   64.8200   34.5490   51.9370 C   0  0  0  0  0  0  0  0  0  0  0  0
   65.9740   33.9050   51.7540 C   0  0  0  0  0  0  0  0  0  0  0  0
   66.1140   32.6320   50.5510 S   0  0  0  0  0  0  0  0  0  0  0  0
   66.5900   31.3630   51.2010 O   0  0  0  0  0  0  0  0  0  0  0  0
   67.0960   33.0410   49.4900 O   0  0  0  0  0  0  0  0  0  0  0  0
   64.5340   32.3570   49.8220 C   0  0  0  0  0  0  0  0  0  0  0  0
   64.1810   33.0220   48.6390 C   0  0  0  0  0  0  0  0  0  0  0  0
   62.9350   32.7940   48.0490 C   0  0  0  0  0  0  0  0  0  0  0  0
   62.0340   31.8820   48.6230 C   0  0  0  0  0  0  0  0  0  0  0  0
   60.7080   31.6380   48.0200 C   0  0  0  0  0  0  0  0  0  0  0  0
   60.5560   31.1310   46.7830 N   0  0  0  0  0  0  0  0  0  0  0  0
   59.2210   30.9990   46.6380 C   0  0  0  0  0  0  0  0  0  0  0  0
   58.5910   30.3830   45.4040 C   0  0  1  0  0  0  0  0  0  0  0  0
   59.5810   29.5970   44.5030 C   0  0  0  0  0  0  0  0  0  0  0  0
   59.3570   28.0840   44.5930 C   0  0  0  0  0  0  0  0  0  0  0  0
   59.0280   27.6770   46.0380 C   0  0  2  0  0  0  0  0  0  0  0  0
   60.1140   28.0320   46.8240 F   0  0  0  0  0  0  0  0  0  0  0  0
   58.8020   26.1770   46.1540 C   0  0  0  0  0  0  0  0  0  0  0  0
   59.7610   25.4370   46.5130 O   0  0  0  0  0  0  0  0  0  0  0  0
   57.5450   25.5590   45.8030 N   0  0  0  0  0  0  0  0  0  0  0  0
   57.2350   25.1550   44.4430 C   0  0  0  0  0  0  0  0  0  0  0  0
   55.8920   24.4440   44.5180 C   0  0  0  0  0  0  0  0  0  0  0  0
   55.2690   24.8750   45.8470 C   0  0  2  0  0  0  0  0  0  0  0  0
   54.4060   25.9650   45.6470 O   0  0  0  0  0  0  0  0  0  0  0  0
   56.4440   25.3050   46.7210 C   0  0  0  0  0  0  0  0  0  0  0  0
   57.7740   28.4590   46.5200 C   0  0  0  0  0  0  0  0  0  0  0  0
   57.4520   29.5990   45.7280 O   0  0  0  0  0  0  0  0  0  0  0  0
   58.5200   31.3650   47.7330 N   0  0  0  0  0  0  0  0  0  0  0  0
   59.4570   31.7900   48.6000 C   0  0  0  0  0  0  0  0  0  0  0  0
   59.1210   32.3820   49.9120 C   0  0  0  0  0  0  0  0  0  0  0  0
   58.1670   31.7590   50.7340 C   0  0  0  0  0  0  0  0  0  0  0  0
   57.8270   32.3190   51.9690 C   0  0  0  0  0  0  0  0  0  0  0  0
   58.4240   33.5100   52.3870 C   0  0  0  0  0  0  0  0  0  0  0  0
   59.3560   34.1500   51.5670 C   0  0  0  0  0  0  0  0  0  0  0  0
   59.6990   33.5950   50.3310 C   0  0  0  0  0  0  0  0  0  0  0  0
   62.3860   31.2290   49.8150 C   0  0  0  0  0  0  0  0  0  0  0  0
   63.6330   31.4580   50.4050 C   0  0  0  0  0  0  0  0  0  0  0  0
   64.7477   35.3438   52.6940 H   0  0  0  0  0  0  0  0  0  0  0  0
   63.9408   34.2852   51.3309 H   0  0  0  0  0  0  0  0  0  0  0  0
   66.8489   34.1744   52.3639 H   0  0  0  0  0  0  0  0  0  0  0  0
   64.8873   33.7255   48.1739 H   0  0  0  0  0  0  0  0  0  0  0  0
   62.6582   33.3316   47.1301 H   0  0  0  0  0  0  0  0  0  0  0  0
   58.2610   31.2395   44.7978 H   0  0  0  0  0  0  0  0  0  0  0  0
   59.4420   29.9157   43.4594 H   0  0  0  0  0  0  0  0  0  0  0  0
   60.6024   29.8118   44.8503 H   0  0  0  0  0  0  0  0  0  0  0  0
   58.5201   27.8017   43.9373 H   0  0  0  0  0  0  0  0  0  0  0  0
   60.2753   27.5675   44.2767 H   0  0  0  0  0  0  0  0  0  0  0  0
   57.1660   26.0360   43.7880 H   0  0  0  0  0  0  0  0  0  0  0  0
   58.0162   24.5021   44.0265 H   0  0  0  0  0  0  0  0  0  0  0  0
   55.2503   24.7469   43.6775 H   0  0  0  0  0  0  0  0  0  0  0  0
   56.0071   23.3516   44.4589 H   0  0  0  0  0  0  0  0  0  0  0  0
   54.6818   24.0652   46.3046 H   0  0  0  0  0  0  0  0  0  0  0  0
   53.7300   25.9290   46.3720 H   0  0  0  0  0  0  0  0  0  0  0  0
   56.1922   26.2183   47.2801 H   0  0  0  0  0  0  0  0  0  0  0  0
   56.7025   24.5342   47.4620 H   0  0  0  0  0  0  0  0  0  0  0  0
   56.9136   27.7739   46.5031 H   0  0  0  0  0  0  0  0  0  0  0  0
   58.0046   28.8320   47.5288 H   0  0  0  0  0  0  0  0  0  0  0  0
   57.6855   30.8265   50.4044 H   0  0  0  0  0  0  0  0  0  0  0  0
   57.0876   31.8203   52.6128 H   0  0  0  0  0  0  0  0  0  0  0  0
   58.1602   33.9444   53.3625 H   0  0  0  0  0  0  0  0  0  0  0  0
   59.8206   35.0918   51.8943 H   0  0  0  0  0  0  0  0  0  0  0  0
   60.4241   34.1086   49.6826 H   0  0  0  0  0  0  0  0  0  0  0  0
   61.6769   30.5333   50.2875 H   0  0  0  0  0  0  0  0  0  0  0  0
   63.9069   30.9300   51.3303 H   0  0  0  0  0  0  0  0  0  0  0  0
  1  2  2  0
  2  3  1  0
  3  4  2  0
  3  5  2  0
  3  6  1  0
  6  7  2  0
  7  8  1  0
  8  9  2  0
  9 10  1  0
 10 11  1  0
 11 12  2  0
 12 13  1  0
 13 14  1  0
 14 15  1  0
 15 16  1  0
 16 17  1  1
 16 18  1  0
 18 19  2  0
 18 20  1  0
 20 21  1  0
 21 22  1  0
 22 23  1  0
 23 24  1  0
 23 25  1  0
 16 26  1  0
 26 27  1  0
 12 28  1  0
 28 29  1  0
 29 30  1  0
 30 31  2  0
 31 32  1  0
 32 33  2  0
 33 34  1  0
 34 35  2  0
  9 36  1  0
 36 37  2  0
 37  6  1  0
 29 10  2  0
 35 30  1  0
 27 13  1  0
 25 20  1  0
  1 38  1  0
  1 39  1  0
  2 40  1  0
  7 41  1  0
  8 42  1  0
 13 43  1  6
 14 44  1  0
 14 45  1  0
 15 46  1  0
 15 47  1  0
 21 48  1  0
 21 49  1  0
 22 50  1  0
 22 51  1  0
 23 52  1  1
 24 53  1  0
 25 54  1  0
 25 55  1  0
 26 56  1  0
 26 57  1  0
 31 58  1  0
 32 59  1  0
 33 60  1  0
 34 61  1  0
 35 62  1  0
 36 63  1  0
 37 64  1  0
M  CHG  1  28  -1
M  END
>  <UniqueID>  (60) 
57

>  <SMILES>  (60) 
C=CS(=O)(=O)c1ccc(-c2nc([C@H]3CC[C@](F)(C(=O)N4CCC(O)C4)CO3)[n-]c2-c2ccccc2)cc1

>  <Energy>  (60) 
117.11462258399882

>  <Genealogy>  (60) 
C=CS(=O)(=O)c1ccc(-c2nc(C3CCC(F)(C(=O)N4CCC(O)C4)CO3)[n-]c2-c2ccccc2)cc1 (protonated)
C=CS(=O)(=O)c1ccc(-c2nc([C@H]3CC[C@](F)(C(=O)N4CCC(O)C4)CO3)[n-]c2-c2ccccc2)cc1 (chirality)
C=CS(=O)(=O)c1ccc(-c2nc([C@H]3CC[C@](F)(C(=O)N4CCC(O)C4)CO3)[n-]c2-c2ccccc2)cc1 (3D coordinates assigned)
C=CS(=O)(=O)c1ccc(-c2nc([C@H]3CC[C@](F)(C(=O)N4CCC(O)C4)CO3)[n-]c2-c2ccccc2)cc1 (nonaromatic ring conformer: 117.11462258399882 kcal/mol)

>  <smiles>  (60) 
C=CS(=O)(=O)c1ccc(-c2nc(C3CCC(F)(C(=O)N4CCC(O)C4)CO3)[nH]c2-c2ccccc2)cc1

>  <score_type>  (60) 
oracle

>  <origin>  (60) 
adg

>  <m_score__min__energy>  (60) 
-11.359999999999999

>  <m_primary>  (60) 
energy

$$$$
60:0
     RDKit          3D

 37 39  0  0  0  0  0  0  0  0999 V2000
   56.9420   34.1120   44.4630 O   0  0  0  0  0  0  0  0  0  0  0  0
   57.8970   33.3530   44.7040 C   0  0  0  0  0  0  0  0  0  0  0  0
   58.0560   32.2590   43.7750 N   0  0  0  0  0  0  0  0  0  0  0  0
   57.2650   31.2520   43.9400 C   0  0  0  0  0  0  0  0  0  0  0  0
   56.2020   31.3200   44.7840 N   0  0  0  0  0  0  0  0  0  0  0  0
   55.6320   30.1220   44.6960 N   0  0  0  0  0  0  0  0  0  0  0  0
   56.2860   29.3450   43.8570 N   0  0  0  0  0  0  0  0  0  0  0  0
   57.3040   30.0280   43.3760 N   0  0  0  0  0  0  0  0  0  0  0  0
   58.8420   33.4510   45.7880 C   0  0  0  0  0  0  0  0  0  0  0  0
   59.3330   34.7000   46.1620 C   0  0  0  0  0  0  0  0  0  0  0  0
   60.2250   34.9050   47.1670 C   0  0  0  0  0  0  0  0  0  0  0  0
   60.6940   33.8260   47.8840 C   0  0  0  0  0  0  0  0  0  0  0  0
   60.2220   32.5870   47.5300 C   0  0  0  0  0  0  0  0  0  0  0  0
   59.3120   32.3760   46.5050 C   0  0  0  0  0  0  0  0  0  0  0  0
   58.8960   31.0520   46.2310 N   0  0  0  0  0  0  0  0  0  0  0  0
   59.6580   29.9550   46.8190 C   0  0  0  0  0  0  0  0  0  0  0  0
   58.8980   28.6800   46.8090 C   0  0  0  0  0  0  0  0  0  0  0  0
   59.4340   27.5420   47.4090 C   0  0  0  0  0  0  0  0  0  0  0  0
   58.7630   26.3390   47.4220 C   0  0  0  0  0  0  0  0  0  0  0  0
   57.5110   26.2650   46.8150 C   0  0  0  0  0  0  0  0  0  0  0  0
   56.9600   27.3680   46.2170 C   0  0  0  0  0  0  0  0  0  0  0  0
   55.7030   27.2480   45.6210 O   0  0  0  0  0  0  0  0  0  0  0  0
   57.6500   28.5760   46.2120 C   0  0  0  0  0  0  0  0  0  0  0  0
   56.0240   28.3540   43.6240 H   0  0  0  0  0  0  0  0  0  0  0  0
   58.0240   29.7160   42.6900 H   0  0  0  0  0  0  0  0  0  0  0  0
   58.9748   35.5794   45.6067 H   0  0  0  0  0  0  0  0  0  0  0  0
   60.5690   35.9223   47.4055 H   0  0  0  0  0  0  0  0  0  0  0  0
   61.4155   33.9522   48.7046 H   0  0  0  0  0  0  0  0  0  0  0  0
   60.5855   31.7129   48.0902 H   0  0  0  0  0  0  0  0  0  0  0  0
   58.0930   30.7670   45.6450 H   0  0  0  0  0  0  0  0  0  0  0  0
   60.5860   29.8195   46.2442 H   0  0  0  0  0  0  0  0  0  0  0  0
   59.8720   30.2140   47.8664 H   0  0  0  0  0  0  0  0  0  0  0  0
   60.4228   27.6064   47.8866 H   0  0  0  0  0  0  0  0  0  0  0  0
   59.2068   25.4544   47.9021 H   0  0  0  0  0  0  0  0  0  0  0  0
   56.9601   25.3129   46.8158 H   0  0  0  0  0  0  0  0  0  0  0  0
   55.1410   28.0940   45.5640 H   0  0  0  0  0  0  0  0  0  0  0  0
   57.2017   29.4573   45.7300 H   0  0  0  0  0  0  0  0  0  0  0  0
  1  2  2  0
  2  3  1  0
  3  4  2  3
  4  5  1  0
  5  6  2  0
  6  7  1  0
  7  8  1  0
  2  9  1  0
  9 10  2  0
 10 11  1  0
 11 12  2  0
 12 13  1  0
 13 14  2  0
 14 15  1  0
 15 16  1  0
 16 17  1  0
 17 18  2  0
 18 19  1  0
 19 20  2  0
 20 21  1  0
 21 22  1  0
 21 23  2  0
  8  4  1  0
 14  9  1  0
 23 17  1  0
  7 24  1  0
  8 25  1  0
 10 26  1  0
 11 27  1  0
 12 28  1  0
 13 29  1  0
 15 30  1  0
 16 31  1  0
 16 32  1  0
 18 33  1  0
 19 34  1  0
 20 35  1  0
 22 36  1  0
 23 37  1  0
M  END
>  <smiles>  (61) 
O=C(N=c1nn[nH][nH]1)c1ccccc1NCc1cccc(O)c1

>  <score_type>  (61) 
oracle

>  <origin>  (61) 
adg

>  <m_score__min__energy>  (61) 
-9.6300000000000008

>  <m_primary>  (61) 
energy

$$$$
61:0
     RDKit          3D

 35 36  0  0  0  0  0  0  0  0999 V2000
   55.1440   26.6900   45.6990 N   0  0  0  0  0  0  0  0  0  0  0  0
   56.3370   26.2510   46.3460 C   0  0  0  0  0  0  0  0  0  0  0  0
   56.2780   25.2580   47.1210 O   0  0  0  0  0  0  0  0  0  0  0  0
   57.6300   26.9610   46.1470 C   0  0  0  0  0  0  0  0  0  0  0  0
   58.8300   26.2410   46.3080 C   0  0  0  0  0  0  0  0  0  0  0  0
   60.0670   26.8710   46.1640 C   0  0  0  0  0  0  0  0  0  0  0  0
   60.1270   28.2300   45.8670 C   0  0  0  0  0  0  0  0  0  0  0  0
   58.9530   28.9620   45.6900 C   0  0  0  0  0  0  0  0  0  0  0  0
   57.6950   28.3360   45.7980 C   0  0  0  0  0  0  0  0  0  0  0  0
   56.4830   29.0800   45.5940 N   0  0  0  0  0  0  0  0  0  0  0  0
   55.9540   29.5830   44.3600 C   0  0  0  0  0  0  0  0  0  0  0  0
   54.7760   29.3140   44.0030 O   0  0  0  0  0  0  0  0  0  0  0  0
   56.7720   30.5250   43.5300 C   0  0  0  0  0  0  0  0  0  0  0  0
   56.7640   31.8390   44.0870 O   0  0  0  0  0  0  0  0  0  0  0  0
   57.8880   32.6750   44.1050 C   0  0  0  0  0  0  0  0  0  0  0  0
   58.5020   32.9310   43.0320 O   0  0  0  0  0  0  0  0  0  0  0  0
   58.3600   33.2430   45.3860 C   0  0  0  0  0  0  0  0  0  0  0  0
   58.1350   32.5560   46.5910 C   0  0  0  0  0  0  0  0  0  0  0  0
   58.5920   33.0830   47.8030 C   0  0  0  0  0  0  0  0  0  0  0  0
   59.2790   34.3040   47.8260 C   0  0  0  0  0  0  0  0  0  0  0  0
   59.7390   34.8390   49.0270 O   0  0  0  0  0  0  0  0  0  0  0  0
   59.5060   34.9930   46.6310 C   0  0  0  0  0  0  0  0  0  0  0  0
   59.0520   34.4680   45.4170 C   0  0  0  0  0  0  0  0  0  0  0  0
   55.1770   27.3880   44.9220 H   0  0  0  0  0  0  0  0  0  0  0  0
   58.7916   25.1687   46.5503 H   0  0  0  0  0  0  0  0  0  0  0  0
   60.9953   26.2935   46.2852 H   0  0  0  0  0  0  0  0  0  0  0  0
   61.1032   28.7279   45.7717 H   0  0  0  0  0  0  0  0  0  0  0  0
   59.0095   30.0371   45.4642 H   0  0  0  0  0  0  0  0  0  0  0  0
   57.8085   30.1591   43.4873 H   0  0  0  0  0  0  0  0  0  0  0  0
   56.3365   30.5703   42.5209 H   0  0  0  0  0  0  0  0  0  0  0  0
   57.5958   31.5973   46.5808 H   0  0  0  0  0  0  0  0  0  0  0  0
   58.4116   32.5374   48.7410 H   0  0  0  0  0  0  0  0  0  0  0  0
   59.3580   35.6990   49.4030 H   0  0  0  0  0  0  0  0  0  0  0  0
   60.0441   35.9523   46.6457 H   0  0  0  0  0  0  0  0  0  0  0  0
   59.2368   35.0156   44.4811 H   0  0  0  0  0  0  0  0  0  0  0  0
  1  2  1  0
  2  3  2  0
  2  4  1  0
  4  5  2  0
  5  6  1  0
  6  7  2  0
  7  8  1  0
  8  9  2  0
  9 10  1  0
 10 11  1  0
 11 12  2  0
 11 13  1  0
 13 14  1  0
 14 15  1  0
 15 16  2  0
 15 17  1  0
 17 18  2  0
 18 19  1  0
 19 20  2  0
 20 21  1  0
 20 22  1  0
 22 23  2  0
  9  4  1  0
 23 17  1  0
  1 24  1  0
  5 25  1  0
  6 26  1  0
  7 27  1  0
  8 28  1  0
 13 29  1  0
 13 30  1  0
 18 31  1  0
 19 32  1  0
 21 33  1  0
 22 34  1  0
 23 35  1  0
M  CHG  2   1  -1  10  -1
M  END
>  <UniqueID>  (62) 
58

>  <SMILES>  (62) 
[NH-]C(=O)c1ccccc1[N-]C(=O)COC(=O)c1ccc(O)cc1

>  <Energy>  (62) 
39.64967316028643

>  <Genealogy>  (62) 
[NH-]C(=O)c1ccccc1[N-]C(=O)COC(=O)c1ccc(O)cc1 (protonated)
[NH-]C(=O)c1ccccc1[N-]C(=O)COC(=O)c1ccc(O)cc1 (3D coordinates assigned)
[NH-]C(=O)c1ccccc1[N-]C(=O)COC(=O)c1ccc(O)cc1 (optimized conformer: 39.64967316028643 kcal/mol)

>  <smiles>  (62) 
NC(=O)c1ccccc1NC(=O)COC(=O)c1ccc(O)cc1

>  <score_type>  (62) 
oracle

>  <origin>  (62) 
adg

>  <m_score__min__energy>  (62) 
-12.98

>  <m_primary>  (62) 
energy

$$$$
62:0
     RDKit          3D

 50 52  0  0  0  0  0  0  0  0999 V2000
   53.1790   21.4930   47.2540 C   0  0  0  0  0  0  0  0  0  0  0  0
   53.9360   22.4790   45.9780 S   0  0  0  0  0  0  0  0  0  0  0  0
   52.8430   23.0030   45.0930 O   0  0  0  0  0  0  0  0  0  0  0  0
   54.8730   21.6590   45.1320 O   0  0  0  0  0  0  0  0  0  0  0  0
   54.7790   23.8360   46.6710 N   0  0  0  0  0  0  0  0  0  0  0  0
   55.8210   24.4910   46.2440 C   0  0  0  0  0  0  0  0  0  0  0  0
   56.9740   23.7430   45.9800 C   0  0  0  0  0  0  0  0  0  0  0  0
   58.1130   24.3650   45.4770 C   0  0  0  0  0  0  0  0  0  0  0  0
   58.1140   25.7000   45.2390 N   0  0  0  0  0  0  0  0  0  0  0  0
   57.0260   26.4750   45.4860 C   0  0  0  0  0  0  0  0  0  0  0  0
   57.0760   27.8890   45.2300 N   0  0  0  0  0  0  0  0  0  0  0  0
   58.2230   28.6930   45.5690 C   0  0  0  0  0  0  0  0  0  0  0  0
   59.2960   28.1470   45.9490 O   0  0  0  0  0  0  0  0  0  0  0  0
   58.1740   30.1590   45.4210 C   0  0  0  0  0  0  0  0  0  0  0  0
   58.3510   30.9980   46.5330 C   0  0  0  0  0  0  0  0  0  0  0  0
   58.3190   32.3860   46.3700 C   0  0  0  0  0  0  0  0  0  0  0  0
   58.0740   32.9270   45.0930 C   0  0  0  0  0  0  0  0  0  0  0  0
   58.0000   34.3810   44.8830 C   0  0  0  0  0  0  0  0  0  0  0  0
   56.8830   34.9510   44.7430 O   0  0  0  0  0  0  0  0  0  0  0  0
   59.2100   35.1460   44.8330 N   0  0  0  0  0  0  0  0  0  0  0  0
   59.8150   35.7780   46.0040 C   0  0  0  0  0  0  0  0  0  0  0  0
   59.6140   34.9230   47.2640 C   0  0  0  0  0  0  0  0  0  0  0  0
   60.8840   34.2230   47.6700 C   0  0  0  0  0  0  0  0  0  0  0  0
   61.1270   33.9200   49.0200 C   0  0  0  0  0  0  0  0  0  0  0  0
   62.2970   33.2540   49.3950 C   0  0  0  0  0  0  0  0  0  0  0  0
   63.2270   32.8780   48.4260 C   0  0  0  0  0  0  0  0  0  0  0  0
   62.9880   33.1620   47.0790 C   0  0  0  0  0  0  0  0  0  0  0  0
   61.8190   33.8290   46.6980 C   0  0  0  0  0  0  0  0  0  0  0  0
   57.8860   32.0900   44.0320 N   0  0  0  0  0  0  0  0  0  0  0  0
   57.9470   30.7390   44.1610 C   0  0  0  0  0  0  0  0  0  0  0  0
   55.8560   25.8910   46.0110 C   0  0  0  0  0  0  0  0  0  0  0  0
   54.7680   26.7120   46.2580 O   0  0  0  0  0  0  0  0  0  0  0  0
   53.4756   21.8793   48.2403 H   0  0  0  0  0  0  0  0  0  0  0  0
   52.0846   21.5424   47.1548 H   0  0  0  0  0  0  0  0  0  0  0  0
   53.5094   20.4485   47.1548 H   0  0  0  0  0  0  0  0  0  0  0  0
   56.9801   22.6597   46.1707 H   0  0  0  0  0  0  0  0  0  0  0  0
   59.0160   23.7713   45.2717 H   0  0  0  0  0  0  0  0  0  0  0  0
   56.2900   28.3330   44.6930 H   0  0  0  0  0  0  0  0  0  0  0  0
   58.5145   30.5639   47.5304 H   0  0  0  0  0  0  0  0  0  0  0  0
   58.4837   33.0498   47.2315 H   0  0  0  0  0  0  0  0  0  0  0  0
   60.8929   35.9060   45.8257 H   0  0  0  0  0  0  0  0  0  0  0  0
   59.3293   36.7520   46.1634 H   0  0  0  0  0  0  0  0  0  0  0  0
   59.2865   35.5739   48.0881 H   0  0  0  0  0  0  0  0  0  0  0  0
   58.8562   34.1573   47.0417 H   0  0  0  0  0  0  0  0  0  0  0  0
   60.3923   34.2085   49.7862 H   0  0  0  0  0  0  0  0  0  0  0  0
   62.4845   33.0263   50.4547 H   0  0  0  0  0  0  0  0  0  0  0  0
   64.1495   32.3574   48.7225 H   0  0  0  0  0  0  0  0  0  0  0  0
   63.7209   32.8603   46.3163 H   0  0  0  0  0  0  0  0  0  0  0  0
   61.6314   34.0454   45.6359 H   0  0  0  0  0  0  0  0  0  0  0  0
   57.8184   30.0972   43.2769 H   0  0  0  0  0  0  0  0  0  0  0  0
  1  2  1  0
  2  3  2  0
  2  4  2  0
  2  5  1  0
  5  6  2  3
  6  7  1  0
  7  8  2  0
  8  9  1  0
  9 10  1  0
 10 11  1  0
 11 12  1  0
 12 13  2  0
 12 14  1  0
 14 15  2  0
 15 16  1  0
 16 17  2  0
 17 18  1  0
 18 19  2  0
 18 20  1  0
 20 21  1  0
 21 22  1  0
 22 23  1  0
 23 24  2  0
 24 25  1  0
 25 26  2  0
 26 27  1  0
 27 28  2  0
 17 29  1  0
 29 30  2  0
 10 31  2  0
 31 32  1  0
 31  6  1  0
 30 14  1  0
 28 23  1  0
  1 33  1  0
  1 34  1  0
  1 35  1  0
  7 36  1  0
  8 37  1  0
 11 38  1  0
 15 39  1  0
 16 40  1  0
 21 41  1  0
 21 42  1  0
 22 43  1  0
 22 44  1  0
 24 45  1  0
 25 46  1  0
 26 47  1  0
 27 48  1  0
 28 49  1  0
 30 50  1  0
M  CHG  3   9  -1  20  -1  32  -1
M  END
>  <UniqueID>  (63) 
59

>  <SMILES>  (63) 
CS(=O)(=O)N=c1cc[n-]c(NC(=O)c2ccc(C(=O)[N-]CCc3ccccc3)nc2)c1[O-]

>  <Energy>  (63) 
62.62829682391813

>  <Genealogy>  (63) 
CS(=O)(=O)N=c1cc[n-]c(NC(=O)c2ccc(C(=O)[N-]CCc3ccccc3)nc2)c1[O-] (protonated)
CS(=O)(=O)N=c1cc[n-]c(NC(=O)c2ccc(C(=O)[N-]CCc3ccccc3)nc2)c1[O-] (3D coordinates assigned)
CS(=O)(=O)N=c1cc[n-]c(NC(=O)c2ccc(C(=O)[N-]CCc3ccccc3)nc2)c1[O-] (optimized conformer: 62.62829682391813 kcal/mol)

>  <smiles>  (63) 
CS(=O)(=O)N=c1cc[nH]c(NC(=O)c2ccc(C(=O)NCCc3ccccc3)nc2)c1O

>  <score_type>  (63) 
oracle

>  <origin>  (63) 
adg

>  <m_score__min__energy>  (63) 
-15.050000000000001

>  <m_primary>  (63) 
energy

$$$$
63:0
     RDKit          3D

 37 39  0  0  0  0  0  0  0  0999 V2000
   56.5120   29.7790   42.6240 N   0  0  0  0  0  0  0  0  0  0  0  0
   57.2520   30.1200   43.4450 C   0  0  0  0  0  0  0  0  0  0  0  0
   58.1750   30.5460   44.4680 C   0  0  0  0  0  0  0  0  0  0  0  0
   58.0540   31.8370   44.9970 C   0  0  0  0  0  0  0  0  0  0  0  0
   58.9610   32.2950   45.9620 C   0  0  0  0  0  0  0  0  0  0  0  0
   58.7570   33.8980   46.6640 S   0  0  0  0  0  0  0  0  0  0  0  0
   57.4270   33.9610   47.3600 O   0  0  0  0  0  0  0  0  0  0  0  0
   58.8050   34.9520   45.5940 O   0  0  0  0  0  0  0  0  0  0  0  0
   60.0190   34.2030   47.8130 N   0  0  0  0  0  0  0  0  0  0  0  0
   61.2560   33.8660   47.6160 C   0  0  0  0  0  0  0  0  0  0  0  0
   61.9730   34.2280   46.5280 N   0  0  0  0  0  0  0  0  0  0  0  0
   63.2330   33.7210   46.5750 C   0  0  0  0  0  0  0  0  0  0  0  0
   63.5190   32.9550   47.7020 C   0  0  0  0  0  0  0  0  0  0  0  0
   62.1440   32.9130   48.6720 S   0  0  0  0  0  0  0  0  0  0  0  0
   60.0150   31.4680   46.3710 C   0  0  0  0  0  0  0  0  0  0  0  0
   60.1430   30.1810   45.8430 C   0  0  0  0  0  0  0  0  0  0  0  0
   59.2130   29.7000   44.9150 C   0  0  0  0  0  0  0  0  0  0  0  0
   59.3550   28.3890   44.4390 O   0  0  0  0  0  0  0  0  0  0  0  0
   58.9490   27.2420   45.1380 C   0  0  0  0  0  0  0  0  0  0  0  0
   59.9300   26.4040   45.6730 C   0  0  0  0  0  0  0  0  0  0  0  0
   59.5680   25.2540   46.3750 C   0  0  0  0  0  0  0  0  0  0  0  0
   58.2210   24.9300   46.5580 C   0  0  0  0  0  0  0  0  0  0  0  0
   57.9170   23.8000   47.2440 F   0  0  0  0  0  0  0  0  0  0  0  0
   57.2100   25.7710   46.0400 C   0  0  0  0  0  0  0  0  0  0  0  0
   55.7680   25.4600   46.2210 C   0  0  0  0  0  0  0  0  0  0  0  0
   54.7580   26.3410   45.7330 N   0  0  0  0  0  0  0  0  0  0  0  0
   55.4190   24.4030   46.8150 O   0  0  0  0  0  0  0  0  0  0  0  0
   57.5920   26.9290   45.3350 C   0  0  0  0  0  0  0  0  0  0  0  0
   57.2425   32.4952   44.6531 H   0  0  0  0  0  0  0  0  0  0  0  0
   63.9725   33.9024   45.7811 H   0  0  0  0  0  0  0  0  0  0  0  0
   64.4779   32.4624   47.9207 H   0  0  0  0  0  0  0  0  0  0  0  0
   60.7437   31.8329   47.1098 H   0  0  0  0  0  0  0  0  0  0  0  0
   60.9805   29.5416   46.1589 H   0  0  0  0  0  0  0  0  0  0  0  0
   60.9934   26.6520   45.5402 H   0  0  0  0  0  0  0  0  0  0  0  0
   60.3484   24.5976   46.7874 H   0  0  0  0  0  0  0  0  0  0  0  0
   54.0290   26.7270   46.3710 H   0  0  0  0  0  0  0  0  0  0  0  0
   56.8175   27.5985   44.9325 H   0  0  0  0  0  0  0  0  0  0  0  0
  1  2  3  0
  2  3  1  0
  3  4  2  0
  4  5  1  0
  5  6  1  0
  6  7  2  0
  6  8  2  0
  6  9  1  0
  9 10  2  3
 10 11  1  0
 11 12  1  0
 12 13  2  0
 13 14  1  0
  5 15  2  0
 15 16  1  0
 16 17  2  0
 17 18  1  0
 18 19  1  0
 19 20  2  0
 20 21  1  0
 21 22  2  0
 22 23  1  0
 22 24  1  0
 24 25  1  0
 25 26  1  0
 25 27  2  0
 24 28  2  0
 17  3  1  0
 28 19  1  0
 14 10  1  0
  4 29  1  0
 12 30  1  0
 13 31  1  0
 15 32  1  0
 16 33  1  0
 20 34  1  0
 21 35  1  0
 26 36  1  0
 28 37  1  0
M  CHG  2  11  -1  26  -1
M  END
>  <UniqueID>  (64) 
60

>  <SMILES>  (64) 
N#Cc1cc(S(=O)(=O)N=c2[n-]ccs2)ccc1Oc1ccc(F)c(C([NH-])=O)c1

>  <Energy>  (64) 
81.27327380792435

>  <Genealogy>  (64) 
N#Cc1cc(S(=O)(=O)N=c2[n-]ccs2)ccc1Oc1ccc(F)c(C([NH-])=O)c1 (protonated)
N#Cc1cc(S(=O)(=O)N=c2[n-]ccs2)ccc1Oc1ccc(F)c(C([NH-])=O)c1 (3D coordinates assigned)
N#Cc1cc(S(=O)(=O)N=c2[n-]ccs2)ccc1Oc1ccc(F)c(C([NH-])=O)c1 (optimized conformer: 81.27327380792435 kcal/mol)

>  <smiles>  (64) 
N#Cc1cc(S(=O)(=O)N=c2[nH]ccs2)ccc1Oc1ccc(F)c(C(N)=O)c1

>  <score_type>  (64) 
oracle

>  <origin>  (64) 
adg

>  <m_score__min__energy>  (64) 
-12

>  <m_primary>  (64) 
energy

$$$$
64:0
     RDKit          3D

 39 41  0  0  0  0  0  0  0  0999 V2000
   61.5400   29.1020   45.1690 O   0  0  0  0  0  0  0  0  0  0  0  0
   60.6980   29.5390   45.9960 C   0  0  0  0  0  0  0  0  0  0  0  0
   61.1690   30.2620   47.1410 N   0  0  0  0  0  0  0  0  0  0  0  0
   61.8730   31.5130   47.1160 C   0  0  0  0  0  0  0  0  0  0  0  0
   63.2630   31.5680   47.3220 C   0  0  0  0  0  0  0  0  0  0  0  0
   63.9300   32.7940   47.3160 C   0  0  0  0  0  0  0  0  0  0  0  0
   63.2200   33.9750   47.0920 C   0  0  0  0  0  0  0  0  0  0  0  0
   61.8420   33.9320   46.8660 C   0  0  0  0  0  0  0  0  0  0  0  0
   61.1630   32.7040   46.8640 C   0  0  0  0  0  0  0  0  0  0  0  0
   59.7430   32.6710   46.6470 N   0  0  0  0  0  0  0  0  0  0  0  0
   59.1940   33.1440   45.3720 C   0  0  0  0  0  0  0  0  0  0  0  0
   57.6710   33.2680   45.4570 C   0  0  0  0  0  0  0  0  0  0  0  0
   57.3070   33.8400   46.7560 N   0  0  0  0  0  0  0  0  0  0  0  0
   57.5920   32.9100   47.8650 C   0  0  0  0  0  0  0  0  0  0  0  0
   58.8590   32.0550   47.6410 C   0  0  0  0  0  0  0  0  0  0  0  0
   59.2490   29.3770   45.7230 C   0  0  0  0  0  0  0  0  0  0  0  0
   58.6700   30.0880   44.6560 C   0  0  0  0  0  0  0  0  0  0  0  0
   57.3090   29.9580   44.3690 C   0  0  0  0  0  0  0  0  0  0  0  0
   56.6160   30.8650   43.0340 Cl  0  0  0  0  0  0  0  0  0  0  0  0
   56.5100   29.1080   45.1430 C   0  0  0  0  0  0  0  0  0  0  0  0
   55.1540   28.9720   44.8670 O   0  0  0  0  0  0  0  0  0  0  0  0
   57.0760   28.3930   46.2020 C   0  0  0  0  0  0  0  0  0  0  0  0
   58.4380   28.5190   46.4980 C   0  0  0  0  0  0  0  0  0  0  0  0
   59.0700   27.6350   47.8840 Cl  0  0  0  0  0  0  0  0  0  0  0  0
   63.8281   30.6391   47.4889 H   0  0  0  0  0  0  0  0  0  0  0  0
   65.0159   32.8297   47.4879 H   0  0  0  0  0  0  0  0  0  0  0  0
   63.7464   34.9409   47.0934 H   0  0  0  0  0  0  0  0  0  0  0  0
   61.2868   34.8649   46.6888 H   0  0  0  0  0  0  0  0  0  0  0  0
   59.6246   34.1282   45.1354 H   0  0  0  0  0  0  0  0  0  0  0  0
   59.4484   32.4193   44.5845 H   0  0  0  0  0  0  0  0  0  0  0  0
   57.3096   33.9242   44.6515 H   0  0  0  0  0  0  0  0  0  0  0  0
   57.2122   32.2741   45.3487 H   0  0  0  0  0  0  0  0  0  0  0  0
   56.2790   34.0370   46.7500 H   0  0  0  0  0  0  0  0  0  0  0  0
   57.7260   33.4966   48.7858 H   0  0  0  0  0  0  0  0  0  0  0  0
   56.7410   32.2163   47.9328 H   0  0  0  0  0  0  0  0  0  0  0  0
   59.4009   31.9596   48.5935 H   0  0  0  0  0  0  0  0  0  0  0  0
   58.5518   31.0661   47.2699 H   0  0  0  0  0  0  0  0  0  0  0  0
   59.2951   30.7528   44.0417 H   0  0  0  0  0  0  0  0  0  0  0  0
   56.4457   27.7256   46.8080 H   0  0  0  0  0  0  0  0  0  0  0  0
  1  2  2  0
  2  3  1  0
  3  4  1  0
  4  5  2  0
  5  6  1  0
  6  7  2  0
  7  8  1  0
  8  9  2  0
  9 10  1  0
 10 11  1  0
 11 12  1  0
 12 13  1  0
 13 14  1  0
 14 15  1  0
  2 16  1  0
 16 17  2  0
 17 18  1  0
 18 19  1  0
 18 20  2  0
 20 21  1  0
 20 22  1  0
 22 23  2  0
 23 24  1  0
  9  4  1  0
 15 10  1  0
 23 16  1  0
  5 25  1  0
  6 26  1  0
  7 27  1  0
  8 28  1  0
 11 29  1  0
 11 30  1  0
 12 31  1  0
 12 32  1  0
 13 33  1  0
 14 34  1  0
 14 35  1  0
 15 36  1  0
 15 37  1  0
 17 38  1  0
 22 39  1  0
M  CHG  2   3  -1  21  -1
M  END
>  <UniqueID>  (65) 
61

>  <SMILES>  (65) 
O=C([N-]c1ccccc1N1CCNCC1)c1cc(Cl)c([O-])cc1Cl

>  <Energy>  (65) 
58.06933667991207

>  <Genealogy>  (65) 
O=C([N-]c1ccccc1N1CCNCC1)c1cc(Cl)c([O-])cc1Cl (protonated)
O=C([N-]c1ccccc1N1CCNCC1)c1cc(Cl)c([O-])cc1Cl (3D coordinates assigned)
O=C([N-]c1ccccc1N1CCNCC1)c1cc(Cl)c([O-])cc1Cl (nonaromatic ring conformer: 58.06933667991207 kcal/mol)

>  <smiles>  (65) 
O=C(Nc1ccccc1N1CCNCC1)c1cc(Cl)c(O)cc1Cl

>  <score_type>  (65) 
oracle

>  <origin>  (65) 
adg

>  <m_score__min__energy>  (65) 
-11.92

>  <m_primary>  (65) 
energy

$$$$
65:0
     RDKit          3D

 34 35  0  0  0  0  0  0  0  0999 V2000
   58.4680   32.6980   51.3350 C   0  0  0  0  0  0  0  0  0  0  0  0
   57.6050   31.6800   52.0220 C   0  0  0  0  0  0  0  0  0  0  0  0
   56.2090   31.8160   52.0150 C   0  0  0  0  0  0  0  0  0  0  0  0
   55.4040   30.8490   52.6240 C   0  0  0  0  0  0  0  0  0  0  0  0
   55.9840   29.7270   53.2300 C   0  0  0  0  0  0  0  0  0  0  0  0
   54.9640   28.5190   54.0020 S   0  0  0  0  0  0  0  0  0  0  0  0
   54.8770   27.2920   53.1390 O   0  0  0  0  0  0  0  0  0  0  0  0
   55.5660   28.1640   55.3330 O   0  0  0  0  0  0  0  0  0  0  0  0
   53.3740   29.1770   54.2200 N   0  0  0  0  0  0  0  0  0  0  0  0
   52.2850   28.9820   53.3110 C   0  0  0  0  0  0  0  0  0  0  0  0
   51.6250   27.9110   53.3750 O   0  0  0  0  0  0  0  0  0  0  0  0
   51.9110   30.0010   52.3090 C   0  0  0  0  0  0  0  0  0  0  0  0
   52.1100   29.7130   50.9500 C   0  0  0  0  0  0  0  0  0  0  0  0
   51.8010   30.6590   49.9730 C   0  0  0  0  0  0  0  0  0  0  0  0
   51.3070   31.9100   50.3400 C   0  0  0  0  0  0  0  0  0  0  0  0
   51.0140   32.8500   49.3600 O   0  0  0  0  0  0  0  0  0  0  0  0
   51.1080   32.2190   51.6920 C   0  0  0  0  0  0  0  0  0  0  0  0
   50.6270   33.4810   52.0340 O   0  0  0  0  0  0  0  0  0  0  0  0
   51.3920   31.2630   52.6900 C   0  0  0  0  0  0  0  0  0  0  0  0
   51.1730   31.6020   54.1440 C   0  0  0  0  0  0  0  0  0  0  0  0
   57.3790   29.5840   53.2290 C   0  0  0  0  0  0  0  0  0  0  0  0
   58.1850   30.5500   52.6200 C   0  0  0  0  0  0  0  0  0  0  0  0
   58.9857   33.3087   52.0893 H   0  0  0  0  0  0  0  0  0  0  0  0
   59.2104   32.1849   50.7061 H   0  0  0  0  0  0  0  0  0  0  0  0
   57.8402   33.3464   50.7061 H   0  0  0  0  0  0  0  0  0  0  0  0
   55.7459   32.6870   51.5284 H   0  0  0  0  0  0  0  0  0  0  0  0
   54.3106   30.9695   52.6274 H   0  0  0  0  0  0  0  0  0  0  0  0
   52.5129   28.7334   50.6531 H   0  0  0  0  0  0  0  0  0  0  0  0
   51.9474   30.4175   48.9099 H   0  0  0  0  0  0  0  0  0  0  0  0
   51.6620   30.8450   54.7747 H   0  0  0  0  0  0  0  0  0  0  0  0
   51.6031   32.5914   54.3586 H   0  0  0  0  0  0  0  0  0  0  0  0
   50.0942   31.6167   54.3586 H   0  0  0  0  0  0  0  0  0  0  0  0
   57.8406   28.7086   53.7092 H   0  0  0  0  0  0  0  0  0  0  0  0
   59.2778   30.4244   52.6092 H   0  0  0  0  0  0  0  0  0  0  0  0
  1  2  1  0
  2  3  2  0
  3  4  1  0
  4  5  2  0
  5  6  1  0
  6  7  2  0
  6  8  2  0
  6  9  1  0
  9 10  1  0
 10 11  2  0
 10 12  1  0
 12 13  2  0
 13 14  1  0
 14 15  2  0
 15 16  1  0
 15 17  1  0
 17 18  1  0
 17 19  2  0
 19 20  1  0
  5 21  1  0
 21 22  2  0
 22  2  1  0
 19 12  1  0
  1 23  1  0
  1 24  1  0
  1 25  1  0
  3 26  1  0
  4 27  1  0
 13 28  1  0
 14 29  1  0
 20 30  1  0
 20 31  1  0
 20 32  1  0
 21 33  1  0
 22 34  1  0
M  CHG  3   9  -1  16  -1  18  -1
M  END
>  <UniqueID>  (66) 
62

>  <SMILES>  (66) 
Cc1ccc(S(=O)(=O)[N-]C(=O)c2ccc([O-])c([O-])c2C)cc1

>  <Energy>  (66) 
44.79247773941586

>  <Genealogy>  (66) 
Cc1ccc(S(=O)(=O)[N-]C(=O)c2ccc([O-])c([O-])c2C)cc1 (protonated)
Cc1ccc(S(=O)(=O)[N-]C(=O)c2ccc([O-])c([O-])c2C)cc1 (3D coordinates assigned)
Cc1ccc(S(=O)(=O)[N-]C(=O)c2ccc([O-])c([O-])c2C)cc1 (optimized conformer: 44.79247773941586 kcal/mol)

>  <smiles>  (66) 
Cc1ccc(S(=O)(=O)NC(=O)c2ccc(O)c(O)c2C)cc1

>  <score_type>  (66) 
oracle

>  <origin>  (66) 
adg

>  <m_score__min__energy>  (66) 
-15.960000000000001

>  <m_primary>  (66) 
energy

$$$$
66:0
     RDKit          3D

 28 29  0  0  0  0  0  0  0  0999 V2000
   55.8720   25.1520   47.1320 O   0  0  0  0  0  0  0  0  0  0  0  0
   56.8240   24.8690   46.3570 C   0  0  0  0  0  0  0  0  0  0  0  0
   58.0020   25.7640   46.3440 C   0  0  0  0  0  0  0  0  0  0  0  0
   58.3240   26.5270   45.2910 C   0  0  0  0  0  0  0  0  0  0  0  0
   57.8070   27.9030   45.0860 C   0  0  0  0  0  0  0  0  0  0  0  0
   58.6440   28.9650   44.6890 C   0  0  0  0  0  0  0  0  0  0  0  0
   58.1160   30.2420   44.4920 C   0  0  0  0  0  0  0  0  0  0  0  0
   56.7500   30.4540   44.6820 C   0  0  0  0  0  0  0  0  0  0  0  0
   56.2570   31.5990   44.5090 O   0  0  0  0  0  0  0  0  0  0  0  0
   55.9480   29.4210   45.0530 N   0  0  0  0  0  0  0  0  0  0  0  0
   56.4340   28.1670   45.2530 C   0  0  0  0  0  0  0  0  0  0  0  0
   55.5580   27.1570   45.6330 O   0  0  0  0  0  0  0  0  0  0  0  0
   56.7080   23.6770   45.4820 C   0  0  0  0  0  0  0  0  0  0  0  0
   56.3030   23.8200   44.1420 C   0  0  0  0  0  0  0  0  0  0  0  0
   56.1670   22.6990   43.3190 C   0  0  0  0  0  0  0  0  0  0  0  0
   56.4230   21.4190   43.8260 C   0  0  0  0  0  0  0  0  0  0  0  0
   56.2910   20.2950   43.0130 O   0  0  0  0  0  0  0  0  0  0  0  0
   56.8140   21.2660   45.1580 C   0  0  0  0  0  0  0  0  0  0  0  0
   56.9540   22.3840   45.9880 C   0  0  0  0  0  0  0  0  0  0  0  0
   57.3510   22.2020   47.3080 O   0  0  0  0  0  0  0  0  0  0  0  0
   58.6414   25.8047   47.2381 H   0  0  0  0  0  0  0  0  0  0  0  0
   59.0088   26.1110   44.5373 H   0  0  0  0  0  0  0  0  0  0  0  0
   59.7183   28.7868   44.5337 H   0  0  0  0  0  0  0  0  0  0  0  0
   58.7703   31.0730   44.1899 H   0  0  0  0  0  0  0  0  0  0  0  0
   56.0919   24.8217   43.7394 H   0  0  0  0  0  0  0  0  0  0  0  0
   55.8581   22.8223   42.2705 H   0  0  0  0  0  0  0  0  0  0  0  0
   56.9390   19.5190   43.0720 H   0  0  0  0  0  0  0  0  0  0  0  0
   57.0131   20.2605   45.5572 H   0  0  0  0  0  0  0  0  0  0  0  0
  1  2  2  0
  2  3  1  0
  3  4  2  3
  4  5  1  0
  5  6  1  0
  6  7  2  0
  7  8  1  0
  8  9  2  0
  8 10  1  0
 10 11  1  0
 11 12  1  0
  2 13  1  0
 13 14  2  0
 14 15  1  0
 15 16  2  0
 16 17  1  0
 16 18  1  0
 18 19  2  0
 19 20  1  0
 11  5  2  0
 19 13  1  0
  3 21  1  0
  4 22  1  0
  6 23  1  0
  7 24  1  0
 14 25  1  0
 15 26  1  0
 17 27  1  0
 18 28  1  0
M  CHG  3  10  -1  12  -1  20  -1
M  END
>  <UniqueID>  (67) 
63

>  <SMILES>  (67) 
O=C(C=Cc1ccc(=O)[n-]c1[O-])c1ccc(O)cc1[O-]

>  <Energy>  (67) 
38.542775023530744

>  <Genealogy>  (67) 
O=C(C=Cc1ccc(=O)[n-]c1[O-])c1ccc(O)cc1[O-] (protonated)
O=C(C=Cc1ccc(=O)[n-]c1[O-])c1ccc(O)cc1[O-] (3D coordinates assigned)
O=C(C=Cc1ccc(=O)[n-]c1[O-])c1ccc(O)cc1[O-] (optimized conformer: 38.542775023530744 kcal/mol)

>  <smiles>  (67) 
O=C(C=Cc1ccc(=O)[nH]c1O)c1ccc(O)cc1O

>  <score_type>  (67) 
oracle

>  <origin>  (67) 
adg

>  <m_score__min__energy>  (67) 
-15.529999999999999

>  <m_primary>  (67) 
energy

$$$$
67:0
     RDKit          3D

 43 45  0  0  0  0  0  0  0  0999 V2000
   59.2760   33.0930   50.2480 C   0  0  0  0  0  0  0  0  0  0  0  0
   59.9520   33.9260   49.3120 O   0  0  0  0  0  0  0  0  0  0  0  0
   61.2550   33.6970   48.8370 C   0  0  0  0  0  0  0  0  0  0  0  0
   62.3920   34.1010   49.5660 C   0  0  0  0  0  0  0  0  0  0  0  0
   63.6740   33.8440   49.0780 C   0  0  0  0  0  0  0  0  0  0  0  0
   63.8410   33.1830   47.8610 C   0  0  0  0  0  0  0  0  0  0  0  0
   62.7250   32.7800   47.1250 C   0  0  0  0  0  0  0  0  0  0  0  0
   61.4270   33.0340   47.6030 C   0  0  0  0  0  0  0  0  0  0  0  0
   60.2550   32.6110   46.7970 C   0  0  0  0  0  0  0  0  0  0  0  0
   59.4320   33.5800   46.2130 C   0  0  0  0  0  0  0  0  0  0  0  0
   58.3470   33.2340   45.4550 N   0  0  0  0  0  0  0  0  0  0  0  0
   57.5320   34.3160   44.8790 C   0  0  0  0  0  0  0  0  0  0  0  0
   58.0390   31.9060   45.2420 C   0  0  0  0  0  0  0  0  0  0  0  0
   56.9290   31.5170   44.4570 C   0  0  0  0  0  0  0  0  0  0  0  0
   56.6310   30.1690   44.2550 C   0  0  0  0  0  0  0  0  0  0  0  0
   57.4200   29.1660   44.8270 C   0  0  0  0  0  0  0  0  0  0  0  0
   57.0740   27.7880   44.5900 N   0  0  0  0  0  0  0  0  0  0  0  0
   56.8260   26.6080   45.8390 S   0  0  0  0  0  0  0  0  0  0  0  0
   57.6740   25.0950   45.4350 C   0  0  0  0  0  0  0  0  0  0  0  0
   55.3560   26.3540   46.0250 O   0  0  0  0  0  0  0  0  0  0  0  0
   57.3910   27.1390   47.1260 O   0  0  0  0  0  0  0  0  0  0  0  0
   58.5330   29.5340   45.5990 C   0  0  0  0  0  0  0  0  0  0  0  0
   58.8480   30.8900   45.8160 C   0  0  0  0  0  0  0  0  0  0  0  0
   59.9590   31.2560   46.5970 C   0  0  0  0  0  0  0  0  0  0  0  0
   60.6820   30.3710   47.1330 O   0  0  0  0  0  0  0  0  0  0  0  0
   59.5315   33.4079   51.2705 H   0  0  0  0  0  0  0  0  0  0  0  0
   58.1897   33.1797   50.0983 H   0  0  0  0  0  0  0  0  0  0  0  0
   59.5845   32.0478   50.0983 H   0  0  0  0  0  0  0  0  0  0  0  0
   62.2678   34.6226   50.5265 H   0  0  0  0  0  0  0  0  0  0  0  0
   64.5548   34.1634   49.6544 H   0  0  0  0  0  0  0  0  0  0  0  0
   64.8529   32.9791   47.4808 H   0  0  0  0  0  0  0  0  0  0  0  0
   62.8619   32.2605   46.1651 H   0  0  0  0  0  0  0  0  0  0  0  0
   59.6626   34.6445   46.3669 H   0  0  0  0  0  0  0  0  0  0  0  0
   57.0848   34.9097   45.6899 H   0  0  0  0  0  0  0  0  0  0  0  0
   58.1685   34.9638   44.2583 H   0  0  0  0  0  0  0  0  0  0  0  0
   56.7337   33.8831   44.2583 H   0  0  0  0  0  0  0  0  0  0  0  0
   56.2916   32.2879   43.9993 H   0  0  0  0  0  0  0  0  0  0  0  0
   55.7639   29.8915   43.6376 H   0  0  0  0  0  0  0  0  0  0  0  0
   56.8710   27.4810   43.6120 H   0  0  0  0  0  0  0  0  0  0  0  0
   57.9636   24.5783   46.3619 H   0  0  0  0  0  0  0  0  0  0  0  0
   57.0076   24.4470   44.8468 H   0  0  0  0  0  0  0  0  0  0  0  0
   58.5746   25.3252   44.8468 H   0  0  0  0  0  0  0  0  0  0  0  0
   59.1685   28.7524   46.0410 H   0  0  0  0  0  0  0  0  0  0  0  0
  1  2  1  0
  2  3  1  0
  3  4  2  0
  4  5  1  0
  5  6  2  0
  6  7  1  0
  7  8  2  0
  8  9  1  0
  9 10  2  0
 10 11  1  0
 11 12  1  0
 11 13  1  0
 13 14  2  0
 14 15  1  0
 15 16  2  0
 16 17  1  0
 17 18  1  0
 18 19  1  0
 18 20  2  0
 18 21  2  0
 16 22  1  0
 22 23  2  0
 23 24  1  0
 24 25  2  0
  8  3  1  0
 24  9  1  0
 23 13  1  0
  1 26  1  0
  1 27  1  0
  1 28  1  0
  4 29  1  0
  5 30  1  0
  6 31  1  0
  7 32  1  0
 10 33  1  0
 12 34  1  0
 12 35  1  0
 12 36  1  0
 14 37  1  0
 15 38  1  0
 17 39  1  0
 19 40  1  0
 19 41  1  0
 19 42  1  0
 22 43  1  0
M  END
>  <UniqueID>  (68) 
64

>  <SMILES>  (68) 
COc1ccccc1-c1cn(C)c2ccc(NS(C)(=O)=O)cc2c1=O

>  <Energy>  (68) 
59.86783792375697

>  <Genealogy>  (68) 
COc1ccccc1-c1cn(C)c2ccc(NS(C)(=O)=O)cc2c1=O (3D coordinates assigned)
COc1ccccc1-c1cn(C)c2ccc(NS(C)(=O)=O)cc2c1=O (optimized conformer: 59.86783792375697 kcal/mol)

>  <smiles>  (68) 
COc1ccccc1-c1cn(C)c2ccc(NS(C)(=O)=O)cc2c1=O

>  <score_type>  (68) 
oracle

>  <origin>  (68) 
adg

>  <m_score__min__energy>  (68) 
-8.6199999999999992

>  <m_primary>  (68) 
energy

$$$$
68:0
     RDKit          3D

 38 40  0  0  0  0  0  0  0  0999 V2000
   55.1640   29.3380   45.1540 N   0  0  0  0  0  0  0  0  0  0  0  0
   56.5120   30.0970   44.3840 S   0  0  0  0  0  0  0  0  0  0  0  0
   56.6010   31.5320   44.8240 O   0  0  0  0  0  0  0  0  0  0  0  0
   56.3270   30.0590   42.8930 O   0  0  0  0  0  0  0  0  0  0  0  0
   57.9900   29.2460   44.8240 C   0  0  0  0  0  0  0  0  0  0  0  0
   59.2390   29.8000   44.5160 C   0  0  0  0  0  0  0  0  0  0  0  0
   60.4120   29.1260   44.8690 C   0  0  0  0  0  0  0  0  0  0  0  0
   60.3430   27.9010   45.5370 C   0  0  0  0  0  0  0  0  0  0  0  0
   59.0980   27.3470   45.8640 C   0  0  0  0  0  0  0  0  0  0  0  0
   59.0060   25.7940   46.6850 S   0  0  0  0  0  0  0  0  0  0  0  0
   60.0760   24.8750   46.1630 O   0  0  0  0  0  0  0  0  0  0  0  0
   59.2280   25.9780   48.1610 O   0  0  0  0  0  0  0  0  0  0  0  0
   57.4160   25.0930   46.4060 C   0  0  0  0  0  0  0  0  0  0  0  0
   56.7460   24.4190   47.4330 C   0  0  0  0  0  0  0  0  0  0  0  0
   55.4930   23.8470   47.2000 C   0  0  0  0  0  0  0  0  0  0  0  0
   54.8970   23.9260   45.9290 C   0  0  0  0  0  0  0  0  0  0  0  0
   53.6000   23.3390   45.6980 N   0  0  0  0  0  0  0  0  0  0  0  0
   52.4940   23.9830   44.9980 C   0  0  0  0  0  0  0  0  0  0  0  0
   51.4000   22.8980   44.8540 C   0  0  0  0  0  0  0  0  0  0  0  0
   51.8810   21.7270   45.5790 N   0  0  0  0  0  0  0  0  0  0  0  0
   53.1750   22.0340   46.0470 C   0  0  0  0  0  0  0  0  0  0  0  0
   53.8490   21.2390   46.7530 O   0  0  0  0  0  0  0  0  0  0  0  0
   55.5730   24.6100   44.9030 C   0  0  0  0  0  0  0  0  0  0  0  0
   56.8260   25.1820   45.1400 C   0  0  0  0  0  0  0  0  0  0  0  0
   57.9220   28.0210   45.5030 C   0  0  0  0  0  0  0  0  0  0  0  0
   54.3780   29.3400   44.4660 H   0  0  0  0  0  0  0  0  0  0  0  0
   59.2972   30.7672   43.9954 H   0  0  0  0  0  0  0  0  0  0  0  0
   61.3912   29.5612   44.6202 H   0  0  0  0  0  0  0  0  0  0  0  0
   61.2679   27.3702   45.8069 H   0  0  0  0  0  0  0  0  0  0  0  0
   57.2079   24.3392   48.4281 H   0  0  0  0  0  0  0  0  0  0  0  0
   54.9684   23.3306   48.0174 H   0  0  0  0  0  0  0  0  0  0  0  0
   52.1148   24.8347   45.5818 H   0  0  0  0  0  0  0  0  0  0  0  0
   52.8071   24.3758   44.0194 H   0  0  0  0  0  0  0  0  0  0  0  0
   50.4538   23.2522   45.2889 H   0  0  0  0  0  0  0  0  0  0  0  0
   51.2107   22.6615   43.7965 H   0  0  0  0  0  0  0  0  0  0  0  0
   55.1127   24.6954   43.9076 H   0  0  0  0  0  0  0  0  0  0  0  0
   57.3512   25.7049   44.3272 H   0  0  0  0  0  0  0  0  0  0  0  0
   56.9428   27.5870   45.7535 H   0  0  0  0  0  0  0  0  0  0  0  0
  1  2  1  0
  2  3  2  0
  2  4  2  0
  2  5  1  0
  5  6  2  0
  6  7  1  0
  7  8  2  0
  8  9  1  0
  9 10  1  0
 10 11  2  0
 10 12  2  0
 10 13  1  0
 13 14  2  0
 14 15  1  0
 15 16  2  0
 16 17  1  0
 17 18  1  0
 18 19  1  0
 19 20  1  0
 20 21  1  0
 21 22  2  0
 16 23  1  0
 23 24  2  0
  9 25  2  0
 25  5  1  0
 24 13  1  0
 21 17  1  0
  1 26  1  0
  6 27  1  0
  7 28  1  0
  8 29  1  0
 14 30  1  0
 15 31  1  0
 18 32  1  0
 18 33  1  0
 19 34  1  0
 19 35  1  0
 23 36  1  0
 24 37  1  0
 25 38  1  0
M  CHG  2   1  -1  20  -1
M  END
>  <UniqueID>  (69) 
65

>  <SMILES>  (69) 
[NH-]S(=O)(=O)c1cccc(S(=O)(=O)c2ccc(N3CC[N-]C3=O)cc2)c1

>  <Energy>  (69) 
58.894352131727736

>  <Genealogy>  (69) 
[NH-]S(=O)(=O)c1cccc(S(=O)(=O)c2ccc(N3CC[N-]C3=O)cc2)c1 (protonated)
[NH-]S(=O)(=O)c1cccc(S(=O)(=O)c2ccc(N3CC[N-]C3=O)cc2)c1 (3D coordinates assigned)
[NH-]S(=O)(=O)c1cccc(S(=O)(=O)c2ccc(N3CC[N-]C3=O)cc2)c1 (nonaromatic ring conformer: 58.894352131727736 kcal/mol)

>  <smiles>  (69) 
NS(=O)(=O)c1cccc(S(=O)(=O)c2ccc(N3CCNC3=O)cc2)c1

>  <score_type>  (69) 
oracle

>  <origin>  (69) 
adg

>  <m_score__min__energy>  (69) 
-11.9

>  <m_primary>  (69) 
energy

$$$$
69:0
     RDKit          3D

 32 33  0  0  1  0  0  0  0  0999 V2000
   61.7070   31.1700   48.0720 O   0  0  0  0  0  0  0  0  0  0  0  0
   60.2510   30.7230   48.1360 S   0  0  0  0  0  0  0  0  0  0  0  0
   60.1490   29.9840   49.4620 O   0  0  0  0  0  0  0  0  0  0  0  0
   59.3230   32.1610   48.2380 N   0  0  0  0  0  0  0  0  0  0  0  0
   59.0080   32.9930   47.1310 C   0  0  0  0  0  0  0  0  0  0  0  0
   57.9200   32.7970   46.3090 C   0  0  0  0  0  0  0  0  0  0  0  0
   57.6240   33.6040   45.2300 C   0  0  0  0  0  0  0  0  0  0  0  0
   58.4370   34.6770   44.9260 C   0  0  0  0  0  0  0  0  0  0  0  0
   59.5370   34.9040   45.7270 C   0  0  0  0  0  0  0  0  0  0  0  0
   59.8200   34.0880   46.8010 C   0  0  0  0  0  0  0  0  0  0  0  0
   60.9000   34.3130   47.5860 F   0  0  0  0  0  0  0  0  0  0  0  0
   59.8470   29.7000   46.8040 C   0  0  0  0  0  0  0  0  0  0  0  0
   60.7370   29.2360   45.8630 C   0  0  0  0  0  0  0  0  0  0  0  0
   60.3230   28.4230   44.8230 C   0  0  0  0  0  0  0  0  0  0  0  0
   59.0040   28.0410   44.6830 C   0  0  0  0  0  0  0  0  0  0  0  0
   58.1080   28.4990   45.6190 C   0  0  0  0  0  0  0  0  0  0  0  0
   56.7020   28.1220   45.5140 C   0  0  0  0  0  0  0  0  0  0  0  0
   55.7390   29.0700   45.1870 O   0  0  0  0  0  0  0  0  0  0  0  0
   56.3490   26.8930   45.7290 N   0  0  0  0  0  0  0  0  0  0  0  0
   55.0630   26.6110   46.1490 O   0  0  0  0  0  0  0  0  0  0  0  0
   58.5150   29.3110   46.6580 C   0  0  0  0  0  0  0  0  0  0  0  0
   58.9500   32.4690   49.1660 H   0  0  0  0  0  0  0  0  0  0  0  0
   57.2509   31.9510   46.5248 H   0  0  0  0  0  0  0  0  0  0  0  0
   56.7394   33.3921   44.6115 H   0  0  0  0  0  0  0  0  0  0  0  0
   58.2145   35.3317   44.0705 H   0  0  0  0  0  0  0  0  0  0  0  0
   60.2008   35.7524   45.5043 H   0  0  0  0  0  0  0  0  0  0  0  0
   61.7978   29.5168   45.9390 H   0  0  0  0  0  0  0  0  0  0  0  0
   61.0636   28.0722   44.0892 H   0  0  0  0  0  0  0  0  0  0  0  0
   58.6821   27.3943   43.8534 H   0  0  0  0  0  0  0  0  0  0  0  0
   54.7680   28.9690   45.4530 H   0  0  0  0  0  0  0  0  0  0  0  0
   54.7990   26.7220   47.1200 H   0  0  0  0  0  0  0  0  0  0  0  0
   57.7710   29.6602   47.3891 H   0  0  0  0  0  0  0  0  0  0  0  0
  1  2  2  0
  2  3  2  0
  2  4  1  0
  4  5  1  0
  5  6  2  0
  6  7  1  0
  7  8  2  0
  8  9  1  0
  9 10  2  0
 10 11  1  0
  2 12  1  0
 12 13  2  0
 13 14  1  0
 14 15  2  0
 15 16  1  0
 16 17  1  0
 17 18  1  0
 17 19  2  0
 19 20  1  0
 16 21  2  0
 10  5  1  0
 21 12  1  0
  4 22  1  0
  6 23  1  0
  7 24  1  0
  8 25  1  0
  9 26  1  0
 13 27  1  0
 14 28  1  0
 15 29  1  0
 18 30  1  0
 20 31  1  0
 21 32  1  0
M  END
>  <smiles>  (70) 
O=S(=O)(Nc1ccccc1F)c1cccc(C(O)=NO)c1

>  <score_type>  (70) 
oracle

>  <origin>  (70) 
adg

>  <m_score__min__energy>  (70) 
-9.1899999999999995

>  <m_primary>  (70) 
energy

$$$$
70:0
     RDKit          3D

 54 56  0  0  0  0  0  0  0  0999 V2000
   65.4650   32.7490   49.7920 C   0  0  0  0  0  0  0  0  0  0  0  0
   64.1020   32.7330   50.2030 O   0  0  0  0  0  0  0  0  0  0  0  0
   63.0320   33.1930   49.4190 C   0  0  0  0  0  0  0  0  0  0  0  0
   61.8130   33.4620   50.0500 C   0  0  0  0  0  0  0  0  0  0  0  0
   60.7180   33.9180   49.3140 C   0  0  0  0  0  0  0  0  0  0  0  0
   60.8290   34.1330   47.9300 C   0  0  0  0  0  0  0  0  0  0  0  0
   59.6340   34.6150   47.1300 C   0  0  0  0  0  0  0  0  0  0  0  0
   59.3390   33.7930   45.9330 N   0  0  0  0  0  0  0  0  0  0  0  0
   58.1050   34.1670   45.2030 C   0  0  0  0  0  0  0  0  0  0  0  0
   56.9610   33.1570   45.4120 C   0  0  0  0  0  0  0  0  0  0  0  0
   57.3700   31.7530   45.1520 N   0  0  0  0  0  0  0  0  0  0  0  0
   56.5900   31.0620   44.1020 C   0  0  0  0  0  0  0  0  0  0  0  0
   56.2410   29.6250   44.4350 C   0  0  0  0  0  0  0  0  0  0  0  0
   55.1440   29.3620   44.9910 O   0  0  0  0  0  0  0  0  0  0  0  0
   57.2150   28.5780   44.3210 N   0  0  0  0  0  0  0  0  0  0  0  0
   57.9960   28.0240   45.3870 C   0  0  0  0  0  0  0  0  0  0  0  0
   58.1700   26.6360   45.5230 C   0  0  0  0  0  0  0  0  0  0  0  0
   58.9050   26.1210   46.5970 C   0  0  0  0  0  0  0  0  0  0  0  0
   59.4550   26.9860   47.5480 C   0  0  0  0  0  0  0  0  0  0  0  0
   59.2560   28.3630   47.4350 C   0  0  0  0  0  0  0  0  0  0  0  0
   59.9880   29.7820   48.7830 S   0  0  0  0  0  0  0  0  0  0  0  0
   60.4020   30.0310   48.8520 F   0  0  0  0  0  0  0  0  0  0  0  0
   61.4290   29.3390   45.6180 F   0  0  0  0  0  0  0  0  0  0  0  0
   61.4120   30.1610   46.4270 F   0  0  0  0  0  0  0  0  0  0  0  0
   60.4560   30.0990   48.8750 F   0  0  0  0  0  0  0  0  0  0  0  0
   54.9320   25.2550   45.9750 F   0  0  0  0  0  0  0  0  0  0  0  0
   58.5190   28.8810   46.3650 C   0  0  0  0  0  0  0  0  0  0  0  0
   58.8250   31.5280   45.0550 C   0  0  0  0  0  0  0  0  0  0  0  0
   59.5430   32.3420   46.1320 C   0  0  0  0  0  0  0  0  0  0  0  0
   62.0470   33.8420   47.2910 C   0  0  0  0  0  0  0  0  0  0  0  0
   63.1410   33.3820   48.0280 C   0  0  0  0  0  0  0  0  0  0  0  0
   66.1154   32.7566   50.6791 H   0  0  0  0  0  0  0  0  0  0  0  0
   65.6769   31.8533   49.1897 H   0  0  0  0  0  0  0  0  0  0  0  0
   65.6558   33.6494   49.1897 H   0  0  0  0  0  0  0  0  0  0  0  0
   61.7164   33.3129   51.1356 H   0  0  0  0  0  0  0  0  0  0  0  0
   59.7611   34.1104   49.8214 H   0  0  0  0  0  0  0  0  0  0  0  0
   58.7507   34.6012   47.7854 H   0  0  0  0  0  0  0  0  0  0  0  0
   59.8785   35.6253   46.7700 H   0  0  0  0  0  0  0  0  0  0  0  0
   57.7722   35.1538   45.5571 H   0  0  0  0  0  0  0  0  0  0  0  0
   58.3450   34.1794   44.1296 H   0  0  0  0  0  0  0  0  0  0  0  0
   56.6121   33.2333   46.4524 H   0  0  0  0  0  0  0  0  0  0  0  0
   56.1671   33.4064   44.6926 H   0  0  0  0  0  0  0  0  0  0  0  0
   55.6536   31.6175   43.9454 H   0  0  0  0  0  0  0  0  0  0  0  0
   57.2231   31.0345   43.2029 H   0  0  0  0  0  0  0  0  0  0  0  0
   57.7273   25.9526   44.7834 H   0  0  0  0  0  0  0  0  0  0  0  0
   59.0501   25.0348   46.6930 H   0  0  0  0  0  0  0  0  0  0  0  0
   60.0440   26.5817   48.3845 H   0  0  0  0  0  0  0  0  0  0  0  0
   58.3492   29.9653   46.2908 H   0  0  0  0  0  0  0  0  0  0  0  0
   59.0405   30.4590   45.1995 H   0  0  0  0  0  0  0  0  0  0  0  0
   59.1781   31.8440   44.0623 H   0  0  0  0  0  0  0  0  0  0  0  0
   59.1496   32.0567   47.1188 H   0  0  0  0  0  0  0  0  0  0  0  0
   60.6205   32.1304   46.0670 H   0  0  0  0  0  0  0  0  0  0  0  0
   62.1392   33.9774   46.2033 H   0  0  0  0  0  0  0  0  0  0  0  0
   64.0921   33.1664   47.5192 H   0  0  0  0  0  0  0  0  0  0  0  0
  1  2  1  0
  2  3  1  0
  3  4  2  0
  4  5  1  0
  5  6  2  0
  6  7  1  0
  7  8  1  0
  8  9  1  0
  9 10  1  0
 10 11  1  0
 11 12  1  0
 12 13  1  0
 13 14  2  0
 13 15  1  0
 15 16  1  0
 16 17  2  0
 17 18  1  0
 18 19  2  0
 19 20  1  0
 20 21  1  0
 21 22  1  0
 21 23  1  0
 21 24  1  0
 21 25  1  0
 21 26  1  0
 20 27  2  0
 11 28  1  0
 28 29  1  0
  6 30  1  0
 30 31  2  0
 31  3  1  0
 29  8  1  0
 27 16  1  0
  1 32  1  0
  1 33  1  0
  1 34  1  0
  4 35  1  0
  5 36  1  0
  7 37  1  0
  7 38  1  0
  9 39  1  0
  9 40  1  0
 10 41  1  0
 10 42  1  0
 12 43  1  0
 12 44  1  0
 17 45  1  0
 18 46  1  0
 19 47  1  0
 27 48  1  0
 28 49  1  0
 28 50  1  0
 29 51  1  0
 29 52  1  0
 30 53  1  0
 31 54  1  0
M  CHG  1  15  -1
M  END
>  <UniqueID>  (71) 
66

>  <SMILES>  (71) 
COc1ccc(CN2CCN(CC(=O)[N-]c3cccc(S(F)(F)(F)(F)F)c3)CC2)cc1

>  <Energy>  (71) 
72.30679006660203

>  <Genealogy>  (71) 
COc1ccc(CN2CCN(CC(=O)[N-]c3cccc(S(F)(F)(F)(F)F)c3)CC2)cc1 (protonated)
COc1ccc(CN2CCN(CC(=O)[N-]c3cccc(S(F)(F)(F)(F)F)c3)CC2)cc1 (3D coordinates assigned)
COc1ccc(CN2CCN(CC(=O)[N-]c3cccc(S(F)(F)(F)(F)F)c3)CC2)cc1 (nonaromatic ring conformer: 72.30679006660203 kcal/mol)

>  <smiles>  (71) 
COc1ccc(CN2CCN(CC(=O)Nc3cccc(S(F)(F)(F)(F)F)c3)CC2)cc1

>  <score_type>  (71) 
oracle

>  <origin>  (71) 
adg

>  <m_score__min__energy>  (71) 
-10.51

>  <m_primary>  (71) 
energy

$$$$
71:0
     RDKit          3D

 28 30  0  0  0  0  0  0  0  0999 V2000
   51.3490   30.2450   48.6920 O   0  0  0  0  0  0  0  0  0  0  0  0
   51.3910   30.8320   49.8040 C   0  0  0  0  0  0  0  0  0  0  0  0
   50.7720   32.0110   50.0270 N   0  0  0  0  0  0  0  0  0  0  0  0
   51.0710   32.2620   51.3120 C   0  0  0  0  0  0  0  0  0  0  0  0
   50.6380   33.3870   52.0020 O   0  0  0  0  0  0  0  0  0  0  0  0
   51.8540   31.2540   51.8220 C   0  0  0  0  0  0  0  0  0  0  0  0
   52.3660   31.1390   53.2260 C   0  0  0  0  0  0  0  0  0  0  0  0
   53.2580   30.0310   53.3460 O   0  0  0  0  0  0  0  0  0  0  0  0
   54.6230   30.0470   53.0120 C   0  0  0  0  0  0  0  0  0  0  0  0
   55.3750   28.8950   53.2610 C   0  0  0  0  0  0  0  0  0  0  0  0
   56.7360   28.8490   52.9460 C   0  0  0  0  0  0  0  0  0  0  0  0
   57.3700   29.9660   52.3740 C   0  0  0  0  0  0  0  0  0  0  0  0
   58.7400   29.9530   52.0430 C   0  0  0  0  0  0  0  0  0  0  0  0
   59.4390   28.9240   52.2550 O   0  0  0  0  0  0  0  0  0  0  0  0
   59.3210   31.0580   51.4890 N   0  0  0  0  0  0  0  0  0  0  0  0
   60.6600   31.0320   51.1710 O   0  0  0  0  0  0  0  0  0  0  0  0
   58.6040   32.1910   51.2440 C   0  0  0  0  0  0  0  0  0  0  0  0
   59.2240   33.3000   50.6790 O   0  0  0  0  0  0  0  0  0  0  0  0
   57.2450   32.2490   51.5560 C   0  0  0  0  0  0  0  0  0  0  0  0
   56.6180   31.1350   52.1230 C   0  0  0  0  0  0  0  0  0  0  0  0
   55.2520   31.1720   52.4450 C   0  0  0  0  0  0  0  0  0  0  0  0
   52.0560   30.3300   50.8670 N   0  0  0  0  0  0  0  0  0  0  0  0
   52.8994   32.0632   53.4932 H   0  0  0  0  0  0  0  0  0  0  0  0
   51.5132   30.9828   53.9030 H   0  0  0  0  0  0  0  0  0  0  0  0
   54.8904   28.0153   53.7097 H   0  0  0  0  0  0  0  0  0  0  0  0
   57.3137   27.9347   53.1465 H   0  0  0  0  0  0  0  0  0  0  0  0
   56.6704   33.1656   51.3571 H   0  0  0  0  0  0  0  0  0  0  0  0
   54.6696   32.0853   52.2532 H   0  0  0  0  0  0  0  0  0  0  0  0
  1  2  2  0
  2  3  1  0
  3  4  1  0
  4  5  1  0
  4  6  2  0
  6  7  1  0
  7  8  1  0
  8  9  1  0
  9 10  2  0
 10 11  1  0
 11 12  2  0
 12 13  1  0
 13 14  2  0
 13 15  1  0
 15 16  1  0
 15 17  1  0
 17 18  1  0
 17 19  2  0
 19 20  1  0
 20 21  2  0
  6 22  1  0
 22  2  1  0
 21  9  1  0
 20 12  1  0
  7 23  1  0
  7 24  1  0
 10 25  1  0
 11 26  1  0
 19 27  1  0
 21 28  1  0
M  CHG  5   3  -1   5  -1  16  -1  18  -1  22  -1
M  END
>  <UniqueID>  (72) 
67

>  <SMILES>  (72) 
O=c1[n-]c([O-])c(COc2ccc3c(=O)n([O-])c([O-])cc3c2)[n-]1

>  <Energy>  (72) 
65.18776963303468

>  <Genealogy>  (72) 
O=c1[n-]c([O-])c(COc2ccc3c(=O)n([O-])c([O-])cc3c2)[n-]1 (protonated)
O=c1[n-]c([O-])c(COc2ccc3c(=O)n([O-])c([O-])cc3c2)[n-]1 (3D coordinates assigned)
O=c1[n-]c([O-])c(COc2ccc3c(=O)n([O-])c([O-])cc3c2)[n-]1 (optimized conformer: 65.18776963303468 kcal/mol)

>  <smiles>  (72) 
O=c1[nH]c(O)c(COc2ccc3c(=O)n(O)c(O)cc3c2)[nH]1

>  <score_type>  (72) 
oracle

>  <origin>  (72) 
adg

>  <m_score__min__energy>  (72) 
-16.899999999999999

>  <m_primary>  (72) 
energy

$$$$
72:0
     RDKit          3D

 71 75  0  0  0  0  0  0  0  0999 V2000
   60.0748   30.8096   45.0888 H   0  0  0  0  0  0  0  0  0  0  0  0
   60.3090   30.1720   45.9540 C   0  0  0  0  0  0  0  0  0  0  0  0
   60.9180   30.7850   47.1480 C   0  0  0  0  0  0  0  0  0  0  0  0
   62.1730   30.7520   47.2670 O   0  0  0  0  0  0  0  0  0  0  0  0
   60.1220   31.4030   48.1760 N   0  0  0  0  0  0  0  0  0  0  0  0
   60.8170   32.0060   49.2800 C   0  0  0  0  0  0  0  0  0  0  0  0
   61.4250   33.2630   49.1270 C   0  0  0  0  0  0  0  0  0  0  0  0
   61.3630   33.7882   48.1625 H   0  0  0  0  0  0  0  0  0  0  0  0
   62.1090   33.8490   50.1970 C   0  0  0  0  0  0  0  0  0  0  0  0
   62.7020   35.0580   50.0450 F   0  0  0  0  0  0  0  0  0  0  0  0
   62.1830   33.1860   51.4260 C   0  0  0  0  0  0  0  0  0  0  0  0
   62.7214   33.6473   52.2670 H   0  0  0  0  0  0  0  0  0  0  0  0
   61.5740   31.9380   51.5880 C   0  0  0  0  0  0  0  0  0  0  0  0
   61.6279   31.4232   52.5586 H   0  0  0  0  0  0  0  0  0  0  0  0
   60.8950   31.3410   50.5170 C   0  0  0  0  0  0  0  0  0  0  0  0
   60.2450   30.0800   50.7070 N   0  0  0  0  0  0  0  0  0  0  0  0
   60.5620   29.2810   50.1110 H   0  0  0  0  0  0  0  0  0  0  0  0
   59.1720   29.8810   51.6440 C   0  0  0  0  0  0  0  0  0  0  0  0
   59.4150   29.1590   52.8220 C   0  0  0  0  0  0  0  0  0  0  0  0
   60.4145   28.7401   53.0104 H   0  0  0  0  0  0  0  0  0  0  0  0
   58.3950   28.9690   53.7570 C   0  0  0  0  0  0  0  0  0  0  0  0
   58.6008   28.4255   54.6909 H   0  0  0  0  0  0  0  0  0  0  0  0
   57.1160   29.4670   53.5090 C   0  0  0  0  0  0  0  0  0  0  0  0
   56.3159   29.3119   54.2478 H   0  0  0  0  0  0  0  0  0  0  0  0
   56.8440   30.1650   52.3220 C   0  0  0  0  0  0  0  0  0  0  0  0
   55.4480   30.6610   52.0320 C   0  0  0  0  0  0  0  0  0  0  0  0
   55.1817   31.4253   52.7770 H   0  0  0  0  0  0  0  0  0  0  0  0
   55.4417   31.0758   51.0132 H   0  0  0  0  0  0  0  0  0  0  0  0
   54.4080   29.5320   52.0880 C   0  0  0  0  0  0  0  0  0  0  0  0
   54.3292   29.0730   51.0914 H   0  0  0  0  0  0  0  0  0  0  0  0
   54.7422   28.8015   52.8395 H   0  0  0  0  0  0  0  0  0  0  0  0
   53.0450   30.0330   52.5020 C   0  0  0  0  0  0  0  0  0  0  0  0
   52.3180   29.3680   53.5040 C   0  0  0  0  0  0  0  0  0  0  0  0
   52.7437   28.4774   53.9894 H   0  0  0  0  0  0  0  0  0  0  0  0
   51.0560   29.8330   53.8870 C   0  0  0  0  0  0  0  0  0  0  0  0
   50.4961   29.3127   54.6780 H   0  0  0  0  0  0  0  0  0  0  0  0
   50.5050   30.9570   53.2670 C   0  0  0  0  0  0  0  0  0  0  0  0
   49.5099   31.3178   53.5663 H   0  0  0  0  0  0  0  0  0  0  0  0
   51.2190   31.6240   52.2650 C   0  0  0  0  0  0  0  0  0  0  0  0
   50.6720   32.7410   51.6460 O   0  0  0  0  0  0  0  0  0  0  0  0
   52.4870   31.1670   51.8870 C   0  0  0  0  0  0  0  0  0  0  0  0
   53.0494   31.6980   51.1049 H   0  0  0  0  0  0  0  0  0  0  0  0
   57.8820   30.3930   51.4050 C   0  0  0  0  0  0  0  0  0  0  0  0
   57.6864   30.9759   50.4929 H   0  0  0  0  0  0  0  0  0  0  0  0
   58.7450   31.8130   47.8640 C   0  0  0  0  0  0  0  0  0  0  0  0
   58.1896   30.9409   47.4885 H   0  0  0  0  0  0  0  0  0  0  0  0
   58.2868   32.2053   48.7838 H   0  0  0  0  0  0  0  0  0  0  0  0
   58.7110   32.9020   46.8190 C   0  0  0  0  0  0  0  0  0  0  0  0
   59.4970   34.0570   46.9690 C   0  0  0  0  0  0  0  0  0  0  0  0
   60.1173   34.1843   47.8684 H   0  0  0  0  0  0  0  0  0  0  0  0
   59.4940   35.0450   45.9800 C   0  0  0  0  0  0  0  0  0  0  0  0
   60.1113   35.9471   46.1028 H   0  0  0  0  0  0  0  0  0  0  0  0
   58.7080   34.8880   44.8360 C   0  0  0  0  0  0  0  0  0  0  0  0
   58.7067   35.6662   44.0586 H   0  0  0  0  0  0  0  0  0  0  0  0
   57.9230   33.7420   44.6790 C   0  0  0  0  0  0  0  0  0  0  0  0
   57.3034   33.6202   43.7783 H   0  0  0  0  0  0  0  0  0  0  0  0
   57.9240   32.7510   45.6640 C   0  0  0  0  0  0  0  0  0  0  0  0
   57.3069   31.8496   45.5352 H   0  0  0  0  0  0  0  0  0  0  0  0
   60.0320   28.8650   45.8890 C   0  0  0  0  0  0  0  0  0  0  0  0
   60.8811   28.1695   45.8166 H   0  0  0  0  0  0  0  0  0  0  0  0
   58.6670   28.2800   45.9070 C   0  0  0  0  0  0  0  0  0  0  0  0
   58.5060   26.9880   46.4430 C   0  0  0  0  0  0  0  0  0  0  0  0
   59.3768   26.4593   46.8580 H   0  0  0  0  0  0  0  0  0  0  0  0
   57.2540   26.3700   46.4540 C   0  0  0  0  0  0  0  0  0  0  0  0
   57.1432   25.3616   46.8792 H   0  0  0  0  0  0  0  0  0  0  0  0
   56.1420   27.0300   45.9260 C   0  0  0  0  0  0  0  0  0  0  0  0
   54.9020   26.4030   45.9230 O   0  0  0  0  0  0  0  0  0  0  0  0
   56.2800   28.3180   45.4000 C   0  0  0  0  0  0  0  0  0  0  0  0
   55.1730   28.9800   44.8830 O   0  0  0  0  0  0  0  0  0  0  0  0
   57.5320   28.9440   45.3920 C   0  0  0  0  0  0  0  0  0  0  0  0
   57.6324   29.9597   44.9819 H   0  0  0  0  0  0  0  0  0  0  0  0
  1  2  1  0
  2  3  1  0
  3  4  2  0
  3  5  1  0
  5  6  1  0
  6  7  2  0
  7  8  1  0
  7  9  1  0
  9 10  1  0
  9 11  2  0
 11 12  1  0
 11 13  1  0
 13 14  1  0
 13 15  2  0
 15 16  1  0
 16 17  1  0
 16 18  1  0
 18 19  2  0
 19 20  1  0
 19 21  1  0
 21 22  1  0
 21 23  2  0
 23 24  1  0
 23 25  1  0
 25 26  1  0
 26 27  1  0
 26 28  1  0
 26 29  1  0
 29 30  1  0
 29 31  1  0
 29 32  1  0
 32 33  2  0
 33 34  1  0
 33 35  1  0
 35 36  1  0
 35 37  2  0
 37 38  1  0
 37 39  1  0
 39 40  1  0
 39 41  2  0
 41 42  1  0
 25 43  2  0
 43 44  1  0
  5 45  1  0
 45 46  1  0
 45 47  1  0
 45 48  1  0
 48 49  2  0
 49 50  1  0
 49 51  1  0
 51 52  1  0
 51 53  2  0
 53 54  1  0
 53 55  1  0
 55 56  1  0
 55 57  2  0
 57 58  1  0
  2 59  2  0
 59 60  1  0
 59 61  1  0
 61 62  2  0
 62 63  1  0
 62 64  1  0
 64 65  1  0
 64 66  2  0
 66 67  1  0
 66 68  1  0
 68 69  1  0
 68 70  2  0
 70 71  1  0
 15  6  1  0
 43 18  1  0
 57 48  1  0
 70 61  1  0
 41 32  1  0
M  CHG  3  40  -1  67  -1  69  -1
M  END
>  <UniqueID>  (73) 
68

>  <SMILES>  (73) 
O=C(/C=C/c1ccc([O-])c([O-])c1)N(Cc1ccccc1)c1cc(F)ccc1Nc1cccc(CCc2cccc([O-])c2)c1

>  <Energy>  (73) 
86.33206335426897

>  <Genealogy>  (73) 
O=C(C=Cc1ccc([O-])c([O-])c1)N(Cc1ccccc1)c1cc(F)ccc1Nc1cccc(CCc2cccc([O-])c2)c1 (protonated)
O=C(/C=C/c1ccc([O-])c([O-])c1)N(Cc1ccccc1)c1cc(F)ccc1Nc1cccc(CCc2cccc([O-])c2)c1 (cis-trans isomerization)
O=C(/C=C/c1ccc([O-])c([O-])c1)N(Cc1ccccc1)c1cc(F)ccc1Nc1cccc(CCc2cccc([O-])c2)c1 (3D coordinates assigned)
O=C(/C=C/c1ccc([O-])c([O-])c1)N(Cc1ccccc1)c1cc(F)ccc1Nc1cccc(CCc2cccc([O-])c2)c1 (optimized conformer: 86.33206335426897 kcal/mol)

>  <smiles>  (73) 
O=C(C=Cc1ccc(O)c(O)c1)N(Cc1ccccc1)c1cc(F)ccc1Nc1cccc(CCc2cccc(O)c2)c1

>  <score_type>  (73) 
oracle

>  <origin>  (73) 
adg

>  <m_score__min__energy>  (73) 
-23.190000000000001

>  <m_primary>  (73) 
energy

$$$$
73:0
     RDKit          3D

 38 40  0  0  0  0  0  0  0  0999 V2000
   53.4150   25.2320   45.6150 O   0  0  0  0  0  0  0  0  0  0  0  0
   54.6560   25.4410   45.6160 C   0  0  0  0  0  0  0  0  0  0  0  0
   55.1430   26.6820   46.0120 O   0  0  0  0  0  0  0  0  0  0  0  0
   55.6020   24.3630   45.1890 C   0  0  0  0  0  0  0  0  0  0  0  0
   56.0770   23.5770   46.3750 C   0  0  0  0  0  0  0  0  0  0  0  0
   55.2260   22.9720   47.2270 N   0  0  0  0  0  0  0  0  0  0  0  0
   56.0380   22.4300   48.1550 C   0  0  0  0  0  0  0  0  0  0  0  0
   55.6060   21.7680   49.1320 O   0  0  0  0  0  0  0  0  0  0  0  0
   57.3500   22.6580   47.9540 N   0  0  0  0  0  0  0  0  0  0  0  0
   57.3790   23.3920   46.8250 C   0  0  0  0  0  0  0  0  0  0  0  0
   58.6380   23.8820   46.2330 C   0  0  0  0  0  0  0  0  0  0  0  0
   59.3710   23.0730   45.6030 O   0  0  0  0  0  0  0  0  0  0  0  0
   59.0550   25.2410   46.4100 N   0  0  0  0  0  0  0  0  0  0  0  0
   58.5080   26.3950   45.7540 C   0  0  0  0  0  0  0  0  0  0  0  0
   58.3340   26.4480   44.3600 C   0  0  0  0  0  0  0  0  0  0  0  0
   57.7790   27.5830   43.7620 C   0  0  0  0  0  0  0  0  0  0  0  0
   57.3820   28.6740   44.5480 C   0  0  0  0  0  0  0  0  0  0  0  0
   56.6750   30.1020   43.8030 S   0  0  0  0  0  0  0  0  0  0  0  0
   56.2310   29.7780   42.4040 O   0  0  0  0  0  0  0  0  0  0  0  0
   55.4980   30.5530   44.6210 O   0  0  0  0  0  0  0  0  0  0  0  0
   57.8700   31.3610   43.7410 N   0  0  0  0  0  0  0  0  0  0  0  0
   58.0080   32.2690   44.6560 C   0  0  0  0  0  0  0  0  0  0  0  0
   57.6240   32.0340   45.9420 N   0  0  0  0  0  0  0  0  0  0  0  0
   57.7690   32.9850   46.9020 C   0  0  0  0  0  0  0  0  0  0  0  0
   58.3190   34.2220   46.5760 C   0  0  0  0  0  0  0  0  0  0  0  0
   58.7090   34.4490   45.2560 C   0  0  0  0  0  0  0  0  0  0  0  0
   58.5480   33.4720   44.3250 N   0  0  0  0  0  0  0  0  0  0  0  0
   57.5260   28.6090   45.9400 C   0  0  0  0  0  0  0  0  0  0  0  0
   58.0790   27.4730   46.5380 C   0  0  0  0  0  0  0  0  0  0  0  0
   55.0880   23.6871   44.4897 H   0  0  0  0  0  0  0  0  0  0  0  0
   56.4712   24.8272   44.7001 H   0  0  0  0  0  0  0  0  0  0  0  0
   58.6358   25.5929   43.7374 H   0  0  0  0  0  0  0  0  0  0  0  0
   57.6532   27.6204   42.6699 H   0  0  0  0  0  0  0  0  0  0  0  0
   57.4524   32.7779   47.9349 H   0  0  0  0  0  0  0  0  0  0  0  0
   58.4431   35.0021   47.3416 H   0  0  0  0  0  0  0  0  0  0  0  0
   59.1460   35.4169   44.9692 H   0  0  0  0  0  0  0  0  0  0  0  0
   57.2028   29.4548   46.5646 H   0  0  0  0  0  0  0  0  0  0  0  0
   58.1779   27.4255   47.6325 H   0  0  0  0  0  0  0  0  0  0  0  0
  1  2  2  0
  2  3  1  0
  2  4  1  0
  4  5  1  0
  5  6  1  0
  6  7  1  0
  7  8  2  0
  7  9  1  0
  9 10  1  0
 10 11  1  0
 11 12  2  0
 11 13  1  0
 13 14  1  0
 14 15  2  0
 15 16  1  0
 16 17  2  0
 17 18  1  0
 18 19  2  0
 18 20  2  0
 18 21  1  0
 21 22  2  3
 22 23  1  0
 23 24  2  0
 24 25  1  0
 25 26  2  0
 26 27  1  0
 17 28  1  0
 28 29  2  0
 10  5  2  0
 29 14  1  0
 27 22  1  0
  4 30  1  0
  4 31  1  0
 15 32  1  0
 16 33  1  0
 24 34  1  0
 25 35  1  0
 26 36  1  0
 28 37  1  0
 29 38  1  0
M  CHG  5   3  -1   6  -1   9  -1  13  -1  27  -1
M  END
>  <UniqueID>  (74) 
69

>  <SMILES>  (74) 
O=C([O-])Cc1[n-]c(=O)[n-]c1C(=O)[N-]c1ccc(S(=O)(=O)N=c2nccc[n-]2)cc1

>  <Energy>  (74) 
75.9387460555923

>  <Genealogy>  (74) 
O=C([O-])Cc1[n-]c(=O)[n-]c1C(=O)[N-]c1ccc(S(=O)(=O)N=c2nccc[n-]2)cc1 (protonated)
O=C([O-])Cc1[n-]c(=O)[n-]c1C(=O)[N-]c1ccc(S(=O)(=O)N=c2nccc[n-]2)cc1 (3D coordinates assigned)
O=C([O-])Cc1[n-]c(=O)[n-]c1C(=O)[N-]c1ccc(S(=O)(=O)N=c2nccc[n-]2)cc1 (optimized conformer: 75.9387460555923 kcal/mol)

>  <smiles>  (74) 
O=C(O)Cc1[nH]c(=O)[nH]c1C(=O)Nc1ccc(S(=O)(=O)N=c2nccc[nH]2)cc1

>  <score_type>  (74) 
oracle

>  <origin>  (74) 
adg

>  <m_score__min__energy>  (74) 
-16.699999999999999

>  <m_primary>  (74) 
energy

$$$$
74:0
     RDKit          3D

 39 41  0  0  0  0  0  0  0  0999 V2000
   58.1950   27.9220   44.0250 C   0  0  0  0  0  0  0  0  0  0  0  0
   59.0870   29.0500   44.4960 C   0  0  0  0  0  0  0  0  0  0  0  0
   58.3420   29.9930   45.4230 C   0  0  0  0  0  0  0  0  0  0  0  0
   57.0580   30.8240   44.5190 S   0  0  0  0  0  0  0  0  0  0  0  0
   57.4380   31.0140   43.0790 O   0  0  0  0  0  0  0  0  0  0  0  0
   55.7760   30.0520   44.6410 O   0  0  0  0  0  0  0  0  0  0  0  0
   56.7690   32.4090   45.1790 N   0  0  0  0  0  0  0  0  0  0  0  0
   57.8440   33.3050   45.4440 C   0  0  0  0  0  0  0  0  0  0  0  0
   58.1720   34.3560   44.6150 C   0  0  0  0  0  0  0  0  0  0  0  0
   59.2140   35.2250   44.8710 C   0  0  0  0  0  0  0  0  0  0  0  0
   59.9490   35.0190   46.0090 C   0  0  0  0  0  0  0  0  0  0  0  0
   59.6400   33.9620   46.8670 C   0  0  0  0  0  0  0  0  0  0  0  0
   60.4860   33.8350   48.0490 C   0  0  0  0  0  0  0  0  0  0  0  0
   60.1570   33.9350   49.3820 C   0  0  0  0  0  0  0  0  0  0  0  0
   61.2910   33.7400   50.0940 N   0  0  0  0  0  0  0  0  0  0  0  0
   62.3240   33.5200   49.2580 C   0  0  0  0  0  0  0  0  0  0  0  0
   63.6820   33.2670   49.4410 C   0  0  0  0  0  0  0  0  0  0  0  0
   64.1440   33.2120   50.5900 O   0  0  0  0  0  0  0  0  0  0  0  0
   64.5190   33.0790   48.3970 N   0  0  0  0  0  0  0  0  0  0  0  0
   64.0080   33.1400   47.1460 C   0  0  0  0  0  0  0  0  0  0  0  0
   62.6940   33.3850   46.9490 N   0  0  0  0  0  0  0  0  0  0  0  0
   61.8400   33.5760   47.9720 C   0  0  0  0  0  0  0  0  0  0  0  0
   58.5950   33.0960   46.6030 C   0  0  0  0  0  0  0  0  0  0  0  0
   57.7786   27.3955   44.8965 H   0  0  0  0  0  0  0  0  0  0  0  0
   57.3745   28.3324   43.4181 H   0  0  0  0  0  0  0  0  0  0  0  0
   58.7835   27.2182   43.4181 H   0  0  0  0  0  0  0  0  0  0  0  0
   59.9478   28.6254   45.0333 H   0  0  0  0  0  0  0  0  0  0  0  0
   59.4196   29.6198   43.6158 H   0  0  0  0  0  0  0  0  0  0  0  0
   57.8961   29.4188   46.2485 H   0  0  0  0  0  0  0  0  0  0  0  0
   59.0434   30.7366   45.8293 H   0  0  0  0  0  0  0  0  0  0  0  0
   55.8100   32.7550   45.4010 H   0  0  0  0  0  0  0  0  0  0  0  0
   57.5742   34.5101   43.7046 H   0  0  0  0  0  0  0  0  0  0  0  0
   59.4459   36.0535   44.1856 H   0  0  0  0  0  0  0  0  0  0  0  0
   60.7871   35.6902   46.2478 H   0  0  0  0  0  0  0  0  0  0  0  0
   59.1566   34.1363   49.7927 H   0  0  0  0  0  0  0  0  0  0  0  0
   61.3740   33.7540   51.1370 H   0  0  0  0  0  0  0  0  0  0  0  0
   65.5350   32.8910   48.5700 H   0  0  0  0  0  0  0  0  0  0  0  0
   64.6692   32.9886   46.2800 H   0  0  0  0  0  0  0  0  0  0  0  0
   58.3617   32.2661   47.2862 H   0  0  0  0  0  0  0  0  0  0  0  0
  1  2  1  0
  2  3  1  0
  3  4  1  0
  4  5  2  0
  4  6  2  0
  4  7  1  0
  7  8  1  0
  8  9  2  0
  9 10  1  0
 10 11  2  0
 11 12  1  0
 12 13  1  0
 13 14  2  0
 14 15  1  0
 15 16  1  0
 16 17  1  0
 17 18  2  0
 17 19  1  0
 19 20  1  0
 20 21  2  0
 21 22  1  0
 12 23  2  0
 23  8  1  0
 22 13  1  0
 22 16  2  0
  1 24  1  0
  1 25  1  0
  1 26  1  0
  2 27  1  0
  2 28  1  0
  3 29  1  0
  3 30  1  0
  7 31  1  0
  9 32  1  0
 10 33  1  0
 11 34  1  0
 14 35  1  0
 15 36  1  0
 19 37  1  0
 20 38  1  0
 23 39  1  0
M  END
>  <smiles>  (75) 
CCCS(=O)(=O)Nc1cccc(-c2c[nH]c3c(=O)[nH]cnc23)c1

>  <score_type>  (75) 
oracle

>  <origin>  (75) 
adg

>  <m_score__min__energy>  (75) 
-8.3200000000000003

>  <m_primary>  (75) 
energy

$$$$
75:0
     RDKit          3D

 53 56  0  0  0  0  0  0  0  0999 V2000
   57.4680   28.4910   43.5820 O   0  0  0  0  0  0  0  0  0  0  0  0
   56.9530   28.7390   44.7070 C   0  0  0  0  0  0  0  0  0  0  0  0
   56.5600   30.0740   45.0460 N   0  0  0  0  0  0  0  0  0  0  0  0
   57.3230   31.2690   44.8300 C   0  0  0  0  0  0  0  0  0  0  0  0
   57.3880   31.8980   43.5720 C   0  0  0  0  0  0  0  0  0  0  0  0
   58.1500   33.0570   43.4040 C   0  0  0  0  0  0  0  0  0  0  0  0
   58.8630   33.5910   44.4790 C   0  0  0  0  0  0  0  0  0  0  0  0
   58.8340   32.9550   45.7270 C   0  0  0  0  0  0  0  0  0  0  0  0
   59.7460   33.6140   47.0830 S   0  0  0  0  0  0  0  0  0  0  0  0
   58.8290   34.3340   48.0320 O   0  0  0  0  0  0  0  0  0  0  0  0
   60.7660   34.5810   46.5560 O   0  0  0  0  0  0  0  0  0  0  0  0
   60.5630   32.3450   47.9390 N   0  0  0  0  0  0  0  0  0  0  0  0
   60.2140   30.9550   47.8940 C   0  0  0  0  0  0  0  0  0  0  0  0
   60.7470   30.0820   46.9260 C   0  0  0  0  0  0  0  0  0  0  0  0
   60.3850   28.7310   46.9230 C   0  0  0  0  0  0  0  0  0  0  0  0
   59.4890   28.2420   47.8770 C   0  0  0  0  0  0  0  0  0  0  0  0
   58.9520   29.1030   48.8360 C   0  0  0  0  0  0  0  0  0  0  0  0
   59.3140   30.4550   48.8460 C   0  0  0  0  0  0  0  0  0  0  0  0
   58.7880   31.2790   49.7880 F   0  0  0  0  0  0  0  0  0  0  0  0
   58.0660   31.7940   45.8960 C   0  0  0  0  0  0  0  0  0  0  0  0
   56.6620   27.6730   45.6200 N   0  0  0  0  0  0  0  0  0  0  0  0
   57.1810   26.3370   45.4960 C   0  0  0  0  0  0  0  0  0  0  0  0
   58.5400   26.0520   45.7210 C   0  0  0  0  0  0  0  0  0  0  0  0
   59.0140   24.7420   45.6190 C   0  0  0  0  0  0  0  0  0  0  0  0
   58.1380   23.6970   45.2980 C   0  0  0  0  0  0  0  0  0  0  0  0
   58.7450   22.0480   45.1920 S   0  0  0  0  0  0  0  0  0  0  0  0
   58.5110   21.4830   43.8180 O   0  0  0  0  0  0  0  0  0  0  0  0
   60.2240   22.0480   45.4570 O   0  0  0  0  0  0  0  0  0  0  0  0
   57.9550   21.0540   46.3740 N   0  0  0  0  0  0  0  0  0  0  0  0
   56.9010   21.4200   47.0380 C   0  0  0  0  0  0  0  0  0  0  0  0
   55.6530   21.2690   46.5120 N   0  0  0  0  0  0  0  0  0  0  0  0
   54.5500   21.6530   47.2030 C   0  0  0  0  0  0  0  0  0  0  0  0
   54.6860   22.2110   48.4730 C   0  0  0  0  0  0  0  0  0  0  0  0
   55.9680   22.3590   48.9980 C   0  0  0  0  0  0  0  0  0  0  0  0
   57.0480   21.9620   48.2750 N   0  0  0  0  0  0  0  0  0  0  0  0
   56.7790   23.9720   45.0970 C   0  0  0  0  0  0  0  0  0  0  0  0
   56.3040   25.2820   45.2020 C   0  0  0  0  0  0  0  0  0  0  0  0
   56.8371   31.4756   42.7187 H   0  0  0  0  0  0  0  0  0  0  0  0
   58.1883   33.5503   42.4216 H   0  0  0  0  0  0  0  0  0  0  0  0
   59.4485   34.5127   44.3459 H   0  0  0  0  0  0  0  0  0  0  0  0
   61.4496   30.4635   46.1705 H   0  0  0  0  0  0  0  0  0  0  0  0
   60.8068   28.0517   46.1676 H   0  0  0  0  0  0  0  0  0  0  0  0
   59.2067   27.1789   47.8725 H   0  0  0  0  0  0  0  0  0  0  0  0
   58.2436   28.7184   49.5845 H   0  0  0  0  0  0  0  0  0  0  0  0
   58.0466   31.2908   46.8740 H   0  0  0  0  0  0  0  0  0  0  0  0
   55.9710   27.8650   46.3800 H   0  0  0  0  0  0  0  0  0  0  0  0
   59.2337   26.8658   45.9789 H   0  0  0  0  0  0  0  0  0  0  0  0
   60.0795   24.5301   45.7914 H   0  0  0  0  0  0  0  0  0  0  0  0
   53.5506   21.5242   46.7618 H   0  0  0  0  0  0  0  0  0  0  0  0
   53.8024   22.5269   49.0470 H   0  0  0  0  0  0  0  0  0  0  0  0
   56.1060   22.7971   49.9975 H   0  0  0  0  0  0  0  0  0  0  0  0
   56.0839   23.1543   44.8558 H   0  0  0  0  0  0  0  0  0  0  0  0
   55.2337   25.4878   45.0529 H   0  0  0  0  0  0  0  0  0  0  0  0
  1  2  2  0
  2  3  1  0
  3  4  1  0
  4  5  2  0
  5  6  1  0
  6  7  2  0
  7  8  1  0
  8  9  1  0
  9 10  2  0
  9 11  2  0
  9 12  1  0
 12 13  1  0
 13 14  2  0
 14 15  1  0
 15 16  2  0
 16 17  1  0
 17 18  2  0
 18 19  1  0
  8 20  2  0
  2 21  1  0
 21 22  1  0
 22 23  2  0
 23 24  1  0
 24 25  2  0
 25 26  1  0
 26 27  2  0
 26 28  2  0
 26 29  1  0
 29 30  2  3
 30 31  1  0
 31 32  2  0
 32 33  1  0
 33 34  2  0
 34 35  1  0
 25 36  1  0
 36 37  2  0
 20  4  1  0
 37 22  1  0
 18 13  1  0
 35 30  1  0
  5 38  1  0
  6 39  1  0
  7 40  1  0
 14 41  1  0
 15 42  1  0
 16 43  1  0
 17 44  1  0
 20 45  1  0
 21 46  1  0
 23 47  1  0
 24 48  1  0
 32 49  1  0
 33 50  1  0
 34 51  1  0
 36 52  1  0
 37 53  1  0
M  CHG  3   3  -1  12  -1  35  -1
M  END
>  <UniqueID>  (76) 
70

>  <SMILES>  (76) 
O=C([N-]c1cccc(S(=O)(=O)[N-]c2ccccc2F)c1)Nc1ccc(S(=O)(=O)N=c2nccc[n-]2)cc1

>  <Energy>  (76) 
71.9349389968802

>  <Genealogy>  (76) 
O=C([N-]c1cccc(S(=O)(=O)[N-]c2ccccc2F)c1)Nc1ccc(S(=O)(=O)N=c2nccc[n-]2)cc1 (protonated)
O=C([N-]c1cccc(S(=O)(=O)[N-]c2ccccc2F)c1)Nc1ccc(S(=O)(=O)N=c2nccc[n-]2)cc1 (3D coordinates assigned)
O=C([N-]c1cccc(S(=O)(=O)[N-]c2ccccc2F)c1)Nc1ccc(S(=O)(=O)N=c2nccc[n-]2)cc1 (optimized conformer: 71.9349389968802 kcal/mol)

>  <smiles>  (76) 
O=C(Nc1ccc(S(=O)(=O)N=c2nccc[nH]2)cc1)Nc1cccc(S(=O)(=O)Nc2ccccc2F)c1

>  <score_type>  (76) 
oracle

>  <origin>  (76) 
adg

>  <m_score__min__energy>  (76) 
-13.539999999999999

>  <m_primary>  (76) 
energy

$$$$
76:0
     RDKit          3D

 60 62  0  0  0  0  0  0  0  0999 V2000
   59.9132   25.4965   46.7815 H   0  0  0  0  0  0  0  0  0  0  0  0
   59.0920   26.1800   46.5200 C   0  0  0  0  0  0  0  0  0  0  0  0
   57.8050   25.7510   46.5920 N   0  0  0  0  0  0  0  0  0  0  0  0
   56.7510   26.5530   46.2890 C   0  0  0  0  0  0  0  0  0  0  0  0
   55.5510   26.0490   46.3910 N   0  0  0  0  0  0  0  0  0  0  0  0
   54.9320   24.9930   45.6360 C   0  0  0  0  0  0  0  0  0  0  0  0
   53.6790   24.9520   45.5010 O   0  0  0  0  0  0  0  0  0  0  0  0
   55.7560   23.9090   45.0460 C   0  0  0  0  0  0  0  0  0  0  0  0
   55.7820   23.7860   43.6440 C   0  0  0  0  0  0  0  0  0  0  0  0
   55.1808   24.4710   43.0280 H   0  0  0  0  0  0  0  0  0  0  0  0
   56.5600   22.8070   43.0250 C   0  0  0  0  0  0  0  0  0  0  0  0
   56.5695   22.7250   41.9281 H   0  0  0  0  0  0  0  0  0  0  0  0
   57.3250   21.9330   43.7950 C   0  0  0  0  0  0  0  0  0  0  0  0
   57.9464   21.1693   43.3045 H   0  0  0  0  0  0  0  0  0  0  0  0
   57.3040   22.0250   45.1860 C   0  0  0  0  0  0  0  0  0  0  0  0
   57.9115   21.3319   45.7864 H   0  0  0  0  0  0  0  0  0  0  0  0
   56.5140   22.9950   45.8300 C   0  0  0  0  0  0  0  0  0  0  0  0
   56.4930   23.0140   47.3370 C   0  0  0  0  0  0  0  0  0  0  0  0
   57.2568   22.3230   47.7231 H   0  0  0  0  0  0  0  0  0  0  0  0
   56.7060   24.0325   47.6939 H   0  0  0  0  0  0  0  0  0  0  0  0
   55.5009   22.7004   47.6939 H   0  0  0  0  0  0  0  0  0  0  0  0
   57.0010   27.8710   45.8490 C   0  0  0  0  0  0  0  0  0  0  0  0
   56.1624   28.5291   45.5776 H   0  0  0  0  0  0  0  0  0  0  0  0
   58.3240   28.3420   45.7580 C   0  0  0  0  0  0  0  0  0  0  0  0
   58.5890   29.7310   45.3060 C   0  0  0  0  0  0  0  0  0  0  0  0
   59.7720   30.0790   45.0380 O   0  0  0  0  0  0  0  0  0  0  0  0
   57.5250   30.6910   45.1850 N   0  0  0  0  0  0  0  0  0  0  0  0
   56.5850   30.4690   45.5830 H   0  0  0  0  0  0  0  0  0  0  0  0
   57.7570   32.0020   44.5800 C   0  0  0  0  0  0  0  0  0  0  0  0
   57.0551   32.1424   43.7448 H   0  0  0  0  0  0  0  0  0  0  0  0
   58.7957   32.0440   44.2205 H   0  0  0  0  0  0  0  0  0  0  0  0
   57.5480   33.1230   45.6050 C   0  0  0  0  0  0  0  0  0  0  0  0
   56.4681   33.2937   45.7261 H   0  0  0  0  0  0  0  0  0  0  0  0
   58.0591   34.0210   45.2277 H   0  0  0  0  0  0  0  0  0  0  0  0
   58.1490   32.7850   46.9740 C   0  0  0  0  0  0  0  0  0  0  0  0
   58.9440   32.0355   46.8463 H   0  0  0  0  0  0  0  0  0  0  0  0
   57.3563   32.3864   47.6242 H   0  0  0  0  0  0  0  0  0  0  0  0
   58.7200   34.0020   47.6000 N   0  0  0  0  0  0  0  0  0  0  0  0
   59.5800   34.7710   46.6760 C   0  0  0  0  0  0  0  0  0  0  0  0
   59.8283   35.7355   47.1429 H   0  0  0  0  0  0  0  0  0  0  0  0
   59.0253   34.9124   45.7367 H   0  0  0  0  0  0  0  0  0  0  0  0
   60.8920   34.0260   46.3450 C   0  0  0  0  0  0  0  0  0  0  0  0
   61.7221   34.7478   46.3414 H   0  0  0  0  0  0  0  0  0  0  0  0
   60.7814   33.5527   45.3582 H   0  0  0  0  0  0  0  0  0  0  0  0
   61.1780   32.9700   47.3370 N   0  0  0  0  0  0  0  0  0  0  0  0
   62.5050   32.3390   47.1580 C   0  0  0  0  0  0  0  0  0  0  0  0
   62.6684   32.1822   46.0816 H   0  0  0  0  0  0  0  0  0  0  0  0
   62.4849   31.4005   47.7314 H   0  0  0  0  0  0  0  0  0  0  0  0
   63.6810   33.1610   47.7070 C   0  0  0  0  0  0  0  0  0  0  0  0
   63.6579   33.1449   48.8066 H   0  0  0  0  0  0  0  0  0  0  0  0
   64.6281   32.7272   47.3537 H   0  0  0  0  0  0  0  0  0  0  0  0
   63.5990   34.1995   47.3537 H   0  0  0  0  0  0  0  0  0  0  0  0
   60.9130   33.4250   48.7100 C   0  0  0  0  0  0  0  0  0  0  0  0
   61.4943   34.3372   48.9102 H   0  0  0  0  0  0  0  0  0  0  0  0
   61.2061   32.6338   49.4157 H   0  0  0  0  0  0  0  0  0  0  0  0
   59.4110   33.7280   48.8840 C   0  0  0  0  0  0  0  0  0  0  0  0
   59.3046   34.6091   49.5338 H   0  0  0  0  0  0  0  0  0  0  0  0
   58.9447   32.8337   49.3231 H   0  0  0  0  0  0  0  0  0  0  0  0
   59.3750   27.4830   46.1160 C   0  0  0  0  0  0  0  0  0  0  0  0
   60.4159   27.8366   46.0778 H   0  0  0  0  0  0  0  0  0  0  0  0
  1  2  1  0
  2  3  1  0
  3  4  1  0
  4  5  2  0
  5  6  1  0
  6  7  2  0
  6  8  1  0
  8  9  2  0
  9 10  1  0
  9 11  1  0
 11 12  1  0
 11 13  2  0
 13 14  1  0
 13 15  1  0
 15 16  1  0
 15 17  2  0
 17 18  1  0
 18 19  1  0
 18 20  1  0
 18 21  1  0
  4 22  1  0
 22 23  1  0
 22 24  2  0
 24 25  1  0
 25 26  2  0
 25 27  1  0
 27 28  1  0
 27 29  1  0
 29 30  1  0
 29 31  1  0
 29 32  1  0
 32 33  1  0
 32 34  1  0
 32 35  1  0
 35 36  1  0
 35 37  1  0
 35 38  1  0
 38 39  1  0
 39 40  1  0
 39 41  1  0
 39 42  1  0
 42 43  1  0
 42 44  1  0
 42 45  1  0
 45 46  1  0
 46 47  1  0
 46 48  1  0
 46 49  1  0
 49 50  1  0
 49 51  1  0
 49 52  1  0
 45 53  1  0
 53 54  1  0
 53 55  1  0
 53 56  1  0
 56 57  1  0
 56 58  1  0
 24 59  1  0
 59 60  1  0
 59  2  2  0
 17  8  1  0
 56 38  1  0
M  CHG  1   3  -1
M  END
>  <UniqueID>  (77) 
71

>  <SMILES>  (77) 
CCN1CCN(CCCNC(=O)c2cc[n-]/c(=N/C(=O)c3ccccc3C)c2)CC1

>  <Energy>  (77) 
85.06047751242203

>  <Genealogy>  (77) 
CCN1CCN(CCCNC(=O)c2cc[n-]c(=NC(=O)c3ccccc3C)c2)CC1 (protonated)
CCN1CCN(CCCNC(=O)c2cc[n-]/c(=N/C(=O)c3ccccc3C)c2)CC1 (cis-trans isomerization)
CCN1CCN(CCCNC(=O)c2cc[n-]/c(=N/C(=O)c3ccccc3C)c2)CC1 (3D coordinates assigned)
CCN1CCN(CCCNC(=O)c2cc[n-]/c(=N/C(=O)c3ccccc3C)c2)CC1 (nonaromatic ring conformer: 85.06047751242203 kcal/mol)

>  <smiles>  (77) 
CCN1CCN(CCCNC(=O)c2cc[nH]c(=NC(=O)c3ccccc3C)c2)CC1

>  <score_type>  (77) 
oracle

>  <origin>  (77) 
adg

>  <m_score__min__energy>  (77) 
-11.25

>  <m_primary>  (77) 
energy

$$$$
77:0
     RDKit          3D

 40 42  0  0  1  0  0  0  0  0999 V2000
   59.6470   34.7920   46.5830 O   0  0  0  0  0  0  0  0  0  0  0  0
   60.2070   33.6930   46.6050 C   0  0  0  0  0  0  0  0  0  0  0  0
   59.6500   32.5400   45.9930 N   0  0  0  0  0  0  0  0  0  0  0  0
   58.4050   32.5040   45.2870 C   0  0  0  0  0  0  0  0  0  0  0  0
   57.8630   31.1720   44.9650 C   0  0  1  0  0  0  0  0  0  0  0  0
   58.0980   30.1490   46.0780 C   0  0  0  0  0  0  0  0  0  0  0  0
   57.2970   29.0630   45.5430 N   0  0  0  0  0  0  0  0  0  0  0  0
   57.5820   27.6740   45.6470 C   0  0  0  0  0  0  0  0  0  0  0  0
   56.6170   26.7140   45.8620 C   0  0  0  0  0  0  0  0  0  0  0  0
   56.9860   25.3650   45.9530 C   0  0  0  0  0  0  0  0  0  0  0  0
   58.2740   24.9350   45.8370 C   0  0  0  0  0  0  0  0  0  0  0  0
   58.7220   23.5620   45.9210 C   0  0  0  0  0  0  0  0  0  0  0  0
   57.8250   22.5790   46.3780 O   0  0  0  0  0  0  0  0  0  0  0  0
   59.8850   23.1330   45.6140 N   0  0  0  0  0  0  0  0  0  0  0  0
   60.2700   21.8360   45.6120 O   0  0  0  0  0  0  0  0  0  0  0  0
   59.2370   25.9030   45.6200 C   0  0  0  0  0  0  0  0  0  0  0  0
   58.8810   27.2260   45.5300 C   0  0  0  0  0  0  0  0  0  0  0  0
   56.1910   29.6980   44.9070 C   0  0  0  0  0  0  0  0  0  0  0  0
   55.1510   29.1470   44.4640 O   0  0  0  0  0  0  0  0  0  0  0  0
   56.4630   31.0610   44.8580 O   0  0  0  0  0  0  0  0  0  0  0  0
   61.5200   33.5710   47.3030 C   0  0  0  0  0  0  0  0  0  0  0  0
   62.7490   33.5640   46.7370 C   0  0  0  0  0  0  0  0  0  0  0  0
   63.8230   33.4440   47.5360 C   0  0  0  0  0  0  0  0  0  0  0  0
   63.5950   33.3370   48.8530 C   0  0  0  0  0  0  0  0  0  0  0  0
   64.6950   33.1600   50.2810 Cl  0  0  0  0  0  0  0  0  0  0  0  0
   61.7560   33.4060   49.0310 S   0  0  0  0  0  0  0  0  0  0  0  0
   60.2340   31.6530   46.0860 H   0  0  0  0  0  0  0  0  0  0  0  0
   57.6582   33.0276   45.9020 H   0  0  0  0  0  0  0  0  0  0  0  0
   58.6116   32.9740   44.3142 H   0  0  0  0  0  0  0  0  0  0  0  0
   58.3816   31.0004   44.0102 H   0  0  0  0  0  0  0  0  0  0  0  0
   59.1591   29.8745   46.1717 H   0  0  0  0  0  0  0  0  0  0  0  0
   57.8374   30.4797   47.0942 H   0  0  0  0  0  0  0  0  0  0  0  0
   55.5610   27.0054   45.9618 H   0  0  0  0  0  0  0  0  0  0  0  0
   56.1981   24.6173   46.1264 H   0  0  0  0  0  0  0  0  0  0  0  0
   58.0440   21.5890   46.2490 H   0  0  0  0  0  0  0  0  0  0  0  0
   59.6730   21.0660   45.3290 H   0  0  0  0  0  0  0  0  0  0  0  0
   60.2930   25.6120   45.5190 H   0  0  0  0  0  0  0  0  0  0  0  0
   59.6740   27.9680   45.3553 H   0  0  0  0  0  0  0  0  0  0  0  0
   62.8665   33.6545   45.6470 H   0  0  0  0  0  0  0  0  0  0  0  0
   64.8443   33.4340   47.1275 H   0  0  0  0  0  0  0  0  0  0  0  0
  1  2  2  0
  2  3  1  0
  3  4  1  0
  4  5  1  0
  5  6  1  0
  6  7  1  0
  7  8  1  0
  8  9  2  0
  9 10  1  0
 10 11  2  0
 11 12  1  0
 12 13  1  0
 12 14  2  0
 14 15  1  0
 11 16  1  0
 16 17  2  0
  7 18  1  0
 18 19  2  0
 18 20  1  0
  2 21  1  0
 21 22  2  0
 22 23  1  0
 23 24  2  0
 24 25  1  0
 24 26  1  0
 20  5  1  0
 26 21  1  0
 17  8  1  0
  3 27  1  0
  4 28  1  0
  4 29  1  0
  5 30  1  6
  6 31  1  0
  6 32  1  0
  9 33  1  0
 10 34  1  0
 13 35  1  0
 15 36  1  0
 16 37  1  0
 17 38  1  0
 22 39  1  0
 23 40  1  0
M  END
>  <smiles>  (78) 
O=C(NCC1CN(c2ccc(C(O)=NO)cc2)C(=O)O1)c1ccc(Cl)s1

>  <score_type>  (78) 
oracle

>  <origin>  (78) 
adg

>  <m_score__min__energy>  (78) 
-8.7400000000000002

>  <m_primary>  (78) 
energy

$$$$
78:0
     RDKit          3D

 39 41  0  0  0  0  0  0  0  0999 V2000
   57.3650   29.2440   46.3830 O   0  0  0  0  0  0  0  0  0  0  0  0
   56.8520   28.5350   45.4770 C   0  0  0  0  0  0  0  0  0  0  0  0
   57.5240   27.2410   45.0990 C   0  0  0  0  0  0  0  0  0  0  0  0
   57.7860   26.3660   46.3310 C   0  0  0  0  0  0  0  0  0  0  0  0
   56.8570   25.2360   46.3860 N   0  0  0  0  0  0  0  0  0  0  0  0
   55.5170   25.2770   46.2200 C   0  0  0  0  0  0  0  0  0  0  0  0
   54.7860   26.4460   46.0380 O   0  0  0  0  0  0  0  0  0  0  0  0
   54.9910   24.0010   46.2290 C   0  0  0  0  0  0  0  0  0  0  0  0
   56.0490   23.1450   46.4030 C   0  0  0  0  0  0  0  0  0  0  0  0
   57.1810   23.9280   46.4920 C   0  0  0  0  0  0  0  0  0  0  0  0
   58.4800   23.4540   46.6320 O   0  0  0  0  0  0  0  0  0  0  0  0
   55.9310   21.6550   46.3930 C   0  0  0  0  0  0  0  0  0  0  0  0
   54.5020   21.2050   46.1630 C   0  0  0  0  0  0  0  0  0  0  0  0
   53.4610   22.0500   45.9930 C   0  0  0  0  0  0  0  0  0  0  0  0
   53.5800   23.5600   46.0090 C   0  0  0  0  0  0  0  0  0  0  0  0
   55.6210   28.9640   44.8820 N   0  0  0  0  0  0  0  0  0  0  0  0
   55.5090   29.7330   43.6490 C   0  0  0  0  0  0  0  0  0  0  0  0
   56.4890   30.8650   43.6810 C   0  0  0  0  0  0  0  0  0  0  0  0
   57.1910   31.2430   42.5250 C   0  0  0  0  0  0  0  0  0  0  0  0
   58.0750   32.3210   42.5830 C   0  0  0  0  0  0  0  0  0  0  0  0
   58.2480   33.0150   43.7830 C   0  0  0  0  0  0  0  0  0  0  0  0
   57.5290   32.6150   44.9120 C   0  0  0  0  0  0  0  0  0  0  0  0
   56.6720   31.5610   44.8370 N   0  0  0  0  0  0  0  0  0  0  0  0
   56.8753   26.6914   44.4010 H   0  0  0  0  0  0  0  0  0  0  0  0
   58.4906   27.4769   44.6299 H   0  0  0  0  0  0  0  0  0  0  0  0
   58.8157   25.9818   46.2856 H   0  0  0  0  0  0  0  0  0  0  0  0
   57.6402   26.9805   47.2316 H   0  0  0  0  0  0  0  0  0  0  0  0
   56.5647   21.2530   45.5887 H   0  0  0  0  0  0  0  0  0  0  0  0
   56.2536   21.2799   47.3754 H   0  0  0  0  0  0  0  0  0  0  0  0
   54.2998   20.1242   46.1326 H   0  0  0  0  0  0  0  0  0  0  0  0
   52.4641   21.6135   45.8329 H   0  0  0  0  0  0  0  0  0  0  0  0
   53.2292   23.9555   45.0444 H   0  0  0  0  0  0  0  0  0  0  0  0
   52.9676   23.9435   46.8384 H   0  0  0  0  0  0  0  0  0  0  0  0
   55.7269   29.0825   42.7891 H   0  0  0  0  0  0  0  0  0  0  0  0
   54.4882   30.1319   43.5549 H   0  0  0  0  0  0  0  0  0  0  0  0
   57.0454   30.6945   41.5827 H   0  0  0  0  0  0  0  0  0  0  0  0
   58.6345   32.6238   41.6856 H   0  0  0  0  0  0  0  0  0  0  0  0
   58.9422   33.8665   43.8383 H   0  0  0  0  0  0  0  0  0  0  0  0
   57.6559   33.1530   45.8630 H   0  0  0  0  0  0  0  0  0  0  0  0
  1  2  2  0
  2  3  1  0
  3  4  1  0
  4  5  1  0
  5  6  1  0
  6  7  1  0
  6  8  2  0
  8  9  1  0
  9 10  2  0
 10 11  1  0
  9 12  1  0
 12 13  1  0
 13 14  2  0
 14 15  1  0
  2 16  1  0
 16 17  1  0
 17 18  1  0
 18 19  2  0
 19 20  1  0
 20 21  2  0
 21 22  1  0
 22 23  2  0
 10  5  1  0
 23 18  1  0
 15  8  1  0
  3 24  1  0
  3 25  1  0
  4 26  1  0
  4 27  1  0
 12 28  1  0
 12 29  1  0
 13 30  1  0
 14 31  1  0
 15 32  1  0
 15 33  1  0
 17 34  1  0
 17 35  1  0
 19 36  1  0
 20 37  1  0
 21 38  1  0
 22 39  1  0
M  CHG  3   7  -1  11  -1  16  -1
M  END
>  <UniqueID>  (79) 
72

>  <SMILES>  (79) 
O=C(CCn1c([O-])c2c(c1[O-])CC=CC2)[N-]Cc1ccccn1

>  <Energy>  (79) 
64.83739701846805

>  <Genealogy>  (79) 
O=C(CCn1c([O-])c2c(c1[O-])CC=CC2)[N-]Cc1ccccn1 (protonated)
O=C(CCn1c([O-])c2c(c1[O-])CC=CC2)[N-]Cc1ccccn1 (3D coordinates assigned)
O=C(CCn1c([O-])c2c(c1[O-])CC=CC2)[N-]Cc1ccccn1 (nonaromatic ring conformer: 64.83739701846805 kcal/mol)

>  <smiles>  (79) 
O=C(CCn1c(O)c2c(c1O)CC=CC2)NCc1ccccn1

>  <score_type>  (79) 
oracle

>  <origin>  (79) 
adg

>  <m_score__min__energy>  (79) 
-14.52

>  <m_primary>  (79) 
energy

$$$$
79:0
     RDKit          3D

 43 45  0  0  0  0  0  0  0  0999 V2000
   55.4210   29.1940   44.8080 N   0  0  0  0  0  0  0  0  0  0  0  0
   57.1400   29.3650   44.8650 S   0  0  0  0  0  0  0  0  0  0  0  0
   57.6150   29.8260   43.5160 O   0  0  0  0  0  0  0  0  0  0  0  0
   57.5140   30.3950   45.8920 O   0  0  0  0  0  0  0  0  0  0  0  0
   57.8930   27.8150   45.2740 C   0  0  0  0  0  0  0  0  0  0  0  0
   57.4400   26.6520   44.6270 C   0  0  0  0  0  0  0  0  0  0  0  0
   57.9730   25.4030   44.9520 C   0  0  0  0  0  0  0  0  0  0  0  0
   58.9650   25.2980   45.9270 C   0  0  0  0  0  0  0  0  0  0  0  0
   59.4330   26.4430   46.5740 C   0  0  0  0  0  0  0  0  0  0  0  0
   58.9170   27.7080   46.2490 C   0  0  0  0  0  0  0  0  0  0  0  0
   59.4680   28.8900   46.9420 C   0  0  0  0  0  0  0  0  0  0  0  0
   60.5560   29.5820   46.3920 C   0  0  0  0  0  0  0  0  0  0  0  0
   61.0750   30.7070   47.0370 C   0  0  0  0  0  0  0  0  0  0  0  0
   60.4990   31.1650   48.2360 C   0  0  0  0  0  0  0  0  0  0  0  0
   60.9860   32.3290   48.9190 N   0  0  0  0  0  0  0  0  0  0  0  0
   61.4040   33.8380   48.1720 S   0  0  0  0  0  0  0  0  0  0  0  0
   62.3140   34.5950   49.0980 O   0  0  0  0  0  0  0  0  0  0  0  0
   62.1310   33.5850   46.8820 O   0  0  0  0  0  0  0  0  0  0  0  0
   59.9410   34.8220   47.8760 C   0  0  0  0  0  0  0  0  0  0  0  0
   59.1380   34.2430   46.7440 C   0  0  0  0  0  0  0  0  0  0  0  0
   59.6350   34.2840   45.4320 C   0  0  0  0  0  0  0  0  0  0  0  0
   58.8710   33.7830   44.3730 C   0  0  0  0  0  0  0  0  0  0  0  0
   57.6030   33.2460   44.6160 C   0  0  0  0  0  0  0  0  0  0  0  0
   57.0990   33.2080   45.9190 C   0  0  0  0  0  0  0  0  0  0  0  0
   57.8610   33.7050   46.9800 C   0  0  0  0  0  0  0  0  0  0  0  0
   59.4070   30.4760   48.7780 C   0  0  0  0  0  0  0  0  0  0  0  0
   58.8320   30.9080   49.9290 F   0  0  0  0  0  0  0  0  0  0  0  0
   58.8890   29.3500   48.1320 C   0  0  0  0  0  0  0  0  0  0  0  0
   55.1450   28.6040   45.6240 H   0  0  0  0  0  0  0  0  0  0  0  0
   56.6579   26.7267   43.8571 H   0  0  0  0  0  0  0  0  0  0  0  0
   57.6101   24.5005   44.4384 H   0  0  0  0  0  0  0  0  0  0  0  0
   59.3788   24.3123   46.1862 H   0  0  0  0  0  0  0  0  0  0  0  0
   60.2125   26.3536   47.3449 H   0  0  0  0  0  0  0  0  0  0  0  0
   61.0032   29.2374   45.4479 H   0  0  0  0  0  0  0  0  0  0  0  0
   61.9372   31.2368   46.6059 H   0  0  0  0  0  0  0  0  0  0  0  0
   59.3244   34.8371   48.7868 H   0  0  0  0  0  0  0  0  0  0  0  0
   60.2474   35.8442   47.6089 H   0  0  0  0  0  0  0  0  0  0  0  0
   60.6292   34.7118   45.2359 H   0  0  0  0  0  0  0  0  0  0  0  0
   59.2682   33.8115   43.3476 H   0  0  0  0  0  0  0  0  0  0  0  0
   57.0025   32.8537   43.7820 H   0  0  0  0  0  0  0  0  0  0  0  0
   56.1011   32.7863   46.1098 H   0  0  0  0  0  0  0  0  0  0  0  0
   57.4598   33.6750   48.0038 H   0  0  0  0  0  0  0  0  0  0  0  0
   58.0233   28.8229   48.5596 H   0  0  0  0  0  0  0  0  0  0  0  0
  1  2  1  0
  2  3  2  0
  2  4  2  0
  2  5  1  0
  5  6  2  0
  6  7  1  0
  7  8  2  0
  8  9  1  0
  9 10  2  0
 10 11  1  0
 11 12  2  0
 12 13  1  0
 13 14  2  0
 14 15  1  0
 15 16  1  0
 16 17  2  0
 16 18  2  0
 16 19  1  0
 19 20  1  0
 20 21  2  0
 21 22  1  0
 22 23  2  0
 23 24  1  0
 24 25  2  0
 14 26  1  0
 26 27  1  0
 26 28  2  0
 10  5  1  0
 28 11  1  0
 25 20  1  0
  1 29  1  0
  6 30  1  0
  7 31  1  0
  8 32  1  0
  9 33  1  0
 12 34  1  0
 13 35  1  0
 19 36  1  0
 19 37  1  0
 21 38  1  0
 22 39  1  0
 23 40  1  0
 24 41  1  0
 25 42  1  0
 28 43  1  0
M  CHG  2   1  -1  15  -1
M  END
>  <UniqueID>  (80) 
73

>  <SMILES>  (80) 
[NH-]S(=O)(=O)c1ccccc1-c1ccc([N-]S(=O)(=O)Cc2ccccc2)c(F)c1

>  <Energy>  (80) 
51.27756939776421

>  <Genealogy>  (80) 
[NH-]S(=O)(=O)c1ccccc1-c1ccc([N-]S(=O)(=O)Cc2ccccc2)c(F)c1 (protonated)
[NH-]S(=O)(=O)c1ccccc1-c1ccc([N-]S(=O)(=O)Cc2ccccc2)c(F)c1 (3D coordinates assigned)
[NH-]S(=O)(=O)c1ccccc1-c1ccc([N-]S(=O)(=O)Cc2ccccc2)c(F)c1 (optimized conformer: 51.27756939776421 kcal/mol)

>  <smiles>  (80) 
NS(=O)(=O)c1ccccc1-c1ccc(NS(=O)(=O)Cc2ccccc2)c(F)c1

>  <score_type>  (80) 
oracle

>  <origin>  (80) 
adg

>  <m_score__min__energy>  (80) 
-12.44

>  <m_primary>  (80) 
energy

$$$$
80:0
     RDKit          3D

 45 47  0  0  0  0  0  0  0  0999 V2000
   56.6350   31.9400   45.2280 O   0  0  0  0  0  0  0  0  0  0  0  0
   57.6640   31.8260   44.5130 C   0  0  0  0  0  0  0  0  0  0  0  0
   58.5570   32.8850   44.4200 O   0  0  0  0  0  0  0  0  0  0  0  0
   57.9030   30.5690   43.7330 C   0  0  0  0  0  0  0  0  0  0  0  0
   58.8250   29.6010   44.4840 C   0  0  0  0  0  0  0  0  0  0  0  0
   58.2590   29.2160   45.8230 C   0  0  0  0  0  0  0  0  0  0  0  0
   58.4120   30.0270   46.8300 N   0  0  0  0  0  0  0  0  0  0  0  0
   59.4960   29.9570   47.8050 C   0  0  0  0  0  0  0  0  0  0  0  0
   60.4410   31.0990   47.5730 C   0  0  0  0  0  0  0  0  0  0  0  0
   59.9450   32.3650   47.2180 C   0  0  0  0  0  0  0  0  0  0  0  0
   60.8270   33.4200   46.9640 C   0  0  0  0  0  0  0  0  0  0  0  0
   62.2070   33.2170   47.0520 C   0  0  0  0  0  0  0  0  0  0  0  0
   63.0600   34.2410   46.8030 F   0  0  0  0  0  0  0  0  0  0  0  0
   62.7070   31.9560   47.3880 C   0  0  0  0  0  0  0  0  0  0  0  0
   61.8300   30.8980   47.6420 C   0  0  0  0  0  0  0  0  0  0  0  0
   57.5240   27.9370   45.9600 C   0  0  0  0  0  0  0  0  0  0  0  0
   56.1730   27.8470   45.6170 C   0  0  0  0  0  0  0  0  0  0  0  0
   55.4870   28.9540   45.1300 O   0  0  0  0  0  0  0  0  0  0  0  0
   55.5180   26.6710   45.7630 N   0  0  0  0  0  0  0  0  0  0  0  0
   56.1430   25.5620   46.2340 C   0  0  0  0  0  0  0  0  0  0  0  0
   55.4800   24.4990   46.3630 O   0  0  0  0  0  0  0  0  0  0  0  0
   57.4760   25.6050   46.5660 N   0  0  0  0  0  0  0  0  0  0  0  0
   58.1380   24.4070   47.1140 C   0  0  0  0  0  0  0  0  0  0  0  0
   58.0090   23.2670   46.1530 C   0  0  0  0  0  0  0  0  0  0  0  0
   58.1400   23.3480   44.7810 C   0  0  0  0  0  0  0  0  0  0  0  0
   57.9810   22.0590   44.3180 C   0  0  0  0  0  0  0  0  0  0  0  0
   57.7650   21.2760   45.4340 C   0  0  0  0  0  0  0  0  0  0  0  0
   57.7910   22.0240   46.5130 O   0  0  0  0  0  0  0  0  0  0  0  0
   58.1670   26.7860   46.4430 C   0  0  0  0  0  0  0  0  0  0  0  0
   59.3840   26.8500   46.7720 O   0  0  0  0  0  0  0  0  0  0  0  0
   56.9379   30.0734   43.5515 H   0  0  0  0  0  0  0  0  0  0  0  0
   58.3911   30.8414   42.7856 H   0  0  0  0  0  0  0  0  0  0  0  0
   58.9563   28.6922   43.8783 H   0  0  0  0  0  0  0  0  0  0  0  0
   59.7874   30.1066   44.6522 H   0  0  0  0  0  0  0  0  0  0  0  0
   59.0815   30.0229   48.8218 H   0  0  0  0  0  0  0  0  0  0  0  0
   60.0332   29.0036   47.6934 H   0  0  0  0  0  0  0  0  0  0  0  0
   58.8598   32.5266   47.1397 H   0  0  0  0  0  0  0  0  0  0  0  0
   60.4340   34.4114   46.6945 H   0  0  0  0  0  0  0  0  0  0  0  0
   63.7934   31.7958   47.4527 H   0  0  0  0  0  0  0  0  0  0  0  0
   62.2283   29.9048   47.8967 H   0  0  0  0  0  0  0  0  0  0  0  0
   59.2034   24.6238   47.2813 H   0  0  0  0  0  0  0  0  0  0  0  0
   57.6594   24.1332   48.0658 H   0  0  0  0  0  0  0  0  0  0  0  0
   58.3311   24.2512   44.1829 H   0  0  0  0  0  0  0  0  0  0  0  0
   58.0187   21.7228   43.2713 H   0  0  0  0  0  0  0  0  0  0  0  0
   57.5965   20.1891   45.4214 H   0  0  0  0  0  0  0  0  0  0  0  0
  1  2  2  0
  2  3  1  0
  2  4  1  0
  4  5  1  0
  5  6  1  0
  6  7  2  3
  7  8  1  0
  8  9  1  0
  9 10  2  0
 10 11  1  0
 11 12  2  0
 12 13  1  0
 12 14  1  0
 14 15  2  0
  6 16  1  0
 16 17  2  0
 17 18  1  0
 17 19  1  0
 19 20  1  0
 20 21  2  0
 20 22  1  0
 22 23  1  0
 23 24  1  0
 24 25  2  0
 25 26  1  0
 26 27  2  0
 27 28  1  0
 22 29  1  0
 29 30  2  0
 15  9  1  0
 29 16  1  0
 28 24  1  0
  4 31  1  0
  4 32  1  0
  5 33  1  0
  5 34  1  0
  8 35  1  0
  8 36  1  0
 10 37  1  0
 11 38  1  0
 14 39  1  0
 15 40  1  0
 23 41  1  0
 23 42  1  0
 25 43  1  0
 26 44  1  0
 27 45  1  0
M  CHG  3   3  -1  18  -1  19  -1
M  END
>  <UniqueID>  (81) 
74

>  <SMILES>  (81) 
O=C([O-])CCC(=NCc1ccc(F)cc1)c1c([O-])[n-]c(=O)n(Cc2ccco2)c1=O

>  <Energy>  (81) 
78.40590046743723

>  <Genealogy>  (81) 
O=C([O-])CCC(=NCc1ccc(F)cc1)c1c([O-])[n-]c(=O)n(Cc2ccco2)c1=O (protonated)
O=C([O-])CCC(=NCc1ccc(F)cc1)c1c([O-])[n-]c(=O)n(Cc2ccco2)c1=O (3D coordinates assigned)
O=C([O-])CCC(=NCc1ccc(F)cc1)c1c([O-])[n-]c(=O)n(Cc2ccco2)c1=O (optimized conformer: 78.40590046743723 kcal/mol)

>  <smiles>  (81) 
O=C(O)CCC(=NCc1ccc(F)cc1)c1c(O)[nH]c(=O)n(Cc2ccco2)c1=O

>  <score_type>  (81) 
oracle

>  <origin>  (81) 
adg

>  <m_score__min__energy>  (81) 
-14.220000000000001

>  <m_primary>  (81) 
energy

$$$$
81:0
     RDKit          3D

 48 50  0  0  0  0  0  0  0  0999 V2000
   58.6780   30.0360   47.9290 C   0  0  0  0  0  0  0  0  0  0  0  0
   58.2360   29.8260   46.6780 C   0  0  0  0  0  0  0  0  0  0  0  0
   57.6180   28.6670   46.1770 C   0  0  0  0  0  0  0  0  0  0  0  0
   57.4520   27.4450   46.7190 C   0  0  0  0  0  0  0  0  0  0  0  0
   57.1620   26.2060   45.9720 C   0  0  0  0  0  0  0  0  0  0  0  0
   55.8430   25.8860   45.6200 C   0  0  0  0  0  0  0  0  0  0  0  0
   54.7910   26.7070   46.0120 O   0  0  0  0  0  0  0  0  0  0  0  0
   55.5840   24.7630   44.8970 N   0  0  0  0  0  0  0  0  0  0  0  0
   56.5950   23.9450   44.4920 C   0  0  0  0  0  0  0  0  0  0  0  0
   56.2730   22.5960   43.6260 S   0  0  0  0  0  0  0  0  0  0  0  0
   57.8820   24.2520   44.7980 N   0  0  0  0  0  0  0  0  0  0  0  0
   58.1890   25.3610   45.5160 C   0  0  0  0  0  0  0  0  0  0  0  0
   59.3960   25.6240   45.7620 O   0  0  0  0  0  0  0  0  0  0  0  0
   57.1620   28.9900   44.9080 C   0  0  0  0  0  0  0  0  0  0  0  0
   57.5610   30.2860   44.6570 C   0  0  0  0  0  0  0  0  0  0  0  0
   57.2820   31.0290   43.3850 C   0  0  0  0  0  0  0  0  0  0  0  0
   58.2100   30.7950   45.7270 N   0  0  0  0  0  0  0  0  0  0  0  0
   58.7460   32.1270   45.8270 C   0  0  0  0  0  0  0  0  0  0  0  0
   57.9640   33.2280   45.4550 C   0  0  0  0  0  0  0  0  0  0  0  0
   58.4800   34.5220   45.5580 C   0  0  0  0  0  0  0  0  0  0  0  0
   59.7770   34.7260   46.0350 C   0  0  0  0  0  0  0  0  0  0  0  0
   60.5750   33.6310   46.4160 C   0  0  0  0  0  0  0  0  0  0  0  0
   61.9500   33.8380   46.9200 C   0  0  0  0  0  0  0  0  0  0  0  0
   62.9290   33.7920   46.1250 O   0  0  0  0  0  0  0  0  0  0  0  0
   62.1600   34.0900   48.2820 O   0  0  0  0  0  0  0  0  0  0  0  0
   62.1960   33.0730   49.2840 C   0  0  0  0  0  0  0  0  0  0  0  0
   60.7820   32.6630   49.7060 C   0  0  0  0  0  0  0  0  0  0  0  0
   59.7990   33.8290   49.6780 C   0  0  0  0  0  0  0  0  0  0  0  0
   60.0490   32.3320   46.3060 C   0  0  0  0  0  0  0  0  0  0  0  0
   59.1467   30.9955   48.1929 H   0  0  0  0  0  0  0  0  0  0  0  0
   58.5712   29.2485   48.6895 H   0  0  0  0  0  0  0  0  0  0  0  0
   57.5402   27.3638   47.8124 H   0  0  0  0  0  0  0  0  0  0  0  0
   54.5950   24.5330   44.6520 H   0  0  0  0  0  0  0  0  0  0  0  0
   56.5912   28.3374   44.2310 H   0  0  0  0  0  0  0  0  0  0  0  0
   56.9045   32.0344   43.6229 H   0  0  0  0  0  0  0  0  0  0  0  0
   58.2092   31.1146   42.7994 H   0  0  0  0  0  0  0  0  0  0  0  0
   56.5276   30.4831   42.7994 H   0  0  0  0  0  0  0  0  0  0  0  0
   56.9412   33.0733   45.0809 H   0  0  0  0  0  0  0  0  0  0  0  0
   57.8629   35.3833   45.2625 H   0  0  0  0  0  0  0  0  0  0  0  0
   60.1768   35.7478   46.1133 H   0  0  0  0  0  0  0  0  0  0  0  0
   62.7206   32.1929   48.8837 H   0  0  0  0  0  0  0  0  0  0  0  0
   62.7219   33.4696   50.1650 H   0  0  0  0  0  0  0  0  0  0  0  0
   60.4221   31.8825   49.0195 H   0  0  0  0  0  0  0  0  0  0  0  0
   60.8366   32.2988   50.7425 H   0  0  0  0  0  0  0  0  0  0  0  0
   59.5504   34.1238   50.7082 H   0  0  0  0  0  0  0  0  0  0  0  0
   60.2555   34.6809   49.1528 H   0  0  0  0  0  0  0  0  0  0  0  0
   58.8822   33.5231   49.1528 H   0  0  0  0  0  0  0  0  0  0  0  0
   60.6644   31.4683   46.5981 H   0  0  0  0  0  0  0  0  0  0  0  0
  1  2  2  0
  2  3  1  0
  3  4  2  3
  4  5  1  0
  5  6  2  0
  6  7  1  0
  6  8  1  0
  8  9  1  0
  9 10  2  0
  9 11  1  0
 11 12  1  0
 12 13  2  0
  3 14  1  0
 14 15  2  0
 15 16  1  0
 15 17  1  0
 17 18  1  0
 18 19  2  0
 19 20  1  0
 20 21  2  0
 21 22  1  0
 22 23  1  0
 23 24  2  0
 23 25  1  0
 25 26  1  0
 26 27  1  0
 27 28  1  0
 22 29  2  0
 17  2  1  0
 29 18  1  0
 12  5  1  0
  1 30  1  0
  1 31  1  0
  4 32  1  0
  8 33  1  0
 14 34  1  0
 16 35  1  0
 16 36  1  0
 16 37  1  0
 19 38  1  0
 20 39  1  0
 21 40  1  0
 26 41  1  0
 26 42  1  0
 27 43  1  0
 27 44  1  0
 28 45  1  0
 28 46  1  0
 28 47  1  0
 29 48  1  0
M  CHG  2   7  -1  11  -1
M  END
>  <UniqueID>  (82) 
75

>  <SMILES>  (82) 
C=c1c(=Cc2c([O-])[nH]c(=S)[n-]c2=O)cc(C)n1-c1cccc(C(=O)OCCC)c1

>  <Energy>  (82) 
94.17837287332391

>  <Genealogy>  (82) 
C=c1c(=Cc2c([O-])[nH]c(=S)[n-]c2=O)cc(C)n1-c1cccc(C(=O)OCCC)c1 (protonated)
C=c1c(=Cc2c([O-])[nH]c(=S)[n-]c2=O)cc(C)n1-c1cccc(C(=O)OCCC)c1 (3D coordinates assigned)
C=c1c(=Cc2c([O-])[nH]c(=S)[n-]c2=O)cc(C)n1-c1cccc(C(=O)OCCC)c1 (optimized conformer: 94.17837287332391 kcal/mol)

>  <smiles>  (82) 
C=c1c(=Cc2c(O)[nH]c(=S)[nH]c2=O)cc(C)n1-c1cccc(C(=O)OCCC)c1

>  <score_type>  (82) 
oracle

>  <origin>  (82) 
adg

>  <m_score__min__energy>  (82) 
-14.029999999999999

>  <m_primary>  (82) 
energy

$$$$
82:0
     RDKit          3D

 31 32  0  0  0  0  0  0  0  0999 V2000
   57.7390   25.1480   45.3950 C   0  0  0  0  0  0  0  0  0  0  0  0
   57.9530   26.2740   46.4010 C   0  0  0  0  0  0  0  0  0  0  0  0
   58.2190   27.5330   45.7080 N   0  0  0  0  0  0  0  0  0  0  0  0
   59.5350   28.1390   45.5310 C   0  0  0  0  0  0  0  0  0  0  0  0
   59.2800   29.5040   44.8410 C   0  0  0  0  0  0  0  0  0  0  0  0
   57.8390   29.5750   44.6310 N   0  0  0  0  0  0  0  0  0  0  0  0
   56.9790   30.9980   44.1500 S   0  0  0  0  0  0  0  0  0  0  0  0
   55.5190   30.8280   44.4590 O   0  0  0  0  0  0  0  0  0  0  0  0
   57.1370   31.2130   42.6710 O   0  0  0  0  0  0  0  0  0  0  0  0
   57.6200   32.3820   45.0110 C   0  0  0  0  0  0  0  0  0  0  0  0
   57.7720   33.6630   44.5240 C   0  0  0  0  0  0  0  0  0  0  0  0
   58.3530   34.4240   45.4720 N   0  0  0  0  0  0  0  0  0  0  0  0
   58.5550   33.6580   46.5330 N   0  0  0  0  0  0  0  0  0  0  0  0
   59.2350   34.1060   47.7410 C   0  0  0  0  0  0  0  0  0  0  0  0
   58.1380   32.4030   46.2860 C   0  0  0  0  0  0  0  0  0  0  0  0
   57.2540   28.4230   45.1900 C   0  0  0  0  0  0  0  0  0  0  0  0
   56.0100   28.2260   45.2500 O   0  0  0  0  0  0  0  0  0  0  0  0
   57.5598   24.2052   45.9326 H   0  0  0  0  0  0  0  0  0  0  0  0
   56.8691   25.3810   44.7634 H   0  0  0  0  0  0  0  0  0  0  0  0
   58.6338   25.0456   44.7634 H   0  0  0  0  0  0  0  0  0  0  0  0
   57.0497   26.3843   47.0190 H   0  0  0  0  0  0  0  0  0  0  0  0
   58.8171   26.0264   47.0351 H   0  0  0  0  0  0  0  0  0  0  0  0
   60.0230   28.2873   46.5056 H   0  0  0  0  0  0  0  0  0  0  0  0
   60.1989   27.4991   44.9312 H   0  0  0  0  0  0  0  0  0  0  0  0
   59.6149   30.3291   45.4869 H   0  0  0  0  0  0  0  0  0  0  0  0
   59.8337   29.5909   43.8945 H   0  0  0  0  0  0  0  0  0  0  0  0
   57.4684   34.0075   43.5244 H   0  0  0  0  0  0  0  0  0  0  0  0
   58.6880   33.7456   48.6247 H   0  0  0  0  0  0  0  0  0  0  0  0
   60.2593   33.7053   47.7552 H   0  0  0  0  0  0  0  0  0  0  0  0
   59.2711   35.2053   47.7552 H   0  0  0  0  0  0  0  0  0  0  0  0
   58.1998   31.5494   46.9770 H   0  0  0  0  0  0  0  0  0  0  0  0
  1  2  1  0
  2  3  1  0
  3  4  1  0
  4  5  1  0
  5  6  1  0
  6  7  1  0
  7  8  2  0
  7  9  2  0
  7 10  1  0
 10 11  1  0
 11 12  2  0
 12 13  1  0
 13 14  1  0
 13 15  1  0
  6 16  1  0
 16 17  2  0
 16  3  1  0
 15 10  2  0
  1 18  1  0
  1 19  1  0
  1 20  1  0
  2 21  1  0
  2 22  1  0
  4 23  1  0
  4 24  1  0
  5 25  1  0
  5 26  1  0
 11 27  1  0
 14 28  1  0
 14 29  1  0
 14 30  1  0
 15 31  1  0
M  END
>  <UniqueID>  (83) 
76

>  <SMILES>  (83) 
CCN1CCN(S(=O)(=O)c2cnn(C)c2)C1=O

>  <Energy>  (83) 
68.9810515033435

>  <Genealogy>  (83) 
CCN1CCN(S(=O)(=O)c2cnn(C)c2)C1=O (3D coordinates assigned)
CCN1CCN(S(=O)(=O)c2cnn(C)c2)C1=O (nonaromatic ring conformer: 68.9810515033435 kcal/mol)

>  <smiles>  (83) 
CCN1CCN(S(=O)(=O)c2cnn(C)c2)C1=O

>  <score_type>  (83) 
oracle

>  <origin>  (83) 
adg

>  <m_score__min__energy>  (83) 
-6.4800000000000004

>  <m_primary>  (83) 
energy

$$$$
83:0
     RDKit          3D

 70 74  0  0  0  0  0  0  0  0999 V2000
   57.7690   29.9830   51.2510 O   0  0  0  0  0  0  0  0  0  0  0  0
   58.5270   30.3350   50.3150 C   0  0  0  0  0  0  0  0  0  0  0  0
   58.6510   29.4810   49.0660 C   0  0  0  0  0  0  0  0  0  0  0  0
   59.9710   29.5160   48.3780 N   0  0  1  0  0  0  0  0  0  0  0  0
   60.5360   28.1960   48.0030 C   0  0  0  0  0  0  0  0  0  0  0  0
   59.6520   27.4370   47.0410 C   0  0  0  0  0  0  0  0  0  0  0  0
   59.8140   27.5840   45.6500 C   0  0  0  0  0  0  0  0  0  0  0  0
   58.9830   26.8900   44.7650 C   0  0  0  0  0  0  0  0  0  0  0  0
   57.9550   26.0790   45.2540 C   0  0  0  0  0  0  0  0  0  0  0  0
   57.0940   25.4360   44.3620 O   0  0  0  0  0  0  0  0  0  0  0  0
   57.2000   24.0780   44.0210 C   0  0  0  0  0  0  0  0  0  0  0  0
   56.3220   23.5440   43.0670 C   0  0  0  0  0  0  0  0  0  0  0  0
   56.3820   22.1890   42.7290 C   0  0  0  0  0  0  0  0  0  0  0  0
   57.3120   21.3540   43.3500 C   0  0  0  0  0  0  0  0  0  0  0  0
   58.1900   21.8760   44.3080 C   0  0  0  0  0  0  0  0  0  0  0  0
   58.1400   23.2320   44.6410 C   0  0  0  0  0  0  0  0  0  0  0  0
   57.7960   25.9210   46.6370 C   0  0  0  0  0  0  0  0  0  0  0  0
   58.6480   26.5860   47.5250 C   0  0  0  0  0  0  0  0  0  0  0  0
   59.9520   30.4160   47.2370 C   0  0  0  0  0  0  0  0  0  0  0  0
   60.9390   30.5360   46.5240 O   0  0  0  0  0  0  0  0  0  0  0  0
   58.7420   31.2630   46.9420 C   0  0  0  0  0  0  0  0  0  0  0  0
   57.9250   30.6140   45.8660 C   0  0  0  0  0  0  0  0  0  0  0  0
   57.3110   29.3680   45.9330 C   0  0  0  0  0  0  0  0  0  0  0  0
   56.7520   29.0510   44.7420 N   0  0  0  0  0  0  0  0  0  0  0  0
   57.0190   30.0820   43.9190 C   0  0  0  0  0  0  0  0  0  0  0  0
   56.6530   30.2130   42.5780 C   0  0  0  0  0  0  0  0  0  0  0  0
   57.0410   31.3810   41.8990 C   0  0  0  0  0  0  0  0  0  0  0  0
   57.7880   32.3790   42.5630 C   0  0  0  0  0  0  0  0  0  0  0  0
   58.1490   32.2180   43.9150 C   0  0  0  0  0  0  0  0  0  0  0  0
   57.7390   31.0530   44.5660 C   0  0  0  0  0  0  0  0  0  0  0  0
   59.2060   31.5930   50.4350 N   0  0  0  0  0  0  0  0  0  0  0  0
   60.9070   31.8090   50.7100 S   0  0  0  0  0  0  0  0  0  0  0  0
   61.6960   30.7630   49.9730 O   0  0  0  0  0  0  0  0  0  0  0  0
   61.1780   31.6610   52.1820 O   0  0  0  0  0  0  0  0  0  0  0  0
   61.4400   33.4330   50.1920 C   0  0  0  0  0  0  0  0  0  0  0  0
   60.9400   33.7340   48.8060 C   0  0  0  0  0  0  0  0  0  0  0  0
   59.6560   34.2780   48.6150 C   0  0  0  0  0  0  0  0  0  0  0  0
   59.1940   34.5510   47.3260 C   0  0  0  0  0  0  0  0  0  0  0  0
   60.0130   34.2970   46.2210 C   0  0  0  0  0  0  0  0  0  0  0  0
   61.2940   33.7670   46.4030 C   0  0  0  0  0  0  0  0  0  0  0  0
   61.7590   33.4880   47.6900 C   0  0  0  0  0  0  0  0  0  0  0  0
   58.4475   28.4380   49.3502 H   0  0  0  0  0  0  0  0  0  0  0  0
   57.9317   29.9012   48.3476 H   0  0  0  0  0  0  0  0  0  0  0  0
   60.6350   29.9270   49.0750 H   0  0  0  0  0  0  0  0  0  0  0  0
   61.5166   28.3541   47.5303 H   0  0  0  0  0  0  0  0  0  0  0  0
   60.6199   27.5967   48.9216 H   0  0  0  0  0  0  0  0  0  0  0  0
   60.5982   28.2481   45.2576 H   0  0  0  0  0  0  0  0  0  0  0  0
   59.1389   26.9827   43.6801 H   0  0  0  0  0  0  0  0  0  0  0  0
   55.5809   24.1959   42.5813 H   0  0  0  0  0  0  0  0  0  0  0  0
   55.6955   21.7804   41.9728 H   0  0  0  0  0  0  0  0  0  0  0  0
   57.3553   20.2867   43.0872 H   0  0  0  0  0  0  0  0  0  0  0  0
   58.9208   21.2169   44.7995 H   0  0  0  0  0  0  0  0  0  0  0  0
   58.8361   23.6396   45.3888 H   0  0  0  0  0  0  0  0  0  0  0  0
   56.9980   25.2715   47.0260 H   0  0  0  0  0  0  0  0  0  0  0  0
   58.5298   26.4406   48.6089 H   0  0  0  0  0  0  0  0  0  0  0  0
   58.1341   31.3632   47.8533 H   0  0  0  0  0  0  0  0  0  0  0  0
   59.0661   32.2586   46.6047 H   0  0  0  0  0  0  0  0  0  0  0  0
   57.2836   28.7297   46.8284 H   0  0  0  0  0  0  0  0  0  0  0  0
   56.2220   28.1800   44.5100 H   0  0  0  0  0  0  0  0  0  0  0  0
   56.0782   29.4258   42.0681 H   0  0  0  0  0  0  0  0  0  0  0  0
   56.7612   31.5186   40.8441 H   0  0  0  0  0  0  0  0  0  0  0  0
   58.0897   33.2875   42.0211 H   0  0  0  0  0  0  0  0  0  0  0  0
   58.7353   32.9857   44.4411 H   0  0  0  0  0  0  0  0  0  0  0  0
   61.0436   34.1842   50.8910 H   0  0  0  0  0  0  0  0  0  0  0  0
   62.5396   33.4621   50.1878 H   0  0  0  0  0  0  0  0  0  0  0  0
   59.0148   34.4886   49.4836 H   0  0  0  0  0  0  0  0  0  0  0  0
   58.1858   34.9659   47.1795 H   0  0  0  0  0  0  0  0  0  0  0  0
   59.6484   34.5147   45.2063 H   0  0  0  0  0  0  0  0  0  0  0  0
   61.9360   33.5696   45.5319 H   0  0  0  0  0  0  0  0  0  0  0  0
   62.7686   33.0747   47.8309 H   0  0  0  0  0  0  0  0  0  0  0  0
  1  2  2  0
  2  3  1  0
  3  4  1  0
  4  5  1  0
  5  6  1  0
  6  7  2  0
  7  8  1  0
  8  9  2  0
  9 10  1  0
 10 11  1  0
 11 12  2  0
 12 13  1  0
 13 14  2  0
 14 15  1  0
 15 16  2  0
  9 17  1  0
 17 18  2  0
  4 19  1  0
 19 20  2  0
 19 21  1  0
 21 22  1  0
 22 23  2  0
 23 24  1  0
 24 25  1  0
 25 26  2  0
 26 27  1  0
 27 28  2  0
 28 29  1  0
 29 30  2  0
  2 31  1  0
 31 32  1  0
 32 33  2  0
 32 34  2  0
 32 35  1  0
 35 36  1  0
 36 37  2  0
 37 38  1  0
 38 39  2  0
 39 40  1  0
 40 41  2  0
 18  6  1  0
 30 22  1  0
 41 36  1  0
 16 11  1  0
 30 25  1  0
  3 42  1  0
  3 43  1  0
  4 44  1  1
  5 45  1  0
  5 46  1  0
  7 47  1  0
  8 48  1  0
 12 49  1  0
 13 50  1  0
 14 51  1  0
 15 52  1  0
 16 53  1  0
 17 54  1  0
 18 55  1  0
 21 56  1  0
 21 57  1  0
 23 58  1  0
 24 59  1  0
 26 60  1  0
 27 61  1  0
 28 62  1  0
 29 63  1  0
 35 64  1  0
 35 65  1  0
 37 66  1  0
 38 67  1  0
 39 68  1  0
 40 69  1  0
 41 70  1  0
M  CHG  2   4   1  31  -1
M  END
>  <UniqueID>  (84) 
77

>  <SMILES>  (84) 
O=C(C[N@@H+](Cc1ccc(Oc2ccccc2)cc1)C(=O)Cc1c[nH]c2ccccc12)[N-]S(=O)(=O)Cc1ccccc1

>  <Energy>  (84) 
117.79817516427796

>  <Genealogy>  (84) 
O=C(C[NH+](Cc1ccc(Oc2ccccc2)cc1)C(=O)Cc1c[nH]c2ccccc12)[N-]S(=O)(=O)Cc1ccccc1 (protonated)
O=C(C[N@@H+](Cc1ccc(Oc2ccccc2)cc1)C(=O)Cc1c[nH]c2ccccc12)[N-]S(=O)(=O)Cc1ccccc1 (chirality)
O=C(C[N@@H+](Cc1ccc(Oc2ccccc2)cc1)C(=O)Cc1c[nH]c2ccccc12)[N-]S(=O)(=O)Cc1ccccc1 (3D coordinates assigned)
O=C(C[N@@H+](Cc1ccc(Oc2ccccc2)cc1)C(=O)Cc1c[nH]c2ccccc12)[N-]S(=O)(=O)Cc1ccccc1 (optimized conformer: 117.79817516427796 kcal/mol)

>  <smiles>  (84) 
O=C(CN(Cc1ccc(Oc2ccccc2)cc1)C(=O)Cc1c[nH]c2ccccc12)NS(=O)(=O)Cc1ccccc1

>  <score_type>  (84) 
oracle

>  <origin>  (84) 
adg

>  <m_score__min__energy>  (84) 
-11.16

>  <m_primary>  (84) 
energy

$$$$
84:0
     RDKit          3D

 50 52  0  0  0  0  0  0  0  0999 V2000
   55.9330   30.6120   52.4120 C   0  0  0  0  0  0  0  0  0  0  0  0
   56.9780   29.7350   52.0090 O   0  0  0  0  0  0  0  0  0  0  0  0
   58.3000   30.1620   51.8420 C   0  0  0  0  0  0  0  0  0  0  0  0
   59.2320   29.6010   52.4830 O   0  0  0  0  0  0  0  0  0  0  0  0
   58.6040   31.2580   50.8950 C   0  0  0  0  0  0  0  0  0  0  0  0
   58.6090   31.0190   49.5100 C   0  0  0  0  0  0  0  0  0  0  0  0
   58.9400   32.0410   48.6160 C   0  0  0  0  0  0  0  0  0  0  0  0
   59.2990   33.3130   49.0940 C   0  0  0  0  0  0  0  0  0  0  0  0
   59.6040   34.3940   48.2030 N   0  0  0  0  0  0  0  0  0  0  0  0
   59.2640   34.4850   46.8140 C   0  0  0  0  0  0  0  0  0  0  0  0
   60.0940   35.0020   46.0200 O   0  0  0  0  0  0  0  0  0  0  0  0
   58.0070   33.8820   46.2560 C   0  0  0  0  0  0  0  0  0  0  0  0
   58.3710   33.0920   44.6490 S   0  0  0  0  0  0  0  0  0  0  0  0
   57.9980   31.4350   45.2110 C   0  0  0  0  0  0  0  0  0  0  0  0
   58.8820   30.7780   46.0050 N   0  0  0  0  0  0  0  0  0  0  0  0
   58.6340   29.5130   46.4310 C   0  0  0  0  0  0  0  0  0  0  0  0
   59.4730   28.9290   47.1680 O   0  0  0  0  0  0  0  0  0  0  0  0
   57.4620   28.8610   46.0340 C   0  0  0  0  0  0  0  0  0  0  0  0
   57.2040   27.5180   46.4640 N   0  0  0  0  0  0  0  0  0  0  0  0
   56.6500   26.4860   45.6390 C   0  0  0  0  0  0  0  0  0  0  0  0
   55.5210   26.0120   45.9340 O   0  0  0  0  0  0  0  0  0  0  0  0
   57.4240   25.8760   44.5020 C   0  0  0  0  0  0  0  0  0  0  0  0
   57.2120   24.3880   44.4610 C   0  0  0  0  0  0  0  0  0  0  0  0
   57.7190   23.5750   45.4890 C   0  0  0  0  0  0  0  0  0  0  0  0
   57.5300   22.1910   45.4500 C   0  0  0  0  0  0  0  0  0  0  0  0
   56.8440   21.6070   44.3820 C   0  0  0  0  0  0  0  0  0  0  0  0
   56.3440   22.4070   43.3510 C   0  0  0  0  0  0  0  0  0  0  0  0
   56.5310   23.7920   43.3860 C   0  0  0  0  0  0  0  0  0  0  0  0
   56.5460   29.5680   45.2410 C   0  0  0  0  0  0  0  0  0  0  0  0
   55.3370   28.9880   44.8700 O   0  0  0  0  0  0  0  0  0  0  0  0
   56.8370   30.8350   44.8430 N   0  0  0  0  0  0  0  0  0  0  0  0
   59.2620   33.5620   50.4700 C   0  0  0  0  0  0  0  0  0  0  0  0
   58.9200   32.5450   51.3650 C   0  0  0  0  0  0  0  0  0  0  0  0
   55.8887   30.6492   53.5105 H   0  0  0  0  0  0  0  0  0  0  0  0
   56.1285   31.6205   52.0186 H   0  0  0  0  0  0  0  0  0  0  0  0
   54.9737   30.2445   52.0186 H   0  0  0  0  0  0  0  0  0  0  0  0
   58.3506   30.0207   49.1270 H   0  0  0  0  0  0  0  0  0  0  0  0
   58.9194   31.8489   47.5331 H   0  0  0  0  0  0  0  0  0  0  0  0
   57.6203   33.1271   46.9564 H   0  0  0  0  0  0  0  0  0  0  0  0
   57.2537   34.6709   46.1142 H   0  0  0  0  0  0  0  0  0  0  0  0
   57.0827   26.3168   43.5538 H   0  0  0  0  0  0  0  0  0  0  0  0
   58.4948   26.0795   44.6502 H   0  0  0  0  0  0  0  0  0  0  0  0
   58.2667   24.0298   46.3276 H   0  0  0  0  0  0  0  0  0  0  0  0
   57.9219   21.5602   46.2615 H   0  0  0  0  0  0  0  0  0  0  0  0
   56.6975   20.5172   44.3527 H   0  0  0  0  0  0  0  0  0  0  0  0
   55.8029   21.9466   42.5113 H   0  0  0  0  0  0  0  0  0  0  0  0
   56.1434   24.4178   42.5686 H   0  0  0  0  0  0  0  0  0  0  0  0
   55.1450   28.0130   45.0690 H   0  0  0  0  0  0  0  0  0  0  0  0
   59.5039   34.5655   50.8501 H   0  0  0  0  0  0  0  0  0  0  0  0
   58.8978   32.7527   52.4450 H   0  0  0  0  0  0  0  0  0  0  0  0
  1  2  1  0
  2  3  1  0
  3  4  2  0
  3  5  1  0
  5  6  2  0
  6  7  1  0
  7  8  2  0
  8  9  1  0
  9 10  1  0
 10 11  2  0
 10 12  1  0
 12 13  1  0
 13 14  1  0
 14 15  2  0
 15 16  1  0
 16 17  2  0
 16 18  1  0
 18 19  1  0
 19 20  1  0
 20 21  2  0
 20 22  1  0
 22 23  1  0
 23 24  2  0
 24 25  1  0
 25 26  2  0
 26 27  1  0
 27 28  2  0
 18 29  2  0
 29 30  1  0
 29 31  1  0
  8 32  1  0
 32 33  2  0
 33  5  1  0
 31 14  1  0
 28 23  1  0
  1 34  1  0
  1 35  1  0
  1 36  1  0
  6 37  1  0
  7 38  1  0
 12 39  1  0
 12 40  1  0
 22 41  1  0
 22 42  1  0
 24 43  1  0
 25 44  1  0
 26 45  1  0
 27 46  1  0
 28 47  1  0
 30 48  1  0
 32 49  1  0
 33 50  1  0
M  CHG  3   9  -1  19  -1  31  -1
M  END
>  <UniqueID>  (85) 
78

>  <SMILES>  (85) 
COC(=O)c1ccc([N-]C(=O)CSc2nc(=O)c([N-]C(=O)Cc3ccccc3)c(O)[n-]2)cc1

>  <Energy>  (85) 
49.25450404817759

>  <Genealogy>  (85) 
COC(=O)c1ccc([N-]C(=O)CSc2nc(=O)c([N-]C(=O)Cc3ccccc3)c(O)[n-]2)cc1 (protonated)
COC(=O)c1ccc([N-]C(=O)CSc2nc(=O)c([N-]C(=O)Cc3ccccc3)c(O)[n-]2)cc1 (3D coordinates assigned)
COC(=O)c1ccc([N-]C(=O)CSc2nc(=O)c([N-]C(=O)Cc3ccccc3)c(O)[n-]2)cc1 (optimized conformer: 49.25450404817759 kcal/mol)

>  <smiles>  (85) 
COC(=O)c1ccc(NC(=O)CSc2nc(=O)c(NC(=O)Cc3ccccc3)c(O)[nH]2)cc1

>  <score_type>  (85) 
oracle

>  <origin>  (85) 
adg

>  <m_score__min__energy>  (85) 
-13.31

>  <m_primary>  (85) 
energy

$$$$
85:0
     RDKit          3D

 43 44  0  0  0  0  0  0  0  0999 V2000
   57.7070   31.3910   51.4210 C   0  0  0  0  0  0  0  0  0  0  0  0
   58.1650   31.3000   50.0760 O   0  0  0  0  0  0  0  0  0  0  0  0
   58.6530   32.3840   49.3310 C   0  0  0  0  0  0  0  0  0  0  0  0
   59.6640   33.1730   49.8900 C   0  0  0  0  0  0  0  0  0  0  0  0
   60.1920   34.2530   49.1810 C   0  0  0  0  0  0  0  0  0  0  0  0
   59.7160   34.5550   47.9030 C   0  0  0  0  0  0  0  0  0  0  0  0
   58.7000   33.7710   47.3230 C   0  0  0  0  0  0  0  0  0  0  0  0
   58.2040   34.0170   46.0320 O   0  0  0  0  0  0  0  0  0  0  0  0
   58.8770   33.6840   44.8160 C   0  0  0  0  0  0  0  0  0  0  0  0
   58.1110   32.6350   44.0510 C   0  0  0  0  0  0  0  0  0  0  0  0
   57.9760   32.7290   42.6570 C   0  0  0  0  0  0  0  0  0  0  0  0
   57.3000   31.7330   41.9480 C   0  0  0  0  0  0  0  0  0  0  0  0
   56.7700   30.6300   42.6210 C   0  0  0  0  0  0  0  0  0  0  0  0
   56.9060   30.5190   44.0130 C   0  0  0  0  0  0  0  0  0  0  0  0
   56.3830   29.3260   44.7090 C   0  0  0  0  0  0  0  0  0  0  0  0
   55.1440   29.2310   44.9060 O   0  0  0  0  0  0  0  0  0  0  0  0
   57.2330   28.2490   45.1360 N   0  0  0  0  0  0  0  0  0  0  0  0
   57.3720   27.7210   46.4930 C   0  0  0  0  0  0  0  0  0  0  0  0
   57.6070   26.2060   46.5050 C   0  0  0  0  0  0  0  0  0  0  0  0
   56.0880   25.2770   46.3270 S   0  0  0  0  0  0  0  0  0  0  0  0
   54.7730   26.3410   45.9680 N   0  0  0  0  0  0  0  0  0  0  0  0
   55.7960   24.5190   47.5910 O   0  0  0  0  0  0  0  0  0  0  0  0
   56.2470   24.3020   45.1950 O   0  0  0  0  0  0  0  0  0  0  0  0
   57.5330   31.5490   44.7270 C   0  0  0  0  0  0  0  0  0  0  0  0
   58.1680   32.6970   48.0460 C   0  0  0  0  0  0  0  0  0  0  0  0
   58.5500   31.2235   52.1075 H   0  0  0  0  0  0  0  0  0  0  0  0
   57.2836   32.3908   51.5973 H   0  0  0  0  0  0  0  0  0  0  0  0
   56.9335   30.6290   51.5973 H   0  0  0  0  0  0  0  0  0  0  0  0
   60.0454   32.9406   50.8952 H   0  0  0  0  0  0  0  0  0  0  0  0
   60.9855   34.8683   49.6301 H   0  0  0  0  0  0  0  0  0  0  0  0
   60.1357   35.4072   47.3483 H   0  0  0  0  0  0  0  0  0  0  0  0
   58.9691   34.5876   44.1955 H   0  0  0  0  0  0  0  0  0  0  0  0
   59.8724   33.2853   45.0614 H   0  0  0  0  0  0  0  0  0  0  0  0
   58.4037   33.5893   42.1213 H   0  0  0  0  0  0  0  0  0  0  0  0
   57.1849   31.8177   40.8573 H   0  0  0  0  0  0  0  0  0  0  0  0
   56.2439   29.8453   42.0576 H   0  0  0  0  0  0  0  0  0  0  0  0
   58.2256   28.2155   46.9796 H   0  0  0  0  0  0  0  0  0  0  0  0
   56.4332   27.9209   47.0304 H   0  0  0  0  0  0  0  0  0  0  0  0
   58.2790   25.9464   45.6737 H   0  0  0  0  0  0  0  0  0  0  0  0
   58.0480   25.9433   47.4779 H   0  0  0  0  0  0  0  0  0  0  0  0
   55.1470   27.3160   45.9920 H   0  0  0  0  0  0  0  0  0  0  0  0
   57.5725   31.5062   45.8255 H   0  0  0  0  0  0  0  0  0  0  0  0
   57.3624   32.0908   47.6060 H   0  0  0  0  0  0  0  0  0  0  0  0
  1  2  1  0
  2  3  1  0
  3  4  2  0
  4  5  1  0
  5  6  2  0
  6  7  1  0
  7  8  1  0
  8  9  1  0
  9 10  1  0
 10 11  2  0
 11 12  1  0
 12 13  2  0
 13 14  1  0
 14 15  1  0
 15 16  2  0
 15 17  1  0
 17 18  1  0
 18 19  1  0
 19 20  1  0
 20 21  1  0
 20 22  2  0
 20 23  2  0
 14 24  2  0
  7 25  2  0
 25  3  1  0
 24 10  1  0
  1 26  1  0
  1 27  1  0
  1 28  1  0
  4 29  1  0
  5 30  1  0
  6 31  1  0
  9 32  1  0
  9 33  1  0
 11 34  1  0
 12 35  1  0
 13 36  1  0
 18 37  1  0
 18 38  1  0
 19 39  1  0
 19 40  1  0
 21 41  1  0
 24 42  1  0
 25 43  1  0
M  CHG  2  17  -1  21  -1
M  END
>  <UniqueID>  (86) 
79

>  <SMILES>  (86) 
COc1cccc(OCc2cccc(C(=O)[N-]CCS([NH-])(=O)=O)c2)c1

>  <Energy>  (86) 
37.137485158515695

>  <Genealogy>  (86) 
COc1cccc(OCc2cccc(C(=O)[N-]CCS([NH-])(=O)=O)c2)c1 (protonated)
COc1cccc(OCc2cccc(C(=O)[N-]CCS([NH-])(=O)=O)c2)c1 (3D coordinates assigned)
COc1cccc(OCc2cccc(C(=O)[N-]CCS([NH-])(=O)=O)c2)c1 (optimized conformer: 37.137485158515695 kcal/mol)

>  <smiles>  (86) 
COc1cccc(OCc2cccc(C(=O)NCCS(N)(=O)=O)c2)c1

>  <score_type>  (86) 
oracle

>  <origin>  (86) 
adg

>  <m_score__min__energy>  (86) 
-13.1

>  <m_primary>  (86) 
energy

$$$$
86:0
     RDKit          3D

 31 33  0  0  1  0  0  0  0  0999 V2000
   59.6780   34.9630   46.8670 C   0  0  0  0  0  0  0  0  0  0  0  0
   58.9930   34.0800   45.8330 C   0  0  0  0  0  0  0  0  0  0  0  0
   59.1090   34.4160   44.4950 C   0  0  0  0  0  0  0  0  0  0  0  0
   58.1290   33.0640   43.6550 S   0  0  0  0  0  0  0  0  0  0  0  0
   57.7320   32.2830   45.2090 C   0  0  0  0  0  0  0  0  0  0  0  0
   57.0350   31.2420   45.2590 N   0  0  0  0  0  0  0  0  0  0  0  0
   57.5580   29.9290   45.2140 C   0  0  0  0  0  0  0  0  0  0  0  0
   56.9850   28.8880   45.6120 O   0  0  0  0  0  0  0  0  0  0  0  0
   58.9380   29.8280   44.6260 C   0  0  0  0  0  0  0  0  0  0  0  0
   59.9810   29.1440   45.9660 S   0  0  0  0  0  0  0  0  0  0  0  0
   60.6630   30.5370   46.8690 C   0  0  0  0  0  0  0  0  0  0  0  0
   59.7850   31.2310   47.6320 N   0  0  0  0  0  0  0  0  0  0  0  0
   60.1900   32.2890   48.3460 C   0  0  0  0  0  0  0  0  0  0  0  0
   59.3250   32.8950   49.0360 O   0  0  0  0  0  0  0  0  0  0  0  0
   61.5060   32.6380   48.2770 C   0  0  0  0  0  0  0  0  0  0  0  0
   62.1980   33.6440   48.8770 C   0  0  0  0  0  0  0  0  0  0  0  0
   63.4710   33.5430   48.4720 N   0  0  0  0  0  0  0  0  0  0  0  0
   63.5890   32.5240   47.6540 N   0  0  0  0  0  0  0  0  0  0  0  0
   62.4120   31.9220   47.4890 C   0  0  0  0  0  0  0  0  0  0  0  0
   61.9600   30.8590   46.7840 N   0  0  0  0  0  0  0  0  0  0  0  0
   58.3060   33.0230   46.1470 N   0  0  0  0  0  0  0  0  0  0  0  0
   59.4113   34.6191   47.8773 H   0  0  0  0  0  0  0  0  0  0  0  0
   60.7685   34.9034   46.7354 H   0  0  0  0  0  0  0  0  0  0  0  0
   59.3492   36.0044   46.7354 H   0  0  0  0  0  0  0  0  0  0  0  0
   59.6428   35.2640   44.0411 H   0  0  0  0  0  0  0  0  0  0  0  0
   58.9382   29.1556   43.7555 H   0  0  0  0  0  0  0  0  0  0  0  0
   59.3074   30.8024   44.2738 H   0  0  0  0  0  0  0  0  0  0  0  0
   61.7892   34.3984   49.5652 H   0  0  0  0  0  0  0  0  0  0  0  0
   64.4620   32.2030   47.1810 H   0  0  0  0  0  0  0  0  0  0  0  0
   62.6170   30.3060   46.1890 H   0  0  0  0  0  0  0  0  0  0  0  0
   58.1860   32.7250   47.1850 H   0  0  0  0  0  0  0  0  0  0  0  0
  1  2  1  0
  2  3  2  0
  3  4  1  0
  4  5  1  0
  5  6  2  0
  6  7  1  0
  7  8  2  0
  7  9  1  0
  9 10  1  0
 10 11  1  0
 11 12  2  0
 12 13  1  0
 13 14  2  0
 13 15  1  0
 15 16  1  0
 16 17  2  0
 17 18  1  0
 18 19  1  0
 19 20  1  0
  5 21  1  0
 21  2  1  0
 20 11  1  0
 19 15  2  0
  1 22  1  0
  1 23  1  0
  1 24  1  0
  3 25  1  0
  9 26  1  0
  9 27  1  0
 16 28  1  0
 18 29  1  0
 20 30  1  0
 21 31  1  0
M  END
>  <smiles>  (87) 
Cc1csc(=NC(=O)CSc2nc(=O)c3cn[nH]c3[nH]2)[nH]1

>  <score_type>  (87) 
oracle

>  <origin>  (87) 
adg

>  <m_score__min__energy>  (87) 
-8.0600000000000005

>  <m_primary>  (87) 
energy

$$$$
87:0
     RDKit          3D

 51 54  0  0  0  0  0  0  0  0999 V2000
   55.2950   30.1960   52.3770 C   0  0  0  0  0  0  0  0  0  0  0  0
   56.5950   30.9340   52.2510 C   0  0  0  0  0  0  0  0  0  0  0  0
   56.6370   32.3290   52.3880 C   0  0  0  0  0  0  0  0  0  0  0  0
   57.8550   33.0100   52.2950 C   0  0  0  0  0  0  0  0  0  0  0  0
   59.0450   32.3090   52.0580 C   0  0  0  0  0  0  0  0  0  0  0  0
   60.3200   33.0570   51.9850 C   0  0  0  0  0  0  0  0  0  0  0  0
   60.6960   33.8600   50.9740 C   0  0  0  0  0  0  0  0  0  0  0  0
   60.5160   33.5630   49.5400 C   0  0  0  0  0  0  0  0  0  0  0  0
   61.1270   32.5750   49.0510 O   0  0  0  0  0  0  0  0  0  0  0  0
   59.6930   34.4010   48.7080 N   0  0  0  0  0  0  0  0  0  0  0  0
   59.3060   34.0740   47.3640 C   0  0  0  0  0  0  0  0  0  0  0  0
   59.7610   34.8780   46.3070 C   0  0  0  0  0  0  0  0  0  0  0  0
   59.4230   34.5750   44.9850 C   0  0  0  0  0  0  0  0  0  0  0  0
   58.6370   33.4540   44.7030 C   0  0  0  0  0  0  0  0  0  0  0  0
   58.3100   33.1550   43.4180 N   0  0  0  0  0  0  0  0  0  0  0  0
   57.5570   32.0690   43.0990 C   0  0  0  0  0  0  0  0  0  0  0  0
   57.3010   31.8390   41.8880 O   0  0  0  0  0  0  0  0  0  0  0  0
   57.0850   31.2090   44.1140 C   0  0  0  0  0  0  0  0  0  0  0  0
   56.2520   30.0190   43.7950 C   0  0  0  0  0  0  0  0  0  0  0  0
   55.8460   29.8450   42.6170 O   0  0  0  0  0  0  0  0  0  0  0  0
   55.8450   29.0840   44.8040 N   0  0  0  0  0  0  0  0  0  0  0  0
   56.6820   28.0970   45.4220 C   0  0  0  0  0  0  0  0  0  0  0  0
   58.0650   28.3210   45.4710 C   0  0  0  0  0  0  0  0  0  0  0  0
   58.9180   27.3670   46.0360 C   0  0  0  0  0  0  0  0  0  0  0  0
   58.3910   26.1900   46.5690 C   0  0  0  0  0  0  0  0  0  0  0  0
   57.0100   25.9710   46.5520 C   0  0  0  0  0  0  0  0  0  0  0  0
   56.1520   26.9230   45.9970 C   0  0  0  0  0  0  0  0  0  0  0  0
   54.7790   26.7070   46.0380 O   0  0  0  0  0  0  0  0  0  0  0  0
   57.4030   31.5110   45.4490 C   0  0  0  0  0  0  0  0  0  0  0  0
   58.1880   32.6290   45.7540 C   0  0  0  0  0  0  0  0  0  0  0  0
   58.5320   32.9350   47.0780 C   0  0  0  0  0  0  0  0  0  0  0  0
   59.0060   30.9050   51.9730 C   0  0  0  0  0  0  0  0  0  0  0  0
   57.7880   30.2260   52.0590 C   0  0  0  0  0  0  0  0  0  0  0  0
   55.0530   30.0586   53.4412 H   0  0  0  0  0  0  0  0  0  0  0  0
   54.4960   30.7752   51.8911 H   0  0  0  0  0  0  0  0  0  0  0  0
   55.3828   29.2131   51.8911 H   0  0  0  0  0  0  0  0  0  0  0  0
   55.7083   32.8898   52.5693 H   0  0  0  0  0  0  0  0  0  0  0  0
   57.8790   34.1038   52.4087 H   0  0  0  0  0  0  0  0  0  0  0  0
   61.0182   32.9469   52.8279 H   0  0  0  0  0  0  0  0  0  0  0  0
   61.1759   34.8142   51.2370 H   0  0  0  0  0  0  0  0  0  0  0  0
   59.2450   35.2390   49.1400 H   0  0  0  0  0  0  0  0  0  0  0  0
   60.3896   35.7549   46.5212 H   0  0  0  0  0  0  0  0  0  0  0  0
   59.7757   35.2191   44.1660 H   0  0  0  0  0  0  0  0  0  0  0  0
   58.4823   29.2532   45.0624 H   0  0  0  0  0  0  0  0  0  0  0  0
   60.0033   27.5445   46.0601 H   0  0  0  0  0  0  0  0  0  0  0  0
   59.0622   25.4341   47.0027 H   0  0  0  0  0  0  0  0  0  0  0  0
   56.5975   25.0444   46.9778 H   0  0  0  0  0  0  0  0  0  0  0  0
   57.0329   30.8652   46.2589 H   0  0  0  0  0  0  0  0  0  0  0  0
   58.1953   32.2818   47.8965 H   0  0  0  0  0  0  0  0  0  0  0  0
   59.9395   30.3390   51.8381 H   0  0  0  0  0  0  0  0  0  0  0  0
   57.7659   29.1294   51.9755 H   0  0  0  0  0  0  0  0  0  0  0  0
  1  2  1  0
  2  3  2  0
  3  4  1  0
  4  5  2  0
  5  6  1  0
  6  7  2  3
  7  8  1  0
  8  9  2  0
  8 10  1  0
 10 11  1  0
 11 12  2  0
 12 13  1  0
 13 14  2  0
 14 15  1  0
 15 16  1  0
 16 17  2  0
 16 18  1  0
 18 19  1  0
 19 20  2  0
 19 21  1  0
 21 22  1  0
 22 23  2  0
 23 24  1  0
 24 25  2  0
 25 26  1  0
 26 27  2  0
 27 28  1  0
 18 29  2  0
 29 30  1  0
 30 31  2  0
  5 32  1  0
 32 33  2  0
 33  2  1  0
 31 11  1  0
 30 14  1  0
 27 22  1  0
  1 34  1  0
  1 35  1  0
  1 36  1  0
  3 37  1  0
  4 38  1  0
  6 39  1  0
  7 40  1  0
 10 41  1  0
 12 42  1  0
 13 43  1  0
 23 44  1  0
 24 45  1  0
 25 46  1  0
 26 47  1  0
 29 48  1  0
 31 49  1  0
 32 50  1  0
 33 51  1  0
M  CHG  3  15  -1  21  -1  28  -1
M  END
>  <UniqueID>  (88) 
80

>  <SMILES>  (88) 
Cc1ccc(C=CC(=O)Nc2ccc3[n-]c(=O)c(C(=O)[N-]c4ccccc4[O-])cc3c2)cc1

>  <Energy>  (88) 
79.81690256592991

>  <Genealogy>  (88) 
Cc1ccc(C=CC(=O)Nc2ccc3[n-]c(=O)c(C(=O)[N-]c4ccccc4[O-])cc3c2)cc1 (protonated)
Cc1ccc(C=CC(=O)Nc2ccc3[n-]c(=O)c(C(=O)[N-]c4ccccc4[O-])cc3c2)cc1 (3D coordinates assigned)
Cc1ccc(C=CC(=O)Nc2ccc3[n-]c(=O)c(C(=O)[N-]c4ccccc4[O-])cc3c2)cc1 (optimized conformer: 79.81690256592991 kcal/mol)

>  <smiles>  (88) 
Cc1ccc(C=CC(=O)Nc2ccc3[nH]c(=O)c(C(=O)Nc4ccccc4O)cc3c2)cc1

>  <score_type>  (88) 
oracle

>  <origin>  (88) 
adg

>  <m_score__min__energy>  (88) 
-16.620000000000001

>  <m_primary>  (88) 
energy

$$$$
88:0
     RDKit          3D

 44 46  0  0  0  0  0  0  0  0999 V2000
   59.6470   34.9430   46.6580 C   0  0  0  0  0  0  0  0  0  0  0  0
   59.5350   33.8560   45.5960 C   0  0  0  0  0  0  0  0  0  0  0  0
   58.3430   32.9820   45.8610 C   0  0  0  0  0  0  0  0  0  0  0  0
   57.7260   33.0900   46.9550 O   0  0  0  0  0  0  0  0  0  0  0  0
   57.9620   31.9570   44.9290 N   0  0  0  0  0  0  0  0  0  0  0  0
   57.4680   32.4060   43.6180 C   0  0  0  0  0  0  0  0  0  0  0  0
   57.3860   31.2540   42.6150 C   0  0  0  0  0  0  0  0  0  0  0  0
   56.5800   30.0960   43.2040 C   0  0  0  0  0  0  0  0  0  0  0  0
   57.1850   29.6430   44.5040 C   0  0  0  0  0  0  0  0  0  0  0  0
   57.0510   28.3050   44.9070 C   0  0  0  0  0  0  0  0  0  0  0  0
   57.6250   27.8570   46.1020 C   0  0  0  0  0  0  0  0  0  0  0  0
   57.4560   26.4830   46.4940 N   0  0  0  0  0  0  0  0  0  0  0  0
   56.2450   25.7350   46.3050 C   0  0  0  0  0  0  0  0  0  0  0  0
   55.1670   26.3180   46.0100 O   0  0  0  0  0  0  0  0  0  0  0  0
   56.2580   24.2460   46.4610 C   0  0  0  0  0  0  0  0  0  0  0  0
   56.5640   23.6160   45.1800 N   0  0  0  0  0  0  0  0  0  0  0  0
   57.2640   22.4810   44.9990 C   0  0  0  0  0  0  0  0  0  0  0  0
   57.2830   22.1540   43.6580 C   0  0  0  0  0  0  0  0  0  0  0  0
   56.5530   23.1300   43.0040 C   0  0  0  0  0  0  0  0  0  0  0  0
   56.1190   24.0130   43.9720 C   0  0  0  0  0  0  0  0  0  0  0  0
   58.3070   28.7720   46.9190 C   0  0  0  0  0  0  0  0  0  0  0  0
   58.4280   30.1090   46.5360 C   0  0  0  0  0  0  0  0  0  0  0  0
   57.8470   30.5700   45.3380 C   0  0  0  0  0  0  0  0  0  0  0  0
   59.5999   34.4856   47.6573 H   0  0  0  0  0  0  0  0  0  0  0  0
   60.6044   35.4720   46.5417 H   0  0  0  0  0  0  0  0  0  0  0  0
   58.8176   35.6561   46.5417 H   0  0  0  0  0  0  0  0  0  0  0  0
   59.4266   34.3258   44.6073 H   0  0  0  0  0  0  0  0  0  0  0  0
   60.4435   33.2364   45.6242 H   0  0  0  0  0  0  0  0  0  0  0  0
   56.4649   32.8391   43.7451 H   0  0  0  0  0  0  0  0  0  0  0  0
   58.1745   33.1516   43.2243 H   0  0  0  0  0  0  0  0  0  0  0  0
   56.8958   31.6071   41.6957 H   0  0  0  0  0  0  0  0  0  0  0  0
   58.4036   30.9034   42.3878 H   0  0  0  0  0  0  0  0  0  0  0  0
   55.5463   30.4275   43.3815 H   0  0  0  0  0  0  0  0  0  0  0  0
   56.5914   29.2561   42.4937 H   0  0  0  0  0  0  0  0  0  0  0  0
   56.4885   27.6008   44.2764 H   0  0  0  0  0  0  0  0  0  0  0  0
   58.2380   26.0200   47.0100 H   0  0  0  0  0  0  0  0  0  0  0  0
   57.0231   23.9630   47.1989 H   0  0  0  0  0  0  0  0  0  0  0  0
   55.2688   23.9086   46.8040 H   0  0  0  0  0  0  0  0  0  0  0  0
   57.7480   21.9013   45.7989 H   0  0  0  0  0  0  0  0  0  0  0  0
   57.7811   21.2871   43.1994 H   0  0  0  0  0  0  0  0  0  0  0  0
   56.3567   23.1906   41.9234 H   0  0  0  0  0  0  0  0  0  0  0  0
   55.5033   24.9053   43.7855 H   0  0  0  0  0  0  0  0  0  0  0  0
   58.7492   28.4333   47.8676 H   0  0  0  0  0  0  0  0  0  0  0  0
   58.9830   30.8103   47.1765 H   0  0  0  0  0  0  0  0  0  0  0  0
  1  2  1  0
  2  3  1  0
  3  4  2  0
  3  5  1  0
  5  6  1  0
  6  7  1  0
  7  8  1  0
  8  9  1  0
  9 10  2  0
 10 11  1  0
 11 12  1  0
 12 13  1  0
 13 14  2  0
 13 15  1  0
 15 16  1  0
 16 17  1  0
 17 18  2  0
 18 19  1  0
 19 20  2  0
 11 21  2  0
 21 22  1  0
 22 23  2  0
 23  5  1  0
 23  9  1  0
 20 16  1  0
  1 24  1  0
  1 25  1  0
  1 26  1  0
  2 27  1  0
  2 28  1  0
  6 29  1  0
  6 30  1  0
  7 31  1  0
  7 32  1  0
  8 33  1  0
  8 34  1  0
 10 35  1  0
 12 36  1  0
 15 37  1  0
 15 38  1  0
 17 39  1  0
 18 40  1  0
 19 41  1  0
 20 42  1  0
 21 43  1  0
 22 44  1  0
M  END
>  <UniqueID>  (89) 
81

>  <SMILES>  (89) 
CCC(=O)N1CCCc2cc(NC(=O)Cn3cccc3)ccc21

>  <Energy>  (89) 
74.49246345862554

>  <Genealogy>  (89) 
CCC(=O)N1CCCc2cc(NC(=O)Cn3cccc3)ccc21 (3D coordinates assigned)
CCC(=O)N1CCCc2cc(NC(=O)Cn3cccc3)ccc21 (nonaromatic ring conformer: 74.49246345862554 kcal/mol)

>  <smiles>  (89) 
CCC(=O)N1CCCc2cc(NC(=O)Cn3cccc3)ccc21

>  <score_type>  (89) 
oracle

>  <origin>  (89) 
adg

>  <m_score__min__energy>  (89) 
-7.7599999999999998

>  <m_primary>  (89) 
energy

$$$$
89:0
     RDKit          3D

 28 29  0  0  1  0  0  0  0  0999 V2000
   59.8070   27.6060   47.1320 C   0  0  0  0  0  0  0  0  0  0  0  0
   60.3040   27.6420   45.9130 C   0  0  0  0  0  0  0  0  0  0  0  0
   60.6620   28.9690   45.2320 C   0  0  0  0  0  0  0  0  0  0  0  0
   59.9270   29.9100   45.9790 N   0  0  0  0  0  0  0  0  0  0  0  0
   58.9330   30.5500   45.5610 C   0  0  0  0  0  0  0  0  0  0  0  0
   58.0120   29.8260   44.8660 N   0  0  0  0  0  0  0  0  0  0  0  0
   56.8930   30.3210   44.3410 C   0  0  0  0  0  0  0  0  0  0  0  0
   55.9440   29.4640   43.6000 C   0  0  0  0  0  0  0  0  0  0  0  0
   55.0100   28.9670   44.4760 F   0  0  0  0  0  0  0  0  0  0  0  0
   56.6720   31.6340   44.5180 N   0  0  0  0  0  0  0  0  0  0  0  0
   57.5610   32.3670   45.1970 C   0  0  0  0  0  0  0  0  0  0  0  0
   57.4340   34.1540   45.5400 S   0  0  0  0  0  0  0  0  0  0  0  0
   59.0340   34.1630   46.4590 C   0  0  0  0  0  0  0  0  0  0  0  0
   59.6360   35.3260   47.0750 C   0  0  0  0  0  0  0  0  0  0  0  0
   59.4910   32.8040   46.4040 C   0  0  0  0  0  0  0  0  0  0  0  0
   58.7270   31.9390   45.7650 C   0  0  0  0  0  0  0  0  0  0  0  0
   59.5591   26.6402   47.5966 H   0  0  0  0  0  0  0  0  0  0  0  0
   59.6398   28.5417   47.6856 H   0  0  0  0  0  0  0  0  0  0  0  0
   60.4661   26.6988   45.3707 H   0  0  0  0  0  0  0  0  0  0  0  0
   61.7419   29.1686   45.2957 H   0  0  0  0  0  0  0  0  0  0  0  0
   60.4263   28.9852   44.1577 H   0  0  0  0  0  0  0  0  0  0  0  0
   58.1680   28.7900   44.7160 H   0  0  0  0  0  0  0  0  0  0  0  0
   55.4409   30.0578   42.8227 H   0  0  0  0  0  0  0  0  0  0  0  0
   56.4869   28.6331   43.1259 H   0  0  0  0  0  0  0  0  0  0  0  0
   59.5856   35.2286   48.1695 H   0  0  0  0  0  0  0  0  0  0  0  0
   60.6876   35.4038   46.7618 H   0  0  0  0  0  0  0  0  0  0  0  0
   59.0924   36.2295   46.7618 H   0  0  0  0  0  0  0  0  0  0  0  0
   60.4369   32.4969   46.8740 H   0  0  0  0  0  0  0  0  0  0  0  0
  1  2  2  0
  2  3  1  0
  3  4  1  0
  4  5  2  0
  5  6  1  0
  6  7  1  0
  7  8  1  0
  8  9  1  0
  7 10  2  0
 10 11  1  0
 11 12  1  0
 12 13  1  0
 13 14  1  0
 13 15  2  0
 15 16  1  0
 16  5  1  0
 16 11  2  0
  1 17  1  0
  1 18  1  0
  2 19  1  0
  3 20  1  0
  3 21  1  0
  6 22  1  0
  8 23  1  0
  8 24  1  0
 14 25  1  0
 14 26  1  0
 14 27  1  0
 15 28  1  0
M  END
>  <smiles>  (90) 
C=CCN=c1[nH]c(CF)nc2sc(C)cc12

>  <score_type>  (90) 
oracle

>  <origin>  (90) 
adg

>  <m_score__min__energy>  (90) 
-6

>  <m_primary>  (90) 
energy

$$$$
90:0
     RDKit          3D

 32 34  0  0  0  0  0  0  0  0999 V2000
   55.0620   29.3500   44.5060 N   0  0  0  0  0  0  0  0  0  0  0  0
   56.7660   29.6120   44.6390 S   0  0  0  0  0  0  0  0  0  0  0  0
   57.0000   31.0080   45.1430 O   0  0  0  0  0  0  0  0  0  0  0  0
   57.3930   29.4550   43.2830 O   0  0  0  0  0  0  0  0  0  0  0  0
   57.4900   28.4510   45.7540 C   0  0  0  0  0  0  0  0  0  0  0  0
   58.7650   28.6910   46.2890 C   0  0  0  0  0  0  0  0  0  0  0  0
   59.3490   27.7750   47.1800 C   0  0  0  0  0  0  0  0  0  0  0  0
   60.6960   28.0620   47.7860 C   0  0  0  0  0  0  0  0  0  0  0  0
   60.7660   29.4540   48.2210 N   0  0  0  0  0  0  0  0  0  0  0  0
   60.0010   30.0520   49.2750 C   0  0  0  0  0  0  0  0  0  0  0  0
   59.3730   29.4030   50.1530 O   0  0  0  0  0  0  0  0  0  0  0  0
   60.0380   31.5050   49.1570 C   0  0  0  0  0  0  0  0  0  0  0  0
   59.4610   32.5150   49.9210 C   0  0  0  0  0  0  0  0  0  0  0  0
   59.6790   33.8420   49.5150 C   0  0  0  0  0  0  0  0  0  0  0  0
   60.4570   34.1070   48.3640 C   0  0  0  0  0  0  0  0  0  0  0  0
   60.9990   33.0830   47.6410 N   0  0  0  0  0  0  0  0  0  0  0  0
   60.7870   31.8060   48.0470 C   0  0  0  0  0  0  0  0  0  0  0  0
   61.2350   30.5610   47.4430 C   0  0  0  0  0  0  0  0  0  0  0  0
   61.9120   30.4550   46.3870 O   0  0  0  0  0  0  0  0  0  0  0  0
   58.6360   26.6260   47.5510 C   0  0  0  0  0  0  0  0  0  0  0  0
   57.3650   26.3860   47.0260 C   0  0  0  0  0  0  0  0  0  0  0  0
   56.7880   27.2940   46.1330 C   0  0  0  0  0  0  0  0  0  0  0  0
   55.5160   27.0400   45.6320 O   0  0  0  0  0  0  0  0  0  0  0  0
   54.6770   29.3420   45.4780 H   0  0  0  0  0  0  0  0  0  0  0  0
   59.3115   29.6035   46.0085 H   0  0  0  0  0  0  0  0  0  0  0  0
   60.8530   27.4022   48.6520 H   0  0  0  0  0  0  0  0  0  0  0  0
   61.4754   27.8819   47.0310 H   0  0  0  0  0  0  0  0  0  0  0  0
   58.8564   32.2827   50.8101 H   0  0  0  0  0  0  0  0  0  0  0  0
   59.2457   34.6730   50.0909 H   0  0  0  0  0  0  0  0  0  0  0  0
   60.6270   35.1469   48.0484 H   0  0  0  0  0  0  0  0  0  0  0  0
   59.0802   25.9106   48.2588 H   0  0  0  0  0  0  0  0  0  0  0  0
   56.8150   25.4786   47.3161 H   0  0  0  0  0  0  0  0  0  0  0  0
  1  2  1  0
  2  3  2  0
  2  4  2  0
  2  5  1  0
  5  6  2  0
  6  7  1  0
  7  8  1  0
  8  9  1  0
  9 10  1  0
 10 11  2  0
 10 12  1  0
 12 13  2  0
 13 14  1  0
 14 15  2  0
 15 16  1  0
 16 17  2  0
 17 18  1  0
 18 19  2  0
  7 20  2  0
 20 21  1  0
 21 22  2  0
 22 23  1  0
 22  5  1  0
 18  9  1  0
 17 12  1  0
  1 24  1  0
  6 25  1  0
  8 26  1  0
  8 27  1  0
 13 28  1  0
 14 29  1  0
 15 30  1  0
 20 31  1  0
 21 32  1  0
M  CHG  2   1  -1  23  -1
M  END
>  <UniqueID>  (91) 
82

>  <SMILES>  (91) 
[NH-]S(=O)(=O)c1cc(CN2C(=O)c3cccnc3C2=O)ccc1[O-]

>  <Energy>  (91) 
67.88621099570243

>  <Genealogy>  (91) 
[NH-]S(=O)(=O)c1cc(CN2C(=O)c3cccnc3C2=O)ccc1[O-] (protonated)
[NH-]S(=O)(=O)c1cc(CN2C(=O)c3cccnc3C2=O)ccc1[O-] (3D coordinates assigned)
[NH-]S(=O)(=O)c1cc(CN2C(=O)c3cccnc3C2=O)ccc1[O-] (nonaromatic ring conformer: 67.88621099570243 kcal/mol)

>  <smiles>  (91) 
NS(=O)(=O)c1cc(CN2C(=O)c3cccnc3C2=O)ccc1O

>  <score_type>  (91) 
oracle

>  <origin>  (91) 
adg

>  <m_score__min__energy>  (91) 
-12.99

>  <m_primary>  (91) 
energy

$$$$
91:0
     RDKit          3D

 36 38  0  0  0  0  0  0  0  0999 V2000
   60.6080   30.1490   48.1500 C   0  0  0  0  0  0  0  0  0  0  0  0
   59.9270   31.3950   47.8280 N   0  0  0  0  0  0  0  0  0  0  0  0
   58.8840   31.9390   48.4830 C   0  0  0  0  0  0  0  0  0  0  0  0
   58.4180   33.0510   47.8780 N   0  0  0  0  0  0  0  0  0  0  0  0
   59.2120   33.1960   46.7960 C   0  0  0  0  0  0  0  0  0  0  0  0
   59.0670   34.2700   45.7960 C   0  0  0  0  0  0  0  0  0  0  0  0
   59.6770   35.3580   45.9670 O   0  0  0  0  0  0  0  0  0  0  0  0
   58.3030   34.0880   44.5970 N   0  0  0  0  0  0  0  0  0  0  0  0
   57.8200   32.8390   44.0810 C   0  0  0  0  0  0  0  0  0  0  0  0
   57.7830   32.6490   42.6940 C   0  0  0  0  0  0  0  0  0  0  0  0
   57.3030   31.4510   42.1590 C   0  0  0  0  0  0  0  0  0  0  0  0
   56.8320   30.4440   43.0050 C   0  0  0  0  0  0  0  0  0  0  0  0
   56.8150   30.6370   44.3910 C   0  0  0  0  0  0  0  0  0  0  0  0
   56.3390   29.5770   45.2330 N   0  0  0  0  0  0  0  0  0  0  0  0
   57.1270   28.5170   45.7920 C   0  0  0  0  0  0  0  0  0  0  0  0
   58.2640   28.7910   46.2610 O   0  0  0  0  0  0  0  0  0  0  0  0
   56.6730   27.1150   45.7700 C   0  0  0  0  0  0  0  0  0  0  0  0
   57.4480   26.0330   45.3900 C   0  0  0  0  0  0  0  0  0  0  0  0
   56.6410   24.9220   45.4980 C   0  0  0  0  0  0  0  0  0  0  0  0
   55.4210   25.3910   45.9280 C   0  0  0  0  0  0  0  0  0  0  0  0
   54.3090   24.5900   46.1650 O   0  0  0  0  0  0  0  0  0  0  0  0
   55.4220   26.7260   46.0940 N   0  0  0  0  0  0  0  0  0  0  0  0
   57.3220   31.8330   44.9280 C   0  0  0  0  0  0  0  0  0  0  0  0
   60.1310   32.1690   46.7510 C   0  0  0  0  0  0  0  0  0  0  0  0
   60.6695   30.0365   49.2425 H   0  0  0  0  0  0  0  0  0  0  0  0
   60.0464   29.3038   47.7254 H   0  0  0  0  0  0  0  0  0  0  0  0
   61.6226   30.1653   47.7254 H   0  0  0  0  0  0  0  0  0  0  0  0
   58.4592   31.5230   49.4084 H   0  0  0  0  0  0  0  0  0  0  0  0
   58.1335   33.4468   42.0226 H   0  0  0  0  0  0  0  0  0  0  0  0
   57.2959   31.3004   41.0694 H   0  0  0  0  0  0  0  0  0  0  0  0
   56.4729   29.4952   42.5798 H   0  0  0  0  0  0  0  0  0  0  0  0
   58.4990   26.0558   45.0662 H   0  0  0  0  0  0  0  0  0  0  0  0
   56.9146   23.8781   45.2850 H   0  0  0  0  0  0  0  0  0  0  0  0
   53.9550   24.4650   47.1060 H   0  0  0  0  0  0  0  0  0  0  0  0
   57.3292   31.9830   46.0177 H   0  0  0  0  0  0  0  0  0  0  0  0
   60.8931   32.0126   45.9733 H   0  0  0  0  0  0  0  0  0  0  0  0
  1  2  1  0
  2  3  1  0
  3  4  2  0
  4  5  1  0
  5  6  1  0
  6  7  2  0
  6  8  1  0
  8  9  1  0
  9 10  2  0
 10 11  1  0
 11 12  2  0
 12 13  1  0
 13 14  1  0
 14 15  1  0
 15 16  2  0
 15 17  1  0
 17 18  2  0
 18 19  1  0
 19 20  2  0
 20 21  1  0
 20 22  1  0
 13 23  2  0
  5 24  2  0
 24  2  1  0
 23  9  1  0
 22 17  1  0
  1 25  1  0
  1 26  1  0
  1 27  1  0
  3 28  1  0
 10 29  1  0
 11 30  1  0
 12 31  1  0
 18 32  1  0
 19 33  1  0
 21 34  1  0
 23 35  1  0
 24 36  1  0
M  CHG  3   8  -1  14  -1  22  -1
M  END
>  <UniqueID>  (92) 
83

>  <SMILES>  (92) 
Cn1cnc(C(=O)[N-]c2cccc([N-]C(=O)c3ccc(O)[n-]3)c2)c1

>  <Energy>  (92) 
99.76456317815938

>  <Genealogy>  (92) 
Cn1cnc(C(=O)[N-]c2cccc([N-]C(=O)c3ccc(O)[n-]3)c2)c1 (protonated)
Cn1cnc(C(=O)[N-]c2cccc([N-]C(=O)c3ccc(O)[n-]3)c2)c1 (3D coordinates assigned)
Cn1cnc(C(=O)[N-]c2cccc([N-]C(=O)c3ccc(O)[n-]3)c2)c1 (optimized conformer: 99.76456317815938 kcal/mol)

>  <smiles>  (92) 
Cn1cnc(C(=O)Nc2cccc(NC(=O)c3ccc(O)[nH]3)c2)c1

>  <score_type>  (92) 
oracle

>  <origin>  (92) 
adg

>  <m_score__min__energy>  (92) 
-12.779999999999999

>  <m_primary>  (92) 
energy

$$$$
92:0
     RDKit          3D

 36 38  0  0  0  0  0  0  0  0999 V2000
   58.2622   20.7084   44.3121 H   0  0  0  0  0  0  0  0  0  0  0  0
   57.5800   21.5700   44.2660 C   0  0  0  0  0  0  0  0  0  0  0  0
   57.2840   22.2640   45.3970 N   0  0  0  0  0  0  0  0  0  0  0  0
   56.4460   23.3390   45.3890 C   0  0  0  0  0  0  0  0  0  0  0  0
   56.1660   24.0480   46.6500 C   0  0  0  0  0  0  0  0  0  0  0  0
   55.1250   23.7840   47.3110 O   0  0  0  0  0  0  0  0  0  0  0  0
   57.0610   25.0750   47.0940 N   0  0  0  0  0  0  0  0  0  0  0  0
   57.3120   26.3130   46.4120 C   0  0  0  0  0  0  0  0  0  0  0  0
   58.6210   26.7880   46.3490 C   0  0  0  0  0  0  0  0  0  0  0  0
   59.4382   26.2152   46.8117 H   0  0  0  0  0  0  0  0  0  0  0  0
   58.8920   27.9910   45.6980 C   0  0  0  0  0  0  0  0  0  0  0  0
   59.9277   28.3575   45.6430 H   0  0  0  0  0  0  0  0  0  0  0  0
   57.8860   28.7210   45.1270 N   0  0  0  0  0  0  0  0  0  0  0  0
   58.2180   29.9950   44.4700 C   0  0  0  0  0  0  0  0  0  0  0  0
   58.0106   29.9140   43.3928 H   0  0  0  0  0  0  0  0  0  0  0  0
   59.2836   30.2162   44.6296 H   0  0  0  0  0  0  0  0  0  0  0  0
   57.3950   31.1010   45.0510 C   0  0  0  0  0  0  0  0  0  0  0  0
   56.2920   31.3980   44.5190 O   0  0  0  0  0  0  0  0  0  0  0  0
   57.8640   31.7720   46.2330 N   0  0  0  0  0  0  0  0  0  0  0  0
   58.5620   32.8680   46.2990 C   0  0  0  0  0  0  0  0  0  0  0  0
   59.5560   33.0250   47.1980 N   0  0  0  0  0  0  0  0  0  0  0  0
   60.1470   34.2450   47.0900 C   0  0  0  0  0  0  0  0  0  0  0  0
   60.9785   34.5561   47.7394 H   0  0  0  0  0  0  0  0  0  0  0  0
   59.6260   35.0710   46.1010 C   0  0  0  0  0  0  0  0  0  0  0  0
   59.9687   36.0884   45.8613 H   0  0  0  0  0  0  0  0  0  0  0  0
   58.3790   34.2410   45.3350 S   0  0  0  0  0  0  0  0  0  0  0  0
   56.5830   28.2980   45.2230 C   0  0  0  0  0  0  0  0  0  0  0  0
   55.6470   28.9910   44.7390 O   0  0  0  0  0  0  0  0  0  0  0  0
   56.2760   27.0940   45.8740 C   0  0  0  0  0  0  0  0  0  0  0  0
   54.9460   26.7080   46.0110 O   0  0  0  0  0  0  0  0  0  0  0  0
   55.8640   23.7480   44.1760 C   0  0  0  0  0  0  0  0  0  0  0  0
   55.1850   24.6131   44.1506 H   0  0  0  0  0  0  0  0  0  0  0  0
   56.1550   23.0470   43.0040 C   0  0  0  0  0  0  0  0  0  0  0  0
   55.7050   23.3579   42.0496 H   0  0  0  0  0  0  0  0  0  0  0  0
   57.0180   21.9510   43.0460 C   0  0  0  0  0  0  0  0  0  0  0  0
   57.2530   21.3932   42.1275 H   0  0  0  0  0  0  0  0  0  0  0  0
  1  2  1  0
  2  3  2  0
  3  4  1  0
  4  5  1  0
  5  6  2  0
  5  7  1  0
  7  8  1  0
  8  9  1  0
  9 10  1  0
  9 11  2  0
 11 12  1  0
 11 13  1  0
 13 14  1  0
 14 15  1  0
 14 16  1  0
 14 17  1  0
 17 18  2  0
 17 19  1  0
 19 20  2  0
 20 21  1  0
 21 22  1  0
 22 23  1  0
 22 24  2  0
 24 25  1  0
 24 26  1  0
 13 27  1  0
 27 28  2  0
 27 29  1  0
 29 30  1  0
  4 31  2  0
 31 32  1  0
 31 33  1  0
 33 34  1  0
 33 35  2  0
 35 36  1  0
 35  2  1  0
 29  8  2  0
 26 20  1  0
M  CHG  3   7  -1  21  -1  30  -1
M  END
>  <UniqueID>  (93) 
84

>  <SMILES>  (93) 
O=C(Cn1ccc([N-]C(=O)c2ccccn2)c([O-])c1=O)/N=c1/[n-]ccs1

>  <Energy>  (93) 
79.69963573285433

>  <Genealogy>  (93) 
O=C(Cn1ccc([N-]C(=O)c2ccccn2)c([O-])c1=O)N=c1[n-]ccs1 (protonated)
O=C(Cn1ccc([N-]C(=O)c2ccccn2)c([O-])c1=O)/N=c1/[n-]ccs1 (cis-trans isomerization)
O=C(Cn1ccc([N-]C(=O)c2ccccn2)c([O-])c1=O)/N=c1/[n-]ccs1 (3D coordinates assigned)
O=C(Cn1ccc([N-]C(=O)c2ccccn2)c([O-])c1=O)/N=c1/[n-]ccs1 (optimized conformer: 79.69963573285433 kcal/mol)

>  <smiles>  (93) 
O=C(Cn1ccc(NC(=O)c2ccccn2)c(O)c1=O)N=c1[nH]ccs1

>  <score_type>  (93) 
oracle

>  <origin>  (93) 
adg

>  <m_score__min__energy>  (93) 
-14.56

>  <m_primary>  (93) 
energy

$$$$
93:0
     RDKit          3D

 49 51  0  0  0  0  0  0  0  0999 V2000
   57.8190   32.3650   41.0560 C   0  0  0  0  0  0  0  0  0  0  0  0
   57.3910   31.7320   42.3460 C   0  0  0  0  0  0  0  0  0  0  0  0
   56.7350   30.4930   42.3370 C   0  0  0  0  0  0  0  0  0  0  0  0
   56.3540   29.8900   43.5370 C   0  0  0  0  0  0  0  0  0  0  0  0
   56.6460   30.5060   44.7550 C   0  0  0  0  0  0  0  0  0  0  0  0
   57.3340   31.7340   44.7830 C   0  0  0  0  0  0  0  0  0  0  0  0
   57.6810   32.3840   45.9790 O   0  0  0  0  0  0  0  0  0  0  0  0
   58.5890   33.4800   46.0890 C   0  0  0  0  0  0  0  0  0  0  0  0
   59.4160   33.3400   47.3250 C   0  0  0  0  0  0  0  0  0  0  0  0
   58.8480   33.2740   48.4480 O   0  0  0  0  0  0  0  0  0  0  0  0
   60.8420   33.2580   47.2270 N   0  0  0  0  0  0  0  0  0  0  0  0
   61.5730   32.0010   47.1370 C   0  0  0  0  0  0  0  0  0  0  0  0
   60.6450   30.8400   47.3770 C   0  0  0  0  0  0  0  0  0  0  0  0
   60.2830   30.4780   48.6840 C   0  0  0  0  0  0  0  0  0  0  0  0
   59.4250   29.3990   48.9030 C   0  0  0  0  0  0  0  0  0  0  0  0
   58.9270   28.6660   47.8230 C   0  0  0  0  0  0  0  0  0  0  0  0
   59.2710   29.0200   46.5090 C   0  0  0  0  0  0  0  0  0  0  0  0
   58.7870   28.2010   45.3430 C   0  0  0  0  0  0  0  0  0  0  0  0
   57.4590   27.6510   45.6130 N   0  0  0  0  0  0  0  0  0  0  0  0
   57.2000   26.2570   45.8650 C   0  0  0  0  0  0  0  0  0  0  0  0
   58.2450   25.3200   45.9410 C   0  0  0  0  0  0  0  0  0  0  0  0
   57.9550   23.9770   46.1900 C   0  0  0  0  0  0  0  0  0  0  0  0
   56.6680   23.5770   46.3620 N   0  0  0  0  0  0  0  0  0  0  0  0
   55.6330   24.4560   46.3030 C   0  0  0  0  0  0  0  0  0  0  0  0
   54.4560   24.0430   46.4720 O   0  0  0  0  0  0  0  0  0  0  0  0
   55.8790   25.8130   46.0570 C   0  0  0  0  0  0  0  0  0  0  0  0
   54.8150   26.7090   45.9990 O   0  0  0  0  0  0  0  0  0  0  0  0
   60.1190   30.1200   46.2920 C   0  0  0  0  0  0  0  0  0  0  0  0
   57.7040   32.3360   43.5730 C   0  0  0  0  0  0  0  0  0  0  0  0
   58.4235   33.2590   41.2691 H   0  0  0  0  0  0  0  0  0  0  0  0
   58.4178   31.6471   40.4763 H   0  0  0  0  0  0  0  0  0  0  0  0
   56.9297   32.6533   40.4763 H   0  0  0  0  0  0  0  0  0  0  0  0
   56.5197   29.9941   41.3806 H   0  0  0  0  0  0  0  0  0  0  0  0
   55.8224   28.9271   43.5227 H   0  0  0  0  0  0  0  0  0  0  0  0
   56.3372   30.0298   45.6973 H   0  0  0  0  0  0  0  0  0  0  0  0
   59.2493   33.4950   45.2093 H   0  0  0  0  0  0  0  0  0  0  0  0
   58.0164   34.4176   46.1435 H   0  0  0  0  0  0  0  0  0  0  0  0
   62.0167   31.9100   46.1346 H   0  0  0  0  0  0  0  0  0  0  0  0
   62.3643   31.9911   47.9010 H   0  0  0  0  0  0  0  0  0  0  0  0
   60.6770   31.0469   49.5390 H   0  0  0  0  0  0  0  0  0  0  0  0
   59.1400   29.1249   49.9295 H   0  0  0  0  0  0  0  0  0  0  0  0
   58.2626   27.8080   48.0031 H   0  0  0  0  0  0  0  0  0  0  0  0
   58.7383   28.8396   44.4487 H   0  0  0  0  0  0  0  0  0  0  0  0
   59.4878   27.3689   45.1803 H   0  0  0  0  0  0  0  0  0  0  0  0
   56.6510   28.3100   45.5310 H   0  0  0  0  0  0  0  0  0  0  0  0
   59.2875   25.6435   45.8048 H   0  0  0  0  0  0  0  0  0  0  0  0
   58.7705   23.2410   46.2470 H   0  0  0  0  0  0  0  0  0  0  0  0
   60.3725   30.4191   45.2643 H   0  0  0  0  0  0  0  0  0  0  0  0
   58.2461   33.2931   43.5853 H   0  0  0  0  0  0  0  0  0  0  0  0
  1  2  1  0
  2  3  2  0
  3  4  1  0
  4  5  2  0
  5  6  1  0
  6  7  1  0
  7  8  1  0
  8  9  1  0
  9 10  2  0
  9 11  1  0
 11 12  1  0
 12 13  1  0
 13 14  2  0
 14 15  1  0
 15 16  2  0
 16 17  1  0
 17 18  1  0
 18 19  1  0
 19 20  1  0
 20 21  1  0
 21 22  2  0
 22 23  1  0
 23 24  1  0
 24 25  2  0
 24 26  1  0
 26 27  1  0
 17 28  2  0
  6 29  2  0
 29  2  1  0
 28 13  1  0
 26 20  2  0
  1 30  1  0
  1 31  1  0
  1 32  1  0
  3 33  1  0
  4 34  1  0
  5 35  1  0
  8 36  1  0
  8 37  1  0
 12 38  1  0
 12 39  1  0
 14 40  1  0
 15 41  1  0
 16 42  1  0
 18 43  1  0
 18 44  1  0
 19 45  1  0
 21 46  1  0
 22 47  1  0
 28 48  1  0
 29 49  1  0
M  CHG  3  11  -1  23  -1  27  -1
M  END
>  <UniqueID>  (94) 
85

>  <SMILES>  (94) 
Cc1cccc(OCC(=O)[N-]Cc2cccc(CNc3cc[n-]c(=O)c3[O-])c2)c1

>  <Energy>  (94) 
44.71200169525861

>  <Genealogy>  (94) 
Cc1cccc(OCC(=O)[N-]Cc2cccc(CNc3cc[n-]c(=O)c3[O-])c2)c1 (protonated)
Cc1cccc(OCC(=O)[N-]Cc2cccc(CNc3cc[n-]c(=O)c3[O-])c2)c1 (3D coordinates assigned)
Cc1cccc(OCC(=O)[N-]Cc2cccc(CNc3cc[n-]c(=O)c3[O-])c2)c1 (optimized conformer: 44.71200169525861 kcal/mol)

>  <smiles>  (94) 
Cc1cccc(OCC(=O)NCc2cccc(CNc3cc[nH]c(=O)c3O)c2)c1

>  <score_type>  (94) 
oracle

>  <origin>  (94) 
adg

>  <m_score__min__energy>  (94) 
-14.699999999999999

>  <m_primary>  (94) 
energy

$$$$
94:0
     RDKit          3D

 75 79  0  0  0  0  0  0  0  0999 V2000
   63.4130   33.0390   47.7380 C   0  0  0  0  0  0  0  0  0  0  0  0
   62.5750   33.3740   48.9680 C   0  0  0  0  0  0  0  0  0  0  0  0
   61.0820   33.5240   48.6360 C   0  0  0  0  0  0  0  0  0  0  0  0
   60.2140   32.7770   49.6150 C   0  0  0  0  0  0  0  0  0  0  0  0
   59.2760   33.4040   50.3510 N   0  0  0  0  0  0  0  0  0  0  0  0
   58.6900   32.4450   51.0820 C   0  0  0  0  0  0  0  0  0  0  0  0
   57.4120   32.7650   52.3020 S   0  0  0  0  0  0  0  0  0  0  0  0
   58.5240   33.5730   53.5050 C   0  0  0  0  0  0  0  0  0  0  0  0
   59.8340   32.8380   53.5640 C   0  0  0  0  0  0  0  0  0  0  0  0
   61.0020   33.4400   53.0580 C   0  0  0  0  0  0  0  0  0  0  0  0
   62.2300   32.7810   53.1500 C   0  0  0  0  0  0  0  0  0  0  0  0
   62.3040   31.5160   53.7410 C   0  0  0  0  0  0  0  0  0  0  0  0
   61.1500   30.9120   54.2480 C   0  0  0  0  0  0  0  0  0  0  0  0
   59.9180   31.5710   54.1650 C   0  0  0  0  0  0  0  0  0  0  0  0
   59.2970   31.2310   50.8060 C   0  0  0  0  0  0  0  0  0  0  0  0
   58.9420   29.9280   51.4120 C   0  0  0  0  0  0  0  0  0  0  0  0
   59.8430   29.1240   51.7560 O   0  0  0  0  0  0  0  0  0  0  0  0
   57.6150   29.5650   51.5960 O   0  0  0  0  0  0  0  0  0  0  0  0
   60.2700   31.4450   49.8810 N   0  0  0  0  0  0  0  0  0  0  0  0
   61.1300   30.4380   49.2400 C   0  0  0  0  0  0  0  0  0  0  0  0
   60.3030   29.3370   48.6300 C   0  0  0  0  0  0  0  0  0  0  0  0
   60.8440   28.0540   48.4580 C   0  0  0  0  0  0  0  0  0  0  0  0
   60.0810   27.0360   47.8810 C   0  0  0  0  0  0  0  0  0  0  0  0
   58.7750   27.2950   47.4420 C   0  0  0  0  0  0  0  0  0  0  0  0
   57.9770   26.2230   46.8130 C   0  0  0  0  0  0  0  0  0  0  0  0
   57.7620   25.0400   47.5340 C   0  0  0  0  0  0  0  0  0  0  0  0
   56.9890   24.0100   46.9910 C   0  0  0  0  0  0  0  0  0  0  0  0
   56.4330   24.1480   45.7180 C   0  0  0  0  0  0  0  0  0  0  0  0
   56.6470   25.3170   44.9840 C   0  0  0  0  0  0  0  0  0  0  0  0
   57.4180   26.3640   45.5190 C   0  0  0  0  0  0  0  0  0  0  0  0
   57.7020   27.8120   44.5380 S   0  0  0  0  0  0  0  0  0  0  0  0
   57.7660   27.4200   43.0890 O   0  0  0  0  0  0  0  0  0  0  0  0
   59.0020   28.4670   44.9220 O   0  0  0  0  0  0  0  0  0  0  0  0
   56.4140   28.9480   44.7690 N   0  0  0  0  0  0  0  0  0  0  0  0
   56.3730   30.2010   44.0870 C   0  0  0  0  0  0  0  0  0  0  0  0
   56.3620   30.2360   42.8250 O   0  0  0  0  0  0  0  0  0  0  0  0
   56.3010   31.3800   44.8380 O   0  0  0  0  0  0  0  0  0  0  0  0
   57.3900   32.2110   45.1400 C   0  0  0  0  0  0  0  0  0  0  0  0
   58.5410   31.6330   45.6920 C   0  0  0  0  0  0  0  0  0  0  0  0
   59.6500   32.4260   46.0100 C   0  0  0  0  0  0  0  0  0  0  0  0
   59.6170   33.8030   45.7690 C   0  0  0  0  0  0  0  0  0  0  0  0
   58.4800   34.3840   45.2000 C   0  0  0  0  0  0  0  0  0  0  0  0
   57.3740   33.5950   44.8760 C   0  0  0  0  0  0  0  0  0  0  0  0
   58.2310   28.5770   47.6100 C   0  0  0  0  0  0  0  0  0  0  0  0
   58.9920   29.5930   48.1910 C   0  0  0  0  0  0  0  0  0  0  0  0
   64.3908   32.6481   48.0559 H   0  0  0  0  0  0  0  0  0  0  0  0
   62.8928   32.2797   47.1356 H   0  0  0  0  0  0  0  0  0  0  0  0
   63.5596   33.9477   47.1356 H   0  0  0  0  0  0  0  0  0  0  0  0
   62.6934   32.5675   49.7066 H   0  0  0  0  0  0  0  0  0  0  0  0
   62.9293   34.3374   49.3632 H   0  0  0  0  0  0  0  0  0  0  0  0
   60.8159   34.5909   48.6660 H   0  0  0  0  0  0  0  0  0  0  0  0
   60.9100   33.1020   47.6349 H   0  0  0  0  0  0  0  0  0  0  0  0
   59.0550   34.4240   50.3510 H   0  0  0  0  0  0  0  0  0  0  0  0
   58.7029   34.6131   53.1949 H   0  0  0  0  0  0  0  0  0  0  0  0
   58.0546   33.5572   54.4997 H   0  0  0  0  0  0  0  0  0  0  0  0
   60.9471   34.4332   52.5884 H   0  0  0  0  0  0  0  0  0  0  0  0
   63.1401   33.2578   52.7570 H   0  0  0  0  0  0  0  0  0  0  0  0
   63.2710   30.9958   53.8070 H   0  0  0  0  0  0  0  0  0  0  0  0
   61.2102   29.9170   54.7131 H   0  0  0  0  0  0  0  0  0  0  0  0
   59.0131   31.0956   54.5714 H   0  0  0  0  0  0  0  0  0  0  0  0
   61.7246   30.9215   48.4510 H   0  0  0  0  0  0  0  0  0  0  0  0
   61.7898   30.0008   50.0039 H   0  0  0  0  0  0  0  0  0  0  0  0
   61.8757   27.8484   48.7796 H   0  0  0  0  0  0  0  0  0  0  0  0
   60.5064   26.0276   47.7707 H   0  0  0  0  0  0  0  0  0  0  0  0
   58.2048   24.9217   48.5340 H   0  0  0  0  0  0  0  0  0  0  0  0
   56.8184   23.0890   47.5677 H   0  0  0  0  0  0  0  0  0  0  0  0
   55.8258   23.3354   45.2925 H   0  0  0  0  0  0  0  0  0  0  0  0
   56.2091   25.4192   43.9801 H   0  0  0  0  0  0  0  0  0  0  0  0
   58.5734   30.5491   45.8767 H   0  0  0  0  0  0  0  0  0  0  0  0
   60.5473   31.9659   46.4494 H   0  0  0  0  0  0  0  0  0  0  0  0
   60.4846   34.4282   46.0268 H   0  0  0  0  0  0  0  0  0  0  0  0
   58.4563   35.4666   45.0067 H   0  0  0  0  0  0  0  0  0  0  0  0
   56.4883   34.0552   44.4136 H   0  0  0  0  0  0  0  0  0  0  0  0
   57.2011   28.7825   47.2828 H   0  0  0  0  0  0  0  0  0  0  0  0
   58.5635   30.5996   48.3060 H   0  0  0  0  0  0  0  0  0  0  0  0
  1  2  1  0
  2  3  1  0
  3  4  1  0
  4  5  2  0
  5  6  1  0
  6  7  1  0
  7  8  1  0
  8  9  1  0
  9 10  2  0
 10 11  1  0
 11 12  2  0
 12 13  1  0
 13 14  2  0
  6 15  2  0
 15 16  1  0
 16 17  2  0
 16 18  1  0
 15 19  1  0
 19 20  1  0
 20 21  1  0
 21 22  2  0
 22 23  1  0
 23 24  2  0
 24 25  1  0
 25 26  2  0
 26 27  1  0
 27 28  2  0
 28 29  1  0
 29 30  2  0
 30 31  1  0
 31 32  2  0
 31 33  2  0
 31 34  1  0
 34 35  1  0
 35 36  2  0
 35 37  1  0
 37 38  1  0
 38 39  2  0
 39 40  1  0
 40 41  2  0
 41 42  1  0
 42 43  2  0
 24 44  1  0
 44 45  2  0
 19  4  1  0
 45 21  1  0
 14  9  1  0
 30 25  1  0
 43 38  1  0
  1 46  1  0
  1 47  1  0
  1 48  1  0
  2 49  1  0
  2 50  1  0
  3 51  1  0
  3 52  1  0
  5 53  1  0
  8 54  1  0
  8 55  1  0
 10 56  1  0
 11 57  1  0
 12 58  1  0
 13 59  1  0
 14 60  1  0
 20 61  1  0
 20 62  1  0
 22 63  1  0
 23 64  1  0
 26 65  1  0
 27 66  1  0
 28 67  1  0
 29 68  1  0
 39 69  1  0
 40 70  1  0
 41 71  1  0
 42 72  1  0
 43 73  1  0
 44 74  1  0
 45 75  1  0
M  CHG  3   5   1  18  -1  34  -1
M  END
>  <UniqueID>  (95) 
86

>  <SMILES>  (95) 
CCCc1[nH+]c(SCc2ccccc2)c(C(=O)[O-])n1Cc1ccc(-c2ccccc2S(=O)(=O)[N-]C(=O)Oc2ccccc2)cc1

>  <Energy>  (95) 
117.91774532169529

>  <Genealogy>  (95) 
CCCc1[nH+]c(SCc2ccccc2)c(C(=O)[O-])n1Cc1ccc(-c2ccccc2S(=O)(=O)[N-]C(=O)Oc2ccccc2)cc1 (protonated)
CCCc1[nH+]c(SCc2ccccc2)c(C(=O)[O-])n1Cc1ccc(-c2ccccc2S(=O)(=O)[N-]C(=O)Oc2ccccc2)cc1 (3D coordinates assigned)
CCCc1[nH+]c(SCc2ccccc2)c(C(=O)[O-])n1Cc1ccc(-c2ccccc2S(=O)(=O)[N-]C(=O)Oc2ccccc2)cc1 (optimized conformer: 117.91774532169529 kcal/mol)

>  <smiles>  (95) 
CCCc1nc(SCc2ccccc2)c(C(=O)O)n1Cc1ccc(-c2ccccc2S(=O)(=O)NC(=O)Oc2ccccc2)cc1

>  <score_type>  (95) 
oracle

>  <origin>  (95) 
adg

>  <m_score__min__energy>  (95) 
-11.550000000000001

>  <m_primary>  (95) 
energy

$$$$
95:0
     RDKit          3D

 60 63  0  0  0  0  0  0  0  0999 V2000
   60.2354   24.6916   44.9628 H   0  0  0  0  0  0  0  0  0  0  0  0
   59.3840   24.8050   45.6500 C   0  0  0  0  0  0  0  0  0  0  0  0
   58.4320   23.6860   45.7910 C   0  0  0  0  0  0  0  0  0  0  0  0
   58.0930   23.3330   46.9520 O   0  0  0  0  0  0  0  0  0  0  0  0
   57.8690   23.0090   44.6500 N   0  0  0  0  0  0  0  0  0  0  0  0
   57.6370   21.5630   44.6730 C   0  0  0  0  0  0  0  0  0  0  0  0
   58.3252   21.0685   43.9717 H   0  0  0  0  0  0  0  0  0  0  0  0
   57.8131   21.1758   45.6874 H   0  0  0  0  0  0  0  0  0  0  0  0
   56.1900   21.2800   44.2570 C   0  0  0  0  0  0  0  0  0  0  0  0
   56.0484   20.1933   44.1624 H   0  0  0  0  0  0  0  0  0  0  0  0
   55.5171   21.6897   45.0247 H   0  0  0  0  0  0  0  0  0  0  0  0
   55.8910   21.8960   43.0180 O   0  0  0  0  0  0  0  0  0  0  0  0
   55.9670   23.3050   43.1470 C   0  0  0  0  0  0  0  0  0  0  0  0
   55.6546   23.7706   42.2006 H   0  0  0  0  0  0  0  0  0  0  0  0
   55.3044   23.6189   43.9670 H   0  0  0  0  0  0  0  0  0  0  0  0
   57.3960   23.7480   43.4760 C   0  0  0  0  0  0  0  0  0  0  0  0
   58.0532   23.5380   42.6192 H   0  0  0  0  0  0  0  0  0  0  0  0
   57.4099   24.8274   43.6873 H   0  0  0  0  0  0  0  0  0  0  0  0
   59.2510   25.9540   46.3270 C   0  0  0  0  0  0  0  0  0  0  0  0
   59.6355   26.0063   47.3563 H   0  0  0  0  0  0  0  0  0  0  0  0
   58.6070   27.1590   45.7470 C   0  0  0  0  0  0  0  0  0  0  0  0
   59.3990   28.1380   45.1140 C   0  0  0  0  0  0  0  0  0  0  0  0
   60.4946   28.0402   45.1250 H   0  0  0  0  0  0  0  0  0  0  0  0
   58.8120   29.2290   44.4740 C   0  0  0  0  0  0  0  0  0  0  0  0
   59.4453   29.9881   43.9917 H   0  0  0  0  0  0  0  0  0  0  0  0
   57.4240   29.3600   44.4440 C   0  0  0  0  0  0  0  0  0  0  0  0
   56.6740   30.7500   43.5990 S   0  0  0  0  0  0  0  0  0  0  0  0
   57.4610   31.9440   44.6810 C   0  0  0  0  0  0  0  0  0  0  0  0
   57.7570   33.2270   44.2130 C   0  0  0  0  0  0  0  0  0  0  0  0
   57.5208   33.5004   43.1740 H   0  0  0  0  0  0  0  0  0  0  0  0
   58.3530   34.1640   45.0630 C   0  0  0  0  0  0  0  0  0  0  0  0
   58.5816   35.1728   44.6886 H   0  0  0  0  0  0  0  0  0  0  0  0
   58.6620   33.8270   46.3910 C   0  0  0  0  0  0  0  0  0  0  0  0
   59.2690   34.8130   47.2460 N   0  0  0  0  0  0  0  0  0  0  0  0
   59.0360   35.8220   47.0970 H   0  0  0  0  0  0  0  0  0  0  0  0
   60.1900   34.4850   48.3290 C   0  0  0  0  0  0  0  0  0  0  0  0
   59.6963   34.6608   49.2961 H   0  0  0  0  0  0  0  0  0  0  0  0
   60.4827   33.4273   48.2537 H   0  0  0  0  0  0  0  0  0  0  0  0
   61.0854   35.1195   48.2537 H   0  0  0  0  0  0  0  0  0  0  0  0
   58.3670   32.5280   46.8530 C   0  0  0  0  0  0  0  0  0  0  0  0
   58.6063   32.2479   47.8895 H   0  0  0  0  0  0  0  0  0  0  0  0
   57.7720   31.5950   46.0000 C   0  0  0  0  0  0  0  0  0  0  0  0
   57.5472   30.5825   46.3665 H   0  0  0  0  0  0  0  0  0  0  0  0
   56.6210   28.4020   45.0660 C   0  0  0  0  0  0  0  0  0  0  0  0
   55.5268   28.5120   45.0404 H   0  0  0  0  0  0  0  0  0  0  0  0
   57.1920   27.2980   45.7250 C   0  0  0  0  0  0  0  0  0  0  0  0
   56.2830   26.3410   46.4000 C   0  0  0  0  0  0  0  0  0  0  0  0
   56.6300   25.7910   47.4790 O   0  0  0  0  0  0  0  0  0  0  0  0
   55.0140   26.0350   45.8090 N   0  0  0  0  0  0  0  0  0  0  0  0
   54.3310   24.7740   45.8600 C   0  0  0  0  0  0  0  0  0  0  0  0
   54.8420   23.6760   46.5780 C   0  0  0  0  0  0  0  0  0  0  0  0
   55.8000   23.7666   47.1110 H   0  0  0  0  0  0  0  0  0  0  0  0
   54.1340   22.4700   46.6150 C   0  0  0  0  0  0  0  0  0  0  0  0
   54.5416   21.6111   47.1684 H   0  0  0  0  0  0  0  0  0  0  0  0
   52.9110   22.3540   45.9510 C   0  0  0  0  0  0  0  0  0  0  0  0
   52.3602   21.4022   45.9751 H   0  0  0  0  0  0  0  0  0  0  0  0
   52.3870   23.4470   45.2560 C   0  0  0  0  0  0  0  0  0  0  0  0
   51.4206   23.3570   44.7383 H   0  0  0  0  0  0  0  0  0  0  0  0
   53.0900   24.6550   45.2180 C   0  0  0  0  0  0  0  0  0  0  0  0
   52.6671   25.5171   44.6814 H   0  0  0  0  0  0  0  0  0  0  0  0
  1  2  1  0
  2  3  1  0
  3  4  2  0
  3  5  1  0
  5  6  1  0
  6  7  1  0
  6  8  1  0
  6  9  1  0
  9 10  1  0
  9 11  1  0
  9 12  1  0
 12 13  1  0
 13 14  1  0
 13 15  1  0
 13 16  1  0
 16 17  1  0
 16 18  1  0
  2 19  2  0
 19 20  1  0
 19 21  1  0
 21 22  2  0
 22 23  1  0
 22 24  1  0
 24 25  1  0
 24 26  2  0
 26 27  1  0
 27 28  1  0
 28 29  2  0
 29 30  1  0
 29 31  1  0
 31 32  1  0
 31 33  2  0
 33 34  1  0
 34 35  1  0
 34 36  1  0
 36 37  1  0
 36 38  1  0
 36 39  1  0
 33 40  1  0
 40 41  1  0
 40 42  2  0
 42 43  1  0
 26 44  1  0
 44 45  1  0
 44 46  2  0
 46 47  1  0
 47 48  2  0
 47 49  1  0
 49 50  1  0
 50 51  2  0
 51 52  1  0
 51 53  1  0
 53 54  1  0
 53 55  2  0
 55 56  1  0
 55 57  1  0
 57 58  1  0
 57 59  2  0
 59 60  1  0
 16  5  1  0
 46 21  1  0
 59 50  1  0
 42 28  1  0
M  CHG  1  49  -1
M  END
>  <UniqueID>  (96) 
87

>  <SMILES>  (96) 
CNc1ccc(Sc2ccc(/C=C/C(=O)N3CCOCC3)c(C(=O)[N-]c3ccccc3)c2)cc1

>  <Energy>  (96) 
73.53808148018288

>  <Genealogy>  (96) 
CNc1ccc(Sc2ccc(C=CC(=O)N3CCOCC3)c(C(=O)[N-]c3ccccc3)c2)cc1 (protonated)
CNc1ccc(Sc2ccc(/C=C/C(=O)N3CCOCC3)c(C(=O)[N-]c3ccccc3)c2)cc1 (cis-trans isomerization)
CNc1ccc(Sc2ccc(/C=C/C(=O)N3CCOCC3)c(C(=O)[N-]c3ccccc3)c2)cc1 (3D coordinates assigned)
CNc1ccc(Sc2ccc(/C=C/C(=O)N3CCOCC3)c(C(=O)[N-]c3ccccc3)c2)cc1 (nonaromatic ring conformer: 73.53808148018288 kcal/mol)

>  <smiles>  (96) 
CNc1ccc(Sc2ccc(C=CC(=O)N3CCOCC3)c(C(=O)Nc3ccccc3)c2)cc1

>  <score_type>  (96) 
oracle

>  <origin>  (96) 
adg

>  <m_score__min__energy>  (96) 
-11.539999999999999

>  <m_primary>  (96) 
energy

$$$$
