0:0
     RDKit          3D

 61 64  0  0  0  0  0  0  0  0999 V2000
   63.7490   32.7230   48.2980 C   0  0  0  0  0  0  0  0  0  0  0  0
   63.1630   31.8260   49.3510 C   0  0  0  0  0  0  0  0  0  0  0  0
   63.9080   31.3750   50.2100 O   0  0  0  0  0  0  0  0  0  0  0  0
   61.7490   31.4920   49.3570 N   0  0  2  0  0  0  0  0  0  0  0  0
   60.9620   32.6740   49.7850 C   0  0  0  0  0  0  0  0  0  0  0  0
   59.4630   32.5680   49.4220 C   0  0  0  0  0  0  0  0  0  0  0  0
   59.2260   31.8000   48.1890 N   0  0  0  0  0  0  0  0  0  0  0  0
   58.2240   32.2850   47.2130 C   0  0  0  0  0  0  0  0  0  0  0  0
   58.6560   33.4940   46.4120 C   0  0  0  0  0  0  0  0  0  0  0  0
   59.5240   34.4670   46.8680 C   0  0  0  0  0  0  0  0  0  0  0  0
   59.7990   35.3320   45.8720 N   0  0  0  0  0  0  0  0  0  0  0  0
   59.0990   34.8630   44.8200 C   0  0  0  0  0  0  0  0  0  0  0  0
   58.3960   33.7480   45.1090 N   0  0  0  0  0  0  0  0  0  0  0  0
   57.6110   32.9740   44.1390 C   0  0  0  0  0  0  0  0  0  0  0  0
   57.5880   31.5000   44.4690 C   0  0  0  0  0  0  0  0  0  0  0  0
   58.8000   30.8170   44.6600 C   0  0  0  0  0  0  0  0  0  0  0  0
   58.8080   29.4510   44.9520 C   0  0  0  0  0  0  0  0  0  0  0  0
   57.6050   28.7290   45.0180 C   0  0  0  0  0  0  0  0  0  0  0  0
   57.6090   27.2890   45.3800 C   0  0  0  0  0  0  0  0  0  0  0  0
   56.4220   26.6570   45.7920 C   0  0  0  0  0  0  0  0  0  0  0  0
   56.4200   25.2990   46.1230 C   0  0  0  0  0  0  0  0  0  0  0  0
   57.5990   24.5470   46.0360 C   0  0  0  0  0  0  0  0  0  0  0  0
   57.6010   23.1000   46.4290 C   0  0  0  0  0  0  0  0  0  0  0  0
   58.7890   25.1770   45.6420 C   0  0  0  0  0  0  0  0  0  0  0  0
   58.7940   26.5340   45.3100 C   0  0  0  0  0  0  0  0  0  0  0  0
   56.3970   29.3960   44.7530 C   0  0  0  0  0  0  0  0  0  0  0  0
   56.3890   30.7650   44.4750 C   0  0  0  0  0  0  0  0  0  0  0  0
   59.4820   30.0750   48.3030 S   0  0  0  0  0  0  0  0  0  0  0  0
   58.1990   29.3320   48.0630 O   0  0  0  0  0  0  0  0  0  0  0  0
   60.4580   29.6740   47.2340 O   0  0  0  0  0  0  0  0  0  0  0  0
   60.1490   29.5800   49.8890 C   0  0  0  0  0  0  0  0  0  0  0  0
   61.5110   30.2480   50.1380 C   0  0  0  0  0  0  0  0  0  0  0  0
   64.2896   33.5505   48.7807 H   0  0  0  0  0  0  0  0  0  0  0  0
   64.4452   32.1464   47.6712 H   0  0  0  0  0  0  0  0  0  0  0  0
   62.9413   33.1289   47.6712 H   0  0  0  0  0  0  0  0  0  0  0  0
   61.4620   31.2840   48.3720 H   0  0  0  0  0  0  0  0  0  0  0  0
   61.0515   32.7777   50.8764 H   0  0  0  0  0  0  0  0  0  0  0  0
   61.3672   33.5479   49.2538 H   0  0  0  0  0  0  0  0  0  0  0  0
   58.9352   32.0734   50.2507 H   0  0  0  0  0  0  0  0  0  0  0  0
   59.0912   33.5892   49.2519 H   0  0  0  0  0  0  0  0  0  0  0  0
   58.0070   31.4676   46.5097 H   0  0  0  0  0  0  0  0  0  0  0  0
   57.3460   32.5969   47.7977 H   0  0  0  0  0  0  0  0  0  0  0  0
   59.9291   34.5267   47.8889 H   0  0  0  0  0  0  0  0  0  0  0  0
   59.1006   35.3397   43.8287 H   0  0  0  0  0  0  0  0  0  0  0  0
   56.5782   33.3525   44.1367 H   0  0  0  0  0  0  0  0  0  0  0  0
   58.0830   33.0916   43.1524 H   0  0  0  0  0  0  0  0  0  0  0  0
   59.7517   31.3626   44.5789 H   0  0  0  0  0  0  0  0  0  0  0  0
   59.7637   28.9368   45.1316 H   0  0  0  0  0  0  0  0  0  0  0  0
   55.4885   27.2356   45.8542 H   0  0  0  0  0  0  0  0  0  0  0  0
   55.4876   24.8180   46.4536 H   0  0  0  0  0  0  0  0  0  0  0  0
   57.6011   23.0180   47.5259 H   0  0  0  0  0  0  0  0  0  0  0  0
   56.7035   22.6090   46.0247 H   0  0  0  0  0  0  0  0  0  0  0  0
   58.4998   22.6115   46.0247 H   0  0  0  0  0  0  0  0  0  0  0  0
   59.7237   24.5990   45.5942 H   0  0  0  0  0  0  0  0  0  0  0  0
   59.7306   27.0153   44.9918 H   0  0  0  0  0  0  0  0  0  0  0  0
   55.4504   28.8359   44.7645 H   0  0  0  0  0  0  0  0  0  0  0  0
   55.4371   31.2722   44.2590 H   0  0  0  0  0  0  0  0  0  0  0  0
   59.4497   29.8785   50.6839 H   0  0  0  0  0  0  0  0  0  0  0  0
   60.2849   28.4884   49.8904 H   0  0  0  0  0  0  0  0  0  0  0  0
   61.5794   30.4971   51.2072 H   0  0  0  0  0  0  0  0  0  0  0  0
   62.2738   29.5264   49.8103 H   0  0  0  0  0  0  0  0  0  0  0  0
  1  2  1  0
  2  3  2  0
  2  4  1  0
  4  5  1  0
  5  6  1  0
  6  7  1  0
  7  8  1  0
  8  9  1  0
  9 10  2  0
 10 11  1  0
 11 12  2  0
 12 13  1  0
 13 14  1  0
 14 15  1  0
 15 16  2  0
 16 17  1  0
 17 18  2  0
 18 19  1  0
 19 20  2  0
 20 21  1  0
 21 22  2  0
 22 23  1  0
 22 24  1  0
 24 25  2  0
 18 26  1  0
 26 27  2  0
  7 28  1  0
 28 29  2  0
 28 30  2  0
 28 31  1  0
 31 32  1  0
 32  4  1  0
 13  9  1  0
 27 15  1  0
 25 19  1  0
  1 33  1  0
  1 34  1  0
  1 35  1  0
  4 36  1  6
  5 37  1  0
  5 38  1  0
  6 39  1  0
  6 40  1  0
  8 41  1  0
  8 42  1  0
 10 43  1  0
 12 44  1  0
 14 45  1  0
 14 46  1  0
 16 47  1  0
 17 48  1  0
 20 49  1  0
 21 50  1  0
 23 51  1  0
 23 52  1  0
 23 53  1  0
 24 54  1  0
 25 55  1  0
 26 56  1  0
 27 57  1  0
 31 58  1  0
 31 59  1  0
 32 60  1  0
 32 61  1  0
M  CHG  1   4   1
M  END
>  <UniqueID>  (1) 
1

>  <SMILES>  (1) 
CC(=O)[N@@H+]1CCN(Cc2cncn2Cc2ccc(-c3ccc(C)cc3)cc2)S(=O)(=O)CC1

>  <Energy>  (1) 
113.06712110021695

>  <Genealogy>  (1) 
CC(=O)[NH+]1CCN(Cc2cncn2Cc2ccc(-c3ccc(C)cc3)cc2)S(=O)(=O)CC1 (protonated)
CC(=O)[N@@H+]1CCN(Cc2cncn2Cc2ccc(-c3ccc(C)cc3)cc2)S(=O)(=O)CC1 (chirality)
CC(=O)[N@@H+]1CCN(Cc2cncn2Cc2ccc(-c3ccc(C)cc3)cc2)S(=O)(=O)CC1 (3D coordinates assigned)
CC(=O)[N@@H+]1CCN(Cc2cncn2Cc2ccc(-c3ccc(C)cc3)cc2)S(=O)(=O)CC1 (nonaromatic ring conformer: 113.06712110021695 kcal/mol)

>  <smiles>  (1) 
CC(=O)N1CCN(Cc2cncn2Cc2ccc(-c3ccc(C)cc3)cc2)S(=O)(=O)CC1

>  <score_type>  (1) 
oracle

>  <origin>  (1) 
adg

>  <m_score__min__energy>  (1) 
-5.6299999999999999

>  <m_primary>  (1) 
energy

$$$$
1:0
     RDKit          3D

 53 55  0  0  0  0  0  0  0  0999 V2000
   63.2560   32.7600   47.4920 C   0  0  0  0  0  0  0  0  0  0  0  0
   61.8770   33.2600   47.6310 N   0  0  0  0  0  0  0  0  0  0  0  0
   61.7660   34.2100   48.7650 C   0  0  0  0  0  0  0  0  0  0  0  0
   61.9180   33.4620   50.0930 C   0  0  0  0  0  0  0  0  0  0  0  0
   60.3020   33.0340   50.8370 S   0  0  0  0  0  0  0  0  0  0  0  0
   60.1190   31.4910   49.9390 C   0  0  0  0  0  0  0  0  0  0  0  0
   61.2420   30.8390   49.4270 C   0  0  0  0  0  0  0  0  0  0  0  0
   61.0790   29.6340   48.7410 C   0  0  0  0  0  0  0  0  0  0  0  0
   59.7960   29.0860   48.5660 C   0  0  0  0  0  0  0  0  0  0  0  0
   59.6100   27.7960   47.8640 C   0  0  0  0  0  0  0  0  0  0  0  0
   59.6850   26.7150   48.5090 O   0  0  0  0  0  0  0  0  0  0  0  0
   59.4080   27.7780   46.4430 N   0  0  0  0  0  0  0  0  0  0  0  0
   58.5210   28.6040   45.6700 C   0  0  0  0  0  0  0  0  0  0  0  0
   58.9790   29.7780   45.0380 C   0  0  0  0  0  0  0  0  0  0  0  0
   58.0910   30.6000   44.3400 C   0  0  0  0  0  0  0  0  0  0  0  0
   56.7410   30.2600   44.2570 C   0  0  0  0  0  0  0  0  0  0  0  0
   56.2780   29.0810   44.8450 C   0  0  0  0  0  0  0  0  0  0  0  0
   57.1630   28.2290   45.5300 C   0  0  0  0  0  0  0  0  0  0  0  0
   56.6380   26.9720   46.1090 C   0  0  0  0  0  0  0  0  0  0  0  0
   57.5030   26.0390   46.7610 N   0  0  0  0  0  0  0  0  0  0  0  0
   55.4140   26.6940   45.9880 O   0  0  0  0  0  0  0  0  0  0  0  0
   58.6950   29.7900   49.0850 C   0  0  0  0  0  0  0  0  0  0  0  0
   58.8820   30.9610   49.7500 N   0  0  0  0  0  0  0  0  0  0  0  0
   61.4080   33.8660   46.3660 C   0  0  0  0  0  0  0  0  0  0  0  0
   59.9120   33.7310   46.2330 C   0  0  0  0  0  0  0  0  0  0  0  0
   59.2360   34.3130   45.1480 C   0  0  0  0  0  0  0  0  0  0  0  0
   57.8490   34.1740   45.0290 C   0  0  0  0  0  0  0  0  0  0  0  0
   57.1280   33.4540   45.9890 C   0  0  0  0  0  0  0  0  0  0  0  0
   57.7920   32.8720   47.0690 C   0  0  0  0  0  0  0  0  0  0  0  0
   59.1790   33.0120   47.1940 C   0  0  0  0  0  0  0  0  0  0  0  0
   63.6911   32.6022   48.4899 H   0  0  0  0  0  0  0  0  0  0  0  0
   63.2470   31.8079   46.9412 H   0  0  0  0  0  0  0  0  0  0  0  0
   63.8593   33.4966   46.9412 H   0  0  0  0  0  0  0  0  0  0  0  0
   62.5572   34.9697   48.6824 H   0  0  0  0  0  0  0  0  0  0  0  0
   60.7787   34.6941   48.7347 H   0  0  0  0  0  0  0  0  0  0  0  0
   62.4820   32.5347   49.9143 H   0  0  0  0  0  0  0  0  0  0  0  0
   62.4467   34.1245   50.7941 H   0  0  0  0  0  0  0  0  0  0  0  0
   62.2449   31.2701   49.5626 H   0  0  0  0  0  0  0  0  0  0  0  0
   61.9579   29.1112   48.3358 H   0  0  0  0  0  0  0  0  0  0  0  0
   60.0436   30.0488   45.0949 H   0  0  0  0  0  0  0  0  0  0  0  0
   58.4571   31.5169   43.8551 H   0  0  0  0  0  0  0  0  0  0  0  0
   56.0397   30.9216   43.7275 H   0  0  0  0  0  0  0  0  0  0  0  0
   55.2128   28.8165   44.7719 H   0  0  0  0  0  0  0  0  0  0  0  0
   57.1100   25.1800   47.2060 H   0  0  0  0  0  0  0  0  0  0  0  0
   58.5400   26.1590   46.7460 H   0  0  0  0  0  0  0  0  0  0  0  0
   57.6783   29.3917   48.9524 H   0  0  0  0  0  0  0  0  0  0  0  0
   61.6767   34.9326   46.3551 H   0  0  0  0  0  0  0  0  0  0  0  0
   61.8865   33.3434   45.5247 H   0  0  0  0  0  0  0  0  0  0  0  0
   59.7981   34.8790   44.3906 H   0  0  0  0  0  0  0  0  0  0  0  0
   57.3232   34.6320   44.1782 H   0  0  0  0  0  0  0  0  0  0  0  0
   56.0375   33.3471   45.8917 H   0  0  0  0  0  0  0  0  0  0  0  0
   57.2260   32.3036   47.8217 H   0  0  0  0  0  0  0  0  0  0  0  0
   59.6992   32.5566   48.0496 H   0  0  0  0  0  0  0  0  0  0  0  0
  1  2  1  0
  2  3  1  0
  3  4  1  0
  4  5  1  0
  5  6  1  0
  6  7  2  0
  7  8  1  0
  8  9  2  0
  9 10  1  0
 10 11  2  0
 10 12  1  0
 12 13  1  0
 13 14  2  0
 14 15  1  0
 15 16  2  0
 16 17  1  0
 17 18  2  0
 18 19  1  0
 19 20  1  0
 19 21  2  0
  9 22  1  0
 22 23  2  0
  2 24  1  0
 24 25  1  0
 25 26  2  0
 26 27  1  0
 27 28  2  0
 28 29  1  0
 29 30  2  0
 23  6  1  0
 30 25  1  0
 18 13  1  0
  1 31  1  0
  1 32  1  0
  1 33  1  0
  3 34  1  0
  3 35  1  0
  4 36  1  0
  4 37  1  0
  7 38  1  0
  8 39  1  0
 14 40  1  0
 15 41  1  0
 16 42  1  0
 17 43  1  0
 20 44  1  0
 20 45  1  0
 22 46  1  0
 24 47  1  0
 24 48  1  0
 26 49  1  0
 27 50  1  0
 28 51  1  0
 29 52  1  0
 30 53  1  0
M  CHG  1  12  -1
M  END
>  <UniqueID>  (2) 
2

>  <SMILES>  (2) 
CN(CCSc1ccc(C(=O)[N-]c2ccccc2C(N)=O)cn1)Cc1ccccc1

>  <Energy>  (2) 
61.386036373336395

>  <Genealogy>  (2) 
CN(CCSc1ccc(C(=O)[N-]c2ccccc2C(N)=O)cn1)Cc1ccccc1 (protonated)
CN(CCSc1ccc(C(=O)[N-]c2ccccc2C(N)=O)cn1)Cc1ccccc1 (3D coordinates assigned)
CN(CCSc1ccc(C(=O)[N-]c2ccccc2C(N)=O)cn1)Cc1ccccc1 (optimized conformer: 61.386036373336395 kcal/mol)

>  <smiles>  (2) 
CN(CCSc1ccc(C(=O)Nc2ccccc2C(N)=O)cn1)Cc1ccccc1

>  <score_type>  (2) 
oracle

>  <origin>  (2) 
adg

>  <m_score__min__energy>  (2) 
-10.65

>  <m_primary>  (2) 
energy

$$$$
2:0
     RDKit          3D

 56 58  0  0  0  0  0  0  0  0999 V2000
   54.6820   27.0510   46.6100 H   0  0  0  0  0  0  0  0  0  0  0  0
   55.1140   26.3260   45.9980 N   0  0  0  0  0  0  0  0  0  0  0  0
   56.5130   26.3370   45.7320 C   0  0  0  0  0  0  0  0  0  0  0  0
   56.9730   25.6080   44.8140 O   0  0  0  0  0  0  0  0  0  0  0  0
   57.3990   27.1670   46.5740 C   0  0  0  0  0  0  0  0  0  0  0  0
   57.2673   27.0982   47.6639 H   0  0  0  0  0  0  0  0  0  0  0  0
   58.3500   27.9970   46.1220 C   0  0  0  0  0  0  0  0  0  0  0  0
   59.2845   27.5499   45.7522 H   0  0  0  0  0  0  0  0  0  0  0  0
   58.2320   29.4740   46.0850 C   0  0  0  0  0  0  0  0  0  0  0  0
   57.1500   30.0820   45.4250 C   0  0  0  0  0  0  0  0  0  0  0  0
   56.1800   29.2890   44.7960 O   0  0  0  0  0  0  0  0  0  0  0  0
   55.4950   29.6770   43.6070 C   0  0  0  0  0  0  0  0  0  0  0  0
   54.8132   30.5088   43.8376 H   0  0  0  0  0  0  0  0  0  0  0  0
   54.9278   28.8146   43.2268 H   0  0  0  0  0  0  0  0  0  0  0  0
   56.4860   30.1230   42.5390 C   0  0  0  0  0  0  0  0  0  0  0  0
   57.3874   30.5287   43.0217 H   0  0  0  0  0  0  0  0  0  0  0  0
   56.7616   29.2621   41.9122 H   0  0  0  0  0  0  0  0  0  0  0  0
   56.0244   30.9002   41.9122 H   0  0  0  0  0  0  0  0  0  0  0  0
   57.0450   31.4370   45.4080 N   0  0  0  0  0  0  0  0  0  0  0  0
   57.9460   32.2490   46.0200 C   0  0  0  0  0  0  0  0  0  0  0  0
   57.7740   33.7090   45.9270 C   0  0  0  0  0  0  0  0  0  0  0  0
   56.7480   34.1980   45.3780 O   0  0  0  0  0  0  0  0  0  0  0  0
   58.7810   34.5730   46.4660 N   0  0  0  0  0  0  0  0  0  0  0  0
   60.1240   34.6950   45.9080 C   0  0  0  0  0  0  0  0  0  0  0  0
   60.1852   34.1187   44.9730 H   0  0  0  0  0  0  0  0  0  0  0  0
   60.3388   35.7543   45.7037 H   0  0  0  0  0  0  0  0  0  0  0  0
   61.1310   34.1630   46.8900 C   0  0  0  0  0  0  0  0  0  0  0  0
   60.8410   34.1710   48.2650 C   0  0  0  0  0  0  0  0  0  0  0  0
   59.8621   34.5298   48.6157 H   0  0  0  0  0  0  0  0  0  0  0  0
   61.7910   33.7250   49.1900 C   0  0  0  0  0  0  0  0  0  0  0  0
   61.5551   33.7298   50.2644 H   0  0  0  0  0  0  0  0  0  0  0  0
   63.0430   33.2720   48.7510 C   0  0  0  0  0  0  0  0  0  0  0  0
   64.2530   32.7390   49.9130 S   0  0  0  0  0  0  0  0  0  0  0  0
   65.6290   33.0210   49.3750 O   0  0  0  0  0  0  0  0  0  0  0  0
   64.1200   31.2600   50.1530 O   0  0  0  0  0  0  0  0  0  0  0  0
   64.0270   33.5870   51.4020 N   0  0  0  0  0  0  0  0  0  0  0  0
   64.2160   34.5980   51.2090 H   0  0  0  0  0  0  0  0  0  0  0  0
   63.3420   33.2780   47.3800 C   0  0  0  0  0  0  0  0  0  0  0  0
   64.3266   32.9324   47.0319 H   0  0  0  0  0  0  0  0  0  0  0  0
   62.3920   33.7220   46.4550 C   0  0  0  0  0  0  0  0  0  0  0  0
   62.6331   33.7260   45.3818 H   0  0  0  0  0  0  0  0  0  0  0  0
   59.0220   31.6820   46.7170 C   0  0  0  0  0  0  0  0  0  0  0  0
   59.7486   32.3291   47.2301 H   0  0  0  0  0  0  0  0  0  0  0  0
   59.1710   30.2810   46.7590 C   0  0  0  0  0  0  0  0  0  0  0  0
   60.1610   29.7100   47.3890 N   0  0  0  0  0  0  0  0  0  0  0  0
   61.1150   30.3580   48.2930 C   0  0  0  0  0  0  0  0  0  0  0  0
   62.0569   29.7901   48.2764 H   0  0  0  0  0  0  0  0  0  0  0  0
   61.2562   31.3909   47.9419 H   0  0  0  0  0  0  0  0  0  0  0  0
   60.6060   30.4260   49.7460 C   0  0  0  0  0  0  0  0  0  0  0  0
   61.6129   30.3161   50.1749 H   0  0  0  0  0  0  0  0  0  0  0  0
   59.2280   29.8180   49.9780 C   0  0  0  0  0  0  0  0  0  0  0  0
   58.6684   29.3869   49.1348 H   0  0  0  0  0  0  0  0  0  0  0  0
   58.8232   29.0418   50.6441 H   0  0  0  0  0  0  0  0  0  0  0  0
   59.4180   31.3280   50.0740 C   0  0  0  0  0  0  0  0  0  0  0  0
   58.9964   31.9860   49.2998 H   0  0  0  0  0  0  0  0  0  0  0  0
   59.2081   32.0920   50.8371 H   0  0  0  0  0  0  0  0  0  0  0  0
  1  2  1  0
  2  3  1  0
  3  4  2  0
  3  5  1  0
  5  6  1  0
  5  7  2  3
  7  8  1  0
  7  9  1  0
  9 10  2  0
 10 11  1  0
 11 12  1  0
 12 13  1  0
 12 14  1  0
 12 15  1  0
 15 16  1  0
 15 17  1  0
 15 18  1  0
 10 19  1  0
 19 20  1  0
 20 21  1  0
 21 22  2  0
 21 23  1  0
 23 24  1  0
 24 25  1  0
 24 26  1  0
 24 27  1  0
 27 28  2  0
 28 29  1  0
 28 30  1  0
 30 31  1  0
 30 32  2  0
 32 33  1  0
 33 34  2  0
 33 35  2  0
 33 36  1  0
 36 37  1  0
 32 38  1  0
 38 39  1  0
 38 40  2  0
 40 41  1  0
 20 42  2  0
 42 43  1  0
 42 44  1  0
 44 45  2  0
 45 46  1  0
 46 47  1  0
 46 48  1  0
 46 49  1  0
 49 50  1  0
 49 51  1  0
 51 52  1  0
 51 53  1  0
 51 54  1  0
 54 55  1  0
 54 56  1  0
 44  9  1  0
 54 49  1  0
 40 27  1  0
M  CHG  4   2  -1  19  -1  23  -1  36  -1
M  END
>  <UniqueID>  (3) 
3

>  <SMILES>  (3) 
CCOc1[n-]c(C(=O)[N-]Cc2ccc(S([NH-])(=O)=O)cc2)c/c(=N\CC2CC2)c1C=CC([NH-])=O

>  <Energy>  (3) 
324.9031031598958

>  <Genealogy>  (3) 
CCOc1[n-]c(C(=O)[N-]Cc2ccc(S([NH-])(=O)=O)cc2)cc(=NCC2CC2)c1C=CC([NH-])=O (protonated)
CCOc1[n-]c(C(=O)[N-]Cc2ccc(S([NH-])(=O)=O)cc2)c/c(=N\CC2CC2)c1C=CC([NH-])=O (cis-trans isomerization)
CCOc1[n-]c(C(=O)[N-]Cc2ccc(S([NH-])(=O)=O)cc2)c/c(=N\CC2CC2)c1C=CC([NH-])=O (3D coordinates assigned)
CCOc1[n-]c(C(=O)[N-]Cc2ccc(S([NH-])(=O)=O)cc2)c/c(=N\CC2CC2)c1C=CC([NH-])=O (nonaromatic ring conformer: 324.9031031598958 kcal/mol)

>  <smiles>  (3) 
CCOc1[nH]c(C(=O)NCc2ccc(S(N)(=O)=O)cc2)cc(=NCC2CC2)c1C=CC(N)=O

>  <score_type>  (3) 
oracle

>  <origin>  (3) 
adg

>  <m_score__min__energy>  (3) 
-16.359999999999999

>  <m_primary>  (3) 
energy

$$$$
3:0
     RDKit          3D

 61 63  0  0  0  0  0  0  0  0999 V2000
   57.7470   21.4750   43.5700 C   0  0  0  0  0  0  0  0  0  0  0  0
   56.6200   22.0200   44.3340 N   0  0  0  0  0  0  0  0  0  0  0  0
   55.8880   21.1650   45.2770 C   0  0  0  0  0  0  0  0  0  0  0  0
   56.2140   23.3880   44.1070 C   0  0  0  0  0  0  0  0  0  0  0  0
   56.6510   24.0100   43.1010 O   0  0  0  0  0  0  0  0  0  0  0  0
   55.2330   24.0900   45.0120 C   0  0  0  0  0  0  0  0  0  0  0  0
   55.7960   24.0880   46.7520 S   0  0  0  0  0  0  0  0  0  0  0  0
   56.8550   25.5270   46.5610 C   0  0  0  0  0  0  0  0  0  0  0  0
   58.1450   25.5130   47.0920 C   0  0  0  0  0  0  0  0  0  0  0  0
   58.9750   26.6270   46.9570 C   0  0  0  0  0  0  0  0  0  0  0  0
   58.5340   27.7860   46.2750 C   0  0  0  0  0  0  0  0  0  0  0  0
   57.2060   27.8010   45.7650 C   0  0  0  0  0  0  0  0  0  0  0  0
   56.3890   26.6600   45.8950 C   0  0  0  0  0  0  0  0  0  0  0  0
   56.7150   28.9660   45.1540 C   0  0  0  0  0  0  0  0  0  0  0  0
   55.5330   29.0090   44.7070 O   0  0  0  0  0  0  0  0  0  0  0  0
   57.5300   30.0990   45.0670 C   0  0  0  0  0  0  0  0  0  0  0  0
   57.0250   31.3430   44.4530 C   0  0  0  0  0  0  0  0  0  0  0  0
   56.8970   31.4000   43.2010 O   0  0  0  0  0  0  0  0  0  0  0  0
   56.6210   32.4650   45.2430 N   0  0  0  0  0  0  0  0  0  0  0  0
   57.2300   33.7910   45.1790 C   0  0  0  0  0  0  0  0  0  0  0  0
   58.4440   33.8350   46.0650 C   0  0  0  0  0  0  0  0  0  0  0  0
   58.3360   33.5070   47.4290 C   0  0  0  0  0  0  0  0  0  0  0  0
   59.4680   33.5230   48.2490 C   0  0  0  0  0  0  0  0  0  0  0  0
   60.7140   33.8740   47.7160 C   0  0  0  0  0  0  0  0  0  0  0  0
   62.1380   33.8870   48.7440 Cl  0  0  0  0  0  0  0  0  0  0  0  0
   60.8260   34.2170   46.3650 C   0  0  0  0  0  0  0  0  0  0  0  0
   59.6980   34.1970   45.5410 C   0  0  0  0  0  0  0  0  0  0  0  0
   58.8410   30.0380   45.5480 C   0  0  0  0  0  0  0  0  0  0  0  0
   59.3450   28.8950   46.1100 N   0  0  0  0  0  0  0  0  0  0  0  0
   60.7670   28.9060   46.5210 C   0  0  0  0  0  0  0  0  0  0  0  0
   61.0160   29.8930   47.6380 C   0  0  0  0  0  0  0  0  0  0  0  0
   61.5710   30.9900   47.3550 O   0  0  0  0  0  0  0  0  0  0  0  0
   60.6230   29.6330   49.0010 N   0  0  0  0  0  0  0  0  0  0  0  0
   60.2740   30.7660   49.8600 C   0  0  0  0  0  0  0  0  0  0  0  0
   60.4630   28.2690   49.5090 C   0  0  0  0  0  0  0  0  0  0  0  0
   58.5151   21.1035   44.2642 H   0  0  0  0  0  0  0  0  0  0  0  0
   57.3946   20.6478   42.9364 H   0  0  0  0  0  0  0  0  0  0  0  0
   58.1766   22.2649   42.9364 H   0  0  0  0  0  0  0  0  0  0  0  0
   56.1384   21.4574   46.3074 H   0  0  0  0  0  0  0  0  0  0  0  0
   54.8064   21.2826   45.1150 H   0  0  0  0  0  0  0  0  0  0  0  0
   56.1709   20.1144   45.1150 H   0  0  0  0  0  0  0  0  0  0  0  0
   55.1195   25.1310   44.6753 H   0  0  0  0  0  0  0  0  0  0  0  0
   54.2747   23.5523   44.9613 H   0  0  0  0  0  0  0  0  0  0  0  0
   58.5099   24.6195   47.6197 H   0  0  0  0  0  0  0  0  0  0  0  0
   59.9871   26.6038   47.3872 H   0  0  0  0  0  0  0  0  0  0  0  0
   55.3754   26.6633   45.4676 H   0  0  0  0  0  0  0  0  0  0  0  0
   57.5262   34.0075   44.1420 H   0  0  0  0  0  0  0  0  0  0  0  0
   56.5028   34.5425   45.5203 H   0  0  0  0  0  0  0  0  0  0  0  0
   57.3570   33.2369   47.8517 H   0  0  0  0  0  0  0  0  0  0  0  0
   59.3797   33.2597   49.3134 H   0  0  0  0  0  0  0  0  0  0  0  0
   61.8039   34.5030   45.9504 H   0  0  0  0  0  0  0  0  0  0  0  0
   59.7910   34.4654   44.4783 H   0  0  0  0  0  0  0  0  0  0  0  0
   59.4827   30.9283   45.4735 H   0  0  0  0  0  0  0  0  0  0  0  0
   61.0468   27.8994   46.8652 H   0  0  0  0  0  0  0  0  0  0  0  0
   61.3732   29.2076   45.6541 H   0  0  0  0  0  0  0  0  0  0  0  0
   60.3657   30.4682   50.9149 H   0  0  0  0  0  0  0  0  0  0  0  0
   60.9554   31.6049   49.6552 H   0  0  0  0  0  0  0  0  0  0  0  0
   59.2387   31.0761   49.6552 H   0  0  0  0  0  0  0  0  0  0  0  0
   60.4649   28.2848   50.6089 H   0  0  0  0  0  0  0  0  0  0  0  0
   59.5099   27.8534   49.1499 H   0  0  0  0  0  0  0  0  0  0  0  0
   61.2940   27.6441   49.1499 H   0  0  0  0  0  0  0  0  0  0  0  0
  1  2  1  0
  2  3  1  0
  2  4  1  0
  4  5  2  0
  4  6  1  0
  6  7  1  0
  7  8  1  0
  8  9  2  0
  9 10  1  0
 10 11  2  0
 11 12  1  0
 12 13  2  0
 12 14  1  0
 14 15  2  0
 14 16  1  0
 16 17  1  0
 17 18  2  0
 17 19  1  0
 19 20  1  0
 20 21  1  0
 21 22  2  0
 22 23  1  0
 23 24  2  0
 24 25  1  0
 24 26  1  0
 26 27  2  0
 16 28  2  0
 28 29  1  0
 29 30  1  0
 30 31  1  0
 31 32  2  0
 31 33  1  0
 33 34  1  0
 33 35  1  0
 13  8  1  0
 27 21  1  0
 29 11  1  0
  1 36  1  0
  1 37  1  0
  1 38  1  0
  3 39  1  0
  3 40  1  0
  3 41  1  0
  6 42  1  0
  6 43  1  0
  9 44  1  0
 10 45  1  0
 13 46  1  0
 20 47  1  0
 20 48  1  0
 22 49  1  0
 23 50  1  0
 26 51  1  0
 27 52  1  0
 28 53  1  0
 30 54  1  0
 30 55  1  0
 34 56  1  0
 34 57  1  0
 34 58  1  0
 35 59  1  0
 35 60  1  0
 35 61  1  0
M  CHG  1  19  -1
M  END
>  <UniqueID>  (4) 
4

>  <SMILES>  (4) 
CN(C)C(=O)CSc1ccc2c(c1)c(=O)c(C(=O)[N-]Cc1ccc(Cl)cc1)cn2CC(=O)N(C)C

>  <Energy>  (4) 
69.29280659524211

>  <Genealogy>  (4) 
CN(C)C(=O)CSc1ccc2c(c1)c(=O)c(C(=O)[N-]Cc1ccc(Cl)cc1)cn2CC(=O)N(C)C (protonated)
CN(C)C(=O)CSc1ccc2c(c1)c(=O)c(C(=O)[N-]Cc1ccc(Cl)cc1)cn2CC(=O)N(C)C (3D coordinates assigned)
CN(C)C(=O)CSc1ccc2c(c1)c(=O)c(C(=O)[N-]Cc1ccc(Cl)cc1)cn2CC(=O)N(C)C (optimized conformer: 69.29280659524211 kcal/mol)

>  <smiles>  (4) 
CN(C)C(=O)CSc1ccc2c(c1)c(=O)c(C(=O)NCc1ccc(Cl)cc1)cn2CC(=O)N(C)C

>  <score_type>  (4) 
oracle

>  <origin>  (4) 
adg

>  <m_score__min__energy>  (4) 
-10.390000000000001

>  <m_primary>  (4) 
energy

$$$$
4:0
     RDKit          3D

 51 53  0  0  0  0  0  0  0  0999 V2000
   54.2220   23.9320   45.8840 C   0  0  0  0  0  0  0  0  0  0  0  0
   54.3690   23.7160   44.0840 S   0  0  0  0  0  0  0  0  0  0  0  0
   56.0510   23.0850   44.1720 C   0  0  0  0  0  0  0  0  0  0  0  0
   56.2860   21.7440   43.8420 C   0  0  0  0  0  0  0  0  0  0  0  0
   57.5830   21.2260   43.8840 C   0  0  0  0  0  0  0  0  0  0  0  0
   58.6500   22.0420   44.2580 C   0  0  0  0  0  0  0  0  0  0  0  0
   58.4260   23.3800   44.5910 C   0  0  0  0  0  0  0  0  0  0  0  0
   57.1280   23.9180   44.5460 C   0  0  0  0  0  0  0  0  0  0  0  0
   56.8980   25.2890   44.9110 N   0  0  0  0  0  0  0  0  0  0  0  0
   57.3730   25.8620   46.1380 C   0  0  0  0  0  0  0  0  0  0  0  0
   58.1220   25.1990   46.9070 O   0  0  0  0  0  0  0  0  0  0  0  0
   57.0360   27.2770   46.4810 C   0  0  0  0  0  0  0  0  0  0  0  0
   55.9830   27.7460   45.5950 N   0  0  0  0  0  0  0  0  0  0  0  0
   56.0600   28.9650   44.8520 C   0  0  0  0  0  0  0  0  0  0  0  0
   55.1450   29.8260   44.9640 O   0  0  0  0  0  0  0  0  0  0  0  0
   57.2420   29.2500   43.9460 C   0  0  0  0  0  0  0  0  0  0  0  0
   58.5450   29.4400   44.7620 C   0  0  0  0  0  0  0  0  0  0  0  0
   58.7570   30.8930   45.2350 C   0  0  0  0  0  0  0  0  0  0  0  0
   57.4920   31.6430   45.1990 N   0  0  0  0  0  0  0  0  0  0  0  0
   57.6880   33.2010   45.9610 S   0  0  0  0  0  0  0  0  0  0  0  0
   56.5260   33.4620   46.8770 O   0  0  0  0  0  0  0  0  0  0  0  0
   57.7060   34.2780   44.9140 O   0  0  0  0  0  0  0  0  0  0  0  0
   59.1760   33.2840   46.8920 C   0  0  0  0  0  0  0  0  0  0  0  0
   59.2750   33.1600   48.2710 C   0  0  0  0  0  0  0  0  0  0  0  0
   60.5860   33.2990   48.7390 C   0  0  0  0  0  0  0  0  0  0  0  0
   61.5060   33.5290   47.7250 C   0  0  0  0  0  0  0  0  0  0  0  0
   63.3780   33.7890   47.9550 Br  0  0  0  0  0  0  0  0  0  0  0  0
   60.7020   33.5650   46.2490 S   0  0  0  0  0  0  0  0  0  0  0  0
   57.0280   31.8120   43.8070 C   0  0  0  0  0  0  0  0  0  0  0  0
   57.0120   30.4730   43.0310 C   0  0  0  0  0  0  0  0  0  0  0  0
   54.7698   23.1271   46.3958 H   0  0  0  0  0  0  0  0  0  0  0  0
   54.6462   24.9051   46.1724 H   0  0  0  0  0  0  0  0  0  0  0  0
   53.1611   23.8945   46.1724 H   0  0  0  0  0  0  0  0  0  0  0  0
   55.4465   21.0965   43.5488 H   0  0  0  0  0  0  0  0  0  0  0  0
   57.7626   20.1729   43.6216 H   0  0  0  0  0  0  0  0  0  0  0  0
   59.6700   21.6314   44.2909 H   0  0  0  0  0  0  0  0  0  0  0  0
   59.2712   24.0171   44.8905 H   0  0  0  0  0  0  0  0  0  0  0  0
   56.4430   25.9220   44.2150 H   0  0  0  0  0  0  0  0  0  0  0  0
   56.6902   27.3304   47.5239 H   0  0  0  0  0  0  0  0  0  0  0  0
   57.9284   27.9089   46.3612 H   0  0  0  0  0  0  0  0  0  0  0  0
   57.3482   28.3666   43.2992 H   0  0  0  0  0  0  0  0  0  0  0  0
   58.5027   28.7868   45.6460 H   0  0  0  0  0  0  0  0  0  0  0  0
   59.3861   29.1846   44.1007 H   0  0  0  0  0  0  0  0  0  0  0  0
   59.1422   30.8845   46.2653 H   0  0  0  0  0  0  0  0  0  0  0  0
   59.4765   31.3819   44.5618 H   0  0  0  0  0  0  0  0  0  0  0  0
   58.4125   32.9720   48.9274 H   0  0  0  0  0  0  0  0  0  0  0  0
   60.8600   33.2328   49.8023 H   0  0  0  0  0  0  0  0  0  0  0  0
   56.0090   32.2260   43.8208 H   0  0  0  0  0  0  0  0  0  0  0  0
   57.7280   32.4902   43.2970 H   0  0  0  0  0  0  0  0  0  0  0  0
   56.0350   30.3642   42.5373 H   0  0  0  0  0  0  0  0  0  0  0  0
   57.8355   30.5019   42.3023 H   0  0  0  0  0  0  0  0  0  0  0  0
  1  2  1  0
  2  3  1  0
  3  4  2  0
  4  5  1  0
  5  6  2  0
  6  7  1  0
  7  8  2  0
  8  9  1  0
  9 10  1  0
 10 11  2  0
 10 12  1  0
 12 13  1  0
 13 14  1  0
 14 15  2  0
 14 16  1  0
 16 17  1  0
 17 18  1  0
 18 19  1  0
 19 20  1  0
 20 21  2  0
 20 22  2  0
 20 23  1  0
 23 24  2  0
 24 25  1  0
 25 26  2  0
 26 27  1  0
 26 28  1  0
 19 29  1  0
 29 30  1  0
  8  3  1  0
 30 16  1  0
 28 23  1  0
  1 31  1  0
  1 32  1  0
  1 33  1  0
  4 34  1  0
  5 35  1  0
  6 36  1  0
  7 37  1  0
  9 38  1  0
 12 39  1  0
 12 40  1  0
 16 41  1  0
 17 42  1  0
 17 43  1  0
 18 44  1  0
 18 45  1  0
 24 46  1  0
 25 47  1  0
 29 48  1  0
 29 49  1  0
 30 50  1  0
 30 51  1  0
M  CHG  1  13  -1
M  END
>  <UniqueID>  (5) 
5

>  <SMILES>  (5) 
CSc1ccccc1NC(=O)C[N-]C(=O)C1CCN(S(=O)(=O)c2ccc(Br)s2)CC1

>  <Energy>  (5) 
76.83607048484114

>  <Genealogy>  (5) 
CSc1ccccc1NC(=O)C[N-]C(=O)C1CCN(S(=O)(=O)c2ccc(Br)s2)CC1 (protonated)
CSc1ccccc1NC(=O)C[N-]C(=O)C1CCN(S(=O)(=O)c2ccc(Br)s2)CC1 (3D coordinates assigned)
CSc1ccccc1NC(=O)C[N-]C(=O)C1CCN(S(=O)(=O)c2ccc(Br)s2)CC1 (nonaromatic ring conformer: 76.83607048484114 kcal/mol)

>  <smiles>  (5) 
CSc1ccccc1NC(=O)CNC(=O)C1CCN(S(=O)(=O)c2ccc(Br)s2)CC1

>  <score_type>  (5) 
oracle

>  <origin>  (5) 
adg

>  <m_score__min__energy>  (5) 
-12.539999999999999

>  <m_primary>  (5) 
energy

$$$$
5:0
     RDKit          3D

 67 71  0  0  0  0  0  0  0  0999 V2000
   55.1460   26.7160   46.0140 O   0  0  0  0  0  0  0  0  0  0  0  0
   56.1950   26.0170   45.9830 C   0  0  0  0  0  0  0  0  0  0  0  0
   57.3120   26.3830   45.0560 C   0  0  0  0  0  0  0  0  0  0  0  0
   57.9330   27.6490   45.4510 N   0  0  0  0  0  0  0  0  0  0  0  0
   57.6380   28.8970   44.7990 C   0  0  0  0  0  0  0  0  0  0  0  0
   57.0980   28.8810   43.5050 C   0  0  0  0  0  0  0  0  0  0  0  0
   56.7560   30.0740   42.8660 C   0  0  0  0  0  0  0  0  0  0  0  0
   56.9420   31.2960   43.5160 C   0  0  0  0  0  0  0  0  0  0  0  0
   57.4820   31.3400   44.8130 C   0  0  0  0  0  0  0  0  0  0  0  0
   57.6870   32.6510   45.4810 C   0  0  0  0  0  0  0  0  0  0  0  0
   56.9210   33.6070   45.1800 O   0  0  0  0  0  0  0  0  0  0  0  0
   58.7280   32.8720   46.4570 N   0  0  0  0  0  0  0  0  0  0  0  0
   59.0210   31.8730   47.5000 C   0  0  0  0  0  0  0  0  0  0  0  0
   60.5390   31.7680   47.7500 C   0  0  0  0  0  0  0  0  0  0  0  0
   61.2580   33.1480   47.7300 C   0  0  0  0  0  0  0  0  0  0  0  0
   62.3000   33.2850   48.7800 N   0  0  0  0  0  0  0  0  0  0  0  0
   63.6750   33.4050   48.3520 C   0  0  0  0  0  0  0  0  0  0  0  0
   63.9620   33.7920   47.1860 O   0  0  0  0  0  0  0  0  0  0  0  0
   64.7740   33.0750   49.3050 C   0  0  0  0  0  0  0  0  0  0  0  0
   64.5210   33.7850   50.6280 C   0  0  0  0  0  0  0  0  0  0  0  0
   63.1160   33.5550   51.1260 C   0  0  0  0  0  0  0  0  0  0  0  0
   62.8740   33.6350   52.5070 C   0  0  0  0  0  0  0  0  0  0  0  0
   61.5780   33.5260   53.0060 C   0  0  0  0  0  0  0  0  0  0  0  0
   60.5090   33.3580   52.1310 C   0  0  0  0  0  0  0  0  0  0  0  0
   60.7290   33.2880   50.7550 C   0  0  0  0  0  0  0  0  0  0  0  0
   62.0340   33.3720   50.2180 C   0  0  0  0  0  0  0  0  0  0  0  0
   60.2990   34.3500   47.7240 C   0  0  0  0  0  0  0  0  0  0  0  0
   59.3040   34.2240   46.5600 C   0  0  0  0  0  0  0  0  0  0  0  0
   57.8600   30.1350   45.4340 C   0  0  0  0  0  0  0  0  0  0  0  0
   56.3280   24.8970   46.8550 N   0  0  0  0  0  0  0  0  0  0  0  0
   55.5610   23.6780   46.6370 C   0  0  0  0  0  0  0  0  0  0  0  0
   56.0620   22.9960   45.3940 C   0  0  0  0  0  0  0  0  0  0  0  0
   57.2990   22.3310   45.3900 C   0  0  0  0  0  0  0  0  0  0  0  0
   57.7860   21.7710   44.2050 C   0  0  0  0  0  0  0  0  0  0  0  0
   57.0330   21.8900   43.0340 C   0  0  0  0  0  0  0  0  0  0  0  0
   55.8440   22.5500   43.0510 N   0  0  0  0  0  0  0  0  0  0  0  0
   55.3500   23.1050   44.1900 C   0  0  0  0  0  0  0  0  0  0  0  0
   58.0720   25.5880   45.0780 H   0  0  0  0  0  0  0  0  0  0  0  0
   56.9007   26.4975   44.0422 H   0  0  0  0  0  0  0  0  0  0  0  0
   58.6790   27.6380   46.1840 H   0  0  0  0  0  0  0  0  0  0  0  0
   56.9428   27.9216   42.9898 H   0  0  0  0  0  0  0  0  0  0  0  0
   56.3391   30.0516   41.8483 H   0  0  0  0  0  0  0  0  0  0  0  0
   56.6637   32.2316   43.0089 H   0  0  0  0  0  0  0  0  0  0  0  0
   58.5218   32.1704   48.4340 H   0  0  0  0  0  0  0  0  0  0  0  0
   58.6517   30.8934   47.1623 H   0  0  0  0  0  0  0  0  0  0  0  0
   60.7004   31.3034   48.7339 H   0  0  0  0  0  0  0  0  0  0  0  0
   60.9647   31.1646   46.9347 H   0  0  0  0  0  0  0  0  0  0  0  0
   61.7783   33.1654   46.7610 H   0  0  0  0  0  0  0  0  0  0  0  0
   64.8030   31.9879   49.4707 H   0  0  0  0  0  0  0  0  0  0  0  0
   65.7365   33.4052   48.8871 H   0  0  0  0  0  0  0  0  0  0  0  0
   65.2312   33.4056   51.3774 H   0  0  0  0  0  0  0  0  0  0  0  0
   64.6552   34.8650   50.4682 H   0  0  0  0  0  0  0  0  0  0  0  0
   63.7147   33.7850   53.2004 H   0  0  0  0  0  0  0  0  0  0  0  0
   61.3998   33.5727   54.0905 H   0  0  0  0  0  0  0  0  0  0  0  0
   59.4854   33.2800   52.5262 H   0  0  0  0  0  0  0  0  0  0  0  0
   59.8721   33.1653   50.0762 H   0  0  0  0  0  0  0  0  0  0  0  0
   59.7458   34.3791   48.6743 H   0  0  0  0  0  0  0  0  0  0  0  0
   60.8813   35.2753   47.6021 H   0  0  0  0  0  0  0  0  0  0  0  0
   58.4876   34.9450   46.7136 H   0  0  0  0  0  0  0  0  0  0  0  0
   59.8513   34.4272   45.6277 H   0  0  0  0  0  0  0  0  0  0  0  0
   58.3341   30.1600   46.4263 H   0  0  0  0  0  0  0  0  0  0  0  0
   55.6832   23.0068   47.4999 H   0  0  0  0  0  0  0  0  0  0  0  0
   54.4960   23.9268   46.5191 H   0  0  0  0  0  0  0  0  0  0  0  0
   57.8841   22.2508   46.3181 H   0  0  0  0  0  0  0  0  0  0  0  0
   58.7508   21.2428   44.1947 H   0  0  0  0  0  0  0  0  0  0  0  0
   57.4026   21.4490   42.0965 H   0  0  0  0  0  0  0  0  0  0  0  0
   54.3896   23.6408   44.1673 H   0  0  0  0  0  0  0  0  0  0  0  0
  1  2  2  0
  2  3  1  0
  3  4  1  0
  4  5  1  0
  5  6  2  0
  6  7  1  0
  7  8  2  0
  8  9  1  0
  9 10  1  0
 10 11  2  0
 10 12  1  0
 12 13  1  0
 13 14  1  0
 14 15  1  0
 15 16  1  0
 16 17  1  0
 17 18  2  0
 17 19  1  0
 19 20  1  0
 20 21  1  0
 21 22  2  0
 22 23  1  0
 23 24  2  0
 24 25  1  0
 25 26  2  0
 15 27  1  0
 27 28  1  0
  9 29  2  0
  2 30  1  0
 30 31  1  0
 31 32  1  0
 32 33  2  0
 33 34  1  0
 34 35  2  0
 35 36  1  0
 36 37  2  0
 29  5  1  0
 37 32  1  0
 28 12  1  0
 26 16  1  0
 26 21  1  0
  3 38  1  0
  3 39  1  0
  4 40  1  0
  6 41  1  0
  7 42  1  0
  8 43  1  0
 13 44  1  0
 13 45  1  0
 14 46  1  0
 14 47  1  0
 15 48  1  0
 19 49  1  0
 19 50  1  0
 20 51  1  0
 20 52  1  0
 22 53  1  0
 23 54  1  0
 24 55  1  0
 25 56  1  0
 27 57  1  0
 27 58  1  0
 28 59  1  0
 28 60  1  0
 29 61  1  0
 31 62  1  0
 31 63  1  0
 33 64  1  0
 34 65  1  0
 35 66  1  0
 37 67  1  0
M  CHG  1  30  -1
M  END
>  <UniqueID>  (6) 
6

>  <SMILES>  (6) 
O=C(CNc1cccc(C(=O)N2CCC(N3C(=O)CCc4ccccc43)CC2)c1)[N-]Cc1cccnc1

>  <Energy>  (6) 
89.88077588061921

>  <Genealogy>  (6) 
O=C(CNc1cccc(C(=O)N2CCC(N3C(=O)CCc4ccccc43)CC2)c1)[N-]Cc1cccnc1 (protonated)
O=C(CNc1cccc(C(=O)N2CCC(N3C(=O)CCc4ccccc43)CC2)c1)[N-]Cc1cccnc1 (3D coordinates assigned)
O=C(CNc1cccc(C(=O)N2CCC(N3C(=O)CCc4ccccc43)CC2)c1)[N-]Cc1cccnc1 (nonaromatic ring conformer: 89.88077588061921 kcal/mol)

>  <smiles>  (6) 
O=C(CNc1cccc(C(=O)N2CCC(N3C(=O)CCc4ccccc43)CC2)c1)NCc1cccnc1

>  <score_type>  (6) 
oracle

>  <origin>  (6) 
adg

>  <m_score__min__energy>  (6) 
-13.69

>  <m_primary>  (6) 
energy

$$$$
6:0
     RDKit          3D

 48 51  0  0  1  0  0  0  0  0999 V2000
   59.5850   22.1610   44.5200 C   0  0  0  0  0  0  0  0  0  0  0  0
   59.5770   23.2250   45.3360 C   0  0  0  0  0  0  0  0  0  0  0  0
   58.4050   24.0800   45.4950 C   0  0  0  0  0  0  0  0  0  0  0  0
   57.1350   23.5810   45.6510 C   0  0  0  0  0  0  0  0  0  0  0  0
   56.0110   24.3810   45.8100 C   0  0  0  0  0  0  0  0  0  0  0  0
   56.2370   25.7470   45.8030 C   0  0  0  0  0  0  0  0  0  0  0  0
   55.1400   26.5850   45.9600 O   0  0  0  0  0  0  0  0  0  0  0  0
   57.4970   26.2780   45.6480 C   0  0  0  0  0  0  0  0  0  0  0  0
   57.6260   27.7430   45.6530 C   0  0  0  0  0  0  0  0  0  0  0  0
   56.9150   28.5160   44.7950 N   0  0  0  0  0  0  0  0  0  0  0  0
   56.9680   29.8230   44.7440 N   0  0  0  0  0  0  0  0  0  0  0  0
   57.7740   30.4670   45.5920 C   0  0  0  0  0  0  0  0  0  0  0  0
   57.8940   31.7260   45.6220 N   0  0  0  0  0  0  0  0  0  0  0  0
   57.8430   32.5570   44.4440 C   0  0  0  0  0  0  0  0  0  0  0  0
   58.5540   33.8690   44.5630 C   0  0  0  0  0  0  0  0  0  0  0  0
   59.3390   33.9770   45.8510 C   0  0  0  0  0  0  0  0  0  0  0  0
   58.7300   34.3070   47.0420 C   0  0  0  0  0  0  0  0  0  0  0  0
   59.5120   34.3990   48.1800 C   0  0  0  0  0  0  0  0  0  0  0  0
   60.8700   34.1530   48.0600 C   0  0  0  0  0  0  0  0  0  0  0  0
   61.4400   33.8210   46.8270 C   0  0  0  0  0  0  0  0  0  0  0  0
   60.6620   33.7380   45.7380 N   0  0  0  0  0  0  0  0  0  0  0  0
   58.5460   29.7450   46.5150 C   0  0  0  0  0  0  0  0  0  0  0  0
   59.3830   30.3930   47.3990 C   0  0  0  0  0  0  0  0  0  0  0  0
   60.1530   29.7030   48.3170 C   0  0  0  0  0  0  0  0  0  0  0  0
   60.0510   28.3320   48.3160 C   0  0  0  0  0  0  0  0  0  0  0  0
   59.2310   27.6280   47.4590 C   0  0  0  0  0  0  0  0  0  0  0  0
   58.4870   28.3580   46.5650 C   0  0  0  0  0  0  0  0  0  0  0  0
   58.5820   25.4430   45.4940 C   0  0  0  0  0  0  0  0  0  0  0  0
   60.4908   21.5434   44.4304 H   0  0  0  0  0  0  0  0  0  0  0  0
   58.6857   21.9058   43.9402 H   0  0  0  0  0  0  0  0  0  0  0  0
   60.4871   23.4621   45.9065 H   0  0  0  0  0  0  0  0  0  0  0  0
   57.0009   22.4892   45.6500 H   0  0  0  0  0  0  0  0  0  0  0  0
   55.0040   23.9560   45.9338 H   0  0  0  0  0  0  0  0  0  0  0  0
   55.1470   27.4690   45.4880 H   0  0  0  0  0  0  0  0  0  0  0  0
   56.4190   30.4020   44.0800 H   0  0  0  0  0  0  0  0  0  0  0  0
   58.2961   31.9977   43.6122 H   0  0  0  0  0  0  0  0  0  0  0  0
   56.7815   32.7965   44.2829 H   0  0  0  0  0  0  0  0  0  0  0  0
   59.2472   33.9747   43.7155 H   0  0  0  0  0  0  0  0  0  0  0  0
   57.7959   34.6660   44.5610 H   0  0  0  0  0  0  0  0  0  0  0  0
   57.6468   34.4931   47.0873 H   0  0  0  0  0  0  0  0  0  0  0  0
   59.0680   34.6600   49.1520 H   0  0  0  0  0  0  0  0  0  0  0  0
   61.5117   34.2201   48.9509 H   0  0  0  0  0  0  0  0  0  0  0  0
   62.5204   33.6290   46.7508 H   0  0  0  0  0  0  0  0  0  0  0  0
   59.4397   31.4912   47.3730 H   0  0  0  0  0  0  0  0  0  0  0  0
   60.8185   30.2283   49.0179 H   0  0  0  0  0  0  0  0  0  0  0  0
   60.6567   27.7653   49.0385 H   0  0  0  0  0  0  0  0  0  0  0  0
   59.1755   26.5298   47.4903 H   0  0  0  0  0  0  0  0  0  0  0  0
   59.5894   25.8670   45.3703 H   0  0  0  0  0  0  0  0  0  0  0  0
  1  2  2  0
  2  3  1  0
  3  4  2  0
  4  5  1  0
  5  6  2  0
  6  7  1  0
  6  8  1  0
  8  9  1  0
  9 10  2  0
 10 11  1  0
 11 12  1  0
 12 13  2  0
 13 14  1  0
 14 15  1  0
 15 16  1  0
 16 17  2  0
 17 18  1  0
 18 19  2  0
 19 20  1  0
 20 21  2  0
 12 22  1  0
 22 23  2  0
 23 24  1  0
 24 25  2  0
 25 26  1  0
 26 27  2  0
  8 28  2  0
 28  3  1  0
 27  9  1  0
 21 16  1  0
 27 22  1  0
  1 29  1  0
  1 30  1  0
  2 31  1  0
  4 32  1  0
  5 33  1  0
  7 34  1  0
 11 35  1  0
 14 36  1  0
 14 37  1  0
 15 38  1  0
 15 39  1  0
 17 40  1  0
 18 41  1  0
 19 42  1  0
 20 43  1  0
 23 44  1  0
 24 45  1  0
 25 46  1  0
 26 47  1  0
 28 48  1  0
M  END
>  <smiles>  (7) 
C=Cc1ccc(O)c(-c2n[nH]c(=NCCc3ccccn3)c3ccccc23)c1

>  <score_type>  (7) 
oracle

>  <origin>  (7) 
adg

>  <m_score__min__energy>  (7) 
-10.08

>  <m_primary>  (7) 
energy

$$$$
7:0
     RDKit          3D

 36 38  0  0  0  0  0  0  0  0999 V2000
   55.1020   26.3360   46.0040 N   0  0  0  0  0  0  0  0  0  0  0  0
   56.3250   25.1420   46.2690 S   0  0  0  0  0  0  0  0  0  0  0  0
   56.1900   24.5800   47.6570 O   0  0  0  0  0  0  0  0  0  0  0  0
   56.1580   24.0250   45.2770 O   0  0  0  0  0  0  0  0  0  0  0  0
   57.9120   25.8780   46.0710 C   0  0  0  0  0  0  0  0  0  0  0  0
   59.0580   25.2110   46.5240 C   0  0  0  0  0  0  0  0  0  0  0  0
   60.3160   25.8040   46.3830 C   0  0  0  0  0  0  0  0  0  0  0  0
   60.4350   27.0660   45.7960 C   0  0  0  0  0  0  0  0  0  0  0  0
   59.2930   27.7490   45.3450 C   0  0  0  0  0  0  0  0  0  0  0  0
   59.4190   29.1200   44.7310 C   0  0  0  0  0  0  0  0  0  0  0  0
   58.4030   30.0310   45.2780 N   0  0  0  0  0  0  0  0  0  0  0  0
   58.6940   30.9920   46.3210 C   0  0  0  0  0  0  0  0  0  0  0  0
   59.6220   30.6710   47.3330 C   0  0  0  0  0  0  0  0  0  0  0  0
   59.9370   31.5850   48.3370 C   0  0  0  0  0  0  0  0  0  0  0  0
   59.3280   32.8350   48.3590 C   0  0  0  0  0  0  0  0  0  0  0  0
   58.3890   33.1710   47.3850 C   0  0  0  0  0  0  0  0  0  0  0  0
   58.0450   32.2630   46.3630 C   0  0  0  0  0  0  0  0  0  0  0  0
   57.0130   32.6800   45.3680 C   0  0  0  0  0  0  0  0  0  0  0  0
   56.6610   33.8880   45.2990 O   0  0  0  0  0  0  0  0  0  0  0  0
   56.3790   31.7440   44.5000 N   0  0  0  0  0  0  0  0  0  0  0  0
   56.8570   30.0970   44.5050 S   0  0  0  0  0  0  0  0  0  0  0  0
   55.8640   29.2690   45.2700 O   0  0  0  0  0  0  0  0  0  0  0  0
   56.9590   29.6090   43.0880 O   0  0  0  0  0  0  0  0  0  0  0  0
   58.0320   27.1460   45.4880 C   0  0  0  0  0  0  0  0  0  0  0  0
   54.8410   26.7200   46.9390 H   0  0  0  0  0  0  0  0  0  0  0  0
   55.5490   27.1170   45.4710 H   0  0  0  0  0  0  0  0  0  0  0  0
   58.9676   24.2193   46.9913 H   0  0  0  0  0  0  0  0  0  0  0  0
   61.2143   25.2757   46.7351 H   0  0  0  0  0  0  0  0  0  0  0  0
   61.4276   27.5273   45.6863 H   0  0  0  0  0  0  0  0  0  0  0  0
   60.4193   29.5224   44.9488 H   0  0  0  0  0  0  0  0  0  0  0  0
   59.2693   29.0355   43.6445 H   0  0  0  0  0  0  0  0  0  0  0  0
   60.1053   29.6829   47.3300 H   0  0  0  0  0  0  0  0  0  0  0  0
   60.6687   31.3171   49.1134 H   0  0  0  0  0  0  0  0  0  0  0  0
   59.5874   33.5590   49.1454 H   0  0  0  0  0  0  0  0  0  0  0  0
   57.9089   34.1603   47.4144 H   0  0  0  0  0  0  0  0  0  0  0  0
   57.1320   27.6738   45.1394 H   0  0  0  0  0  0  0  0  0  0  0  0
  1  2  1  0
  2  3  2  0
  2  4  2  0
  2  5  1  0
  5  6  2  0
  6  7  1  0
  7  8  2  0
  8  9  1  0
  9 10  1  0
 10 11  1  0
 11 12  1  0
 12 13  2  0
 13 14  1  0
 14 15  2  0
 15 16  1  0
 16 17  2  0
 17 18  1  0
 18 19  2  0
 18 20  1  0
 20 21  1  0
 21 22  2  0
 21 23  2  0
  9 24  2  0
 24  5  1  0
 21 11  1  0
 17 12  1  0
  1 25  1  0
  1 26  1  0
  6 27  1  0
  7 28  1  0
  8 29  1  0
 10 30  1  0
 10 31  1  0
 13 32  1  0
 14 33  1  0
 15 34  1  0
 16 35  1  0
 24 36  1  0
M  CHG  1  20  -1
M  END
>  <UniqueID>  (8) 
7

>  <SMILES>  (8) 
NS(=O)(=O)c1cccc(CN2c3ccccc3C(=O)[N-]S2(=O)=O)c1

>  <Energy>  (8) 
46.73830102073761

>  <Genealogy>  (8) 
NS(=O)(=O)c1cccc(CN2c3ccccc3C(=O)[N-]S2(=O)=O)c1 (protonated)
NS(=O)(=O)c1cccc(CN2c3ccccc3C(=O)[N-]S2(=O)=O)c1 (3D coordinates assigned)
NS(=O)(=O)c1cccc(CN2c3ccccc3C(=O)[N-]S2(=O)=O)c1 (nonaromatic ring conformer: 46.73830102073761 kcal/mol)

>  <smiles>  (8) 
NS(=O)(=O)c1cccc(CN2c3ccccc3C(=O)NS2(=O)=O)c1

>  <score_type>  (8) 
oracle

>  <origin>  (8) 
adg

>  <m_score__min__energy>  (8) 
-10.32

>  <m_primary>  (8) 
energy

$$$$
8:0
     RDKit          3D

 50 53  0  0  0  0  0  0  0  0999 V2000
   53.5290   28.1890   52.7510 C   0  0  0  0  0  0  0  0  0  0  0  0
   54.4430   29.1600   52.7020 C   0  0  0  0  0  0  0  0  0  0  0  0
   55.7250   28.9050   52.8340 O   0  0  0  0  0  0  0  0  0  0  0  0
   56.4100   30.0070   52.6290 C   0  0  0  0  0  0  0  0  0  0  0  0
   57.8860   30.1200   52.6830 C   0  0  0  0  0  0  0  0  0  0  0  0
   58.5060   29.3220   53.4390 O   0  0  0  0  0  0  0  0  0  0  0  0
   58.6320   31.0920   51.9040 N   0  0  0  0  0  0  0  0  0  0  0  0
   57.9760   31.9020   50.8620 C   0  0  0  0  0  0  0  0  0  0  0  0
   58.9730   32.7630   50.0700 C   0  0  0  0  0  0  0  0  0  0  0  0
   60.1840   31.9940   49.7430 N   0  0  0  0  0  0  0  0  0  0  0  0
   60.8490   32.1410   48.4710 C   0  0  0  0  0  0  0  0  0  0  0  0
   61.5830   31.2050   48.0470 O   0  0  0  0  0  0  0  0  0  0  0  0
   60.6570   33.3680   47.6160 C   0  0  0  0  0  0  0  0  0  0  0  0
   59.4780   33.2110   46.6910 C   0  0  0  0  0  0  0  0  0  0  0  0
   59.0940   31.9340   46.2460 C   0  0  0  0  0  0  0  0  0  0  0  0
   57.9790   31.7820   45.4170 C   0  0  0  0  0  0  0  0  0  0  0  0
   57.2340   32.9010   45.0340 C   0  0  0  0  0  0  0  0  0  0  0  0
   57.6020   34.1740   45.4820 C   0  0  0  0  0  0  0  0  0  0  0  0
   58.7180   34.3300   46.3100 C   0  0  0  0  0  0  0  0  0  0  0  0
   60.8010   31.1290   50.7590 C   0  0  0  0  0  0  0  0  0  0  0  0
   60.0810   31.2440   52.1030 C   0  0  0  0  0  0  0  0  0  0  0  0
   55.5430   31.0470   52.3470 C   0  0  0  0  0  0  0  0  0  0  0  0
   54.2650   30.5240   52.4330 C   0  0  0  0  0  0  0  0  0  0  0  0
   53.1520   31.2680   52.2870 C   0  0  0  0  0  0  0  0  0  0  0  0
   52.3300   31.3510   51.0690 C   0  0  0  0  0  0  0  0  0  0  0  0
   52.2930   30.4120   50.1040 N   0  0  0  0  0  0  0  0  0  0  0  0
   51.3120   30.8490   49.2840 C   0  0  0  0  0  0  0  0  0  0  0  0
   50.9830   30.2360   48.2350 O   0  0  0  0  0  0  0  0  0  0  0  0
   50.7040   31.9860   49.6830 N   0  0  0  0  0  0  0  0  0  0  0  0
   51.3510   32.2800   50.8230 C   0  0  0  0  0  0  0  0  0  0  0  0
   51.0470   33.3730   51.6240 O   0  0  0  0  0  0  0  0  0  0  0  0
   52.4621   28.4317   52.6374 H   0  0  0  0  0  0  0  0  0  0  0  0
   53.8424   27.1459   52.9050 H   0  0  0  0  0  0  0  0  0  0  0  0
   57.4602   31.2270   50.1632 H   0  0  0  0  0  0  0  0  0  0  0  0
   57.2711   32.5823   51.3623 H   0  0  0  0  0  0  0  0  0  0  0  0
   58.4970   33.0997   49.1373 H   0  0  0  0  0  0  0  0  0  0  0  0
   59.2603   33.6269   50.6873 H   0  0  0  0  0  0  0  0  0  0  0  0
   60.4871   34.2368   48.2689 H   0  0  0  0  0  0  0  0  0  0  0  0
   61.5609   33.5111   47.0056 H   0  0  0  0  0  0  0  0  0  0  0  0
   59.6736   31.0505   46.5516 H   0  0  0  0  0  0  0  0  0  0  0  0
   57.6876   30.7812   45.0658 H   0  0  0  0  0  0  0  0  0  0  0  0
   56.3578   32.7805   44.3799 H   0  0  0  0  0  0  0  0  0  0  0  0
   57.0128   35.0533   45.1826 H   0  0  0  0  0  0  0  0  0  0  0  0
   59.0019   35.3319   46.6643 H   0  0  0  0  0  0  0  0  0  0  0  0
   60.7539   30.0848   50.4162 H   0  0  0  0  0  0  0  0  0  0  0  0
   61.8445   31.4483   50.8974 H   0  0  0  0  0  0  0  0  0  0  0  0
   60.4418   30.4554   52.7797 H   0  0  0  0  0  0  0  0  0  0  0  0
   60.2866   32.2310   52.5429 H   0  0  0  0  0  0  0  0  0  0  0  0
   55.8155   32.0843   52.1028 H   0  0  0  0  0  0  0  0  0  0  0  0
   52.8295   31.8651   53.1527 H   0  0  0  0  0  0  0  0  0  0  0  0
  1  2  2  0
  2  3  1  0
  3  4  1  0
  4  5  1  0
  5  6  2  0
  5  7  1  0
  7  8  1  0
  8  9  1  0
  9 10  1  0
 10 11  1  0
 11 12  2  0
 11 13  1  0
 13 14  1  0
 14 15  2  0
 15 16  1  0
 16 17  2  0
 17 18  1  0
 18 19  2  0
 10 20  1  0
 20 21  1  0
  4 22  2  0
 22 23  1  0
 23 24  2  3
 24 25  1  0
 25 26  1  0
 26 27  1  0
 27 28  2  0
 27 29  1  0
 29 30  1  0
 30 31  1  0
 23  2  1  0
 30 25  2  0
 21  7  1  0
 19 14  1  0
  1 32  1  0
  1 33  1  0
  8 34  1  0
  8 35  1  0
  9 36  1  0
  9 37  1  0
 13 38  1  0
 13 39  1  0
 15 40  1  0
 16 41  1  0
 17 42  1  0
 18 43  1  0
 19 44  1  0
 20 45  1  0
 20 46  1  0
 21 47  1  0
 21 48  1  0
 22 49  1  0
 24 50  1  0
M  CHG  3  26  -1  29  -1  31  -1
M  END
>  <UniqueID>  (9) 
8

>  <SMILES>  (9) 
C=c1oc(C(=O)N2CCN(C(=O)Cc3ccccc3)CC2)cc1=Cc1[n-]c(=O)[n-]c1[O-]

>  <Energy>  (9) 
123.70406950862684

>  <Genealogy>  (9) 
C=c1oc(C(=O)N2CCN(C(=O)Cc3ccccc3)CC2)cc1=Cc1[n-]c(=O)[n-]c1[O-] (protonated)
C=c1oc(C(=O)N2CCN(C(=O)Cc3ccccc3)CC2)cc1=Cc1[n-]c(=O)[n-]c1[O-] (3D coordinates assigned)
C=c1oc(C(=O)N2CCN(C(=O)Cc3ccccc3)CC2)cc1=Cc1[n-]c(=O)[n-]c1[O-] (nonaromatic ring conformer: 123.70406950862684 kcal/mol)

>  <smiles>  (9) 
C=c1oc(C(=O)N2CCN(C(=O)Cc3ccccc3)CC2)cc1=Cc1[nH]c(=O)[nH]c1O

>  <score_type>  (9) 
oracle

>  <origin>  (9) 
adg

>  <m_score__min__energy>  (9) 
-18.280000000000001

>  <m_primary>  (9) 
energy

$$$$
9:0
     RDKit          3D

 46 48  0  0  0  0  0  0  0  0999 V2000
   61.5350   34.1100   49.1650 C   0  0  0  0  0  0  0  0  0  0  0  0
   60.5570   33.9350   48.0410 C   0  0  0  0  0  0  0  0  0  0  0  0
   59.2280   33.5740   48.3140 C   0  0  0  0  0  0  0  0  0  0  0  0
   58.3220   33.3810   47.2670 C   0  0  0  0  0  0  0  0  0  0  0  0
   58.7320   33.5300   45.9340 C   0  0  0  0  0  0  0  0  0  0  0  0
   57.7510   33.3100   44.8150 C   0  0  0  0  0  0  0  0  0  0  0  0
   56.6730   32.4200   45.2500 N   0  0  0  0  0  0  0  0  0  0  0  0
   56.8090   30.8560   44.5020 S   0  0  0  0  0  0  0  0  0  0  0  0
   57.5610   30.9920   43.2090 O   0  0  0  0  0  0  0  0  0  0  0  0
   55.4390   30.3130   44.2050 O   0  0  0  0  0  0  0  0  0  0  0  0
   57.6930   29.7570   45.5560 C   0  0  0  0  0  0  0  0  0  0  0  0
   58.7670   30.2440   46.3090 C   0  0  0  0  0  0  0  0  0  0  0  0
   59.4690   29.3920   47.1630 C   0  0  0  0  0  0  0  0  0  0  0  0
   59.1090   28.0450   47.2610 C   0  0  0  0  0  0  0  0  0  0  0  0
   58.0470   27.5390   46.4900 C   0  0  0  0  0  0  0  0  0  0  0  0
   57.6380   26.1660   46.5740 N   0  0  0  0  0  0  0  0  0  0  0  0
   56.7010   25.5070   45.7150 C   0  0  0  0  0  0  0  0  0  0  0  0
   55.5090   25.3200   46.0810 O   0  0  0  0  0  0  0  0  0  0  0  0
   57.1650   24.9550   44.4040 C   0  0  0  0  0  0  0  0  0  0  0  0
   57.1020   23.4970   44.4190 N   0  0  0  0  0  0  0  0  0  0  0  0
   58.1420   22.6060   44.8400 C   0  0  0  0  0  0  0  0  0  0  0  0
   59.1330   22.9700   45.5280 O   0  0  0  0  0  0  0  0  0  0  0  0
   57.9630   21.2670   44.3860 N   0  0  0  0  0  0  0  0  0  0  0  0
   56.7750   21.3240   43.6080 C   0  0  0  0  0  0  0  0  0  0  0  0
   56.2730   20.3390   43.0070 O   0  0  0  0  0  0  0  0  0  0  0  0
   56.2620   22.6800   43.6090 C   0  0  0  0  0  0  0  0  0  0  0  0
   55.2670   23.0990   42.9640 O   0  0  0  0  0  0  0  0  0  0  0  0
   57.3310   28.4060   45.6580 C   0  0  0  0  0  0  0  0  0  0  0  0
   60.0670   33.8700   45.6610 C   0  0  0  0  0  0  0  0  0  0  0  0
   60.9760   34.0630   46.7070 C   0  0  0  0  0  0  0  0  0  0  0  0
   61.0091   34.0159   50.1266 H   0  0  0  0  0  0  0  0  0  0  0  0
   62.3147   33.3371   49.0963 H   0  0  0  0  0  0  0  0  0  0  0  0
   61.9983   35.1053   49.0963 H   0  0  0  0  0  0  0  0  0  0  0  0
   58.8985   33.4426   49.3552 H   0  0  0  0  0  0  0  0  0  0  0  0
   57.2795   33.1102   47.4903 H   0  0  0  0  0  0  0  0  0  0  0  0
   57.3230   34.2771   44.5127 H   0  0  0  0  0  0  0  0  0  0  0  0
   58.2755   32.8473   43.9660 H   0  0  0  0  0  0  0  0  0  0  0  0
   59.0589   31.3014   46.2277 H   0  0  0  0  0  0  0  0  0  0  0  0
   60.3070   29.7812   47.7599 H   0  0  0  0  0  0  0  0  0  0  0  0
   59.6577   27.3788   47.9430 H   0  0  0  0  0  0  0  0  0  0  0  0
   56.5196   25.3381   43.5998 H   0  0  0  0  0  0  0  0  0  0  0  0
   58.2057   25.2670   44.2319 H   0  0  0  0  0  0  0  0  0  0  0  0
   58.5840   20.4430   44.5490 H   0  0  0  0  0  0  0  0  0  0  0  0
   56.4769   28.0249   45.0789 H   0  0  0  0  0  0  0  0  0  0  0  0
   60.3999   33.9852   44.6189 H   0  0  0  0  0  0  0  0  0  0  0  0
   62.0229   34.3160   46.4834 H   0  0  0  0  0  0  0  0  0  0  0  0
  1  2  1  0
  2  3  2  0
  3  4  1  0
  4  5  2  0
  5  6  1  0
  6  7  1  0
  7  8  1  0
  8  9  2  0
  8 10  2  0
  8 11  1  0
 11 12  2  0
 12 13  1  0
 13 14  2  0
 14 15  1  0
 15 16  1  0
 16 17  1  0
 17 18  2  0
 17 19  1  0
 19 20  1  0
 20 21  1  0
 21 22  2  0
 21 23  1  0
 23 24  1  0
 24 25  2  0
 24 26  1  0
 26 27  2  0
 15 28  2  0
  5 29  1  0
 29 30  2  0
 30  2  1  0
 28 11  1  0
 26 20  1  0
  1 31  1  0
  1 32  1  0
  1 33  1  0
  3 34  1  0
  4 35  1  0
  6 36  1  0
  6 37  1  0
 12 38  1  0
 13 39  1  0
 14 40  1  0
 19 41  1  0
 19 42  1  0
 23 43  1  0
 28 44  1  0
 29 45  1  0
 30 46  1  0
M  CHG  2   7  -1  16  -1
M  END
>  <UniqueID>  (10) 
9

>  <SMILES>  (10) 
Cc1ccc(C[N-]S(=O)(=O)c2cccc([N-]C(=O)CN3C(=O)NC(=O)C3=O)c2)cc1

>  <Energy>  (10) 
76.89066719747485

>  <Genealogy>  (10) 
Cc1ccc(C[N-]S(=O)(=O)c2cccc([N-]C(=O)CN3C(=O)NC(=O)C3=O)c2)cc1 (protonated)
Cc1ccc(C[N-]S(=O)(=O)c2cccc([N-]C(=O)CN3C(=O)NC(=O)C3=O)c2)cc1 (3D coordinates assigned)
Cc1ccc(C[N-]S(=O)(=O)c2cccc([N-]C(=O)CN3C(=O)NC(=O)C3=O)c2)cc1 (nonaromatic ring conformer: 76.89066719747485 kcal/mol)

>  <smiles>  (10) 
Cc1ccc(CNS(=O)(=O)c2cccc(NC(=O)CN3C(=O)NC(=O)C3=O)c2)cc1

>  <score_type>  (10) 
oracle

>  <origin>  (10) 
adg

>  <m_score__min__energy>  (10) 
-13.539999999999999

>  <m_primary>  (10) 
energy

$$$$
10:0
     RDKit          3D

 51 54  0  0  0  0  0  0  0  0999 V2000
   64.2950   31.2650   50.7220 O   0  0  0  0  0  0  0  0  0  0  0  0
   63.1320   31.3640   50.2500 C   0  0  0  0  0  0  0  0  0  0  0  0
   62.0880   30.5750   50.8360 N   0  0  0  0  0  0  0  0  0  0  0  0
   60.9360   30.0460   50.1640 C   0  0  0  0  0  0  0  0  0  0  0  0
   59.6830   30.6230   50.4130 C   0  0  0  0  0  0  0  0  0  0  0  0
   58.5430   30.1490   49.7560 C   0  0  0  0  0  0  0  0  0  0  0  0
   58.6500   29.1050   48.8320 C   0  0  0  0  0  0  0  0  0  0  0  0
   59.8980   28.5380   48.5630 C   0  0  0  0  0  0  0  0  0  0  0  0
   61.0400   29.0090   49.2180 C   0  0  0  0  0  0  0  0  0  0  0  0
   62.9000   32.2320   49.0680 C   0  0  0  0  0  0  0  0  0  0  0  0
   63.9530   32.5610   48.2010 C   0  0  0  0  0  0  0  0  0  0  0  0
   63.7320   33.4020   47.1090 C   0  0  0  0  0  0  0  0  0  0  0  0
   62.4640   33.9380   46.8790 C   0  0  0  0  0  0  0  0  0  0  0  0
   61.3970   33.6350   47.7420 C   0  0  0  0  0  0  0  0  0  0  0  0
   60.0530   34.2130   47.5060 C   0  0  0  0  0  0  0  0  0  0  0  0
   59.4680   34.8490   48.4260 O   0  0  0  0  0  0  0  0  0  0  0  0
   59.4450   34.1020   46.2100 N   0  0  0  0  0  0  0  0  0  0  0  0
   58.6830   32.9920   45.7120 C   0  0  0  0  0  0  0  0  0  0  0  0
   57.3620   33.1360   45.2580 C   0  0  0  0  0  0  0  0  0  0  0  0
   56.6450   32.0230   44.8060 C   0  0  0  0  0  0  0  0  0  0  0  0
   57.2370   30.7490   44.8000 C   0  0  0  0  0  0  0  0  0  0  0  0
   56.4740   29.5740   44.3230 C   0  0  0  0  0  0  0  0  0  0  0  0
   56.2690   29.4270   43.0880 O   0  0  0  0  0  0  0  0  0  0  0  0
   55.9100   28.6180   45.2320 N   0  0  0  0  0  0  0  0  0  0  0  0
   56.5800   27.4640   45.7620 C   0  0  0  0  0  0  0  0  0  0  0  0
   57.9810   27.4270   45.8920 C   0  0  0  0  0  0  0  0  0  0  0  0
   58.6110   26.2830   46.3900 C   0  0  0  0  0  0  0  0  0  0  0  0
   57.8540   25.1650   46.7480 C   0  0  0  0  0  0  0  0  0  0  0  0
   56.4640   25.1870   46.6040 C   0  0  0  0  0  0  0  0  0  0  0  0
   55.8270   26.3300   46.1050 C   0  0  0  0  0  0  0  0  0  0  0  0
   54.4430   26.3380   45.9630 O   0  0  0  0  0  0  0  0  0  0  0  0
   58.5480   30.6050   45.2850 C   0  0  0  0  0  0  0  0  0  0  0  0
   59.2600   31.7180   45.7400 C   0  0  0  0  0  0  0  0  0  0  0  0
   61.6250   32.7790   48.8350 C   0  0  0  0  0  0  0  0  0  0  0  0
   59.5959   31.4533   51.1292 H   0  0  0  0  0  0  0  0  0  0  0  0
   57.5611   30.5980   49.9664 H   0  0  0  0  0  0  0  0  0  0  0  0
   57.7526   28.7307   48.3176 H   0  0  0  0  0  0  0  0  0  0  0  0
   59.9825   27.7187   47.8339 H   0  0  0  0  0  0  0  0  0  0  0  0
   62.0223   28.5679   48.9934 H   0  0  0  0  0  0  0  0  0  0  0  0
   64.9586   32.1538   48.3829 H   0  0  0  0  0  0  0  0  0  0  0  0
   64.5606   33.6433   46.4270 H   0  0  0  0  0  0  0  0  0  0  0  0
   62.2989   34.6014   46.0173 H   0  0  0  0  0  0  0  0  0  0  0  0
   56.8886   34.1289   45.2578 H   0  0  0  0  0  0  0  0  0  0  0  0
   55.6105   32.1463   44.4529 H   0  0  0  0  0  0  0  0  0  0  0  0
   58.5820   28.3011   45.6008 H   0  0  0  0  0  0  0  0  0  0  0  0
   59.7053   26.2631   46.5002 H   0  0  0  0  0  0  0  0  0  0  0  0
   58.3519   24.2673   47.1433 H   0  0  0  0  0  0  0  0  0  0  0  0
   55.8692   24.3048   46.8832 H   0  0  0  0  0  0  0  0  0  0  0  0
   59.0166   29.6101   45.3066 H   0  0  0  0  0  0  0  0  0  0  0  0
   60.2831   31.5912   46.1235 H   0  0  0  0  0  0  0  0  0  0  0  0
   60.7962   32.5344   49.5157 H   0  0  0  0  0  0  0  0  0  0  0  0
  1  2  2  0
  2  3  1  0
  3  4  1  0
  4  5  2  0
  5  6  1  0
  6  7  2  0
  7  8  1  0
  8  9  2  0
  2 10  1  0
 10 11  2  0
 11 12  1  0
 12 13  2  0
 13 14  1  0
 14 15  1  0
 15 16  2  0
 15 17  1  0
 17 18  1  0
 18 19  2  0
 19 20  1  0
 20 21  2  0
 21 22  1  0
 22 23  2  0
 22 24  1  0
 24 25  1  0
 25 26  2  0
 26 27  1  0
 27 28  2  0
 28 29  1  0
 29 30  2  0
 30 31  1  0
 21 32  1  0
 32 33  2  0
 14 34  2  0
  9  4  1  0
 34 10  1  0
 33 18  1  0
 30 25  1  0
  5 35  1  0
  6 36  1  0
  7 37  1  0
  8 38  1  0
  9 39  1  0
 11 40  1  0
 12 41  1  0
 13 42  1  0
 19 43  1  0
 20 44  1  0
 26 45  1  0
 27 46  1  0
 28 47  1  0
 29 48  1  0
 32 49  1  0
 33 50  1  0
 34 51  1  0
M  CHG  4   3  -1  17  -1  24  -1  31  -1
M  END
>  <UniqueID>  (11) 
10

>  <SMILES>  (11) 
O=C([N-]c1ccccc1)c1cccc(C(=O)[N-]c2ccc(C(=O)[N-]c3ccccc3[O-])cc2)c1

>  <Energy>  (11) 
75.09453403171655

>  <Genealogy>  (11) 
O=C([N-]c1ccccc1)c1cccc(C(=O)[N-]c2ccc(C(=O)[N-]c3ccccc3[O-])cc2)c1 (protonated)
O=C([N-]c1ccccc1)c1cccc(C(=O)[N-]c2ccc(C(=O)[N-]c3ccccc3[O-])cc2)c1 (3D coordinates assigned)
O=C([N-]c1ccccc1)c1cccc(C(=O)[N-]c2ccc(C(=O)[N-]c3ccccc3[O-])cc2)c1 (optimized conformer: 75.09453403171655 kcal/mol)

>  <smiles>  (11) 
O=C(Nc1ccccc1)c1cccc(C(=O)Nc2ccc(C(=O)Nc3ccccc3O)cc2)c1

>  <score_type>  (11) 
oracle

>  <origin>  (11) 
adg

>  <m_score__min__energy>  (11) 
-16.98

>  <m_primary>  (11) 
energy

$$$$
11:0
     RDKit          3D

 67 71  0  0  0  0  0  0  0  0999 V2000
   62.3740   30.3510   50.4610 C   0  0  0  0  0  0  0  0  0  0  0  0
   62.9450   31.7270   50.6910 C   0  0  0  0  0  0  0  0  0  0  0  0
   62.8620   32.2430   51.9970 C   0  0  0  0  0  0  0  0  0  0  0  0
   63.3520   33.5100   52.3010 C   0  0  0  0  0  0  0  0  0  0  0  0
   63.9240   34.2920   51.3030 C   0  0  0  0  0  0  0  0  0  0  0  0
   64.0300   33.7980   50.0040 C   0  0  0  0  0  0  0  0  0  0  0  0
   63.5870   32.4990   49.6770 C   0  0  0  0  0  0  0  0  0  0  0  0
   63.7750   32.0310   48.2380 C   0  0  0  0  0  0  0  0  0  0  0  0
   62.5770   32.1860   47.3790 N   0  0  0  0  0  0  0  0  0  0  0  0
   61.5980   31.0760   47.4560 C   0  0  0  0  0  0  0  0  0  0  0  0
   60.2750   31.4580   46.7910 C   0  0  0  0  0  0  0  0  0  0  0  0
   59.6270   32.6350   47.5600 C   0  0  0  0  0  0  0  0  0  0  0  0
   58.5400   33.3160   46.7650 C   0  0  0  0  0  0  0  0  0  0  0  0
   58.5500   34.5750   46.6700 O   0  0  0  0  0  0  0  0  0  0  0  0
   57.5010   32.5530   46.1350 N   0  0  0  0  0  0  0  0  0  0  0  0
   57.4790   32.1480   44.7610 C   0  0  0  0  0  0  0  0  0  0  0  0
   57.8680   33.0340   43.7400 C   0  0  0  0  0  0  0  0  0  0  0  0
   57.7940   32.6420   42.4020 C   0  0  0  0  0  0  0  0  0  0  0  0
   57.3230   31.3700   42.0700 C   0  0  0  0  0  0  0  0  0  0  0  0
   56.9500   30.4780   43.0780 C   0  0  0  0  0  0  0  0  0  0  0  0
   57.0430   30.8500   44.4250 C   0  0  0  0  0  0  0  0  0  0  0  0
   56.6510   29.9330   45.4090 O   0  0  0  0  0  0  0  0  0  0  0  0
   57.2760   28.6960   45.6270 C   0  0  0  0  0  0  0  0  0  0  0  0
   58.6490   28.6680   45.8910 C   0  0  0  0  0  0  0  0  0  0  0  0
   59.2970   27.4500   46.1170 C   0  0  0  0  0  0  0  0  0  0  0  0
   58.5740   26.2540   46.0970 C   0  0  0  0  0  0  0  0  0  0  0  0
   57.1930   26.2660   45.8380 C   0  0  0  0  0  0  0  0  0  0  0  0
   56.4020   25.0180   45.8510 C   0  0  0  0  0  0  0  0  0  0  0  0
   55.2150   25.0490   46.2710 O   0  0  0  0  0  0  0  0  0  0  0  0
   56.9220   23.7780   45.3630 N   0  0  0  0  0  0  0  0  0  0  0  0
   56.1780   22.8540   44.5190 C   0  0  0  0  0  0  0  0  0  0  0  0
   56.2630   23.1660   43.0360 C   0  0  0  0  0  0  0  0  0  0  0  0
   57.0960   22.0380   43.6260 C   0  0  0  0  0  0  0  0  0  0  0  0
   56.5480   27.4930   45.6130 C   0  0  0  0  0  0  0  0  0  0  0  0
   60.6770   33.6600   48.0700 C   0  0  0  0  0  0  0  0  0  0  0  0
   62.0070   33.5510   47.3130 C   0  0  0  0  0  0  0  0  0  0  0  0
   62.1745   29.8701   51.4300 H   0  0  0  0  0  0  0  0  0  0  0  0
   61.4359   30.4336   49.8926 H   0  0  0  0  0  0  0  0  0  0  0  0
   63.0950   29.7451   49.8926 H   0  0  0  0  0  0  0  0  0  0  0  0
   62.4026   31.6356   52.7907 H   0  0  0  0  0  0  0  0  0  0  0  0
   63.2869   33.8927   53.3302 H   0  0  0  0  0  0  0  0  0  0  0  0
   64.2930   35.3010   51.5391 H   0  0  0  0  0  0  0  0  0  0  0  0
   64.4672   34.4327   49.2191 H   0  0  0  0  0  0  0  0  0  0  0  0
   64.5950   32.6129   47.7920 H   0  0  0  0  0  0  0  0  0  0  0  0
   63.9883   30.9529   48.2853 H   0  0  0  0  0  0  0  0  0  0  0  0
   62.0143   30.1945   46.9464 H   0  0  0  0  0  0  0  0  0  0  0  0
   61.4040   30.8557   48.5161 H   0  0  0  0  0  0  0  0  0  0  0  0
   60.4625   31.7601   45.7500 H   0  0  0  0  0  0  0  0  0  0  0  0
   59.5954   30.5932   46.8072 H   0  0  0  0  0  0  0  0  0  0  0  0
   59.1506   32.1884   48.4452 H   0  0  0  0  0  0  0  0  0  0  0  0
   58.2320   34.0398   43.9968 H   0  0  0  0  0  0  0  0  0  0  0  0
   58.1072   33.3361   41.6082 H   0  0  0  0  0  0  0  0  0  0  0  0
   57.2457   31.0705   41.0144 H   0  0  0  0  0  0  0  0  0  0  0  0
   56.5807   29.4765   42.8121 H   0  0  0  0  0  0  0  0  0  0  0  0
   59.2209   29.6072   45.9209 H   0  0  0  0  0  0  0  0  0  0  0  0
   60.3796   27.4329   46.3112 H   0  0  0  0  0  0  0  0  0  0  0  0
   59.0880   25.2998   46.2847 H   0  0  0  0  0  0  0  0  0  0  0  0
   55.3522   22.6405   45.2136 H   0  0  0  0  0  0  0  0  0  0  0  0
   55.4139   22.9356   42.3758 H   0  0  0  0  0  0  0  0  0  0  0  0
   56.4810   24.0654   42.4413 H   0  0  0  0  0  0  0  0  0  0  0  0
   56.8493   20.9917   43.3928 H   0  0  0  0  0  0  0  0  0  0  0  0
   58.1661   21.7833   43.6352 H   0  0  0  0  0  0  0  0  0  0  0  0
   55.4645   27.5132   45.4243 H   0  0  0  0  0  0  0  0  0  0  0  0
   60.2752   34.6752   47.9363 H   0  0  0  0  0  0  0  0  0  0  0  0
   60.8729   33.4440   49.1306 H   0  0  0  0  0  0  0  0  0  0  0  0
   61.8371   33.8135   46.2584 H   0  0  0  0  0  0  0  0  0  0  0  0
   62.7227   34.2394   47.7862 H   0  0  0  0  0  0  0  0  0  0  0  0
  1  2  1  0
  2  3  2  0
  3  4  1  0
  4  5  2  0
  5  6  1  0
  6  7  2  0
  7  8  1  0
  8  9  1  0
  9 10  1  0
 10 11  1  0
 11 12  1  0
 12 13  1  0
 13 14  2  0
 13 15  1  0
 15 16  1  0
 16 17  2  0
 17 18  1  0
 18 19  2  0
 19 20  1  0
 20 21  2  0
 21 22  1  0
 22 23  1  0
 23 24  2  0
 24 25  1  0
 25 26  2  0
 26 27  1  0
 27 28  1  0
 28 29  2  0
 28 30  1  0
 30 31  1  0
 31 32  1  0
 32 33  1  0
 27 34  2  0
 12 35  1  0
 35 36  1  0
  7  2  1  0
 36  9  1  0
 21 16  1  0
 34 23  1  0
 33 31  1  0
  1 37  1  0
  1 38  1  0
  1 39  1  0
  3 40  1  0
  4 41  1  0
  5 42  1  0
  6 43  1  0
  8 44  1  0
  8 45  1  0
 10 46  1  0
 10 47  1  0
 11 48  1  0
 11 49  1  0
 12 50  1  0
 17 51  1  0
 18 52  1  0
 19 53  1  0
 20 54  1  0
 24 55  1  0
 25 56  1  0
 26 57  1  0
 31 58  1  0
 32 59  1  0
 32 60  1  0
 33 61  1  0
 33 62  1  0
 34 63  1  0
 35 64  1  0
 35 65  1  0
 36 66  1  0
 36 67  1  0
M  CHG  2  15  -1  30  -1
M  END
>  <UniqueID>  (12) 
11

>  <SMILES>  (12) 
Cc1ccccc1CN1CCC(C(=O)[N-]c2ccccc2Oc2cccc(C(=O)[N-]C3CC3)c2)CC1

>  <Energy>  (12) 
362.58441303856125

>  <Genealogy>  (12) 
Cc1ccccc1CN1CCC(C(=O)[N-]c2ccccc2Oc2cccc(C(=O)[N-]C3CC3)c2)CC1 (protonated)
Cc1ccccc1CN1CCC(C(=O)[N-]c2ccccc2Oc2cccc(C(=O)[N-]C3CC3)c2)CC1 (3D coordinates assigned)
Cc1ccccc1CN1CCC(C(=O)[N-]c2ccccc2Oc2cccc(C(=O)[N-]C3CC3)c2)CC1 (nonaromatic ring conformer: 362.58441303856125 kcal/mol)

>  <smiles>  (12) 
Cc1ccccc1CN1CCC(C(=O)Nc2ccccc2Oc2cccc(C(=O)NC3CC3)c2)CC1

>  <score_type>  (12) 
oracle

>  <origin>  (12) 
adg

>  <m_score__min__energy>  (12) 
-13.07

>  <m_primary>  (12) 
energy

$$$$
12:0
     RDKit          3D

 32 33  0  0  0  0  0  0  0  0999 V2000
   58.4810   32.4790   51.4250 C   0  0  0  0  0  0  0  0  0  0  0  0
   58.7600   32.2900   52.7170 C   0  0  0  0  0  0  0  0  0  0  0  0
   57.6840   32.2840   53.7690 C   0  0  0  0  0  0  0  0  0  0  0  0
   56.9240   31.0180   53.7310 N   0  0  0  0  0  0  0  0  0  0  0  0
   57.2700   29.9940   54.5730 C   0  0  0  0  0  0  0  0  0  0  0  0
   58.2110   30.1300   55.4010 O   0  0  0  0  0  0  0  0  0  0  0  0
   56.6050   28.8150   54.5270 N   0  0  0  0  0  0  0  0  0  0  0  0
   55.5910   28.5940   53.6580 C   0  0  0  0  0  0  0  0  0  0  0  0
   54.9710   27.3430   53.6800 O   0  0  0  0  0  0  0  0  0  0  0  0
   55.2020   29.6170   52.7700 C   0  0  0  0  0  0  0  0  0  0  0  0
   54.1020   29.4050   51.7460 C   0  0  0  0  0  0  0  0  0  0  0  0
   53.0070   30.4330   51.8970 C   0  0  0  0  0  0  0  0  0  0  0  0
   52.6810   30.9490   53.1630 C   0  0  0  0  0  0  0  0  0  0  0  0
   51.6740   31.9080   53.2980 C   0  0  0  0  0  0  0  0  0  0  0  0
   50.9880   32.3700   52.1710 C   0  0  0  0  0  0  0  0  0  0  0  0
   49.9860   33.3230   52.3130 O   0  0  0  0  0  0  0  0  0  0  0  0
   51.3150   31.8740   50.9030 C   0  0  0  0  0  0  0  0  0  0  0  0
   50.6400   32.3340   49.7780 O   0  0  0  0  0  0  0  0  0  0  0  0
   52.3230   30.9140   50.7660 C   0  0  0  0  0  0  0  0  0  0  0  0
   55.9040   30.8390   52.8280 C   0  0  0  0  0  0  0  0  0  0  0  0
   55.5880   31.7740   52.0380 O   0  0  0  0  0  0  0  0  0  0  0  0
   59.2916   32.4776   50.6814 H   0  0  0  0  0  0  0  0  0  0  0  0
   57.4406   32.6361   51.1043 H   0  0  0  0  0  0  0  0  0  0  0  0
   59.8057   32.1343   53.0209 H   0  0  0  0  0  0  0  0  0  0  0  0
   58.1474   32.3974   54.7602 H   0  0  0  0  0  0  0  0  0  0  0  0
   56.9932   33.1173   53.5732 H   0  0  0  0  0  0  0  0  0  0  0  0
   54.7340   26.8500   54.5290 H   0  0  0  0  0  0  0  0  0  0  0  0
   54.5318   29.4848   50.7366 H   0  0  0  0  0  0  0  0  0  0  0  0
   53.6664   28.4076   51.9056 H   0  0  0  0  0  0  0  0  0  0  0  0
   53.2221   30.5956   54.0531 H   0  0  0  0  0  0  0  0  0  0  0  0
   51.4203   32.3006   54.2938 H   0  0  0  0  0  0  0  0  0  0  0  0
   52.5825   30.5327   49.7673 H   0  0  0  0  0  0  0  0  0  0  0  0
  1  2  2  0
  2  3  1  0
  3  4  1  0
  4  5  1  0
  5  6  2  0
  5  7  1  0
  7  8  1  0
  8  9  1  0
  8 10  2  0
 10 11  1  0
 11 12  1  0
 12 13  2  0
 13 14  1  0
 14 15  2  0
 15 16  1  0
 15 17  1  0
 17 18  1  0
 17 19  2  0
 10 20  1  0
 20 21  2  0
 20  4  1  0
 19 12  1  0
  1 22  1  0
  1 23  1  0
  2 24  1  0
  3 25  1  0
  3 26  1  0
  9 27  1  0
 11 28  1  0
 11 29  1  0
 13 30  1  0
 14 31  1  0
 19 32  1  0
M  CHG  3   7  -1  16  -1  18  -1
M  END
>  <UniqueID>  (13) 
12

>  <SMILES>  (13) 
C=CCn1c(=O)[n-]c(O)c(Cc2ccc([O-])c([O-])c2)c1=O

>  <Energy>  (13) 
36.56707131235153

>  <Genealogy>  (13) 
C=CCn1c(=O)[n-]c(O)c(Cc2ccc([O-])c([O-])c2)c1=O (protonated)
C=CCn1c(=O)[n-]c(O)c(Cc2ccc([O-])c([O-])c2)c1=O (3D coordinates assigned)
C=CCn1c(=O)[n-]c(O)c(Cc2ccc([O-])c([O-])c2)c1=O (optimized conformer: 36.56707131235153 kcal/mol)

>  <smiles>  (13) 
C=CCn1c(=O)[nH]c(O)c(Cc2ccc(O)c(O)c2)c1=O

>  <score_type>  (13) 
oracle

>  <origin>  (13) 
adg

>  <m_score__min__energy>  (13) 
-15.65

>  <m_primary>  (13) 
energy

$$$$
13:0
     RDKit          3D

 82 86  0  0  0  0  0  0  0  0999 V2000
   57.8810   30.1260   52.8310 C   0  0  0  0  0  0  0  0  0  0  0  0
   59.1290   29.3180   52.4830 C   0  0  0  0  0  0  0  0  0  0  0  0
   59.6390   29.7000   51.1490 N   0  0  0  0  0  0  0  0  0  0  0  0
   60.3550   28.5900   50.4970 C   0  0  0  0  0  0  0  0  0  0  0  0
   61.1520   29.1530   49.3170 C   0  0  0  0  0  0  0  0  0  0  0  0
   60.4070   30.2200   48.6290 N   0  0  0  0  0  0  0  0  0  0  0  0
   61.1200   31.0680   47.6980 C   0  0  0  0  0  0  0  0  0  0  0  0
   62.3360   30.8420   47.4530 O   0  0  0  0  0  0  0  0  0  0  0  0
   60.4880   32.2340   47.0420 C   0  0  0  0  0  0  0  0  0  0  0  0
   59.2760   32.0680   46.3550 C   0  0  0  0  0  0  0  0  0  0  0  0
   58.6490   33.1650   45.7460 C   0  0  0  0  0  0  0  0  0  0  0  0
   57.3110   33.0150   45.1510 C   0  0  0  0  0  0  0  0  0  0  0  0
   56.6300   34.0380   44.8660 O   0  0  0  0  0  0  0  0  0  0  0  0
   56.8130   31.7070   44.8500 N   0  0  0  0  0  0  0  0  0  0  0  0
   57.4470   30.7980   43.9020 C   0  0  0  0  0  0  0  0  0  0  0  0
   57.7930   29.5150   44.5980 C   0  0  0  0  0  0  0  0  0  0  0  0
   59.1290   29.0920   44.6640 C   0  0  0  0  0  0  0  0  0  0  0  0
   59.4610   27.8970   45.3080 C   0  0  0  0  0  0  0  0  0  0  0  0
   58.4610   27.1120   45.9110 C   0  0  0  0  0  0  0  0  0  0  0  0
   58.7960   25.8160   46.5460 C   0  0  0  0  0  0  0  0  0  0  0  0
   58.6570   25.6820   47.7900 O   0  0  0  0  0  0  0  0  0  0  0  0
   59.1960   24.6770   45.7730 N   0  0  0  0  0  0  0  0  0  0  0  0
   58.3260   23.8540   44.9770 C   0  0  0  0  0  0  0  0  0  0  0  0
   57.1020   24.3530   44.4910 C   0  0  0  0  0  0  0  0  0  0  0  0
   56.2870   23.5630   43.6770 C   0  0  0  0  0  0  0  0  0  0  0  0
   56.6860   22.2700   43.3340 C   0  0  0  0  0  0  0  0  0  0  0  0
   57.8980   21.7640   43.8070 C   0  0  0  0  0  0  0  0  0  0  0  0
   58.7270   22.5480   44.6230 C   0  0  0  0  0  0  0  0  0  0  0  0
   59.9630   22.0020   45.1030 N   0  0  0  0  0  0  0  0  0  0  0  0
   57.1270   27.5540   45.8660 C   0  0  0  0  0  0  0  0  0  0  0  0
   56.7970   28.7500   45.2230 C   0  0  0  0  0  0  0  0  0  0  0  0
   59.2830   34.4170   45.7590 C   0  0  0  0  0  0  0  0  0  0  0  0
   60.5200   34.5750   46.3880 C   0  0  0  0  0  0  0  0  0  0  0  0
   61.1100   33.4990   47.0640 C   0  0  0  0  0  0  0  0  0  0  0  0
   62.5830   33.7820   48.0680 S   0  0  0  0  0  0  0  0  0  0  0  0
   61.7590   33.4150   49.6260 C   0  0  0  0  0  0  0  0  0  0  0  0
   60.4480   33.8670   49.8260 C   0  0  0  0  0  0  0  0  0  0  0  0
   59.7820   33.5900   51.0230 C   0  0  0  0  0  0  0  0  0  0  0  0
   60.4090   32.8190   52.0100 C   0  0  0  0  0  0  0  0  0  0  0  0
   61.6980   32.3150   51.7970 C   0  0  0  0  0  0  0  0  0  0  0  0
   62.3030   31.4880   52.7940 N   0  0  0  0  0  0  0  0  0  0  0  0
   62.7600   30.1500   52.5540 C   0  0  0  0  0  0  0  0  0  0  0  0
   63.8700   29.8600   51.5870 C   0  0  0  0  0  0  0  0  0  0  0  0
   62.1930   29.1960   53.1500 O   0  0  0  0  0  0  0  0  0  0  0  0
   62.3920   32.6540   50.6230 C   0  0  0  0  0  0  0  0  0  0  0  0
   58.9470   30.2960   48.8020 C   0  0  0  0  0  0  0  0  0  0  0  0
   58.5310   30.1560   50.2850 C   0  0  0  0  0  0  0  0  0  0  0  0
   57.7797   30.1916   53.9244 H   0  0  0  0  0  0  0  0  0  0  0  0
   57.9702   31.1382   52.4097 H   0  0  0  0  0  0  0  0  0  0  0  0
   56.9940   29.6303   52.4097 H   0  0  0  0  0  0  0  0  0  0  0  0
   59.9067   29.5110   53.2366 H   0  0  0  0  0  0  0  0  0  0  0  0
   58.8686   28.2493   52.4712 H   0  0  0  0  0  0  0  0  0  0  0  0
   61.0403   28.1173   51.2159 H   0  0  0  0  0  0  0  0  0  0  0  0
   59.6376   27.8355   50.1418 H   0  0  0  0  0  0  0  0  0  0  0  0
   62.1026   29.5625   49.6894 H   0  0  0  0  0  0  0  0  0  0  0  0
   61.3334   28.3385   48.6003 H   0  0  0  0  0  0  0  0  0  0  0  0
   58.8146   31.0713   46.2936 H   0  0  0  0  0  0  0  0  0  0  0  0
   56.7545   30.5907   43.0729 H   0  0  0  0  0  0  0  0  0  0  0  0
   58.3633   31.2602   43.5060 H   0  0  0  0  0  0  0  0  0  0  0  0
   59.9198   29.7045   44.2062 H   0  0  0  0  0  0  0  0  0  0  0  0
   60.5101   27.5682   45.3437 H   0  0  0  0  0  0  0  0  0  0  0  0
   56.7853   25.3729   44.7545 H   0  0  0  0  0  0  0  0  0  0  0  0
   55.3305   23.9598   43.3061 H   0  0  0  0  0  0  0  0  0  0  0  0
   56.0450   21.6495   42.6906 H   0  0  0  0  0  0  0  0  0  0  0  0
   58.2053   20.7427   43.5378 H   0  0  0  0  0  0  0  0  0  0  0  0
   60.0410   21.0000   45.3920 H   0  0  0  0  0  0  0  0  0  0  0  0
   60.8290   22.5910   45.1320 H   0  0  0  0  0  0  0  0  0  0  0  0
   56.3369   26.9536   46.3407 H   0  0  0  0  0  0  0  0  0  0  0  0
   55.7520   29.0930   45.2069 H   0  0  0  0  0  0  0  0  0  0  0  0
   58.8032   35.2783   45.2713 H   0  0  0  0  0  0  0  0  0  0  0  0
   61.0327   35.5475   46.3525 H   0  0  0  0  0  0  0  0  0  0  0  0
   59.9408   34.4423   49.0375 H   0  0  0  0  0  0  0  0  0  0  0  0
   58.7660   33.9772   51.1899 H   0  0  0  0  0  0  0  0  0  0  0  0
   59.8873   32.6088   52.9553 H   0  0  0  0  0  0  0  0  0  0  0  0
   64.7879   29.6202   52.1437 H   0  0  0  0  0  0  0  0  0  0  0  0
   63.5909   29.0046   50.9542 H   0  0  0  0  0  0  0  0  0  0  0  0
   64.0449   30.7426   50.9542 H   0  0  0  0  0  0  0  0  0  0  0  0
   63.4319   32.3232   50.4845 H   0  0  0  0  0  0  0  0  0  0  0  0
   58.5948   31.2673   48.4246 H   0  0  0  0  0  0  0  0  0  0  0  0
   58.4949   29.4639   48.2424 H   0  0  0  0  0  0  0  0  0  0  0  0
   58.1832   31.1350   50.6465 H   0  0  0  0  0  0  0  0  0  0  0  0
   57.7366   29.3968   50.3362 H   0  0  0  0  0  0  0  0  0  0  0  0
  1  2  1  0
  2  3  1  0
  3  4  1  0
  4  5  1  0
  5  6  1  0
  6  7  1  0
  7  8  2  0
  7  9  1  0
  9 10  2  0
 10 11  1  0
 11 12  1  0
 12 13  2  0
 12 14  1  0
 14 15  1  0
 15 16  1  0
 16 17  2  0
 17 18  1  0
 18 19  2  0
 19 20  1  0
 20 21  2  0
 20 22  1  0
 22 23  1  0
 23 24  2  0
 24 25  1  0
 25 26  2  0
 26 27  1  0
 27 28  2  0
 28 29  1  0
 19 30  1  0
 30 31  2  0
 11 32  2  0
 32 33  1  0
 33 34  2  0
 34 35  1  0
 35 36  1  0
 36 37  2  0
 37 38  1  0
 38 39  2  0
 39 40  1  0
 40 41  1  0
 41 42  1  0
 42 43  1  0
 42 44  2  0
 40 45  2  0
  6 46  1  0
 46 47  1  0
 47  3  1  0
 34  9  1  0
 45 36  1  0
 31 16  1  0
 28 23  1  0
  1 48  1  0
  1 49  1  0
  1 50  1  0
  2 51  1  0
  2 52  1  0
  4 53  1  0
  4 54  1  0
  5 55  1  0
  5 56  1  0
 10 57  1  0
 15 58  1  0
 15 59  1  0
 17 60  1  0
 18 61  1  0
 24 62  1  0
 25 63  1  0
 26 64  1  0
 27 65  1  0
 29 66  1  0
 29 67  1  0
 30 68  1  0
 31 69  1  0
 32 70  1  0
 33 71  1  0
 37 72  1  0
 38 73  1  0
 39 74  1  0
 43 75  1  0
 43 76  1  0
 43 77  1  0
 45 78  1  0
 46 79  1  0
 46 80  1  0
 47 81  1  0
 47 82  1  0
M  CHG  3  14  -1  22  -1  41  -1
M  END
>  <UniqueID>  (14) 
13

>  <SMILES>  (14) 
CCN1CCN(C(=O)c2cc(C(=O)[N-]Cc3ccc(C(=O)[N-]c4ccccc4N)cc3)ccc2Sc2cccc([N-]C(C)=O)c2)CC1

>  <Energy>  (14) 
105.94732855339377

>  <Genealogy>  (14) 
CCN1CCN(C(=O)c2cc(C(=O)[N-]Cc3ccc(C(=O)[N-]c4ccccc4N)cc3)ccc2Sc2cccc([N-]C(C)=O)c2)CC1 (protonated)
CCN1CCN(C(=O)c2cc(C(=O)[N-]Cc3ccc(C(=O)[N-]c4ccccc4N)cc3)ccc2Sc2cccc([N-]C(C)=O)c2)CC1 (3D coordinates assigned)
CCN1CCN(C(=O)c2cc(C(=O)[N-]Cc3ccc(C(=O)[N-]c4ccccc4N)cc3)ccc2Sc2cccc([N-]C(C)=O)c2)CC1 (nonaromatic ring conformer: 105.94732855339377 kcal/mol)

>  <smiles>  (14) 
CCN1CCN(C(=O)c2cc(C(=O)NCc3ccc(C(=O)Nc4ccccc4N)cc3)ccc2Sc2cccc(NC(C)=O)c2)CC1

>  <score_type>  (14) 
oracle

>  <origin>  (14) 
adg

>  <m_score__min__energy>  (14) 
-14.52

>  <m_primary>  (14) 
energy

$$$$
14:0
     RDKit          3D

 46 49  0  0  0  0  0  0  0  0999 V2000
   55.7570   29.9630   44.7470 O   0  0  0  0  0  0  0  0  0  0  0  0
   56.9440   29.5960   44.9540 C   0  0  0  0  0  0  0  0  0  0  0  0
   58.0150   30.4570   44.5460 N   0  0  0  0  0  0  0  0  0  0  0  0
   58.1660   31.8140   44.9890 C   0  0  0  0  0  0  0  0  0  0  0  0
   57.4160   32.8250   44.3700 C   0  0  0  0  0  0  0  0  0  0  0  0
   57.4890   34.1380   44.8440 C   0  0  0  0  0  0  0  0  0  0  0  0
   58.3310   34.4530   45.9140 C   0  0  0  0  0  0  0  0  0  0  0  0
   59.1340   33.4600   46.4950 C   0  0  0  0  0  0  0  0  0  0  0  0
   60.1140   33.8200   47.5370 C   0  0  0  0  0  0  0  0  0  0  0  0
   59.8460   34.8030   48.2780 O   0  0  0  0  0  0  0  0  0  0  0  0
   61.3130   33.0150   47.7500 N   0  0  0  0  0  0  0  0  0  0  0  0
   61.8390   33.0970   49.1440 C   0  0  0  0  0  0  0  0  0  0  0  0
   62.9710   34.1350   49.2590 C   0  0  0  0  0  0  0  0  0  0  0  0
   64.0910   33.8410   48.4300 O   0  0  0  0  0  0  0  0  0  0  0  0
   63.7670   33.0660   47.2820 C   0  0  0  0  0  0  0  0  0  0  0  0
   62.3550   33.3640   46.7510 C   0  0  0  0  0  0  0  0  0  0  0  0
   59.0420   32.1380   46.0390 C   0  0  0  0  0  0  0  0  0  0  0  0
   57.2030   28.3580   45.7270 C   0  0  0  0  0  0  0  0  0  0  0  0
   56.2800   27.3050   45.6210 C   0  0  0  0  0  0  0  0  0  0  0  0
   56.4920   26.1110   46.3140 C   0  0  0  0  0  0  0  0  0  0  0  0
   55.6560   25.1740   46.2290 O   0  0  0  0  0  0  0  0  0  0  0  0
   57.5960   25.9560   47.0890 N   0  0  0  0  0  0  0  0  0  0  0  0
   58.5200   26.9460   47.2210 C   0  0  0  0  0  0  0  0  0  0  0  0
   59.6370   26.7370   48.0420 C   0  0  0  0  0  0  0  0  0  0  0  0
   60.5790   27.7510   48.2150 C   0  0  0  0  0  0  0  0  0  0  0  0
   60.3990   28.9870   47.5880 C   0  0  0  0  0  0  0  0  0  0  0  0
   59.2930   29.2080   46.7590 C   0  0  0  0  0  0  0  0  0  0  0  0
   58.3440   28.1850   46.5510 C   0  0  0  0  0  0  0  0  0  0  0  0
   56.7708   32.5847   43.5121 H   0  0  0  0  0  0  0  0  0  0  0  0
   56.8820   34.9255   44.3735 H   0  0  0  0  0  0  0  0  0  0  0  0
   58.3642   35.4819   46.3016 H   0  0  0  0  0  0  0  0  0  0  0  0
   61.0380   32.0150   47.5810 H   0  0  0  0  0  0  0  0  0  0  0  0
   61.0197   33.3852   49.8190 H   0  0  0  0  0  0  0  0  0  0  0  0
   62.2442   32.1120   49.4189 H   0  0  0  0  0  0  0  0  0  0  0  0
   62.5727   35.1193   48.9717 H   0  0  0  0  0  0  0  0  0  0  0  0
   63.3235   34.1187   50.3009 H   0  0  0  0  0  0  0  0  0  0  0  0
   64.4964   33.2878   46.4890 H   0  0  0  0  0  0  0  0  0  0  0  0
   63.7979   32.0060   47.5742 H   0  0  0  0  0  0  0  0  0  0  0  0
   62.2803   34.4360   46.5162 H   0  0  0  0  0  0  0  0  0  0  0  0
   62.1887   32.7536   45.8512 H   0  0  0  0  0  0  0  0  0  0  0  0
   59.6564   31.3528   46.5037 H   0  0  0  0  0  0  0  0  0  0  0  0
   55.3866   27.4209   44.9898 H   0  0  0  0  0  0  0  0  0  0  0  0
   59.7709   25.7711   48.5509 H   0  0  0  0  0  0  0  0  0  0  0  0
   61.4638   27.5778   48.8451 H   0  0  0  0  0  0  0  0  0  0  0  0
   61.1317   29.7919   47.7471 H   0  0  0  0  0  0  0  0  0  0  0  0
   59.1632   30.1835   46.2676 H   0  0  0  0  0  0  0  0  0  0  0  0
  1  2  2  0
  2  3  1  0
  3  4  1  0
  4  5  2  0
  5  6  1  0
  6  7  2  0
  7  8  1  0
  8  9  1  0
  9 10  2  0
  9 11  1  0
 11 12  1  0
 12 13  1  0
 13 14  1  0
 14 15  1  0
 15 16  1  0
  8 17  2  0
  2 18  1  0
 18 19  2  0
 19 20  1  0
 20 21  2  0
 20 22  1  0
 22 23  1  0
 23 24  2  0
 24 25  1  0
 25 26  2  0
 26 27  1  0
 27 28  2  0
 17  4  1  0
 28 18  1  0
 16 11  1  0
 28 23  1  0
  5 29  1  0
  6 30  1  0
  7 31  1  0
 11 32  1  0
 12 33  1  0
 12 34  1  0
 13 35  1  0
 13 36  1  0
 15 37  1  0
 15 38  1  0
 16 39  1  0
 16 40  1  0
 17 41  1  0
 19 42  1  0
 24 43  1  0
 25 44  1  0
 26 45  1  0
 27 46  1  0
M  CHG  3   3  -1  11   1  22  -1
M  END
>  <UniqueID>  (15) 
14

>  <SMILES>  (15) 
O=C([N-]c1cccc(C(=O)[NH+]2CCOCC2)c1)c1cc(=O)[n-]c2ccccc12

>  <Energy>  (15) 
90.8458514684151

>  <Genealogy>  (15) 
O=C([N-]c1cccc(C(=O)[NH+]2CCOCC2)c1)c1cc(=O)[n-]c2ccccc12 (protonated)
O=C([N-]c1cccc(C(=O)[NH+]2CCOCC2)c1)c1cc(=O)[n-]c2ccccc12 (3D coordinates assigned)
O=C([N-]c1cccc(C(=O)[NH+]2CCOCC2)c1)c1cc(=O)[n-]c2ccccc12 (nonaromatic ring conformer: 90.8458514684151 kcal/mol)

>  <smiles>  (15) 
O=C(Nc1cccc(C(=O)N2CCOCC2)c1)c1cc(=O)[nH]c2ccccc12

>  <score_type>  (15) 
oracle

>  <origin>  (15) 
adg

>  <m_score__min__energy>  (15) 
-10.119999999999999

>  <m_primary>  (15) 
energy

$$$$
15:0
     RDKit          3D

 70 74  0  0  0  0  0  0  0  0999 V2000
   65.6970   33.7640   51.2860 C   0  0  0  0  0  0  0  0  0  0  0  0
   65.6520   33.1270   49.9740 N   0  0  0  0  0  0  0  0  0  0  0  0
   64.4840   32.4710   49.4470 C   0  0  0  0  0  0  0  0  0  0  0  0
   63.7690   31.5170   50.1950 C   0  0  0  0  0  0  0  0  0  0  0  0
   62.6420   30.8920   49.6530 C   0  0  0  0  0  0  0  0  0  0  0  0
   62.2050   31.2030   48.3530 C   0  0  0  0  0  0  0  0  0  0  0  0
   61.0160   30.5250   47.7710 C   0  0  0  0  0  0  0  0  0  0  0  0
   60.0830   29.8780   48.6020 C   0  0  0  0  0  0  0  0  0  0  0  0
   58.9720   29.2320   48.0550 C   0  0  0  0  0  0  0  0  0  0  0  0
   58.7660   29.2280   46.6660 C   0  0  0  0  0  0  0  0  0  0  0  0
   57.6540   28.5460   46.0720 N   0  0  0  0  0  0  0  0  0  0  0  0
   56.6740   29.1300   45.2040 C   0  0  0  0  0  0  0  0  0  0  0  0
   55.5180   28.6310   45.1800 O   0  0  0  0  0  0  0  0  0  0  0  0
   57.0010   30.2500   44.2900 C   0  0  0  0  0  0  0  0  0  0  0  0
   56.8010   30.1320   42.9040 C   0  0  0  0  0  0  0  0  0  0  0  0
   57.0540   31.2130   42.0580 C   0  0  0  0  0  0  0  0  0  0  0  0
   57.4930   32.4290   42.5850 C   0  0  0  0  0  0  0  0  0  0  0  0
   57.7000   32.5680   43.9640 C   0  0  0  0  0  0  0  0  0  0  0  0
   58.0410   33.9120   44.5480 C   0  0  0  0  0  0  0  0  0  0  0  0
   58.8600   33.7320   45.7390 N   0  0  0  0  0  0  0  0  0  0  0  0
   58.2710   33.5550   47.0290 C   0  0  0  0  0  0  0  0  0  0  0  0
   57.0190   33.4390   47.1200 O   0  0  0  0  0  0  0  0  0  0  0  0
   59.1130   33.5650   48.2490 C   0  0  0  0  0  0  0  0  0  0  0  0
   60.1850   34.4660   48.3680 C   0  0  0  0  0  0  0  0  0  0  0  0
   61.0190   34.4310   49.4890 C   0  0  0  0  0  0  0  0  0  0  0  0
   60.8030   33.4890   50.4960 C   0  0  0  0  0  0  0  0  0  0  0  0
   59.7470   32.5710   50.3880 C   0  0  0  0  0  0  0  0  0  0  0  0
   59.5140   31.5670   51.4450 C   0  0  0  0  0  0  0  0  0  0  0  0
   60.5080   31.0770   52.0450 O   0  0  0  0  0  0  0  0  0  0  0  0
   58.1850   31.1580   51.8150 N   0  0  0  0  0  0  0  0  0  0  0  0
   57.9290   29.9990   52.6550 C   0  0  0  0  0  0  0  0  0  0  0  0
   56.4890   30.1410   53.1340 C   0  0  0  0  0  0  0  0  0  0  0  0
   55.8500   31.2040   52.2450 C   0  0  0  0  0  0  0  0  0  0  0  0
   57.0000   31.9790   51.6170 C   0  0  0  0  0  0  0  0  0  0  0  0
   58.8900   32.6330   49.2800 C   0  0  0  0  0  0  0  0  0  0  0  0
   57.4520   31.4760   44.8120 C   0  0  0  0  0  0  0  0  0  0  0  0
   59.6990   29.8550   45.8340 C   0  0  0  0  0  0  0  0  0  0  0  0
   60.8110   30.5060   46.3780 C   0  0  0  0  0  0  0  0  0  0  0  0
   62.9190   32.1610   47.6100 C   0  0  0  0  0  0  0  0  0  0  0  0
   64.0440   32.7870   48.1530 C   0  0  0  0  0  0  0  0  0  0  0  0
   65.6426   32.9939   52.0696 H   0  0  0  0  0  0  0  0  0  0  0  0
   66.6371   34.3259   51.3888 H   0  0  0  0  0  0  0  0  0  0  0  0
   64.8452   34.4524   51.3888 H   0  0  0  0  0  0  0  0  0  0  0  0
   66.5230   33.1440   49.3970 H   0  0  0  0  0  0  0  0  0  0  0  0
   64.0991   31.2615   51.2127 H   0  0  0  0  0  0  0  0  0  0  0  0
   62.0915   30.1495   50.2494 H   0  0  0  0  0  0  0  0  0  0  0  0
   60.2299   29.8810   49.6922 H   0  0  0  0  0  0  0  0  0  0  0  0
   58.2545   28.7236   48.7159 H   0  0  0  0  0  0  0  0  0  0  0  0
   56.4426   29.1811   42.4829 H   0  0  0  0  0  0  0  0  0  0  0  0
   56.9071   31.1065   40.9731 H   0  0  0  0  0  0  0  0  0  0  0  0
   57.6772   33.2817   41.9149 H   0  0  0  0  0  0  0  0  0  0  0  0
   58.5981   34.5031   43.8062 H   0  0  0  0  0  0  0  0  0  0  0  0
   57.1142   34.4397   44.8175 H   0  0  0  0  0  0  0  0  0  0  0  0
   60.3690   35.2040   47.5733 H   0  0  0  0  0  0  0  0  0  0  0  0
   61.8483   35.1482   49.5779 H   0  0  0  0  0  0  0  0  0  0  0  0
   61.4621   33.4661   51.3764 H   0  0  0  0  0  0  0  0  0  0  0  0
   58.0499   29.0720   52.0753 H   0  0  0  0  0  0  0  0  0  0  0  0
   58.6325   29.9483   53.4991 H   0  0  0  0  0  0  0  0  0  0  0  0
   55.9557   29.1847   53.0290 H   0  0  0  0  0  0  0  0  0  0  0  0
   56.4449   30.4256   54.1956 H   0  0  0  0  0  0  0  0  0  0  0  0
   55.2378   30.7300   51.4636 H   0  0  0  0  0  0  0  0  0  0  0  0
   55.1888   31.8660   52.8234 H   0  0  0  0  0  0  0  0  0  0  0  0
   56.8164   32.1344   50.5436 H   0  0  0  0  0  0  0  0  0  0  0  0
   57.1152   32.9735   52.0728 H   0  0  0  0  0  0  0  0  0  0  0  0
   58.0337   31.9455   49.2157 H   0  0  0  0  0  0  0  0  0  0  0  0
   57.6121   31.5806   45.8953 H   0  0  0  0  0  0  0  0  0  0  0  0
   59.5572   29.8360   44.7433 H   0  0  0  0  0  0  0  0  0  0  0  0
   61.5303   31.0066   45.7131 H   0  0  0  0  0  0  0  0  0  0  0  0
   62.5888   32.4193   46.5930 H   0  0  0  0  0  0  0  0  0  0  0  0
   64.5902   33.5352   47.5598 H   0  0  0  0  0  0  0  0  0  0  0  0
  1  2  1  0
  2  3  1  0
  3  4  2  0
  4  5  1  0
  5  6  2  0
  6  7  1  0
  7  8  2  0
  8  9  1  0
  9 10  2  0
 10 11  1  0
 11 12  1  0
 12 13  2  0
 12 14  1  0
 14 15  2  0
 15 16  1  0
 16 17  2  0
 17 18  1  0
 18 19  1  0
 19 20  1  0
 20 21  1  0
 21 22  2  0
 21 23  1  0
 23 24  2  0
 24 25  1  0
 25 26  2  0
 26 27  1  0
 27 28  1  0
 28 29  2  0
 28 30  1  0
 30 31  1  0
 31 32  1  0
 32 33  1  0
 33 34  1  0
 27 35  2  0
 18 36  2  0
 10 37  1  0
 37 38  2  0
  6 39  1  0
 39 40  2  0
 40  3  1  0
 38  7  1  0
 36 14  1  0
 35 23  1  0
 34 30  1  0
  1 41  1  0
  1 42  1  0
  1 43  1  0
  2 44  1  0
  4 45  1  0
  5 46  1  0
  8 47  1  0
  9 48  1  0
 15 49  1  0
 16 50  1  0
 17 51  1  0
 19 52  1  0
 19 53  1  0
 24 54  1  0
 25 55  1  0
 26 56  1  0
 31 57  1  0
 31 58  1  0
 32 59  1  0
 32 60  1  0
 33 61  1  0
 33 62  1  0
 34 63  1  0
 34 64  1  0
 35 65  1  0
 36 66  1  0
 37 67  1  0
 38 68  1  0
 39 69  1  0
 40 70  1  0
M  CHG  2  11  -1  20  -1
M  END
>  <UniqueID>  (16) 
15

>  <SMILES>  (16) 
CNc1ccc(-c2ccc([N-]C(=O)c3cccc(C[N-]C(=O)c4cccc(C(=O)N5CCCC5)c4)c3)cc2)cc1

>  <Energy>  (16) 
91.87714267611229

>  <Genealogy>  (16) 
CNc1ccc(-c2ccc([N-]C(=O)c3cccc(C[N-]C(=O)c4cccc(C(=O)N5CCCC5)c4)c3)cc2)cc1 (protonated)
CNc1ccc(-c2ccc([N-]C(=O)c3cccc(C[N-]C(=O)c4cccc(C(=O)N5CCCC5)c4)c3)cc2)cc1 (3D coordinates assigned)
CNc1ccc(-c2ccc([N-]C(=O)c3cccc(C[N-]C(=O)c4cccc(C(=O)N5CCCC5)c4)c3)cc2)cc1 (nonaromatic ring conformer: 91.87714267611229 kcal/mol)

>  <smiles>  (16) 
CNc1ccc(-c2ccc(NC(=O)c3cccc(CNC(=O)c4cccc(C(=O)N5CCCC5)c4)c3)cc2)cc1

>  <score_type>  (16) 
oracle

>  <origin>  (16) 
adg

>  <m_score__min__energy>  (16) 
-12.73

>  <m_primary>  (16) 
energy

$$$$
16:0
     RDKit          3D

 52 55  0  0  0  0  0  0  0  0999 V2000
   60.3610   26.4370   49.1180 C   0  0  0  0  0  0  0  0  0  0  0  0
   60.4810   27.8690   48.7010 C   0  0  0  0  0  0  0  0  0  0  0  0
   60.9400   28.8340   49.5220 N   0  0  0  0  0  0  0  0  0  0  0  0
   60.8940   29.9840   48.8660 N   0  0  0  0  0  0  0  0  0  0  0  0
   61.1940   31.2690   49.4960 C   0  0  0  0  0  0  0  0  0  0  0  0
   61.8630   32.1840   48.5060 C   0  0  0  0  0  0  0  0  0  0  0  0
   63.1790   31.9380   48.0780 C   0  0  0  0  0  0  0  0  0  0  0  0
   63.7810   32.7780   47.1360 C   0  0  0  0  0  0  0  0  0  0  0  0
   63.0760   33.8660   46.6140 C   0  0  0  0  0  0  0  0  0  0  0  0
   61.7670   34.1170   47.0350 C   0  0  0  0  0  0  0  0  0  0  0  0
   61.1620   33.2810   47.9770 C   0  0  0  0  0  0  0  0  0  0  0  0
   60.3880   29.7730   47.6320 C   0  0  0  0  0  0  0  0  0  0  0  0
   60.0890   30.8070   46.6880 N   0  0  0  0  0  0  0  0  0  0  0  0
   60.1010   28.4270   47.4840 C   0  0  0  0  0  0  0  0  0  0  0  0
   59.4730   27.7550   46.3260 C   0  0  0  0  0  0  0  0  0  0  0  0
   59.9680   26.6840   45.8830 O   0  0  0  0  0  0  0  0  0  0  0  0
   58.2940   28.3450   45.6550 C   0  0  0  0  0  0  0  0  0  0  0  0
   56.9980   27.8390   45.8560 C   0  0  0  0  0  0  0  0  0  0  0  0
   56.7450   26.7500   46.6920 O   0  0  0  0  0  0  0  0  0  0  0  0
   55.9490   28.4380   45.2450 N   0  0  0  0  0  0  0  0  0  0  0  0
   56.1030   29.5320   44.4580 C   0  0  0  0  0  0  0  0  0  0  0  0
   55.0800   30.0540   43.9390 O   0  0  0  0  0  0  0  0  0  0  0  0
   57.3510   30.0580   44.2390 N   0  0  0  0  0  0  0  0  0  0  0  0
   57.5210   31.3010   43.4590 C   0  0  0  0  0  0  0  0  0  0  0  0
   57.8570   32.4460   44.3790 C   0  0  0  0  0  0  0  0  0  0  0  0
   57.3450   32.4700   45.6870 C   0  0  0  0  0  0  0  0  0  0  0  0
   57.7040   33.4980   46.5650 C   0  0  0  0  0  0  0  0  0  0  0  0
   58.5780   34.5050   46.1450 C   0  0  0  0  0  0  0  0  0  0  0  0
   59.0940   34.4860   44.8470 C   0  0  0  0  0  0  0  0  0  0  0  0
   58.7370   33.4610   43.9660 C   0  0  0  0  0  0  0  0  0  0  0  0
   58.4460   29.4600   44.8110 C   0  0  0  0  0  0  0  0  0  0  0  0
   59.6040   29.9100   44.5810 O   0  0  0  0  0  0  0  0  0  0  0  0
   60.3557   26.3741   50.2162 H   0  0  0  0  0  0  0  0  0  0  0  0
   59.4245   26.0171   48.7222 H   0  0  0  0  0  0  0  0  0  0  0  0
   61.2145   25.8671   48.7222 H   0  0  0  0  0  0  0  0  0  0  0  0
   60.2586   31.7310   49.8446 H   0  0  0  0  0  0  0  0  0  0  0  0
   61.8691   31.1042   50.3487 H   0  0  0  0  0  0  0  0  0  0  0  0
   63.7371   31.0821   48.4853 H   0  0  0  0  0  0  0  0  0  0  0  0
   64.8116   32.5820   46.8051 H   0  0  0  0  0  0  0  0  0  0  0  0
   63.5511   34.5246   45.8720 H   0  0  0  0  0  0  0  0  0  0  0  0
   61.2125   34.9736   46.6243 H   0  0  0  0  0  0  0  0  0  0  0  0
   60.1319   33.4826   48.3061 H   0  0  0  0  0  0  0  0  0  0  0  0
   59.1660   31.2910   46.6930 H   0  0  0  0  0  0  0  0  0  0  0  0
   60.7920   31.1120   45.9810 H   0  0  0  0  0  0  0  0  0  0  0  0
   57.4500   26.0720   46.9470 H   0  0  0  0  0  0  0  0  0  0  0  0
   58.3360   31.1664   42.7326 H   0  0  0  0  0  0  0  0  0  0  0  0
   56.5829   31.5263   42.9305 H   0  0  0  0  0  0  0  0  0  0  0  0
   56.6594   31.6776   46.0219 H   0  0  0  0  0  0  0  0  0  0  0  0
   57.2981   33.5141   47.5872 H   0  0  0  0  0  0  0  0  0  0  0  0
   58.8595   35.3126   46.8368 H   0  0  0  0  0  0  0  0  0  0  0  0
   59.7821   35.2786   44.5177 H   0  0  0  0  0  0  0  0  0  0  0  0
   59.1466   33.4488   42.9452 H   0  0  0  0  0  0  0  0  0  0  0  0
  1  2  1  0
  2  3  2  0
  3  4  1  0
  4  5  1  0
  5  6  1  0
  6  7  2  0
  7  8  1  0
  8  9  2  0
  9 10  1  0
 10 11  2  0
  4 12  1  0
 12 13  1  0
 12 14  2  0
 14 15  1  0
 15 16  2  0
 15 17  1  0
 17 18  2  0
 18 19  1  0
 18 20  1  0
 20 21  1  0
 21 22  2  0
 21 23  1  0
 23 24  1  0
 24 25  1  0
 25 26  2  0
 26 27  1  0
 27 28  2  0
 28 29  1  0
 29 30  2  0
 23 31  1  0
 31 32  2  0
 14  2  1  0
 31 17  1  0
 11  6  1  0
 30 25  1  0
  1 33  1  0
  1 34  1  0
  1 35  1  0
  5 36  1  0
  5 37  1  0
  7 38  1  0
  8 39  1  0
  9 40  1  0
 10 41  1  0
 11 42  1  0
 13 43  1  0
 13 44  1  0
 19 45  1  0
 24 46  1  0
 24 47  1  0
 26 48  1  0
 27 49  1  0
 28 50  1  0
 29 51  1  0
 30 52  1  0
M  CHG  1  20  -1
M  END
>  <UniqueID>  (17) 
16

>  <SMILES>  (17) 
Cc1nn(Cc2ccccc2)c(N)c1C(=O)c1c(O)[n-]c(=O)n(Cc2ccccc2)c1=O

>  <Energy>  (17) 
96.95088109541092

>  <Genealogy>  (17) 
Cc1nn(Cc2ccccc2)c(N)c1C(=O)c1c(O)[n-]c(=O)n(Cc2ccccc2)c1=O (protonated)
Cc1nn(Cc2ccccc2)c(N)c1C(=O)c1c(O)[n-]c(=O)n(Cc2ccccc2)c1=O (3D coordinates assigned)
Cc1nn(Cc2ccccc2)c(N)c1C(=O)c1c(O)[n-]c(=O)n(Cc2ccccc2)c1=O (optimized conformer: 96.95088109541092 kcal/mol)

>  <smiles>  (17) 
Cc1nn(Cc2ccccc2)c(N)c1C(=O)c1c(O)[nH]c(=O)n(Cc2ccccc2)c1=O

>  <score_type>  (17) 
oracle

>  <origin>  (17) 
adg

>  <m_score__min__energy>  (17) 
-11.59

>  <m_primary>  (17) 
energy

$$$$
17:0
     RDKit          3D

 71 74  0  0  0  0  0  0  0  0999 V2000
   66.0620   32.4930   49.7950 C   0  0  0  0  0  0  0  0  0  0  0  0
   65.8360   33.5230   50.8660 C   0  0  0  0  0  0  0  0  0  0  0  0
   64.5910   33.8630   51.2820 C   0  0  0  0  0  0  0  0  0  0  0  0
   63.3670   33.3890   50.6030 C   0  0  0  0  0  0  0  0  0  0  0  0
   63.1940   32.1500   50.4400 O   0  0  0  0  0  0  0  0  0  0  0  0
   62.3450   34.3140   50.2050 N   0  0  0  0  0  0  0  0  0  0  0  0
   61.4510   34.0730   49.1070 C   0  0  0  0  0  0  0  0  0  0  0  0
   61.9250   33.5840   47.8780 C   0  0  0  0  0  0  0  0  0  0  0  0
   61.0480   33.3950   46.8090 C   0  0  0  0  0  0  0  0  0  0  0  0
   59.6810   33.6780   46.9520 C   0  0  0  0  0  0  0  0  0  0  0  0
   58.7520   33.4950   45.8220 C   0  0  0  0  0  0  0  0  0  0  0  0
   57.9250   34.4080   45.5570 O   0  0  0  0  0  0  0  0  0  0  0  0
   58.7560   32.3110   45.0120 N   0  0  0  0  0  0  0  0  0  0  0  0
   57.8300   31.1870   45.1330 C   0  0  1  0  0  0  0  0  0  0  0  0
   56.8090   31.1970   43.9770 C   0  0  0  0  0  0  0  0  0  0  0  0
   55.9830   29.9460   43.9500 C   0  0  0  0  0  0  0  0  0  0  0  0
   55.4330   29.4280   45.1600 N   0  0  0  0  0  0  0  0  0  0  0  0
   55.7780   29.3430   42.8610 O   0  0  0  0  0  0  0  0  0  0  0  0
   58.6020   29.8850   45.1880 C   0  0  0  0  0  0  0  0  0  0  0  0
   58.7200   29.2230   44.1170 O   0  0  0  0  0  0  0  0  0  0  0  0
   59.2300   29.3970   46.3960 N   0  0  0  0  0  0  0  0  0  0  0  0
   59.3280   27.9480   46.6550 C   0  0  0  0  0  0  0  0  0  0  0  0
   60.1130   27.6470   47.9360 C   0  0  0  0  0  0  0  0  0  0  0  0
   59.6340   28.5650   49.0610 C   0  0  0  0  0  0  0  0  0  0  0  0
   59.8450   30.0680   48.7280 C   0  0  2  0  0  0  0  0  0  0  0  0
   58.6940   30.9380   49.2860 C   0  0  0  0  0  0  0  0  0  0  0  0
   59.0730   31.6280   50.5720 C   0  0  0  0  0  0  0  0  0  0  0  0
   60.3460   31.4340   51.1390 C   0  0  0  0  0  0  0  0  0  0  0  0
   60.6950   32.0870   52.3240 C   0  0  0  0  0  0  0  0  0  0  0  0
   59.7790   32.9340   52.9550 C   0  0  0  0  0  0  0  0  0  0  0  0
   58.5120   33.1290   52.3990 C   0  0  0  0  0  0  0  0  0  0  0  0
   58.1590   32.4830   51.2090 C   0  0  0  0  0  0  0  0  0  0  0  0
   60.0370   30.3230   47.2110 C   0  0  0  0  0  0  0  0  0  0  0  0
   59.2100   34.1920   48.1700 C   0  0  0  0  0  0  0  0  0  0  0  0
   60.0910   34.3900   49.2380 C   0  0  0  0  0  0  0  0  0  0  0  0
   64.3510   34.8880   52.7470 S   0  0  0  0  0  0  0  0  0  0  0  0
   65.7340   35.9940   52.3630 C   0  0  0  0  0  0  0  0  0  0  0  0
   67.0040   35.1570   52.3900 C   0  0  0  0  0  0  0  0  0  0  0  0
   66.9850   34.1590   51.3680 O   0  0  0  0  0  0  0  0  0  0  0  0
   66.2755   31.5199   50.2613 H   0  0  0  0  0  0  0  0  0  0  0  0
   65.1607   32.4102   49.1699 H   0  0  0  0  0  0  0  0  0  0  0  0
   66.9152   32.7951   49.1699 H   0  0  0  0  0  0  0  0  0  0  0  0
   62.2130   35.1780   50.7780 H   0  0  0  0  0  0  0  0  0  0  0  0
   62.9928   33.3489   47.7578 H   0  0  0  0  0  0  0  0  0  0  0  0
   61.4309   33.0216   45.8478 H   0  0  0  0  0  0  0  0  0  0  0  0
   57.2631   31.2859   46.0705 H   0  0  0  0  0  0  0  0  0  0  0  0
   56.1406   32.0619   44.1003 H   0  0  0  0  0  0  0  0  0  0  0  0
   57.3661   31.2582   43.0305 H   0  0  0  0  0  0  0  0  0  0  0  0
   54.3990   29.3460   45.2920 H   0  0  0  0  0  0  0  0  0  0  0  0
   58.3132   27.5354   46.7548 H   0  0  0  0  0  0  0  0  0  0  0  0
   59.8631   27.4870   45.8117 H   0  0  0  0  0  0  0  0  0  0  0  0
   59.9516   26.5983   48.2260 H   0  0  0  0  0  0  0  0  0  0  0  0
   61.1844   27.8195   47.7560 H   0  0  0  0  0  0  0  0  0  0  0  0
   58.5616   28.3875   49.2296 H   0  0  0  0  0  0  0  0  0  0  0  0
   60.2263   28.3335   49.9585 H   0  0  0  0  0  0  0  0  0  0  0  0
   60.7793   30.3651   49.2268 H   0  0  0  0  0  0  0  0  0  0  0  0
   58.4324   31.7012   48.5383 H   0  0  0  0  0  0  0  0  0  0  0  0
   57.8417   30.2753   49.4970 H   0  0  0  0  0  0  0  0  0  0  0  0
   61.0689   30.7661   50.6478 H   0  0  0  0  0  0  0  0  0  0  0  0
   61.6927   31.9343   52.7614 H   0  0  0  0  0  0  0  0  0  0  0  0
   60.0555   33.4464   53.8883 H   0  0  0  0  0  0  0  0  0  0  0  0
   57.7901   33.7921   52.8981 H   0  0  0  0  0  0  0  0  0  0  0  0
   57.1630   32.6453   50.7713 H   0  0  0  0  0  0  0  0  0  0  0  0
   59.7346   31.3555   46.9820 H   0  0  0  0  0  0  0  0  0  0  0  0
   61.0971   30.1594   46.9673 H   0  0  0  0  0  0  0  0  0  0  0  0
   58.1445   34.4399   48.2850 H   0  0  0  0  0  0  0  0  0  0  0  0
   59.7145   34.7974   50.1879 H   0  0  0  0  0  0  0  0  0  0  0  0
   65.5961   36.4367   51.3655 H   0  0  0  0  0  0  0  0  0  0  0  0
   65.7921   36.8133   53.0947 H   0  0  0  0  0  0  0  0  0  0  0  0
   67.8713   35.8152   52.2331 H   0  0  0  0  0  0  0  0  0  0  0  0
   67.0706   34.6552   53.3666 H   0  0  0  0  0  0  0  0  0  0  0  0
  1  2  1  0
  2  3  2  0
  3  4  1  0
  4  5  2  0
  4  6  1  0
  6  7  1  0
  7  8  2  0
  8  9  1  0
  9 10  2  0
 10 11  1  0
 11 12  2  0
 11 13  1  0
 13 14  1  0
 14 15  1  0
 15 16  1  0
 16 17  1  0
 16 18  2  0
 14 19  1  0
 19 20  2  0
 19 21  1  0
 21 22  1  0
 22 23  1  0
 23 24  1  0
 24 25  1  0
 25 26  1  0
 26 27  1  0
 27 28  2  0
 28 29  1  0
 29 30  2  0
 30 31  1  0
 31 32  2  0
 25 33  1  0
 10 34  1  0
 34 35  2  0
  3 36  1  0
 36 37  1  0
 37 38  1  0
 38 39  1  0
 39  2  1  0
 35  7  1  0
 33 21  1  0
 32 27  1  0
  1 40  1  0
  1 41  1  0
  1 42  1  0
  6 43  1  0
  8 44  1  0
  9 45  1  0
 14 46  1  1
 15 47  1  0
 15 48  1  0
 17 49  1  0
 22 50  1  0
 22 51  1  0
 23 52  1  0
 23 53  1  0
 24 54  1  0
 24 55  1  0
 25 56  1  1
 26 57  1  0
 26 58  1  0
 28 59  1  0
 29 60  1  0
 30 61  1  0
 31 62  1  0
 32 63  1  0
 33 64  1  0
 33 65  1  0
 34 66  1  0
 35 67  1  0
 37 68  1  0
 37 69  1  0
 38 70  1  0
 38 71  1  0
M  CHG  2  13  -1  17  -1
M  END
>  <UniqueID>  (18) 
17

>  <SMILES>  (18) 
CC1=C(C(=O)Nc2ccc(C(=O)[N-][C@@H](CC([NH-])=O)C(=O)N3CCC[C@H](Cc4ccccc4)C3)cc2)SCCO1

>  <Energy>  (18) 
88.67219693042622

>  <Genealogy>  (18) 
CC1=C(C(=O)Nc2ccc(C(=O)[N-]C(CC([NH-])=O)C(=O)N3CCCC(Cc4ccccc4)C3)cc2)SCCO1 (protonated)
CC1=C(C(=O)Nc2ccc(C(=O)[N-][C@@H](CC([NH-])=O)C(=O)N3CCC[C@H](Cc4ccccc4)C3)cc2)SCCO1 (chirality)
CC1=C(C(=O)Nc2ccc(C(=O)[N-][C@@H](CC([NH-])=O)C(=O)N3CCC[C@H](Cc4ccccc4)C3)cc2)SCCO1 (3D coordinates assigned)
CC1=C(C(=O)Nc2ccc(C(=O)[N-][C@@H](CC([NH-])=O)C(=O)N3CCC[C@H](Cc4ccccc4)C3)cc2)SCCO1 (nonaromatic ring conformer: 88.67219693042622 kcal/mol)

>  <smiles>  (18) 
CC1=C(C(=O)Nc2ccc(C(=O)NC(CC(N)=O)C(=O)N3CCCC(Cc4ccccc4)C3)cc2)SCCO1

>  <score_type>  (18) 
oracle

>  <origin>  (18) 
adg

>  <m_score__min__energy>  (18) 
-13.800000000000001

>  <m_primary>  (18) 
energy

$$$$
18:0
     RDKit          3D

 56 58  0  0  0  0  0  0  0  0999 V2000
   57.4150   33.3870   45.2090 C   0  0  0  0  0  0  0  0  0  0  0  0
   58.7350   33.7790   45.7990 C   0  0  0  0  0  0  0  0  0  0  0  0
   59.1750   35.0470   45.7820 N   0  0  0  0  0  0  0  0  0  0  0  0
   60.3430   35.0540   46.3950 N   0  0  0  0  0  0  0  0  0  0  0  0
   60.6120   33.7930   46.7900 C   0  0  0  0  0  0  0  0  0  0  0  0
   61.9310   33.5030   47.4900 C   0  0  0  0  0  0  0  0  0  0  0  0
   63.1840   33.7990   46.6570 C   0  0  0  0  0  0  0  0  0  0  0  0
   61.9830   34.0540   48.9280 C   0  0  0  0  0  0  0  0  0  0  0  0
   59.6120   32.9370   46.4060 N   0  0  0  0  0  0  0  0  0  0  0  0
   59.3360   31.5000   46.6520 C   0  0  0  0  0  0  0  0  0  0  0  0
   58.8800   31.2460   48.0990 C   0  0  0  0  0  0  0  0  0  0  0  0
   58.5700   29.7590   48.3110 C   0  0  0  0  0  0  0  0  0  0  0  0
   59.7350   28.9360   47.9280 N   0  0  0  0  0  0  0  0  0  0  0  0
   59.5910   27.5190   48.3290 C   0  0  0  0  0  0  0  0  0  0  0  0
   59.0290   26.6280   47.2400 C   0  0  0  0  0  0  0  0  0  0  0  0
   57.6940   26.7620   46.8320 C   0  0  0  0  0  0  0  0  0  0  0  0
   57.1720   25.9340   45.8340 C   0  0  0  0  0  0  0  0  0  0  0  0
   57.9810   24.9640   45.2150 C   0  0  0  0  0  0  0  0  0  0  0  0
   57.4130   24.0850   44.1630 C   0  0  0  0  0  0  0  0  0  0  0  0
   56.9270   24.6060   43.1220 O   0  0  0  0  0  0  0  0  0  0  0  0
   57.4400   22.6530   44.3030 N   0  0  0  0  0  0  0  0  0  0  0  0
   56.6870   21.7580   43.4700 C   0  0  0  0  0  0  0  0  0  0  0  0
   56.8520   20.3480   43.6100 N   0  0  0  0  0  0  0  0  0  0  0  0
   55.8670   22.2030   42.6220 O   0  0  0  0  0  0  0  0  0  0  0  0
   59.3180   24.8300   45.6280 C   0  0  0  0  0  0  0  0  0  0  0  0
   59.8380   25.6590   46.6270 C   0  0  0  0  0  0  0  0  0  0  0  0
   60.0550   29.0950   46.4960 C   0  0  0  0  0  0  0  0  0  0  0  0
   60.4590   30.5450   46.2120 C   0  0  0  0  0  0  0  0  0  0  0  0
   56.7004   33.1748   46.0179 H   0  0  0  0  0  0  0  0  0  0  0  0
   57.0320   34.2102   44.5880 H   0  0  0  0  0  0  0  0  0  0  0  0
   57.5434   32.4882   44.5880 H   0  0  0  0  0  0  0  0  0  0  0  0
   61.9550   32.4081   47.5936 H   0  0  0  0  0  0  0  0  0  0  0  0
   64.0319   33.9993   47.3286 H   0  0  0  0  0  0  0  0  0  0  0  0
   63.4160   32.9309   46.0225 H   0  0  0  0  0  0  0  0  0  0  0  0
   63.0030   34.6791   46.0225 H   0  0  0  0  0  0  0  0  0  0  0  0
   61.9044   33.2215   49.6427 H   0  0  0  0  0  0  0  0  0  0  0  0
   62.9350   34.5825   49.0839 H   0  0  0  0  0  0  0  0  0  0  0  0
   61.1467   34.7513   49.0839 H   0  0  0  0  0  0  0  0  0  0  0  0
   58.4947   31.2521   45.9881 H   0  0  0  0  0  0  0  0  0  0  0  0
   59.6800   31.5511   48.7895 H   0  0  0  0  0  0  0  0  0  0  0  0
   57.9686   31.8307   48.2927 H   0  0  0  0  0  0  0  0  0  0  0  0
   58.3345   29.5844   49.3712 H   0  0  0  0  0  0  0  0  0  0  0  0
   57.7105   29.4784   47.6845 H   0  0  0  0  0  0  0  0  0  0  0  0
   60.5827   27.1365   48.6123 H   0  0  0  0  0  0  0  0  0  0  0  0
   58.8751   27.4941   49.1638 H   0  0  0  0  0  0  0  0  0  0  0  0
   57.0534   27.5237   47.3004 H   0  0  0  0  0  0  0  0  0  0  0  0
   56.1203   26.0419   45.5303 H   0  0  0  0  0  0  0  0  0  0  0  0
   58.0690   22.2280   45.0190 H   0  0  0  0  0  0  0  0  0  0  0  0
   56.3040   19.6900   43.0120 H   0  0  0  0  0  0  0  0  0  0  0  0
   57.5220   19.9570   44.3090 H   0  0  0  0  0  0  0  0  0  0  0  0
   59.9597   24.0677   45.1621 H   0  0  0  0  0  0  0  0  0  0  0  0
   60.8886   25.5507   46.9345 H   0  0  0  0  0  0  0  0  0  0  0  0
   60.8868   28.4257   46.2313 H   0  0  0  0  0  0  0  0  0  0  0  0
   59.1690   28.8408   45.8957 H   0  0  0  0  0  0  0  0  0  0  0  0
   61.3779   30.7827   46.7680 H   0  0  0  0  0  0  0  0  0  0  0  0
   60.6339   30.6663   45.1328 H   0  0  0  0  0  0  0  0  0  0  0  0
  1  2  1  0
  2  3  2  0
  3  4  1  0
  4  5  2  0
  5  6  1  0
  6  7  1  0
  6  8  1  0
  5  9  1  0
  9 10  1  0
 10 11  1  0
 11 12  1  0
 12 13  1  0
 13 14  1  0
 14 15  1  0
 15 16  2  0
 16 17  1  0
 17 18  2  0
 18 19  1  0
 19 20  2  0
 19 21  1  0
 21 22  1  0
 22 23  1  0
 22 24  2  0
 18 25  1  0
 25 26  2  0
 13 27  1  0
 27 28  1  0
  9  2  1  0
 28 10  1  0
 26 15  1  0
  1 29  1  0
  1 30  1  0
  1 31  1  0
  6 32  1  0
  7 33  1  0
  7 34  1  0
  7 35  1  0
  8 36  1  0
  8 37  1  0
  8 38  1  0
 10 39  1  0
 11 40  1  0
 11 41  1  0
 12 42  1  0
 12 43  1  0
 14 44  1  0
 14 45  1  0
 16 46  1  0
 17 47  1  0
 21 48  1  0
 23 49  1  0
 23 50  1  0
 25 51  1  0
 26 52  1  0
 27 53  1  0
 27 54  1  0
 28 55  1  0
 28 56  1  0
M  END
>  <UniqueID>  (19) 
18

>  <SMILES>  (19) 
Cc1nnc(C(C)C)n1C1CCN(Cc2ccc(C(=O)NC(N)=O)cc2)CC1

>  <Energy>  (19) 
102.25623901310506

>  <Genealogy>  (19) 
Cc1nnc(C(C)C)n1C1CCN(Cc2ccc(C(=O)NC(N)=O)cc2)CC1 (3D coordinates assigned)
Cc1nnc(C(C)C)n1C1CCN(Cc2ccc(C(=O)NC(N)=O)cc2)CC1 (nonaromatic ring conformer: 102.25623901310506 kcal/mol)

>  <smiles>  (19) 
Cc1nnc(C(C)C)n1C1CCN(Cc2ccc(C(=O)NC(N)=O)cc2)CC1

>  <score_type>  (19) 
oracle

>  <origin>  (19) 
adg

>  <m_score__min__energy>  (19) 
-8.6199999999999992

>  <m_primary>  (19) 
energy

$$$$
19:0
     RDKit          3D

 58 61  0  0  0  0  0  0  0  0999 V2000
   64.5640   32.6740   49.3430 C   0  0  0  0  0  0  0  0  0  0  0  0
   63.3420   32.7550   48.5390 N   0  0  0  0  0  0  0  0  0  0  0  0
   63.3270   32.2510   47.1620 C   0  0  0  0  0  0  0  0  0  0  0  0
   62.1760   33.4020   49.0860 C   0  0  0  0  0  0  0  0  0  0  0  0
   62.2630   34.0500   50.1640 O   0  0  0  0  0  0  0  0  0  0  0  0
   60.9170   33.3460   48.4040 N   0  0  0  0  0  0  0  0  0  0  0  0
   60.1660   32.0870   48.3540 C   0  0  0  0  0  0  0  0  0  0  0  0
   59.5250   31.9080   46.9710 C   0  0  0  0  0  0  0  0  0  0  0  0
   58.9720   33.1740   46.4570 N   0  0  0  0  0  0  0  0  0  0  0  0
   58.7150   33.3240   45.0450 C   0  0  0  0  0  0  0  0  0  0  0  0
   59.0140   34.4090   44.4740 O   0  0  0  0  0  0  0  0  0  0  0  0
   58.1080   32.2330   44.2520 C   0  0  0  0  0  0  0  0  0  0  0  0
   57.7310   32.4400   42.9160 C   0  0  0  0  0  0  0  0  0  0  0  0
   57.1470   31.3950   42.2000 C   0  0  0  0  0  0  0  0  0  0  0  0
   56.9340   30.1600   42.8150 C   0  0  0  0  0  0  0  0  0  0  0  0
   57.3110   29.9830   44.1550 C   0  0  0  0  0  0  0  0  0  0  0  0
   57.0890   28.6960   44.8480 C   0  0  0  0  0  0  0  0  0  0  0  0
   55.9310   28.3900   45.2480 O   0  0  0  0  0  0  0  0  0  0  0  0
   58.1800   27.7850   45.0590 N   0  0  0  0  0  0  0  0  0  0  0  0
   58.0430   26.5800   45.8230 C   0  0  0  0  0  0  0  0  0  0  0  0
   58.1300   26.6260   47.2290 C   0  0  0  0  0  0  0  0  0  0  0  0
   57.9980   25.4500   47.9960 C   0  0  0  0  0  0  0  0  0  0  0  0
   57.7640   24.2140   47.3710 C   0  0  0  0  0  0  0  0  0  0  0  0
   57.6650   24.1900   45.9830 C   0  0  0  0  0  0  0  0  0  0  0  0
   57.7910   25.3360   45.2230 C   0  0  0  0  0  0  0  0  0  0  0  0
   57.5190   24.9590   43.8330 C   0  0  0  0  0  0  0  0  0  0  0  0
   57.4060   25.7540   42.8630 O   0  0  0  0  0  0  0  0  0  0  0  0
   57.2980   23.5500   43.7340 N   0  0  0  0  0  0  0  0  0  0  0  0
   56.6400   22.8690   42.6270 C   0  0  0  0  0  0  0  0  0  0  0  0
   57.3510   23.0860   45.0830 C   0  0  0  0  0  0  0  0  0  0  0  0
   57.1200   21.8990   45.4330 O   0  0  0  0  0  0  0  0  0  0  0  0
   57.8790   31.0220   44.8270 N   0  0  0  0  0  0  0  0  0  0  0  0
   58.9190   34.3450   47.3410 C   0  0  0  0  0  0  0  0  0  0  0  0
   60.3030   34.5980   47.9460 C   0  0  0  0  0  0  0  0  0  0  0  0
   64.3019   32.6914   50.4112 H   0  0  0  0  0  0  0  0  0  0  0  0
   65.0944   31.7387   49.1107 H   0  0  0  0  0  0  0  0  0  0  0  0
   65.2132   33.5311   49.1107 H   0  0  0  0  0  0  0  0  0  0  0  0
   63.2943   31.1516   47.1743 H   0  0  0  0  0  0  0  0  0  0  0  0
   62.4400   32.6384   46.6394 H   0  0  0  0  0  0  0  0  0  0  0  0
   64.2355   32.5850   46.6394 H   0  0  0  0  0  0  0  0  0  0  0  0
   60.8498   31.2478   48.5491 H   0  0  0  0  0  0  0  0  0  0  0  0
   59.3739   32.1105   49.1169 H   0  0  0  0  0  0  0  0  0  0  0  0
   60.2887   31.5418   46.2691 H   0  0  0  0  0  0  0  0  0  0  0  0
   58.6992   31.1877   47.0671 H   0  0  0  0  0  0  0  0  0  0  0  0
   57.8945   33.4171   42.4380 H   0  0  0  0  0  0  0  0  0  0  0  0
   56.8542   31.5441   41.1502 H   0  0  0  0  0  0  0  0  0  0  0  0
   56.4746   29.3328   42.2540 H   0  0  0  0  0  0  0  0  0  0  0  0
   59.0530   27.9040   44.4970 H   0  0  0  0  0  0  0  0  0  0  0  0
   58.3025   27.5885   47.7329 H   0  0  0  0  0  0  0  0  0  0  0  0
   58.0789   25.5010   49.0918 H   0  0  0  0  0  0  0  0  0  0  0  0
   57.6619   23.2916   47.9616 H   0  0  0  0  0  0  0  0  0  0  0  0
   55.9268   22.1308   43.0225 H   0  0  0  0  0  0  0  0  0  0  0  0
   56.1023   23.6051   42.0113 H   0  0  0  0  0  0  0  0  0  0  0  0
   57.3941   22.3569   42.0113 H   0  0  0  0  0  0  0  0  0  0  0  0
   58.6064   35.2264   46.7619 H   0  0  0  0  0  0  0  0  0  0  0  0
   58.1965   34.1589   48.1493 H   0  0  0  0  0  0  0  0  0  0  0  0
   60.9496   35.0573   47.1838 H   0  0  0  0  0  0  0  0  0  0  0  0
   60.1887   35.2677   48.8111 H   0  0  0  0  0  0  0  0  0  0  0  0
  1  2  1  0
  2  3  1  0
  2  4  1  0
  4  5  2  0
  4  6  1  0
  6  7  1  0
  7  8  1  0
  8  9  1  0
  9 10  1  0
 10 11  2  0
 10 12  1  0
 12 13  2  0
 13 14  1  0
 14 15  2  0
 15 16  1  0
 16 17  1  0
 17 18  2  0
 17 19  1  0
 19 20  1  0
 20 21  2  0
 21 22  1  0
 22 23  2  0
 23 24  1  0
 24 25  2  0
 25 26  1  0
 26 27  2  0
 26 28  1  0
 28 29  1  0
 28 30  1  0
 30 31  2  0
 16 32  2  0
  9 33  1  0
 33 34  1  0
 34  6  1  0
 32 12  1  0
 25 20  1  0
 30 24  1  0
  1 35  1  0
  1 36  1  0
  1 37  1  0
  3 38  1  0
  3 39  1  0
  3 40  1  0
  7 41  1  0
  7 42  1  0
  8 43  1  0
  8 44  1  0
 13 45  1  0
 14 46  1  0
 15 47  1  0
 19 48  1  0
 21 49  1  0
 22 50  1  0
 23 51  1  0
 29 52  1  0
 29 53  1  0
 29 54  1  0
 33 55  1  0
 33 56  1  0
 34 57  1  0
 34 58  1  0
M  END
>  <UniqueID>  (20) 
19

>  <SMILES>  (20) 
CN(C)C(=O)N1CCN(C(=O)c2cccc(C(=O)Nc3cccc4c3C(=O)N(C)C4=O)n2)CC1

>  <Energy>  (20) 
103.23263641567263

>  <Genealogy>  (20) 
CN(C)C(=O)N1CCN(C(=O)c2cccc(C(=O)Nc3cccc4c3C(=O)N(C)C4=O)n2)CC1 (3D coordinates assigned)
CN(C)C(=O)N1CCN(C(=O)c2cccc(C(=O)Nc3cccc4c3C(=O)N(C)C4=O)n2)CC1 (nonaromatic ring conformer: 103.23263641567263 kcal/mol)

>  <smiles>  (20) 
CN(C)C(=O)N1CCN(C(=O)c2cccc(C(=O)Nc3cccc4c3C(=O)N(C)C4=O)n2)CC1

>  <score_type>  (20) 
oracle

>  <origin>  (20) 
adg

>  <m_score__min__energy>  (20) 
-8.9900000000000002

>  <m_primary>  (20) 
energy

$$$$
20:0
     RDKit          3D

 85 89  0  0  0  0  0  0  0  0999 V2000
   50.1070   32.7470   52.1110 N   0  0  0  0  0  0  0  0  0  0  0  0
   51.1350   32.1060   51.3550 C   0  0  0  0  0  0  0  0  0  0  0  0
   51.1280   32.2180   50.0980 O   0  0  0  0  0  0  0  0  0  0  0  0
   52.1910   31.3160   52.0350 C   0  0  0  0  0  0  0  0  0  0  0  0
   51.8520   30.3460   52.9960 C   0  0  0  0  0  0  0  0  0  0  0  0
   52.8460   29.5970   53.6260 C   0  0  0  0  0  0  0  0  0  0  0  0
   54.1910   29.7970   53.3020 C   0  0  0  0  0  0  0  0  0  0  0  0
   54.5560   30.7660   52.3500 C   0  0  0  0  0  0  0  0  0  0  0  0
   55.9830   30.9590   51.9940 C   0  0  0  0  0  0  0  0  0  0  0  0
   56.6790   29.9640   51.6450 O   0  0  0  0  0  0  0  0  0  0  0  0
   56.5930   32.2580   52.0760 N   0  0  0  0  0  0  0  0  0  0  0  0
   57.7790   32.6120   51.3470 C   0  0  0  0  0  0  0  0  0  0  0  0
   58.7370   33.4440   51.9410 C   0  0  0  0  0  0  0  0  0  0  0  0
   59.8980   33.7870   51.2460 C   0  0  0  0  0  0  0  0  0  0  0  0
   60.1020   33.3280   49.9430 C   0  0  0  0  0  0  0  0  0  0  0  0
   59.1310   32.5330   49.3100 C   0  0  0  0  0  0  0  0  0  0  0  0
   59.3290   32.0670   47.9580 N   0  0  0  0  0  0  0  0  0  0  0  0
   58.1690   31.7790   47.1080 C   0  0  0  0  0  0  0  0  0  0  0  0
   58.5850   30.9920   45.8610 C   0  0  0  0  0  0  0  0  0  0  0  0
   59.5110   29.9030   46.2370 N   0  0  0  0  0  0  0  0  0  0  0  0
   59.7520   28.9880   45.0940 C   0  0  0  0  0  0  0  0  0  0  0  0
   61.0520   28.1950   45.2890 C   0  0  0  0  0  0  0  0  0  0  0  0
   60.8970   26.8170   45.9600 C   0  0  0  0  0  0  0  0  0  0  0  0
   60.2500   26.8140   47.3640 C   0  0  0  0  0  0  0  0  0  0  0  0
   60.6850   27.9740   48.2880 C   0  0  0  0  0  0  0  0  0  0  0  0
   60.2590   27.8320   49.7620 C   0  0  0  0  0  0  0  0  0  0  0  0
   61.4210   27.8210   50.6850 N   0  0  0  0  0  0  0  0  0  0  0  0
   61.1750   27.0230   51.9200 C   0  0  0  0  0  0  0  0  0  0  0  0
   61.2110   27.8470   53.2150 C   0  0  0  0  0  0  0  0  0  0  0  0
   60.5620   29.1380   52.9840 N   0  0  0  0  0  0  0  0  0  0  0  0
   59.3500   29.4990   53.6740 C   0  0  0  0  0  0  0  0  0  0  0  0
   59.1500   30.8190   54.1150 C   0  0  0  0  0  0  0  0  0  0  0  0
   57.9660   31.1740   54.7690 C   0  0  0  0  0  0  0  0  0  0  0  0
   56.9650   30.2220   54.9710 C   0  0  0  0  0  0  0  0  0  0  0  0
   57.1500   28.9090   54.5300 C   0  0  0  0  0  0  0  0  0  0  0  0
   58.3350   28.5480   53.8790 C   0  0  0  0  0  0  0  0  0  0  0  0
   61.0700   29.9870   51.9020 C   0  0  0  0  0  0  0  0  0  0  0  0
   61.9650   29.1780   50.9450 C   0  0  0  0  0  0  0  0  0  0  0  0
   60.7730   30.3910   46.8660 C   0  0  0  0  0  0  0  0  0  0  0  0
   60.6730   31.8280   47.4150 C   0  0  0  0  0  0  0  0  0  0  0  0
   57.9750   32.1730   50.0270 C   0  0  0  0  0  0  0  0  0  0  0  0
   53.5490   31.5180   51.7190 C   0  0  0  0  0  0  0  0  0  0  0  0
   49.9300   33.7720   52.0200 H   0  0  0  0  0  0  0  0  0  0  0  0
   50.7957   30.1770   53.2524 H   0  0  0  0  0  0  0  0  0  0  0  0
   52.5703   28.8459   54.3809 H   0  0  0  0  0  0  0  0  0  0  0  0
   54.9680   29.1935   53.7941 H   0  0  0  0  0  0  0  0  0  0  0  0
   56.2490   32.9230   52.8040 H   0  0  0  0  0  0  0  0  0  0  0  0
   58.5737   33.8283   52.9587 H   0  0  0  0  0  0  0  0  0  0  0  0
   60.6562   34.4222   51.7273 H   0  0  0  0  0  0  0  0  0  0  0  0
   61.0274   33.5900   49.4092 H   0  0  0  0  0  0  0  0  0  0  0  0
   57.4410   31.1863   47.6814 H   0  0  0  0  0  0  0  0  0  0  0  0
   57.7229   32.7324   46.7885 H   0  0  0  0  0  0  0  0  0  0  0  0
   57.6907   30.5622   45.3862 H   0  0  0  0  0  0  0  0  0  0  0  0
   59.0909   31.6700   45.1579 H   0  0  0  0  0  0  0  0  0  0  0  0
   58.9103   28.2846   45.0126 H   0  0  0  0  0  0  0  0  0  0  0  0
   59.8421   29.5888   44.1770 H   0  0  0  0  0  0  0  0  0  0  0  0
   61.5057   28.0402   44.2990 H   0  0  0  0  0  0  0  0  0  0  0  0
   61.6705   28.7948   45.9729 H   0  0  0  0  0  0  0  0  0  0  0  0
   60.2762   26.1907   45.3024 H   0  0  0  0  0  0  0  0  0  0  0  0
   61.9208   26.4419   46.1053 H   0  0  0  0  0  0  0  0  0  0  0  0
   59.1589   26.8704   47.2367 H   0  0  0  0  0  0  0  0  0  0  0  0
   60.5861   25.8886   47.8546 H   0  0  0  0  0  0  0  0  0  0  0  0
   61.7824   28.0419   48.2557 H   0  0  0  0  0  0  0  0  0  0  0  0
   60.1784   28.8737   47.9086 H   0  0  0  0  0  0  0  0  0  0  0  0
   59.6064   28.6776   50.0248 H   0  0  0  0  0  0  0  0  0  0  0  0
   59.7342   26.8713   49.8698 H   0  0  0  0  0  0  0  0  0  0  0  0
   60.1837   26.5536   51.8365 H   0  0  0  0  0  0  0  0  0  0  0  0
   61.9889   26.2862   51.9895 H   0  0  0  0  0  0  0  0  0  0  0  0
   60.6786   27.3050   54.0105 H   0  0  0  0  0  0  0  0  0  0  0  0
   62.2553   28.0086   53.5205 H   0  0  0  0  0  0  0  0  0  0  0  0
   59.9291   31.5766   53.9447 H   0  0  0  0  0  0  0  0  0  0  0  0
   57.8231   32.2050   55.1249 H   0  0  0  0  0  0  0  0  0  0  0  0
   56.0306   30.5055   55.4774 H   0  0  0  0  0  0  0  0  0  0  0  0
   56.3631   28.1582   54.6948 H   0  0  0  0  0  0  0  0  0  0  0  0
   58.4730   27.5153   53.5260 H   0  0  0  0  0  0  0  0  0  0  0  0
   60.2202   30.3997   51.3384 H   0  0  0  0  0  0  0  0  0  0  0  0
   61.6683   30.7983   52.3423 H   0  0  0  0  0  0  0  0  0  0  0  0
   62.0424   29.7182   49.9899 H   0  0  0  0  0  0  0  0  0  0  0  0
   62.9508   29.0627   51.4192 H   0  0  0  0  0  0  0  0  0  0  0  0
   61.0300   29.7181   47.6974 H   0  0  0  0  0  0  0  0  0  0  0  0
   61.5431   30.3985   46.0806 H   0  0  0  0  0  0  0  0  0  0  0  0
   61.4178   31.9657   48.2127 H   0  0  0  0  0  0  0  0  0  0  0  0
   60.8641   32.5401   46.5987 H   0  0  0  0  0  0  0  0  0  0  0  0
   57.2145   31.5393   49.5474 H   0  0  0  0  0  0  0  0  0  0  0  0
   53.8252   32.2737   50.9690 H   0  0  0  0  0  0  0  0  0  0  0  0
  1  2  1  0
  2  3  2  0
  2  4  1  0
  4  5  2  0
  5  6  1  0
  6  7  2  0
  7  8  1  0
  8  9  1  0
  9 10  2  0
  9 11  1  0
 11 12  1  0
 12 13  2  0
 13 14  1  0
 14 15  2  0
 15 16  1  0
 16 17  1  0
 17 18  1  0
 18 19  1  0
 19 20  1  0
 20 21  1  0
 21 22  1  0
 22 23  1  0
 23 24  1  0
 24 25  1  0
 25 26  1  0
 26 27  1  0
 27 28  1  0
 28 29  1  0
 29 30  1  0
 30 31  1  0
 31 32  2  0
 32 33  1  0
 33 34  2  0
 34 35  1  0
 35 36  2  0
 30 37  1  0
 37 38  1  0
 20 39  1  0
 39 40  1  0
 16 41  2  0
  8 42  2  0
 42  4  1  0
 41 12  1  0
 40 17  1  0
 38 27  1  0
 36 31  1  0
  1 43  1  0
  5 44  1  0
  6 45  1  0
  7 46  1  0
 11 47  1  0
 13 48  1  0
 14 49  1  0
 15 50  1  0
 18 51  1  0
 18 52  1  0
 19 53  1  0
 19 54  1  0
 21 55  1  0
 21 56  1  0
 22 57  1  0
 22 58  1  0
 23 59  1  0
 23 60  1  0
 24 61  1  0
 24 62  1  0
 25 63  1  0
 25 64  1  0
 26 65  1  0
 26 66  1  0
 28 67  1  0
 28 68  1  0
 29 69  1  0
 29 70  1  0
 32 71  1  0
 33 72  1  0
 34 73  1  0
 35 74  1  0
 36 75  1  0
 37 76  1  0
 37 77  1  0
 38 78  1  0
 38 79  1  0
 39 80  1  0
 39 81  1  0
 40 82  1  0
 40 83  1  0
 41 84  1  0
 42 85  1  0
M  CHG  1   1  -1
M  END
>  <UniqueID>  (21) 
20

>  <SMILES>  (21) 
[NH-]C(=O)c1cccc(C(=O)Nc2cccc(N3CCN(CCCCCCN4CCN(c5ccccc5)CC4)CC3)c2)c1

>  <Energy>  (21) 
118.87669565777213

>  <Genealogy>  (21) 
[NH-]C(=O)c1cccc(C(=O)Nc2cccc(N3CCN(CCCCCCN4CCN(c5ccccc5)CC4)CC3)c2)c1 (protonated)
[NH-]C(=O)c1cccc(C(=O)Nc2cccc(N3CCN(CCCCCCN4CCN(c5ccccc5)CC4)CC3)c2)c1 (3D coordinates assigned)
[NH-]C(=O)c1cccc(C(=O)Nc2cccc(N3CCN(CCCCCCN4CCN(c5ccccc5)CC4)CC3)c2)c1 (nonaromatic ring conformer: 118.87669565777213 kcal/mol)

>  <smiles>  (21) 
NC(=O)c1cccc(C(=O)Nc2cccc(N3CCN(CCCCCCN4CCN(c5ccccc5)CC4)CC3)c2)c1

>  <score_type>  (21) 
oracle

>  <origin>  (21) 
adg

>  <m_score__min__energy>  (21) 
-16.120000000000001

>  <m_primary>  (21) 
energy

$$$$
21:0
     RDKit          3D

 45 48  0  0  0  0  0  0  0  0999 V2000
   55.1410   27.4790   45.3980 H   0  0  0  0  0  0  0  0  0  0  0  0
   55.0010   26.7070   46.0380 O   0  0  0  0  0  0  0  0  0  0  0  0
   56.0340   25.8200   46.3470 C   0  0  0  0  0  0  0  0  0  0  0  0
   55.8610   24.7310   47.1110 N   0  0  0  0  0  0  0  0  0  0  0  0
   57.0860   24.1700   47.1130 C   0  0  0  0  0  0  0  0  0  0  0  0
   57.3390   23.1090   47.7360 O   0  0  0  0  0  0  0  0  0  0  0  0
   58.0180   24.8330   46.3960 N   0  0  0  0  0  0  0  0  0  0  0  0
   57.3450   25.8960   45.9220 C   0  0  0  0  0  0  0  0  0  0  0  0
   57.9580   26.9270   45.0660 C   0  0  0  0  0  0  0  0  0  0  0  0
   58.3273   26.6354   44.0717 H   0  0  0  0  0  0  0  0  0  0  0  0
   58.0850   28.2130   45.4510 C   0  0  0  0  0  0  0  0  0  0  0  0
   57.4200   29.3120   44.9140 C   0  0  0  0  0  0  0  0  0  0  0  0
   56.7059   29.3108   44.0773 H   0  0  0  0  0  0  0  0  0  0  0  0
   57.8400   30.4020   45.6460 C   0  0  0  0  0  0  0  0  0  0  0  0
   57.3970   31.7910   45.4440 C   0  0  0  0  0  0  0  0  0  0  0  0
   56.5180   32.0440   44.5710 O   0  0  0  0  0  0  0  0  0  0  0  0
   57.9970   32.8670   46.1860 N   0  0  0  0  0  0  0  0  0  0  0  0
   57.9520   32.8510   47.6600 C   0  0  0  0  0  0  0  0  0  0  0  0
   56.9740   33.2278   47.9940 H   0  0  0  0  0  0  0  0  0  0  0  0
   58.1050   31.8174   48.0038 H   0  0  0  0  0  0  0  0  0  0  0  0
   59.0620   33.7350   48.2560 C   0  0  0  0  0  0  0  0  0  0  0  0
   58.7611   34.7914   48.1968 H   0  0  0  0  0  0  0  0  0  0  0  0
   59.2256   33.4592   49.3082 H   0  0  0  0  0  0  0  0  0  0  0  0
   60.3070   33.5360   47.4970 N   0  0  0  0  0  0  0  0  0  0  0  0
   61.5280   33.2160   48.1900 C   0  0  0  0  0  0  0  0  0  0  0  0
   61.4810   32.5700   49.2720 O   0  0  0  0  0  0  0  0  0  0  0  0
   62.8530   33.7250   47.6810 C   0  0  0  0  0  0  0  0  0  0  0  0
   62.4892   34.7410   47.4678 H   0  0  0  0  0  0  0  0  0  0  0  0
   64.0890   33.1370   48.3520 C   0  0  0  0  0  0  0  0  0  0  0  0
   64.9755   33.7664   48.5194 H   0  0  0  0  0  0  0  0  0  0  0  0
   64.2834   32.6107   49.2982 H   0  0  0  0  0  0  0  0  0  0  0  0
   63.7160   32.7080   46.9390 C   0  0  0  0  0  0  0  0  0  0  0  0
   64.3327   33.0280   46.0862 H   0  0  0  0  0  0  0  0  0  0  0  0
   63.5293   31.7444   46.4423 H   0  0  0  0  0  0  0  0  0  0  0  0
   60.2970   33.6740   46.0230 C   0  0  0  0  0  0  0  0  0  0  0  0
   60.8828   34.5616   45.7420 H   0  0  0  0  0  0  0  0  0  0  0  0
   60.7352   32.7648   45.5855 H   0  0  0  0  0  0  0  0  0  0  0  0
   58.8650   33.8290   45.4880 C   0  0  0  0  0  0  0  0  0  0  0  0
   58.5085   34.8528   45.6741 H   0  0  0  0  0  0  0  0  0  0  0  0
   58.8452   33.6365   44.4051 H   0  0  0  0  0  0  0  0  0  0  0  0
   58.6900   30.0220   46.5760 O   0  0  0  0  0  0  0  0  0  0  0  0
   58.8650   28.7190   46.4880 C   0  0  0  0  0  0  0  0  0  0  0  0
   59.6840   28.0420   47.2960 C   0  0  0  0  0  0  0  0  0  0  0  0
   59.7945   26.9537   47.1807 H   0  0  0  0  0  0  0  0  0  0  0  0
   60.2483   28.5725   48.0771 H   0  0  0  0  0  0  0  0  0  0  0  0
  1  2  1  0
  2  3  1  0
  3  4  1  0
  4  5  1  0
  5  6  2  0
  5  7  1  0
  7  8  1  0
  8  9  1  0
  9 10  1  0
  9 11  2  0
 11 12  1  0
 12 13  1  0
 12 14  2  0
 14 15  1  0
 15 16  2  0
 15 17  1  0
 17 18  1  0
 18 19  1  0
 18 20  1  0
 18 21  1  0
 21 22  1  0
 21 23  1  0
 21 24  1  0
 24 25  1  0
 25 26  2  0
 25 27  1  0
 27 28  1  0
 27 29  1  0
 29 30  1  0
 29 31  1  0
 29 32  1  0
 32 33  1  0
 32 34  1  0
 24 35  1  0
 35 36  1  0
 35 37  1  0
 35 38  1  0
 38 39  1  0
 38 40  1  0
 14 41  1  0
 41 42  1  0
 42 43  2  0
 43 44  1  0
 43 45  1  0
  8  3  2  0
 42 11  1  0
 38 17  1  0
 32 27  1  0
M  CHG  2   4  -1   7  -1
M  END
>  <UniqueID>  (22) 
21

>  <SMILES>  (22) 
C=c1oc(C(=O)N2CCN(C(=O)C3CC3)CC2)c/c1=C\c1[n-]c(=O)[n-]c1O

>  <Energy>  (22) 
378.50380943370527

>  <Genealogy>  (22) 
C=c1oc(C(=O)N2CCN(C(=O)C3CC3)CC2)cc1=Cc1[n-]c(=O)[n-]c1O (protonated)
C=c1oc(C(=O)N2CCN(C(=O)C3CC3)CC2)c/c1=C\c1[n-]c(=O)[n-]c1O (cis-trans isomerization)
C=c1oc(C(=O)N2CCN(C(=O)C3CC3)CC2)c/c1=C\c1[n-]c(=O)[n-]c1O (3D coordinates assigned)
C=c1oc(C(=O)N2CCN(C(=O)C3CC3)CC2)c/c1=C\c1[n-]c(=O)[n-]c1O (nonaromatic ring conformer: 378.50380943370527 kcal/mol)

>  <smiles>  (22) 
C=c1oc(C(=O)N2CCN(C(=O)C3CC3)CC2)cc1=Cc1[nH]c(=O)[nH]c1O

>  <score_type>  (22) 
oracle

>  <origin>  (22) 
adg

>  <m_score__min__energy>  (22) 
-13.18

>  <m_primary>  (22) 
energy

$$$$
22:0
     RDKit          3D

 74 77  0  0  0  0  0  0  0  0999 V2000
   51.5380   24.0660   44.2220 C   0  0  0  0  0  0  0  0  0  0  0  0
   52.3710   23.0040   44.6320 O   0  0  0  0  0  0  0  0  0  0  0  0
   52.2900   22.8250   46.0330 C   0  0  0  0  0  0  0  0  0  0  0  0
   53.6950   22.6010   46.6140 C   0  0  0  0  0  0  0  0  0  0  0  0
   54.7840   22.5310   45.5270 C   0  0  0  0  0  0  0  0  0  0  0  0
   55.8640   23.6330   45.6560 C   0  0  0  0  0  0  0  0  0  0  0  0
   56.9460   23.5170   44.5410 C   0  0  0  0  0  0  0  0  0  0  0  0
   57.4350   24.8760   44.0180 C   0  0  0  0  0  0  0  0  0  0  0  0
   57.4790   25.8600   45.1050 N   0  0  0  0  0  0  0  0  0  0  0  0
   58.7410   26.3940   45.5390 C   0  0  0  0  0  0  0  0  0  0  0  0
   59.7420   25.6300   45.6230 O   0  0  0  0  0  0  0  0  0  0  0  0
   58.8800   27.8170   45.9170 C   0  0  0  0  0  0  0  0  0  0  0  0
   59.8090   28.2000   46.8960 C   0  0  0  0  0  0  0  0  0  0  0  0
   59.9600   29.5450   47.2360 C   0  0  0  0  0  0  0  0  0  0  0  0
   59.1950   30.5370   46.5980 C   0  0  0  0  0  0  0  0  0  0  0  0
   59.4480   31.9480   46.9570 C   0  0  0  0  0  0  0  0  0  0  0  0
   59.9580   32.8380   46.0000 C   0  0  0  0  0  0  0  0  0  0  0  0
   60.2680   34.1520   46.3580 C   0  0  0  0  0  0  0  0  0  0  0  0
   60.0770   34.5840   47.6720 C   0  0  0  0  0  0  0  0  0  0  0  0
   59.5540   33.7110   48.6350 C   0  0  0  0  0  0  0  0  0  0  0  0
   59.4000   34.1810   49.9780 N   0  0  0  0  0  0  0  0  0  0  0  0
   59.0320   33.1800   51.3480 S   0  0  0  0  0  0  0  0  0  0  0  0
   57.6270   32.6680   51.1950 O   0  0  0  0  0  0  0  0  0  0  0  0
   59.1040   33.9520   52.6330 O   0  0  0  0  0  0  0  0  0  0  0  0
   60.1800   31.8300   51.3690 C   0  0  0  0  0  0  0  0  0  0  0  0
   61.5080   32.0820   51.7600 C   0  0  0  0  0  0  0  0  0  0  0  0
   62.4160   31.0320   51.9220 C   0  0  0  0  0  0  0  0  0  0  0  0
   62.0080   29.7170   51.7080 C   0  0  0  0  0  0  0  0  0  0  0  0
   60.6920   29.4490   51.3210 C   0  0  0  0  0  0  0  0  0  0  0  0
   59.7710   30.4930   51.1380 C   0  0  0  0  0  0  0  0  0  0  0  0
   58.4050   30.1480   50.7100 C   0  0  0  0  0  0  0  0  0  0  0  0
   58.1550   29.9640   49.4910 O   0  0  0  0  0  0  0  0  0  0  0  0
   57.3790   30.0660   51.6470 O   0  0  0  0  0  0  0  0  0  0  0  0
   59.2590   32.3840   48.2790 C   0  0  0  0  0  0  0  0  0  0  0  0
   58.2440   30.1620   45.6140 C   0  0  0  0  0  0  0  0  0  0  0  0
   57.2130   31.3590   44.8060 S   0  0  0  0  0  0  0  0  0  0  0  0
   57.9140   31.9090   43.2610 C   0  0  0  0  0  0  0  0  0  0  0  0
   55.8750   30.7480   44.5000 O   0  0  0  0  0  0  0  0  0  0  0  0
   57.0280   32.5500   45.7020 O   0  0  0  0  0  0  0  0  0  0  0  0
   58.1120   28.8040   45.2760 C   0  0  0  0  0  0  0  0  0  0  0  0
   56.2640   26.1170   45.8930 C   0  0  0  0  0  0  0  0  0  0  0  0
   55.2050   25.0290   45.6620 C   0  0  0  0  0  0  0  0  0  0  0  0
   51.1354   24.5792   45.1077 H   0  0  0  0  0  0  0  0  0  0  0  0
   52.1212   24.7778   43.6193 H   0  0  0  0  0  0  0  0  0  0  0  0
   50.7078   23.6692   43.6193 H   0  0  0  0  0  0  0  0  0  0  0  0
   51.8450   23.7211   46.4900 H   0  0  0  0  0  0  0  0  0  0  0  0
   51.6641   21.9469   46.2502 H   0  0  0  0  0  0  0  0  0  0  0  0
   53.9307   23.4320   47.2951 H   0  0  0  0  0  0  0  0  0  0  0  0
   53.6871   21.6343   47.1388 H   0  0  0  0  0  0  0  0  0  0  0  0
   55.2785   21.5507   45.5935 H   0  0  0  0  0  0  0  0  0  0  0  0
   54.2829   22.6836   44.5597 H   0  0  0  0  0  0  0  0  0  0  0  0
   56.3828   23.4905   46.6154 H   0  0  0  0  0  0  0  0  0  0  0  0
   57.8088   22.9699   44.9487 H   0  0  0  0  0  0  0  0  0  0  0  0
   56.4819   22.9920   43.6931 H   0  0  0  0  0  0  0  0  0  0  0  0
   58.4435   24.7592   43.5946 H   0  0  0  0  0  0  0  0  0  0  0  0
   56.7376   25.2312   43.2450 H   0  0  0  0  0  0  0  0  0  0  0  0
   60.4213   27.4364   47.3980 H   0  0  0  0  0  0  0  0  0  0  0  0
   60.6854   29.8321   48.0115 H   0  0  0  0  0  0  0  0  0  0  0  0
   60.1142   32.5001   44.9649 H   0  0  0  0  0  0  0  0  0  0  0  0
   60.6634   34.8478   45.6034 H   0  0  0  0  0  0  0  0  0  0  0  0
   60.3385   35.6150   47.9525 H   0  0  0  0  0  0  0  0  0  0  0  0
   61.8350   33.1167   51.9401 H   0  0  0  0  0  0  0  0  0  0  0  0
   63.4538   31.2439   52.2187 H   0  0  0  0  0  0  0  0  0  0  0  0
   62.7211   28.8905   51.8435 H   0  0  0  0  0  0  0  0  0  0  0  0
   60.3742   28.4086   51.1580 H   0  0  0  0  0  0  0  0  0  0  0  0
   58.8788   31.6844   49.0379 H   0  0  0  0  0  0  0  0  0  0  0  0
   58.7649   32.5766   43.4615 H   0  0  0  0  0  0  0  0  0  0  0  0
   58.2591   31.0382   42.6843 H   0  0  0  0  0  0  0  0  0  0  0  0
   57.1503   32.4514   42.6843 H   0  0  0  0  0  0  0  0  0  0  0  0
   57.3949   28.5086   44.4960 H   0  0  0  0  0  0  0  0  0  0  0  0
   56.5279   26.1385   46.9607 H   0  0  0  0  0  0  0  0  0  0  0  0
   55.8432   27.0823   45.5751 H   0  0  0  0  0  0  0  0  0  0  0  0
   54.4570   25.0738   46.4673 H   0  0  0  0  0  0  0  0  0  0  0  0
   54.7216   25.2008   44.6889 H   0  0  0  0  0  0  0  0  0  0  0  0
  1  2  1  0
  2  3  1  0
  3  4  1  0
  4  5  1  0
  5  6  1  0
  6  7  1  0
  7  8  1  0
  8  9  1  0
  9 10  1  0
 10 11  2  0
 10 12  1  0
 12 13  2  0
 13 14  1  0
 14 15  2  0
 15 16  1  0
 16 17  2  0
 17 18  1  0
 18 19  2  0
 19 20  1  0
 20 21  1  0
 21 22  1  0
 22 23  2  0
 22 24  2  0
 22 25  1  0
 25 26  2  0
 26 27  1  0
 27 28  2  0
 28 29  1  0
 29 30  2  0
 30 31  1  0
 31 32  2  0
 31 33  1  0
 20 34  2  0
 15 35  1  0
 35 36  1  0
 36 37  1  0
 36 38  2  0
 36 39  2  0
 35 40  2  0
  9 41  1  0
 41 42  1  0
 42  6  1  0
 40 12  1  0
 34 16  1  0
 30 25  1  0
  1 43  1  0
  1 44  1  0
  1 45  1  0
  3 46  1  0
  3 47  1  0
  4 48  1  0
  4 49  1  0
  5 50  1  0
  5 51  1  0
  6 52  1  0
  7 53  1  0
  7 54  1  0
  8 55  1  0
  8 56  1  0
 13 57  1  0
 14 58  1  0
 17 59  1  0
 18 60  1  0
 19 61  1  0
 26 62  1  0
 27 63  1  0
 28 64  1  0
 29 65  1  0
 34 66  1  0
 37 67  1  0
 37 68  1  0
 37 69  1  0
 40 70  1  0
 41 71  1  0
 41 72  1  0
 42 73  1  0
 42 74  1  0
M  CHG  2  21  -1  33  -1
M  END
>  <UniqueID>  (23) 
22

>  <SMILES>  (23) 
COCCCC1CCN(C(=O)c2ccc(-c3cccc([N-]S(=O)(=O)c4ccccc4C(=O)[O-])c3)c(S(C)(=O)=O)c2)CC1

>  <Energy>  (23) 
104.53321753924965

>  <Genealogy>  (23) 
COCCCC1CCN(C(=O)c2ccc(-c3cccc([N-]S(=O)(=O)c4ccccc4C(=O)[O-])c3)c(S(C)(=O)=O)c2)CC1 (protonated)
COCCCC1CCN(C(=O)c2ccc(-c3cccc([N-]S(=O)(=O)c4ccccc4C(=O)[O-])c3)c(S(C)(=O)=O)c2)CC1 (3D coordinates assigned)
COCCCC1CCN(C(=O)c2ccc(-c3cccc([N-]S(=O)(=O)c4ccccc4C(=O)[O-])c3)c(S(C)(=O)=O)c2)CC1 (nonaromatic ring conformer: 104.53321753924965 kcal/mol)

>  <smiles>  (23) 
COCCCC1CCN(C(=O)c2ccc(-c3cccc(NS(=O)(=O)c4ccccc4C(=O)O)c3)c(S(C)(=O)=O)c2)CC1

>  <score_type>  (23) 
oracle

>  <origin>  (23) 
adg

>  <m_score__min__energy>  (23) 
-14.390000000000001

>  <m_primary>  (23) 
energy

$$$$
23:0
     RDKit          3D

 44 46  0  0  0  0  0  0  0  0999 V2000
   59.7740   34.5790   45.9680 C   0  0  0  0  0  0  0  0  0  0  0  0
   59.1380   33.2290   45.8830 C   0  0  0  0  0  0  0  0  0  0  0  0
   57.9480   33.0540   45.1700 C   0  0  0  0  0  0  0  0  0  0  0  0
   57.3740   31.7850   45.1070 C   0  0  0  0  0  0  0  0  0  0  0  0
   56.3050   31.6230   44.4580 O   0  0  0  0  0  0  0  0  0  0  0  0
   58.0020   30.7060   45.7610 C   0  0  0  0  0  0  0  0  0  0  0  0
   59.2000   30.9640   46.4600 C   0  0  0  0  0  0  0  0  0  0  0  0
   59.7070   32.1940   46.4950 O   0  0  0  0  0  0  0  0  0  0  0  0
   59.8980   29.8710   47.2230 C   0  0  0  0  0  0  0  0  0  0  0  0
   59.7570   28.5140   46.5260 C   0  0  0  0  0  0  0  0  0  0  0  0
   58.3140   28.2090   46.2360 C   0  0  0  0  0  0  0  0  0  0  0  0
   57.8970   26.9840   46.4000 N   0  0  0  0  0  0  0  0  0  0  0  0
   58.5880   25.8990   47.0920 C   0  0  0  0  0  0  0  0  0  0  0  0
   59.4670   25.1240   46.1070 C   0  0  0  0  0  0  0  0  0  0  0  0
   58.7900   23.8400   45.6250 C   0  0  0  0  0  0  0  0  0  0  0  0
   58.0620   24.1070   44.3870 N   0  0  0  0  0  0  0  0  0  0  0  0
   56.9870   24.8350   44.2930 C   0  0  0  0  0  0  0  0  0  0  0  0
   55.6610   24.3680   44.7480 C   0  0  0  0  0  0  0  0  0  0  0  0
   54.8470   25.2020   45.5280 C   0  0  0  0  0  0  0  0  0  0  0  0
   55.2710   26.4840   45.8650 O   0  0  0  0  0  0  0  0  0  0  0  0
   53.6330   24.7600   45.9500 N   0  0  0  0  0  0  0  0  0  0  0  0
   53.1930   23.5140   45.6380 C   0  0  0  0  0  0  0  0  0  0  0  0
   52.0640   23.1290   46.0360 O   0  0  0  0  0  0  0  0  0  0  0  0
   53.9730   22.6820   44.9010 N   0  0  0  0  0  0  0  0  0  0  0  0
   55.1950   23.0750   44.4580 C   0  0  0  0  0  0  0  0  0  0  0  0
   55.9040   22.2660   43.8020 O   0  0  0  0  0  0  0  0  0  0  0  0
   57.4630   29.3200   45.7250 C   0  0  0  0  0  0  0  0  0  0  0  0
   56.3130   29.0980   45.2600 O   0  0  0  0  0  0  0  0  0  0  0  0
   59.9049   34.8568   47.0243 H   0  0  0  0  0  0  0  0  0  0  0  0
   60.7551   34.5541   45.4711 H   0  0  0  0  0  0  0  0  0  0  0  0
   59.1301   35.3196   45.4711 H   0  0  0  0  0  0  0  0  0  0  0  0
   57.4707   33.9068   44.6651 H   0  0  0  0  0  0  0  0  0  0  0  0
   60.9663   30.1201   47.3054 H   0  0  0  0  0  0  0  0  0  0  0  0
   59.4328   29.7958   48.2169 H   0  0  0  0  0  0  0  0  0  0  0  0
   60.3182   28.5346   45.5801 H   0  0  0  0  0  0  0  0  0  0  0  0
   60.1551   27.7335   47.1911 H   0  0  0  0  0  0  0  0  0  0  0  0
   59.2183   26.3191   47.8897 H   0  0  0  0  0  0  0  0  0  0  0  0
   57.8430   25.2155   47.5253 H   0  0  0  0  0  0  0  0  0  0  0  0
   59.6754   25.7641   45.2370 H   0  0  0  0  0  0  0  0  0  0  0  0
   60.3957   24.8449   46.6263 H   0  0  0  0  0  0  0  0  0  0  0  0
   59.5535   23.0696   45.4422 H   0  0  0  0  0  0  0  0  0  0  0  0
   58.0874   23.4858   46.3937 H   0  0  0  0  0  0  0  0  0  0  0  0
   57.0692   25.8411   43.8560 H   0  0  0  0  0  0  0  0  0  0  0  0
   55.9980   26.9480   45.3340 H   0  0  0  0  0  0  0  0  0  0  0  0
  1  2  1  0
  2  3  2  0
  3  4  1  0
  4  5  2  0
  4  6  1  0
  6  7  2  0
  7  8  1  0
  7  9  1  0
  9 10  1  0
 10 11  1  0
 11 12  2  3
 12 13  1  0
 13 14  1  0
 14 15  1  0
 15 16  1  0
 16 17  2  3
 17 18  1  0
 18 19  2  0
 19 20  1  0
 19 21  1  0
 21 22  1  0
 22 23  2  0
 22 24  1  0
 24 25  1  0
 25 26  2  0
 11 27  1  0
 27 28  2  0
  8  2  1  0
 25 18  1  0
 27  6  1  0
  1 29  1  0
  1 30  1  0
  1 31  1  0
  3 32  1  0
  9 33  1  0
  9 34  1  0
 10 35  1  0
 10 36  1  0
 13 37  1  0
 13 38  1  0
 14 39  1  0
 14 40  1  0
 15 41  1  0
 15 42  1  0
 17 43  1  0
 20 44  1  0
M  CHG  2  21  -1  24  -1
M  END
>  <UniqueID>  (24) 
23

>  <SMILES>  (24) 
Cc1cc(=O)c2c(o1)CCC(=NCCCN=Cc1c(O)[n-]c(=O)[n-]c1=O)C2=O

>  <Energy>  (24) 
54.66241094257254

>  <Genealogy>  (24) 
Cc1cc(=O)c2c(o1)CCC(=NCCCN=Cc1c(O)[n-]c(=O)[n-]c1=O)C2=O (protonated)
Cc1cc(=O)c2c(o1)CCC(=NCCCN=Cc1c(O)[n-]c(=O)[n-]c1=O)C2=O (3D coordinates assigned)
Cc1cc(=O)c2c(o1)CCC(=NCCCN=Cc1c(O)[n-]c(=O)[n-]c1=O)C2=O (nonaromatic ring conformer: 54.66241094257254 kcal/mol)

>  <smiles>  (24) 
Cc1cc(=O)c2c(o1)CCC(=NCCCN=Cc1c(O)[nH]c(=O)[nH]c1=O)C2=O

>  <score_type>  (24) 
oracle

>  <origin>  (24) 
adg

>  <m_score__min__energy>  (24) 
-12.93

>  <m_primary>  (24) 
energy

$$$$
24:0
     RDKit          3D

 73 77  0  0  0  0  0  0  0  0999 V2000
   58.9270   33.9080   54.3530 C   0  0  0  0  0  0  0  0  0  0  0  0
   59.2040   33.3220   53.0360 N   0  0  0  0  0  0  0  0  0  0  0  0
   58.0600   32.4980   52.5810 C   0  0  0  0  0  0  0  0  0  0  0  0
   58.4100   31.6570   51.3310 C   0  0  0  0  0  0  0  0  0  0  0  0
   59.7070   32.0080   50.7120 N   0  0  0  0  0  0  0  0  0  0  0  0
   59.5670   33.3190   49.5490 S   0  0  0  0  0  0  0  0  0  0  0  0
   58.4100   33.0760   48.6270 O   0  0  0  0  0  0  0  0  0  0  0  0
   59.2760   34.5940   50.2950 O   0  0  0  0  0  0  0  0  0  0  0  0
   61.0250   33.5560   48.5940 C   0  0  0  0  0  0  0  0  0  0  0  0
   60.8900   33.7650   47.2100 C   0  0  0  0  0  0  0  0  0  0  0  0
   62.0100   33.8420   46.3920 C   0  0  0  0  0  0  0  0  0  0  0  0
   63.2760   33.6780   46.9440 C   0  0  0  0  0  0  0  0  0  0  0  0
   63.4480   33.4510   48.3210 C   0  0  0  0  0  0  0  0  0  0  0  0
   64.7860   33.1250   48.7380 N   0  0  0  0  0  0  0  0  0  0  0  0
   65.3120   32.5500   49.7830 C   0  0  0  0  0  0  0  0  0  0  0  0
   64.8820   31.3480   50.2820 N   0  0  0  0  0  0  0  0  0  0  0  0
   65.4760   30.8050   51.3940 C   0  0  0  0  0  0  0  0  0  0  0  0
   65.0530   29.6160   51.9990 O   0  0  0  0  0  0  0  0  0  0  0  0
   63.8010   28.9910   51.9680 C   0  0  0  0  0  0  0  0  0  0  0  0
   63.7160   27.7170   52.5370 C   0  0  0  0  0  0  0  0  0  0  0  0
   62.5830   26.9250   52.3570 C   0  0  0  0  0  0  0  0  0  0  0  0
   61.5120   27.4040   51.6030 C   0  0  0  0  0  0  0  0  0  0  0  0
   61.5620   28.6970   51.0440 C   0  0  0  0  0  0  0  0  0  0  0  0
   60.5010   29.1670   50.1950 N   0  0  0  0  0  0  0  0  0  0  0  0
   60.2130   28.6230   48.8970 C   0  0  0  0  0  0  0  0  0  0  0  0
   60.6920   27.5090   48.5540 O   0  0  0  0  0  0  0  0  0  0  0  0
   59.3270   29.3350   47.9600 C   0  0  0  0  0  0  0  0  0  0  0  0
   58.5700   30.2620   48.3730 O   0  0  0  0  0  0  0  0  0  0  0  0
   59.2880   28.9420   46.5050 C   0  0  0  0  0  0  0  0  0  0  0  0
   58.0580   29.5140   45.8350 C   0  0  0  0  0  0  0  0  0  0  0  0
   57.0100   28.8020   45.7960 O   0  0  0  0  0  0  0  0  0  0  0  0
   58.0120   30.8770   45.2430 C   0  0  0  0  0  0  0  0  0  0  0  0
   58.0810   32.0340   46.0550 C   0  0  0  0  0  0  0  0  0  0  0  0
   58.0270   33.3060   45.4680 C   0  0  0  0  0  0  0  0  0  0  0  0
   57.8730   33.4420   44.0870 C   0  0  0  0  0  0  0  0  0  0  0  0
   57.7790   32.3040   43.2760 C   0  0  0  0  0  0  0  0  0  0  0  0
   57.8450   31.0320   43.8530 C   0  0  0  0  0  0  0  0  0  0  0  0
   62.7090   29.4930   51.2470 C   0  0  0  0  0  0  0  0  0  0  0  0
   66.5200   31.4950   52.0250 C   0  0  0  0  0  0  0  0  0  0  0  0
   67.2770   30.8750   53.4790 Cl  0  0  0  0  0  0  0  0  0  0  0  0
   66.9180   32.7240   51.5190 C   0  0  0  0  0  0  0  0  0  0  0  0
   66.3080   33.2160   50.4170 N   0  0  0  0  0  0  0  0  0  0  0  0
   62.3110   33.3980   49.1580 C   0  0  0  0  0  0  0  0  0  0  0  0
   60.8480   32.1500   51.6470 C   0  0  0  0  0  0  0  0  0  0  0  0
   60.4140   32.4890   53.0790 C   0  0  0  0  0  0  0  0  0  0  0  0
   59.2555   33.2131   55.1399 H   0  0  0  0  0  0  0  0  0  0  0  0
   59.4710   34.8588   54.4530 H   0  0  0  0  0  0  0  0  0  0  0  0
   57.8470   34.0912   54.4530 H   0  0  0  0  0  0  0  0  0  0  0  0
   57.7662   31.8187   53.3948 H   0  0  0  0  0  0  0  0  0  0  0  0
   57.2380   33.1780   52.3127 H   0  0  0  0  0  0  0  0  0  0  0  0
   58.4429   30.5976   51.6253 H   0  0  0  0  0  0  0  0  0  0  0  0
   57.6332   31.8649   50.5805 H   0  0  0  0  0  0  0  0  0  0  0  0
   59.8869   33.8686   46.7705 H   0  0  0  0  0  0  0  0  0  0  0  0
   61.8964   34.0315   45.3144 H   0  0  0  0  0  0  0  0  0  0  0  0
   64.1597   33.7268   46.2908 H   0  0  0  0  0  0  0  0  0  0  0  0
   64.5555   27.3338   53.1356 H   0  0  0  0  0  0  0  0  0  0  0  0
   62.5338   25.9234   52.8091 H   0  0  0  0  0  0  0  0  0  0  0  0
   60.6263   26.7713   51.4442 H   0  0  0  0  0  0  0  0  0  0  0  0
   59.8520   29.8890   50.5810 H   0  0  0  0  0  0  0  0  0  0  0  0
   60.1869   29.3275   46.0016 H   0  0  0  0  0  0  0  0  0  0  0  0
   59.2547   27.8448   46.4334 H   0  0  0  0  0  0  0  0  0  0  0  0
   58.1770   31.9353   47.1464 H   0  0  0  0  0  0  0  0  0  0  0  0
   58.1065   34.2030   46.0997 H   0  0  0  0  0  0  0  0  0  0  0  0
   57.8255   34.4439   43.6355 H   0  0  0  0  0  0  0  0  0  0  0  0
   57.6536   32.4105   42.1884 H   0  0  0  0  0  0  0  0  0  0  0  0
   57.7655   30.1408   43.2131 H   0  0  0  0  0  0  0  0  0  0  0  0
   62.7464   30.5131   50.8372 H   0  0  0  0  0  0  0  0  0  0  0  0
   67.7219   33.2926   52.0094 H   0  0  0  0  0  0  0  0  0  0  0  0
   62.4259   33.2351   50.2398 H   0  0  0  0  0  0  0  0  0  0  0  0
   61.4057   31.2020   51.6653 H   0  0  0  0  0  0  0  0  0  0  0  0
   61.4665   32.9847   51.2854 H   0  0  0  0  0  0  0  0  0  0  0  0
   60.2010   31.5599   53.6280 H   0  0  0  0  0  0  0  0  0  0  0  0
   61.2205   33.0370   53.5882 H   0  0  0  0  0  0  0  0  0  0  0  0
  1  2  1  0
  2  3  1  0
  3  4  1  0
  4  5  1  0
  5  6  1  0
  6  7  2  0
  6  8  2  0
  6  9  1  0
  9 10  2  0
 10 11  1  0
 11 12  2  0
 12 13  1  0
 13 14  1  0
 14 15  2  3
 15 16  1  0
 16 17  2  0
 17 18  1  0
 18 19  1  0
 19 20  2  0
 20 21  1  0
 21 22  2  0
 22 23  1  0
 23 24  1  0
 24 25  1  0
 25 26  2  0
 25 27  1  0
 27 28  2  0
 27 29  1  0
 29 30  1  0
 30 31  2  0
 30 32  1  0
 32 33  2  0
 33 34  1  0
 34 35  2  0
 35 36  1  0
 36 37  2  0
 23 38  2  0
 17 39  1  0
 39 40  1  0
 39 41  2  0
 41 42  1  0
 13 43  2  0
  5 44  1  0
 44 45  1  0
 45  2  1  0
 43  9  1  0
 42 15  1  0
 38 19  1  0
 37 32  1  0
  1 46  1  0
  1 47  1  0
  1 48  1  0
  3 49  1  0
  3 50  1  0
  4 51  1  0
  4 52  1  0
 10 53  1  0
 11 54  1  0
 12 55  1  0
 20 56  1  0
 21 57  1  0
 22 58  1  0
 24 59  1  0
 29 60  1  0
 29 61  1  0
 33 62  1  0
 34 63  1  0
 35 64  1  0
 36 65  1  0
 37 66  1  0
 38 67  1  0
 41 68  1  0
 43 69  1  0
 44 70  1  0
 44 71  1  0
 45 72  1  0
 45 73  1  0
M  CHG  1  42  -1
M  END
>  <UniqueID>  (25) 
24

>  <SMILES>  (25) 
CN1CCN(S(=O)(=O)c2cccc(N=c3nc(Oc4cccc(NC(=O)C(=O)CC(=O)c5ccccc5)c4)c(Cl)c[n-]3)c2)CC1

>  <Energy>  (25) 
108.40223749709084

>  <Genealogy>  (25) 
CN1CCN(S(=O)(=O)c2cccc(N=c3nc(Oc4cccc(NC(=O)C(=O)CC(=O)c5ccccc5)c4)c(Cl)c[n-]3)c2)CC1 (protonated)
CN1CCN(S(=O)(=O)c2cccc(N=c3nc(Oc4cccc(NC(=O)C(=O)CC(=O)c5ccccc5)c4)c(Cl)c[n-]3)c2)CC1 (3D coordinates assigned)
CN1CCN(S(=O)(=O)c2cccc(N=c3nc(Oc4cccc(NC(=O)C(=O)CC(=O)c5ccccc5)c4)c(Cl)c[n-]3)c2)CC1 (nonaromatic ring conformer: 108.40223749709084 kcal/mol)

>  <smiles>  (25) 
CN1CCN(S(=O)(=O)c2cccc(N=c3nc(Oc4cccc(NC(=O)C(=O)CC(=O)c5ccccc5)c4)c(Cl)c[nH]3)c2)CC1

>  <score_type>  (25) 
oracle

>  <origin>  (25) 
adg

>  <m_score__min__energy>  (25) 
-11.83

>  <m_primary>  (25) 
energy

$$$$
25:0
     RDKit          3D

 57 60  0  0  0  0  0  0  0  0999 V2000
   56.3190   29.4980   45.2110 O   0  0  0  0  0  0  0  0  0  0  0  0
   57.4140   29.1130   45.7010 C   0  0  0  0  0  0  0  0  0  0  0  0
   57.5440   27.7140   46.2200 C   0  0  0  0  0  0  0  0  0  0  0  0
   56.9210   26.7570   45.2830 N   0  0  0  0  0  0  0  0  0  0  0  0
   57.9350   26.1500   44.3860 C   0  0  0  0  0  0  0  0  0  0  0  0
   57.3410   25.0030   43.5680 C   0  0  0  0  0  0  0  0  0  0  0  0
   56.7760   23.9830   44.4560 N   0  0  0  0  0  0  0  0  0  0  0  0
   56.3700   22.7170   43.9000 C   0  0  0  0  0  0  0  0  0  0  0  0
   55.9060   22.6780   42.7280 O   0  0  0  0  0  0  0  0  0  0  0  0
   56.5050   21.4520   44.6420 C   0  0  0  0  0  0  0  0  0  0  0  0
   57.4550   21.1450   45.6010 C   0  0  0  0  0  0  0  0  0  0  0  0
   57.1990   19.8420   45.9710 C   0  0  0  0  0  0  0  0  0  0  0  0
   56.1200   19.4320   45.2190 C   0  0  0  0  0  0  0  0  0  0  0  0
   55.7330   20.4110   44.4350 O   0  0  0  0  0  0  0  0  0  0  0  0
   56.5420   24.3130   45.8680 C   0  0  0  0  0  0  0  0  0  0  0  0
   56.0590   25.7670   45.9940 C   0  0  0  0  0  0  0  0  0  0  0  0
   58.5360   30.0030   45.7650 N   0  0  0  0  0  0  0  0  0  0  0  0
   58.4080   31.4330   45.7060 C   0  0  0  0  0  0  0  0  0  0  0  0
   57.3770   32.0190   44.9510 C   0  0  0  0  0  0  0  0  0  0  0  0
   57.2310   33.4100   44.9080 C   0  0  0  0  0  0  0  0  0  0  0  0
   58.1110   34.2300   45.6150 C   0  0  0  0  0  0  0  0  0  0  0  0
   59.1390   33.6600   46.3680 C   0  0  0  0  0  0  0  0  0  0  0  0
   59.2940   32.2660   46.4260 C   0  0  0  0  0  0  0  0  0  0  0  0
   60.4060   31.7110   47.2210 C   0  0  0  0  0  0  0  0  0  0  0  0
   60.2480   30.5990   47.7920 O   0  0  0  0  0  0  0  0  0  0  0  0
   61.6430   32.4360   47.3800 N   0  0  0  0  0  0  0  0  0  0  0  0
   62.4630   32.1660   48.5750 C   0  0  0  0  0  0  0  0  0  0  0  0
   63.8030   32.9140   48.5660 C   0  0  0  0  0  0  0  0  0  0  0  0
   63.6860   34.1830   47.9630 O   0  0  0  0  0  0  0  0  0  0  0  0
   63.4120   34.0060   46.5910 C   0  0  0  0  0  0  0  0  0  0  0  0
   61.9990   33.4630   46.3870 C   0  0  0  0  0  0  0  0  0  0  0  0
   58.6099   27.4675   46.3344 H   0  0  0  0  0  0  0  0  0  0  0  0
   57.0336   27.6452   47.1920 H   0  0  0  0  0  0  0  0  0  0  0  0
   58.3127   26.9215   43.6989 H   0  0  0  0  0  0  0  0  0  0  0  0
   58.7493   25.7474   45.0063 H   0  0  0  0  0  0  0  0  0  0  0  0
   56.5473   25.3959   42.9156 H   0  0  0  0  0  0  0  0  0  0  0  0
   58.1371   24.5472   42.9611 H   0  0  0  0  0  0  0  0  0  0  0  0
   58.2478   21.8028   45.9868 H   0  0  0  0  0  0  0  0  0  0  0  0
   57.7468   19.2482   46.7176 H   0  0  0  0  0  0  0  0  0  0  0  0
   55.6542   18.4367   45.2681 H   0  0  0  0  0  0  0  0  0  0  0  0
   55.7765   23.6378   46.2781 H   0  0  0  0  0  0  0  0  0  0  0  0
   57.4816   24.1944   46.4275 H   0  0  0  0  0  0  0  0  0  0  0  0
   55.0428   25.8312   45.5777 H   0  0  0  0  0  0  0  0  0  0  0  0
   56.0957   26.0230   47.0632 H   0  0  0  0  0  0  0  0  0  0  0  0
   59.4850   29.5900   45.9090 H   0  0  0  0  0  0  0  0  0  0  0  0
   56.6799   31.3793   44.3899 H   0  0  0  0  0  0  0  0  0  0  0  0
   56.4201   33.8583   44.3151 H   0  0  0  0  0  0  0  0  0  0  0  0
   57.9950   35.3233   45.5791 H   0  0  0  0  0  0  0  0  0  0  0  0
   59.8339   34.3091   46.9209 H   0  0  0  0  0  0  0  0  0  0  0  0
   61.8959   32.4740   49.4658 H   0  0  0  0  0  0  0  0  0  0  0  0
   62.6880   31.0893   48.5825 H   0  0  0  0  0  0  0  0  0  0  0  0
   64.1471   33.0421   49.6029 H   0  0  0  0  0  0  0  0  0  0  0  0
   64.5234   32.3215   47.9828 H   0  0  0  0  0  0  0  0  0  0  0  0
   63.5043   34.9740   46.0768 H   0  0  0  0  0  0  0  0  0  0  0  0
   64.1311   33.2834   46.1777 H   0  0  0  0  0  0  0  0  0  0  0  0
   61.2853   34.2960   46.4691 H   0  0  0  0  0  0  0  0  0  0  0  0
   61.9602   32.9951   45.3923 H   0  0  0  0  0  0  0  0  0  0  0  0
  1  2  2  0
  2  3  1  0
  3  4  1  0
  4  5  1  0
  5  6  1  0
  6  7  1  0
  7  8  1  0
  8  9  2  0
  8 10  1  0
 10 11  2  0
 11 12  1  0
 12 13  2  0
 13 14  1  0
  7 15  1  0
 15 16  1  0
  2 17  1  0
 17 18  1  0
 18 19  2  0
 19 20  1  0
 20 21  2  0
 21 22  1  0
 22 23  2  0
 23 24  1  0
 24 25  2  0
 24 26  1  0
 26 27  1  0
 27 28  1  0
 28 29  1  0
 29 30  1  0
 30 31  1  0
 16  4  1  0
 23 18  1  0
 31 26  1  0
 14 10  1  0
  3 32  1  0
  3 33  1  0
  5 34  1  0
  5 35  1  0
  6 36  1  0
  6 37  1  0
 11 38  1  0
 12 39  1  0
 13 40  1  0
 15 41  1  0
 15 42  1  0
 16 43  1  0
 16 44  1  0
 17 45  1  0
 19 46  1  0
 20 47  1  0
 21 48  1  0
 22 49  1  0
 27 50  1  0
 27 51  1  0
 28 52  1  0
 28 53  1  0
 30 54  1  0
 30 55  1  0
 31 56  1  0
 31 57  1  0
M  END
>  <UniqueID>  (26) 
25

>  <SMILES>  (26) 
O=C(CN1CCN(C(=O)c2ccco2)CC1)Nc1ccccc1C(=O)N1CCOCC1

>  <Energy>  (26) 
108.53624770368374

>  <Genealogy>  (26) 
O=C(CN1CCN(C(=O)c2ccco2)CC1)Nc1ccccc1C(=O)N1CCOCC1 (3D coordinates assigned)
O=C(CN1CCN(C(=O)c2ccco2)CC1)Nc1ccccc1C(=O)N1CCOCC1 (nonaromatic ring conformer: 108.53624770368374 kcal/mol)

>  <smiles>  (26) 
O=C(CN1CCN(C(=O)c2ccco2)CC1)Nc1ccccc1C(=O)N1CCOCC1

>  <score_type>  (26) 
oracle

>  <origin>  (26) 
adg

>  <m_score__min__energy>  (26) 
-8.7699999999999996

>  <m_primary>  (26) 
energy

$$$$
26:0
     RDKit          3D

 62 66  0  0  1  0  0  0  0  0999 V2000
   58.1610   27.1960   43.1440 C   0  0  0  0  0  0  0  0  0  0  0  0
   58.2260   27.3760   44.5440 O   0  0  0  0  0  0  0  0  0  0  0  0
   57.7510   26.4510   45.4060 C   0  0  0  0  0  0  0  0  0  0  0  0
   56.6070   25.7060   45.3070 C   0  0  0  0  0  0  0  0  0  0  0  0
   56.2030   24.7810   46.2470 C   0  0  0  0  0  0  0  0  0  0  0  0
   55.0150   24.0640   46.0780 N   0  0  0  0  0  0  0  0  0  0  0  0
   54.2590   24.0710   44.8190 C   0  0  0  0  0  0  0  0  0  0  0  0
   52.8150   23.8240   45.2420 C   0  0  0  0  0  0  0  0  0  0  0  0
   52.6750   22.4970   45.6500 O   0  0  0  0  0  0  0  0  0  0  0  0
   53.7190   22.0910   46.4680 C   0  0  0  0  0  0  0  0  0  0  0  0
   54.4320   23.2510   47.1430 C   0  0  0  0  0  0  0  0  0  0  0  0
   56.9730   24.5650   47.3660 C   0  0  0  0  0  0  0  0  0  0  0  0
   58.1380   25.2940   47.5080 C   0  0  0  0  0  0  0  0  0  0  0  0
   58.5280   26.2110   46.5660 C   0  0  0  0  0  0  0  0  0  0  0  0
   59.7160   26.9850   46.6480 N   0  0  0  0  0  0  0  0  0  0  0  0
   59.6570   28.1240   47.2360 C   0  0  0  0  0  0  0  0  0  0  0  0
   60.4710   28.3140   48.2830 N   0  0  0  0  0  0  0  0  0  0  0  0
   60.5550   29.4400   48.9950 C   0  0  0  0  0  0  0  0  0  0  0  0
   59.7340   30.5300   48.6410 C   0  0  0  0  0  0  0  0  0  0  0  0
   58.9120   30.2950   47.5630 C   0  0  0  0  0  0  0  0  0  0  0  0
   58.1410   31.2400   47.1890 N   0  0  0  0  0  0  0  0  0  0  0  0
   58.4720   32.3970   46.4640 C   0  0  0  0  0  0  0  0  0  0  0  0
   58.9460   33.5710   47.0060 C   0  0  0  0  0  0  0  0  0  0  0  0
   59.2280   34.6950   46.2600 C   0  0  0  0  0  0  0  0  0  0  0  0
   59.0150   34.6160   44.8960 C   0  0  0  0  0  0  0  0  0  0  0  0
   58.5370   33.4560   44.2930 C   0  0  0  0  0  0  0  0  0  0  0  0
   58.2760   32.3720   45.0750 C   0  0  0  0  0  0  0  0  0  0  0  0
   57.6760   30.9090   44.3340 S   0  0  0  0  0  0  0  0  0  0  0  0
   58.9910   29.7960   44.1660 N   0  0  0  0  0  0  0  0  0  0  0  0
   57.0410   31.2240   43.0200 O   0  0  0  0  0  0  0  0  0  0  0  0
   56.6590   30.2510   45.2210 O   0  0  0  0  0  0  0  0  0  0  0  0
   58.8650   29.1420   46.8790 N   0  0  0  0  0  0  0  0  0  0  0  0
   60.0080   31.6320   49.5550 C   0  0  0  0  0  0  0  0  0  0  0  0
   61.4050   31.2580   50.0950 C   0  0  0  0  0  0  0  0  0  0  0  0
   61.3420   29.8150   50.1140 N   0  0  0  0  0  0  0  0  0  0  0  0
   57.7951   26.1828   42.9212 H   0  0  0  0  0  0  0  0  0  0  0  0
   57.4739   27.9376   42.7105 H   0  0  0  0  0  0  0  0  0  0  0  0
   59.1634   27.3275   42.7105 H   0  0  0  0  0  0  0  0  0  0  0  0
   55.9700   25.8543   44.4225 H   0  0  0  0  0  0  0  0  0  0  0  0
   54.3554   25.0427   44.3125 H   0  0  0  0  0  0  0  0  0  0  0  0
   54.6225   23.3149   44.1076 H   0  0  0  0  0  0  0  0  0  0  0  0
   52.5564   24.4939   46.0752 H   0  0  0  0  0  0  0  0  0  0  0  0
   52.1433   24.0217   44.3936 H   0  0  0  0  0  0  0  0  0  0  0  0
   53.3159   21.4267   47.2467 H   0  0  0  0  0  0  0  0  0  0  0  0
   54.4552   21.5788   45.8311 H   0  0  0  0  0  0  0  0  0  0  0  0
   53.7158   23.8481   47.7265 H   0  0  0  0  0  0  0  0  0  0  0  0
   55.2078   22.8897   47.8341 H   0  0  0  0  0  0  0  0  0  0  0  0
   56.6694   23.8315   48.1275 H   0  0  0  0  0  0  0  0  0  0  0  0
   58.7667   25.1353   48.3965 H   0  0  0  0  0  0  0  0  0  0  0  0
   61.0950   27.5250   48.5770 H   0  0  0  0  0  0  0  0  0  0  0  0
   59.1083   33.6139   48.0931 H   0  0  0  0  0  0  0  0  0  0  0  0
   59.6062   35.6152   46.7293 H   0  0  0  0  0  0  0  0  0  0  0  0
   59.2293   35.4946   44.2698 H   0  0  0  0  0  0  0  0  0  0  0  0
   58.3733   33.4157   43.2060 H   0  0  0  0  0  0  0  0  0  0  0  0
   59.1270   29.2890   45.0510 H   0  0  0  0  0  0  0  0  0  0  0  0
   58.8190   29.2020   43.3460 H   0  0  0  0  0  0  0  0  0  0  0  0
   58.2310   28.9920   46.0660 H   0  0  0  0  0  0  0  0  0  0  0  0
   60.0288   32.5957   49.0250 H   0  0  0  0  0  0  0  0  0  0  0  0
   59.2474   31.7583   50.3396 H   0  0  0  0  0  0  0  0  0  0  0  0
   62.2013   31.6147   49.4251 H   0  0  0  0  0  0  0  0  0  0  0  0
   61.6373   31.7051   51.0728 H   0  0  0  0  0  0  0  0  0  0  0  0
   61.7660   29.1240   50.7820 H   0  0  0  0  0  0  0  0  0  0  0  0
  1  2  1  0
  2  3  1  0
  3  4  2  0
  4  5  1  0
  5  6  1  0
  6  7  1  0
  7  8  1  0
  8  9  1  0
  9 10  1  0
 10 11  1  0
  5 12  2  0
 12 13  1  0
 13 14  2  0
 14 15  1  0
 15 16  2  0
 16 17  1  0
 17 18  1  0
 18 19  2  0
 19 20  1  0
 20 21  2  0
 21 22  1  0
 22 23  2  0
 23 24  1  0
 24 25  2  0
 25 26  1  0
 26 27  2  0
 27 28  1  0
 28 29  1  0
 28 30  2  0
 28 31  2  0
 20 32  1  0
 19 33  1  0
 33 34  1  0
 34 35  1  0
 14  3  1  0
 32 16  1  0
 11  6  1  0
 35 18  1  0
 27 22  1  0
  1 36  1  0
  1 37  1  0
  1 38  1  0
  4 39  1  0
  7 40  1  0
  7 41  1  0
  8 42  1  0
  8 43  1  0
 10 44  1  0
 10 45  1  0
 11 46  1  0
 11 47  1  0
 12 48  1  0
 13 49  1  0
 17 50  1  0
 23 51  1  0
 24 52  1  0
 25 53  1  0
 26 54  1  0
 29 55  1  0
 29 56  1  0
 32 57  1  0
 33 58  1  0
 33 59  1  0
 34 60  1  0
 34 61  1  0
 35 62  1  0
M  END
>  <smiles>  (27) 
COc1cc(N2CCOCC2)ccc1N=c1[nH]c2c(c(=Nc3ccccc3S(N)(=O)=O)[nH]1)CCN2

>  <score_type>  (27) 
oracle

>  <origin>  (27) 
adg

>  <m_score__min__energy>  (27) 
-9.9499999999999993

>  <m_primary>  (27) 
energy

$$$$
27:0
     RDKit          3D

 62 65  0  0  0  0  0  0  0  0999 V2000
   58.8360   32.1660   49.5040 C   0  0  0  0  0  0  0  0  0  0  0  0
   59.6810   33.2150   48.7430 C   0  0  1  0  0  0  0  0  0  0  0  0
   59.7050   34.5140   49.5850 C   0  0  0  0  0  0  0  0  0  0  0  0
   59.2950   34.2710   50.9680 N   0  0  0  0  0  0  0  0  0  0  0  0
   60.1780   33.8200   52.0000 C   0  0  0  0  0  0  0  0  0  0  0  0
   61.4420   33.2600   51.6530 N   0  0  0  0  0  0  0  0  0  0  0  0
   59.8480   33.9110   53.2120 O   0  0  0  0  0  0  0  0  0  0  0  0
   61.0690   32.7390   48.6230 N   0  0  0  0  0  0  0  0  0  0  0  0
   61.5140   31.4040   48.3470 C   0  0  0  0  0  0  0  0  0  0  0  0
   62.0210   31.1570   47.2220 O   0  0  0  0  0  0  0  0  0  0  0  0
   61.6070   30.3830   49.4040 C   0  0  0  0  0  0  0  0  0  0  0  0
   62.4490   30.6650   50.4920 C   0  0  0  0  0  0  0  0  0  0  0  0
   62.6000   29.7500   51.5330 C   0  0  0  0  0  0  0  0  0  0  0  0
   61.9140   28.5370   51.4990 C   0  0  0  0  0  0  0  0  0  0  0  0
   62.1090   27.3840   52.8080 Cl  0  0  0  0  0  0  0  0  0  0  0  0
   61.0700   28.2410   50.4280 C   0  0  0  0  0  0  0  0  0  0  0  0
   60.8980   29.1530   49.3670 C   0  0  0  0  0  0  0  0  0  0  0  0
   59.9360   28.7970   48.2880 C   0  0  0  0  0  0  0  0  0  0  0  0
   59.1610   29.8030   47.6910 C   0  0  0  0  0  0  0  0  0  0  0  0
   58.1250   29.4820   46.8090 C   0  0  0  0  0  0  0  0  0  0  0  0
   57.8700   28.1450   46.4560 C   0  0  0  0  0  0  0  0  0  0  0  0
   56.7090   27.7390   45.6100 C   0  0  0  0  0  0  0  0  0  0  0  0
   56.6850   26.5610   45.1620 O   0  0  0  0  0  0  0  0  0  0  0  0
   55.6160   28.6000   45.2420 N   0  0  0  0  0  0  0  0  0  0  0  0
   55.6320   29.8010   44.4190 C   0  0  0  0  0  0  0  0  0  0  0  0
   56.8960   29.7990   43.5560 C   0  0  0  0  0  0  0  0  0  0  0  0
   57.9320   30.8600   43.8880 C   0  0  0  0  0  0  0  0  0  0  0  0
   57.0600   31.0100   42.6510 C   0  0  0  0  0  0  0  0  0  0  0  0
   58.6730   27.1420   47.0350 C   0  0  0  0  0  0  0  0  0  0  0  0
   59.6790   27.4610   47.9520 C   0  0  0  0  0  0  0  0  0  0  0  0
   59.1000   33.5200   47.3550 C   0  0  0  0  0  0  0  0  0  0  0  0
   57.7920   33.1150   47.0100 C   0  0  0  0  0  0  0  0  0  0  0  0
   57.2280   33.4870   45.7870 C   0  0  0  0  0  0  0  0  0  0  0  0
   57.9480   34.2810   44.8950 C   0  0  0  0  0  0  0  0  0  0  0  0
   59.2340   34.7060   45.2210 C   0  0  0  0  0  0  0  0  0  0  0  0
   59.8020   34.3400   46.4410 C   0  0  0  0  0  0  0  0  0  0  0  0
   58.9557   32.3147   50.5873 H   0  0  0  0  0  0  0  0  0  0  0  0
   57.7763   32.2822   49.2329 H   0  0  0  0  0  0  0  0  0  0  0  0
   59.1752   31.1553   49.2329 H   0  0  0  0  0  0  0  0  0  0  0  0
   60.7268   34.9213   49.5826 H   0  0  0  0  0  0  0  0  0  0  0  0
   58.9955   35.2255   49.1374 H   0  0  0  0  0  0  0  0  0  0  0  0
   62.0980   32.9340   52.3970 H   0  0  0  0  0  0  0  0  0  0  0  0
   61.7250   33.1790   50.6520 H   0  0  0  0  0  0  0  0  0  0  0  0
   62.9958   31.6190   50.5232 H   0  0  0  0  0  0  0  0  0  0  0  0
   63.2602   29.9852   52.3808 H   0  0  0  0  0  0  0  0  0  0  0  0
   60.5311   27.2822   50.4114 H   0  0  0  0  0  0  0  0  0  0  0  0
   59.3714   30.8581   47.9201 H   0  0  0  0  0  0  0  0  0  0  0  0
   57.5023   30.2843   46.3864 H   0  0  0  0  0  0  0  0  0  0  0  0
   54.7433   29.8154   43.7709 H   0  0  0  0  0  0  0  0  0  0  0  0
   55.6243   30.6924   45.0635 H   0  0  0  0  0  0  0  0  0  0  0  0
   56.9225   28.7078   43.4194 H   0  0  0  0  0  0  0  0  0  0  0  0
   57.7811   31.5249   44.7512 H   0  0  0  0  0  0  0  0  0  0  0  0
   59.0151   30.8562   44.0802 H   0  0  0  0  0  0  0  0  0  0  0  0
   56.2782   31.7832   42.6195 H   0  0  0  0  0  0  0  0  0  0  0  0
   57.2507   31.1594   41.5780 H   0  0  0  0  0  0  0  0  0  0  0  0
   58.5054   26.0900   46.7607 H   0  0  0  0  0  0  0  0  0  0  0  0
   60.2728   26.6579   48.4129 H   0  0  0  0  0  0  0  0  0  0  0  0
   57.2104   32.4996   47.7121 H   0  0  0  0  0  0  0  0  0  0  0  0
   56.2129   33.1525   45.5270 H   0  0  0  0  0  0  0  0  0  0  0  0
   57.5002   34.5719   43.9333 H   0  0  0  0  0  0  0  0  0  0  0  0
   59.8018   35.3307   44.5157 H   0  0  0  0  0  0  0  0  0  0  0  0
   60.8115   34.6945   46.6964 H   0  0  0  0  0  0  0  0  0  0  0  0
  1  2  1  0
  2  3  1  0
  3  4  1  0
  4  5  1  0
  5  6  1  0
  5  7  2  0
  2  8  1  6
  8  9  1  0
  9 10  2  0
  9 11  1  0
 11 12  2  0
 12 13  1  0
 13 14  2  0
 14 15  1  0
 14 16  1  0
 16 17  2  0
 17 18  1  0
 18 19  2  0
 19 20  1  0
 20 21  2  0
 21 22  1  0
 22 23  2  0
 22 24  1  0
 24 25  1  0
 25 26  1  0
 26 27  1  0
 27 28  1  0
 21 29  1  0
 29 30  2  0
  2 31  1  0
 31 32  2  0
 32 33  1  0
 33 34  2  0
 34 35  1  0
 35 36  2  0
 17 11  1  0
 30 18  1  0
 36 31  1  0
 28 26  1  0
  1 37  1  0
  1 38  1  0
  1 39  1  0
  3 40  1  0
  3 41  1  0
  6 42  1  0
  6 43  1  0
 12 44  1  0
 13 45  1  0
 16 46  1  0
 19 47  1  0
 20 48  1  0
 25 49  1  0
 25 50  1  0
 26 51  1  0
 27 52  1  0
 27 53  1  0
 28 54  1  0
 28 55  1  0
 29 56  1  0
 30 57  1  0
 32 58  1  0
 33 59  1  0
 34 60  1  0
 35 61  1  0
 36 62  1  0
M  CHG  3   4  -1   8  -1  24  -1
M  END
>  <UniqueID>  (28) 
26

>  <SMILES>  (28) 
C[C@@](C[N-]C(N)=O)([N-]C(=O)c1ccc(Cl)cc1-c1ccc(C(=O)[N-]CC2CC2)cc1)c1ccccc1

>  <Energy>  (28) 
346.90616153509296

>  <Genealogy>  (28) 
CC(C[N-]C(N)=O)([N-]C(=O)c1ccc(Cl)cc1-c1ccc(C(=O)[N-]CC2CC2)cc1)c1ccccc1 (protonated)
C[C@@](C[N-]C(N)=O)([N-]C(=O)c1ccc(Cl)cc1-c1ccc(C(=O)[N-]CC2CC2)cc1)c1ccccc1 (chirality)
C[C@@](C[N-]C(N)=O)([N-]C(=O)c1ccc(Cl)cc1-c1ccc(C(=O)[N-]CC2CC2)cc1)c1ccccc1 (3D coordinates assigned)
C[C@@](C[N-]C(N)=O)([N-]C(=O)c1ccc(Cl)cc1-c1ccc(C(=O)[N-]CC2CC2)cc1)c1ccccc1 (nonaromatic ring conformer: 346.90616153509296 kcal/mol)

>  <smiles>  (28) 
CC(CNC(N)=O)(NC(=O)c1ccc(Cl)cc1-c1ccc(C(=O)NCC2CC2)cc1)c1ccccc1

>  <score_type>  (28) 
oracle

>  <origin>  (28) 
adg

>  <m_score__min__energy>  (28) 
-13.66

>  <m_primary>  (28) 
energy

$$$$
28:0
     RDKit          3D

 60 63  0  0  0  0  0  0  0  0999 V2000
   63.6040   31.8810   47.2770 C   0  0  0  0  0  0  0  0  0  0  0  0
   63.4190   33.3920   47.4570 C   0  0  0  0  0  0  0  0  0  0  0  0
   63.7960   34.0390   46.2910 F   0  0  0  0  0  0  0  0  0  0  0  0
   64.2600   33.8190   48.4760 F   0  0  0  0  0  0  0  0  0  0  0  0
   61.9720   33.7240   47.7680 C   0  0  0  0  0  0  0  0  0  0  0  0
   61.6080   34.3140   48.9930 C   0  0  0  0  0  0  0  0  0  0  0  0
   60.2650   34.5680   49.2810 C   0  0  0  0  0  0  0  0  0  0  0  0
   59.2710   34.2360   48.3590 C   0  0  0  0  0  0  0  0  0  0  0  0
   59.6100   33.6590   47.1280 C   0  0  0  0  0  0  0  0  0  0  0  0
   58.5600   33.2720   46.2210 N   0  0  0  0  0  0  0  0  0  0  0  0
   58.4570   33.7170   44.8630 C   0  0  0  0  0  0  0  0  0  0  0  0
   58.9420   34.8290   44.5210 O   0  0  0  0  0  0  0  0  0  0  0  0
   57.7180   32.9210   43.9290 N   0  0  0  0  0  0  0  0  0  0  0  0
   57.6100   31.4900   43.8700 C   0  0  0  0  0  0  0  0  0  0  0  0
   56.6320   30.8270   43.0990 C   0  0  0  0  0  0  0  0  0  0  0  0
   56.5980   29.4290   43.0550 C   0  0  0  0  0  0  0  0  0  0  0  0
   57.5640   28.6710   43.7430 C   0  0  0  0  0  0  0  0  0  0  0  0
   57.5720   27.2690   43.7310 O   0  0  0  0  0  0  0  0  0  0  0  0
   57.8170   26.4250   44.8240 C   0  0  0  0  0  0  0  0  0  0  0  0
   57.3510   25.1090   44.7630 C   0  0  0  0  0  0  0  0  0  0  0  0
   57.5490   24.2530   45.8470 C   0  0  0  0  0  0  0  0  0  0  0  0
   58.1910   24.6990   46.9560 N   0  0  0  0  0  0  0  0  0  0  0  0
   58.6520   25.9780   47.0600 C   0  0  0  0  0  0  0  0  0  0  0  0
   59.2750   26.3870   48.1290 N   0  0  0  0  0  0  0  0  0  0  0  0
   59.9820   27.6280   48.2910 C   0  0  0  0  0  0  0  0  0  0  0  0
   60.9130   27.9490   47.5020 O   0  0  0  0  0  0  0  0  0  0  0  0
   59.6070   28.5050   49.3610 N   0  0  0  0  0  0  0  0  0  0  0  0
   60.3200   29.7150   49.6770 C   0  0  0  0  0  0  0  0  0  0  0  0
   61.5190   29.8460   49.3100 O   0  0  0  0  0  0  0  0  0  0  0  0
   59.6730   30.8070   50.4500 C   0  0  0  0  0  0  0  0  0  0  0  0
   58.2720   30.9340   50.4590 C   0  0  0  0  0  0  0  0  0  0  0  0
   57.6550   31.9410   51.2080 C   0  0  0  0  0  0  0  0  0  0  0  0
   58.4280   32.8310   51.9540 C   0  0  0  0  0  0  0  0  0  0  0  0
   59.8180   32.7110   51.9600 C   0  0  0  0  0  0  0  0  0  0  0  0
   60.4410   31.7000   51.2160 C   0  0  0  0  0  0  0  0  0  0  0  0
   58.4600   26.8690   45.9950 C   0  0  0  0  0  0  0  0  0  0  0  0
   58.5270   29.3330   44.5120 C   0  0  0  0  0  0  0  0  0  0  0  0
   58.5550   30.7280   44.5670 C   0  0  0  0  0  0  0  0  0  0  0  0
   60.9640   33.4010   46.8400 C   0  0  0  0  0  0  0  0  0  0  0  0
   63.6631   31.3987   48.2639 H   0  0  0  0  0  0  0  0  0  0  0  0
   62.7494   31.4709   46.7190 H   0  0  0  0  0  0  0  0  0  0  0  0
   64.5323   31.6892   46.7190 H   0  0  0  0  0  0  0  0  0  0  0  0
   62.3845   34.5762   49.7267 H   0  0  0  0  0  0  0  0  0  0  0  0
   59.9893   35.0321   50.2394 H   0  0  0  0  0  0  0  0  0  0  0  0
   58.2152   34.4285   48.6003 H   0  0  0  0  0  0  0  0  0  0  0  0
   57.8160   32.6280   46.5720 H   0  0  0  0  0  0  0  0  0  0  0  0
   55.8936   31.4113   42.5304 H   0  0  0  0  0  0  0  0  0  0  0  0
   55.8115   28.9192   42.4792 H   0  0  0  0  0  0  0  0  0  0  0  0
   56.8299   24.7491   43.8636 H   0  0  0  0  0  0  0  0  0  0  0  0
   57.1844   23.2161   45.8024 H   0  0  0  0  0  0  0  0  0  0  0  0
   58.7820   28.2380   49.9420 H   0  0  0  0  0  0  0  0  0  0  0  0
   57.6570   30.2358   49.8723 H   0  0  0  0  0  0  0  0  0  0  0  0
   56.5587   32.0314   51.2089 H   0  0  0  0  0  0  0  0  0  0  0  0
   57.9419   33.6270   52.5372 H   0  0  0  0  0  0  0  0  0  0  0  0
   60.4265   33.4119   52.5503 H   0  0  0  0  0  0  0  0  0  0  0  0
   61.5368   31.6051   51.2318 H   0  0  0  0  0  0  0  0  0  0  0  0
   58.8097   27.9090   46.0738 H   0  0  0  0  0  0  0  0  0  0  0  0
   59.2683   28.7498   45.0780 H   0  0  0  0  0  0  0  0  0  0  0  0
   59.3280   31.2336   45.1645 H   0  0  0  0  0  0  0  0  0  0  0  0
   61.2372   32.9417   45.8786 H   0  0  0  0  0  0  0  0  0  0  0  0
  1  2  1  0
  2  3  1  0
  2  4  1  0
  2  5  1  0
  5  6  2  0
  6  7  1  0
  7  8  2  0
  8  9  1  0
  9 10  1  0
 10 11  1  0
 11 12  2  0
 11 13  1  0
 13 14  1  0
 14 15  2  0
 15 16  1  0
 16 17  2  0
 17 18  1  0
 18 19  1  0
 19 20  1  0
 20 21  2  0
 21 22  1  0
 22 23  1  0
 23 24  2  3
 24 25  1  0
 25 26  2  0
 25 27  1  0
 27 28  1  0
 28 29  2  0
 28 30  1  0
 30 31  2  0
 31 32  1  0
 32 33  2  0
 33 34  1  0
 34 35  2  0
 23 36  1  0
 17 37  1  0
 37 38  2  0
  9 39  2  0
 39  5  1  0
 38 14  1  0
 36 19  2  0
 35 30  1  0
  1 40  1  0
  1 41  1  0
  1 42  1  0
  6 43  1  0
  7 44  1  0
  8 45  1  0
 10 46  1  0
 15 47  1  0
 16 48  1  0
 20 49  1  0
 21 50  1  0
 27 51  1  0
 31 52  1  0
 32 53  1  0
 33 54  1  0
 34 55  1  0
 35 56  1  0
 36 57  1  0
 37 58  1  0
 38 59  1  0
 39 60  1  0
M  CHG  2  13  -1  22  -1
M  END
>  <UniqueID>  (29) 
27

>  <SMILES>  (29) 
CC(F)(F)c1cccc(NC(=O)[N-]c2ccc(Oc3cc[n-]c(=NC(=O)NC(=O)c4ccccc4)c3)cc2)c1

>  <Energy>  (29) 
83.44698852805769

>  <Genealogy>  (29) 
CC(F)(F)c1cccc(NC(=O)[N-]c2ccc(Oc3cc[n-]c(=NC(=O)NC(=O)c4ccccc4)c3)cc2)c1 (protonated)
CC(F)(F)c1cccc(NC(=O)[N-]c2ccc(Oc3cc[n-]c(=NC(=O)NC(=O)c4ccccc4)c3)cc2)c1 (3D coordinates assigned)
CC(F)(F)c1cccc(NC(=O)[N-]c2ccc(Oc3cc[n-]c(=NC(=O)NC(=O)c4ccccc4)c3)cc2)c1 (optimized conformer: 83.44698852805769 kcal/mol)

>  <smiles>  (29) 
CC(F)(F)c1cccc(NC(=O)Nc2ccc(Oc3cc[nH]c(=NC(=O)NC(=O)c4ccccc4)c3)cc2)c1

>  <score_type>  (29) 
oracle

>  <origin>  (29) 
adg

>  <m_score__min__energy>  (29) 
-12.02

>  <m_primary>  (29) 
energy

$$$$
29:0
     RDKit          3D

 56 59  0  0  0  0  0  0  0  0999 V2000
   63.0360   34.9070   50.3220 C   0  0  0  0  0  0  0  0  0  0  0  0
   62.7480   33.8890   49.2480 C   0  0  0  0  0  0  0  0  0  0  0  0
   63.8260   33.2650   48.5970 C   0  0  0  0  0  0  0  0  0  0  0  0
   63.6010   32.3340   47.5870 C   0  0  0  0  0  0  0  0  0  0  0  0
   62.2990   32.0240   47.1980 C   0  0  0  0  0  0  0  0  0  0  0  0
   61.2050   32.6290   47.8290 C   0  0  0  0  0  0  0  0  0  0  0  0
   59.8830   32.3110   47.3700 N   0  0  0  0  0  0  0  0  0  0  0  0
   59.0490   31.3690   48.1180 C   0  0  0  0  0  0  0  0  0  0  0  0
   58.5170   30.3110   47.1500 C   0  0  0  0  0  0  0  0  0  0  0  0
   57.7490   30.8960   46.0230 N   0  0  0  0  0  0  0  0  0  0  0  0
   57.9550   29.9330   44.5750 S   0  0  0  0  0  0  0  0  0  0  0  0
   56.7000   29.9770   43.7430 O   0  0  0  0  0  0  0  0  0  0  0  0
   59.0960   30.4720   43.7520 O   0  0  0  0  0  0  0  0  0  0  0  0
   58.2840   28.2580   45.0160 C   0  0  0  0  0  0  0  0  0  0  0  0
   59.5900   27.8450   45.3050 C   0  0  0  0  0  0  0  0  0  0  0  0
   59.8400   26.5500   45.6290 N   0  0  0  0  0  0  0  0  0  0  0  0
   58.8530   25.6140   45.6740 C   0  0  0  0  0  0  0  0  0  0  0  0
   59.1460   24.4240   45.9650 O   0  0  0  0  0  0  0  0  0  0  0  0
   57.5250   25.9790   45.3790 C   0  0  0  0  0  0  0  0  0  0  0  0
   56.4270   24.9830   45.4080 C   0  0  0  0  0  0  0  0  0  0  0  0
   56.6840   23.6720   45.1210 N   0  0  0  0  0  0  0  0  0  0  0  0
   55.6960   22.7300   45.1510 C   0  0  0  0  0  0  0  0  0  0  0  0
   56.0120   21.2880   44.8560 C   0  0  0  0  0  0  0  0  0  0  0  0
   54.3890   23.1220   45.4880 C   0  0  0  0  0  0  0  0  0  0  0  0
   53.4520   22.2810   45.5350 O   0  0  0  0  0  0  0  0  0  0  0  0
   54.1320   24.4260   45.7670 N   0  0  0  0  0  0  0  0  0  0  0  0
   55.1120   25.3640   45.7340 C   0  0  0  0  0  0  0  0  0  0  0  0
   54.7950   26.6900   46.0090 O   0  0  0  0  0  0  0  0  0  0  0  0
   57.2520   27.3170   45.0580 C   0  0  0  0  0  0  0  0  0  0  0  0
   58.0140   32.3310   45.7540 C   0  0  0  0  0  0  0  0  0  0  0  0
   59.4680   32.7390   46.0320 C   0  0  0  0  0  0  0  0  0  0  0  0
   61.4170   33.5440   48.8880 C   0  0  0  0  0  0  0  0  0  0  0  0
   60.2410   34.1800   49.5950 C   0  0  0  0  0  0  0  0  0  0  0  0
   62.9049   34.4437   51.3110 H   0  0  0  0  0  0  0  0  0  0  0  0
   64.0708   35.2656   50.2193 H   0  0  0  0  0  0  0  0  0  0  0  0
   62.3424   35.7546   50.2193 H   0  0  0  0  0  0  0  0  0  0  0  0
   64.8569   33.5146   48.8883 H   0  0  0  0  0  0  0  0  0  0  0  0
   64.4527   31.8418   47.0947 H   0  0  0  0  0  0  0  0  0  0  0  0
   62.1294   31.2983   46.3889 H   0  0  0  0  0  0  0  0  0  0  0  0
   59.6493   30.8849   48.9024 H   0  0  0  0  0  0  0  0  0  0  0  0
   58.2101   31.9025   48.5888 H   0  0  0  0  0  0  0  0  0  0  0  0
   59.3694   29.7494   46.7402 H   0  0  0  0  0  0  0  0  0  0  0  0
   57.8327   29.6604   47.7143 H   0  0  0  0  0  0  0  0  0  0  0  0
   60.4156   28.5710   45.2696 H   0  0  0  0  0  0  0  0  0  0  0  0
   57.6640   23.3810   44.8960 H   0  0  0  0  0  0  0  0  0  0  0  0
   56.1325   20.7383   45.8011 H   0  0  0  0  0  0  0  0  0  0  0  0
   55.1899   20.8438   44.2757 H   0  0  0  0  0  0  0  0  0  0  0  0
   56.9445   21.2283   44.2757 H   0  0  0  0  0  0  0  0  0  0  0  0
   56.2198   27.6271   44.8381 H   0  0  0  0  0  0  0  0  0  0  0  0
   57.7891   32.5361   44.6969 H   0  0  0  0  0  0  0  0  0  0  0  0
   57.3747   32.9148   46.4327 H   0  0  0  0  0  0  0  0  0  0  0  0
   60.1234   32.2692   45.2839 H   0  0  0  0  0  0  0  0  0  0  0  0
   59.5433   33.8349   45.9738 H   0  0  0  0  0  0  0  0  0  0  0  0
   60.3823   34.1036   50.6832 H   0  0  0  0  0  0  0  0  0  0  0  0
   60.1699   35.2395   49.3080 H   0  0  0  0  0  0  0  0  0  0  0  0
   59.3154   33.6595   49.3080 H   0  0  0  0  0  0  0  0  0  0  0  0
  1  2  1  0
  2  3  2  0
  3  4  1  0
  4  5  2  0
  5  6  1  0
  6  7  1  0
  7  8  1  0
  8  9  1  0
  9 10  1  0
 10 11  1  0
 11 12  2  0
 11 13  2  0
 11 14  1  0
 14 15  2  0
 15 16  1  0
 16 17  1  0
 17 18  2  0
 17 19  1  0
 19 20  1  0
 20 21  1  0
 21 22  2  0
 22 23  1  0
 22 24  1  0
 24 25  2  0
 24 26  1  0
 26 27  1  0
 27 28  1  0
 19 29  2  0
 10 30  1  0
 30 31  1  0
  6 32  2  0
 32 33  1  0
 32  2  1  0
 31  7  1  0
 29 14  1  0
 27 20  2  0
  1 34  1  0
  1 35  1  0
  1 36  1  0
  3 37  1  0
  4 38  1  0
  5 39  1  0
  8 40  1  0
  8 41  1  0
  9 42  1  0
  9 43  1  0
 15 44  1  0
 21 45  1  0
 23 46  1  0
 23 47  1  0
 23 48  1  0
 29 49  1  0
 30 50  1  0
 30 51  1  0
 31 52  1  0
 31 53  1  0
 33 54  1  0
 33 55  1  0
 33 56  1  0
M  CHG  4  16  -1  21   1  26  -1  28  -1
M  END
>  <UniqueID>  (30) 
28

>  <SMILES>  (30) 
Cc1cccc(N2CCN(S(=O)(=O)c3c[n-]c(=O)c(-c4[nH+]c(C)c(=O)[n-]c4[O-])c3)CC2)c1C

>  <Energy>  (30) 
81.69570888241957

>  <Genealogy>  (30) 
Cc1cccc(N2CCN(S(=O)(=O)c3c[n-]c(=O)c(-c4[nH+]c(C)c(=O)[n-]c4[O-])c3)CC2)c1C (protonated)
Cc1cccc(N2CCN(S(=O)(=O)c3c[n-]c(=O)c(-c4[nH+]c(C)c(=O)[n-]c4[O-])c3)CC2)c1C (3D coordinates assigned)
Cc1cccc(N2CCN(S(=O)(=O)c3c[n-]c(=O)c(-c4[nH+]c(C)c(=O)[n-]c4[O-])c3)CC2)c1C (nonaromatic ring conformer: 81.69570888241957 kcal/mol)

>  <smiles>  (30) 
Cc1cccc(N2CCN(S(=O)(=O)c3c[nH]c(=O)c(-c4nc(C)c(=O)[nH]c4O)c3)CC2)c1C

>  <score_type>  (30) 
oracle

>  <origin>  (30) 
adg

>  <m_score__min__energy>  (30) 
-14.5

>  <m_primary>  (30) 
energy

$$$$
30:0
     RDKit          3D

 52 55  0  0  0  0  0  0  0  0999 V2000
   53.0947   28.1785   53.6354 H   0  0  0  0  0  0  0  0  0  0  0  0
   54.1830   28.2670   53.5020 C   0  0  0  0  0  0  0  0  0  0  0  0
   54.8541   27.5152   53.9430 H   0  0  0  0  0  0  0  0  0  0  0  0
   54.6900   29.2880   52.8040 C   0  0  0  0  0  0  0  0  0  0  0  0
   55.9810   29.4450   52.6120 O   0  0  0  0  0  0  0  0  0  0  0  0
   56.1740   30.5300   51.8920 C   0  0  0  0  0  0  0  0  0  0  0  0
   57.4920   31.0170   51.4570 C   0  0  0  0  0  0  0  0  0  0  0  0
   57.5580   31.8710   50.5300 O   0  0  0  0  0  0  0  0  0  0  0  0
   58.7000   30.5560   52.0890 N   0  0  0  0  0  0  0  0  0  0  0  0
   58.8690   30.7270   53.5400 C   0  0  0  0  0  0  0  0  0  0  0  0
   57.8962   30.9532   54.0009 H   0  0  0  0  0  0  0  0  0  0  0  0
   59.2693   29.8018   53.9801 H   0  0  0  0  0  0  0  0  0  0  0  0
   59.8410   31.8860   53.7940 C   0  0  0  0  0  0  0  0  0  0  0  0
   59.2952   32.8375   53.7116 H   0  0  0  0  0  0  0  0  0  0  0  0
   60.2667   31.7710   54.8018 H   0  0  0  0  0  0  0  0  0  0  0  0
   60.9410   31.8770   52.8180 N   0  0  0  0  0  0  0  0  0  0  0  0
   61.6420   33.1080   52.5560 C   0  0  0  0  0  0  0  0  0  0  0  0
   62.0040   33.8260   53.5300 O   0  0  0  0  0  0  0  0  0  0  0  0
   61.8020   33.6310   51.1440 C   0  0  0  0  0  0  0  0  0  0  0  0
   62.1008   34.6871   51.2166 H   0  0  0  0  0  0  0  0  0  0  0  0
   60.4710   33.5770   50.3540 C   0  0  0  0  0  0  0  0  0  0  0  0
   59.9020   32.6937   50.6797 H   0  0  0  0  0  0  0  0  0  0  0  0
   59.9207   34.5073   50.5582 H   0  0  0  0  0  0  0  0  0  0  0  0
   60.6980   33.4870   48.8250 C   0  0  0  0  0  0  0  0  0  0  0  0
   60.7262   32.4275   48.5308 H   0  0  0  0  0  0  0  0  0  0  0  0
   59.8721   34.0138   48.3246 H   0  0  0  0  0  0  0  0  0  0  0  0
   61.9620   34.1280   48.4220 N   0  0  0  0  0  0  0  0  0  0  0  0
   61.9550   35.1210   48.7490 H   0  0  0  0  0  0  0  0  0  0  0  0
   63.1430   33.4430   48.9890 C   0  0  0  0  0  0  0  0  0  0  0  0
   63.4266   32.6225   48.3135 H   0  0  0  0  0  0  0  0  0  0  0  0
   63.9371   34.1978   49.0873 H   0  0  0  0  0  0  0  0  0  0  0  0
   62.9000   32.8530   50.4010 C   0  0  0  0  0  0  0  0  0  0  0  0
   62.5917   31.8016   50.3030 H   0  0  0  0  0  0  0  0  0  0  0  0
   63.8338   32.9298   50.9774 H   0  0  0  0  0  0  0  0  0  0  0  0
   61.1810   30.6720   52.0100 C   0  0  0  0  0  0  0  0  0  0  0  0
   61.9780   30.8743   51.2794 H   0  0  0  0  0  0  0  0  0  0  0  0
   61.4856   29.8458   52.6692 H   0  0  0  0  0  0  0  0  0  0  0  0
   59.8920   30.2820   51.2660 C   0  0  0  0  0  0  0  0  0  0  0  0
   59.8259   30.8621   50.3337 H   0  0  0  0  0  0  0  0  0  0  0  0
   59.9264   29.2041   51.0493 H   0  0  0  0  0  0  0  0  0  0  0  0
   54.9600   31.1270   51.5930 C   0  0  0  0  0  0  0  0  0  0  0  0
   54.7977   32.0439   51.0074 H   0  0  0  0  0  0  0  0  0  0  0  0
   53.9910   30.3290   52.1850 C   0  0  0  0  0  0  0  0  0  0  0  0
   52.6560   30.4950   52.1180 C   0  0  0  0  0  0  0  0  0  0  0  0
   52.0633   30.3117   53.0264 H   0  0  0  0  0  0  0  0  0  0  0  0
   51.9450   30.9090   50.8940 C   0  0  0  0  0  0  0  0  0  0  0  0
   51.8120   30.1180   49.8140 N   0  0  0  0  0  0  0  0  0  0  0  0
   51.0270   30.8460   48.9870 C   0  0  0  0  0  0  0  0  0  0  0  0
   50.6810   30.4390   47.8480 O   0  0  0  0  0  0  0  0  0  0  0  0
   50.6340   32.0410   49.4840 N   0  0  0  0  0  0  0  0  0  0  0  0
   51.2140   32.0610   50.6950 C   0  0  0  0  0  0  0  0  0  0  0  0
   51.0430   33.0900   51.6150 O   0  0  0  0  0  0  0  0  0  0  0  0
  1  2  1  0
  2  3  1  0
  2  4  2  0
  4  5  1  0
  5  6  1  0
  6  7  1  0
  7  8  2  0
  7  9  1  0
  9 10  1  0
 10 11  1  0
 10 12  1  0
 10 13  1  0
 13 14  1  0
 13 15  1  0
 13 16  1  0
 16 17  1  0
 17 18  2  0
 17 19  1  0
 19 20  1  0
 19 21  1  0
 21 22  1  0
 21 23  1  0
 21 24  1  0
 24 25  1  0
 24 26  1  0
 24 27  1  0
 27 28  1  0
 27 29  1  0
 29 30  1  0
 29 31  1  0
 29 32  1  0
 32 33  1  0
 32 34  1  0
 16 35  1  0
 35 36  1  0
 35 37  1  0
 35 38  1  0
 38 39  1  0
 38 40  1  0
  6 41  2  0
 41 42  1  0
 41 43  1  0
 43 44  2  0
 44 45  1  0
 44 46  1  0
 46 47  1  0
 47 48  1  0
 48 49  2  0
 48 50  1  0
 50 51  1  0
 51 52  1  0
 43  4  1  0
 51 46  2  0
 38  9  1  0
 32 19  1  0
M  CHG  3  47  -1  50  -1  52  -1
M  END
>  <UniqueID>  (31) 
29

>  <SMILES>  (31) 
C=c1oc(C(=O)N2CCN(C(=O)C3CCNCC3)CC2)c/c1=C\c1[n-]c(=O)[n-]c1[O-]

>  <Energy>  (31) 
130.79389785824551

>  <Genealogy>  (31) 
C=c1oc(C(=O)N2CCN(C(=O)C3CCNCC3)CC2)cc1=Cc1[n-]c(=O)[n-]c1[O-] (protonated)
C=c1oc(C(=O)N2CCN(C(=O)C3CCNCC3)CC2)c/c1=C\c1[n-]c(=O)[n-]c1[O-] (cis-trans isomerization)
C=c1oc(C(=O)N2CCN(C(=O)C3CCNCC3)CC2)c/c1=C\c1[n-]c(=O)[n-]c1[O-] (3D coordinates assigned)
C=c1oc(C(=O)N2CCN(C(=O)C3CCNCC3)CC2)c/c1=C\c1[n-]c(=O)[n-]c1[O-] (nonaromatic ring conformer: 130.79389785824551 kcal/mol)

>  <smiles>  (31) 
C=c1oc(C(=O)N2CCN(C(=O)C3CCNCC3)CC2)cc1=Cc1[nH]c(=O)[nH]c1O

>  <score_type>  (31) 
oracle

>  <origin>  (31) 
adg

>  <m_score__min__energy>  (31) 
-17.48

>  <m_primary>  (31) 
energy

$$$$
31:0
     RDKit          3D

 32 34  0  0  0  0  0  0  0  0999 V2000
   60.8620   29.9640   47.1920 C   0  0  0  0  0  0  0  0  0  0  0  0
   59.7340   29.7800   46.5030 C   0  0  0  0  0  0  0  0  0  0  0  0
   59.2500   28.5450   46.2320 N   0  0  0  0  0  0  0  0  0  0  0  0
   58.0870   28.7660   45.5850 C   0  0  0  0  0  0  0  0  0  0  0  0
   57.3100   27.7700   45.1330 C   0  0  0  0  0  0  0  0  0  0  0  0
   57.1760   26.4550   45.7950 C   0  0  0  0  0  0  0  0  0  0  0  0
   55.9260   25.9710   46.2170 C   0  0  0  0  0  0  0  0  0  0  0  0
   54.7690   26.7120   46.0050 O   0  0  0  0  0  0  0  0  0  0  0  0
   55.8430   24.7730   46.8520 N   0  0  0  0  0  0  0  0  0  0  0  0
   56.9520   24.0360   47.1060 C   0  0  0  0  0  0  0  0  0  0  0  0
   56.8510   22.9260   47.6920 O   0  0  0  0  0  0  0  0  0  0  0  0
   58.1750   24.4940   46.7320 N   0  0  0  0  0  0  0  0  0  0  0  0
   58.3110   25.6850   46.0930 C   0  0  0  0  0  0  0  0  0  0  0  0
   59.4610   26.0830   45.7660 O   0  0  0  0  0  0  0  0  0  0  0  0
   57.9000   30.1330   45.4670 C   0  0  0  0  0  0  0  0  0  0  0  0
   56.9520   30.7130   44.8710 O   0  0  0  0  0  0  0  0  0  0  0  0
   58.9320   30.7740   46.0440 N   0  0  0  0  0  0  0  0  0  0  0  0
   59.1270   32.1990   46.1040 C   0  0  0  0  0  0  0  0  0  0  0  0
   58.7340   33.0180   45.0330 C   0  0  0  0  0  0  0  0  0  0  0  0
   58.9080   34.4040   45.1030 C   0  0  0  0  0  0  0  0  0  0  0  0
   59.4690   34.9850   46.2460 C   0  0  0  0  0  0  0  0  0  0  0  0
   59.6370   36.3670   46.3030 O   0  0  0  0  0  0  0  0  0  0  0  0
   59.8520   34.1730   47.3220 C   0  0  0  0  0  0  0  0  0  0  0  0
   59.6780   32.7880   47.2520 C   0  0  0  0  0  0  0  0  0  0  0  0
   61.2239   30.9832   47.3926 H   0  0  0  0  0  0  0  0  0  0  0  0
   61.4299   29.0965   47.5593 H   0  0  0  0  0  0  0  0  0  0  0  0
   56.7359   27.9430   44.2108 H   0  0  0  0  0  0  0  0  0  0  0  0
   58.2871   32.5672   44.1346 H   0  0  0  0  0  0  0  0  0  0  0  0
   58.6033   35.0388   44.2579 H   0  0  0  0  0  0  0  0  0  0  0  0
   59.2490   36.9160   47.0600 H   0  0  0  0  0  0  0  0  0  0  0  0
   60.2903   34.6264   48.2232 H   0  0  0  0  0  0  0  0  0  0  0  0
   59.9748   32.1560   48.1020 H   0  0  0  0  0  0  0  0  0  0  0  0
  1  2  2  0
  2  3  1  0
  3  4  1  0
  4  5  2  3
  5  6  1  0
  6  7  2  0
  7  8  1  0
  7  9  1  0
  9 10  1  0
 10 11  2  0
 10 12  1  0
 12 13  1  0
 13 14  2  0
  4 15  1  0
 15 16  2  0
 15 17  1  0
 17 18  1  0
 18 19  2  0
 19 20  1  0
 20 21  2  0
 21 22  1  0
 21 23  1  0
 23 24  2  0
 17  2  1  0
 24 18  1  0
 13  6  1  0
  1 25  1  0
  1 26  1  0
  5 27  1  0
 19 28  1  0
 20 29  1  0
 22 30  1  0
 23 31  1  0
 24 32  1  0
M  CHG  4   3  -1   8  -1   9  -1  12  -1
M  END
>  <UniqueID>  (32) 
30

>  <SMILES>  (32) 
C=c1[n-]c(=Cc2c([O-])[n-]c(=O)[n-]c2=O)c(=O)n1-c1ccc(O)cc1

>  <Energy>  (32) 
84.54696866270255

>  <Genealogy>  (32) 
C=c1[n-]c(=Cc2c([O-])[n-]c(=O)[n-]c2=O)c(=O)n1-c1ccc(O)cc1 (protonated)
C=c1[n-]c(=Cc2c([O-])[n-]c(=O)[n-]c2=O)c(=O)n1-c1ccc(O)cc1 (3D coordinates assigned)
C=c1[n-]c(=Cc2c([O-])[n-]c(=O)[n-]c2=O)c(=O)n1-c1ccc(O)cc1 (optimized conformer: 84.54696866270255 kcal/mol)

>  <smiles>  (32) 
C=c1[nH]c(=Cc2c(O)[nH]c(=O)[nH]c2=O)c(=O)n1-c1ccc(O)cc1

>  <score_type>  (32) 
oracle

>  <origin>  (32) 
adg

>  <m_score__min__energy>  (32) 
-16.239999999999998

>  <m_primary>  (32) 
energy

$$$$
32:0
     RDKit          3D

 40 42  0  0  0  0  0  0  0  0999 V2000
   57.6420   25.0670   45.2670 O   0  0  0  0  0  0  0  0  0  0  0  0
   57.9160   26.0660   45.9800 C   0  0  0  0  0  0  0  0  0  0  0  0
   58.6890   25.8830   47.1720 N   0  0  0  0  0  0  0  0  0  0  0  0
   60.0130   26.4560   47.3790 C   0  0  0  0  0  0  0  0  0  0  0  0
   59.9240   27.5600   48.3910 C   0  0  0  0  0  0  0  0  0  0  0  0
   58.9890   28.5950   48.2300 C   0  0  0  0  0  0  0  0  0  0  0  0
   58.8840   29.6060   49.1920 C   0  0  0  0  0  0  0  0  0  0  0  0
   59.7040   29.5830   50.3240 C   0  0  0  0  0  0  0  0  0  0  0  0
   59.6000   30.5630   51.2560 F   0  0  0  0  0  0  0  0  0  0  0  0
   60.6270   28.5480   50.4980 C   0  0  0  0  0  0  0  0  0  0  0  0
   60.7350   27.5360   49.5380 C   0  0  0  0  0  0  0  0  0  0  0  0
   57.4100   27.3960   45.5840 C   0  0  0  0  0  0  0  0  0  0  0  0
   56.0410   27.6750   45.6080 C   0  0  0  0  0  0  0  0  0  0  0  0
   55.1260   26.7150   46.0300 O   0  0  0  0  0  0  0  0  0  0  0  0
   55.5970   28.8960   45.2320 N   0  0  0  0  0  0  0  0  0  0  0  0
   56.4500   29.8720   44.8320 C   0  0  0  0  0  0  0  0  0  0  0  0
   55.9760   30.9880   44.4880 O   0  0  0  0  0  0  0  0  0  0  0  0
   57.8050   29.6450   44.8110 N   0  0  0  0  0  0  0  0  0  0  0  0
   58.7310   30.6940   44.3400 C   0  0  0  0  0  0  0  0  0  0  0  0
   58.8430   31.7960   45.3630 C   0  0  0  0  0  0  0  0  0  0  0  0
   58.2090   33.0310   45.1470 C   0  0  0  0  0  0  0  0  0  0  0  0
   58.3420   34.0650   46.0790 C   0  0  0  0  0  0  0  0  0  0  0  0
   59.1120   33.8760   47.2300 C   0  0  0  0  0  0  0  0  0  0  0  0
   59.2440   34.9050   48.1550 O   0  0  0  0  0  0  0  0  0  0  0  0
   59.7490   32.6520   47.4510 C   0  0  0  0  0  0  0  0  0  0  0  0
   59.6180   31.6150   46.5210 C   0  0  0  0  0  0  0  0  0  0  0  0
   58.2890   28.4140   45.1860 C   0  0  0  0  0  0  0  0  0  0  0  0
   59.5320   28.1850   45.1680 O   0  0  0  0  0  0  0  0  0  0  0  0
   60.6974   25.6765   47.7451 H   0  0  0  0  0  0  0  0  0  0  0  0
   60.3928   26.8581   46.4282 H   0  0  0  0  0  0  0  0  0  0  0  0
   58.3366   28.6113   47.3445 H   0  0  0  0  0  0  0  0  0  0  0  0
   58.1557   30.4193   49.0573 H   0  0  0  0  0  0  0  0  0  0  0  0
   61.2693   28.5291   51.3908 H   0  0  0  0  0  0  0  0  0  0  0  0
   61.4572   26.7189   49.6817 H   0  0  0  0  0  0  0  0  0  0  0  0
   59.7244   30.2520   44.1735 H   0  0  0  0  0  0  0  0  0  0  0  0
   58.3426   31.1170   43.4018 H   0  0  0  0  0  0  0  0  0  0  0  0
   57.6052   33.1853   44.2406 H   0  0  0  0  0  0  0  0  0  0  0  0
   57.8400   35.0283   45.9060 H   0  0  0  0  0  0  0  0  0  0  0  0
   60.3543   32.5036   48.3574 H   0  0  0  0  0  0  0  0  0  0  0  0
   60.1237   30.6541   46.6971 H   0  0  0  0  0  0  0  0  0  0  0  0
  1  2  2  0
  2  3  1  0
  3  4  1  0
  4  5  1  0
  5  6  2  0
  6  7  1  0
  7  8  2  0
  8  9  1  0
  8 10  1  0
 10 11  2  0
  2 12  1  0
 12 13  2  0
 13 14  1  0
 13 15  1  0
 15 16  1  0
 16 17  2  0
 16 18  1  0
 18 19  1  0
 19 20  1  0
 20 21  2  0
 21 22  1  0
 22 23  2  0
 23 24  1  0
 23 25  1  0
 25 26  2  0
 18 27  1  0
 27 28  2  0
 11  5  1  0
 27 12  1  0
 26 20  1  0
  4 29  1  0
  4 30  1  0
  6 31  1  0
  7 32  1  0
 10 33  1  0
 11 34  1  0
 19 35  1  0
 19 36  1  0
 21 37  1  0
 22 38  1  0
 25 39  1  0
 26 40  1  0
M  CHG  4   3  -1  14  -1  15  -1  24  -1
M  END
>  <UniqueID>  (33) 
31

>  <SMILES>  (33) 
O=C([N-]Cc1ccc(F)cc1)c1c([O-])[n-]c(=O)n(Cc2ccc([O-])cc2)c1=O

>  <Energy>  (33) 
52.284187885537094

>  <Genealogy>  (33) 
O=C([N-]Cc1ccc(F)cc1)c1c([O-])[n-]c(=O)n(Cc2ccc([O-])cc2)c1=O (protonated)
O=C([N-]Cc1ccc(F)cc1)c1c([O-])[n-]c(=O)n(Cc2ccc([O-])cc2)c1=O (3D coordinates assigned)
O=C([N-]Cc1ccc(F)cc1)c1c([O-])[n-]c(=O)n(Cc2ccc([O-])cc2)c1=O (optimized conformer: 52.284187885537094 kcal/mol)

>  <smiles>  (33) 
O=C(NCc1ccc(F)cc1)c1c(O)[nH]c(=O)n(Cc2ccc(O)cc2)c1=O

>  <score_type>  (33) 
oracle

>  <origin>  (33) 
adg

>  <m_score__min__energy>  (33) 
-14.59

>  <m_primary>  (33) 
energy

$$$$
33:0
     RDKit          3D

 47 50  0  0  0  0  0  0  0  0999 V2000
   58.0105   28.9921   44.0382 H   0  0  0  0  0  0  0  0  0  0  0  0
   58.3660   28.5300   44.9710 C   0  0  0  0  0  0  0  0  0  0  0  0
   59.4310   29.0290   45.5330 N   0  0  0  0  0  0  0  0  0  0  0  0
   59.5980   29.3970   46.9120 C   0  0  0  0  0  0  0  0  0  0  0  0
   60.1230   28.4960   47.8580 C   0  0  0  0  0  0  0  0  0  0  0  0
   60.3953   27.4752   47.5516 H   0  0  0  0  0  0  0  0  0  0  0  0
   60.2990   28.8960   49.1860 C   0  0  0  0  0  0  0  0  0  0  0  0
   60.6913   28.1832   49.9263 H   0  0  0  0  0  0  0  0  0  0  0  0
   59.9780   30.1980   49.5750 C   0  0  0  0  0  0  0  0  0  0  0  0
   60.1038   30.5051   50.6237 H   0  0  0  0  0  0  0  0  0  0  0  0
   59.4960   31.1130   48.6310 C   0  0  0  0  0  0  0  0  0  0  0  0
   59.1100   32.7940   49.1220 S   0  0  0  0  0  0  0  0  0  0  0  0
   58.7330   33.3050   47.4360 C   0  0  0  0  0  0  0  0  0  0  0  0
   57.3990   33.2160   47.0130 C   0  0  0  0  0  0  0  0  0  0  0  0
   56.6224   32.8942   47.7225 H   0  0  0  0  0  0  0  0  0  0  0  0
   57.0480   33.5320   45.7000 C   0  0  0  0  0  0  0  0  0  0  0  0
   55.9984   33.4610   45.3787 H   0  0  0  0  0  0  0  0  0  0  0  0
   58.0290   33.9380   44.7950 C   0  0  0  0  0  0  0  0  0  0  0  0
   57.7530   34.1783   43.7576 H   0  0  0  0  0  0  0  0  0  0  0  0
   59.3600   34.0400   45.2030 C   0  0  0  0  0  0  0  0  0  0  0  0
   60.1269   34.3585   44.4816 H   0  0  0  0  0  0  0  0  0  0  0  0
   59.7320   33.7400   46.5270 C   0  0  0  0  0  0  0  0  0  0  0  0
   61.1550   33.8860   46.9130 C   0  0  0  0  0  0  0  0  0  0  0  0
   62.0650   33.7440   46.0530 O   0  0  0  0  0  0  0  0  0  0  0  0
   61.4880   34.2210   48.2670 N   0  0  0  0  0  0  0  0  0  0  0  0
   62.6040   33.7260   49.0220 C   0  0  0  0  0  0  0  0  0  0  0  0
   63.4460   32.7120   48.5310 C   0  0  0  0  0  0  0  0  0  0  0  0
   63.2668   32.2852   47.5331 H   0  0  0  0  0  0  0  0  0  0  0  0
   64.5110   32.2450   49.3090 C   0  0  0  0  0  0  0  0  0  0  0  0
   65.1733   31.4589   48.9175 H   0  0  0  0  0  0  0  0  0  0  0  0
   64.7350   32.7750   50.5820 C   0  0  0  0  0  0  0  0  0  0  0  0
   65.5772   32.4118   51.1893 H   0  0  0  0  0  0  0  0  0  0  0  0
   63.8880   33.7670   51.0830 C   0  0  0  0  0  0  0  0  0  0  0  0
   64.0606   34.1805   52.0876 H   0  0  0  0  0  0  0  0  0  0  0  0
   62.8210   34.2350   50.3090 C   0  0  0  0  0  0  0  0  0  0  0  0
   62.1490   35.0065   50.7129 H   0  0  0  0  0  0  0  0  0  0  0  0
   59.3110   30.7110   47.3020 C   0  0  0  0  0  0  0  0  0  0  0  0
   58.9379   31.4321   46.5599 H   0  0  0  0  0  0  0  0  0  0  0  0
   57.6050   27.3800   45.5100 C   0  0  0  0  0  0  0  0  0  0  0  0
   56.2100   27.4610   45.6400 C   0  0  0  0  0  0  0  0  0  0  0  0
   55.5270   28.6040   45.2410 O   0  0  0  0  0  0  0  0  0  0  0  0
   55.5120   26.4120   46.1490 N   0  0  0  0  0  0  0  0  0  0  0  0
   56.1430   25.2790   46.5510 C   0  0  0  0  0  0  0  0  0  0  0  0
   55.4750   24.3190   47.0130 O   0  0  0  0  0  0  0  0  0  0  0  0
   57.4940   25.1870   46.4640 N   0  0  0  0  0  0  0  0  0  0  0  0
   58.2380   26.2080   45.9640 C   0  0  0  0  0  0  0  0  0  0  0  0
   59.4930   26.0980   45.9340 O   0  0  0  0  0  0  0  0  0  0  0  0
  1  2  1  0
  2  3  2  0
  3  4  1  0
  4  5  2  0
  5  6  1  0
  5  7  1  0
  7  8  1  0
  7  9  2  0
  9 10  1  0
  9 11  1  0
 11 12  1  0
 12 13  1  0
 13 14  2  0
 14 15  1  0
 14 16  1  0
 16 17  1  0
 16 18  2  0
 18 19  1  0
 18 20  1  0
 20 21  1  0
 20 22  2  0
 22 23  1  0
 23 24  2  0
 23 25  1  0
 25 26  1  0
 26 27  2  0
 27 28  1  0
 27 29  1  0
 29 30  1  0
 29 31  2  0
 31 32  1  0
 31 33  1  0
 33 34  1  0
 33 35  2  0
 35 36  1  0
 11 37  2  0
 37 38  1  0
  2 39  1  0
 39 40  2  0
 40 41  1  0
 40 42  1  0
 42 43  1  0
 43 44  2  0
 43 45  1  0
 45 46  1  0
 46 47  2  0
 37  4  1  0
 46 39  1  0
 22 13  1  0
 35 26  1  0
M  CHG  4  25  -1  41  -1  42  -1  45  -1
M  END
>  <UniqueID>  (34) 
32

>  <SMILES>  (34) 
O=C([N-]c1ccccc1)c1ccccc1Sc1cccc(/N=C\c2c([O-])[n-]c(=O)[n-]c2=O)c1

>  <Energy>  (34) 
70.06067813064215

>  <Genealogy>  (34) 
O=C([N-]c1ccccc1)c1ccccc1Sc1cccc(N=Cc2c([O-])[n-]c(=O)[n-]c2=O)c1 (protonated)
O=C([N-]c1ccccc1)c1ccccc1Sc1cccc(/N=C\c2c([O-])[n-]c(=O)[n-]c2=O)c1 (cis-trans isomerization)
O=C([N-]c1ccccc1)c1ccccc1Sc1cccc(/N=C\c2c([O-])[n-]c(=O)[n-]c2=O)c1 (3D coordinates assigned)
O=C([N-]c1ccccc1)c1ccccc1Sc1cccc(/N=C\c2c([O-])[n-]c(=O)[n-]c2=O)c1 (optimized conformer: 70.06067813064215 kcal/mol)

>  <smiles>  (34) 
O=C(Nc1ccccc1)c1ccccc1Sc1cccc(N=Cc2c(O)[nH]c(=O)[nH]c2=O)c1

>  <score_type>  (34) 
oracle

>  <origin>  (34) 
adg

>  <m_score__min__energy>  (34) 
-18.41

>  <m_primary>  (34) 
energy

$$$$
34:0
     RDKit          3D

 35 37  0  0  0  0  0  0  0  0999 V2000
   56.7470   33.3600   46.4480 O   0  0  0  0  0  0  0  0  0  0  0  0
   57.9080   33.0330   46.0750 C   0  0  0  0  0  0  0  0  0  0  0  0
   58.0880   32.3140   44.8870 O   0  0  0  0  0  0  0  0  0  0  0  0
   57.1850   31.3070   44.4310 C   0  0  0  0  0  0  0  0  0  0  0  0
   57.7300   29.9310   44.7290 C   0  0  0  0  0  0  0  0  0  0  0  0
   59.0520   29.7230   44.6440 C   0  0  0  0  0  0  0  0  0  0  0  0
   59.6340   28.3970   44.8910 C   0  0  0  0  0  0  0  0  0  0  0  0
   60.8740   28.2300   44.7340 O   0  0  0  0  0  0  0  0  0  0  0  0
   58.7690   27.2790   45.3340 C   0  0  0  0  0  0  0  0  0  0  0  0
   59.3250   26.0160   45.5970 C   0  0  0  0  0  0  0  0  0  0  0  0
   58.5170   24.9670   46.0250 C   0  0  0  0  0  0  0  0  0  0  0  0
   57.1550   25.1740   46.2340 C   0  0  0  0  0  0  0  0  0  0  0  0
   56.5800   26.4300   46.0090 C   0  0  0  0  0  0  0  0  0  0  0  0
   55.2310   26.5770   46.3410 O   0  0  0  0  0  0  0  0  0  0  0  0
   57.3790   27.4900   45.4970 C   0  0  0  0  0  0  0  0  0  0  0  0
   56.8190   28.8080   45.0710 C   0  0  0  0  0  0  0  0  0  0  0  0
   55.5780   28.9640   44.9260 O   0  0  0  0  0  0  0  0  0  0  0  0
   59.0820   33.4050   46.8940 C   0  0  0  0  0  0  0  0  0  0  0  0
   60.3650   33.4450   46.3180 C   0  0  0  0  0  0  0  0  0  0  0  0
   61.4760   33.7990   47.0890 C   0  0  0  0  0  0  0  0  0  0  0  0
   61.3200   34.1170   48.4400 C   0  0  0  0  0  0  0  0  0  0  0  0
   62.3990   34.4600   49.1860 F   0  0  0  0  0  0  0  0  0  0  0  0
   60.0500   34.0820   49.0220 C   0  0  0  0  0  0  0  0  0  0  0  0
   58.9360   33.7280   48.2560 C   0  0  0  0  0  0  0  0  0  0  0  0
   56.2179   31.4310   44.9403 H   0  0  0  0  0  0  0  0  0  0  0  0
   57.0579   31.4105   43.3433 H   0  0  0  0  0  0  0  0  0  0  0  0
   59.7140   30.5622   44.3841 H   0  0  0  0  0  0  0  0  0  0  0  0
   60.4050   25.8554   45.4639 H   0  0  0  0  0  0  0  0  0  0  0  0
   58.9542   23.9727   46.1986 H   0  0  0  0  0  0  0  0  0  0  0  0
   56.5249   24.3412   46.5796 H   0  0  0  0  0  0  0  0  0  0  0  0
   54.7360   27.4550   46.3150 H   0  0  0  0  0  0  0  0  0  0  0  0
   60.4947   33.1962   45.2544 H   0  0  0  0  0  0  0  0  0  0  0  0
   62.4755   33.8272   46.6306 H   0  0  0  0  0  0  0  0  0  0  0  0
   59.9268   34.3337   50.0857 H   0  0  0  0  0  0  0  0  0  0  0  0
   57.9392   33.7017   48.7204 H   0  0  0  0  0  0  0  0  0  0  0  0
  1  2  2  0
  2  3  1  0
  3  4  1  0
  4  5  1  0
  5  6  2  0
  6  7  1  0
  7  8  2  0
  7  9  1  0
  9 10  2  0
 10 11  1  0
 11 12  2  0
 12 13  1  0
 13 14  1  0
 13 15  2  0
 15 16  1  0
 16 17  2  0
  2 18  1  0
 18 19  2  0
 19 20  1  0
 20 21  2  0
 21 22  1  0
 21 23  1  0
 23 24  2  0
 16  5  1  0
 24 18  1  0
 15  9  1  0
  4 25  1  0
  4 26  1  0
  6 27  1  0
 10 28  1  0
 11 29  1  0
 12 30  1  0
 14 31  1  0
 19 32  1  0
 20 33  1  0
 23 34  1  0
 24 35  1  0
M  END
>  <UniqueID>  (35) 
33

>  <SMILES>  (35) 
O=C(OCC1=CC(=O)c2cccc(O)c2C1=O)c1ccc(F)cc1

>  <Energy>  (35) 
44.35393434408874

>  <Genealogy>  (35) 
O=C(OCC1=CC(=O)c2cccc(O)c2C1=O)c1ccc(F)cc1 (3D coordinates assigned)
O=C(OCC1=CC(=O)c2cccc(O)c2C1=O)c1ccc(F)cc1 (nonaromatic ring conformer: 44.35393434408874 kcal/mol)

>  <smiles>  (35) 
O=C(OCC1=CC(=O)c2cccc(O)c2C1=O)c1ccc(F)cc1

>  <score_type>  (35) 
oracle

>  <origin>  (35) 
adg

>  <m_score__min__energy>  (35) 
-9.6699999999999999

>  <m_primary>  (35) 
energy

$$$$
35:0
     RDKit          3D

 68 72  0  0  0  0  0  0  0  0999 V2000
   61.5603   26.9279   49.1499 H   0  0  0  0  0  0  0  0  0  0  0  0
   60.7240   27.5470   48.7930 C   0  0  0  0  0  0  0  0  0  0  0  0
   60.2350   27.3690   47.5380 N   0  0  0  0  0  0  0  0  0  0  0  0
   59.2060   28.1180   47.0520 C   0  0  0  0  0  0  0  0  0  0  0  0
   58.7560   27.9440   45.8430 N   0  0  0  0  0  0  0  0  0  0  0  0
   57.4190   27.5680   45.4700 C   0  0  0  0  0  0  0  0  0  0  0  0
   56.5700   28.4790   45.2850 O   0  0  0  0  0  0  0  0  0  0  0  0
   57.0210   26.1570   45.2440 C   0  0  0  0  0  0  0  0  0  0  0  0
   57.9650   25.2480   44.7380 C   0  0  0  0  0  0  0  0  0  0  0  0
   58.9848   25.5919   44.5104 H   0  0  0  0  0  0  0  0  0  0  0  0
   57.6210   23.9110   44.5210 C   0  0  0  0  0  0  0  0  0  0  0  0
   58.3686   23.2110   44.1196 H   0  0  0  0  0  0  0  0  0  0  0  0
   56.3220   23.4570   44.8140 C   0  0  0  0  0  0  0  0  0  0  0  0
   55.9270   22.1240   44.6160 O   0  0  0  0  0  0  0  0  0  0  0  0
   56.7890   21.0940   44.1460 C   0  0  0  0  0  0  0  0  0  0  0  0
   57.2310   20.5659   45.0038 H   0  0  0  0  0  0  0  0  0  0  0  0
   56.2124   20.3835   43.5354 H   0  0  0  0  0  0  0  0  0  0  0  0
   57.5900   21.5364   43.5354 H   0  0  0  0  0  0  0  0  0  0  0  0
   55.3840   24.3580   45.3280 C   0  0  0  0  0  0  0  0  0  0  0  0
   54.3647   24.0118   45.5540 H   0  0  0  0  0  0  0  0  0  0  0  0
   55.7270   25.6940   45.5580 C   0  0  0  0  0  0  0  0  0  0  0  0
   54.7790   26.5440   46.1160 O   0  0  0  0  0  0  0  0  0  0  0  0
   58.6080   29.0820   47.8720 C   0  0  0  0  0  0  0  0  0  0  0  0
   57.7682   29.6834   47.4938 H   0  0  0  0  0  0  0  0  0  0  0  0
   59.0820   29.2790   49.1760 C   0  0  0  0  0  0  0  0  0  0  0  0
   58.4810   30.3380   50.0160 C   0  0  0  0  0  0  0  0  0  0  0  0
   57.6370   30.0600   51.0280 N   0  0  0  0  0  0  0  0  0  0  0  0
   57.2390   31.2710   51.4690 C   0  0  0  0  0  0  0  0  0  0  0  0
   56.2090   31.4420   52.5520 C   0  0  2  0  0  0  0  0  0  0  0  0
   56.0981   32.5011   52.8278 H   0  0  0  0  0  0  0  0  0  0  0  0
   56.6800   30.7150   53.8350 C   0  0  0  0  0  0  0  0  0  0  0  0
   56.1298   31.1218   54.6963 H   0  0  0  0  0  0  0  0  0  0  0  0
   57.7624   30.8794   53.9414 H   0  0  0  0  0  0  0  0  0  0  0  0
   56.4450   29.2650   53.7630 N   0  0  0  0  0  0  0  0  0  0  0  0
   57.5750   28.3330   53.7120 C   0  0  0  0  0  0  0  0  0  0  0  0
   57.8855   28.0769   54.7357 H   0  0  0  0  0  0  0  0  0  0  0  0
   57.2723   27.4184   53.1810 H   0  0  0  0  0  0  0  0  0  0  0  0
   58.4153   28.8042   53.1810 H   0  0  0  0  0  0  0  0  0  0  0  0
   55.0950   28.7560   53.7090 C   0  0  0  0  0  0  0  0  0  0  0  0
   54.8800   27.5710   53.3390 O   0  0  0  0  0  0  0  0  0  0  0  0
   53.9280   29.6380   54.0740 C   0  0  0  0  0  0  0  0  0  0  0  0
   54.0822   30.0142   55.0961 H   0  0  0  0  0  0  0  0  0  0  0  0
   53.0193   29.0242   53.9879 H   0  0  0  0  0  0  0  0  0  0  0  0
   53.7510   30.8430   53.1330 C   0  0  0  0  0  0  0  0  0  0  0  0
   53.7637   31.7552   53.7475 H   0  0  0  0  0  0  0  0  0  0  0  0
   52.8017   30.6711   52.6046 H   0  0  0  0  0  0  0  0  0  0  0  0
   54.8180   31.0000   52.0330 C   0  0  0  0  0  0  0  0  0  0  0  0
   54.4633   31.7533   51.3141 H   0  0  0  0  0  0  0  0  0  0  0  0
   54.9520   30.0065   51.5803 H   0  0  0  0  0  0  0  0  0  0  0  0
   57.7720   32.3020   50.7790 N   0  0  0  0  0  0  0  0  0  0  0  0
   58.5710   31.7160   49.8700 C   0  0  0  0  0  0  0  0  0  0  0  0
   59.4280   32.4930   48.9470 C   0  0  0  0  0  0  0  0  0  0  0  0
   58.8920   33.5180   48.1500 C   0  0  0  0  0  0  0  0  0  0  0  0
   57.8216   33.7620   48.2182 H   0  0  0  0  0  0  0  0  0  0  0  0
   59.7120   34.2280   47.2720 C   0  0  0  0  0  0  0  0  0  0  0  0
   59.2902   35.0458   46.6693 H   0  0  0  0  0  0  0  0  0  0  0  0
   61.0660   33.9050   47.1550 C   0  0  0  0  0  0  0  0  0  0  0  0
   61.7075   34.4760   46.4677 H   0  0  0  0  0  0  0  0  0  0  0  0
   61.6130   32.8530   47.9120 C   0  0  0  0  0  0  0  0  0  0  0  0
   63.0450   32.4880   47.7940 C   0  0  0  0  0  0  0  0  0  0  0  0
   63.5500   31.6700   48.6110 O   0  0  0  0  0  0  0  0  0  0  0  0
   63.8760   33.0380   46.7680 N   0  0  0  0  0  0  0  0  0  0  0  0
   63.4800   33.6110   45.9900 H   0  0  0  0  0  0  0  0  0  0  0  0
   64.8770   32.7540   46.7050 H   0  0  0  0  0  0  0  0  0  0  0  0
   60.7820   32.1550   48.8080 C   0  0  0  0  0  0  0  0  0  0  0  0
   61.2002   31.3330   49.4075 H   0  0  0  0  0  0  0  0  0  0  0  0
   60.1660   28.5150   49.6300 C   0  0  0  0  0  0  0  0  0  0  0  0
   60.5741   28.6770   50.6386 H   0  0  0  0  0  0  0  0  0  0  0  0
  1  2  1  0
  2  3  1  0
  3  4  1  0
  4  5  2  0
  5  6  1  0
  6  7  2  0
  6  8  1  0
  8  9  2  0
  9 10  1  0
  9 11  1  0
 11 12  1  0
 11 13  2  0
 13 14  1  0
 14 15  1  0
 15 16  1  0
 15 17  1  0
 15 18  1  0
 13 19  1  0
 19 20  1  0
 19 21  2  0
 21 22  1  0
  4 23  1  0
 23 24  1  0
 23 25  2  0
 25 26  1  0
 26 27  1  0
 27 28  1  0
 28 29  1  0
 29 30  1  1
 29 31  1  0
 31 32  1  0
 31 33  1  0
 31 34  1  0
 34 35  1  0
 35 36  1  0
 35 37  1  0
 35 38  1  0
 34 39  1  0
 39 40  2  0
 39 41  1  0
 41 42  1  0
 41 43  1  0
 41 44  1  0
 44 45  1  0
 44 46  1  0
 44 47  1  0
 47 48  1  0
 47 49  1  0
 28 50  2  0
 50 51  1  0
 51 52  1  0
 52 53  2  0
 53 54  1  0
 53 55  1  0
 55 56  1  0
 55 57  2  0
 57 58  1  0
 57 59  1  0
 59 60  1  0
 60 61  2  0
 60 62  1  0
 62 63  1  0
 62 64  1  0
 59 65  2  0
 65 66  1  0
 25 67  1  0
 67 68  1  0
 67  2  2  0
 21  8  1  0
 51 26  2  0
 65 52  1  0
 47 29  1  0
M  CHG  3   3  -1  22  -1  27  -1
M  END
>  <UniqueID>  (36) 
34

>  <SMILES>  (36) 
COc1ccc(C(=O)/N=c2/cc(-c3[n-]c([C@H]4CCCC(=O)N(C)C4)nc3-c3cccc(C(N)=O)c3)cc[n-]2)c([O-])c1

>  <Energy>  (36) 
121.77051300198794

>  <Genealogy>  (36) 
COc1ccc(C(=O)N=c2cc(-c3[n-]c(C4CCCC(=O)N(C)C4)nc3-c3cccc(C(N)=O)c3)cc[n-]2)c([O-])c1 (protonated)
COc1ccc(C(=O)N=c2cc(-c3[n-]c([C@H]4CCCC(=O)N(C)C4)nc3-c3cccc(C(N)=O)c3)cc[n-]2)c([O-])c1 (chirality)
COc1ccc(C(=O)/N=c2/cc(-c3[n-]c([C@H]4CCCC(=O)N(C)C4)nc3-c3cccc(C(N)=O)c3)cc[n-]2)c([O-])c1 (cis-trans isomerization)
COc1ccc(C(=O)/N=c2/cc(-c3[n-]c([C@H]4CCCC(=O)N(C)C4)nc3-c3cccc(C(N)=O)c3)cc[n-]2)c([O-])c1 (3D coordinates assigned)
COc1ccc(C(=O)/N=c2/cc(-c3[n-]c([C@H]4CCCC(=O)N(C)C4)nc3-c3cccc(C(N)=O)c3)cc[n-]2)c([O-])c1 (nonaromatic ring conformer: 121.77051300198794 kcal/mol)

>  <smiles>  (36) 
COc1ccc(C(=O)N=c2cc(-c3[nH]c(C4CCCC(=O)N(C)C4)nc3-c3cccc(C(N)=O)c3)cc[nH]2)c(O)c1

>  <score_type>  (36) 
oracle

>  <origin>  (36) 
adg

>  <m_score__min__energy>  (36) 
-12.869999999999999

>  <m_primary>  (36) 
energy

$$$$
36:0
     RDKit          3D

 51 54  0  0  0  0  0  0  0  0999 V2000
   59.9820   29.8660   45.5790 C   0  0  0  0  0  0  0  0  0  0  0  0
   60.0490   31.1060   46.4870 C   0  0  2  0  0  0  0  0  0  0  0  0
   60.5400   30.6980   47.8890 C   0  0  0  0  0  0  0  0  0  0  0  0
   60.6430   31.8760   48.7550 N   0  0  0  0  0  0  0  0  0  0  0  0
   61.3550   31.7780   50.0030 C   0  0  0  0  0  0  0  0  0  0  0  0
   60.7160   31.5160   51.0590 O   0  0  0  0  0  0  0  0  0  0  0  0
   62.8210   31.9710   50.0820 C   0  0  0  0  0  0  0  0  0  0  0  0
   63.4680   32.9200   49.2700 C   0  0  0  0  0  0  0  0  0  0  0  0
   64.8540   33.0830   49.3420 C   0  0  0  0  0  0  0  0  0  0  0  0
   65.6090   32.2960   50.2150 C   0  0  0  0  0  0  0  0  0  0  0  0
   64.9790   31.3370   51.0130 C   0  0  0  0  0  0  0  0  0  0  0  0
   63.5920   31.1710   50.9450 C   0  0  0  0  0  0  0  0  0  0  0  0
   59.8850   33.0840   48.4060 C   0  0  0  0  0  0  0  0  0  0  0  0
   58.5590   32.6810   47.7510 C   0  0  0  0  0  0  0  0  0  0  0  0
   58.7340   31.8150   46.5470 N   0  0  1  0  0  0  0  0  0  0  0  0
   58.5370   32.6070   45.3430 C   0  0  0  0  0  0  0  0  0  0  0  0
   58.8590   33.8280   45.3490 O   0  0  0  0  0  0  0  0  0  0  0  0
   57.9010   32.0620   44.1190 C   0  0  0  0  0  0  0  0  0  0  0  0
   58.1440   32.7160   42.5860 S   0  0  0  0  0  0  0  0  0  0  0  0
   57.1790   31.6360   41.7380 C   0  0  0  0  0  0  0  0  0  0  0  0
   56.6520   30.7280   42.6450 C   0  0  0  0  0  0  0  0  0  0  0  0
   57.0590   30.9530   43.9750 C   0  0  0  0  0  0  0  0  0  0  0  0
   56.6880   30.1350   45.0470 O   0  0  0  0  0  0  0  0  0  0  0  0
   55.8920   28.9650   44.9210 C   0  0  0  0  0  0  0  0  0  0  0  0
   56.5800   27.8370   45.6160 C   0  0  0  0  0  0  0  0  0  0  0  0
   57.8670   27.8600   46.0030 N   0  0  0  0  0  0  0  0  0  0  0  0
   58.0100   26.6940   46.6710 C   0  0  0  0  0  0  0  0  0  0  0  0
   59.0990   26.3420   47.1930 O   0  0  0  0  0  0  0  0  0  0  0  0
   56.8900   25.9410   46.7460 N   0  0  0  0  0  0  0  0  0  0  0  0
   55.9920   26.6850   46.0800 C   0  0  0  0  0  0  0  0  0  0  0  0
   54.6620   26.3220   45.9100 O   0  0  0  0  0  0  0  0  0  0  0  0
   59.9330   28.9592   46.1998 H   0  0  0  0  0  0  0  0  0  0  0  0
   59.0857   29.9245   44.9440 H   0  0  0  0  0  0  0  0  0  0  0  0
   60.8794   29.8276   44.9440 H   0  0  0  0  0  0  0  0  0  0  0  0
   60.7697   31.8176   46.0577 H   0  0  0  0  0  0  0  0  0  0  0  0
   59.8277   29.9849   48.3296 H   0  0  0  0  0  0  0  0  0  0  0  0
   61.5325   30.2324   47.7989 H   0  0  0  0  0  0  0  0  0  0  0  0
   62.8799   33.5370   48.5747 H   0  0  0  0  0  0  0  0  0  0  0  0
   65.3518   33.8329   48.7097 H   0  0  0  0  0  0  0  0  0  0  0  0
   66.6991   32.4310   50.2743 H   0  0  0  0  0  0  0  0  0  0  0  0
   65.5745   30.7123   51.6950 H   0  0  0  0  0  0  0  0  0  0  0  0
   63.1010   30.4105   51.5699 H   0  0  0  0  0  0  0  0  0  0  0  0
   59.6824   33.6662   49.3170 H   0  0  0  0  0  0  0  0  0  0  0  0
   60.4708   33.6956   47.7040 H   0  0  0  0  0  0  0  0  0  0  0  0
   57.9566   32.1331   48.4906 H   0  0  0  0  0  0  0  0  0  0  0  0
   58.0657   33.6061   47.4180 H   0  0  0  0  0  0  0  0  0  0  0  0
   57.9810   31.0980   46.6160 H   0  0  0  0  0  0  0  0  0  0  0  0
   56.9964   31.6463   40.6533 H   0  0  0  0  0  0  0  0  0  0  0  0
   55.9789   29.9085   42.3529 H   0  0  0  0  0  0  0  0  0  0  0  0
   54.9074   29.1366   45.3804 H   0  0  0  0  0  0  0  0  0  0  0  0
   55.7541   28.7199   43.8576 H   0  0  0  0  0  0  0  0  0  0  0  0
  1  2  1  0
  2  3  1  0
  3  4  1  0
  4  5  1  0
  5  6  2  0
  5  7  1  0
  7  8  2  0
  8  9  1  0
  9 10  2  0
 10 11  1  0
 11 12  2  0
  4 13  1  0
 13 14  1  0
 14 15  1  0
 15 16  1  0
 16 17  2  0
 16 18  1  0
 18 19  1  0
 19 20  1  0
 20 21  2  0
 21 22  1  0
 22 23  1  0
 23 24  1  0
 24 25  1  0
 25 26  1  0
 26 27  1  0
 27 28  2  0
 27 29  1  0
 29 30  1  0
 30 31  1  0
 15  2  1  0
 22 18  2  0
 30 25  2  0
 12  7  1  0
  1 32  1  0
  1 33  1  0
  1 34  1  0
  2 35  1  6
  3 36  1  0
  3 37  1  0
  8 38  1  0
  9 39  1  0
 10 40  1  0
 11 41  1  0
 12 42  1  0
 13 43  1  0
 13 44  1  0
 14 45  1  0
 14 46  1  0
 15 47  1  1
 20 48  1  0
 21 49  1  0
 24 50  1  0
 24 51  1  0
M  CHG  4  15   1  26  -1  29  -1  31  -1
M  END
>  <UniqueID>  (37) 
35

>  <SMILES>  (37) 
C[C@@H]1CN(C(=O)c2ccccc2)CC[N@H+]1C(=O)c1sccc1OCc1[n-]c(=O)[n-]c1[O-]

>  <Energy>  (37) 
121.22874872593687

>  <Genealogy>  (37) 
CC1CN(C(=O)c2ccccc2)CC[NH+]1C(=O)c1sccc1OCc1[n-]c(=O)[n-]c1[O-] (protonated)
C[C@@H]1CN(C(=O)c2ccccc2)CC[N@H+]1C(=O)c1sccc1OCc1[n-]c(=O)[n-]c1[O-] (chirality)
C[C@@H]1CN(C(=O)c2ccccc2)CC[N@H+]1C(=O)c1sccc1OCc1[n-]c(=O)[n-]c1[O-] (3D coordinates assigned)
C[C@@H]1CN(C(=O)c2ccccc2)CC[N@H+]1C(=O)c1sccc1OCc1[n-]c(=O)[n-]c1[O-] (nonaromatic ring conformer: 121.22874872593687 kcal/mol)

>  <smiles>  (37) 
CC1CN(C(=O)c2ccccc2)CCN1C(=O)c1sccc1OCc1[nH]c(=O)[nH]c1O

>  <score_type>  (37) 
oracle

>  <origin>  (37) 
adg

>  <m_score__min__energy>  (37) 
-16.059999999999999

>  <m_primary>  (37) 
energy

$$$$
37:0
     RDKit          3D

 39 41  0  0  0  0  0  0  0  0999 V2000
   58.8003   25.2139   47.1334 H   0  0  0  0  0  0  0  0  0  0  0  0
   57.8100   25.5200   46.7650 C   0  0  0  0  0  0  0  0  0  0  0  0
   56.7740   24.6400   46.7920 N   0  0  0  0  0  0  0  0  0  0  0  0
   55.5420   24.9980   46.3500 C   0  0  0  0  0  0  0  0  0  0  0  0
   54.5980   24.1670   46.3790 O   0  0  0  0  0  0  0  0  0  0  0  0
   55.3250   26.2530   45.8810 N   0  0  0  0  0  0  0  0  0  0  0  0
   56.3280   27.1680   45.8360 C   0  0  0  0  0  0  0  0  0  0  0  0
   56.0920   28.3250   45.3960 O   0  0  0  0  0  0  0  0  0  0  0  0
   57.6180   26.8180   46.2680 C   0  0  0  0  0  0  0  0  0  0  0  0
   58.6840   27.7860   46.2540 N   0  0  0  0  0  0  0  0  0  0  0  0
   58.9130   28.2480   45.3460 H   0  0  0  0  0  0  0  0  0  0  0  0
   59.5150   28.0730   47.3930 C   0  0  0  0  0  0  0  0  0  0  0  0
   59.5300   27.2880   48.3790 O   0  0  0  0  0  0  0  0  0  0  0  0
   60.3800   29.2680   47.4110 C   0  0  0  0  0  0  0  0  0  0  0  0
   60.4610   30.0130   46.3420 N   0  0  0  0  0  0  0  0  0  0  0  0
   59.5860   31.0930   45.9850 C   0  0  0  0  0  0  0  0  0  0  0  0
   58.4870   30.8950   45.1320 C   0  0  0  0  0  0  0  0  0  0  0  0
   58.2810   29.8931   44.7273 H   0  0  0  0  0  0  0  0  0  0  0  0
   57.6550   31.9660   44.7960 C   0  0  0  0  0  0  0  0  0  0  0  0
   56.8077   31.8085   44.1125 H   0  0  0  0  0  0  0  0  0  0  0  0
   57.8960   33.2380   45.3260 C   0  0  0  0  0  0  0  0  0  0  0  0
   56.8310   34.5630   44.8760 Cl  0  0  0  0  0  0  0  0  0  0  0  0
   58.9710   33.4350   46.2090 C   0  0  0  0  0  0  0  0  0  0  0  0
   59.3020   35.0130   46.9070 Cl  0  0  0  0  0  0  0  0  0  0  0  0
   59.8030   32.3580   46.5420 C   0  0  0  0  0  0  0  0  0  0  0  0
   60.6337   32.5082   47.2472 H   0  0  0  0  0  0  0  0  0  0  0  0
   61.0870   29.6000   48.6200 N   0  0  0  0  0  0  0  0  0  0  0  0
   61.5480   28.8210   49.1400 H   0  0  0  0  0  0  0  0  0  0  0  0
   61.0590   30.9080   49.2240 C   0  0  0  0  0  0  0  0  0  0  0  0
   60.1400   31.2030   50.2510 C   0  0  0  0  0  0  0  0  0  0  0  0
   59.4473   30.4250   50.6045 H   0  0  0  0  0  0  0  0  0  0  0  0
   60.1030   32.4770   50.8230 C   0  0  0  0  0  0  0  0  0  0  0  0
   59.3768   32.7010   51.6183 H   0  0  0  0  0  0  0  0  0  0  0  0
   60.9860   33.4660   50.3870 C   0  0  0  0  0  0  0  0  0  0  0  0
   60.9539   34.4688   50.8380 H   0  0  0  0  0  0  0  0  0  0  0  0
   61.9100   33.1840   49.3790 C   0  0  0  0  0  0  0  0  0  0  0  0
   62.6061   33.9652   49.0397 H   0  0  0  0  0  0  0  0  0  0  0  0
   61.9540   31.9100   48.7980 C   0  0  0  0  0  0  0  0  0  0  0  0
   63.1060   31.6170   47.5010 Cl  0  0  0  0  0  0  0  0  0  0  0  0
  1  2  1  0
  2  3  1  0
  3  4  1  0
  4  5  2  0
  4  6  1  0
  6  7  1  0
  7  8  2  0
  7  9  1  0
  9 10  1  0
 10 11  1  0
 10 12  1  0
 12 13  2  0
 12 14  1  0
 14 15  2  0
 15 16  1  0
 16 17  2  0
 17 18  1  0
 17 19  1  0
 19 20  1  0
 19 21  2  0
 21 22  1  0
 21 23  1  0
 23 24  1  0
 23 25  2  0
 25 26  1  0
 14 27  1  0
 27 28  1  0
 27 29  1  0
 29 30  2  0
 30 31  1  0
 30 32  1  0
 32 33  1  0
 32 34  2  0
 34 35  1  0
 34 36  1  0
 36 37  1  0
 36 38  2  0
 38 39  1  0
  9  2  2  0
 25 16  1  0
 38 29  1  0
M  CHG  2   3  -1   6  -1
M  END
>  <UniqueID>  (38) 
36

>  <SMILES>  (38) 
O=C(Nc1c[n-]c(=O)[n-]c1=O)/C(=N/c1ccc(Cl)c(Cl)c1)Nc1ccccc1Cl

>  <Energy>  (38) 
59.02238900406856

>  <Genealogy>  (38) 
O=C(Nc1c[n-]c(=O)[n-]c1=O)C(=Nc1ccc(Cl)c(Cl)c1)Nc1ccccc1Cl (protonated)
O=C(Nc1c[n-]c(=O)[n-]c1=O)/C(=N/c1ccc(Cl)c(Cl)c1)Nc1ccccc1Cl (cis-trans isomerization)
O=C(Nc1c[n-]c(=O)[n-]c1=O)/C(=N/c1ccc(Cl)c(Cl)c1)Nc1ccccc1Cl (3D coordinates assigned)
O=C(Nc1c[n-]c(=O)[n-]c1=O)/C(=N/c1ccc(Cl)c(Cl)c1)Nc1ccccc1Cl (optimized conformer: 59.02238900406856 kcal/mol)

>  <smiles>  (38) 
O=C(Nc1c[nH]c(=O)[nH]c1=O)C(=Nc1ccc(Cl)c(Cl)c1)Nc1ccccc1Cl

>  <score_type>  (38) 
oracle

>  <origin>  (38) 
adg

>  <m_score__min__energy>  (38) 
-12.449999999999999

>  <m_primary>  (38) 
energy

$$$$
38:0
     RDKit          3D

 50 53  0  0  0  0  0  0  0  0999 V2000
   58.0430   32.6940   42.7740 C   0  0  0  0  0  0  0  0  0  0  0  0
   57.6770   33.4140   43.9460 O   0  0  0  0  0  0  0  0  0  0  0  0
   58.5130   33.6000   45.0600 C   0  0  0  0  0  0  0  0  0  0  0  0
   59.2880   34.7630   45.2220 C   0  0  0  0  0  0  0  0  0  0  0  0
   60.1410   34.9010   46.3190 C   0  0  0  0  0  0  0  0  0  0  0  0
   60.2490   33.8770   47.2730 C   0  0  0  0  0  0  0  0  0  0  0  0
   61.1580   34.0130   48.4380 C   0  0  0  0  0  0  0  0  0  0  0  0
   60.7230   34.0030   49.6520 N   0  0  0  0  0  0  0  0  0  0  0  0
   61.7600   34.1940   50.5260 O   0  0  0  0  0  0  0  0  0  0  0  0
   63.0040   34.3830   49.8720 C   0  0  1  0  0  0  0  0  0  0  0  0
   64.0430   33.3790   50.3940 C   0  0  0  0  0  0  0  0  0  0  0  0
   63.6630   31.9320   50.0460 C   0  0  0  0  0  0  0  0  0  0  0  0
   63.2620   31.7300   48.5670 C   0  0  0  0  0  0  0  0  0  0  0  0
   63.3680   33.0060   47.7190 C   0  0  0  0  0  0  0  0  0  0  0  0
   62.6490   34.2070   48.3730 C   0  0  1  0  0  0  0  0  0  0  0  0
   59.4650   32.7200   47.1200 C   0  0  0  0  0  0  0  0  0  0  0  0
   58.5900   32.5850   46.0320 C   0  0  0  0  0  0  0  0  0  0  0  0
   57.7770   31.3620   45.9100 C   0  0  0  0  0  0  0  0  0  0  0  0
   57.9310   30.4380   46.7520 O   0  0  0  0  0  0  0  0  0  0  0  0
   56.8050   31.1990   44.8730 N   0  0  0  0  0  0  0  0  0  0  0  0
   56.4010   29.6830   44.1330 S   0  0  0  0  0  0  0  0  0  0  0  0
   56.6170   29.7610   42.6480 O   0  0  0  0  0  0  0  0  0  0  0  0
   54.9620   29.3390   44.4020 O   0  0  0  0  0  0  0  0  0  0  0  0
   57.4240   28.4290   44.8220 C   0  0  0  0  0  0  0  0  0  0  0  0
   56.8570   27.4070   45.5970 C   0  0  0  0  0  0  0  0  0  0  0  0
   57.6700   26.4150   46.1570 C   0  0  0  0  0  0  0  0  0  0  0  0
   59.0520   26.4430   45.9480 C   0  0  0  0  0  0  0  0  0  0  0  0
   59.6220   27.4640   45.1820 C   0  0  0  0  0  0  0  0  0  0  0  0
   58.8120   28.4570   44.6220 C   0  0  0  0  0  0  0  0  0  0  0  0
   58.5242   31.7473   43.0606 H   0  0  0  0  0  0  0  0  0  0  0  0
   57.1432   32.4821   42.1778 H   0  0  0  0  0  0  0  0  0  0  0  0
   58.7444   33.2961   42.1778 H   0  0  0  0  0  0  0  0  0  0  0  0
   59.2214   35.5706   44.4781 H   0  0  0  0  0  0  0  0  0  0  0  0
   60.7335   35.8203   46.4366 H   0  0  0  0  0  0  0  0  0  0  0  0
   63.4715   35.3622   50.0524 H   0  0  0  0  0  0  0  0  0  0  0  0
   65.0191   33.6093   49.9421 H   0  0  0  0  0  0  0  0  0  0  0  0
   64.0838   33.4677   51.4897 H   0  0  0  0  0  0  0  0  0  0  0  0
   64.5260   31.2853   50.2626 H   0  0  0  0  0  0  0  0  0  0  0  0
   62.7824   31.6773   50.6540 H   0  0  0  0  0  0  0  0  0  0  0  0
   63.9219   30.9664   48.1294 H   0  0  0  0  0  0  0  0  0  0  0  0
   62.2050   31.4256   48.5591 H   0  0  0  0  0  0  0  0  0  0  0  0
   64.4310   33.2577   47.5902 H   0  0  0  0  0  0  0  0  0  0  0  0
   62.8815   32.8086   46.7524 H   0  0  0  0  0  0  0  0  0  0  0  0
   62.9656   35.0538   47.7463 H   0  0  0  0  0  0  0  0  0  0  0  0
   59.5386   31.9113   47.8620 H   0  0  0  0  0  0  0  0  0  0  0  0
   55.7702   27.3850   45.7652 H   0  0  0  0  0  0  0  0  0  0  0  0
   57.2215   25.6131   46.7618 H   0  0  0  0  0  0  0  0  0  0  0  0
   59.6907   25.6619   46.3862 H   0  0  0  0  0  0  0  0  0  0  0  0
   60.7097   27.4864   45.0194 H   0  0  0  0  0  0  0  0  0  0  0  0
   59.2643   29.2615   44.0235 H   0  0  0  0  0  0  0  0  0  0  0  0
  1  2  1  0
  2  3  1  0
  3  4  2  0
  4  5  1  0
  5  6  2  0
  6  7  1  0
  7  8  2  0
  8  9  1  0
  9 10  1  0
 10 11  1  0
 11 12  1  0
 12 13  1  0
 13 14  1  0
 14 15  1  0
  6 16  1  0
 16 17  2  0
 17 18  1  0
 18 19  2  0
 18 20  1  0
 20 21  1  0
 21 22  2  0
 21 23  2  0
 21 24  1  0
 24 25  2  0
 25 26  1  0
 26 27  2  0
 27 28  1  0
 28 29  2  0
 17  3  1  0
 29 24  1  0
 15  7  1  0
 15 10  1  0
  1 30  1  0
  1 31  1  0
  1 32  1  0
  4 33  1  0
  5 34  1  0
 10 35  1  6
 11 36  1  0
 11 37  1  0
 12 38  1  0
 12 39  1  0
 13 40  1  0
 13 41  1  0
 14 42  1  0
 14 43  1  0
 15 44  1  6
 16 45  1  0
 25 46  1  0
 26 47  1  0
 27 48  1  0
 28 49  1  0
 29 50  1  0
M  CHG  1  20  -1
M  END
>  <UniqueID>  (39) 
37

>  <SMILES>  (39) 
COc1ccc(C2=NO[C@H]3CCCC[C@@H]23)cc1C(=O)[N-]S(=O)(=O)c1ccccc1

>  <Energy>  (39) 
77.96860252757754

>  <Genealogy>  (39) 
COc1ccc(C2=NOC3CCCCC23)cc1C(=O)[N-]S(=O)(=O)c1ccccc1 (protonated)
COc1ccc(C2=NO[C@H]3CCCC[C@@H]23)cc1C(=O)[N-]S(=O)(=O)c1ccccc1 (chirality)
COc1ccc(C2=NO[C@H]3CCCC[C@@H]23)cc1C(=O)[N-]S(=O)(=O)c1ccccc1 (3D coordinates assigned)
COc1ccc(C2=NO[C@H]3CCCC[C@@H]23)cc1C(=O)[N-]S(=O)(=O)c1ccccc1 (nonaromatic ring conformer: 77.96860252757754 kcal/mol)

>  <smiles>  (39) 
COc1ccc(C2=NOC3CCCCC23)cc1C(=O)NS(=O)(=O)c1ccccc1

>  <score_type>  (39) 
oracle

>  <origin>  (39) 
adg

>  <m_score__min__energy>  (39) 
-11.779999999999999

>  <m_primary>  (39) 
energy

$$$$
39:0
     RDKit          3D

 56 59  0  0  0  0  0  0  0  0999 V2000
   60.1404   23.1663   46.1940 H   0  0  0  0  0  0  0  0  0  0  0  0
   59.2740   23.5330   45.6240 C   0  0  0  0  0  0  0  0  0  0  0  0
   58.5480   22.6520   44.8180 C   0  0  0  0  0  0  0  0  0  0  0  0
   58.8456   21.5951   44.7508 H   0  0  0  0  0  0  0  0  0  0  0  0
   57.4430   23.1150   44.0970 C   0  0  0  0  0  0  0  0  0  0  0  0
   56.6880   22.2070   43.2720 C   0  0  0  0  0  0  0  0  0  0  0  0
   56.0800   21.4770   42.6120 N   0  0  0  0  0  0  0  0  0  0  0  0
   57.0670   24.4620   44.1790 C   0  0  0  0  0  0  0  0  0  0  0  0
   56.1944   24.8215   43.6139 H   0  0  0  0  0  0  0  0  0  0  0  0
   57.8000   25.3590   44.9810 C   0  0  0  0  0  0  0  0  0  0  0  0
   57.4110   26.7890   45.0740 C   0  0  0  0  0  0  0  0  0  0  0  0
   56.3720   27.1120   45.7110 O   0  0  0  0  0  0  0  0  0  0  0  0
   58.1440   27.8170   44.3890 N   0  0  0  0  0  0  0  0  0  0  0  0
   57.7910   29.0650   44.2370 C   0  0  0  0  0  0  0  0  0  0  0  0
   56.8620   29.4790   43.2640 C   0  0  0  0  0  0  0  0  0  0  0  0
   56.4074   28.7429   42.5847 H   0  0  0  0  0  0  0  0  0  0  0  0
   56.5210   30.8280   43.1660 C   0  0  0  0  0  0  0  0  0  0  0  0
   55.7872   31.1538   42.4141 H   0  0  0  0  0  0  0  0  0  0  0  0
   57.0910   31.7420   43.9950 N   0  0  0  0  0  0  0  0  0  0  0  0
   56.7860   32.7370   43.9160 H   0  0  0  0  0  0  0  0  0  0  0  0
   58.0140   31.3820   44.9350 C   0  0  0  0  0  0  0  0  0  0  0  0
   58.5890   32.3750   45.8060 N   0  0  0  0  0  0  0  0  0  0  0  0
   58.8900   32.0600   47.2070 C   0  0  0  0  0  0  0  0  0  0  0  0
   58.3406   32.7526   47.8615 H   0  0  0  0  0  0  0  0  0  0  0  0
   58.5843   31.0243   47.4162 H   0  0  0  0  0  0  0  0  0  0  0  0
   60.3950   32.2010   47.4690 C   0  0  0  0  0  0  0  0  0  0  0  0
   60.5540   32.2935   48.5535 H   0  0  0  0  0  0  0  0  0  0  0  0
   60.8844   31.3072   47.0548 H   0  0  0  0  0  0  0  0  0  0  0  0
   61.0250   33.4400   46.7690 C   0  0  0  0  0  0  0  0  0  0  0  0
   61.5731   33.0840   45.8842 H   0  0  0  0  0  0  0  0  0  0  0  0
   62.0170   34.0980   47.6600 N   0  0  0  0  0  0  0  0  0  0  0  0
   63.4530   33.8110   47.4060 C   0  0  0  0  0  0  0  0  0  0  0  0
   63.5202   33.0166   46.6481 H   0  0  0  0  0  0  0  0  0  0  0  0
   63.9153   34.7505   47.0690 H   0  0  0  0  0  0  0  0  0  0  0  0
   64.2190   33.3550   48.6570 C   0  0  0  0  0  0  0  0  0  0  0  0
   65.1482   32.8527   48.3498 H   0  0  0  0  0  0  0  0  0  0  0  0
   64.4510   34.2359   49.2737 H   0  0  0  0  0  0  0  0  0  0  0  0
   63.3730   32.3880   49.4760 C   0  0  0  0  0  0  0  0  0  0  0  0
   63.1182   31.5184   48.8524 H   0  0  0  0  0  0  0  0  0  0  0  0
   63.9546   32.0786   50.3569 H   0  0  0  0  0  0  0  0  0  0  0  0
   62.0760   33.0530   49.9610 C   0  0  0  0  0  0  0  0  0  0  0  0
   61.2783   32.2956   49.9672 H   0  0  0  0  0  0  0  0  0  0  0  0
   62.2769   33.4578   50.9639 H   0  0  0  0  0  0  0  0  0  0  0  0
   61.6200   34.2340   49.0800 C   0  0  0  0  0  0  0  0  0  0  0  0
   60.5233   34.3029   49.1301 H   0  0  0  0  0  0  0  0  0  0  0  0
   62.1124   35.1375   49.4690 H   0  0  0  0  0  0  0  0  0  0  0  0
   59.9610   34.4150   46.2050 C   0  0  0  0  0  0  0  0  0  0  0  0
   59.3847   34.8438   47.0380 H   0  0  0  0  0  0  0  0  0  0  0  0
   60.4701   35.2143   45.6464 H   0  0  0  0  0  0  0  0  0  0  0  0
   59.0040   33.6740   45.2550 C   0  0  0  0  0  0  0  0  0  0  0  0
   58.1104   34.2947   45.0935 H   0  0  0  0  0  0  0  0  0  0  0  0
   59.5334   33.4917   44.3082 H   0  0  0  0  0  0  0  0  0  0  0  0
   58.3770   30.0320   45.0630 C   0  0  0  0  0  0  0  0  0  0  0  0
   59.1234   29.7332   45.8138 H   0  0  0  0  0  0  0  0  0  0  0  0
   58.9040   24.8780   45.7090 C   0  0  0  0  0  0  0  0  0  0  0  0
   59.4788   25.5642   46.3483 H   0  0  0  0  0  0  0  0  0  0  0  0
  1  2  1  0
  2  3  2  0
  3  4  1  0
  3  5  1  0
  5  6  1  0
  6  7  3  0
  5  8  2  0
  8  9  1  0
  8 10  1  0
 10 11  1  0
 11 12  2  0
 11 13  1  0
 13 14  2  0
 14 15  1  0
 15 16  1  0
 15 17  2  0
 17 18  1  0
 17 19  1  0
 19 20  1  0
 19 21  1  0
 21 22  1  0
 22 23  1  0
 23 24  1  0
 23 25  1  0
 23 26  1  0
 26 27  1  0
 26 28  1  0
 26 29  1  0
 29 30  1  0
 29 31  1  0
 31 32  1  0
 32 33  1  0
 32 34  1  0
 32 35  1  0
 35 36  1  0
 35 37  1  0
 35 38  1  0
 38 39  1  0
 38 40  1  0
 38 41  1  0
 41 42  1  0
 41 43  1  0
 41 44  1  0
 44 45  1  0
 44 46  1  0
 29 47  1  0
 47 48  1  0
 47 49  1  0
 47 50  1  0
 50 51  1  0
 50 52  1  0
 21 53  2  0
 53 54  1  0
 10 55  2  0
 55 56  1  0
 55  2  1  0
 53 14  1  0
 50 22  1  0
 44 31  1  0
M  END
>  <UniqueID>  (40) 
38

>  <SMILES>  (40) 
N#Cc1cccc(C(=O)/N=c2\cc[nH]c(N3CCC(N4CCCCC4)CC3)c2)c1

>  <Energy>  (40) 
88.62115623282688

>  <Genealogy>  (40) 
N#Cc1cccc(C(=O)/N=c2\cc[nH]c(N3CCC(N4CCCCC4)CC3)c2)c1 (cis-trans isomerization)
N#Cc1cccc(C(=O)/N=c2\cc[nH]c(N3CCC(N4CCCCC4)CC3)c2)c1 (3D coordinates assigned)
N#Cc1cccc(C(=O)/N=c2\cc[nH]c(N3CCC(N4CCCCC4)CC3)c2)c1 (nonaromatic ring conformer: 88.62115623282688 kcal/mol)

>  <smiles>  (40) 
N#Cc1cccc(C(=O)N=c2cc[nH]c(N3CCC(N4CCCCC4)CC3)c2)c1

>  <score_type>  (40) 
oracle

>  <origin>  (40) 
adg

>  <m_score__min__energy>  (40) 
-9.3900000000000006

>  <m_primary>  (40) 
energy

$$$$
40:0
     RDKit          3D

 22 23  0  0  0  0  0  0  0  0999 V2000
   58.2630   25.4310   47.1850 O   0  0  0  0  0  0  0  0  0  0  0  0
   57.7990   25.6200   46.0270 C   0  0  0  0  0  0  0  0  0  0  0  0
   57.5700   24.4550   45.1390 C   0  0  0  0  0  0  0  0  0  0  0  0
   56.5800   24.4930   44.1430 C   0  0  0  0  0  0  0  0  0  0  0  0
   56.4000   23.3860   43.3100 C   0  0  0  0  0  0  0  0  0  0  0  0
   57.2060   22.2580   43.4670 C   0  0  0  0  0  0  0  0  0  0  0  0
   58.1870   22.2550   44.4600 C   0  0  0  0  0  0  0  0  0  0  0  0
   58.3470   23.3410   45.2620 N   0  0  0  0  0  0  0  0  0  0  0  0
   57.4870   27.0030   45.5950 C   0  0  0  0  0  0  0  0  0  0  0  0
   58.5100   27.8740   45.1840 C   0  0  0  0  0  0  0  0  0  0  0  0
   58.2100   29.1820   44.8000 C   0  0  0  0  0  0  0  0  0  0  0  0
   56.8840   29.6180   44.8360 C   0  0  0  0  0  0  0  0  0  0  0  0
   56.5960   30.7940   44.4930 O   0  0  0  0  0  0  0  0  0  0  0  0
   55.9020   28.7720   45.2440 N   0  0  0  0  0  0  0  0  0  0  0  0
   56.1650   27.4920   45.6230 C   0  0  0  0  0  0  0  0  0  0  0  0
   55.1120   26.6760   46.0200 O   0  0  0  0  0  0  0  0  0  0  0  0
   55.9515   25.3873   44.0200 H   0  0  0  0  0  0  0  0  0  0  0  0
   55.6235   23.4037   42.5310 H   0  0  0  0  0  0  0  0  0  0  0  0
   57.0700   21.3817   42.8162 H   0  0  0  0  0  0  0  0  0  0  0  0
   58.8310   21.3733   44.5937 H   0  0  0  0  0  0  0  0  0  0  0  0
   59.5525   27.5234   45.1647 H   0  0  0  0  0  0  0  0  0  0  0  0
   59.0099   29.8623   44.4724 H   0  0  0  0  0  0  0  0  0  0  0  0
  1  2  2  0
  2  3  1  0
  3  4  2  0
  4  5  1  0
  5  6  2  0
  6  7  1  0
  7  8  2  0
  2  9  1  0
  9 10  1  0
 10 11  2  0
 11 12  1  0
 12 13  2  0
 12 14  1  0
 14 15  1  0
 15 16  1  0
  8  3  1  0
 15  9  2  0
  4 17  1  0
  5 18  1  0
  6 19  1  0
  7 20  1  0
 10 21  1  0
 11 22  1  0
M  CHG  2  14  -1  16  -1
M  END
>  <UniqueID>  (41) 
39

>  <SMILES>  (41) 
O=C(c1ccccn1)c1ccc(=O)[n-]c1[O-]

>  <Energy>  (41) 
30.535947515196348

>  <Genealogy>  (41) 
O=C(c1ccccn1)c1ccc(=O)[n-]c1[O-] (protonated)
O=C(c1ccccn1)c1ccc(=O)[n-]c1[O-] (3D coordinates assigned)
O=C(c1ccccn1)c1ccc(=O)[n-]c1[O-] (optimized conformer: 30.535947515196348 kcal/mol)

>  <smiles>  (41) 
O=C(c1ccccn1)c1ccc(=O)[nH]c1O

>  <score_type>  (41) 
oracle

>  <origin>  (41) 
adg

>  <m_score__min__energy>  (41) 
-12.369999999999999

>  <m_primary>  (41) 
energy

$$$$
41:0
     RDKit          3D

 66 69  0  0  0  0  0  0  0  0999 V2000
   59.5550   35.1140   45.2600 C   0  0  0  0  0  0  0  0  0  0  0  0
   58.7910   33.8240   45.1180 C   0  0  0  0  0  0  0  0  0  0  0  0
   58.3480   33.4350   43.8420 C   0  0  0  0  0  0  0  0  0  0  0  0
   57.6840   32.2210   43.6590 C   0  0  0  0  0  0  0  0  0  0  0  0
   57.4430   31.3770   44.7490 C   0  0  0  0  0  0  0  0  0  0  0  0
   56.8450   30.0450   44.5330 C   0  0  0  0  0  0  0  0  0  0  0  0
   55.8270   29.7130   45.1960 O   0  0  0  0  0  0  0  0  0  0  0  0
   57.3620   29.1340   43.5540 N   0  0  0  0  0  0  0  0  0  0  0  0
   57.7830   27.7660   43.8450 C   0  0  0  0  0  0  0  0  0  0  0  0
   59.2740   27.7270   44.1770 C   0  0  0  0  0  0  0  0  0  0  0  0
   59.4900   28.2050   45.5880 C   0  0  0  0  0  0  0  0  0  0  0  0
   58.6380   27.7780   46.6160 C   0  0  0  0  0  0  0  0  0  0  0  0
   58.7530   28.3160   47.8990 C   0  0  0  0  0  0  0  0  0  0  0  0
   59.7160   29.3020   48.1790 C   0  0  0  0  0  0  0  0  0  0  0  0
   59.7880   29.9340   49.5230 C   0  0  0  0  0  0  0  0  0  0  0  0
   61.0340   30.1550   50.1410 C   0  0  0  0  0  0  0  0  0  0  0  0
   61.1020   30.7170   51.4180 C   0  0  0  0  0  0  0  0  0  0  0  0
   59.9320   31.0650   52.0940 C   0  0  0  0  0  0  0  0  0  0  0  0
   58.6830   30.8620   51.4930 C   0  0  0  0  0  0  0  0  0  0  0  0
   57.2110   31.2950   52.3550 S   0  0  0  0  0  0  0  0  0  0  0  0
   55.8610   30.5110   51.6170 N   0  0  0  0  0  0  0  0  0  0  0  0
   57.3210   30.8660   53.7920 O   0  0  0  0  0  0  0  0  0  0  0  0
   57.0090   32.7840   52.3120 O   0  0  0  0  0  0  0  0  0  0  0  0
   58.6140   30.2940   50.2120 C   0  0  0  0  0  0  0  0  0  0  0  0
   60.5800   29.7150   47.1480 C   0  0  0  0  0  0  0  0  0  0  0  0
   60.4630   29.1770   45.8640 C   0  0  0  0  0  0  0  0  0  0  0  0
   57.8020   31.7980   46.0360 C   0  0  0  0  0  0  0  0  0  0  0  0
   58.4860   33.0070   46.2340 C   0  0  0  0  0  0  0  0  0  0  0  0
   59.0410   33.3990   47.8720 S   0  0  0  0  0  0  0  0  0  0  0  0
   58.9410   34.8810   48.1020 O   0  0  0  0  0  0  0  0  0  0  0  0
   58.1680   32.7080   48.8850 O   0  0  0  0  0  0  0  0  0  0  0  0
   60.6960   32.8750   48.0600 N   0  0  0  0  0  0  0  0  0  0  0  0
   61.4900   33.3100   46.8990 C   0  0  0  0  0  0  0  0  0  0  0  0
   62.9340   32.7720   46.9740 C   0  0  0  0  0  0  0  0  0  0  0  0
   63.2830   32.2150   48.3610 C   0  0  0  0  0  0  0  0  0  0  0  0
   62.7630   33.1410   49.4610 C   0  0  0  0  0  0  0  0  0  0  0  0
   61.2520   33.4320   49.3120 C   0  0  0  0  0  0  0  0  0  0  0  0
   59.6912   35.3439   46.3270 H   0  0  0  0  0  0  0  0  0  0  0  0
   60.5387   35.0125   44.7783 H   0  0  0  0  0  0  0  0  0  0  0  0
   58.9931   35.9278   44.7783 H   0  0  0  0  0  0  0  0  0  0  0  0
   58.5263   34.0937   42.9793 H   0  0  0  0  0  0  0  0  0  0  0  0
   57.3487   31.9264   42.6536 H   0  0  0  0  0  0  0  0  0  0  0  0
   57.2104   27.3854   44.7036 H   0  0  0  0  0  0  0  0  0  0  0  0
   57.5979   27.1397   42.9599 H   0  0  0  0  0  0  0  0  0  0  0  0
   59.6439   26.6957   44.0792 H   0  0  0  0  0  0  0  0  0  0  0  0
   59.8202   28.3817   43.4820 H   0  0  0  0  0  0  0  0  0  0  0  0
   57.8738   27.0140   46.4104 H   0  0  0  0  0  0  0  0  0  0  0  0
   58.0840   27.9654   48.6987 H   0  0  0  0  0  0  0  0  0  0  0  0
   61.9606   29.8830   49.6142 H   0  0  0  0  0  0  0  0  0  0  0  0
   62.0803   30.8856   51.8919 H   0  0  0  0  0  0  0  0  0  0  0  0
   59.9906   31.5003   53.1025 H   0  0  0  0  0  0  0  0  0  0  0  0
   55.4250   31.2020   50.9640 H   0  0  0  0  0  0  0  0  0  0  0  0
   57.6336   30.1284   49.7415 H   0  0  0  0  0  0  0  0  0  0  0  0
   61.3545   30.4682   47.3549 H   0  0  0  0  0  0  0  0  0  0  0  0
   61.1378   29.5176   45.0648 H   0  0  0  0  0  0  0  0  0  0  0  0
   57.5441   31.1722   46.9031 H   0  0  0  0  0  0  0  0  0  0  0  0
   61.0155   32.9357   45.9799 H   0  0  0  0  0  0  0  0  0  0  0  0
   61.5288   34.4093   46.8972 H   0  0  0  0  0  0  0  0  0  0  0  0
   63.0499   31.9684   46.2319 H   0  0  0  0  0  0  0  0  0  0  0  0
   63.6144   33.6120   46.7705 H   0  0  0  0  0  0  0  0  0  0  0  0
   62.8238   31.2222   48.4776 H   0  0  0  0  0  0  0  0  0  0  0  0
   64.3771   32.1417   48.4479 H   0  0  0  0  0  0  0  0  0  0  0  0
   62.9377   32.6648   50.4371 H   0  0  0  0  0  0  0  0  0  0  0  0
   63.3010   34.0971   49.3805 H   0  0  0  0  0  0  0  0  0  0  0  0
   60.7197   32.9860   50.1651 H   0  0  0  0  0  0  0  0  0  0  0  0
   61.1198   34.5237   49.2836 H   0  0  0  0  0  0  0  0  0  0  0  0
  1  2  1  0
  2  3  2  0
  3  4  1  0
  4  5  2  0
  5  6  1  0
  6  7  2  0
  6  8  1  0
  8  9  1  0
  9 10  1  0
 10 11  1  0
 11 12  2  0
 12 13  1  0
 13 14  2  0
 14 15  1  0
 15 16  2  0
 16 17  1  0
 17 18  2  0
 18 19  1  0
 19 20  1  0
 20 21  1  0
 20 22  2  0
 20 23  2  0
 19 24  2  0
 14 25  1  0
 25 26  2  0
  5 27  1  0
 27 28  2  0
 28 29  1  0
 29 30  2  0
 29 31  2  0
 29 32  1  0
 32 33  1  0
 33 34  1  0
 34 35  1  0
 35 36  1  0
 36 37  1  0
 28  2  1  0
 37 32  1  0
 26 11  1  0
 24 15  1  0
  1 38  1  0
  1 39  1  0
  1 40  1  0
  3 41  1  0
  4 42  1  0
  9 43  1  0
  9 44  1  0
 10 45  1  0
 10 46  1  0
 12 47  1  0
 13 48  1  0
 16 49  1  0
 17 50  1  0
 18 51  1  0
 21 52  1  0
 24 53  1  0
 25 54  1  0
 26 55  1  0
 27 56  1  0
 33 57  1  0
 33 58  1  0
 34 59  1  0
 34 60  1  0
 35 61  1  0
 35 62  1  0
 36 63  1  0
 36 64  1  0
 37 65  1  0
 37 66  1  0
M  CHG  2   8  -1  21  -1
M  END
>  <UniqueID>  (42) 
40

>  <SMILES>  (42) 
Cc1ccc(C(=O)[N-]CCc2ccc(-c3cccc(S([NH-])(=O)=O)c3)cc2)cc1S(=O)(=O)N1CCCCC1

>  <Energy>  (42) 
74.26897131910185

>  <Genealogy>  (42) 
Cc1ccc(C(=O)[N-]CCc2ccc(-c3cccc(S([NH-])(=O)=O)c3)cc2)cc1S(=O)(=O)N1CCCCC1 (protonated)
Cc1ccc(C(=O)[N-]CCc2ccc(-c3cccc(S([NH-])(=O)=O)c3)cc2)cc1S(=O)(=O)N1CCCCC1 (3D coordinates assigned)
Cc1ccc(C(=O)[N-]CCc2ccc(-c3cccc(S([NH-])(=O)=O)c3)cc2)cc1S(=O)(=O)N1CCCCC1 (nonaromatic ring conformer: 74.26897131910185 kcal/mol)

>  <smiles>  (42) 
Cc1ccc(C(=O)NCCc2ccc(-c3cccc(S(N)(=O)=O)c3)cc2)cc1S(=O)(=O)N1CCCCC1

>  <score_type>  (42) 
oracle

>  <origin>  (42) 
adg

>  <m_score__min__energy>  (42) 
-13.529999999999999

>  <m_primary>  (42) 
energy

$$$$
42:0
     RDKit          3D

 48 50  0  0  0  0  0  0  0  0999 V2000
   54.1953   29.9149   43.5857 H   0  0  0  0  0  0  0  0  0  0  0  0
   55.2530   29.7520   43.8400 C   0  0  0  0  0  0  0  0  0  0  0  0
   55.5820   29.0510   44.9520 N   0  0  0  0  0  0  0  0  0  0  0  0
   56.8680   28.8140   45.3300 C   0  0  0  0  0  0  0  0  0  0  0  0
   57.0370   28.0740   46.3930 N   0  0  0  0  0  0  0  0  0  0  0  0
   57.3050   26.6730   46.5140 C   0  0  0  0  0  0  0  0  0  0  0  0
   56.4220   25.8290   46.2070 O   0  0  0  0  0  0  0  0  0  0  0  0
   58.5960   26.2180   47.1150 C   0  0  0  0  0  0  0  0  0  0  0  0
   58.3895   25.5165   47.9368 H   0  0  0  0  0  0  0  0  0  0  0  0
   59.1998   25.7168   46.3441 H   0  0  0  0  0  0  0  0  0  0  0  0
   59.3320   27.3700   47.6330 N   0  0  0  0  0  0  0  0  0  0  0  0
   59.1680   28.2980   47.1790 H   0  0  0  0  0  0  0  0  0  0  0  0
   60.1090   27.3060   48.8390 C   0  0  0  0  0  0  0  0  0  0  0  0
   60.4140   26.1880   49.3400 O   0  0  0  0  0  0  0  0  0  0  0  0
   60.5760   28.5630   49.5080 C   0  0  0  0  0  0  0  0  0  0  0  0
   60.1152   28.6358   50.5042 H   0  0  0  0  0  0  0  0  0  0  0  0
   61.6718   28.5322   49.5990 H   0  0  0  0  0  0  0  0  0  0  0  0
   60.1880   29.7680   48.6930 C   0  0  0  0  0  0  0  0  0  0  0  0
   58.8870   30.2840   48.7700 C   0  0  0  0  0  0  0  0  0  0  0  0
   58.1479   29.8068   49.4304 H   0  0  0  0  0  0  0  0  0  0  0  0
   58.5230   31.4010   48.0130 C   0  0  0  0  0  0  0  0  0  0  0  0
   57.5002   31.7993   48.0850 H   0  0  0  0  0  0  0  0  0  0  0  0
   59.4530   32.0190   47.1610 C   0  0  0  0  0  0  0  0  0  0  0  0
   59.0840   33.1830   46.3950 N   0  0  0  0  0  0  0  0  0  0  0  0
   57.9340   33.3130   45.5760 C   0  0  0  0  0  0  0  0  0  0  0  0
   57.0170   32.4500   45.5200 O   0  0  0  0  0  0  0  0  0  0  0  0
   57.8790   34.5980   44.8520 C   0  0  0  0  0  0  0  0  0  0  0  0
   57.0284   35.2067   45.1925 H   0  0  0  0  0  0  0  0  0  0  0  0
   57.7399   34.4768   43.7676 H   0  0  0  0  0  0  0  0  0  0  0  0
   59.2150   35.2640   45.2180 C   0  0  0  0  0  0  0  0  0  0  0  0
   59.0402   36.2906   45.5724 H   0  0  0  0  0  0  0  0  0  0  0  0
   59.8790   35.3162   44.3426 H   0  0  0  0  0  0  0  0  0  0  0  0
   59.8510   34.4190   46.3390 C   0  0  0  0  0  0  0  0  0  0  0  0
   59.7895   34.9507   47.3000 H   0  0  0  0  0  0  0  0  0  0  0  0
   60.9154   34.2238   46.1415 H   0  0  0  0  0  0  0  0  0  0  0  0
   60.7440   31.4740   47.0520 C   0  0  0  0  0  0  0  0  0  0  0  0
   61.4718   31.9259   46.3620 H   0  0  0  0  0  0  0  0  0  0  0  0
   61.1090   30.3600   47.8160 C   0  0  0  0  0  0  0  0  0  0  0  0
   62.1243   29.9459   47.7284 H   0  0  0  0  0  0  0  0  0  0  0  0
   57.9250   29.3950   44.5600 C   0  0  0  0  0  0  0  0  0  0  0  0
   59.3780   29.4050   44.9620 C   0  0  0  0  0  0  0  0  0  0  0  0
   59.4548   29.4055   46.0593 H   0  0  0  0  0  0  0  0  0  0  0  0
   59.8758   28.5103   44.5600 H   0  0  0  0  0  0  0  0  0  0  0  0
   59.8635   30.3065   44.5600 H   0  0  0  0  0  0  0  0  0  0  0  0
   57.5840   30.0880   43.3850 C   0  0  0  0  0  0  0  0  0  0  0  0
   58.3802   30.4957   42.7448 H   0  0  0  0  0  0  0  0  0  0  0  0
   56.2510   30.2650   43.0210 C   0  0  0  0  0  0  0  0  0  0  0  0
   55.9922   30.8037   42.0975 H   0  0  0  0  0  0  0  0  0  0  0  0
  1  2  1  0
  2  3  1  0
  3  4  1  0
  4  5  2  0
  5  6  1  0
  6  7  2  0
  6  8  1  0
  8  9  1  0
  8 10  1  0
  8 11  1  0
 11 12  1  0
 11 13  1  0
 13 14  2  0
 13 15  1  0
 15 16  1  0
 15 17  1  0
 15 18  1  0
 18 19  2  0
 19 20  1  0
 19 21  1  0
 21 22  1  0
 21 23  2  0
 23 24  1  0
 24 25  1  0
 25 26  2  0
 25 27  1  0
 27 28  1  0
 27 29  1  0
 27 30  1  0
 30 31  1  0
 30 32  1  0
 30 33  1  0
 33 34  1  0
 33 35  1  0
 23 36  1  0
 36 37  1  0
 36 38  2  0
 38 39  1  0
  4 40  1  0
 40 41  1  0
 41 42  1  0
 41 43  1  0
 41 44  1  0
 40 45  2  0
 45 46  1  0
 45 47  1  0
 47 48  1  0
 47  2  2  0
 38 18  1  0
 33 24  1  0
M  CHG  1   3  -1
M  END
>  <UniqueID>  (43) 
41

>  <SMILES>  (43) 
Cc1ccc[n-]/c1=N/C(=O)CNC(=O)Cc1ccc(N2CCCC2=O)cc1

>  <Energy>  (43) 
66.82155933277168

>  <Genealogy>  (43) 
Cc1ccc[n-]c1=NC(=O)CNC(=O)Cc1ccc(N2CCCC2=O)cc1 (protonated)
Cc1ccc[n-]/c1=N/C(=O)CNC(=O)Cc1ccc(N2CCCC2=O)cc1 (cis-trans isomerization)
Cc1ccc[n-]/c1=N/C(=O)CNC(=O)Cc1ccc(N2CCCC2=O)cc1 (3D coordinates assigned)
Cc1ccc[n-]/c1=N/C(=O)CNC(=O)Cc1ccc(N2CCCC2=O)cc1 (nonaromatic ring conformer: 66.82155933277168 kcal/mol)

>  <smiles>  (43) 
Cc1ccc[nH]c1=NC(=O)CNC(=O)Cc1ccc(N2CCCC2=O)cc1

>  <score_type>  (43) 
oracle

>  <origin>  (43) 
adg

>  <m_score__min__energy>  (43) 
-11.039999999999999

>  <m_primary>  (43) 
energy

$$$$
43:0
     RDKit          3D

 53 56  0  0  0  0  0  0  0  0999 V2000
   56.2910   29.8870   42.3500 C   0  0  0  0  0  0  0  0  0  0  0  0
   57.0060   30.8980   43.2440 C   0  0  0  0  0  0  0  0  0  0  0  0
   57.4130   30.2730   44.5190 N   0  0  0  0  0  0  0  0  0  0  0  0
   56.9940   28.9880   44.7410 C   0  0  0  0  0  0  0  0  0  0  0  0
   57.3140   28.3050   45.9190 C   0  0  0  0  0  0  0  0  0  0  0  0
   56.7990   26.9290   46.1210 C   0  0  0  0  0  0  0  0  0  0  0  0
   55.5660   26.7090   45.9900 O   0  0  0  0  0  0  0  0  0  0  0  0
   57.6670   25.8280   46.4270 N   0  0  0  0  0  0  0  0  0  0  0  0
   57.8170   24.6230   45.6610 C   0  0  0  0  0  0  0  0  0  0  0  0
   56.9250   24.2860   44.6270 C   0  0  0  0  0  0  0  0  0  0  0  0
   57.1010   23.1020   43.9050 C   0  0  0  0  0  0  0  0  0  0  0  0
   58.1740   22.2570   44.1950 C   0  0  0  0  0  0  0  0  0  0  0  0
   59.0840   22.5990   45.2040 C   0  0  0  0  0  0  0  0  0  0  0  0
   60.1660   21.7720   45.4950 O   0  0  0  0  0  0  0  0  0  0  0  0
   58.9060   23.7840   45.9270 C   0  0  0  0  0  0  0  0  0  0  0  0
   58.1130   28.9420   46.8780 C   0  0  0  0  0  0  0  0  0  0  0  0
   58.4750   28.3150   47.9130 O   0  0  0  0  0  0  0  0  0  0  0  0
   58.5170   30.2730   46.6790 C   0  0  0  0  0  0  0  0  0  0  0  0
   59.2750   30.9460   47.6560 C   0  0  0  0  0  0  0  0  0  0  0  0
   59.6510   32.2780   47.4740 C   0  0  0  0  0  0  0  0  0  0  0  0
   60.5720   33.1030   48.7300 S   0  0  0  0  0  0  0  0  0  0  0  0
   61.1500   32.0970   49.6890 O   0  0  0  0  0  0  0  0  0  0  0  0
   59.6450   34.0180   49.4780 O   0  0  0  0  0  0  0  0  0  0  0  0
   61.8610   34.0350   47.9970 N   0  0  0  0  0  0  0  0  0  0  0  0
   62.3370   33.3830   46.7720 C   0  0  0  0  0  0  0  0  0  0  0  0
   63.5290   32.5080   47.1320 C   0  0  0  0  0  0  0  0  0  0  0  0
   63.9660   32.9600   48.5120 C   0  0  0  0  0  0  0  0  0  0  0  0
   63.0240   34.0940   48.8880 C   0  0  0  0  0  0  0  0  0  0  0  0
   59.2810   32.9470   46.3070 C   0  0  0  0  0  0  0  0  0  0  0  0
   58.5380   32.2940   45.3230 C   0  0  0  0  0  0  0  0  0  0  0  0
   58.1450   30.9440   45.4820 C   0  0  0  0  0  0  0  0  0  0  0  0
   55.7688   29.1486   42.9762 H   0  0  0  0  0  0  0  0  0  0  0  0
   55.5613   30.4107   41.7149 H   0  0  0  0  0  0  0  0  0  0  0  0
   57.0279   29.3735   41.7149 H   0  0  0  0  0  0  0  0  0  0  0  0
   57.9003   31.2712   42.7234 H   0  0  0  0  0  0  0  0  0  0  0  0
   56.3165   31.7270   43.4613 H   0  0  0  0  0  0  0  0  0  0  0  0
   56.3908   28.4805   43.9738 H   0  0  0  0  0  0  0  0  0  0  0  0
   56.0866   24.9560   44.3858 H   0  0  0  0  0  0  0  0  0  0  0  0
   56.3927   22.8355   43.1067 H   0  0  0  0  0  0  0  0  0  0  0  0
   58.3050   21.3219   43.6308 H   0  0  0  0  0  0  0  0  0  0  0  0
   60.1690   20.7930   45.2350 H   0  0  0  0  0  0  0  0  0  0  0  0
   59.6275   24.0585   46.7106 H   0  0  0  0  0  0  0  0  0  0  0  0
   59.5742   30.4166   48.5726 H   0  0  0  0  0  0  0  0  0  0  0  0
   61.5353   32.7628   46.3445 H   0  0  0  0  0  0  0  0  0  0  0  0
   62.6309   34.1387   46.0287 H   0  0  0  0  0  0  0  0  0  0  0  0
   63.2354   31.4481   47.1504 H   0  0  0  0  0  0  0  0  0  0  0  0
   64.3411   32.6045   46.3964 H   0  0  0  0  0  0  0  0  0  0  0  0
   63.8787   32.1333   49.2324 H   0  0  0  0  0  0  0  0  0  0  0  0
   65.0171   33.2841   48.5205 H   0  0  0  0  0  0  0  0  0  0  0  0
   62.6995   33.9782   49.9327 H   0  0  0  0  0  0  0  0  0  0  0  0
   63.5342   35.0631   48.7848 H   0  0  0  0  0  0  0  0  0  0  0  0
   59.5770   33.9964   46.1617 H   0  0  0  0  0  0  0  0  0  0  0  0
   58.2534   32.8370   44.4097 H   0  0  0  0  0  0  0  0  0  0  0  0
  1  2  1  0
  2  3  1  0
  3  4  1  0
  4  5  2  0
  5  6  1  0
  6  7  2  0
  6  8  1  0
  8  9  1  0
  9 10  2  0
 10 11  1  0
 11 12  2  0
 12 13  1  0
 13 14  1  0
 13 15  2  0
  5 16  1  0
 16 17  2  0
 16 18  1  0
 18 19  2  0
 19 20  1  0
 20 21  1  0
 21 22  2  0
 21 23  2  0
 21 24  1  0
 24 25  1  0
 25 26  1  0
 26 27  1  0
 27 28  1  0
 20 29  2  0
 29 30  1  0
 30 31  2  0
 31  3  1  0
 15  9  1  0
 31 18  1  0
 28 24  1  0
  1 32  1  0
  1 33  1  0
  1 34  1  0
  2 35  1  0
  2 36  1  0
  4 37  1  0
 10 38  1  0
 11 39  1  0
 12 40  1  0
 14 41  1  0
 15 42  1  0
 19 43  1  0
 25 44  1  0
 25 45  1  0
 26 46  1  0
 26 47  1  0
 27 48  1  0
 27 49  1  0
 28 50  1  0
 28 51  1  0
 29 52  1  0
 30 53  1  0
M  CHG  1   8  -1
M  END
>  <UniqueID>  (44) 
42

>  <SMILES>  (44) 
CCn1cc(C(=O)[N-]c2cccc(O)c2)c(=O)c2cc(S(=O)(=O)N3CCCC3)ccc21

>  <Energy>  (44) 
71.94112592992298

>  <Genealogy>  (44) 
CCn1cc(C(=O)[N-]c2cccc(O)c2)c(=O)c2cc(S(=O)(=O)N3CCCC3)ccc21 (protonated)
CCn1cc(C(=O)[N-]c2cccc(O)c2)c(=O)c2cc(S(=O)(=O)N3CCCC3)ccc21 (3D coordinates assigned)
CCn1cc(C(=O)[N-]c2cccc(O)c2)c(=O)c2cc(S(=O)(=O)N3CCCC3)ccc21 (nonaromatic ring conformer: 71.94112592992298 kcal/mol)

>  <smiles>  (44) 
CCn1cc(C(=O)Nc2cccc(O)c2)c(=O)c2cc(S(=O)(=O)N3CCCC3)ccc21

>  <score_type>  (44) 
oracle

>  <origin>  (44) 
adg

>  <m_score__min__energy>  (44) 
-11.199999999999999

>  <m_primary>  (44) 
energy

$$$$
44:0
     RDKit          3D

 53 56  0  0  0  0  0  0  0  0999 V2000
   57.4820   28.0040   43.8350 O   0  0  0  0  0  0  0  0  0  0  0  0
   57.0750   28.5700   44.8830 C   0  0  0  0  0  0  0  0  0  0  0  0
   56.4960   29.8760   44.7900 N   0  0  0  0  0  0  0  0  0  0  0  0
   57.2050   31.1240   44.7920 C   0  0  0  0  0  0  0  0  0  0  0  0
   57.3250   31.9190   43.6390 C   0  0  0  0  0  0  0  0  0  0  0  0
   58.0320   33.1230   43.6840 C   0  0  0  0  0  0  0  0  0  0  0  0
   58.6240   33.5590   44.8730 C   0  0  0  0  0  0  0  0  0  0  0  0
   59.3460   34.7620   44.8520 O   0  0  0  0  0  0  0  0  0  0  0  0
   59.8040   35.4690   46.0020 C   0  0  0  0  0  0  0  0  0  0  0  0
   61.0000   34.9200   46.4200 F   0  0  0  0  0  0  0  0  0  0  0  0
   60.0100   36.8010   45.6920 F   0  0  0  0  0  0  0  0  0  0  0  0
   58.8810   35.3600   47.0270 F   0  0  0  0  0  0  0  0  0  0  0  0
   58.4690   32.7830   46.0380 C   0  0  0  0  0  0  0  0  0  0  0  0
   57.7510   31.5840   45.9970 C   0  0  0  0  0  0  0  0  0  0  0  0
   57.1530   27.8860   46.1390 N   0  0  0  0  0  0  0  0  0  0  0  0
   57.3560   26.4720   46.2720 C   0  0  0  0  0  0  0  0  0  0  0  0
   56.2740   25.6120   46.5440 C   0  0  0  0  0  0  0  0  0  0  0  0
   56.4560   24.2270   46.5660 C   0  0  0  0  0  0  0  0  0  0  0  0
   57.7120   23.6840   46.3040 C   0  0  0  0  0  0  0  0  0  0  0  0
   58.7910   24.5250   46.0240 C   0  0  0  0  0  0  0  0  0  0  0  0
   58.6240   25.9160   46.0090 C   0  0  0  0  0  0  0  0  0  0  0  0
   60.0810   26.9300   45.7050 S   0  0  0  0  0  0  0  0  0  0  0  0
   60.0880   27.7800   47.2910 C   0  0  0  0  0  0  0  0  0  0  0  0
   60.4210   27.1180   48.4800 C   0  0  0  0  0  0  0  0  0  0  0  0
   60.4030   27.8090   49.6930 C   0  0  0  0  0  0  0  0  0  0  0  0
   60.0030   29.1480   49.7320 C   0  0  0  0  0  0  0  0  0  0  0  0
   59.6130   29.8080   48.5600 C   0  0  0  0  0  0  0  0  0  0  0  0
   59.0600   31.1310   48.6810 N   0  0  0  0  0  0  0  0  0  0  0  0
   59.7100   32.3270   49.1340 C   0  0  0  0  0  0  0  0  0  0  0  0
   59.1620   32.9930   50.0520 O   0  0  0  0  0  0  0  0  0  0  0  0
   61.0260   32.7670   48.6170 C   0  0  0  0  0  0  0  0  0  0  0  0
   61.6680   32.0700   47.5840 C   0  0  0  0  0  0  0  0  0  0  0  0
   62.9160   32.4930   47.1230 C   0  0  0  0  0  0  0  0  0  0  0  0
   63.5170   33.6110   47.7030 C   0  0  0  0  0  0  0  0  0  0  0  0
   62.8900   34.2740   48.7110 N   0  0  0  0  0  0  0  0  0  0  0  0
   61.6760   33.8790   49.1790 C   0  0  0  0  0  0  0  0  0  0  0  0
   59.6650   29.1160   47.3360 C   0  0  0  0  0  0  0  0  0  0  0  0
   56.8602   31.5917   42.6973 H   0  0  0  0  0  0  0  0  0  0  0  0
   58.1239   33.7345   42.7742 H   0  0  0  0  0  0  0  0  0  0  0  0
   58.9150   33.1218   46.9847 H   0  0  0  0  0  0  0  0  0  0  0  0
   57.6139   30.9978   46.9176 H   0  0  0  0  0  0  0  0  0  0  0  0
   55.2776   26.0344   46.7407 H   0  0  0  0  0  0  0  0  0  0  0  0
   55.6069   23.5647   46.7904 H   0  0  0  0  0  0  0  0  0  0  0  0
   57.8536   22.5932   46.3177 H   0  0  0  0  0  0  0  0  0  0  0  0
   59.7800   24.0919   45.8135 H   0  0  0  0  0  0  0  0  0  0  0  0
   60.6968   26.0534   48.4578 H   0  0  0  0  0  0  0  0  0  0  0  0
   60.7041   27.2989   50.6199 H   0  0  0  0  0  0  0  0  0  0  0  0
   59.9945   29.6873   50.6907 H   0  0  0  0  0  0  0  0  0  0  0  0
   61.1874   31.1879   47.1357 H   0  0  0  0  0  0  0  0  0  0  0  0
   63.4208   31.9502   46.3103 H   0  0  0  0  0  0  0  0  0  0  0  0
   64.4981   33.9559   47.3446 H   0  0  0  0  0  0  0  0  0  0  0  0
   61.2002   34.4327   50.0018 H   0  0  0  0  0  0  0  0  0  0  0  0
   59.3715   29.6271   46.4072 H   0  0  0  0  0  0  0  0  0  0  0  0
  1  2  2  0
  2  3  1  0
  3  4  1  0
  4  5  2  0
  5  6  1  0
  6  7  2  0
  7  8  1  0
  8  9  1  0
  9 10  1  0
  9 11  1  0
  9 12  1  0
  7 13  1  0
 13 14  2  0
  2 15  1  0
 15 16  1  0
 16 17  2  0
 17 18  1  0
 18 19  2  0
 19 20  1  0
 20 21  2  0
 21 22  1  0
 22 23  1  0
 23 24  2  0
 24 25  1  0
 25 26  2  0
 26 27  1  0
 27 28  1  0
 28 29  1  0
 29 30  2  0
 29 31  1  0
 31 32  2  0
 32 33  1  0
 33 34  2  0
 34 35  1  0
 35 36  2  0
 27 37  2  0
 14  4  1  0
 21 16  1  0
 37 23  1  0
 36 31  1  0
  5 38  1  0
  6 39  1  0
 13 40  1  0
 14 41  1  0
 17 42  1  0
 18 43  1  0
 19 44  1  0
 20 45  1  0
 24 46  1  0
 25 47  1  0
 26 48  1  0
 32 49  1  0
 33 50  1  0
 34 51  1  0
 36 52  1  0
 37 53  1  0
M  CHG  3   3  -1  15  -1  28  -1
M  END
>  <UniqueID>  (45) 
43

>  <SMILES>  (45) 
O=C([N-]c1ccc(OC(F)(F)F)cc1)[N-]c1ccccc1Sc1cccc([N-]C(=O)c2cccnc2)c1

>  <Energy>  (45) 
71.7673424143806

>  <Genealogy>  (45) 
O=C([N-]c1ccc(OC(F)(F)F)cc1)[N-]c1ccccc1Sc1cccc([N-]C(=O)c2cccnc2)c1 (protonated)
O=C([N-]c1ccc(OC(F)(F)F)cc1)[N-]c1ccccc1Sc1cccc([N-]C(=O)c2cccnc2)c1 (3D coordinates assigned)
O=C([N-]c1ccc(OC(F)(F)F)cc1)[N-]c1ccccc1Sc1cccc([N-]C(=O)c2cccnc2)c1 (optimized conformer: 71.7673424143806 kcal/mol)

>  <smiles>  (45) 
O=C(Nc1ccc(OC(F)(F)F)cc1)Nc1ccccc1Sc1cccc(NC(=O)c2cccnc2)c1

>  <score_type>  (45) 
oracle

>  <origin>  (45) 
adg

>  <m_score__min__energy>  (45) 
-12.470000000000001

>  <m_primary>  (45) 
energy

$$$$
45:0
     RDKit          3D

 55 57  0  0  0  0  0  0  0  0999 V2000
   61.7200   29.8860   50.1960 C   0  0  0  0  0  0  0  0  0  0  0  0
   60.4990   28.9990   49.9770 C   0  0  0  0  0  0  0  0  0  0  0  0
   59.2820   29.8120   49.8250 N   0  0  0  0  0  0  0  0  0  0  0  0
   58.8360   30.1350   48.4610 C   0  0  0  0  0  0  0  0  0  0  0  0
   58.6290   28.8820   47.6690 C   0  0  0  0  0  0  0  0  0  0  0  0
   58.1410   27.8660   48.2310 O   0  0  0  0  0  0  0  0  0  0  0  0
   58.9260   28.8770   46.2670 N   0  0  0  0  0  0  0  0  0  0  0  0
   58.1760   29.5250   45.2290 C   0  0  0  0  0  0  0  0  0  0  0  0
   58.6660   30.6680   44.5670 C   0  0  0  0  0  0  0  0  0  0  0  0
   57.8980   31.2960   43.5850 C   0  0  0  0  0  0  0  0  0  0  0  0
   56.6320   30.8050   43.2650 C   0  0  0  0  0  0  0  0  0  0  0  0
   56.1250   29.6890   43.9330 C   0  0  0  0  0  0  0  0  0  0  0  0
   56.8890   29.0460   44.9280 C   0  0  0  0  0  0  0  0  0  0  0  0
   56.4060   27.9340   45.6350 O   0  0  0  0  0  0  0  0  0  0  0  0
   56.9960   26.6380   45.6030 C   0  0  0  0  0  0  0  0  0  0  0  0
   58.5860   30.3790   50.9620 C   0  0  0  0  0  0  0  0  0  0  0  0
   57.3250   30.3480   50.9980 O   0  0  0  0  0  0  0  0  0  0  0  0
   59.3070   30.9530   52.1540 C   0  0  0  0  0  0  0  0  0  0  0  0
   59.1900   32.7760   52.1990 S   0  0  0  0  0  0  0  0  0  0  0  0
   60.0710   33.0200   50.6600 C   0  0  0  0  0  0  0  0  0  0  0  0
   59.3830   33.2690   49.5180 N   0  0  0  0  0  0  0  0  0  0  0  0
   60.0190   33.4740   48.3330 C   0  0  0  0  0  0  0  0  0  0  0  0
   59.1950   33.7830   47.1420 C   0  0  0  0  0  0  0  0  0  0  0  0
   59.6510   34.6740   46.1550 C   0  0  0  0  0  0  0  0  0  0  0  0
   58.8660   34.9410   45.0290 C   0  0  0  0  0  0  0  0  0  0  0  0
   57.6280   34.3120   44.8730 C   0  0  0  0  0  0  0  0  0  0  0  0
   57.1760   33.4100   45.8400 C   0  0  0  0  0  0  0  0  0  0  0  0
   57.9580   33.1400   46.9670 C   0  0  0  0  0  0  0  0  0  0  0  0
   61.4300   33.4230   48.2920 C   0  0  0  0  0  0  0  0  0  0  0  0
   62.1700   33.7160   47.0850 C   0  0  0  0  0  0  0  0  0  0  0  0
   62.7650   33.9500   46.1190 N   0  0  0  0  0  0  0  0  0  0  0  0
   62.1160   33.1350   49.4820 C   0  0  0  0  0  0  0  0  0  0  0  0
   63.3720   33.0440   49.4930 O   0  0  0  0  0  0  0  0  0  0  0  0
   61.4260   32.9520   50.6360 N   0  0  0  0  0  0  0  0  0  0  0  0
   61.8931   30.0117   51.2750 H   0  0  0  0  0  0  0  0  0  0  0  0
   62.6017   29.4164   49.7355 H   0  0  0  0  0  0  0  0  0  0  0  0
   61.5460   30.8697   49.7355 H   0  0  0  0  0  0  0  0  0  0  0  0
   60.6478   28.3991   49.0670 H   0  0  0  0  0  0  0  0  0  0  0  0
   60.3779   28.3440   50.8524 H   0  0  0  0  0  0  0  0  0  0  0  0
   57.8889   30.6922   48.5118 H   0  0  0  0  0  0  0  0  0  0  0  0
   59.6076   30.7449   47.9685 H   0  0  0  0  0  0  0  0  0  0  0  0
   59.6580   31.0672   44.8250 H   0  0  0  0  0  0  0  0  0  0  0  0
   58.2919   32.1801   43.0623 H   0  0  0  0  0  0  0  0  0  0  0  0
   56.0326   31.2978   42.4854 H   0  0  0  0  0  0  0  0  0  0  0  0
   55.1237   29.3092   43.6815 H   0  0  0  0  0  0  0  0  0  0  0  0
   57.1575   26.2832   46.6316 H   0  0  0  0  0  0  0  0  0  0  0  0
   56.3256   25.9428   45.0763 H   0  0  0  0  0  0  0  0  0  0  0  0
   57.9605   26.6871   45.0763 H   0  0  0  0  0  0  0  0  0  0  0  0
   58.8601   30.5441   53.0722 H   0  0  0  0  0  0  0  0  0  0  0  0
   60.3695   30.6787   52.0776 H   0  0  0  0  0  0  0  0  0  0  0  0
   60.6296   35.1633   46.2689 H   0  0  0  0  0  0  0  0  0  0  0  0
   59.2235   35.6471   44.2651 H   0  0  0  0  0  0  0  0  0  0  0  0
   57.0093   34.5268   43.9892 H   0  0  0  0  0  0  0  0  0  0  0  0
   56.2034   32.9117   45.7142 H   0  0  0  0  0  0  0  0  0  0  0  0
   57.6033   32.4210   47.7201 H   0  0  0  0  0  0  0  0  0  0  0  0
  1  2  1  0
  2  3  1  0
  3  4  1  0
  4  5  1  0
  5  6  2  0
  5  7  1  0
  7  8  1  0
  8  9  2  0
  9 10  1  0
 10 11  2  0
 11 12  1  0
 12 13  2  0
 13 14  1  0
 14 15  1  0
  3 16  1  0
 16 17  2  0
 16 18  1  0
 18 19  1  0
 19 20  1  0
 20 21  2  0
 21 22  1  0
 22 23  1  0
 23 24  2  0
 24 25  1  0
 25 26  2  0
 26 27  1  0
 27 28  2  0
 22 29  2  0
 29 30  1  0
 30 31  3  0
 29 32  1  0
 32 33  2  0
 32 34  1  0
 13  8  1  0
 34 20  1  0
 28 23  1  0
  1 35  1  0
  1 36  1  0
  1 37  1  0
  2 38  1  0
  2 39  1  0
  4 40  1  0
  4 41  1  0
  9 42  1  0
 10 43  1  0
 11 44  1  0
 12 45  1  0
 15 46  1  0
 15 47  1  0
 15 48  1  0
 18 49  1  0
 18 50  1  0
 24 51  1  0
 25 52  1  0
 26 53  1  0
 27 54  1  0
 28 55  1  0
M  CHG  2   7  -1  34  -1
M  END
>  <UniqueID>  (46) 
44

>  <SMILES>  (46) 
CCN(CC(=O)[N-]c1ccccc1OC)C(=O)CSc1nc(-c2ccccc2)c(C#N)c(=O)[n-]1

>  <Energy>  (46) 
57.12286471676822

>  <Genealogy>  (46) 
CCN(CC(=O)[N-]c1ccccc1OC)C(=O)CSc1nc(-c2ccccc2)c(C#N)c(=O)[n-]1 (protonated)
CCN(CC(=O)[N-]c1ccccc1OC)C(=O)CSc1nc(-c2ccccc2)c(C#N)c(=O)[n-]1 (3D coordinates assigned)
CCN(CC(=O)[N-]c1ccccc1OC)C(=O)CSc1nc(-c2ccccc2)c(C#N)c(=O)[n-]1 (optimized conformer: 57.12286471676822 kcal/mol)

>  <smiles>  (46) 
CCN(CC(=O)Nc1ccccc1OC)C(=O)CSc1nc(-c2ccccc2)c(C#N)c(=O)[nH]1

>  <score_type>  (46) 
oracle

>  <origin>  (46) 
adg

>  <m_score__min__energy>  (46) 
-12.4

>  <m_primary>  (46) 
energy

$$$$
46:0
     RDKit          3D

 55 58  0  0  0  0  0  0  0  0999 V2000
   60.2120   23.0385   45.6547 H   0  0  0  0  0  0  0  0  0  0  0  0
   59.2010   22.9090   45.2410 C   0  0  0  0  0  0  0  0  0  0  0  0
   58.2020   23.7550   45.6100 N   0  0  0  0  0  0  0  0  0  0  0  0
   56.9330   23.6430   45.1290 C   0  0  0  0  0  0  0  0  0  0  0  0
   56.0390   24.4940   45.5510 N   0  0  0  0  0  0  0  0  0  0  0  0
   56.1490   25.9190   45.7020 C   0  0  0  0  0  0  0  0  0  0  0  0
   55.1440   26.6140   46.0120 O   0  0  0  0  0  0  0  0  0  0  0  0
   57.4120   26.5480   45.4420 N   0  0  0  0  0  0  0  0  0  0  0  0
   58.2590   25.9360   45.4260 H   0  0  0  0  0  0  0  0  0  0  0  0
   57.5970   27.9710   45.3510 C   0  0  0  0  0  0  0  0  0  0  0  0
   58.0680   28.7170   46.4450 C   0  0  0  0  0  0  0  0  0  0  0  0
   58.3157   28.2084   47.3884 H   0  0  0  0  0  0  0  0  0  0  0  0
   58.2230   30.1010   46.3400 C   0  0  0  0  0  0  0  0  0  0  0  0
   58.5922   30.6755   47.2023 H   0  0  0  0  0  0  0  0  0  0  0  0
   57.9110   30.7660   45.1410 C   0  0  0  0  0  0  0  0  0  0  0  0
   58.0700   32.2350   45.0290 C   0  0  0  0  0  0  0  0  0  0  0  0
   57.4690   32.8530   44.1080 O   0  0  0  0  0  0  0  0  0  0  0  0
   58.8760   32.9730   45.9640 N   0  0  0  0  0  0  0  0  0  0  0  0
   60.2380   32.5360   46.2930 C   0  0  0  0  0  0  0  0  0  0  0  0
   60.3491   31.4740   46.0288 H   0  0  0  0  0  0  0  0  0  0  0  0
   60.9511   33.1504   45.7238 H   0  0  0  0  0  0  0  0  0  0  0  0
   60.5260   32.7150   47.8010 C   0  0  0  0  0  0  0  0  0  0  0  0
   60.4414   31.7337   48.2909 H   0  0  0  0  0  0  0  0  0  0  0  0
   61.5371   33.1389   47.8901 H   0  0  0  0  0  0  0  0  0  0  0  0
   59.5940   33.6590   48.4730 N   0  0  0  0  0  0  0  0  0  0  0  0
   60.0830   34.1510   49.7940 C   0  0  0  0  0  0  0  0  0  0  0  0
   60.0077   35.2449   49.7060 H   0  0  0  0  0  0  0  0  0  0  0  0
   59.2680   33.5060   50.9240 C   0  0  0  0  0  0  0  0  0  0  0  0
   59.2340   34.1738   51.7975 H   0  0  0  0  0  0  0  0  0  0  0  0
   58.2305   33.3185   50.6104 H   0  0  0  0  0  0  0  0  0  0  0  0
   59.9820   32.2040   51.2820 C   0  0  0  0  0  0  0  0  0  0  0  0
   60.0376   32.0899   52.3747 H   0  0  0  0  0  0  0  0  0  0  0  0
   59.4415   31.3331   50.8827 H   0  0  0  0  0  0  0  0  0  0  0  0
   61.3850   32.2980   50.6910 C   0  0  0  0  0  0  0  0  0  0  0  0
   62.1411   32.1141   51.4685 H   0  0  0  0  0  0  0  0  0  0  0  0
   61.5425   31.5483   49.9016 H   0  0  0  0  0  0  0  0  0  0  0  0
   61.5140   33.7120   50.1520 C   0  0  0  0  0  0  0  0  0  0  0  0
   61.9395   34.3774   50.9177 H   0  0  0  0  0  0  0  0  0  0  0  0
   62.1831   33.7556   49.2800 H   0  0  0  0  0  0  0  0  0  0  0  0
   59.2970   34.7930   47.5680 C   0  0  0  0  0  0  0  0  0  0  0  0
   58.7603   35.5767   48.1227 H   0  0  0  0  0  0  0  0  0  0  0  0
   60.2356   35.2087   47.1728 H   0  0  0  0  0  0  0  0  0  0  0  0
   58.4260   34.2940   46.4130 C   0  0  0  0  0  0  0  0  0  0  0  0
   57.3815   34.2250   46.7509 H   0  0  0  0  0  0  0  0  0  0  0  0
   58.5075   35.0015   45.5746 H   0  0  0  0  0  0  0  0  0  0  0  0
   57.4020   30.0230   44.0620 C   0  0  0  0  0  0  0  0  0  0  0  0
   57.1265   30.5338   43.1276 H   0  0  0  0  0  0  0  0  0  0  0  0
   57.2440   28.6380   44.1700 C   0  0  0  0  0  0  0  0  0  0  0  0
   56.8394   28.0672   43.3212 H   0  0  0  0  0  0  0  0  0  0  0  0
   56.6370   22.5940   44.2280 C   0  0  0  0  0  0  0  0  0  0  0  0
   55.6153   22.4670   43.8407 H   0  0  0  0  0  0  0  0  0  0  0  0
   57.6540   21.7200   43.8340 C   0  0  0  0  0  0  0  0  0  0  0  0
   57.4361   20.9073   43.1254 H   0  0  0  0  0  0  0  0  0  0  0  0
   58.9440   21.8770   44.3380 C   0  0  0  0  0  0  0  0  0  0  0  0
   59.7497   21.1955   44.0275 H   0  0  0  0  0  0  0  0  0  0  0  0
  1  2  1  0
  2  3  1  0
  3  4  1  0
  4  5  2  0
  5  6  1  0
  6  7  2  0
  6  8  1  0
  8  9  1  0
  8 10  1  0
 10 11  2  0
 11 12  1  0
 11 13  1  0
 13 14  1  0
 13 15  2  0
 15 16  1  0
 16 17  2  0
 16 18  1  0
 18 19  1  0
 19 20  1  0
 19 21  1  0
 19 22  1  0
 22 23  1  0
 22 24  1  0
 22 25  1  0
 25 26  1  0
 26 27  1  0
 26 28  1  0
 28 29  1  0
 28 30  1  0
 28 31  1  0
 31 32  1  0
 31 33  1  0
 31 34  1  0
 34 35  1  0
 34 36  1  0
 34 37  1  0
 37 38  1  0
 37 39  1  0
 25 40  1  0
 40 41  1  0
 40 42  1  0
 40 43  1  0
 43 44  1  0
 43 45  1  0
 15 46  1  0
 46 47  1  0
 46 48  2  0
 48 49  1  0
  4 50  1  0
 50 51  1  0
 50 52  2  0
 52 53  1  0
 52 54  1  0
 54 55  1  0
 54  2  2  0
 48 10  1  0
 43 18  1  0
 37 26  1  0
M  CHG  1   3  -1
M  END
>  <UniqueID>  (47) 
45

>  <SMILES>  (47) 
O=C(/N=c1\cccc[n-]1)Nc1ccc(C(=O)N2CCN(C3CCCC3)CC2)cc1

>  <Energy>  (47) 
85.91139105453114

>  <Genealogy>  (47) 
O=C(N=c1cccc[n-]1)Nc1ccc(C(=O)N2CCN(C3CCCC3)CC2)cc1 (protonated)
O=C(/N=c1\cccc[n-]1)Nc1ccc(C(=O)N2CCN(C3CCCC3)CC2)cc1 (cis-trans isomerization)
O=C(/N=c1\cccc[n-]1)Nc1ccc(C(=O)N2CCN(C3CCCC3)CC2)cc1 (3D coordinates assigned)
O=C(/N=c1\cccc[n-]1)Nc1ccc(C(=O)N2CCN(C3CCCC3)CC2)cc1 (nonaromatic ring conformer: 85.91139105453114 kcal/mol)

>  <smiles>  (47) 
O=C(N=c1cccc[nH]1)Nc1ccc(C(=O)N2CCN(C3CCCC3)CC2)cc1

>  <score_type>  (47) 
oracle

>  <origin>  (47) 
adg

>  <m_score__min__energy>  (47) 
-9.5999999999999996

>  <m_primary>  (47) 
energy

$$$$
47:0
     RDKit          3D

 50 53  0  0  0  0  0  0  0  0999 V2000
   59.2250   22.9140   45.1810 C   0  0  0  0  0  0  0  0  0  0  0  0
   58.0300   22.6340   44.3120 C   0  0  0  0  0  0  0  0  0  0  0  0
   57.7470   21.3090   43.9460 C   0  0  0  0  0  0  0  0  0  0  0  0
   56.6690   21.0370   43.1040 C   0  0  0  0  0  0  0  0  0  0  0  0
   55.8930   22.0510   42.6420 N   0  0  0  0  0  0  0  0  0  0  0  0
   56.1270   23.3440   42.9890 C   0  0  0  0  0  0  0  0  0  0  0  0
   57.1790   23.6670   43.8540 C   0  0  0  0  0  0  0  0  0  0  0  0
   57.3900   25.0400   44.2150 N   0  0  0  0  0  0  0  0  0  0  0  0
   57.5330   25.4620   45.5800 C   0  0  0  0  0  0  0  0  0  0  0  0
   57.2260   24.6710   46.5140 O   0  0  0  0  0  0  0  0  0  0  0  0
   58.0120   26.8200   45.9090 C   0  0  0  0  0  0  0  0  0  0  0  0
   59.1250   27.0540   46.7140 C   0  0  0  0  0  0  0  0  0  0  0  0
   59.3490   28.7150   46.8430 S   0  0  0  0  0  0  0  0  0  0  0  0
   58.0540   29.1560   45.8640 C   0  0  0  0  0  0  0  0  0  0  0  0
   57.6150   30.5660   45.5610 C   0  0  2  0  0  0  0  0  0  0  0  0
   56.8320   30.6430   44.2210 C   0  0  0  0  0  0  0  0  0  0  0  0
   57.6500   31.2900   43.1010 C   0  0  0  0  0  0  0  0  0  0  0  0
   58.0690   32.7110   43.5000 C   0  0  0  0  0  0  0  0  0  0  0  0
   58.5520   32.7660   44.8870 N   0  0  0  0  0  0  0  0  0  0  0  0
   59.0050   34.0260   45.4140 C   0  0  0  0  0  0  0  0  0  0  0  0
   58.6720   35.0950   44.8330 O   0  0  0  0  0  0  0  0  0  0  0  0
   59.8450   34.1030   46.6260 C   0  0  0  0  0  0  0  0  0  0  0  0
   61.2120   33.7870   46.5950 C   0  0  0  0  0  0  0  0  0  0  0  0
   61.9410   33.8550   47.7410 N   0  0  0  0  0  0  0  0  0  0  0  0
   61.3710   34.2170   48.9190 C   0  0  0  0  0  0  0  0  0  0  0  0
   62.0680   34.2760   49.9660 O   0  0  0  0  0  0  0  0  0  0  0  0
   60.0070   34.5160   48.9580 C   0  0  0  0  0  0  0  0  0  0  0  0
   59.2770   34.4480   47.8140 N   0  0  0  0  0  0  0  0  0  0  0  0
   58.8310   31.5180   45.6130 C   0  0  0  0  0  0  0  0  0  0  0  0
   57.4130   28.0000   45.4330 C   0  0  0  0  0  0  0  0  0  0  0  0
   58.9329   22.8456   46.2393 H   0  0  0  0  0  0  0  0  0  0  0  0
   60.0130   22.1762   44.9697 H   0  0  0  0  0  0  0  0  0  0  0  0
   59.6032   23.9251   44.9697 H   0  0  0  0  0  0  0  0  0  0  0  0
   58.3738   20.4871   44.3223 H   0  0  0  0  0  0  0  0  0  0  0  0
   56.4470   19.9995   42.8137 H   0  0  0  0  0  0  0  0  0  0  0  0
   55.4853   24.1421   42.5874 H   0  0  0  0  0  0  0  0  0  0  0  0
   57.2150   25.7650   43.4840 H   0  0  0  0  0  0  0  0  0  0  0  0
   59.7512   26.2822   47.1854 H   0  0  0  0  0  0  0  0  0  0  0  0
   56.9072   30.8984   46.3347 H   0  0  0  0  0  0  0  0  0  0  0  0
   56.5576   29.6231   43.9136 H   0  0  0  0  0  0  0  0  0  0  0  0
   55.9423   31.2677   44.3890 H   0  0  0  0  0  0  0  0  0  0  0  0
   58.5497   30.6857   42.9132 H   0  0  0  0  0  0  0  0  0  0  0  0
   57.0335   31.3409   42.1914 H   0  0  0  0  0  0  0  0  0  0  0  0
   58.8731   33.0472   42.8289 H   0  0  0  0  0  0  0  0  0  0  0  0
   57.1878   33.3642   43.4176 H   0  0  0  0  0  0  0  0  0  0  0  0
   61.6901   33.4866   45.6510 H   0  0  0  0  0  0  0  0  0  0  0  0
   59.5285   34.8037   49.9058 H   0  0  0  0  0  0  0  0  0  0  0  0
   59.6979   31.0203   45.1538 H   0  0  0  0  0  0  0  0  0  0  0  0
   59.0410   31.7627   46.6647 H   0  0  0  0  0  0  0  0  0  0  0  0
   56.5250   28.0076   44.7838 H   0  0  0  0  0  0  0  0  0  0  0  0
  1  2  1  0
  2  3  2  0
  3  4  1  0
  4  5  2  0
  5  6  1  0
  6  7  2  0
  7  8  1  0
  8  9  1  0
  9 10  2  0
  9 11  1  0
 11 12  2  0
 12 13  1  0
 13 14  1  0
 14 15  1  0
 15 16  1  0
 16 17  1  0
 17 18  1  0
 18 19  1  0
 19 20  1  0
 20 21  2  0
 20 22  1  0
 22 23  2  0
 23 24  1  0
 24 25  1  0
 25 26  2  0
 25 27  1  0
 27 28  2  0
 19 29  1  0
 14 30  2  0
  7  2  1  0
 30 11  1  0
 29 15  1  0
 28 22  1  0
  1 31  1  0
  1 32  1  0
  1 33  1  0
  3 34  1  0
  4 35  1  0
  6 36  1  0
  8 37  1  0
 12 38  1  0
 15 39  1  1
 16 40  1  0
 16 41  1  0
 17 42  1  0
 17 43  1  0
 18 44  1  0
 18 45  1  0
 23 46  1  0
 27 47  1  0
 29 48  1  0
 29 49  1  0
 30 50  1  0
M  CHG  1  24  -1
M  END
>  <UniqueID>  (48) 
46

>  <SMILES>  (48) 
Cc1ccncc1NC(=O)c1csc([C@@H]2CCCN(C(=O)c3c[n-]c(=O)cn3)C2)c1

>  <Energy>  (48) 
93.81467866334478

>  <Genealogy>  (48) 
Cc1ccncc1NC(=O)c1csc(C2CCCN(C(=O)c3c[n-]c(=O)cn3)C2)c1 (protonated)
Cc1ccncc1NC(=O)c1csc([C@@H]2CCCN(C(=O)c3c[n-]c(=O)cn3)C2)c1 (chirality)
Cc1ccncc1NC(=O)c1csc([C@@H]2CCCN(C(=O)c3c[n-]c(=O)cn3)C2)c1 (3D coordinates assigned)
Cc1ccncc1NC(=O)c1csc([C@@H]2CCCN(C(=O)c3c[n-]c(=O)cn3)C2)c1 (nonaromatic ring conformer: 93.81467866334478 kcal/mol)

>  <smiles>  (48) 
Cc1ccncc1NC(=O)c1csc(C2CCCN(C(=O)c3c[nH]c(=O)cn3)C2)c1

>  <score_type>  (48) 
oracle

>  <origin>  (48) 
adg

>  <m_score__min__energy>  (48) 
-11.44

>  <m_primary>  (48) 
energy

$$$$
48:0
     RDKit          3D

 54 56  0  0  0  0  0  0  0  0999 V2000
   58.0590   34.5620   44.9320 C   0  0  0  0  0  0  0  0  0  0  0  0
   58.2030   33.0650   45.0350 C   0  0  0  0  0  0  0  0  0  0  0  0
   57.7990   32.2710   43.9490 C   0  0  0  0  0  0  0  0  0  0  0  0
   57.9380   30.8820   43.9930 C   0  0  0  0  0  0  0  0  0  0  0  0
   58.4920   30.2670   45.1180 C   0  0  0  0  0  0  0  0  0  0  0  0
   58.6580   28.5120   45.1840 S   0  0  0  0  0  0  0  0  0  0  0  0
   59.2000   28.1190   46.5300 O   0  0  0  0  0  0  0  0  0  0  0  0
   59.6260   28.0450   44.1310 O   0  0  0  0  0  0  0  0  0  0  0  0
   57.1150   27.7490   44.9470 N   0  0  0  0  0  0  0  0  0  0  0  0
   57.2090   26.3230   45.2760 C   0  0  0  0  0  0  0  0  0  0  0  0
   56.0710   25.8970   46.1660 C   0  0  0  0  0  0  0  0  0  0  0  0
   56.2950   25.5320   47.3510 O   0  0  0  0  0  0  0  0  0  0  0  0
   54.7200   25.8990   45.6900 N   0  0  0  0  0  0  0  0  0  0  0  0
   53.9880   24.7000   45.3070 C   0  0  0  0  0  0  0  0  0  0  0  0
   54.9510   23.6670   44.8090 C   0  0  0  0  0  0  0  0  0  0  0  0
   55.4320   23.7150   43.4920 C   0  0  0  0  0  0  0  0  0  0  0  0
   56.3580   22.7610   43.0680 C   0  0  0  0  0  0  0  0  0  0  0  0
   56.8020   21.7790   43.9550 C   0  0  0  0  0  0  0  0  0  0  0  0
   56.3100   21.7670   45.2610 C   0  0  0  0  0  0  0  0  0  0  0  0
   55.4070   22.7050   45.6580 N   0  0  0  0  0  0  0  0  0  0  0  0
   58.9000   31.0470   46.2050 C   0  0  0  0  0  0  0  0  0  0  0  0
   58.7730   32.4450   46.1740 C   0  0  0  0  0  0  0  0  0  0  0  0
   59.3360   33.3860   47.5670 S   0  0  0  0  0  0  0  0  0  0  0  0
   58.7670   32.8170   48.8380 O   0  0  0  0  0  0  0  0  0  0  0  0
   58.8580   34.8030   47.4220 O   0  0  0  0  0  0  0  0  0  0  0  0
   61.0810   33.3520   47.6440 N   0  0  0  0  0  0  0  0  0  0  0  0
   61.6510   33.8610   46.3880 C   0  0  0  0  0  0  0  0  0  0  0  0
   63.1930   33.8160   46.4500 C   0  0  0  0  0  0  0  0  0  0  0  0
   63.6650   33.1470   47.6070 O   0  0  0  0  0  0  0  0  0  0  0  0
   63.0700   31.8670   47.6940 C   0  0  0  0  0  0  0  0  0  0  0  0
   61.5460   31.9770   47.8990 C   0  0  0  0  0  0  0  0  0  0  0  0
   58.0172   34.9967   45.9416 H   0  0  0  0  0  0  0  0  0  0  0  0
   58.9214   34.9769   44.3896 H   0  0  0  0  0  0  0  0  0  0  0  0
   57.1333   34.8049   44.3896 H   0  0  0  0  0  0  0  0  0  0  0  0
   57.3692   32.7476   43.0556 H   0  0  0  0  0  0  0  0  0  0  0  0
   57.6103   30.2707   43.1393 H   0  0  0  0  0  0  0  0  0  0  0  0
   56.8940   27.8340   43.9270 H   0  0  0  0  0  0  0  0  0  0  0  0
   57.1769   25.7366   44.3459 H   0  0  0  0  0  0  0  0  0  0  0  0
   58.1549   26.1486   45.8098 H   0  0  0  0  0  0  0  0  0  0  0  0
   53.4463   24.3063   46.1797 H   0  0  0  0  0  0  0  0  0  0  0  0
   53.2697   24.9466   44.5112 H   0  0  0  0  0  0  0  0  0  0  0  0
   55.0829   24.4964   42.8009 H   0  0  0  0  0  0  0  0  0  0  0  0
   56.7376   22.7829   42.0358 H   0  0  0  0  0  0  0  0  0  0  0  0
   57.5314   21.0231   43.6284 H   0  0  0  0  0  0  0  0  0  0  0  0
   56.6522   20.9989   45.9701 H   0  0  0  0  0  0  0  0  0  0  0  0
   59.3254   30.5595   47.0946 H   0  0  0  0  0  0  0  0  0  0  0  0
   61.3020   33.2383   45.5511 H   0  0  0  0  0  0  0  0  0  0  0  0
   61.3263   34.9016   46.2403 H   0  0  0  0  0  0  0  0  0  0  0  0
   63.5677   33.2901   45.5595 H   0  0  0  0  0  0  0  0  0  0  0  0
   63.5589   34.8527   46.4876 H   0  0  0  0  0  0  0  0  0  0  0  0
   63.2686   31.3144   46.7638 H   0  0  0  0  0  0  0  0  0  0  0  0
   63.5017   31.3386   48.5568 H   0  0  0  0  0  0  0  0  0  0  0  0
   61.0385   31.2903   47.2055 H   0  0  0  0  0  0  0  0  0  0  0  0
   61.3106   31.7129   48.9406 H   0  0  0  0  0  0  0  0  0  0  0  0
  1  2  1  0
  2  3  2  0
  3  4  1  0
  4  5  2  0
  5  6  1  0
  6  7  2  0
  6  8  2  0
  6  9  1  0
  9 10  1  0
 10 11  1  0
 11 12  2  0
 11 13  1  0
 13 14  1  0
 14 15  1  0
 15 16  2  0
 16 17  1  0
 17 18  2  0
 18 19  1  0
 19 20  2  0
  5 21  1  0
 21 22  2  0
 22 23  1  0
 23 24  2  0
 23 25  2  0
 23 26  1  0
 26 27  1  0
 27 28  1  0
 28 29  1  0
 29 30  1  0
 30 31  1  0
 22  2  1  0
 31 26  1  0
 20 15  1  0
  1 32  1  0
  1 33  1  0
  1 34  1  0
  3 35  1  0
  4 36  1  0
  9 37  1  0
 10 38  1  0
 10 39  1  0
 14 40  1  0
 14 41  1  0
 16 42  1  0
 17 43  1  0
 18 44  1  0
 19 45  1  0
 21 46  1  0
 27 47  1  0
 27 48  1  0
 28 49  1  0
 28 50  1  0
 30 51  1  0
 30 52  1  0
 31 53  1  0
 31 54  1  0
M  CHG  1  13  -1
M  END
>  <UniqueID>  (49) 
47

>  <SMILES>  (49) 
Cc1ccc(S(=O)(=O)NCC(=O)[N-]Cc2ccccn2)cc1S(=O)(=O)N1CCOCC1

>  <Energy>  (49) 
58.01902258237924

>  <Genealogy>  (49) 
Cc1ccc(S(=O)(=O)NCC(=O)[N-]Cc2ccccn2)cc1S(=O)(=O)N1CCOCC1 (protonated)
Cc1ccc(S(=O)(=O)NCC(=O)[N-]Cc2ccccn2)cc1S(=O)(=O)N1CCOCC1 (3D coordinates assigned)
Cc1ccc(S(=O)(=O)NCC(=O)[N-]Cc2ccccn2)cc1S(=O)(=O)N1CCOCC1 (nonaromatic ring conformer: 58.01902258237924 kcal/mol)

>  <smiles>  (49) 
Cc1ccc(S(=O)(=O)NCC(=O)NCc2ccccn2)cc1S(=O)(=O)N1CCOCC1

>  <score_type>  (49) 
oracle

>  <origin>  (49) 
adg

>  <m_score__min__energy>  (49) 
-11.66

>  <m_primary>  (49) 
energy

$$$$
49:0
     RDKit          3D

 54 57  0  0  1  0  0  0  0  0999 V2000
   57.9750   23.2240   45.7700 C   0  0  0  0  0  0  0  0  0  0  0  0
   54.0460   21.5670   46.4020 C   0  0  0  0  0  0  0  0  0  0  0  0
   53.3300   22.6930   46.1340 C   0  0  0  0  0  0  0  0  0  0  0  0
   54.2910   23.6940   45.9670 C   0  0  0  0  0  0  0  0  0  0  0  0
   55.5340   23.1340   46.1400 C   0  0  0  0  0  0  0  0  0  0  0  0
   56.6670   23.7850   46.0310 C   0  0  0  0  0  0  0  0  0  0  0  0
   56.7390   25.2440   46.1660 C   0  0  0  0  0  0  0  0  0  0  0  0
   55.8440   26.0850   46.3920 O   0  0  0  0  0  0  0  0  0  0  0  0
   58.1320   25.5740   45.9790 C   0  0  0  0  0  0  0  0  0  0  0  0
   58.6440   26.7750   46.0070 C   0  0  0  0  0  0  0  0  0  0  0  0
   58.0570   27.9590   45.4130 C   0  0  0  0  0  0  0  0  0  0  0  0
   56.8360   28.2030   44.9300 N   0  0  0  0  0  0  0  0  0  0  0  0
   56.7310   29.4690   44.4750 C   0  0  0  0  0  0  0  0  0  0  0  0
   55.5140   30.0900   43.8660 C   0  0  0  0  0  0  0  0  0  0  0  0
   57.9420   30.1020   44.6610 C   0  0  0  0  0  0  0  0  0  0  0  0
   58.2990   31.4760   44.3170 C   0  0  0  0  0  0  0  0  0  0  0  0
   58.2680   31.8860   43.1020 O   0  0  0  0  0  0  0  0  0  0  0  0
   58.6910   32.4240   45.2780 N   0  0  0  0  0  0  0  0  0  0  0  0
   59.0510   33.8070   44.9750 C   0  0  0  0  0  0  0  0  0  0  0  0
   58.4380   34.5620   46.1410 C   0  0  0  0  0  0  0  0  0  0  0  0
   58.1880   33.5690   47.2400 C   0  0  0  0  0  0  0  0  0  0  0  0
   58.8390   32.3140   46.7180 C   0  0  0  0  0  0  0  0  0  0  0  0
   58.7620   29.1460   45.2500 C   0  0  0  0  0  0  0  0  0  0  0  0
   60.1770   29.4310   45.6220 C   0  0  0  0  0  0  0  0  0  0  0  0
   58.8520   24.3870   45.7460 N   0  0  0  0  0  0  0  0  0  0  0  0
   58.4420   22.0270   45.6160 C   0  0  0  0  0  0  0  0  0  0  0  0
   53.4900   20.3810   46.6180 C   0  0  0  0  0  0  0  0  0  0  0  0
   57.9030   20.7890   45.5460 O   0  0  0  0  0  0  0  0  0  0  0  0
   59.8710   21.9440   45.4810 O   0  0  0  0  0  0  0  0  0  0  0  0
   55.3880   21.8420   46.4040 N   0  0  0  0  0  0  0  0  0  0  0  0
   54.1234   19.5070   46.8299 H   0  0  0  0  0  0  0  0  0  0  0  0
   52.3959   20.2723   46.5850 H   0  0  0  0  0  0  0  0  0  0  0  0
   52.2368   22.7931   46.0643 H   0  0  0  0  0  0  0  0  0  0  0  0
   54.0872   24.7501   45.7364 H   0  0  0  0  0  0  0  0  0  0  0  0
   59.6053   26.8986   46.5272 H   0  0  0  0  0  0  0  0  0  0  0  0
   56.0400   27.5370   44.8800 H   0  0  0  0  0  0  0  0  0  0  0  0
   54.8396   30.4341   44.6640 H   0  0  0  0  0  0  0  0  0  0  0  0
   55.8120   30.9463   43.2431 H   0  0  0  0  0  0  0  0  0  0  0  0
   54.9955   29.3463   43.2431 H   0  0  0  0  0  0  0  0  0  0  0  0
   60.1428   33.9374   44.9455 H   0  0  0  0  0  0  0  0  0  0  0  0
   58.6961   34.1500   43.9919 H   0  0  0  0  0  0  0  0  0  0  0  0
   59.1312   35.3417   46.4897 H   0  0  0  0  0  0  0  0  0  0  0  0
   57.4993   35.0484   45.8372 H   0  0  0  0  0  0  0  0  0  0  0  0
   58.6554   33.8948   48.1810 H   0  0  0  0  0  0  0  0  0  0  0  0
   57.1206   33.4392   47.4722 H   0  0  0  0  0  0  0  0  0  0  0  0
   59.9011   32.2758   47.0015 H   0  0  0  0  0  0  0  0  0  0  0  0
   58.3863   31.3977   47.1247 H   0  0  0  0  0  0  0  0  0  0  0  0
   60.2713   29.4500   46.7178 H   0  0  0  0  0  0  0  0  0  0  0  0
   60.8293   28.6462   45.2114 H   0  0  0  0  0  0  0  0  0  0  0  0
   60.4746   30.4071   45.2114 H   0  0  0  0  0  0  0  0  0  0  0  0
   59.8840   24.3910   45.5740 H   0  0  0  0  0  0  0  0  0  0  0  0
   58.3880   19.9350   45.2950 H   0  0  0  0  0  0  0  0  0  0  0  0
   60.2250   21.0320   45.1750 H   0  0  0  0  0  0  0  0  0  0  0  0
   56.0310   21.0950   46.5800 H   0  0  0  0  0  0  0  0  0  0  0  0
  1  2  2  0
  2  3  1  0
  3  4  2  0
  4  5  1  0
  5  6  2  0
  6  7  1  0
  7  8  2  0
  7  9  1  0
  9 10  2  0
 10 11  1  0
 11 12  1  0
 12 13  1  0
 13 14  1  0
 13 15  2  0
 15 16  1  0
 16 17  2  0
 16 18  1  0
 18 19  1  0
 19 20  1  0
 20 21  1  0
 21 22  1  0
 15 23  1  0
 23 24  1  0
  9 25  1  0
 25 26  1  0
 26 27  2  0
 27 28  1  0
 27 29  1  0
  5 30  1  0
 30  2  1  0
 26  6  1  0
 23 11  2  0
 22 18  1  0
  1 31  1  0
  1 32  1  0
  3 33  1  0
  4 34  1  0
 10 35  1  0
 12 36  1  0
 14 37  1  0
 14 38  1  0
 14 39  1  0
 19 40  1  0
 19 41  1  0
 20 42  1  0
 20 43  1  0
 21 44  1  0
 21 45  1  0
 22 46  1  0
 22 47  1  0
 24 48  1  0
 24 49  1  0
 24 50  1  0
 25 51  1  0
 28 52  1  0
 29 53  1  0
 30 54  1  0
M  END
>  <smiles>  (50) 
C=c1ccc(=C2C(=O)C(=Cc3[nH]c(C)c(C(=O)N4CCCC4)c3C)NC2=C(O)O)[nH]1

>  <score_type>  (50) 
oracle

>  <origin>  (50) 
adg

>  <m_score__min__energy>  (50) 
-9.6300000000000008

>  <m_primary>  (50) 
energy

$$$$
50:0
     RDKit          3D

 42 44  0  0  0  0  0  0  0  0999 V2000
   59.1010   21.4690   45.4370 N   0  0  0  0  0  0  0  0  0  0  0  0
   57.5970   22.1690   45.9180 S   0  0  0  0  0  0  0  0  0  0  0  0
   57.3680   21.9110   47.3810 O   0  0  0  0  0  0  0  0  0  0  0  0
   56.4770   21.5380   45.1380 O   0  0  0  0  0  0  0  0  0  0  0  0
   57.6280   23.9040   45.6160 C   0  0  0  0  0  0  0  0  0  0  0  0
   57.7600   24.3890   44.3100 C   0  0  0  0  0  0  0  0  0  0  0  0
   57.7670   25.7650   44.0670 C   0  0  0  0  0  0  0  0  0  0  0  0
   57.6440   26.6810   45.1290 C   0  0  0  0  0  0  0  0  0  0  0  0
   57.6350   28.1400   44.8500 C   0  0  0  0  0  0  0  0  0  0  0  0
   58.8260   28.8750   44.7120 C   0  0  0  0  0  0  0  0  0  0  0  0
   58.7650   30.2500   44.4800 C   0  0  0  0  0  0  0  0  0  0  0  0
   57.5240   30.8920   44.3820 C   0  0  0  0  0  0  0  0  0  0  0  0
   57.4390   32.3880   44.2190 C   0  0  0  0  0  0  0  0  0  0  0  0
   56.7060   32.9840   45.2760 O   0  0  0  0  0  0  0  0  0  0  0  0
   57.4000   34.0860   45.8400 C   0  0  0  0  0  0  0  0  0  0  0  0
   58.7830   33.6720   46.2700 C   0  0  0  0  0  0  0  0  0  0  0  0
   59.8850   34.5010   46.0050 C   0  0  0  0  0  0  0  0  0  0  0  0
   61.1220   34.1570   46.4520 N   0  0  0  0  0  0  0  0  0  0  0  0
   61.3360   33.0160   47.1580 C   0  0  0  0  0  0  0  0  0  0  0  0
   60.2710   32.1560   47.4380 C   0  0  0  0  0  0  0  0  0  0  0  0
   60.5580   30.5610   48.4470 Br  0  0  0  0  0  0  0  0  0  0  0  0
   58.9910   32.4830   46.9850 C   0  0  0  0  0  0  0  0  0  0  0  0
   56.3580   30.1220   44.4850 C   0  0  0  0  0  0  0  0  0  0  0  0
   56.4410   28.7850   44.7180 N   0  0  0  0  0  0  0  0  0  0  0  0
   57.4940   26.1830   46.4380 C   0  0  0  0  0  0  0  0  0  0  0  0
   57.4860   24.8050   46.6770 C   0  0  0  0  0  0  0  0  0  0  0  0
   58.9720   21.1040   44.4670 H   0  0  0  0  0  0  0  0  0  0  0  0
   59.2620   20.6390   46.0510 H   0  0  0  0  0  0  0  0  0  0  0  0
   57.8586   23.6841   43.4713 H   0  0  0  0  0  0  0  0  0  0  0  0
   57.8695   26.1359   43.0365 H   0  0  0  0  0  0  0  0  0  0  0  0
   59.8000   28.3692   44.7865 H   0  0  0  0  0  0  0  0  0  0  0  0
   59.6933   30.8305   44.3739 H   0  0  0  0  0  0  0  0  0  0  0  0
   58.4568   32.8052   44.2099 H   0  0  0  0  0  0  0  0  0  0  0  0
   56.9195   32.6037   43.2737 H   0  0  0  0  0  0  0  0  0  0  0  0
   57.4783   34.8871   45.0902 H   0  0  0  0  0  0  0  0  0  0  0  0
   56.8453   34.4442   46.7198 H   0  0  0  0  0  0  0  0  0  0  0  0
   59.7470   35.4312   45.4342 H   0  0  0  0  0  0  0  0  0  0  0  0
   62.3487   32.7691   47.5095 H   0  0  0  0  0  0  0  0  0  0  0  0
   58.1463   31.8085   47.1887 H   0  0  0  0  0  0  0  0  0  0  0  0
   55.3733   30.6002   44.3771 H   0  0  0  0  0  0  0  0  0  0  0  0
   57.3823   26.8834   47.2788 H   0  0  0  0  0  0  0  0  0  0  0  0
   57.3676   24.4279   47.7035 H   0  0  0  0  0  0  0  0  0  0  0  0
  1  2  1  0
  2  3  2  0
  2  4  2  0
  2  5  1  0
  5  6  2  0
  6  7  1  0
  7  8  2  0
  8  9  1  0
  9 10  2  0
 10 11  1  0
 11 12  2  0
 12 13  1  0
 13 14  1  0
 14 15  1  0
 15 16  1  0
 16 17  2  0
 17 18  1  0
 18 19  2  0
 19 20  1  0
 20 21  1  0
 20 22  2  0
 12 23  1  0
 23 24  2  0
  8 25  1  0
 25 26  2  0
 26  5  1  0
 24  9  1  0
 22 16  1  0
  1 27  1  0
  1 28  1  0
  6 29  1  0
  7 30  1  0
 10 31  1  0
 11 32  1  0
 13 33  1  0
 13 34  1  0
 15 35  1  0
 15 36  1  0
 17 37  1  0
 19 38  1  0
 22 39  1  0
 23 40  1  0
 25 41  1  0
 26 42  1  0
M  END
>  <UniqueID>  (51) 
48

>  <SMILES>  (51) 
NS(=O)(=O)c1ccc(-c2ccc(COCc3cncc(Br)c3)cn2)cc1

>  <Energy>  (51) 
48.068285375048745

>  <Genealogy>  (51) 
NS(=O)(=O)c1ccc(-c2ccc(COCc3cncc(Br)c3)cn2)cc1 (3D coordinates assigned)
NS(=O)(=O)c1ccc(-c2ccc(COCc3cncc(Br)c3)cn2)cc1 (optimized conformer: 48.068285375048745 kcal/mol)

>  <smiles>  (51) 
NS(=O)(=O)c1ccc(-c2ccc(COCc3cncc(Br)c3)cn2)cc1

>  <score_type>  (51) 
oracle

>  <origin>  (51) 
adg

>  <m_score__min__energy>  (51) 
-9.2400000000000002

>  <m_primary>  (51) 
energy

$$$$
51:0
     RDKit          3D

 51 53  0  0  0  0  0  0  0  0999 V2000
   64.1120   33.2080   51.0390 C   0  0  0  0  0  0  0  0  0  0  0  0
   63.9710   32.9840   49.5620 C   0  0  0  0  0  0  0  0  0  0  0  0
   64.9990   33.0940   48.8380 O   0  0  0  0  0  0  0  0  0  0  0  0
   62.7020   32.6510   48.9580 N   0  0  0  0  0  0  0  0  0  0  0  0
   61.4390   32.7460   49.7120 C   0  0  0  0  0  0  0  0  0  0  0  0
   60.3140   33.2870   48.8190 C   0  0  0  0  0  0  0  0  0  0  0  0
   60.3020   32.6290   47.5060 N   0  0  0  0  0  0  0  0  0  0  0  0
   59.1940   32.8510   46.6220 C   0  0  0  0  0  0  0  0  0  0  0  0
   58.8770   34.1560   46.2210 C   0  0  0  0  0  0  0  0  0  0  0  0
   57.8250   34.3830   45.3330 C   0  0  0  0  0  0  0  0  0  0  0  0
   57.0640   33.3130   44.8600 C   0  0  0  0  0  0  0  0  0  0  0  0
   57.3390   32.0070   45.2850 C   0  0  0  0  0  0  0  0  0  0  0  0
   56.4940   30.9490   44.8210 N   0  0  0  0  0  0  0  0  0  0  0  0
   56.9270   29.5980   44.6300 C   0  0  0  0  0  0  0  0  0  0  0  0
   57.9470   29.3520   43.9310 O   0  0  0  0  0  0  0  0  0  0  0  0
   56.2340   28.5130   45.2550 N   0  0  0  0  0  0  0  0  0  0  0  0
   56.7940   27.1890   45.5270 C   0  0  2  0  0  0  0  0  0  0  0  0
   55.7390   26.2800   46.1730 C   0  0  0  0  0  0  0  0  0  0  0  0
   58.0990   27.3060   46.2860 C   0  0  0  0  0  0  0  0  0  0  0  0
   59.2960   26.6940   45.8590 C   0  0  0  0  0  0  0  0  0  0  0  0
   60.4440   26.8100   46.6440 C   0  0  0  0  0  0  0  0  0  0  0  0
   60.4000   27.5250   47.8400 C   0  0  0  0  0  0  0  0  0  0  0  0
   59.2000   28.1160   48.2390 C   0  0  0  0  0  0  0  0  0  0  0  0
   58.0920   27.9900   47.4650 N   0  0  0  0  0  0  0  0  0  0  0  0
   58.4340   31.7650   46.1460 C   0  0  0  0  0  0  0  0  0  0  0  0
   58.7930   30.4700   46.5250 O   0  0  0  0  0  0  0  0  0  0  0  0
   61.3070   31.6190   47.1700 C   0  0  0  0  0  0  0  0  0  0  0  0
   62.6950   32.1130   47.5860 C   0  0  0  0  0  0  0  0  0  0  0  0
   63.6026   32.3988   51.5828 H   0  0  0  0  0  0  0  0  0  0  0  0
   65.1785   33.2162   51.3085 H   0  0  0  0  0  0  0  0  0  0  0  0
   63.6583   34.1732   51.3085 H   0  0  0  0  0  0  0  0  0  0  0  0
   61.1607   31.7466   50.0779 H   0  0  0  0  0  0  0  0  0  0  0  0
   61.5824   33.4353   50.5571 H   0  0  0  0  0  0  0  0  0  0  0  0
   59.3483   33.1109   49.3154 H   0  0  0  0  0  0  0  0  0  0  0  0
   60.4854   34.3624   48.6633 H   0  0  0  0  0  0  0  0  0  0  0  0
   59.4600   35.0048   46.6080 H   0  0  0  0  0  0  0  0  0  0  0  0
   57.5950   35.4075   45.0050 H   0  0  0  0  0  0  0  0  0  0  0  0
   56.2441   33.4962   44.1499 H   0  0  0  0  0  0  0  0  0  0  0  0
   57.0606   26.6893   44.5840 H   0  0  0  0  0  0  0  0  0  0  0  0
   55.8176   26.3478   47.2681 H   0  0  0  0  0  0  0  0  0  0  0  0
   54.7354   26.6009   45.8569 H   0  0  0  0  0  0  0  0  0  0  0  0
   55.9080   25.2400   45.8569 H   0  0  0  0  0  0  0  0  0  0  0  0
   59.3244   26.1300   44.9150 H   0  0  0  0  0  0  0  0  0  0  0  0
   61.3829   26.3376   46.3193 H   0  0  0  0  0  0  0  0  0  0  0  0
   61.3015   27.6224   48.4627 H   0  0  0  0  0  0  0  0  0  0  0  0
   59.1523   28.6835   49.1801 H   0  0  0  0  0  0  0  0  0  0  0  0
   58.3960   29.6450   46.0970 H   0  0  0  0  0  0  0  0  0  0  0  0
   61.0773   30.6838   47.7016 H   0  0  0  0  0  0  0  0  0  0  0  0
   61.2945   31.4400   46.0847 H   0  0  0  0  0  0  0  0  0  0  0  0
   63.4023   31.2724   47.5307 H   0  0  0  0  0  0  0  0  0  0  0  0
   62.9858   32.9238   46.9019 H   0  0  0  0  0  0  0  0  0  0  0  0
  1  2  1  0
  2  3  2  0
  2  4  1  0
  4  5  1  0
  5  6  1  0
  6  7  1  0
  7  8  1  0
  8  9  2  0
  9 10  1  0
 10 11  2  0
 11 12  1  0
 12 13  1  0
 13 14  1  0
 14 15  2  0
 14 16  1  0
 16 17  1  0
 17 18  1  0
 17 19  1  0
 19 20  2  0
 20 21  1  0
 21 22  2  0
 22 23  1  0
 23 24  2  0
 12 25  2  0
 25 26  1  0
  7 27  1  0
 27 28  1  0
 28  4  1  0
 25  8  1  0
 24 19  1  0
  1 29  1  0
  1 30  1  0
  1 31  1  0
  5 32  1  0
  5 33  1  0
  6 34  1  0
  6 35  1  0
  9 36  1  0
 10 37  1  0
 11 38  1  0
 17 39  1  6
 18 40  1  0
 18 41  1  0
 18 42  1  0
 20 43  1  0
 21 44  1  0
 22 45  1  0
 23 46  1  0
 26 47  1  0
 27 48  1  0
 27 49  1  0
 28 50  1  0
 28 51  1  0
M  CHG  2  13  -1  16  -1
M  END
>  <UniqueID>  (52) 
49

>  <SMILES>  (52) 
CC(=O)N1CCN(c2cccc([N-]C(=O)[N-][C@H](C)c3ccccn3)c2O)CC1

>  <Energy>  (52) 
63.09008463374926

>  <Genealogy>  (52) 
CC(=O)N1CCN(c2cccc([N-]C(=O)[N-]C(C)c3ccccn3)c2O)CC1 (protonated)
CC(=O)N1CCN(c2cccc([N-]C(=O)[N-][C@H](C)c3ccccn3)c2O)CC1 (chirality)
CC(=O)N1CCN(c2cccc([N-]C(=O)[N-][C@H](C)c3ccccn3)c2O)CC1 (3D coordinates assigned)
CC(=O)N1CCN(c2cccc([N-]C(=O)[N-][C@H](C)c3ccccn3)c2O)CC1 (nonaromatic ring conformer: 63.09008463374926 kcal/mol)

>  <smiles>  (52) 
CC(=O)N1CCN(c2cccc(NC(=O)NC(C)c3ccccn3)c2O)CC1

>  <score_type>  (52) 
oracle

>  <origin>  (52) 
adg

>  <m_score__min__energy>  (52) 
-12.6

>  <m_primary>  (52) 
energy

$$$$
52:0
     RDKit          3D

 46 49  0  0  0  0  0  0  0  0999 V2000
   59.6530   33.5430   47.0410 O   0  0  0  0  0  0  0  0  0  0  0  0
   59.9070   32.3500   46.7180 C   0  0  0  0  0  0  0  0  0  0  0  0
   61.1580   31.7560   47.0950 N   0  0  0  0  0  0  0  0  0  0  0  0
   62.0500   32.3490   48.0560 C   0  0  0  0  0  0  0  0  0  0  0  0
   63.3030   32.8360   47.6410 C   0  0  0  0  0  0  0  0  0  0  0  0
   64.1480   33.4840   48.5440 C   0  0  0  0  0  0  0  0  0  0  0  0
   63.7490   33.6660   49.8670 C   0  0  0  0  0  0  0  0  0  0  0  0
   62.5060   33.1980   50.2950 C   0  0  0  0  0  0  0  0  0  0  0  0
   61.6460   32.5340   49.4020 C   0  0  0  0  0  0  0  0  0  0  0  0
   60.3520   32.0120   49.9030 C   0  0  0  0  0  0  0  0  0  0  0  0
   59.3740   32.8950   50.3950 C   0  0  0  0  0  0  0  0  0  0  0  0
   58.1570   32.4040   50.8760 C   0  0  0  0  0  0  0  0  0  0  0  0
   57.9070   31.0280   50.8750 C   0  0  0  0  0  0  0  0  0  0  0  0
   58.8760   30.1420   50.3980 C   0  0  0  0  0  0  0  0  0  0  0  0
   60.0950   30.6290   49.9170 C   0  0  0  0  0  0  0  0  0  0  0  0
   58.9210   31.5980   45.9170 C   0  0  0  0  0  0  0  0  0  0  0  0
   58.2840   30.4400   46.3260 C   0  0  0  0  0  0  0  0  0  0  0  0
   57.4650   30.0620   45.2760 C   0  0  0  0  0  0  0  0  0  0  0  0
   56.6040   28.8640   45.2010 C   0  0  0  0  0  0  0  0  0  0  0  0
   55.3990   29.0020   44.8590 O   0  0  0  0  0  0  0  0  0  0  0  0
   57.1150   27.5090   45.5110 C   0  0  0  0  0  0  0  0  0  0  0  0
   58.4940   27.2370   45.4360 C   0  0  0  0  0  0  0  0  0  0  0  0
   58.9850   25.9670   45.7480 C   0  0  0  0  0  0  0  0  0  0  0  0
   58.1070   24.9570   46.1470 C   0  0  0  0  0  0  0  0  0  0  0  0
   56.7380   25.2160   46.2390 C   0  0  0  0  0  0  0  0  0  0  0  0
   56.2380   26.4850   45.9260 C   0  0  0  0  0  0  0  0  0  0  0  0
   54.8690   26.7150   46.0150 O   0  0  0  0  0  0  0  0  0  0  0  0
   57.6530   30.9910   44.2700 C   0  0  0  0  0  0  0  0  0  0  0  0
   58.5350   31.9250   44.6670 N   0  0  0  0  0  0  0  0  0  0  0  0
   61.4840   30.9060   46.5840 H   0  0  0  0  0  0  0  0  0  0  0  0
   63.6198   32.7051   46.5958 H   0  0  0  0  0  0  0  0  0  0  0  0
   65.1299   33.8514   48.2109 H   0  0  0  0  0  0  0  0  0  0  0  0
   64.4155   34.1798   50.5754 H   0  0  0  0  0  0  0  0  0  0  0  0
   62.1962   33.3497   51.3395 H   0  0  0  0  0  0  0  0  0  0  0  0
   59.5679   33.9777   50.4013 H   0  0  0  0  0  0  0  0  0  0  0  0
   57.3950   33.1006   51.2557 H   0  0  0  0  0  0  0  0  0  0  0  0
   56.9471   30.6433   51.2499 H   0  0  0  0  0  0  0  0  0  0  0  0
   58.6796   29.0597   50.4009 H   0  0  0  0  0  0  0  0  0  0  0  0
   60.8571   29.9271   49.5476 H   0  0  0  0  0  0  0  0  0  0  0  0
   58.4040   29.9242   47.2901 H   0  0  0  0  0  0  0  0  0  0  0  0
   59.1907   28.0310   45.1292 H   0  0  0  0  0  0  0  0  0  0  0  0
   60.0636   25.7624   45.6794 H   0  0  0  0  0  0  0  0  0  0  0  0
   58.4943   23.9563   46.3891 H   0  0  0  0  0  0  0  0  0  0  0  0
   56.0499   24.4195   46.5587 H   0  0  0  0  0  0  0  0  0  0  0  0
   57.1547   30.9694   43.2896 H   0  0  0  0  0  0  0  0  0  0  0  0
   58.8660   32.7280   44.0890 H   0  0  0  0  0  0  0  0  0  0  0  0
  1  2  2  0
  2  3  1  0
  3  4  1  0
  4  5  2  0
  5  6  1  0
  6  7  2  0
  7  8  1  0
  8  9  2  0
  9 10  1  0
 10 11  2  0
 11 12  1  0
 12 13  2  0
 13 14  1  0
 14 15  2  0
  2 16  1  0
 16 17  2  0
 17 18  1  0
 18 19  1  0
 19 20  2  0
 19 21  1  0
 21 22  2  0
 22 23  1  0
 23 24  2  0
 24 25  1  0
 25 26  2  0
 26 27  1  0
 18 28  2  0
 28 29  1  0
  9  4  1  0
 15 10  1  0
 29 16  1  0
 26 21  1  0
  3 30  1  0
  5 31  1  0
  6 32  1  0
  7 33  1  0
  8 34  1  0
 11 35  1  0
 12 36  1  0
 13 37  1  0
 14 38  1  0
 15 39  1  0
 17 40  1  0
 22 41  1  0
 23 42  1  0
 24 43  1  0
 25 44  1  0
 28 45  1  0
 29 46  1  0
M  CHG  1  27  -1
M  END
>  <UniqueID>  (53) 
50

>  <SMILES>  (53) 
O=C(Nc1ccccc1-c1ccccc1)c1cc(C(=O)c2ccccc2[O-])c[nH]1

>  <Energy>  (53) 
92.1724445676091

>  <Genealogy>  (53) 
O=C(Nc1ccccc1-c1ccccc1)c1cc(C(=O)c2ccccc2[O-])c[nH]1 (protonated)
O=C(Nc1ccccc1-c1ccccc1)c1cc(C(=O)c2ccccc2[O-])c[nH]1 (3D coordinates assigned)
O=C(Nc1ccccc1-c1ccccc1)c1cc(C(=O)c2ccccc2[O-])c[nH]1 (optimized conformer: 92.1724445676091 kcal/mol)

>  <smiles>  (53) 
O=C(Nc1ccccc1-c1ccccc1)c1cc(C(=O)c2ccccc2O)c[nH]1

>  <score_type>  (53) 
oracle

>  <origin>  (53) 
adg

>  <m_score__min__energy>  (53) 
-12.890000000000001

>  <m_primary>  (53) 
energy

$$$$
53:0
     RDKit          3D

 58 61  0  0  0  0  0  0  0  0999 V2000
   59.8240   28.0790   45.2010 C   0  0  0  0  0  0  0  0  0  0  0  0
   58.5180   28.3650   45.3020 C   0  0  0  0  0  0  0  0  0  0  0  0
   57.4500   27.4760   45.5020 C   0  0  0  0  0  0  0  0  0  0  0  0
   57.4520   26.1710   45.8300 C   0  0  0  0  0  0  0  0  0  0  0  0
   56.5530   25.1400   45.2860 C   0  0  0  0  0  0  0  0  0  0  0  0
   56.9660   23.9650   44.7590 N   0  0  0  0  0  0  0  0  0  0  0  0
   55.8150   23.2880   44.5480 C   0  0  0  0  0  0  0  0  0  0  0  0
   55.7850   22.1330   44.0450 O   0  0  0  0  0  0  0  0  0  0  0  0
   54.7110   23.9600   44.9370 N   0  0  0  0  0  0  0  0  0  0  0  0
   53.3200   23.5150   44.8940 C   0  0  0  0  0  0  0  0  0  0  0  0
   55.1830   25.1220   45.4210 C   0  0  0  0  0  0  0  0  0  0  0  0
   54.4040   26.1340   45.9780 O   0  0  0  0  0  0  0  0  0  0  0  0
   56.2880   28.1410   45.3220 N   0  0  0  0  0  0  0  0  0  0  0  0
   56.6590   29.4080   45.0680 C   0  0  0  0  0  0  0  0  0  0  0  0
   55.8290   30.3290   44.8470 O   0  0  0  0  0  0  0  0  0  0  0  0
   57.9960   29.5920   45.0620 N   0  0  0  0  0  0  0  0  0  0  0  0
   58.6990   30.8370   44.7250 C   0  0  0  0  0  0  0  0  0  0  0  0
   59.3190   31.4510   45.9540 C   0  0  0  0  0  0  0  0  0  0  0  0
   60.2620   30.7340   46.7060 C   0  0  0  0  0  0  0  0  0  0  0  0
   60.8330   31.3000   47.8500 C   0  0  0  0  0  0  0  0  0  0  0  0
   60.4710   32.5920   48.2590 C   0  0  0  0  0  0  0  0  0  0  0  0
   61.0820   33.1990   49.4610 C   0  0  0  0  0  0  0  0  0  0  0  0
   60.3680   33.3890   50.4840 O   0  0  0  0  0  0  0  0  0  0  0  0
   62.4760   33.5590   49.4930 N   0  0  0  0  0  0  0  0  0  0  0  0
   63.4810   32.6120   48.9840 C   0  0  0  0  0  0  0  0  0  0  0  0
   64.9070   33.0310   49.3710 C   0  0  0  0  0  0  0  0  0  0  0  0
   64.9550   33.4470   50.7830 N   0  0  0  0  0  0  0  0  0  0  0  0
   66.0730   33.0650   51.6150 C   0  0  0  0  0  0  0  0  0  0  0  0
   66.0910   33.3630   53.0850 C   0  0  0  0  0  0  0  0  0  0  0  0
   67.0630   32.4650   51.1130 O   0  0  0  0  0  0  0  0  0  0  0  0
   63.9150   34.3480   51.3130 C   0  0  0  0  0  0  0  0  0  0  0  0
   62.9120   34.7510   50.2290 C   0  0  0  0  0  0  0  0  0  0  0  0
   59.5520   33.3220   47.4880 C   0  0  0  0  0  0  0  0  0  0  0  0
   58.9780   32.7550   46.3480 C   0  0  0  0  0  0  0  0  0  0  0  0
   60.5534   28.8871   45.0434 H   0  0  0  0  0  0  0  0  0  0  0  0
   60.1661   27.0362   45.2757 H   0  0  0  0  0  0  0  0  0  0  0  0
   58.1940   25.8444   46.5734 H   0  0  0  0  0  0  0  0  0  0  0  0
   52.9419   23.3940   45.9199 H   0  0  0  0  0  0  0  0  0  0  0  0
   52.7118   24.2634   44.3649 H   0  0  0  0  0  0  0  0  0  0  0  0
   53.2591   22.5525   44.3649 H   0  0  0  0  0  0  0  0  0  0  0  0
   54.7270   27.0930   46.0040 H   0  0  0  0  0  0  0  0  0  0  0  0
   59.4903   30.6176   43.9931 H   0  0  0  0  0  0  0  0  0  0  0  0
   57.9738   31.5483   44.3030 H   0  0  0  0  0  0  0  0  0  0  0  0
   60.5538   29.7205   46.3937 H   0  0  0  0  0  0  0  0  0  0  0  0
   61.5705   30.7286   48.4328 H   0  0  0  0  0  0  0  0  0  0  0  0
   63.2763   31.6160   49.4035 H   0  0  0  0  0  0  0  0  0  0  0  0
   63.4143   32.5999   47.8861 H   0  0  0  0  0  0  0  0  0  0  0  0
   65.5880   32.1804   49.2205 H   0  0  0  0  0  0  0  0  0  0  0  0
   65.2138   33.8776   48.7392 H   0  0  0  0  0  0  0  0  0  0  0  0
   66.0341   32.4213   53.6507 H   0  0  0  0  0  0  0  0  0  0  0  0
   67.0226   33.8889   53.3411 H   0  0  0  0  0  0  0  0  0  0  0  0
   65.2295   33.9973   53.3411 H   0  0  0  0  0  0  0  0  0  0  0  0
   63.3773   33.8345   52.1237 H   0  0  0  0  0  0  0  0  0  0  0  0
   64.4062   35.2600   51.6831 H   0  0  0  0  0  0  0  0  0  0  0  0
   62.0402   35.2311   50.6974 H   0  0  0  0  0  0  0  0  0  0  0  0
   63.3907   35.4551   49.5325 H   0  0  0  0  0  0  0  0  0  0  0  0
   59.2826   34.3467   47.7837 H   0  0  0  0  0  0  0  0  0  0  0  0
   58.2543   33.3335   45.7551 H   0  0  0  0  0  0  0  0  0  0  0  0
  1  2  2  0
  2  3  1  0
  3  4  2  3
  4  5  1  0
  5  6  1  0
  6  7  1  0
  7  8  2  0
  7  9  1  0
  9 10  1  0
  9 11  1  0
 11 12  1  0
  3 13  1  0
 13 14  1  0
 14 15  2  0
 14 16  1  0
 16 17  1  0
 17 18  1  0
 18 19  2  0
 19 20  1  0
 20 21  2  0
 21 22  1  0
 22 23  2  0
 22 24  1  0
 24 25  1  0
 25 26  1  0
 26 27  1  0
 27 28  1  0
 28 29  1  0
 28 30  2  0
 27 31  1  0
 31 32  1  0
 21 33  1  0
 33 34  2  0
 16  2  1  0
 34 18  1  0
 11  5  2  0
 32 24  1  0
  1 35  1  0
  1 36  1  0
  4 37  1  0
 10 38  1  0
 10 39  1  0
 10 40  1  0
 12 41  1  0
 17 42  1  0
 17 43  1  0
 19 44  1  0
 20 45  1  0
 25 46  1  0
 25 47  1  0
 26 48  1  0
 26 49  1  0
 29 50  1  0
 29 51  1  0
 29 52  1  0
 31 53  1  0
 31 54  1  0
 32 55  1  0
 32 56  1  0
 33 57  1  0
 34 58  1  0
M  CHG  2   6  -1  13  -1
M  END
>  <UniqueID>  (54) 
51

>  <SMILES>  (54) 
C=c1c(=Cc2[n-]c(=O)n(C)c2O)[n-]c(=O)n1Cc1ccc(C(=O)N2CCN(C(C)=O)CC2)cc1

>  <Energy>  (54) 
139.9805958805831

>  <Genealogy>  (54) 
C=c1c(=Cc2[n-]c(=O)n(C)c2O)[n-]c(=O)n1Cc1ccc(C(=O)N2CCN(C(C)=O)CC2)cc1 (protonated)
C=c1c(=Cc2[n-]c(=O)n(C)c2O)[n-]c(=O)n1Cc1ccc(C(=O)N2CCN(C(C)=O)CC2)cc1 (3D coordinates assigned)
C=c1c(=Cc2[n-]c(=O)n(C)c2O)[n-]c(=O)n1Cc1ccc(C(=O)N2CCN(C(C)=O)CC2)cc1 (nonaromatic ring conformer: 139.9805958805831 kcal/mol)

>  <smiles>  (54) 
C=c1c(=Cc2[nH]c(=O)n(C)c2O)[nH]c(=O)n1Cc1ccc(C(=O)N2CCN(C(C)=O)CC2)cc1

>  <score_type>  (54) 
oracle

>  <origin>  (54) 
adg

>  <m_score__min__energy>  (54) 
-13.59

>  <m_primary>  (54) 
energy

$$$$
54:0
     RDKit          3D

 47 50  0  0  0  0  0  0  0  0999 V2000
   65.1090   32.4705   50.1476 H   0  0  0  0  0  0  0  0  0  0  0  0
   64.2920   33.0190   49.6560 C   0  0  0  0  0  0  0  0  0  0  0  0
   64.1570   32.9430   48.3640 N   0  0  0  0  0  0  0  0  0  0  0  0
   63.0920   33.6120   47.6690 C   0  0  0  0  0  0  0  0  0  0  0  0
   63.2310   33.8220   46.3590 C   0  0  0  0  0  0  0  0  0  0  0  0
   62.4349   34.3313   45.7961 H   0  0  0  0  0  0  0  0  0  0  0  0
   64.1417   33.4859   45.8417 H   0  0  0  0  0  0  0  0  0  0  0  0
   62.0010   34.2160   48.4920 C   0  0  0  0  0  0  0  0  0  0  0  0
   60.8060   34.5180   48.0610 N   0  0  0  0  0  0  0  0  0  0  0  0
   59.9010   33.7070   47.2990 C   0  0  0  0  0  0  0  0  0  0  0  0
   59.3770   32.5440   47.8740 C   0  0  0  0  0  0  0  0  0  0  0  0
   59.6300   32.2846   48.9126 H   0  0  0  0  0  0  0  0  0  0  0  0
   58.5330   31.7100   47.1340 C   0  0  0  0  0  0  0  0  0  0  0  0
   58.1010   30.8145   47.6045 H   0  0  0  0  0  0  0  0  0  0  0  0
   58.2340   32.0060   45.8000 C   0  0  0  0  0  0  0  0  0  0  0  0
   57.3710   31.1530   45.0970 O   0  0  0  0  0  0  0  0  0  0  0  0
   57.4680   29.7530   45.0530 C   0  0  0  0  0  0  0  0  0  0  0  0
   57.4770   29.0460   46.2510 C   0  0  0  0  0  0  0  0  0  0  0  0
   57.4332   29.5905   47.2058 H   0  0  0  0  0  0  0  0  0  0  0  0
   57.5410   27.6540   46.2520 C   0  0  0  0  0  0  0  0  0  0  0  0
   57.5520   27.1150   47.2108 H   0  0  0  0  0  0  0  0  0  0  0  0
   57.5920   26.9220   45.0450 C   0  0  0  0  0  0  0  0  0  0  0  0
   57.4640   25.5730   45.1480 C   0  0  0  0  0  0  0  0  0  0  0  0
   58.3951   24.9915   45.2184 H   0  0  0  0  0  0  0  0  0  0  0  0
   56.1960   24.8070   45.1750 C   0  0  0  0  0  0  0  0  0  0  0  0
   54.9920   25.3860   45.6140 C   0  0  0  0  0  0  0  0  0  0  0  0
   54.9470   26.7150   46.0220 O   0  0  0  0  0  0  0  0  0  0  0  0
   53.8580   24.6420   45.6560 N   0  0  0  0  0  0  0  0  0  0  0  0
   53.8640   23.3320   45.2990 C   0  0  0  0  0  0  0  0  0  0  0  0
   52.7990   22.6640   45.3420 O   0  0  0  0  0  0  0  0  0  0  0  0
   55.0200   22.7420   44.9020 N   0  0  0  0  0  0  0  0  0  0  0  0
   56.1820   23.4430   44.8410 C   0  0  0  0  0  0  0  0  0  0  0  0
   57.2370   22.8610   44.4730 O   0  0  0  0  0  0  0  0  0  0  0  0
   57.7420   27.6550   43.8190 C   0  0  0  0  0  0  0  0  0  0  0  0
   58.1080   27.0920   42.6520 C   0  0  0  0  0  0  0  0  0  0  0  0
   58.2044   27.7121   41.7485 H   0  0  0  0  0  0  0  0  0  0  0  0
   58.3106   26.0120   42.6020 H   0  0  0  0  0  0  0  0  0  0  0  0
   57.6200   29.0600   43.8450 C   0  0  0  0  0  0  0  0  0  0  0  0
   57.6447   29.6218   42.8996 H   0  0  0  0  0  0  0  0  0  0  0  0
   58.7730   33.1670   45.2150 C   0  0  0  0  0  0  0  0  0  0  0  0
   58.5289   33.4199   44.1727 H   0  0  0  0  0  0  0  0  0  0  0  0
   59.6180   34.0000   45.9550 C   0  0  0  0  0  0  0  0  0  0  0  0
   60.0628   34.8882   45.4825 H   0  0  0  0  0  0  0  0  0  0  0  0
   62.2930   34.4060   49.9230 C   0  0  0  0  0  0  0  0  0  0  0  0
   61.6253   35.0244   50.5409 H   0  0  0  0  0  0  0  0  0  0  0  0
   63.3660   33.8300   50.4740 C   0  0  0  0  0  0  0  0  0  0  0  0
   63.5620   33.9611   51.5484 H   0  0  0  0  0  0  0  0  0  0  0  0
  1  2  1  0
  2  3  2  0
  3  4  1  0
  4  5  2  0
  5  6  1  0
  5  7  1  0
  4  8  1  0
  8  9  2  3
  9 10  1  0
 10 11  2  0
 11 12  1  0
 11 13  1  0
 13 14  1  0
 13 15  2  0
 15 16  1  0
 16 17  1  0
 17 18  1  0
 18 19  1  0
 18 20  2  0
 20 21  1  0
 20 22  1  0
 22 23  2  0
 23 24  1  0
 23 25  1  0
 25 26  2  0
 26 27  1  0
 26 28  1  0
 28 29  1  0
 29 30  2  0
 29 31  1  0
 31 32  1  0
 32 33  2  0
 22 34  1  0
 34 35  2  0
 35 36  1  0
 35 37  1  0
 34 38  1  0
 38 39  1  0
 15 40  1  0
 40 41  1  0
 40 42  2  0
 42 43  1  0
  8 44  1  0
 44 45  1  0
 44 46  2  0
 46 47  1  0
 46  2  1  0
 42 10  1  0
 38 17  2  0
 32 25  1  0
M  CHG  3  27  -1  28  -1  31  -1
M  END
>  <UniqueID>  (55) 
52

>  <SMILES>  (55) 
C=C1N=CC=CC1=Nc1ccc(Oc2cc/c(=C/c3c([O-])[n-]c(=O)[n-]c3=O)c(=C)c2)cc1

>  <Energy>  (55) 
95.72818014955017

>  <Genealogy>  (55) 
C=C1N=CC=CC1=Nc1ccc(Oc2ccc(=Cc3c([O-])[n-]c(=O)[n-]c3=O)c(=C)c2)cc1 (protonated)
C=C1N=CC=CC1=Nc1ccc(Oc2cc/c(=C/c3c([O-])[n-]c(=O)[n-]c3=O)c(=C)c2)cc1 (cis-trans isomerization)
C=C1N=CC=CC1=Nc1ccc(Oc2cc/c(=C/c3c([O-])[n-]c(=O)[n-]c3=O)c(=C)c2)cc1 (3D coordinates assigned)
C=C1N=CC=CC1=Nc1ccc(Oc2cc/c(=C/c3c([O-])[n-]c(=O)[n-]c3=O)c(=C)c2)cc1 (nonaromatic ring conformer: 95.72818014955017 kcal/mol)

>  <smiles>  (55) 
C=C1N=CC=CC1=Nc1ccc(Oc2ccc(=Cc3c(O)[nH]c(=O)[nH]c3=O)c(=C)c2)cc1

>  <score_type>  (55) 
oracle

>  <origin>  (55) 
adg

>  <m_score__min__energy>  (55) 
-17.68

>  <m_primary>  (55) 
energy

$$$$
55:0
     RDKit          3D

 59 62  0  0  0  0  0  0  0  0999 V2000
   58.8970   33.8280   52.0610 C   0  0  0  0  0  0  0  0  0  0  0  0
   60.1620   33.3550   51.3350 C   0  0  0  0  0  0  0  0  0  0  0  0
   59.8630   32.9580   49.9300 N   0  0  0  0  0  0  0  0  0  0  0  0
   58.6540   32.0830   49.8910 C   0  0  0  0  0  0  0  0  0  0  0  0
   59.0250   30.6010   49.8430 C   0  0  0  0  0  0  0  0  0  0  0  0
   59.6660   34.1600   49.0740 C   0  0  0  0  0  0  0  0  0  0  0  0
   60.3130   34.0340   47.6780 C   0  0  0  0  0  0  0  0  0  0  0  0
   60.2690   32.6560   47.1310 N   0  0  0  0  0  0  0  0  0  0  0  0
   61.2840   31.7830   47.4520 C   0  0  0  0  0  0  0  0  0  0  0  0
   62.2860   32.1710   48.1160 O   0  0  0  0  0  0  0  0  0  0  0  0
   61.2160   30.4370   47.0950 C   0  0  0  0  0  0  0  0  0  0  0  0
   60.1250   29.9510   46.3830 C   0  0  0  0  0  0  0  0  0  0  0  0
   59.9050   28.1530   46.2710 S   0  0  0  0  0  0  0  0  0  0  0  0
   58.1660   27.9380   46.8180 C   0  0  0  0  0  0  0  0  0  0  0  0
   57.4560   26.7160   46.3260 C   0  0  0  0  0  0  0  0  0  0  0  0
   58.0250   25.8380   45.4550 N   0  0  0  0  0  0  0  0  0  0  0  0
   57.0000   25.0240   45.1650 C   0  0  0  0  0  0  0  0  0  0  0  0
   56.9920   23.9570   44.2690 C   0  0  0  0  0  0  0  0  0  0  0  0
   55.7650   23.2990   44.0480 C   0  0  0  0  0  0  0  0  0  0  0  0
   54.5950   23.7250   44.7170 C   0  0  0  0  0  0  0  0  0  0  0  0
   54.6460   24.8070   45.6220 C   0  0  0  0  0  0  0  0  0  0  0  0
   55.8780   25.4240   45.8230 C   0  0  0  0  0  0  0  0  0  0  0  0
   56.1370   26.5010   46.5770 N   0  0  0  0  0  0  0  0  0  0  0  0
   59.1250   30.8470   45.9690 C   0  0  0  0  0  0  0  0  0  0  0  0
   58.0390   30.4010   45.1880 C   0  0  0  0  0  0  0  0  0  0  0  0
   57.0120   31.2670   44.8200 C   0  0  0  0  0  0  0  0  0  0  0  0
   55.9560   30.7560   44.0460 O   0  0  0  0  0  0  0  0  0  0  0  0
   56.0910   29.7100   43.0870 C   0  0  0  0  0  0  0  0  0  0  0  0
   57.0510   32.6020   45.2470 C   0  0  0  0  0  0  0  0  0  0  0  0
   58.1170   33.0660   46.0170 C   0  0  0  0  0  0  0  0  0  0  0  0
   59.1880   32.2100   46.3790 C   0  0  0  0  0  0  0  0  0  0  0  0
   59.0544   33.7691   53.1481 H   0  0  0  0  0  0  0  0  0  0  0  0
   58.6791   34.8684   51.7779 H   0  0  0  0  0  0  0  0  0  0  0  0
   58.0500   33.1858   51.7779 H   0  0  0  0  0  0  0  0  0  0  0  0
   60.8979   34.1726   51.3275 H   0  0  0  0  0  0  0  0  0  0  0  0
   60.5602   32.4781   51.8665 H   0  0  0  0  0  0  0  0  0  0  0  0
   60.6870   32.4230   49.5600 H   0  0  0  0  0  0  0  0  0  0  0  0
   58.0506   32.2697   50.7916 H   0  0  0  0  0  0  0  0  0  0  0  0
   58.0886   32.3229   48.9784 H   0  0  0  0  0  0  0  0  0  0  0  0
   59.1219   30.2139   50.8681 H   0  0  0  0  0  0  0  0  0  0  0  0
   58.2388   30.0432   49.3132 H   0  0  0  0  0  0  0  0  0  0  0  0
   59.9813   30.4794   49.3132 H   0  0  0  0  0  0  0  0  0  0  0  0
   58.5857   34.3216   48.9439 H   0  0  0  0  0  0  0  0  0  0  0  0
   60.1555   35.0035   49.5828 H   0  0  0  0  0  0  0  0  0  0  0  0
   59.7799   34.7015   46.9850 H   0  0  0  0  0  0  0  0  0  0  0  0
   61.3731   34.3073   47.7854 H   0  0  0  0  0  0  0  0  0  0  0  0
   62.0310   29.7548   47.3785 H   0  0  0  0  0  0  0  0  0  0  0  0
   58.1634   27.9057   47.9175 H   0  0  0  0  0  0  0  0  0  0  0  0
   57.6178   28.7870   46.3837 H   0  0  0  0  0  0  0  0  0  0  0  0
   57.9100   23.6395   43.7527 H   0  0  0  0  0  0  0  0  0  0  0  0
   55.7178   22.4493   43.3510 H   0  0  0  0  0  0  0  0  0  0  0  0
   53.6404   23.2110   44.5315 H   0  0  0  0  0  0  0  0  0  0  0  0
   53.7442   25.1507   46.1499 H   0  0  0  0  0  0  0  0  0  0  0  0
   58.0022   29.3506   44.8636 H   0  0  0  0  0  0  0  0  0  0  0  0
   56.2150   28.7490   43.6076 H   0  0  0  0  0  0  0  0  0  0  0  0
   55.1903   29.6720   42.4567 H   0  0  0  0  0  0  0  0  0  0  0  0
   56.9718   29.9019   42.4567 H   0  0  0  0  0  0  0  0  0  0  0  0
   56.2356   33.2876   44.9729 H   0  0  0  0  0  0  0  0  0  0  0  0
   58.1273   34.1145   46.3494 H   0  0  0  0  0  0  0  0  0  0  0  0
  1  2  1  0
  2  3  1  0
  3  4  1  0
  4  5  1  0
  3  6  1  0
  6  7  1  0
  7  8  1  0
  8  9  1  0
  9 10  2  0
  9 11  1  0
 11 12  2  0
 12 13  1  0
 13 14  1  0
 14 15  1  0
 15 16  2  0
 16 17  1  0
 17 18  2  0
 18 19  1  0
 19 20  2  0
 20 21  1  0
 21 22  2  0
 22 23  1  0
 12 24  1  0
 24 25  2  0
 25 26  1  0
 26 27  1  0
 27 28  1  0
 26 29  2  0
 29 30  1  0
 30 31  2  0
 31  8  1  0
 23 15  1  0
 31 24  1  0
 22 17  1  0
  1 32  1  0
  1 33  1  0
  1 34  1  0
  2 35  1  0
  2 36  1  0
  3 37  1  0
  4 38  1  0
  4 39  1  0
  5 40  1  0
  5 41  1  0
  5 42  1  0
  6 43  1  0
  6 44  1  0
  7 45  1  0
  7 46  1  0
 11 47  1  0
 14 48  1  0
 14 49  1  0
 18 50  1  0
 19 51  1  0
 20 52  1  0
 21 53  1  0
 25 54  1  0
 28 55  1  0
 28 56  1  0
 28 57  1  0
 29 58  1  0
 30 59  1  0
M  CHG  2   3   1  23  -1
M  END
>  <UniqueID>  (56) 
53

>  <SMILES>  (56) 
CC[NH+](CC)CCn1c(=O)cc(SCc2nc3ccccc3[n-]2)c2cc(OC)ccc21

>  <Energy>  (56) 
112.76871018404239

>  <Genealogy>  (56) 
CC[NH+](CC)CCn1c(=O)cc(SCc2nc3ccccc3[n-]2)c2cc(OC)ccc21 (protonated)
CC[NH+](CC)CCn1c(=O)cc(SCc2nc3ccccc3[n-]2)c2cc(OC)ccc21 (3D coordinates assigned)
CC[NH+](CC)CCn1c(=O)cc(SCc2nc3ccccc3[n-]2)c2cc(OC)ccc21 (optimized conformer: 112.76871018404239 kcal/mol)

>  <smiles>  (56) 
CCN(CC)CCn1c(=O)cc(SCc2nc3ccccc3[nH]2)c2cc(OC)ccc21

>  <score_type>  (56) 
oracle

>  <origin>  (56) 
adg

>  <m_score__min__energy>  (56) 
-7.7999999999999998

>  <m_primary>  (56) 
energy

$$$$
56:0
     RDKit          3D

 45 47  0  0  0  0  0  0  0  0999 V2000
   61.0185   26.7668   46.5989 H   0  0  0  0  0  0  0  0  0  0  0  0
   60.1180   26.4900   46.0310 C   0  0  0  0  0  0  0  0  0  0  0  0
   59.8780   25.4297   45.8630 H   0  0  0  0  0  0  0  0  0  0  0  0
   59.3120   27.4460   45.5430 C   0  0  0  0  0  0  0  0  0  0  0  0
   58.1340   27.2550   44.8030 C   0  0  0  0  0  0  0  0  0  0  0  0
   57.4040   26.1470   44.5700 C   0  0  0  0  0  0  0  0  0  0  0  0
   57.1968   25.8915   43.5203 H   0  0  0  0  0  0  0  0  0  0  0  0
   56.8600   25.2490   45.6030 C   0  0  0  0  0  0  0  0  0  0  0  0
   57.5520   24.2610   46.2000 N   0  0  0  0  0  0  0  0  0  0  0  0
   56.7020   23.8190   47.1520 C   0  0  0  0  0  0  0  0  0  0  0  0
   56.9870   22.8690   47.9270 O   0  0  0  0  0  0  0  0  0  0  0  0
   55.5270   24.4820   47.2180 N   0  0  0  0  0  0  0  0  0  0  0  0
   55.6520   25.3930   46.2390 C   0  0  0  0  0  0  0  0  0  0  0  0
   54.6810   26.3410   45.9370 O   0  0  0  0  0  0  0  0  0  0  0  0
   57.7780   28.5000   44.3130 C   0  0  0  0  0  0  0  0  0  0  0  0
   56.9333   28.7237   43.6449 H   0  0  0  0  0  0  0  0  0  0  0  0
   58.6840   29.4060   44.8220 C   0  0  0  0  0  0  0  0  0  0  0  0
   58.6580   30.8780   44.5360 C   0  0  0  0  0  0  0  0  0  0  0  0
   58.6482   31.4356   45.4841 H   0  0  0  0  0  0  0  0  0  0  0  0
   59.5514   31.1549   43.9570 H   0  0  0  0  0  0  0  0  0  0  0  0
   57.7554   31.1232   43.9570 H   0  0  0  0  0  0  0  0  0  0  0  0
   59.6200   28.7720   45.5700 N   0  0  0  0  0  0  0  0  0  0  0  0
   60.7460   29.4140   46.2700 C   0  0  0  0  0  0  0  0  0  0  0  0
   61.6526   28.8088   46.1221 H   0  0  0  0  0  0  0  0  0  0  0  0
   60.8829   30.4243   45.8570 H   0  0  0  0  0  0  0  0  0  0  0  0
   60.4660   29.5370   47.7730 C   0  0  0  0  0  0  0  0  0  0  0  0
   59.7881   28.7263   48.0783 H   0  0  0  0  0  0  0  0  0  0  0  0
   61.4234   29.4683   48.3103 H   0  0  0  0  0  0  0  0  0  0  0  0
   59.8320   30.8540   48.1050 C   0  0  0  0  0  0  0  0  0  0  0  0
   58.6390   30.8830   48.5130 O   0  0  0  0  0  0  0  0  0  0  0  0
   60.5630   32.0730   47.9140 N   0  0  0  0  0  0  0  0  0  0  0  0
   61.5360   32.0260   47.5370 H   0  0  0  0  0  0  0  0  0  0  0  0
   59.9800   33.3870   48.1770 C   0  0  0  0  0  0  0  0  0  0  0  0
   59.3774   33.3389   49.0960 H   0  0  0  0  0  0  0  0  0  0  0  0
   60.7914   34.1203   48.2951 H   0  0  0  0  0  0  0  0  0  0  0  0
   59.1030   33.8100   47.0310 C   0  0  0  0  0  0  0  0  0  0  0  0
   59.5920   34.6520   46.0200 C   0  0  0  0  0  0  0  0  0  0  0  0
   60.6276   35.0201   46.0663 H   0  0  0  0  0  0  0  0  0  0  0  0
   58.7900   35.0140   44.9840 N   0  0  0  0  0  0  0  0  0  0  0  0
   57.5030   34.5820   44.8900 C   0  0  0  0  0  0  0  0  0  0  0  0
   56.8793   34.8929   44.0389 H   0  0  0  0  0  0  0  0  0  0  0  0
   56.9740   33.7440   45.8740 C   0  0  0  0  0  0  0  0  0  0  0  0
   55.9344   33.3914   45.8032 H   0  0  0  0  0  0  0  0  0  0  0  0
   57.7780   33.3580   46.9490 C   0  0  0  0  0  0  0  0  0  0  0  0
   57.3719   32.6996   47.7311 H   0  0  0  0  0  0  0  0  0  0  0  0
  1  2  1  0
  2  3  1  0
  2  4  2  0
  4  5  1  0
  5  6  2  0
  6  7  1  0
  6  8  1  0
  8  9  1  0
  9 10  1  0
 10 11  2  0
 10 12  1  0
 12 13  1  0
 13 14  1  0
  5 15  1  0
 15 16  1  0
 15 17  2  0
 17 18  1  0
 18 19  1  0
 18 20  1  0
 18 21  1  0
 17 22  1  0
 22 23  1  0
 23 24  1  0
 23 25  1  0
 23 26  1  0
 26 27  1  0
 26 28  1  0
 26 29  1  0
 29 30  2  0
 29 31  1  0
 31 32  1  0
 31 33  1  0
 33 34  1  0
 33 35  1  0
 33 36  1  0
 36 37  2  0
 37 38  1  0
 37 39  1  0
 39 40  2  0
 40 41  1  0
 40 42  1  0
 42 43  1  0
 42 44  2  0
 44 45  1  0
 22  4  1  0
 44 36  1  0
 13  8  2  0
M  CHG  3   9  -1  12  -1  14  -1
M  END
>  <UniqueID>  (57) 
54

>  <SMILES>  (57) 
C=c1/c(=C\c2[n-]c(=O)[n-]c2[O-])cc(C)n1CCC(=O)NCc1cccnc1

>  <Energy>  (57) 
109.36061316506022

>  <Genealogy>  (57) 
C=c1c(=Cc2[n-]c(=O)[n-]c2[O-])cc(C)n1CCC(=O)NCc1cccnc1 (protonated)
C=c1/c(=C\c2[n-]c(=O)[n-]c2[O-])cc(C)n1CCC(=O)NCc1cccnc1 (cis-trans isomerization)
C=c1/c(=C\c2[n-]c(=O)[n-]c2[O-])cc(C)n1CCC(=O)NCc1cccnc1 (3D coordinates assigned)
C=c1/c(=C\c2[n-]c(=O)[n-]c2[O-])cc(C)n1CCC(=O)NCc1cccnc1 (optimized conformer: 109.36061316506022 kcal/mol)

>  <smiles>  (57) 
C=c1c(=Cc2[nH]c(=O)[nH]c2O)cc(C)n1CCC(=O)NCc1cccnc1

>  <score_type>  (57) 
oracle

>  <origin>  (57) 
adg

>  <m_score__min__energy>  (57) 
-15.83

>  <m_primary>  (57) 
energy

$$$$
57:0
     RDKit          3D

 61 64  0  0  0  0  0  0  0  0999 V2000
   54.2910   20.5210   48.4650 C   0  0  0  0  0  0  0  0  0  0  0  0
   54.7810   21.4890   47.4810 N   0  0  0  0  0  0  0  0  0  0  0  0
   53.9260   21.8900   46.3570 C   0  0  0  0  0  0  0  0  0  0  0  0
   56.1540   21.9270   47.5490 C   0  0  0  0  0  0  0  0  0  0  0  0
   57.0110   21.2010   48.1230 O   0  0  0  0  0  0  0  0  0  0  0  0
   56.5930   23.2060   46.9540 C   0  0  0  0  0  0  0  0  0  0  0  0
   57.6770   23.2550   46.0660 C   0  0  0  0  0  0  0  0  0  0  0  0
   58.0670   24.4710   45.5020 C   0  0  0  0  0  0  0  0  0  0  0  0
   57.3620   25.6410   45.8240 C   0  0  0  0  0  0  0  0  0  0  0  0
   57.7410   26.9470   45.2410 C   0  0  0  0  0  0  0  0  0  0  0  0
   58.8370   27.0630   44.6260 O   0  0  0  0  0  0  0  0  0  0  0  0
   56.8830   28.0900   45.4020 N   0  0  0  0  0  0  0  0  0  0  0  0
   56.9990   29.2960   44.6260 C   0  0  0  0  0  0  0  0  0  0  0  0
   56.5850   29.3470   43.2840 C   0  0  0  0  0  0  0  0  0  0  0  0
   56.6890   30.5370   42.5600 C   0  0  0  0  0  0  0  0  0  0  0  0
   57.1860   31.6910   43.1700 C   0  0  0  0  0  0  0  0  0  0  0  0
   57.5700   31.6680   44.5200 C   0  0  0  0  0  0  0  0  0  0  0  0
   58.0960   32.8850   45.1730 C   0  0  0  0  0  0  0  0  0  0  0  0
   57.7940   34.0150   44.6990 O   0  0  0  0  0  0  0  0  0  0  0  0
   58.9620   32.8060   46.3220 N   0  0  0  0  0  0  0  0  0  0  0  0
   60.0150   31.7840   46.3820 C   0  0  0  0  0  0  0  0  0  0  0  0
   61.1110   32.1840   47.3770 C   0  0  0  0  0  0  0  0  0  0  0  0
   61.4680   33.6030   47.1790 N   0  0  0  0  0  0  0  0  0  0  0  0
   62.7430   33.9260   47.8740 C   0  0  0  0  0  0  0  0  0  0  0  0
   63.9530   33.0850   47.4600 C   0  0  0  0  0  0  0  0  0  0  0  0
   64.0640   32.5580   48.8870 C   0  0  0  0  0  0  0  0  0  0  0  0
   62.8620   33.4000   49.3050 C   0  0  0  0  0  0  0  0  0  0  0  0
   60.3320   34.5440   47.4060 C   0  0  0  0  0  0  0  0  0  0  0  0
   58.9530   33.8670   47.3350 C   0  0  0  0  0  0  0  0  0  0  0  0
   57.4810   30.4640   45.2390 C   0  0  0  0  0  0  0  0  0  0  0  0
   56.2990   25.5650   46.6710 N   0  0  0  0  0  0  0  0  0  0  0  0
   55.9000   24.3920   47.2310 C   0  0  0  0  0  0  0  0  0  0  0  0
   54.4830   20.9003   49.4795 H   0  0  0  0  0  0  0  0  0  0  0  0
   53.2097   20.3735   48.3272 H   0  0  0  0  0  0  0  0  0  0  0  0
   54.8123   19.5622   48.3272 H   0  0  0  0  0  0  0  0  0  0  0  0
   52.9936   22.3273   46.7434 H   0  0  0  0  0  0  0  0  0  0  0  0
   54.4533   22.6347   45.7427 H   0  0  0  0  0  0  0  0  0  0  0  0
   53.6905   21.0084   45.7427 H   0  0  0  0  0  0  0  0  0  0  0  0
   58.2214   22.3332   45.8132 H   0  0  0  0  0  0  0  0  0  0  0  0
   58.9210   24.5118   44.8099 H   0  0  0  0  0  0  0  0  0  0  0  0
   56.1890   28.0780   46.1830 H   0  0  0  0  0  0  0  0  0  0  0  0
   56.1774   28.4462   42.8018 H   0  0  0  0  0  0  0  0  0  0  0  0
   56.3782   30.5654   41.5052 H   0  0  0  0  0  0  0  0  0  0  0  0
   57.2769   32.6214   42.5903 H   0  0  0  0  0  0  0  0  0  0  0  0
   59.5717   30.8287   46.6996 H   0  0  0  0  0  0  0  0  0  0  0  0
   60.4661   31.6857   45.3836 H   0  0  0  0  0  0  0  0  0  0  0  0
   60.7436   32.0390   48.4037 H   0  0  0  0  0  0  0  0  0  0  0  0
   62.0001   31.5578   47.2114 H   0  0  0  0  0  0  0  0  0  0  0  0
   62.7320   35.0089   47.6809 H   0  0  0  0  0  0  0  0  0  0  0  0
   63.7288   32.3117   46.7105 H   0  0  0  0  0  0  0  0  0  0  0  0
   64.8179   33.5534   46.9676 H   0  0  0  0  0  0  0  0  0  0  0  0
   63.9033   31.4735   48.9770 H   0  0  0  0  0  0  0  0  0  0  0  0
   65.0144   32.6416   49.4345 H   0  0  0  0  0  0  0  0  0  0  0  0
   61.9957   32.8119   49.6420 H   0  0  0  0  0  0  0  0  0  0  0  0
   62.9349   34.0969   50.1529 H   0  0  0  0  0  0  0  0  0  0  0  0
   60.4475   34.9958   48.4023 H   0  0  0  0  0  0  0  0  0  0  0  0
   60.3667   35.2940   46.6021 H   0  0  0  0  0  0  0  0  0  0  0  0
   58.7110   33.4313   48.3156 H   0  0  0  0  0  0  0  0  0  0  0  0
   58.1975   34.6184   47.0616 H   0  0  0  0  0  0  0  0  0  0  0  0
   57.7923   30.4360   46.2937 H   0  0  0  0  0  0  0  0  0  0  0  0
   55.0300   24.3740   47.9039 H   0  0  0  0  0  0  0  0  0  0  0  0
  1  2  1  0
  2  3  1  0
  2  4  1  0
  4  5  2  0
  4  6  1  0
  6  7  2  0
  7  8  1  0
  8  9  2  0
  9 10  1  0
 10 11  2  0
 10 12  1  0
 12 13  1  0
 13 14  2  0
 14 15  1  0
 15 16  2  0
 16 17  1  0
 17 18  1  0
 18 19  2  0
 18 20  1  0
 20 21  1  0
 21 22  1  0
 22 23  1  0
 23 24  1  0
 24 25  1  0
 25 26  1  0
 26 27  1  0
 23 28  1  0
 28 29  1  0
 17 30  2  0
  9 31  1  0
 31 32  2  0
 32  6  1  0
 30 13  1  0
 29 20  1  0
 27 24  1  0
  1 33  1  0
  1 34  1  0
  1 35  1  0
  3 36  1  0
  3 37  1  0
  3 38  1  0
  7 39  1  0
  8 40  1  0
 12 41  1  0
 14 42  1  0
 15 43  1  0
 16 44  1  0
 21 45  1  0
 21 46  1  0
 22 47  1  0
 22 48  1  0
 24 49  1  0
 25 50  1  0
 25 51  1  0
 26 52  1  0
 26 53  1  0
 27 54  1  0
 27 55  1  0
 28 56  1  0
 28 57  1  0
 29 58  1  0
 29 59  1  0
 30 60  1  0
 32 61  1  0
M  END
>  <UniqueID>  (58) 
55

>  <SMILES>  (58) 
CN(C)C(=O)c1ccc(C(=O)Nc2cccc(C(=O)N3CCN(C4CCC4)CC3)c2)nc1

>  <Energy>  (58) 
148.0852869225441

>  <Genealogy>  (58) 
CN(C)C(=O)c1ccc(C(=O)Nc2cccc(C(=O)N3CCN(C4CCC4)CC3)c2)nc1 (3D coordinates assigned)
CN(C)C(=O)c1ccc(C(=O)Nc2cccc(C(=O)N3CCN(C4CCC4)CC3)c2)nc1 (nonaromatic ring conformer: 148.0852869225441 kcal/mol)

>  <smiles>  (58) 
CN(C)C(=O)c1ccc(C(=O)Nc2cccc(C(=O)N3CCN(C4CCC4)CC3)c2)nc1

>  <score_type>  (58) 
oracle

>  <origin>  (58) 
adg

>  <m_score__min__energy>  (58) 
-10.050000000000001

>  <m_primary>  (58) 
energy

$$$$
58:0
     RDKit          3D

 38 39  0  0  0  0  0  0  0  0999 V2000
   60.2150   30.2770   46.5780 C   0  0  0  0  0  0  0  0  0  0  0  0
   58.8400   30.2530   47.2350 C   0  0  0  0  0  0  0  0  0  0  0  0
   58.3540   31.5790   47.4420 O   0  0  0  0  0  0  0  0  0  0  0  0
   58.6270   32.6940   46.6290 C   0  0  0  0  0  0  0  0  0  0  0  0
   59.7190   33.5510   46.8760 C   0  0  0  0  0  0  0  0  0  0  0  0
   59.9210   34.6860   46.0850 C   0  0  0  0  0  0  0  0  0  0  0  0
   59.0390   34.9820   45.0470 C   0  0  0  0  0  0  0  0  0  0  0  0
   57.9620   34.1340   44.7830 C   0  0  0  0  0  0  0  0  0  0  0  0
   57.7660   32.9750   45.5440 C   0  0  0  0  0  0  0  0  0  0  0  0
   56.6450   32.1360   45.2340 N   0  0  0  0  0  0  0  0  0  0  0  0
   56.6960   30.9710   44.4060 C   0  0  0  0  0  0  0  0  0  0  0  0
   57.1380   31.0750   43.2330 O   0  0  0  0  0  0  0  0  0  0  0  0
   56.2950   29.6950   44.9280 N   0  0  0  0  0  0  0  0  0  0  0  0
   57.0080   28.4280   44.7530 C   0  0  1  0  0  0  0  0  0  0  0  0
   58.3890   28.6670   44.1290 C   0  0  0  0  0  0  0  0  0  0  0  0
   57.0870   27.6600   46.0870 C   0  0  0  0  0  0  0  0  0  0  0  0
   56.2980   26.3860   46.0380 C   0  0  0  0  0  0  0  0  0  0  0  0
   56.8160   25.1120   45.9460 C   0  0  0  0  0  0  0  0  0  0  0  0
   55.7030   24.3030   45.8820 C   0  0  0  0  0  0  0  0  0  0  0  0
   54.5920   25.0630   45.9260 N   0  0  0  0  0  0  0  0  0  0  0  0
   54.9520   26.3340   46.0160 N   0  0  0  0  0  0  0  0  0  0  0  0
   60.9928   30.2906   47.3557 H   0  0  0  0  0  0  0  0  0  0  0  0
   60.3380   29.3809   45.9520 H   0  0  0  0  0  0  0  0  0  0  0  0
   60.3066   31.1769   45.9520 H   0  0  0  0  0  0  0  0  0  0  0  0
   58.1390   29.7094   46.5846 H   0  0  0  0  0  0  0  0  0  0  0  0
   58.9241   29.7520   48.2106 H   0  0  0  0  0  0  0  0  0  0  0  0
   60.4164   33.3252   47.6962 H   0  0  0  0  0  0  0  0  0  0  0  0
   60.7779   35.3469   46.2822 H   0  0  0  0  0  0  0  0  0  0  0  0
   59.1916   35.8838   44.4359 H   0  0  0  0  0  0  0  0  0  0  0  0
   57.2617   34.3782   43.9706 H   0  0  0  0  0  0  0  0  0  0  0  0
   56.4449   27.7943   44.0520 H   0  0  0  0  0  0  0  0  0  0  0  0
   59.1347   28.7961   44.9273 H   0  0  0  0  0  0  0  0  0  0  0  0
   58.6644   27.8032   43.5061 H   0  0  0  0  0  0  0  0  0  0  0  0
   58.3581   29.5731   43.5061 H   0  0  0  0  0  0  0  0  0  0  0  0
   58.1394   27.4202   46.2991 H   0  0  0  0  0  0  0  0  0  0  0  0
   56.6625   28.2974   46.8766 H   0  0  0  0  0  0  0  0  0  0  0  0
   57.8738   24.8109   45.9279 H   0  0  0  0  0  0  0  0  0  0  0  0
   55.7191   23.2057   45.8066 H   0  0  0  0  0  0  0  0  0  0  0  0
  1  2  1  0
  2  3  1  0
  3  4  1  0
  4  5  2  0
  5  6  1  0
  6  7  2  0
  7  8  1  0
  8  9  2  0
  9 10  1  0
 10 11  1  0
 11 12  2  0
 11 13  1  0
 13 14  1  0
 14 15  1  0
 14 16  1  0
 16 17  1  0
 17 18  1  0
 18 19  2  0
 19 20  1  0
 20 21  1  0
  9  4  1  0
 21 17  2  0
  1 22  1  0
  1 23  1  0
  1 24  1  0
  2 25  1  0
  2 26  1  0
  5 27  1  0
  6 28  1  0
  7 29  1  0
  8 30  1  0
 14 31  1  6
 15 32  1  0
 15 33  1  0
 15 34  1  0
 16 35  1  0
 16 36  1  0
 18 37  1  0
 19 38  1  0
M  CHG  3  10  -1  13  -1  20  -1
M  END
>  <UniqueID>  (59) 
56

>  <SMILES>  (59) 
CCOc1ccccc1[N-]C(=O)[N-][C@@H](C)Cc1cc[n-]n1

>  <Energy>  (59) 
64.57296242486665

>  <Genealogy>  (59) 
CCOc1ccccc1[N-]C(=O)[N-]C(C)Cc1cc[n-]n1 (protonated)
CCOc1ccccc1[N-]C(=O)[N-][C@@H](C)Cc1cc[n-]n1 (chirality)
CCOc1ccccc1[N-]C(=O)[N-][C@@H](C)Cc1cc[n-]n1 (3D coordinates assigned)
CCOc1ccccc1[N-]C(=O)[N-][C@@H](C)Cc1cc[n-]n1 (optimized conformer: 64.57296242486665 kcal/mol)

>  <smiles>  (59) 
CCOc1ccccc1NC(=O)NC(C)Cc1cc[nH]n1

>  <score_type>  (59) 
oracle

>  <origin>  (59) 
adg

>  <m_score__min__energy>  (59) 
-12.51

>  <m_primary>  (59) 
energy

$$$$
59:0
     RDKit          3D

 77 81  0  0  0  0  0  0  0  0999 V2000
   55.2501   30.1571   44.5294 H   0  0  0  0  0  0  0  0  0  0  0  0
   56.3410   30.0200   44.4970 C   0  0  0  0  0  0  0  0  0  0  0  0
   56.8820   28.7320   44.5220 C   0  0  0  0  0  0  0  0  0  0  0  0
   56.2145   27.8596   44.5803 H   0  0  0  0  0  0  0  0  0  0  0  0
   58.2770   28.5440   44.4730 C   0  0  0  0  0  0  0  0  0  0  0  0
   58.8940   27.1620   44.5400 C   0  0  0  0  0  0  0  0  0  0  0  0
   59.8541   27.2274   45.0729 H   0  0  0  0  0  0  0  0  0  0  0  0
   59.0337   26.8026   43.5098 H   0  0  0  0  0  0  0  0  0  0  0  0
   58.0180   26.1940   45.2480 N   0  0  0  0  0  0  0  0  0  0  0  0
   57.2390   25.3730   44.4510 C   0  0  0  0  0  0  0  0  0  0  0  0
   57.3730   25.4220   43.1940 O   0  0  0  0  0  0  0  0  0  0  0  0
   56.3090   24.5170   44.9940 N   0  0  0  0  0  0  0  0  0  0  0  0
   55.5110   23.6170   44.1130 C   0  0  0  0  0  0  0  0  0  0  0  0
   55.6524   23.9646   43.0790 H   0  0  0  0  0  0  0  0  0  0  0  0
   56.0160   22.1680   44.1650 C   0  0  0  0  0  0  0  0  0  0  0  0
   56.1250   21.8551   45.2139 H   0  0  0  0  0  0  0  0  0  0  0  0
   55.2943   21.5098   43.6592 H   0  0  0  0  0  0  0  0  0  0  0  0
   56.9905   22.1009   43.6592 H   0  0  0  0  0  0  0  0  0  0  0  0
   54.0120   23.7120   44.4240 C   0  0  0  0  0  0  0  0  0  0  0  0
   53.8635   23.7214   45.5139 H   0  0  0  0  0  0  0  0  0  0  0  0
   53.6055   24.6377   43.9906 H   0  0  0  0  0  0  0  0  0  0  0  0
   53.4919   22.8450   43.9906 H   0  0  0  0  0  0  0  0  0  0  0  0
   56.1130   24.5420   46.3470 C   0  0  0  0  0  0  0  0  0  0  0  0
   55.2350   23.8250   46.8950 O   0  0  0  0  0  0  0  0  0  0  0  0
   56.8640   25.3440   47.1240 N   0  0  0  0  0  0  0  0  0  0  0  0
   57.8260   26.1480   46.6240 C   0  0  0  0  0  0  0  0  0  0  0  0
   58.4950   26.8430   47.5090 N   0  0  0  0  0  0  0  0  0  0  0  0
   59.0190   28.1720   47.5090 C   0  0  0  0  0  0  0  0  0  0  0  0
   58.1560   29.2610   47.6800 C   0  0  0  0  0  0  0  0  0  0  0  0
   57.0846   29.0883   47.8598 H   0  0  0  0  0  0  0  0  0  0  0  0
   58.6510   30.5670   47.6230 C   0  0  0  0  0  0  0  0  0  0  0  0
   57.9683   31.4166   47.7713 H   0  0  0  0  0  0  0  0  0  0  0  0
   60.0180   30.8030   47.3770 C   0  0  0  0  0  0  0  0  0  0  0  0
   60.5680   32.1840   47.2980 C   0  0  0  0  0  0  0  0  0  0  0  0
   59.9870   33.0220   46.5500 O   0  0  0  0  0  0  0  0  0  0  0  0
   61.7050   32.6010   48.0990 N   0  0  2  0  0  0  0  0  0  0  0  0
   61.5340   33.5790   48.4280 H   0  0  0  0  0  0  0  0  0  0  0  0
   62.9280   32.5820   47.2680 C   0  0  0  0  0  0  0  0  0  0  0  0
   63.1542   31.5411   46.9936 H   0  0  0  0  0  0  0  0  0  0  0  0
   62.7411   33.1983   46.3763 H   0  0  0  0  0  0  0  0  0  0  0  0
   64.1470   33.1780   48.0120 C   0  0  0  0  0  0  0  0  0  0  0  0
   65.0477   32.6178   47.7207 H   0  0  0  0  0  0  0  0  0  0  0  0
   64.2258   34.2390   47.7327 H   0  0  0  0  0  0  0  0  0  0  0  0
   63.9910   33.1040   49.5460 C   0  0  2  0  0  0  0  0  0  0  0  0
   63.3456   33.9480   49.8309 H   0  0  0  0  0  0  0  0  0  0  0  0
   65.2510   33.4640   50.4040 C   0  0  0  0  0  0  0  0  0  0  0  0
   65.4874   34.5175   50.1936 H   0  0  0  0  0  0  0  0  0  0  0  0
   64.9397   33.2087   51.4277 H   0  0  0  0  0  0  0  0  0  0  0  0
   66.5120   32.7000   50.2320 N   0  0  0  0  0  0  0  0  0  0  0  0
   67.7730   33.3960   50.4780 C   0  0  0  0  0  0  0  0  0  0  0  0
   68.4361   33.2964   49.6060 H   0  0  0  0  0  0  0  0  0  0  0  0
   67.6026   34.4689   50.6509 H   0  0  0  0  0  0  0  0  0  0  0  0
   68.4080   32.7450   51.6930 C   0  0  0  0  0  0  0  0  0  0  0  0
   69.5032   32.7230   51.5930 H   0  0  0  0  0  0  0  0  0  0  0  0
   68.1899   33.2947   52.6205 H   0  0  0  0  0  0  0  0  0  0  0  0
   67.8440   31.3340   51.7160 C   0  0  0  0  0  0  0  0  0  0  0  0
   68.5677   30.6251   51.2874 H   0  0  0  0  0  0  0  0  0  0  0  0
   67.6317   30.9994   52.7422 H   0  0  0  0  0  0  0  0  0  0  0  0
   66.5750   31.3790   50.8650 C   0  0  0  0  0  0  0  0  0  0  0  0
   66.6124   30.5952   50.0942 H   0  0  0  0  0  0  0  0  0  0  0  0
   65.6854   31.2068   51.4887 H   0  0  0  0  0  0  0  0  0  0  0  0
   63.2640   31.8080   49.9380 C   0  0  0  0  0  0  0  0  0  0  0  0
   63.8479   30.9468   49.5810 H   0  0  0  0  0  0  0  0  0  0  0  0
   63.1646   31.7816   51.0332 H   0  0  0  0  0  0  0  0  0  0  0  0
   61.8470   31.7510   49.3150 C   0  0  0  0  0  0  0  0  0  0  0  0
   61.6276   30.7087   49.0404 H   0  0  0  0  0  0  0  0  0  0  0  0
   61.1436   32.1372   50.0674 H   0  0  0  0  0  0  0  0  0  0  0  0
   60.8670   29.7010   47.1580 C   0  0  0  0  0  0  0  0  0  0  0  0
   61.9327   29.8685   46.9432 H   0  0  0  0  0  0  0  0  0  0  0  0
   60.3680   28.3960   47.2110 C   0  0  0  0  0  0  0  0  0  0  0  0
   61.0366   27.5441   47.0182 H   0  0  0  0  0  0  0  0  0  0  0  0
   59.1130   29.6740   44.4260 C   0  0  0  0  0  0  0  0  0  0  0  0
   60.2052   29.5443   44.4111 H   0  0  0  0  0  0  0  0  0  0  0  0
   58.5670   30.9610   44.3980 C   0  0  0  0  0  0  0  0  0  0  0  0
   59.2293   31.8380   44.3499 H   0  0  0  0  0  0  0  0  0  0  0  0
   57.1810   31.1340   44.4310 C   0  0  0  0  0  0  0  0  0  0  0  0
   56.6530   32.3820   44.4050 F   0  0  0  0  0  0  0  0  0  0  0  0
  1  2  1  0
  2  3  2  0
  3  4  1  0
  3  5  1  0
  5  6  1  0
  6  7  1  0
  6  8  1  0
  6  9  1  0
  9 10  1  0
 10 11  2  0
 10 12  1  0
 12 13  1  0
 13 14  1  0
 13 15  1  0
 15 16  1  0
 15 17  1  0
 15 18  1  0
 13 19  1  0
 19 20  1  0
 19 21  1  0
 19 22  1  0
 12 23  1  0
 23 24  2  0
 23 25  1  0
 25 26  1  0
 26 27  2  0
 27 28  1  0
 28 29  2  0
 29 30  1  0
 29 31  1  0
 31 32  1  0
 31 33  2  0
 33 34  1  0
 34 35  2  0
 34 36  1  0
 36 37  1  6
 36 38  1  0
 38 39  1  0
 38 40  1  0
 38 41  1  0
 41 42  1  0
 41 43  1  0
 41 44  1  0
 44 45  1  6
 44 46  1  0
 46 47  1  0
 46 48  1  0
 46 49  1  0
 49 50  1  0
 50 51  1  0
 50 52  1  0
 50 53  1  0
 53 54  1  0
 53 55  1  0
 53 56  1  0
 56 57  1  0
 56 58  1  0
 56 59  1  0
 59 60  1  0
 59 61  1  0
 44 62  1  0
 62 63  1  0
 62 64  1  0
 62 65  1  0
 65 66  1  0
 65 67  1  0
 33 68  1  0
 68 69  1  0
 68 70  2  0
 70 71  1  0
  5 72  2  0
 72 73  1  0
 72 74  1  0
 74 75  1  0
 74 76  2  0
 76 77  1  0
 76  2  1  0
 26  9  1  0
 70 28  1  0
 65 36  1  0
 59 49  1  0
M  CHG  2  25  -1  36   1
M  END
>  <UniqueID>  (60) 
57

>  <SMILES>  (60) 
CC(C)n1c(=O)[n-]/c(=N/c2ccc(C(=O)[NH+]3CCC(CN4CCCC4)CC3)cc2)n(Cc2ccc(F)cc2)c1=O

>  <Energy>  (60) 
141.4602938365751

>  <Genealogy>  (60) 
CC(C)n1c(=O)[n-]c(=Nc2ccc(C(=O)[NH+]3CCC(CN4CCCC4)CC3)cc2)n(Cc2ccc(F)cc2)c1=O (protonated)
CC(C)n1c(=O)[n-]/c(=N/c2ccc(C(=O)[NH+]3CCC(CN4CCCC4)CC3)cc2)n(Cc2ccc(F)cc2)c1=O (cis-trans isomerization)
CC(C)n1c(=O)[n-]/c(=N/c2ccc(C(=O)[NH+]3CCC(CN4CCCC4)CC3)cc2)n(Cc2ccc(F)cc2)c1=O (3D coordinates assigned)
CC(C)n1c(=O)[n-]/c(=N/c2ccc(C(=O)[NH+]3CCC(CN4CCCC4)CC3)cc2)n(Cc2ccc(F)cc2)c1=O (nonaromatic ring conformer: 141.4602938365751 kcal/mol)

>  <smiles>  (60) 
CC(C)n1c(=O)[nH]c(=Nc2ccc(C(=O)N3CCC(CN4CCCC4)CC3)cc2)n(Cc2ccc(F)cc2)c1=O

>  <score_type>  (60) 
oracle

>  <origin>  (60) 
adg

>  <m_score__min__energy>  (60) 
-9.9900000000000002

>  <m_primary>  (60) 
energy

$$$$
60:0
     RDKit          3D

 39 41  0  0  0  0  0  0  0  0999 V2000
   56.3375   28.9172   43.3107 H   0  0  0  0  0  0  0  0  0  0  0  0
   56.7880   29.7590   43.8570 C   0  0  0  0  0  0  0  0  0  0  0  0
   56.5538   30.7931   43.5641 H   0  0  0  0  0  0  0  0  0  0  0  0
   57.6210   29.5250   44.8780 C   0  0  0  0  0  0  0  0  0  0  0  0
   57.9990   28.2810   45.4000 C   0  0  0  0  0  0  0  0  0  0  0  0
   57.6130   27.0770   44.9230 C   0  0  0  0  0  0  0  0  0  0  0  0
   57.6787   26.9209   43.8361 H   0  0  0  0  0  0  0  0  0  0  0  0
   57.1120   25.9570   45.7360 C   0  0  0  0  0  0  0  0  0  0  0  0
   57.8790   24.9770   46.2470 N   0  0  0  0  0  0  0  0  0  0  0  0
   57.0190   24.2810   47.0220 C   0  0  0  0  0  0  0  0  0  0  0  0
   57.3660   23.2580   47.6680 O   0  0  0  0  0  0  0  0  0  0  0  0
   55.7630   24.7730   47.0590 N   0  0  0  0  0  0  0  0  0  0  0  0
   55.8440   25.8430   46.2520 C   0  0  0  0  0  0  0  0  0  0  0  0
   54.7820   26.7000   45.9940 O   0  0  0  0  0  0  0  0  0  0  0  0
   58.8730   28.5690   46.4600 C   0  0  0  0  0  0  0  0  0  0  0  0
   59.7420   27.6240   47.2420 C   0  0  0  0  0  0  0  0  0  0  0  0
   59.5888   27.7906   48.3185 H   0  0  0  0  0  0  0  0  0  0  0  0
   59.4754   26.5870   46.9899 H   0  0  0  0  0  0  0  0  0  0  0  0
   60.7977   27.8029   46.9899 H   0  0  0  0  0  0  0  0  0  0  0  0
   58.9410   29.9540   46.5400 C   0  0  0  0  0  0  0  0  0  0  0  0
   59.7100   30.7420   47.5160 C   0  0  0  0  0  0  0  0  0  0  0  0
   60.9410   30.9180   47.3210 O   0  0  0  0  0  0  0  0  0  0  0  0
   59.0860   31.3680   48.6460 N   0  0  0  0  0  0  0  0  0  0  0  0
   58.7940   32.7940   48.7720 C   0  0  0  0  0  0  0  0  0  0  0  0
   57.8584   32.9205   49.3366 H   0  0  0  0  0  0  0  0  0  0  0  0
   59.6313   33.2767   49.2973 H   0  0  0  0  0  0  0  0  0  0  0  0
   58.6430   33.4390   47.4190 C   0  0  0  0  0  0  0  0  0  0  0  0
   57.4210   33.3690   46.7270 C   0  0  0  0  0  0  0  0  0  0  0  0
   56.5575   32.8675   47.1884 H   0  0  0  0  0  0  0  0  0  0  0  0
   57.3000   33.9350   45.4540 C   0  0  0  0  0  0  0  0  0  0  0  0
   56.3449   33.8691   44.9123 H   0  0  0  0  0  0  0  0  0  0  0  0
   58.3900   34.5840   44.8690 C   0  0  0  0  0  0  0  0  0  0  0  0
   58.2931   35.0280   43.8673 H   0  0  0  0  0  0  0  0  0  0  0  0
   59.6040   34.6690   45.5570 C   0  0  0  0  0  0  0  0  0  0  0  0
   60.4606   35.1834   45.0969 H   0  0  0  0  0  0  0  0  0  0  0  0
   59.7320   34.1020   46.8280 C   0  0  0  0  0  0  0  0  0  0  0  0
   60.6879   34.1749   47.3673 H   0  0  0  0  0  0  0  0  0  0  0  0
   58.1970   30.5220   45.5770 N   0  0  0  0  0  0  0  0  0  0  0  0
   58.0760   31.5480   45.4170 H   0  0  0  0  0  0  0  0  0  0  0  0
  1  2  1  0
  2  3  1  0
  2  4  2  0
  4  5  1  0
  5  6  2  0
  6  7  1  0
  6  8  1  0
  8  9  1  0
  9 10  1  0
 10 11  2  0
 10 12  1  0
 12 13  1  0
 13 14  1  0
  5 15  1  0
 15 16  1  0
 16 17  1  0
 16 18  1  0
 16 19  1  0
 15 20  2  0
 20 21  1  0
 21 22  2  0
 21 23  1  0
 23 24  1  0
 24 25  1  0
 24 26  1  0
 24 27  1  0
 27 28  2  0
 28 29  1  0
 28 30  1  0
 30 31  1  0
 30 32  2  0
 32 33  1  0
 32 34  1  0
 34 35  1  0
 34 36  2  0
 36 37  1  0
 20 38  1  0
 38 39  1  0
 38  4  1  0
 13  8  2  0
 36 27  1  0
M  CHG  4   9  -1  12  -1  14  -1  23  -1
M  END
>  <UniqueID>  (61) 
58

>  <SMILES>  (61) 
C=c1[nH]c(C(=O)[N-]Cc2ccccc2)c(C)/c1=C\c1[n-]c(=O)[n-]c1[O-]

>  <Energy>  (61) 
109.5887132597444

>  <Genealogy>  (61) 
C=c1[nH]c(C(=O)[N-]Cc2ccccc2)c(C)c1=Cc1[n-]c(=O)[n-]c1[O-] (protonated)
C=c1[nH]c(C(=O)[N-]Cc2ccccc2)c(C)/c1=C\c1[n-]c(=O)[n-]c1[O-] (cis-trans isomerization)
C=c1[nH]c(C(=O)[N-]Cc2ccccc2)c(C)/c1=C\c1[n-]c(=O)[n-]c1[O-] (3D coordinates assigned)
C=c1[nH]c(C(=O)[N-]Cc2ccccc2)c(C)/c1=C\c1[n-]c(=O)[n-]c1[O-] (optimized conformer: 109.5887132597444 kcal/mol)

>  <smiles>  (61) 
C=c1[nH]c(C(=O)NCc2ccccc2)c(C)c1=Cc1[nH]c(=O)[nH]c1O

>  <score_type>  (61) 
oracle

>  <origin>  (61) 
adg

>  <m_score__min__energy>  (61) 
-16.960000000000001

>  <m_primary>  (61) 
energy

$$$$
61:0
     RDKit          3D

 36 38  0  0  0  0  0  0  0  0999 V2000
   57.1110   23.8430   48.0670 C   0  0  0  0  0  0  0  0  0  0  0  0
   57.6740   24.8180   47.3420 C   0  0  0  0  0  0  0  0  0  0  0  0
   58.5400   25.7000   47.8760 N   0  0  0  0  0  0  0  0  0  0  0  0
   58.9190   26.5340   46.8920 C   0  0  0  0  0  0  0  0  0  0  0  0
   59.8010   27.7230   47.1280 C   0  0  0  0  0  0  0  0  0  0  0  0
   58.2890   26.2000   45.6980 C   0  0  0  0  0  0  0  0  0  0  0  0
   58.2450   27.0800   44.5090 C   0  0  0  0  0  0  0  0  0  0  0  0
   59.2280   27.1130   43.7220 O   0  0  0  0  0  0  0  0  0  0  0  0
   57.1530   27.9920   44.3380 N   0  0  0  0  0  0  0  0  0  0  0  0
   57.2050   29.4260   44.3890 C   0  0  0  0  0  0  0  0  0  0  0  0
   58.4280   30.0550   44.1270 C   0  0  0  0  0  0  0  0  0  0  0  0
   58.5320   31.4450   44.1770 C   0  0  0  0  0  0  0  0  0  0  0  0
   57.4070   32.2010   44.5120 C   0  0  0  0  0  0  0  0  0  0  0  0
   57.4800   33.4560   44.5570 O   0  0  0  0  0  0  0  0  0  0  0  0
   56.2330   31.5800   44.7990 N   0  0  0  0  0  0  0  0  0  0  0  0
   56.1030   30.2260   44.7600 C   0  0  0  0  0  0  0  0  0  0  0  0
   54.8880   29.6520   45.1200 O   0  0  0  0  0  0  0  0  0  0  0  0
   57.5040   25.0690   45.9750 C   0  0  0  0  0  0  0  0  0  0  0  0
   56.7410   24.3400   45.1310 C   0  0  0  0  0  0  0  0  0  0  0  0
   55.2690   24.2850   45.1550 C   0  0  0  0  0  0  0  0  0  0  0  0
   54.5370   23.1840   44.9070 N   0  0  0  0  0  0  0  0  0  0  0  0
   53.2750   23.5790   45.1870 C   0  0  0  0  0  0  0  0  0  0  0  0
   52.2830   22.8150   45.0690 O   0  0  0  0  0  0  0  0  0  0  0  0
   53.1630   24.8550   45.6140 N   0  0  0  0  0  0  0  0  0  0  0  0
   54.4350   25.2810   45.6010 C   0  0  0  0  0  0  0  0  0  0  0  0
   54.8290   26.5550   45.9940 O   0  0  0  0  0  0  0  0  0  0  0  0
   56.4079   23.1418   47.5938 H   0  0  0  0  0  0  0  0  0  0  0  0
   57.3516   23.7433   49.1357 H   0  0  0  0  0  0  0  0  0  0  0  0
   58.8440   25.7480   48.8750 H   0  0  0  0  0  0  0  0  0  0  0  0
   59.9195   27.8827   48.2099 H   0  0  0  0  0  0  0  0  0  0  0  0
   60.7867   27.5443   46.6736 H   0  0  0  0  0  0  0  0  0  0  0  0
   59.3440   28.6145   46.6736 H   0  0  0  0  0  0  0  0  0  0  0  0
   59.3124   29.4492   43.8802 H   0  0  0  0  0  0  0  0  0  0  0  0
   59.4891   31.9398   43.9551 H   0  0  0  0  0  0  0  0  0  0  0  0
   54.8100   28.6550   45.2830 H   0  0  0  0  0  0  0  0  0  0  0  0
   57.2589   23.7415   44.3671 H   0  0  0  0  0  0  0  0  0  0  0  0
  1  2  2  0
  2  3  1  0
  3  4  1  0
  4  5  1  0
  4  6  2  0
  6  7  1  0
  7  8  2  0
  7  9  1  0
  9 10  1  0
 10 11  1  0
 11 12  2  0
 12 13  1  0
 13 14  2  0
 13 15  1  0
 15 16  1  0
 16 17  1  0
  6 18  1  0
 18 19  2  3
 19 20  1  0
 20 21  1  0
 21 22  1  0
 22 23  2  0
 22 24  1  0
 24 25  1  0
 25 26  1  0
 18  2  1  0
 25 20  2  0
 16 10  2  0
  1 27  1  0
  1 28  1  0
  3 29  1  0
  5 30  1  0
  5 31  1  0
  5 32  1  0
 11 33  1  0
 12 34  1  0
 17 35  1  0
 19 36  1  0
M  CHG  5   9  -1  15  -1  21  -1  24  -1  26  -1
M  END
>  <UniqueID>  (62) 
59

>  <SMILES>  (62) 
C=c1[nH]c(C)c(C(=O)[N-]c2ccc(=O)[n-]c2O)c1=Cc1[n-]c(=O)[n-]c1[O-]

>  <Energy>  (62) 
112.31330621017739

>  <Genealogy>  (62) 
C=c1[nH]c(C)c(C(=O)[N-]c2ccc(=O)[n-]c2O)c1=Cc1[n-]c(=O)[n-]c1[O-] (protonated)
C=c1[nH]c(C)c(C(=O)[N-]c2ccc(=O)[n-]c2O)c1=Cc1[n-]c(=O)[n-]c1[O-] (3D coordinates assigned)
C=c1[nH]c(C)c(C(=O)[N-]c2ccc(=O)[n-]c2O)c1=Cc1[n-]c(=O)[n-]c1[O-] (optimized conformer: 112.31330621017739 kcal/mol)

>  <smiles>  (62) 
C=c1[nH]c(C)c(C(=O)Nc2ccc(=O)[nH]c2O)c1=Cc1[nH]c(=O)[nH]c1O

>  <score_type>  (62) 
oracle

>  <origin>  (62) 
adg

>  <m_score__min__energy>  (62) 
-17.66

>  <m_primary>  (62) 
energy

$$$$
62:0
     RDKit          3D

 50 54  0  0  0  0  0  0  0  0999 V2000
   62.2690   30.8070   47.2600 O   0  0  0  0  0  0  0  0  0  0  0  0
   61.1130   31.2900   47.1150 C   0  0  0  0  0  0  0  0  0  0  0  0
   59.9990   30.3750   46.7820 C   0  0  0  0  0  0  0  0  0  0  0  0
   60.0270   29.0180   47.1930 C   0  0  0  0  0  0  0  0  0  0  0  0
   58.9770   28.1450   46.8620 C   0  0  0  0  0  0  0  0  0  0  0  0
   57.9150   28.6500   46.1120 C   0  0  0  0  0  0  0  0  0  0  0  0
   56.7470   28.0670   45.6640 C   0  0  0  0  0  0  0  0  0  0  0  0
   56.3050   26.6660   45.7860 C   0  0  0  0  0  0  0  0  0  0  0  0
   55.0250   26.3050   45.9920 N   0  0  0  0  0  0  0  0  0  0  0  0
   55.0760   24.9560   45.9960 C   0  0  0  0  0  0  0  0  0  0  0  0
   54.0560   24.2400   46.1720 O   0  0  0  0  0  0  0  0  0  0  0  0
   56.3030   24.4350   45.7860 N   0  0  0  0  0  0  0  0  0  0  0  0
   57.0700   25.5290   45.6480 C   0  0  0  0  0  0  0  0  0  0  0  0
   58.4240   25.4820   45.3480 O   0  0  0  0  0  0  0  0  0  0  0  0
   56.0390   29.1040   45.0720 C   0  0  0  0  0  0  0  0  0  0  0  0
   54.7860   28.9720   44.4840 O   0  0  0  0  0  0  0  0  0  0  0  0
   56.7100   30.2770   45.1140 N   0  0  0  0  0  0  0  0  0  0  0  0
   57.8550   29.9750   45.7550 C   0  0  0  0  0  0  0  0  0  0  0  0
   58.8770   30.8640   46.0760 C   0  0  0  0  0  0  0  0  0  0  0  0
   60.9000   32.7050   47.3160 N   0  0  0  0  0  0  0  0  0  0  0  0
   62.0280   33.6360   47.2850 C   0  0  0  0  0  0  0  0  0  0  0  0
   62.3240   34.1130   48.7100 C   0  0  0  0  0  0  0  0  0  0  0  0
   61.0970   34.4310   49.4840 N   0  0  0  0  0  0  0  0  0  0  0  0
   61.0300   33.8380   50.8390 C   0  0  0  0  0  0  0  0  0  0  0  0
   59.8870   32.8620   51.0200 C   0  0  0  0  0  0  0  0  0  0  0  0
   58.7030   33.2530   51.6690 C   0  0  0  0  0  0  0  0  0  0  0  0
   57.6600   32.3380   51.8470 C   0  0  0  0  0  0  0  0  0  0  0  0
   57.7870   31.0290   51.3740 C   0  0  0  0  0  0  0  0  0  0  0  0
   56.7560   30.1190   51.5660 O   0  0  0  0  0  0  0  0  0  0  0  0
   58.9500   30.6380   50.7060 C   0  0  0  0  0  0  0  0  0  0  0  0
   59.9910   31.5520   50.5190 C   0  0  0  0  0  0  0  0  0  0  0  0
   59.8250   34.4550   48.7260 C   0  0  0  0  0  0  0  0  0  0  0  0
   59.6250   33.2020   47.8500 C   0  0  0  0  0  0  0  0  0  0  0  0
   60.8806   28.6446   47.7777 H   0  0  0  0  0  0  0  0  0  0  0  0
   58.9921   27.0936   47.1850 H   0  0  0  0  0  0  0  0  0  0  0  0
   58.8125   31.9233   45.7866 H   0  0  0  0  0  0  0  0  0  0  0  0
   62.9135   33.1281   46.8752 H   0  0  0  0  0  0  0  0  0  0  0  0
   61.7788   34.4988   46.6498 H   0  0  0  0  0  0  0  0  0  0  0  0
   62.8750   33.3203   49.2373 H   0  0  0  0  0  0  0  0  0  0  0  0
   62.9114   35.0396   48.6306 H   0  0  0  0  0  0  0  0  0  0  0  0
   61.9738   33.3074   51.0330 H   0  0  0  0  0  0  0  0  0  0  0  0
   60.8612   34.6653   51.5441 H   0  0  0  0  0  0  0  0  0  0  0  0
   58.5961   34.2835   52.0387 H   0  0  0  0  0  0  0  0  0  0  0  0
   56.7382   32.6493   52.3602 H   0  0  0  0  0  0  0  0  0  0  0  0
   59.0466   29.6099   50.3268 H   0  0  0  0  0  0  0  0  0  0  0  0
   60.8973   31.2447   49.9766 H   0  0  0  0  0  0  0  0  0  0  0  0
   58.9915   34.5202   49.4409 H   0  0  0  0  0  0  0  0  0  0  0  0
   59.8572   35.3256   48.0545 H   0  0  0  0  0  0  0  0  0  0  0  0
   59.1607   32.4118   48.4583 H   0  0  0  0  0  0  0  0  0  0  0  0
   58.9804   33.4753   47.0016 H   0  0  0  0  0  0  0  0  0  0  0  0
  1  2  2  0
  2  3  1  0
  3  4  2  0
  4  5  1  0
  5  6  2  0
  6  7  1  0
  7  8  1  0
  8  9  1  0
  9 10  1  0
 10 11  2  0
 10 12  1  0
 12 13  1  0
 13 14  1  0
  7 15  2  0
 15 16  1  0
 15 17  1  0
 17 18  1  0
 18 19  2  0
  2 20  1  0
 20 21  1  0
 21 22  1  0
 22 23  1  0
 23 24  1  0
 24 25  1  0
 25 26  2  0
 26 27  1  0
 27 28  2  0
 28 29  1  0
 28 30  1  0
 30 31  2  0
 23 32  1  0
 32 33  1  0
 19  3  1  0
 33 20  1  0
 18  6  1  0
 31 25  1  0
 13  8  2  0
  4 34  1  0
  5 35  1  0
 19 36  1  0
 21 37  1  0
 21 38  1  0
 22 39  1  0
 22 40  1  0
 24 41  1  0
 24 42  1  0
 26 43  1  0
 27 44  1  0
 30 45  1  0
 31 46  1  0
 32 47  1  0
 32 48  1  0
 33 49  1  0
 33 50  1  0
M  CHG  6   9  -1  12  -1  14  -1  16  -1  17  -1  29  -1
M  END
>  <UniqueID>  (63) 
60

>  <SMILES>  (63) 
O=C(c1ccc2c(-c3[n-]c(=O)[n-]c3[O-])c([O-])[n-]c2c1)N1CCN(Cc2ccc([O-])cc2)CC1

>  <Energy>  (63) 
136.9260827771007

>  <Genealogy>  (63) 
O=C(c1ccc2c(-c3[n-]c(=O)[n-]c3[O-])c([O-])[n-]c2c1)N1CCN(Cc2ccc([O-])cc2)CC1 (protonated)
O=C(c1ccc2c(-c3[n-]c(=O)[n-]c3[O-])c([O-])[n-]c2c1)N1CCN(Cc2ccc([O-])cc2)CC1 (3D coordinates assigned)
O=C(c1ccc2c(-c3[n-]c(=O)[n-]c3[O-])c([O-])[n-]c2c1)N1CCN(Cc2ccc([O-])cc2)CC1 (nonaromatic ring conformer: 136.9260827771007 kcal/mol)

>  <smiles>  (63) 
O=C(c1ccc2c(-c3[nH]c(=O)[nH]c3O)c(O)[nH]c2c1)N1CCN(Cc2ccc(O)cc2)CC1

>  <score_type>  (63) 
oracle

>  <origin>  (63) 
adg

>  <m_score__min__energy>  (63) 
-21.530000000000001

>  <m_primary>  (63) 
energy

$$$$
63:0
     RDKit          3D

 49 51  0  0  0  0  0  0  0  0999 V2000
   60.1645   26.1729   46.0786 H   0  0  0  0  0  0  0  0  0  0  0  0
   59.3980   26.5510   46.7710 C   0  0  0  0  0  0  0  0  0  0  0  0
   59.5220   26.2880   48.0370 N   0  0  0  0  0  0  0  0  0  0  0  0
   60.0790   27.1880   49.0460 C   0  0  0  0  0  0  0  0  0  0  0  0
   59.2752   27.5284   49.7153 H   0  0  0  0  0  0  0  0  0  0  0  0
   60.8438   26.6526   49.6277 H   0  0  0  0  0  0  0  0  0  0  0  0
   60.7180   28.3970   48.3650 C   0  0  0  0  0  0  0  0  0  0  0  0
   61.7425   28.1441   48.0546 H   0  0  0  0  0  0  0  0  0  0  0  0
   60.1256   28.6758   47.4811 H   0  0  0  0  0  0  0  0  0  0  0  0
   60.7560   29.5390   49.3170 N   0  0  0  0  0  0  0  0  0  0  0  0
   61.8600   30.4970   49.0740 C   0  0  0  0  0  0  0  0  0  0  0  0
   62.2528   30.8309   50.0457 H   0  0  0  0  0  0  0  0  0  0  0  0
   62.6210   29.9727   48.4774 H   0  0  0  0  0  0  0  0  0  0  0  0
   61.4240   31.7390   48.2690 C   0  0  0  0  0  0  0  0  0  0  0  0
   61.1557   32.5429   48.9703 H   0  0  0  0  0  0  0  0  0  0  0  0
   62.2622   32.0432   47.6248 H   0  0  0  0  0  0  0  0  0  0  0  0
   60.2680   31.4490   47.4120 N   0  0  0  0  0  0  0  0  0  0  0  0
   60.5200   30.6710   46.7540 H   0  0  0  0  0  0  0  0  0  0  0  0
   59.0910   31.0590   48.2090 C   0  0  0  0  0  0  0  0  0  0  0  0
   58.5721   31.9719   48.5366 H   0  0  0  0  0  0  0  0  0  0  0  0
   58.4549   30.4307   47.5682 H   0  0  0  0  0  0  0  0  0  0  0  0
   59.4540   30.2230   49.4600 C   0  0  0  0  0  0  0  0  0  0  0  0
   59.4994   30.8920   50.3320 H   0  0  0  0  0  0  0  0  0  0  0  0
   58.6800   29.4517   49.5864 H   0  0  0  0  0  0  0  0  0  0  0  0
   58.2740   27.3350   46.2190 C   0  0  0  0  0  0  0  0  0  0  0  0
   56.9810   26.8020   46.1980 C   0  0  0  0  0  0  0  0  0  0  0  0
   56.7190   25.5540   46.7520 O   0  0  0  0  0  0  0  0  0  0  0  0
   55.9660   27.5070   45.6390 N   0  0  0  0  0  0  0  0  0  0  0  0
   56.1740   28.7290   45.0850 C   0  0  0  0  0  0  0  0  0  0  0  0
   55.2030   29.3320   44.5490 O   0  0  0  0  0  0  0  0  0  0  0  0
   57.4350   29.2800   45.0740 N   0  0  0  0  0  0  0  0  0  0  0  0
   57.6540   30.5800   44.4870 C   0  0  0  0  0  0  0  0  0  0  0  0
   57.3960   30.7980   43.1260 C   0  0  0  0  0  0  0  0  0  0  0  0
   56.9990   29.9798   42.5071 H   0  0  0  0  0  0  0  0  0  0  0  0
   57.6400   32.0480   42.5510 C   0  0  0  0  0  0  0  0  0  0  0  0
   57.4367   32.2120   41.4825 H   0  0  0  0  0  0  0  0  0  0  0  0
   58.1430   33.0900   43.3360 C   0  0  0  0  0  0  0  0  0  0  0  0
   58.3429   34.0711   42.8806 H   0  0  0  0  0  0  0  0  0  0  0  0
   58.3940   32.8900   44.7020 C   0  0  0  0  0  0  0  0  0  0  0  0
   59.0390   34.1930   45.6980 S   0  0  0  0  0  0  0  0  0  0  0  0
   58.1130   34.4360   46.8570 O   0  0  0  0  0  0  0  0  0  0  0  0
   59.1530   35.4570   44.8880 O   0  0  0  0  0  0  0  0  0  0  0  0
   60.6080   33.7600   46.2910 N   0  0  0  0  0  0  0  0  0  0  0  0
   60.8430   32.8270   45.8800 H   0  0  0  0  0  0  0  0  0  0  0  0
   60.5210   33.6230   47.3230 H   0  0  0  0  0  0  0  0  0  0  0  0
   58.1440   31.6350   45.2730 C   0  0  0  0  0  0  0  0  0  0  0  0
   58.3330   31.4753   46.3448 H   0  0  0  0  0  0  0  0  0  0  0  0
   58.4920   28.5830   45.6100 C   0  0  0  0  0  0  0  0  0  0  0  0
   59.6620   29.0510   45.5490 O   0  0  0  0  0  0  0  0  0  0  0  0
  1  2  1  0
  2  3  2  0
  3  4  1  0
  4  5  1  0
  4  6  1  0
  4  7  1  0
  7  8  1  0
  7  9  1  0
  7 10  1  0
 10 11  1  0
 11 12  1  0
 11 13  1  0
 11 14  1  0
 14 15  1  0
 14 16  1  0
 14 17  1  0
 17 18  1  0
 17 19  1  0
 19 20  1  0
 19 21  1  0
 19 22  1  0
 22 23  1  0
 22 24  1  0
  2 25  1  0
 25 26  2  0
 26 27  1  0
 26 28  1  0
 28 29  1  0
 29 30  2  0
 29 31  1  0
 31 32  1  0
 32 33  2  0
 33 34  1  0
 33 35  1  0
 35 36  1  0
 35 37  2  0
 37 38  1  0
 37 39  1  0
 39 40  1  0
 40 41  2  0
 40 42  2  0
 40 43  1  0
 43 44  1  0
 43 45  1  0
 39 46  2  0
 46 47  1  0
 31 48  1  0
 48 49  2  0
 22 10  1  0
 48 25  1  0
 46 32  1  0
M  CHG  2  27  -1  28  -1
M  END
>  <UniqueID>  (64) 
61

>  <SMILES>  (64) 
NS(=O)(=O)c1cccc(-n2c(=O)[n-]c([O-])c(/C=N\CCN3CCNCC3)c2=O)c1

>  <Energy>  (64) 
79.43493420374246

>  <Genealogy>  (64) 
NS(=O)(=O)c1cccc(-n2c(=O)[n-]c([O-])c(C=NCCN3CCNCC3)c2=O)c1 (protonated)
NS(=O)(=O)c1cccc(-n2c(=O)[n-]c([O-])c(/C=N\CCN3CCNCC3)c2=O)c1 (cis-trans isomerization)
NS(=O)(=O)c1cccc(-n2c(=O)[n-]c([O-])c(/C=N\CCN3CCNCC3)c2=O)c1 (3D coordinates assigned)
NS(=O)(=O)c1cccc(-n2c(=O)[n-]c([O-])c(/C=N\CCN3CCNCC3)c2=O)c1 (nonaromatic ring conformer: 79.43493420374246 kcal/mol)

>  <smiles>  (64) 
NS(=O)(=O)c1cccc(-n2c(=O)[nH]c(O)c(C=NCCN3CCNCC3)c2=O)c1

>  <score_type>  (64) 
oracle

>  <origin>  (64) 
adg

>  <m_score__min__energy>  (64) 
-12.08

>  <m_primary>  (64) 
energy

$$$$
64:0
     RDKit          3D

 51 54  0  0  0  0  0  0  0  0999 V2000
   54.1440   22.9560   44.5070 N   0  0  0  0  0  0  0  0  0  0  0  0
   55.4830   22.9420   44.0170 C   0  0  0  0  0  0  0  0  0  0  0  0
   55.7640   22.2250   43.0200 O   0  0  0  0  0  0  0  0  0  0  0  0
   56.5340   23.7560   44.6700 C   0  0  0  0  0  0  0  0  0  0  0  0
   57.7900   23.1990   44.9670 C   0  0  0  0  0  0  0  0  0  0  0  0
   58.7810   23.9720   45.5750 C   0  0  0  0  0  0  0  0  0  0  0  0
   58.5290   25.3040   45.9100 C   0  0  0  0  0  0  0  0  0  0  0  0
   57.2710   25.8700   45.6450 C   0  0  0  0  0  0  0  0  0  0  0  0
   56.9730   27.2360   45.9680 N   0  0  0  0  0  0  0  0  0  0  0  0
   57.7880   28.1170   46.7530 C   0  0  0  0  0  0  0  0  0  0  0  0
   58.1350   27.7780   47.9170 O   0  0  0  0  0  0  0  0  0  0  0  0
   58.1680   29.4110   46.2430 N   0  0  0  0  0  0  0  0  0  0  0  0
   59.0300   30.2780   47.0630 C   0  0  0  0  0  0  0  0  0  0  0  0
   59.4880   31.5230   46.2960 C   0  0  0  0  0  0  0  0  0  0  0  0
   58.3520   32.1520   45.6090 N   0  0  0  0  0  0  0  0  0  0  0  0
   58.2360   33.5870   45.4970 C   0  0  0  0  0  0  0  0  0  0  0  0
   57.1050   34.1030   45.2790 O   0  0  0  0  0  0  0  0  0  0  0  0
   59.4310   34.4980   45.5980 C   0  0  0  0  0  0  0  0  0  0  0  0
   60.0880   34.3810   46.9430 C   0  0  0  0  0  0  0  0  0  0  0  0
   59.4840   34.5910   48.1790 C   0  0  0  0  0  0  0  0  0  0  0  0
   60.3700   34.3870   49.1800 N   0  0  0  0  0  0  0  0  0  0  0  0
   61.5290   34.0530   48.5860 C   0  0  0  0  0  0  0  0  0  0  0  0
   62.7360   33.7390   49.2070 C   0  0  0  0  0  0  0  0  0  0  0  0
   63.8320   33.4100   48.3880 C   0  0  0  0  0  0  0  0  0  0  0  0
   63.6990   33.4060   46.9820 C   0  0  0  0  0  0  0  0  0  0  0  0
   62.4680   33.7290   46.3840 C   0  0  0  0  0  0  0  0  0  0  0  0
   61.3990   34.0440   47.2210 C   0  0  0  0  0  0  0  0  0  0  0  0
   57.3650   31.3170   44.9090 C   0  0  0  0  0  0  0  0  0  0  0  0
   57.7730   29.8410   44.8950 C   0  0  0  0  0  0  0  0  0  0  0  0
   56.2910   25.1010   45.0050 C   0  0  0  0  0  0  0  0  0  0  0  0
   53.3320   23.0050   43.8510 H   0  0  0  0  0  0  0  0  0  0  0  0
   57.9935   22.1469   44.7187 H   0  0  0  0  0  0  0  0  0  0  0  0
   59.7647   23.5298   45.7911 H   0  0  0  0  0  0  0  0  0  0  0  0
   59.3162   25.9105   46.3817 H   0  0  0  0  0  0  0  0  0  0  0  0
   58.4688   30.5963   47.9539 H   0  0  0  0  0  0  0  0  0  0  0  0
   59.9249   29.7020   47.3411 H   0  0  0  0  0  0  0  0  0  0  0  0
   59.9267   32.2425   47.0030 H   0  0  0  0  0  0  0  0  0  0  0  0
   60.2352   31.2236   45.5463 H   0  0  0  0  0  0  0  0  0  0  0  0
   60.1575   34.2253   44.8184 H   0  0  0  0  0  0  0  0  0  0  0  0
   59.0914   35.5357   45.4642 H   0  0  0  0  0  0  0  0  0  0  0  0
   58.4329   34.8822   48.3218 H   0  0  0  0  0  0  0  0  0  0  0  0
   60.1880   34.4750   50.2060 H   0  0  0  0  0  0  0  0  0  0  0  0
   62.8293   33.7480   50.3030 H   0  0  0  0  0  0  0  0  0  0  0  0
   64.7989   33.1542   48.8460 H   0  0  0  0  0  0  0  0  0  0  0  0
   64.5629   33.1489   46.3514 H   0  0  0  0  0  0  0  0  0  0  0  0
   62.3524   33.7329   45.2901 H   0  0  0  0  0  0  0  0  0  0  0  0
   56.3940   31.4128   45.4170 H   0  0  0  0  0  0  0  0  0  0  0  0
   57.3032   31.6635   43.8668 H   0  0  0  0  0  0  0  0  0  0  0  0
   56.9227   29.2322   44.5540 H   0  0  0  0  0  0  0  0  0  0  0  0
   58.6258   29.7108   44.2125 H   0  0  0  0  0  0  0  0  0  0  0  0
   55.3188   25.5542   44.7610 H   0  0  0  0  0  0  0  0  0  0  0  0
  1  2  1  0
  2  3  2  0
  2  4  1  0
  4  5  2  0
  5  6  1  0
  6  7  2  0
  7  8  1  0
  8  9  1  0
  9 10  1  0
 10 11  2  0
 10 12  1  0
 12 13  1  0
 13 14  1  0
 14 15  1  0
 15 16  1  0
 16 17  2  0
 16 18  1  0
 18 19  1  0
 19 20  2  0
 20 21  1  0
 21 22  1  0
 22 23  2  0
 23 24  1  0
 24 25  2  0
 25 26  1  0
 26 27  2  0
 15 28  1  0
 28 29  1  0
  8 30  2  0
 30  4  1  0
 29 12  1  0
 27 19  1  0
 27 22  1  0
  1 31  1  0
  5 32  1  0
  6 33  1  0
  7 34  1  0
 13 35  1  0
 13 36  1  0
 14 37  1  0
 14 38  1  0
 18 39  1  0
 18 40  1  0
 20 41  1  0
 21 42  1  0
 23 43  1  0
 24 44  1  0
 25 45  1  0
 26 46  1  0
 28 47  1  0
 28 48  1  0
 29 49  1  0
 29 50  1  0
 30 51  1  0
M  CHG  2   1  -1   9  -1
M  END
>  <UniqueID>  (65) 
62

>  <SMILES>  (65) 
[NH-]C(=O)c1cccc([N-]C(=O)N2CCN(C(=O)Cc3c[nH]c4ccccc34)CC2)c1

>  <Energy>  (65) 
89.58003637853827

>  <Genealogy>  (65) 
[NH-]C(=O)c1cccc([N-]C(=O)N2CCN(C(=O)Cc3c[nH]c4ccccc34)CC2)c1 (protonated)
[NH-]C(=O)c1cccc([N-]C(=O)N2CCN(C(=O)Cc3c[nH]c4ccccc34)CC2)c1 (3D coordinates assigned)
[NH-]C(=O)c1cccc([N-]C(=O)N2CCN(C(=O)Cc3c[nH]c4ccccc34)CC2)c1 (nonaromatic ring conformer: 89.58003637853827 kcal/mol)

>  <smiles>  (65) 
NC(=O)c1cccc(NC(=O)N2CCN(C(=O)Cc3c[nH]c4ccccc34)CC2)c1

>  <score_type>  (65) 
oracle

>  <origin>  (65) 
adg

>  <m_score__min__energy>  (65) 
-13.66

>  <m_primary>  (65) 
energy

$$$$
65:0
     RDKit          3D

 74 77  0  0  0  0  0  0  0  0999 V2000
   60.6299   30.5921   44.6325 H   0  0  0  0  0  0  0  0  0  0  0  0
   60.0040   29.6960   44.7560 C   0  0  0  0  0  0  0  0  0  0  0  0
   59.5690   29.2031   43.8741 H   0  0  0  0  0  0  0  0  0  0  0  0
   59.7710   29.2040   45.9830 C   0  0  0  0  0  0  0  0  0  0  0  0
   58.9990   28.0760   46.3050 C   0  0  0  0  0  0  0  0  0  0  0  0
   58.4060   30.3310   51.5010 C   0  0  0  0  0  0  0  0  0  0  0  0
   59.3248   30.6617   52.0073 H   0  0  0  0  0  0  0  0  0  0  0  0
   57.1540   26.4830   45.7080 C   0  0  0  0  0  0  0  0  0  0  0  0
   56.9550   25.2350   46.1720 N   0  0  0  0  0  0  0  0  0  0  0  0
   55.6130   25.1620   46.3050 C   0  0  0  0  0  0  0  0  0  0  0  0
   55.0280   24.1240   46.7110 O   0  0  0  0  0  0  0  0  0  0  0  0
   54.9490   26.2940   45.9860 N   0  0  0  0  0  0  0  0  0  0  0  0
   55.9420   27.1240   45.6270 C   0  0  0  0  0  0  0  0  0  0  0  0
   55.7440   28.4440   45.2420 O   0  0  0  0  0  0  0  0  0  0  0  0
   58.8640   28.0810   47.6810 C   0  0  0  0  0  0  0  0  0  0  0  0
   58.2853   27.3661   48.2843 H   0  0  0  0  0  0  0  0  0  0  0  0
   59.5930   29.1530   48.1540 C   0  0  0  0  0  0  0  0  0  0  0  0
   59.7660   29.4680   49.6170 C   0  0  0  0  0  0  0  0  0  0  0  0
   60.1223   28.5670   50.1377 H   0  0  0  0  0  0  0  0  0  0  0  0
   60.4948   30.2865   49.7119 H   0  0  0  0  0  0  0  0  0  0  0  0
   58.4730   27.1100   45.5280 C   0  0  0  0  0  0  0  0  0  0  0  0
   59.0838   26.7583   44.6835 H   0  0  0  0  0  0  0  0  0  0  0  0
   58.4740   29.9110   50.2360 C   0  0  0  0  0  0  0  0  0  0  0  0
   57.5561   29.8892   49.6302 H   0  0  0  0  0  0  0  0  0  0  0  0
   57.1310   30.3620   52.2340 C   0  0  0  0  0  0  0  0  0  0  0  0
   55.9650   30.0330   51.6390 N   0  0  0  0  0  0  0  0  0  0  0  0
   55.0490   30.1650   52.6180 C   0  0  0  0  0  0  0  0  0  0  0  0
   53.5860   29.8900   52.4310 C   0  0  0  0  0  0  0  0  0  0  0  0
   53.4199   29.5590   51.3952 H   0  0  0  0  0  0  0  0  0  0  0  0
   53.2985   29.1154   53.1572 H   0  0  0  0  0  0  0  0  0  0  0  0
   52.7100   31.1250   52.6990 C   0  0  0  0  0  0  0  0  0  0  0  0
   52.0401   30.8961   53.5410 H   0  0  0  0  0  0  0  0  0  0  0  0
   53.3963   31.9576   52.9129 H   0  0  0  0  0  0  0  0  0  0  0  0
   51.8620   31.5540   51.5220 C   0  0  0  0  0  0  0  0  0  0  0  0
   51.8750   30.8950   50.4450 O   0  0  0  0  0  0  0  0  0  0  0  0
   51.0260   32.7130   51.6030 N   0  0  0  0  0  0  0  0  0  0  0  0
   50.2820   33.1000   52.7940 C   0  0  0  0  0  0  0  0  0  0  0  0
   50.8470   32.8061   53.6909 H   0  0  0  0  0  0  0  0  0  0  0  0
   50.1330   34.1899   52.7953 H   0  0  0  0  0  0  0  0  0  0  0  0
   49.3041   32.5963   52.7953 H   0  0  0  0  0  0  0  0  0  0  0  0
   55.6620   30.5730   53.7830 C   0  0  0  0  0  0  0  0  0  0  0  0
   55.1631   30.7560   54.7461 H   0  0  0  0  0  0  0  0  0  0  0  0
   56.9760   30.7080   53.5360 N   0  0  0  0  0  0  0  0  0  0  0  0
   57.9490   31.3110   54.4560 C   0  0  0  0  0  0  0  0  0  0  0  0
   57.4171   31.9710   55.1571 H   0  0  0  0  0  0  0  0  0  0  0  0
   58.4631   30.5016   54.9951 H   0  0  0  0  0  0  0  0  0  0  0  0
   59.0050   32.1340   53.6970 C   0  0  0  0  0  0  0  0  0  0  0  0
   59.7915   32.4271   54.4080 H   0  0  0  0  0  0  0  0  0  0  0  0
   59.3836   31.4947   52.8858 H   0  0  0  0  0  0  0  0  0  0  0  0
   58.4470   33.4160   53.0330 C   0  0  0  0  0  0  0  0  0  0  0  0
   57.3492   33.3506   53.0560 H   0  0  0  0  0  0  0  0  0  0  0  0
   58.8810   33.5360   51.5650 C   0  0  0  0  0  0  0  0  0  0  0  0
   59.9403   33.8289   51.5186 H   0  0  0  0  0  0  0  0  0  0  0  0
   58.7462   32.5669   51.0624 H   0  0  0  0  0  0  0  0  0  0  0  0
   58.2675   34.2982   51.0624 H   0  0  0  0  0  0  0  0  0  0  0  0
   58.9130   34.6530   53.8110 C   0  0  0  0  0  0  0  0  0  0  0  0
   58.8389   34.4564   54.8908 H   0  0  0  0  0  0  0  0  0  0  0  0
   59.9576   34.8782   53.5501 H   0  0  0  0  0  0  0  0  0  0  0  0
   58.2766   35.5115   53.5501 H   0  0  0  0  0  0  0  0  0  0  0  0
   60.1530   29.8350   47.1260 N   0  0  0  0  0  0  0  0  0  0  0  0
   60.9820   31.0490   47.2330 C   0  0  0  0  0  0  0  0  0  0  0  0
   61.4199   31.0957   48.2410 H   0  0  0  0  0  0  0  0  0  0  0  0
   61.7701   30.9989   46.4672 H   0  0  0  0  0  0  0  0  0  0  0  0
   60.1660   32.2950   46.9940 C   0  0  0  0  0  0  0  0  0  0  0  0
   60.8060   33.5080   46.6830 C   0  0  0  0  0  0  0  0  0  0  0  0
   61.9014   33.5404   46.5881 H   0  0  0  0  0  0  0  0  0  0  0  0
   60.0570   34.6720   46.4940 C   0  0  0  0  0  0  0  0  0  0  0  0
   60.5635   35.6154   46.2421 H   0  0  0  0  0  0  0  0  0  0  0  0
   58.6670   34.6410   46.6240 C   0  0  0  0  0  0  0  0  0  0  0  0
   58.0791   35.5579   46.4702 H   0  0  0  0  0  0  0  0  0  0  0  0
   58.0230   33.4430   46.9500 C   0  0  0  0  0  0  0  0  0  0  0  0
   56.9285   33.4194   47.0578 H   0  0  0  0  0  0  0  0  0  0  0  0
   58.7680   32.2760   47.1390 C   0  0  0  0  0  0  0  0  0  0  0  0
   58.2579   31.3378   47.4026 H   0  0  0  0  0  0  0  0  0  0  0  0
  1  2  1  0
  2  3  1  0
  2  4  2  0
  4  5  1  0
  5  6  2  0
  6  7  1  0
  6  8  1  0
  8  9  1  0
  9 10  1  0
 10 11  2  0
 10 12  1  0
 12 13  1  0
 13 14  1  0
  5 15  1  0
 15 16  1  0
 15 17  2  0
 17 18  1  0
 18 19  1  0
 18 20  1  0
 18 21  1  0
 21 22  1  0
 21 23  2  0
 23 24  1  0
 23 25  1  0
 25 26  2  0
 26 27  1  0
 27 28  1  0
 28 29  1  0
 28 30  1  0
 28 31  1  0
 31 32  1  0
 31 33  1  0
 31 34  1  0
 34 35  2  0
 34 36  1  0
 36 37  1  0
 37 38  1  0
 37 39  1  0
 37 40  1  0
 27 41  2  0
 41 42  1  0
 41 43  1  0
 43 44  1  0
 44 45  1  0
 44 46  1  0
 44 47  1  0
 47 48  1  0
 47 49  1  0
 47 50  1  0
 50 51  1  0
 50 52  1  0
 52 53  1  0
 52 54  1  0
 52 55  1  0
 50 56  1  0
 56 57  1  0
 56 58  1  0
 56 59  1  0
 17 60  1  0
 60 61  1  0
 61 62  1  0
 61 63  1  0
 61 64  1  0
 64 65  2  0
 65 66  1  0
 65 67  1  0
 67 68  1  0
 67 69  2  0
 69 70  1  0
 69 71  1  0
 71 72  1  0
 71 73  2  0
 73 74  1  0
 60  4  1  0
 73 64  1  0
 13  8  2  0
 43 25  1  0
M  CHG  4   9  -1  12  -1  14  -1  36  -1
M  END
>  <UniqueID>  (66) 
63

>  <SMILES>  (66) 
C=c1/c(=C\c2[n-]c(=O)[n-]c2[O-])cc(C/C=C/c2nc(CCC(=O)[N-]C)cn2CCC(C)C)n1Cc1ccccc1

>  <Energy>  (66) 
164.29748358108424

>  <Genealogy>  (66) 
C=c1c(=Cc2[n-]c(=O)[n-]c2[O-])cc(CC=Cc2nc(CCC(=O)[N-]C)cn2CCC(C)C)n1Cc1ccccc1 (protonated)
C=c1/c(=C\c2[n-]c(=O)[n-]c2[O-])cc(C/C=C/c2nc(CCC(=O)[N-]C)cn2CCC(C)C)n1Cc1ccccc1 (cis-trans isomerization)
C=c1/c(=C\c2[n-]c(=O)[n-]c2[O-])cc(C/C=C/c2nc(CCC(=O)[N-]C)cn2CCC(C)C)n1Cc1ccccc1 (3D coordinates assigned)
C=c1/c(=C\c2[n-]c(=O)[n-]c2[O-])cc(C/C=C/c2nc(CCC(=O)[N-]C)cn2CCC(C)C)n1Cc1ccccc1 (optimized conformer: 164.29748358108424 kcal/mol)

>  <smiles>  (66) 
C=c1c(=Cc2[nH]c(=O)[nH]c2O)cc(CC=Cc2nc(CCC(=O)NC)cn2CCC(C)C)n1Cc1ccccc1

>  <score_type>  (66) 
oracle

>  <origin>  (66) 
adg

>  <m_score__min__energy>  (66) 
-21.48

>  <m_primary>  (66) 
energy

$$$$
66:0
     RDKit          3D

 35 37  0  0  0  0  0  0  0  0999 V2000
   58.1400   35.1790   45.7500 H   0  0  0  0  0  0  0  0  0  0  0  0
   57.6810   34.4600   45.1470 N   0  0  0  0  0  0  0  0  0  0  0  0
   57.8330   33.1820   45.3140 C   0  0  0  0  0  0  0  0  0  0  0  0
   57.2280   32.3290   44.4470 N   0  0  0  0  0  0  0  0  0  0  0  0
   57.3400   30.9810   44.5710 C   0  0  0  0  0  0  0  0  0  0  0  0
   56.8419   30.3158   43.8503 H   0  0  0  0  0  0  0  0  0  0  0  0
   58.0950   30.4420   45.6240 C   0  0  0  0  0  0  0  0  0  0  0  0
   58.2540   28.9770   45.8150 C   0  0  0  0  0  0  0  0  0  0  0  0
   59.5410   28.4150   45.8570 C   0  0  0  0  0  0  0  0  0  0  0  0
   60.4226   29.0629   45.7429 H   0  0  0  0  0  0  0  0  0  0  0  0
   59.7110   27.0430   46.0420 C   0  0  0  0  0  0  0  0  0  0  0  0
   60.7240   26.6151   46.0682 H   0  0  0  0  0  0  0  0  0  0  0  0
   58.6010   26.2110   46.1940 C   0  0  0  0  0  0  0  0  0  0  0  0
   58.7439   25.1294   46.3343 H   0  0  0  0  0  0  0  0  0  0  0  0
   57.3020   26.7460   46.1690 C   0  0  0  0  0  0  0  0  0  0  0  0
   56.1240   25.8620   46.3430 C   0  0  0  0  0  0  0  0  0  0  0  0
   56.2770   24.6630   46.7020 O   0  0  0  0  0  0  0  0  0  0  0  0
   54.8050   26.3530   46.1060 N   0  0  0  0  0  0  0  0  0  0  0  0
   54.3690   27.0520   46.7470 H   0  0  0  0  0  0  0  0  0  0  0  0
   57.1370   28.1320   45.9820 C   0  0  0  0  0  0  0  0  0  0  0  0
   56.1243   28.5611   45.9660 H   0  0  0  0  0  0  0  0  0  0  0  0
   58.7090   31.2990   46.4840 N   0  0  0  0  0  0  0  0  0  0  0  0
   58.6130   32.6510   46.3630 C   0  0  0  0  0  0  0  0  0  0  0  0
   59.1940   33.4420   47.2220 N   0  0  0  0  0  0  0  0  0  0  0  0
   60.6040   33.5390   47.4830 C   0  0  0  0  0  0  0  0  0  0  0  0
   61.5570   33.5040   46.4480 C   0  0  0  0  0  0  0  0  0  0  0  0
   61.2297   33.3748   45.4058 H   0  0  0  0  0  0  0  0  0  0  0  0
   62.9190   33.6330   46.7400 C   0  0  0  0  0  0  0  0  0  0  0  0
   63.6615   33.5872   45.9297 H   0  0  0  0  0  0  0  0  0  0  0  0
   63.3370   33.8200   48.0600 C   0  0  0  0  0  0  0  0  0  0  0  0
   64.4088   33.9121   48.2897 H   0  0  0  0  0  0  0  0  0  0  0  0
   62.3940   33.8900   49.0880 C   0  0  0  0  0  0  0  0  0  0  0  0
   62.7235   34.0469   50.1257 H   0  0  0  0  0  0  0  0  0  0  0  0
   61.0320   33.7610   48.8000 C   0  0  0  0  0  0  0  0  0  0  0  0
   60.2921   33.8340   49.6107 H   0  0  0  0  0  0  0  0  0  0  0  0
  1  2  1  0
  2  3  2  3
  3  4  1  0
  4  5  1  0
  5  6  1  0
  5  7  2  0
  7  8  1  0
  8  9  2  0
  9 10  1  0
  9 11  1  0
 11 12  1  0
 11 13  2  0
 13 14  1  0
 13 15  1  0
 15 16  1  0
 16 17  2  0
 16 18  1  0
 18 19  1  0
 15 20  2  0
 20 21  1  0
  7 22  1  0
 22 23  1  0
 23 24  2  0
 24 25  1  0
 25 26  2  0
 26 27  1  0
 26 28  1  0
 28 29  1  0
 28 30  2  0
 30 31  1  0
 30 32  1  0
 32 33  1  0
 32 34  2  0
 34 35  1  0
 23  3  1  0
 34 25  1  0
 20  8  1  0
M  CHG  3   4  -1  18  -1  22  -1
M  END
>  <UniqueID>  (67) 
64

>  <SMILES>  (67) 
N=c1[n-]cc(-c2cccc(C([NH-])=O)c2)[n-]/c1=N\c1ccccc1

>  <Energy>  (67) 
51.453373519516845

>  <Genealogy>  (67) 
N=c1[n-]cc(-c2cccc(C([NH-])=O)c2)[n-]c1=Nc1ccccc1 (protonated)
N=c1[n-]cc(-c2cccc(C([NH-])=O)c2)[n-]/c1=N\c1ccccc1 (cis-trans isomerization)
N=c1[n-]cc(-c2cccc(C([NH-])=O)c2)[n-]/c1=N\c1ccccc1 (3D coordinates assigned)
N=c1[n-]cc(-c2cccc(C([NH-])=O)c2)[n-]/c1=N\c1ccccc1 (optimized conformer: 51.453373519516845 kcal/mol)

>  <smiles>  (67) 
N=c1[nH]cc(-c2cccc(C(N)=O)c2)[nH]c1=Nc1ccccc1

>  <score_type>  (67) 
oracle

>  <origin>  (67) 
adg

>  <m_score__min__energy>  (67) 
-12.699999999999999

>  <m_primary>  (67) 
energy

$$$$
67:0
     RDKit          3D

 64 68  0  0  0  0  0  0  0  0999 V2000
   54.0060   26.7200   46.3830 H   0  0  0  0  0  0  0  0  0  0  0  0
   54.7630   26.2920   45.8050 N   0  0  0  0  0  0  0  0  0  0  0  0
   56.0730   26.0820   46.3390 C   0  0  0  0  0  0  0  0  0  0  0  0
   56.2210   25.2770   47.2990 O   0  0  0  0  0  0  0  0  0  0  0  0
   57.2470   26.7910   45.7720 C   0  0  0  0  0  0  0  0  0  0  0  0
   57.6520   26.5630   44.4450 C   0  0  0  0  0  0  0  0  0  0  0  0
   57.0961   25.8505   43.8179 H   0  0  0  0  0  0  0  0  0  0  0  0
   58.7570   27.2370   43.9190 C   0  0  0  0  0  0  0  0  0  0  0  0
   59.0589   27.0633   42.8756 H   0  0  0  0  0  0  0  0  0  0  0  0
   59.4810   28.1320   44.7140 C   0  0  0  0  0  0  0  0  0  0  0  0
   60.3397   28.6715   44.2880 H   0  0  0  0  0  0  0  0  0  0  0  0
   59.1180   28.3440   46.0480 C   0  0  0  0  0  0  0  0  0  0  0  0
   59.8960   29.2620   46.8400 N   0  0  0  0  0  0  0  0  0  0  0  0
   59.9660   30.5530   46.6820 C   0  0  0  0  0  0  0  0  0  0  0  0
   58.9570   31.2470   46.0890 N   0  0  0  0  0  0  0  0  0  0  0  0
   59.0120   32.5960   45.9300 C   0  0  0  0  0  0  0  0  0  0  0  0
   57.8690   33.3000   45.2370 C   0  0  0  0  0  0  0  0  0  0  0  0
   57.0258   33.3411   45.9422 H   0  0  0  0  0  0  0  0  0  0  0  0
   58.2460   34.7400   44.8750 C   0  0  0  0  0  0  0  0  0  0  0  0
   58.3983   35.3217   45.7961 H   0  0  0  0  0  0  0  0  0  0  0  0
   59.1741   34.7387   44.2845 H   0  0  0  0  0  0  0  0  0  0  0  0
   57.4363   35.1936   44.2845 H   0  0  0  0  0  0  0  0  0  0  0  0
   57.4000   32.5210   44.0020 C   0  0  0  0  0  0  0  0  0  0  0  0
   56.8571   31.6193   44.3216 H   0  0  0  0  0  0  0  0  0  0  0  0
   56.7338   33.1557   43.3993 H   0  0  0  0  0  0  0  0  0  0  0  0
   58.2727   32.2292   43.3993 H   0  0  0  0  0  0  0  0  0  0  0  0
   60.1260   33.2950   46.4130 C   0  0  0  0  0  0  0  0  0  0  0  0
   60.1899   34.3882   46.3091 H   0  0  0  0  0  0  0  0  0  0  0  0
   61.1590   32.5740   47.0320 C   0  0  0  0  0  0  0  0  0  0  0  0
   62.3470   33.2690   47.5710 C   0  0  0  0  0  0  0  0  0  0  0  0
   62.9740   34.0770   46.8330 O   0  0  0  0  0  0  0  0  0  0  0  0
   62.7930   33.0630   48.9250 N   0  0  0  0  0  0  0  0  0  0  0  0
   62.7530   31.7250   49.5340 C   0  0  0  0  0  0  0  0  0  0  0  0
   61.9597   31.6912   50.2953 H   0  0  0  0  0  0  0  0  0  0  0  0
   62.5459   30.9729   48.7585 H   0  0  0  0  0  0  0  0  0  0  0  0
   64.1030   31.4280   50.1890 C   0  0  0  0  0  0  0  0  0  0  0  0
   64.0728   30.4184   50.6247 H   0  0  0  0  0  0  0  0  0  0  0  0
   64.8816   31.5021   49.4155 H   0  0  0  0  0  0  0  0  0  0  0  0
   64.4390   32.4520   51.3130 C   0  0  0  0  0  0  0  0  0  0  0  0
   65.9220   32.5880   51.4420 C   0  0  0  0  0  0  0  0  0  0  0  0
   66.8330   33.1510   50.5380 C   0  0  0  0  0  0  0  0  0  0  0  0
   66.4817   33.6135   49.6038 H   0  0  0  0  0  0  0  0  0  0  0  0
   68.2000   33.1140   50.8460 C   0  0  0  0  0  0  0  0  0  0  0  0
   68.9293   33.5648   50.1569 H   0  0  0  0  0  0  0  0  0  0  0  0
   68.6430   32.5020   52.0340 C   0  0  0  0  0  0  0  0  0  0  0  0
   69.7164   32.4786   52.2731 H   0  0  0  0  0  0  0  0  0  0  0  0
   67.7160   31.9220   52.9130 C   0  0  0  0  0  0  0  0  0  0  0  0
   68.0528   31.4312   53.8380 H   0  0  0  0  0  0  0  0  0  0  0  0
   66.3560   31.9790   52.5920 C   0  0  0  0  0  0  0  0  0  0  0  0
   65.3150   31.3910   53.3640 N   0  0  0  0  0  0  0  0  0  0  0  0
   65.3830   30.3470   53.2940 H   0  0  0  0  0  0  0  0  0  0  0  0
   65.3730   31.7090   54.3610 H   0  0  0  0  0  0  0  0  0  0  0  0
   64.0750   31.8720   52.7230 C   0  0  0  0  0  0  0  0  0  0  0  0
   63.6182   32.6586   53.3415 H   0  0  0  0  0  0  0  0  0  0  0  0
   63.3587   31.0439   52.6173 H   0  0  0  0  0  0  0  0  0  0  0  0
   63.7440   33.8350   51.0950 C   0  0  0  0  0  0  0  0  0  0  0  0
   62.7809   33.8279   51.6265 H   0  0  0  0  0  0  0  0  0  0  0  0
   64.4288   34.6046   51.4806 H   0  0  0  0  0  0  0  0  0  0  0  0
   63.4810   34.1650   49.6170 C   0  0  0  0  0  0  0  0  0  0  0  0
   62.8548   35.0676   49.5596 H   0  0  0  0  0  0  0  0  0  0  0  0
   64.4514   34.3252   49.1245 H   0  0  0  0  0  0  0  0  0  0  0  0
   61.0500   31.2220   47.1530 N   0  0  0  0  0  0  0  0  0  0  0  0
   57.9770   27.6990   46.5610 C   0  0  0  0  0  0  0  0  0  0  0  0
   57.6521   27.9072   47.5911 H   0  0  0  0  0  0  0  0  0  0  0  0
  1  2  1  0
  2  3  1  0
  3  4  2  0
  3  5  1  0
  5  6  2  0
  6  7  1  0
  6  8  1  0
  8  9  1  0
  8 10  2  0
 10 11  1  0
 10 12  1  0
 12 13  1  0
 13 14  2  0
 14 15  1  0
 15 16  2  0
 16 17  1  0
 17 18  1  0
 17 19  1  0
 19 20  1  0
 19 21  1  0
 19 22  1  0
 17 23  1  0
 23 24  1  0
 23 25  1  0
 23 26  1  0
 16 27  1  0
 27 28  1  0
 27 29  2  0
 29 30  1  0
 30 31  2  0
 30 32  1  0
 32 33  1  0
 33 34  1  0
 33 35  1  0
 33 36  1  0
 36 37  1  0
 36 38  1  0
 36 39  1  0
 39 40  1  0
 40 41  2  0
 41 42  1  0
 41 43  1  0
 43 44  1  0
 43 45  2  0
 45 46  1  0
 45 47  1  0
 47 48  1  0
 47 49  2  0
 49 50  1  0
 50 51  1  0
 50 52  1  0
 50 53  1  0
 53 54  1  0
 53 55  1  0
 39 56  1  0
 56 57  1  0
 56 58  1  0
 56 59  1  0
 59 60  1  0
 59 61  1  0
 29 62  1  0
 12 63  2  0
 63 64  1  0
 63  5  1  0
 62 14  1  0
 59 32  1  0
 53 39  1  0
 49 40  1  0
M  CHG  3   2  -1  50   1  62  -1
M  END
>  <UniqueID>  (68) 
65

>  <SMILES>  (68) 
CC(C)c1cc(C(=O)N2CCC3(CC2)C[NH2+]c2ccccc23)[n-]/c(=N/c2cccc(C([NH-])=O)c2)n1

>  <Energy>  (68) 
90.37460930237373

>  <Genealogy>  (68) 
CC(C)c1cc(C(=O)N2CCC3(CC2)C[NH2+]c2ccccc23)[n-]c(=Nc2cccc(C([NH-])=O)c2)n1 (protonated)
CC(C)c1cc(C(=O)N2CCC3(CC2)C[NH2+]c2ccccc23)[n-]/c(=N/c2cccc(C([NH-])=O)c2)n1 (cis-trans isomerization)
CC(C)c1cc(C(=O)N2CCC3(CC2)C[NH2+]c2ccccc23)[n-]/c(=N/c2cccc(C([NH-])=O)c2)n1 (3D coordinates assigned)
CC(C)c1cc(C(=O)N2CCC3(CC2)C[NH2+]c2ccccc23)[n-]/c(=N/c2cccc(C([NH-])=O)c2)n1 (nonaromatic ring conformer: 90.37460930237373 kcal/mol)

>  <smiles>  (68) 
CC(C)c1cc(C(=O)N2CCC3(CC2)CNc2ccccc23)[nH]c(=Nc2cccc(C(N)=O)c2)n1

>  <score_type>  (68) 
oracle

>  <origin>  (68) 
adg

>  <m_score__min__energy>  (68) 
-13.359999999999999

>  <m_primary>  (68) 
energy

$$$$
68:0
     RDKit          3D

 46 49  0  0  0  0  0  0  0  0999 V2000
   58.2750   26.2840   47.4690 O   0  0  0  0  0  0  0  0  0  0  0  0
   57.5170   26.6040   46.5050 C   0  0  0  0  0  0  0  0  0  0  0  0
   56.5110   25.7040   45.9580 C   0  0  0  0  0  0  0  0  0  0  0  0
   55.2070   26.0410   46.0760 N   0  0  0  0  0  0  0  0  0  0  0  0
   54.2250   25.3000   45.6200 N   0  0  0  0  0  0  0  0  0  0  0  0
   54.5280   24.1460   45.0030 C   0  0  0  0  0  0  0  0  0  0  0  0
   53.5720   23.4520   44.5740 O   0  0  0  0  0  0  0  0  0  0  0  0
   55.8130   23.7130   44.8320 C   0  0  0  0  0  0  0  0  0  0  0  0
   56.1190   22.5270   44.1970 C   0  0  0  0  0  0  0  0  0  0  0  0
   57.4510   22.1790   44.0750 C   0  0  0  0  0  0  0  0  0  0  0  0
   58.4780   22.9700   44.5600 C   0  0  0  0  0  0  0  0  0  0  0  0
   58.1430   24.1430   45.1860 C   0  0  0  0  0  0  0  0  0  0  0  0
   56.8300   24.5120   45.3210 C   0  0  0  0  0  0  0  0  0  0  0  0
   57.7050   27.9350   45.9630 N   0  0  0  0  0  0  0  0  0  0  0  0
   58.7370   28.7300   46.6040 C   0  0  0  0  0  0  0  0  0  0  0  0
   58.3090   30.1900   46.6200 C   0  0  0  0  0  0  0  0  0  0  0  0
   57.7030   30.6090   45.4250 N   0  0  0  0  0  0  0  0  0  0  0  0
   57.6580   32.2590   45.0860 S   0  0  0  0  0  0  0  0  0  0  0  0
   56.2770   32.7990   45.2550 O   0  0  0  0  0  0  0  0  0  0  0  0
   58.1510   32.5480   43.6750 O   0  0  0  0  0  0  0  0  0  0  0  0
   58.7870   33.0570   46.1930 C   0  0  0  0  0  0  0  0  0  0  0  0
   59.9810   33.5680   45.7860 C   0  0  0  0  0  0  0  0  0  0  0  0
   60.8280   34.1820   46.7030 C   0  0  0  0  0  0  0  0  0  0  0  0
   60.4120   34.2540   48.0380 C   0  0  0  0  0  0  0  0  0  0  0  0
   61.2120   34.8490   48.9710 F   0  0  0  0  0  0  0  0  0  0  0  0
   59.1950   33.7310   48.4380 C   0  0  0  0  0  0  0  0  0  0  0  0
   58.3510   33.1190   47.5210 C   0  0  0  0  0  0  0  0  0  0  0  0
   57.5540   29.6990   44.3590 C   0  0  0  0  0  0  0  0  0  0  0  0
   56.9010   28.4090   44.8560 C   0  0  0  0  0  0  0  0  0  0  0  0
   53.2470   25.6380   45.7560 H   0  0  0  0  0  0  0  0  0  0  0  0
   55.3257   21.8771   43.7992 H   0  0  0  0  0  0  0  0  0  0  0  0
   57.7054   21.2345   43.5717 H   0  0  0  0  0  0  0  0  0  0  0  0
   59.5295   22.6673   44.4469 H   0  0  0  0  0  0  0  0  0  0  0  0
   58.9355   24.7940   45.5836 H   0  0  0  0  0  0  0  0  0  0  0  0
   58.8837   28.3787   47.6360 H   0  0  0  0  0  0  0  0  0  0  0  0
   59.6801   28.6283   46.0470 H   0  0  0  0  0  0  0  0  0  0  0  0
   57.5930   30.3339   47.4426 H   0  0  0  0  0  0  0  0  0  0  0  0
   59.2199   30.7928   46.7495 H   0  0  0  0  0  0  0  0  0  0  0  0
   60.2771   33.4953   44.7291 H   0  0  0  0  0  0  0  0  0  0  0  0
   61.7962   34.5987   46.3885 H   0  0  0  0  0  0  0  0  0  0  0  0
   58.8931   33.8008   49.4934 H   0  0  0  0  0  0  0  0  0  0  0  0
   57.3804   32.7005   47.8258 H   0  0  0  0  0  0  0  0  0  0  0  0
   56.9211   30.1507   43.5810 H   0  0  0  0  0  0  0  0  0  0  0  0
   58.5458   29.4640   43.9453 H   0  0  0  0  0  0  0  0  0  0  0  0
   55.8732   28.6097   45.1926 H   0  0  0  0  0  0  0  0  0  0  0  0
   56.8494   27.6575   44.0544 H   0  0  0  0  0  0  0  0  0  0  0  0
  1  2  2  0
  2  3  1  0
  3  4  2  0
  4  5  1  0
  5  6  1  0
  6  7  2  0
  6  8  1  0
  8  9  2  0
  9 10  1  0
 10 11  2  0
 11 12  1  0
 12 13  2  0
  2 14  1  0
 14 15  1  0
 15 16  1  0
 16 17  1  0
 17 18  1  0
 18 19  2  0
 18 20  2  0
 18 21  1  0
 21 22  2  0
 22 23  1  0
 23 24  2  0
 24 25  1  0
 24 26  1  0
 26 27  2  0
 17 28  1  0
 28 29  1  0
 13  3  1  0
 29 14  1  0
 13  8  1  0
 27 21  1  0
  5 30  1  0
  9 31  1  0
 10 32  1  0
 11 33  1  0
 12 34  1  0
 15 35  1  0
 15 36  1  0
 16 37  1  0
 16 38  1  0
 22 39  1  0
 23 40  1  0
 26 41  1  0
 27 42  1  0
 28 43  1  0
 28 44  1  0
 29 45  1  0
 29 46  1  0
M  END
>  <smiles>  (69) 
O=C(c1n[nH]c(=O)c2ccccc12)N1CCN(S(=O)(=O)c2ccc(F)cc2)CC1

>  <score_type>  (69) 
oracle

>  <origin>  (69) 
adg

>  <m_score__min__energy>  (69) 
-9.9800000000000004

>  <m_primary>  (69) 
energy

$$$$
69:0
     RDKit          3D

 57 59  0  0  0  0  0  0  0  0999 V2000
   58.3260   27.4060   43.6770 C   0  0  0  0  0  0  0  0  0  0  0  0
   57.3670   28.0440   44.7010 C   0  0  0  0  0  0  0  0  0  0  0  0
   57.0340   27.0570   45.8260 C   0  0  0  0  0  0  0  0  0  0  0  0
   57.8520   29.3270   45.2740 N   0  0  0  0  0  0  0  0  0  0  0  0
   59.3230   29.4360   45.3780 C   0  0  0  0  0  0  0  0  0  0  0  0
   59.8000   28.8690   46.6880 C   0  0  0  0  0  0  0  0  0  0  0  0
   59.7810   29.6480   47.8570 C   0  0  0  0  0  0  0  0  0  0  0  0
   60.2240   29.1110   49.0690 C   0  0  0  0  0  0  0  0  0  0  0  0
   60.6930   27.7940   49.1220 C   0  0  0  0  0  0  0  0  0  0  0  0
   60.7210   27.0150   47.9630 C   0  0  0  0  0  0  0  0  0  0  0  0
   60.2780   27.5490   46.7480 C   0  0  0  0  0  0  0  0  0  0  0  0
   57.1790   30.7190   44.4450 S   0  0  0  0  0  0  0  0  0  0  0  0
   55.6800   30.7310   44.5680 O   0  0  0  0  0  0  0  0  0  0  0  0
   57.5300   30.6590   42.9850 O   0  0  0  0  0  0  0  0  0  0  0  0
   57.8490   32.2130   45.0970 C   0  0  0  0  0  0  0  0  0  0  0  0
   57.6960   33.4080   44.3840 C   0  0  0  0  0  0  0  0  0  0  0  0
   58.2410   34.5930   44.8780 C   0  0  0  0  0  0  0  0  0  0  0  0
   58.9520   34.5930   46.0820 C   0  0  0  0  0  0  0  0  0  0  0  0
   59.1300   33.3980   46.8050 C   0  0  0  0  0  0  0  0  0  0  0  0
   59.8830   33.3690   48.0890 C   0  0  0  0  0  0  0  0  0  0  0  0
   59.2310   33.3300   49.1720 O   0  0  0  0  0  0  0  0  0  0  0  0
   61.3320   33.4120   48.1280 N   0  0  0  0  0  0  0  0  0  0  0  0
   61.8850   33.4940   46.7590 C   0  0  0  0  0  0  0  0  0  0  0  0
   63.4090   33.7380   46.7850 C   0  0  0  0  0  0  0  0  0  0  0  0
   64.0750   33.1860   48.0560 C   0  0  0  0  0  0  0  0  0  0  0  0
   63.3460   31.9410   48.5660 C   0  0  0  0  0  0  0  0  0  0  0  0
   61.8530   32.2250   48.8530 C   0  0  0  0  0  0  0  0  0  0  0  0
   58.5640   32.2110   46.3040 C   0  0  0  0  0  0  0  0  0  0  0  0
   59.1279   26.8725   44.2085 H   0  0  0  0  0  0  0  0  0  0  0  0
   57.7698   26.6973   43.0458 H   0  0  0  0  0  0  0  0  0  0  0  0
   58.7648   28.1928   43.0458 H   0  0  0  0  0  0  0  0  0  0  0  0
   56.4559   28.2865   44.1344 H   0  0  0  0  0  0  0  0  0  0  0  0
   57.1976   27.5420   46.7997 H   0  0  0  0  0  0  0  0  0  0  0  0
   55.9817   26.7476   45.7427 H   0  0  0  0  0  0  0  0  0  0  0  0
   57.6837   26.1733   45.7427 H   0  0  0  0  0  0  0  0  0  0  0  0
   59.7871   28.8782   44.5512 H   0  0  0  0  0  0  0  0  0  0  0  0
   59.6067   30.4974   45.3243 H   0  0  0  0  0  0  0  0  0  0  0  0
   59.4159   30.6849   47.8183 H   0  0  0  0  0  0  0  0  0  0  0  0
   60.2039   29.7244   49.9819 H   0  0  0  0  0  0  0  0  0  0  0  0
   61.0398   27.3719   50.0767 H   0  0  0  0  0  0  0  0  0  0  0  0
   61.0918   25.9803   48.0055 H   0  0  0  0  0  0  0  0  0  0  0  0
   60.3040   26.9334   45.8367 H   0  0  0  0  0  0  0  0  0  0  0  0
   57.1448   33.4124   43.4321 H   0  0  0  0  0  0  0  0  0  0  0  0
   58.1110   35.5310   44.3184 H   0  0  0  0  0  0  0  0  0  0  0  0
   59.3750   35.5327   46.4668 H   0  0  0  0  0  0  0  0  0  0  0  0
   61.6300   34.2810   48.6300 H   0  0  0  0  0  0  0  0  0  0  0  0
   61.6820   32.5494   46.2331 H   0  0  0  0  0  0  0  0  0  0  0  0
   61.4064   34.3379   46.2405 H   0  0  0  0  0  0  0  0  0  0  0  0
   63.8593   33.2469   45.9097 H   0  0  0  0  0  0  0  0  0  0  0  0
   63.5724   34.8257   46.7690 H   0  0  0  0  0  0  0  0  0  0  0  0
   65.1187   32.9230   47.8290 H   0  0  0  0  0  0  0  0  0  0  0  0
   64.0312   33.9598   48.8366 H   0  0  0  0  0  0  0  0  0  0  0  0
   63.4178   31.1499   47.8050 H   0  0  0  0  0  0  0  0  0  0  0  0
   63.8212   31.6290   49.5077 H   0  0  0  0  0  0  0  0  0  0  0  0
   61.2657   31.3454   48.5507 H   0  0  0  0  0  0  0  0  0  0  0  0
   61.7615   32.4338   49.9291 H   0  0  0  0  0  0  0  0  0  0  0  0
   58.6834   31.2721   46.8645 H   0  0  0  0  0  0  0  0  0  0  0  0
  1  2  1  0
  2  3  1  0
  2  4  1  0
  4  5  1  0
  5  6  1  0
  6  7  2  0
  7  8  1  0
  8  9  2  0
  9 10  1  0
 10 11  2  0
  4 12  1  0
 12 13  2  0
 12 14  2  0
 12 15  1  0
 15 16  2  0
 16 17  1  0
 17 18  2  0
 18 19  1  0
 19 20  1  0
 20 21  2  0
 20 22  1  0
 22 23  1  0
 23 24  1  0
 24 25  1  0
 25 26  1  0
 26 27  1  0
 19 28  2  0
 11  6  1  0
 28 15  1  0
 27 22  1  0
  1 29  1  0
  1 30  1  0
  1 31  1  0
  2 32  1  0
  3 33  1  0
  3 34  1  0
  3 35  1  0
  5 36  1  0
  5 37  1  0
  7 38  1  0
  8 39  1  0
  9 40  1  0
 10 41  1  0
 11 42  1  0
 16 43  1  0
 17 44  1  0
 18 45  1  0
 22 46  1  0
 23 47  1  0
 23 48  1  0
 24 49  1  0
 24 50  1  0
 25 51  1  0
 25 52  1  0
 26 53  1  0
 26 54  1  0
 27 55  1  0
 27 56  1  0
 28 57  1  0
M  CHG  1  22   1
M  END
>  <UniqueID>  (70) 
66

>  <SMILES>  (70) 
CC(C)N(Cc1ccccc1)S(=O)(=O)c1cccc(C(=O)[NH+]2CCCCC2)c1

>  <Energy>  (70) 
67.75604564050755

>  <Genealogy>  (70) 
CC(C)N(Cc1ccccc1)S(=O)(=O)c1cccc(C(=O)[NH+]2CCCCC2)c1 (protonated)
CC(C)N(Cc1ccccc1)S(=O)(=O)c1cccc(C(=O)[NH+]2CCCCC2)c1 (3D coordinates assigned)
CC(C)N(Cc1ccccc1)S(=O)(=O)c1cccc(C(=O)[NH+]2CCCCC2)c1 (nonaromatic ring conformer: 67.75604564050755 kcal/mol)

>  <smiles>  (70) 
CC(C)N(Cc1ccccc1)S(=O)(=O)c1cccc(C(=O)N2CCCCC2)c1

>  <score_type>  (70) 
oracle

>  <origin>  (70) 
adg

>  <m_score__min__energy>  (70) 
-8.1899999999999995

>  <m_primary>  (70) 
energy

$$$$
70:0
     RDKit          3D

 47 49  0  0  0  0  0  0  0  0999 V2000
   55.2250   29.4590   44.7890 N   0  0  0  0  0  0  0  0  0  0  0  0
   56.6550   29.4860   44.8790 C   0  0  0  0  0  0  0  0  0  0  0  0
   57.3660   28.2770   44.9150 C   0  0  0  0  0  0  0  0  0  0  0  0
   58.7600   28.2780   45.0020 C   0  0  0  0  0  0  0  0  0  0  0  0
   59.4550   29.4860   45.0460 C   0  0  0  0  0  0  0  0  0  0  0  0
   58.7600   30.6960   45.0100 C   0  0  0  0  0  0  0  0  0  0  0  0
   57.3540   30.7090   44.9460 C   0  0  0  0  0  0  0  0  0  0  0  0
   56.6290   31.9480   44.8920 N   0  0  0  0  0  0  0  0  0  0  0  0
   57.1420   33.2450   45.2250 C   0  0  0  0  0  0  0  0  0  0  0  0
   56.4680   34.2600   44.9020 O   0  0  0  0  0  0  0  0  0  0  0  0
   58.4060   33.4210   45.9790 C   0  0  0  0  0  0  0  0  0  0  0  0
   58.4630   33.0980   47.3440 C   0  0  0  0  0  0  0  0  0  0  0  0
   59.6520   33.2620   48.0610 C   0  0  0  0  0  0  0  0  0  0  0  0
   60.8020   33.7570   47.4300 C   0  0  0  0  0  0  0  0  0  0  0  0
   62.0150   33.9000   48.1880 N   0  0  0  0  0  0  0  0  0  0  0  0
   63.3160   33.5360   47.7060 C   0  0  0  0  0  0  0  0  0  0  0  0
   63.4970   33.2900   46.4810 O   0  0  0  0  0  0  0  0  0  0  0  0
   64.3980   33.5490   48.5950 O   0  0  0  0  0  0  0  0  0  0  0  0
   64.5710   32.6340   49.6200 N   0  0  0  0  0  0  0  0  0  0  0  0
   63.7590   32.5040   50.6270 C   0  0  0  0  0  0  0  0  0  0  0  0
   62.4320   31.8790   50.4570 C   0  0  0  0  0  0  0  0  0  0  0  0
   62.2610   30.8820   49.4840 C   0  0  0  0  0  0  0  0  0  0  0  0
   61.0150   30.2730   49.3030 C   0  0  0  0  0  0  0  0  0  0  0  0
   59.9160   30.6490   50.0940 C   0  0  0  0  0  0  0  0  0  0  0  0
   58.6350   30.0200   49.9060 N   0  0  0  0  0  0  0  0  0  0  0  0
   57.7720   30.0470   50.8090 O   0  0  0  0  0  0  0  0  0  0  0  0
   58.3390   29.3770   48.7260 O   0  0  0  0  0  0  0  0  0  0  0  0
   60.0890   31.6470   51.0690 C   0  0  0  0  0  0  0  0  0  0  0  0
   61.3350   32.2550   51.2500 C   0  0  0  0  0  0  0  0  0  0  0  0
   60.7570   34.0420   46.0550 C   0  0  0  0  0  0  0  0  0  0  0  0
   59.5700   33.8770   45.3360 C   0  0  0  0  0  0  0  0  0  0  0  0
   54.6460   30.2980   45.0180 H   0  0  0  0  0  0  0  0  0  0  0  0
   54.7270   28.5900   44.4930 H   0  0  0  0  0  0  0  0  0  0  0  0
   56.8219   27.3219   44.8744 H   0  0  0  0  0  0  0  0  0  0  0  0
   59.3096   27.3257   45.0358 H   0  0  0  0  0  0  0  0  0  0  0  0
   60.5532   29.4854   45.1092 H   0  0  0  0  0  0  0  0  0  0  0  0
   59.3148   31.6456   45.0318 H   0  0  0  0  0  0  0  0  0  0  0  0
   57.5666   32.7135   47.8526 H   0  0  0  0  0  0  0  0  0  0  0  0
   59.6855   33.0005   49.1289 H   0  0  0  0  0  0  0  0  0  0  0  0
   61.9650   34.3680   49.1210 H   0  0  0  0  0  0  0  0  0  0  0  0
   64.0650   32.8648   51.6201 H   0  0  0  0  0  0  0  0  0  0  0  0
   63.1134   30.5773   48.8591 H   0  0  0  0  0  0  0  0  0  0  0  0
   60.8944   29.4940   48.5358 H   0  0  0  0  0  0  0  0  0  0  0  0
   59.2371   31.9520   51.6946 H   0  0  0  0  0  0  0  0  0  0  0  0
   61.4571   33.0327   52.0183 H   0  0  0  0  0  0  0  0  0  0  0  0
   61.6622   34.3974   45.5409 H   0  0  0  0  0  0  0  0  0  0  0  0
   59.5464   34.1054   44.2602 H   0  0  0  0  0  0  0  0  0  0  0  0
  1  2  1  0
  2  3  2  0
  3  4  1  0
  4  5  2  0
  5  6  1  0
  6  7  2  0
  7  8  1  0
  8  9  1  0
  9 10  2  0
  9 11  1  0
 11 12  2  0
 12 13  1  0
 13 14  2  0
 14 15  1  0
 15 16  1  0
 16 17  2  0
 16 18  1  0
 18 19  1  0
 19 20  2  3
 20 21  1  0
 21 22  2  0
 22 23  1  0
 23 24  2  0
 24 25  1  0
 25 26  2  0
 25 27  1  0
 24 28  1  0
 28 29  2  0
 14 30  1  0
 30 31  2  0
  7  2  1  0
 31 11  1  0
 29 21  1  0
  1 32  1  0
  1 33  1  0
  3 34  1  0
  4 35  1  0
  5 36  1  0
  6 37  1  0
 12 38  1  0
 13 39  1  0
 15 40  1  0
 20 41  1  0
 22 42  1  0
 23 43  1  0
 28 44  1  0
 29 45  1  0
 30 46  1  0
 31 47  1  0
M  CHG  3   8  -1  25   1  27  -1
M  END
>  <UniqueID>  (71) 
67

>  <SMILES>  (71) 
Nc1ccccc1[N-]C(=O)c1ccc(NC(=O)ON=Cc2ccc([N+](=O)[O-])cc2)cc1

>  <Energy>  (71) 
66.0137071083937

>  <Genealogy>  (71) 
Nc1ccccc1[N-]C(=O)c1ccc(NC(=O)ON=Cc2ccc([N+](=O)[O-])cc2)cc1 (protonated)
Nc1ccccc1[N-]C(=O)c1ccc(NC(=O)ON=Cc2ccc([N+](=O)[O-])cc2)cc1 (3D coordinates assigned)
Nc1ccccc1[N-]C(=O)c1ccc(NC(=O)ON=Cc2ccc([N+](=O)[O-])cc2)cc1 (optimized conformer: 66.0137071083937 kcal/mol)

>  <smiles>  (71) 
Nc1ccccc1NC(=O)c1ccc(NC(=O)ON=Cc2ccc([N+](=O)[O-])cc2)cc1

>  <score_type>  (71) 
oracle

>  <origin>  (71) 
adg

>  <m_score__min__energy>  (71) 
-10.41

>  <m_primary>  (71) 
energy

$$$$
71:0
     RDKit          3D

 44 46  0  0  0  0  0  0  0  0999 V2000
   55.1450   26.7130   45.9830 N   0  0  0  0  0  0  0  0  0  0  0  0
   56.1970   25.8590   46.4320 C   0  0  0  0  0  0  0  0  0  0  0  0
   55.9430   24.6470   46.6720 O   0  0  0  0  0  0  0  0  0  0  0  0
   57.5660   26.3910   46.6250 C   0  0  0  0  0  0  0  0  0  0  0  0
   58.6780   25.7150   46.0910 C   0  0  0  0  0  0  0  0  0  0  0  0
   59.9640   26.2340   46.2490 C   0  0  0  0  0  0  0  0  0  0  0  0
   60.1590   27.4340   46.9350 C   0  0  0  0  0  0  0  0  0  0  0  0
   59.0660   28.1160   47.4910 C   0  0  0  0  0  0  0  0  0  0  0  0
   59.2650   29.4550   48.1470 C   0  0  0  0  0  0  0  0  0  0  0  0
   60.5370   29.4550   48.8570 N   0  0  0  0  0  0  0  0  0  0  0  0
   61.4680   30.5360   48.7710 C   0  0  0  0  0  0  0  0  0  0  0  0
   62.0300   30.9780   49.8080 O   0  0  0  0  0  0  0  0  0  0  0  0
   61.6720   31.2210   47.4600 C   0  0  0  0  0  0  0  0  0  0  0  0
   60.6990   32.3630   47.3570 C   0  0  0  0  0  0  0  0  0  0  0  0
   59.6380   32.2220   46.5170 N   0  0  0  0  0  0  0  0  0  0  0  0
   58.6430   33.1420   46.4090 C   0  0  0  0  0  0  0  0  0  0  0  0
   57.6560   32.8820   45.5990 N   0  0  0  0  0  0  0  0  0  0  0  0
   57.6850   32.2930   44.2880 C   0  0  0  0  0  0  0  0  0  0  0  0
   57.6910   33.0080   43.2510 O   0  0  0  0  0  0  0  0  0  0  0  0
   57.7890   30.8340   44.1570 C   0  0  0  0  0  0  0  0  0  0  0  0
   58.9120   30.0660   44.4400 C   0  0  0  0  0  0  0  0  0  0  0  0
   58.7080   28.6950   44.2360 C   0  0  0  0  0  0  0  0  0  0  0  0
   57.4300   28.3800   43.7950 C   0  0  0  0  0  0  0  0  0  0  0  0
   56.5520   29.8090   43.6590 S   0  0  0  0  0  0  0  0  0  0  0  0
   58.6950   34.2940   47.2180 C   0  0  0  0  0  0  0  0  0  0  0  0
   59.7660   34.4670   48.0950 C   0  0  0  0  0  0  0  0  0  0  0  0
   60.7700   33.5030   48.1910 C   0  0  0  0  0  0  0  0  0  0  0  0
   61.7910   33.6980   49.1220 O   0  0  0  0  0  0  0  0  0  0  0  0
   57.7720   27.5930   47.3280 C   0  0  0  0  0  0  0  0  0  0  0  0
   55.1690   27.1390   45.0290 H   0  0  0  0  0  0  0  0  0  0  0  0
   58.5331   24.7710   45.5452 H   0  0  0  0  0  0  0  0  0  0  0  0
   60.8273   25.6953   45.8313 H   0  0  0  0  0  0  0  0  0  0  0  0
   61.1733   27.8465   47.0401 H   0  0  0  0  0  0  0  0  0  0  0  0
   59.2716   30.2434   47.3799 H   0  0  0  0  0  0  0  0  0  0  0  0
   58.4456   29.6453   48.8558 H   0  0  0  0  0  0  0  0  0  0  0  0
   62.7011   31.6047   47.3989 H   0  0  0  0  0  0  0  0  0  0  0  0
   61.5060   30.5113   46.6361 H   0  0  0  0  0  0  0  0  0  0  0  0
   59.8646   30.4914   44.7888 H   0  0  0  0  0  0  0  0  0  0  0  0
   59.4878   27.9387   44.4091 H   0  0  0  0  0  0  0  0  0  0  0  0
   57.0556   27.3699   43.5727 H   0  0  0  0  0  0  0  0  0  0  0  0
   57.8984   35.0502   47.1588 H   0  0  0  0  0  0  0  0  0  0  0  0
   59.8195   35.3726   48.7171 H   0  0  0  0  0  0  0  0  0  0  0  0
   62.1300   32.9740   49.7400 H   0  0  0  0  0  0  0  0  0  0  0  0
   56.9109   28.1286   47.7543 H   0  0  0  0  0  0  0  0  0  0  0  0
  1  2  1  0
  2  3  2  0
  2  4  1  0
  4  5  2  0
  5  6  1  0
  6  7  2  0
  7  8  1  0
  8  9  1  0
  9 10  1  0
 10 11  1  0
 11 12  2  0
 11 13  1  0
 13 14  1  0
 14 15  1  0
 15 16  1  0
 16 17  2  3
 17 18  1  0
 18 19  2  0
 18 20  1  0
 20 21  2  0
 21 22  1  0
 22 23  2  0
 23 24  1  0
 16 25  1  0
 25 26  2  0
 26 27  1  0
 27 28  1  0
  8 29  2  0
 29  4  1  0
 27 14  2  0
 24 20  1  0
  1 30  1  0
  5 31  1  0
  6 32  1  0
  7 33  1  0
  9 34  1  0
  9 35  1  0
 13 36  1  0
 13 37  1  0
 21 38  1  0
 22 39  1  0
 23 40  1  0
 25 41  1  0
 26 42  1  0
 28 43  1  0
 29 44  1  0
M  CHG  3   1  -1  10  -1  15  -1
M  END
>  <UniqueID>  (72) 
68

>  <SMILES>  (72) 
[NH-]C(=O)c1cccc(C[N-]C(=O)Cc2[n-]c(=NC(=O)c3cccs3)ccc2O)c1

>  <Energy>  (72) 
73.01730967084313

>  <Genealogy>  (72) 
[NH-]C(=O)c1cccc(C[N-]C(=O)Cc2[n-]c(=NC(=O)c3cccs3)ccc2O)c1 (protonated)
[NH-]C(=O)c1cccc(C[N-]C(=O)Cc2[n-]c(=NC(=O)c3cccs3)ccc2O)c1 (3D coordinates assigned)
[NH-]C(=O)c1cccc(C[N-]C(=O)Cc2[n-]c(=NC(=O)c3cccs3)ccc2O)c1 (optimized conformer: 73.01730967084313 kcal/mol)

>  <smiles>  (72) 
NC(=O)c1cccc(CNC(=O)Cc2[nH]c(=NC(=O)c3cccs3)ccc2O)c1

>  <score_type>  (72) 
oracle

>  <origin>  (72) 
adg

>  <m_score__min__energy>  (72) 
-14.470000000000001

>  <m_primary>  (72) 
energy

$$$$
72:0
     RDKit          3D

 52 55  0  0  0  0  0  0  0  0999 V2000
   60.5260   26.3910   48.0500 C   0  0  0  0  0  0  0  0  0  0  0  0
   59.9820   27.6180   48.0600 C   0  0  0  0  0  0  0  0  0  0  0  0
   59.1260   28.1710   47.0920 C   0  0  0  0  0  0  0  0  0  0  0  0
   58.4960   27.6110   46.0410 C   0  0  0  0  0  0  0  0  0  0  0  0
   57.2260   26.8710   46.0960 C   0  0  0  0  0  0  0  0  0  0  0  0
   57.1390   25.5790   46.4600 N   0  0  0  0  0  0  0  0  0  0  0  0
   55.8330   25.2890   46.2730 C   0  0  0  0  0  0  0  0  0  0  0  0
   55.3480   24.1550   46.5230 O   0  0  0  0  0  0  0  0  0  0  0  0
   55.0900   26.3070   45.7870 N   0  0  0  0  0  0  0  0  0  0  0  0
   55.9870   27.2990   45.6640 C   0  0  0  0  0  0  0  0  0  0  0  0
   55.6750   28.5510   45.1440 O   0  0  0  0  0  0  0  0  0  0  0  0
   59.0060   29.5130   47.4040 C   0  0  0  0  0  0  0  0  0  0  0  0
   59.7230   29.7230   48.5630 C   0  0  0  0  0  0  0  0  0  0  0  0
   59.8810   31.0340   49.2270 C   0  0  0  0  0  0  0  0  0  0  0  0
   59.1810   31.2760   50.2480 O   0  0  0  0  0  0  0  0  0  0  0  0
   60.7950   32.0360   48.7240 N   0  0  0  0  0  0  0  0  0  0  0  0
   60.9730   33.3090   49.4410 C   0  0  0  0  0  0  0  0  0  0  0  0
   60.3680   34.4450   48.6080 C   0  0  0  0  0  0  0  0  0  0  0  0
   60.6800   34.2810   47.1790 N   0  0  0  0  0  0  0  0  0  0  0  0
   59.9180   35.0380   46.2130 C   0  0  0  0  0  0  0  0  0  0  0  0
   59.3980   36.1340   46.5580 O   0  0  0  0  0  0  0  0  0  0  0  0
   59.6860   34.5460   44.8100 C   0  0  0  0  0  0  0  0  0  0  0  0
   58.8240   33.3170   44.7930 C   0  0  0  0  0  0  0  0  0  0  0  0
   58.2560   32.7440   43.6630 C   0  0  0  0  0  0  0  0  0  0  0  0
   57.4760   31.6150   43.9480 C   0  0  0  0  0  0  0  0  0  0  0  0
   57.4190   31.3040   45.3000 C   0  0  0  0  0  0  0  0  0  0  0  0
   58.3340   32.4360   46.1440 S   0  0  0  0  0  0  0  0  0  0  0  0
   61.7050   33.3010   46.7830 C   0  0  0  0  0  0  0  0  0  0  0  0
   61.3510   31.9240   47.3620 C   0  0  0  0  0  0  0  0  0  0  0  0
   60.3010   28.5700   48.9750 N   0  0  0  0  0  0  0  0  0  0  0  0
   61.1670   28.4100   50.1490 C   0  0  0  0  0  0  0  0  0  0  0  0
   61.1844   26.0746   48.8724 H   0  0  0  0  0  0  0  0  0  0  0  0
   60.3134   25.7019   47.2194 H   0  0  0  0  0  0  0  0  0  0  0  0
   58.9731   27.7164   45.0555 H   0  0  0  0  0  0  0  0  0  0  0  0
   54.7660   28.9720   45.2890 H   0  0  0  0  0  0  0  0  0  0  0  0
   58.4450   30.2694   46.8355 H   0  0  0  0  0  0  0  0  0  0  0  0
   60.4654   33.2566   50.4155 H   0  0  0  0  0  0  0  0  0  0  0  0
   62.0451   33.4973   49.5997 H   0  0  0  0  0  0  0  0  0  0  0  0
   59.2759   34.4440   48.7393 H   0  0  0  0  0  0  0  0  0  0  0  0
   60.7989   35.3969   48.9518 H   0  0  0  0  0  0  0  0  0  0  0  0
   59.1897   35.3386   44.2308 H   0  0  0  0  0  0  0  0  0  0  0  0
   60.6605   34.2900   44.3687 H   0  0  0  0  0  0  0  0  0  0  0  0
   58.4034   33.1367   42.6461 H   0  0  0  0  0  0  0  0  0  0  0  0
   56.9578   31.0304   43.1736 H   0  0  0  0  0  0  0  0  0  0  0  0
   56.8692   30.4610   45.7438 H   0  0  0  0  0  0  0  0  0  0  0  0
   61.7461   33.2373   45.6856 H   0  0  0  0  0  0  0  0  0  0  0  0
   62.6842   33.6195   47.1700 H   0  0  0  0  0  0  0  0  0  0  0  0
   60.6064   31.4432   46.7105 H   0  0  0  0  0  0  0  0  0  0  0  0
   62.2719   31.3246   47.4137 H   0  0  0  0  0  0  0  0  0  0  0  0
   60.5675   28.5208   51.0646 H   0  0  0  0  0  0  0  0  0  0  0  0
   61.6281   27.4115   50.1312 H   0  0  0  0  0  0  0  0  0  0  0  0
   61.9544   29.1779   50.1312 H   0  0  0  0  0  0  0  0  0  0  0  0
  1  2  2  0
  2  3  1  0
  3  4  2  3
  4  5  1  0
  5  6  1  0
  6  7  1  0
  7  8  2  0
  7  9  1  0
  9 10  1  0
 10 11  1  0
  3 12  1  0
 12 13  2  0
 13 14  1  0
 14 15  2  0
 14 16  1  0
 16 17  1  0
 17 18  1  0
 18 19  1  0
 19 20  1  0
 20 21  2  0
 20 22  1  0
 22 23  1  0
 23 24  2  0
 24 25  1  0
 25 26  2  0
 26 27  1  0
 19 28  1  0
 28 29  1  0
 13 30  1  0
 30 31  1  0
 30  2  1  0
 10  5  2  0
 29 16  1  0
 27 23  1  0
  1 32  1  0
  1 33  1  0
  4 34  1  0
 11 35  1  0
 12 36  1  0
 17 37  1  0
 17 38  1  0
 18 39  1  0
 18 40  1  0
 22 41  1  0
 22 42  1  0
 24 43  1  0
 25 44  1  0
 26 45  1  0
 28 46  1  0
 28 47  1  0
 29 48  1  0
 29 49  1  0
 31 50  1  0
 31 51  1  0
 31 52  1  0
M  CHG  2   6  -1   9  -1
M  END
>  <UniqueID>  (73) 
69

>  <SMILES>  (73) 
C=c1c(=Cc2[n-]c(=O)[n-]c2O)cc(C(=O)N2CCN(C(=O)Cc3cccs3)CC2)n1C

>  <Energy>  (73) 
153.05814557717068

>  <Genealogy>  (73) 
C=c1c(=Cc2[n-]c(=O)[n-]c2O)cc(C(=O)N2CCN(C(=O)Cc3cccs3)CC2)n1C (protonated)
C=c1c(=Cc2[n-]c(=O)[n-]c2O)cc(C(=O)N2CCN(C(=O)Cc3cccs3)CC2)n1C (3D coordinates assigned)
C=c1c(=Cc2[n-]c(=O)[n-]c2O)cc(C(=O)N2CCN(C(=O)Cc3cccs3)CC2)n1C (nonaromatic ring conformer: 153.05814557717068 kcal/mol)

>  <smiles>  (73) 
C=c1c(=Cc2[nH]c(=O)[nH]c2O)cc(C(=O)N2CCN(C(=O)Cc3cccs3)CC2)n1C

>  <score_type>  (73) 
oracle

>  <origin>  (73) 
adg

>  <m_score__min__energy>  (73) 
-13.949999999999999

>  <m_primary>  (73) 
energy

$$$$
73:0
     RDKit          3D

 58 61  0  0  0  0  0  0  0  0999 V2000
   57.2150   19.8800   46.2420 C   0  0  0  0  0  0  0  0  0  0  0  0
   56.3510   19.8590   45.2240 C   0  0  0  0  0  0  0  0  0  0  0  0
   56.2720   20.9500   44.2290 C   0  0  0  0  0  0  0  0  0  0  0  0
   56.2400   20.6780   42.9970 O   0  0  0  0  0  0  0  0  0  0  0  0
   56.2790   22.3270   44.6500 N   0  0  0  0  0  0  0  0  0  0  0  0
   56.8760   23.3550   43.7870 C   0  0  0  0  0  0  0  0  0  0  0  0
   57.6440   24.3700   44.6380 C   0  0  0  0  0  0  0  0  0  0  0  0
   56.8100   24.8090   45.7610 N   0  0  0  0  0  0  0  0  0  0  0  0
   56.4080   26.1850   45.8890 C   0  0  0  0  0  0  0  0  0  0  0  0
   55.1820   26.4550   45.9850 O   0  0  0  0  0  0  0  0  0  0  0  0
   57.4070   27.2820   45.9010 C   0  0  0  0  0  0  0  0  0  0  0  0
   58.7200   27.0450   46.3460 C   0  0  0  0  0  0  0  0  0  0  0  0
   59.6680   28.0730   46.3420 C   0  0  0  0  0  0  0  0  0  0  0  0
   59.3300   29.3490   45.8770 C   0  0  0  0  0  0  0  0  0  0  0  0
   60.3070   30.3560   45.8850 O   0  0  0  0  0  0  0  0  0  0  0  0
   60.5620   31.2230   46.9580 C   0  0  0  0  0  0  0  0  0  0  0  0
   61.8870   31.4240   47.3680 C   0  0  0  0  0  0  0  0  0  0  0  0
   62.1760   32.2800   48.4360 C   0  0  0  0  0  0  0  0  0  0  0  0
   61.1430   32.9720   49.0900 C   0  0  0  0  0  0  0  0  0  0  0  0
   61.4520   33.8560   50.2320 C   0  0  0  0  0  0  0  0  0  0  0  0
   62.2920   34.7820   50.0820 O   0  0  0  0  0  0  0  0  0  0  0  0
   60.8340   33.6880   51.5170 N   0  0  0  0  0  0  0  0  0  0  0  0
   59.4110   33.8500   51.7920 C   0  0  0  0  0  0  0  0  0  0  0  0
   58.7440   32.5120   51.8280 C   0  0  0  0  0  0  0  0  0  0  0  0
   59.3590   31.2830   51.6000 C   0  0  0  0  0  0  0  0  0  0  0  0
   58.4570   30.2080   51.6070 C   0  0  0  0  0  0  0  0  0  0  0  0
   57.1370   30.5870   51.8290 C   0  0  0  0  0  0  0  0  0  0  0  0
   57.0880   32.2610   52.0090 S   0  0  0  0  0  0  0  0  0  0  0  0
   59.8160   32.7680   48.6830 C   0  0  0  0  0  0  0  0  0  0  0  0
   59.5310   31.9160   47.6120 C   0  0  0  0  0  0  0  0  0  0  0  0
   58.0140   29.5960   45.4490 C   0  0  0  0  0  0  0  0  0  0  0  0
   57.0670   28.5700   45.4460 C   0  0  0  0  0  0  0  0  0  0  0  0
   56.2240   23.7800   46.6250 C   0  0  0  0  0  0  0  0  0  0  0  0
   55.4410   22.7800   45.7730 C   0  0  0  0  0  0  0  0  0  0  0  0
   57.2399   19.0466   46.9595 H   0  0  0  0  0  0  0  0  0  0  0  0
   57.9018   20.7307   46.3630 H   0  0  0  0  0  0  0  0  0  0  0  0
   55.6733   18.9986   45.1219 H   0  0  0  0  0  0  0  0  0  0  0  0
   57.5671   22.8780   43.0765 H   0  0  0  0  0  0  0  0  0  0  0  0
   56.0770   23.8746   43.2378 H   0  0  0  0  0  0  0  0  0  0  0  0
   58.5611   23.9021   45.0253 H   0  0  0  0  0  0  0  0  0  0  0  0
   57.9051   25.2401   44.0178 H   0  0  0  0  0  0  0  0  0  0  0  0
   59.0035   26.0429   46.7001 H   0  0  0  0  0  0  0  0  0  0  0  0
   60.6870   27.8773   46.7071 H   0  0  0  0  0  0  0  0  0  0  0  0
   62.7050   30.9053   46.8466 H   0  0  0  0  0  0  0  0  0  0  0  0
   63.2172   32.4119   48.7654 H   0  0  0  0  0  0  0  0  0  0  0  0
   59.2818   34.3482   52.7642 H   0  0  0  0  0  0  0  0  0  0  0  0
   58.9559   34.4603   50.9980 H   0  0  0  0  0  0  0  0  0  0  0  0
   60.4399   31.1672   51.4319 H   0  0  0  0  0  0  0  0  0  0  0  0
   58.7649   29.1635   51.4515 H   0  0  0  0  0  0  0  0  0  0  0  0
   56.2724   29.9088   51.8786 H   0  0  0  0  0  0  0  0  0  0  0  0
   58.9967   33.2804   49.2086 H   0  0  0  0  0  0  0  0  0  0  0  0
   58.4905   31.7875   47.2790 H   0  0  0  0  0  0  0  0  0  0  0  0
   57.7284   30.6042   45.1143 H   0  0  0  0  0  0  0  0  0  0  0  0
   56.0472   28.7697   45.0852 H   0  0  0  0  0  0  0  0  0  0  0  0
   57.0260   23.2535   47.1631 H   0  0  0  0  0  0  0  0  0  0  0  0
   55.5447   24.2540   47.3488 H   0  0  0  0  0  0  0  0  0  0  0  0
   55.1578   21.9151   46.3909 H   0  0  0  0  0  0  0  0  0  0  0  0
   54.5345   23.2643   45.3809 H   0  0  0  0  0  0  0  0  0  0  0  0
  1  2  2  0
  2  3  1  0
  3  4  2  0
  3  5  1  0
  5  6  1  0
  6  7  1  0
  7  8  1  0
  8  9  1  0
  9 10  2  0
  9 11  1  0
 11 12  2  0
 12 13  1  0
 13 14  2  0
 14 15  1  0
 15 16  1  0
 16 17  2  0
 17 18  1  0
 18 19  2  0
 19 20  1  0
 20 21  2  0
 20 22  1  0
 22 23  1  0
 23 24  1  0
 24 25  2  0
 25 26  1  0
 26 27  2  0
 27 28  1  0
 19 29  1  0
 29 30  2  0
 14 31  1  0
 31 32  2  0
  8 33  1  0
 33 34  1  0
 34  5  1  0
 32 11  1  0
 30 16  1  0
 28 24  1  0
  1 35  1  0
  1 36  1  0
  2 37  1  0
  6 38  1  0
  6 39  1  0
  7 40  1  0
  7 41  1  0
 12 42  1  0
 13 43  1  0
 17 44  1  0
 18 45  1  0
 23 46  1  0
 23 47  1  0
 25 48  1  0
 26 49  1  0
 27 50  1  0
 29 51  1  0
 30 52  1  0
 31 53  1  0
 32 54  1  0
 33 55  1  0
 33 56  1  0
 34 57  1  0
 34 58  1  0
M  CHG  1  22  -1
M  END
>  <UniqueID>  (74) 
70

>  <SMILES>  (74) 
C=CC(=O)N1CCN(C(=O)c2ccc(Oc3ccc(C(=O)[N-]Cc4cccs4)cc3)cc2)CC1

>  <Energy>  (74) 
101.71127042468503

>  <Genealogy>  (74) 
C=CC(=O)N1CCN(C(=O)c2ccc(Oc3ccc(C(=O)[N-]Cc4cccs4)cc3)cc2)CC1 (protonated)
C=CC(=O)N1CCN(C(=O)c2ccc(Oc3ccc(C(=O)[N-]Cc4cccs4)cc3)cc2)CC1 (3D coordinates assigned)
C=CC(=O)N1CCN(C(=O)c2ccc(Oc3ccc(C(=O)[N-]Cc4cccs4)cc3)cc2)CC1 (nonaromatic ring conformer: 101.71127042468503 kcal/mol)

>  <smiles>  (74) 
C=CC(=O)N1CCN(C(=O)c2ccc(Oc3ccc(C(=O)NCc4cccs4)cc3)cc2)CC1

>  <score_type>  (74) 
oracle

>  <origin>  (74) 
adg

>  <m_score__min__energy>  (74) 
-10.52

>  <m_primary>  (74) 
energy

$$$$
74:0
     RDKit          3D

 63 66  0  0  0  0  0  0  0  0999 V2000
   59.2870   34.7470   47.7080 C   0  0  0  0  0  0  0  0  0  0  0  0
   58.9320   33.8680   46.5860 N   0  0  0  0  0  0  0  0  0  0  0  0
   59.2200   34.5190   45.2920 C   0  0  0  0  0  0  0  0  0  0  0  0
   58.8540   33.5880   44.1230 C   0  0  0  0  0  0  0  0  0  0  0  0
   58.3170   32.2990   44.6020 N   0  0  0  0  0  0  0  0  0  0  0  0
   57.9590   31.3960   43.4810 C   0  0  0  0  0  0  0  0  0  0  0  0
   56.5020   30.8840   43.6170 C   0  0  0  0  0  0  0  0  0  0  0  0
   56.3430   29.6630   44.4990 C   0  0  0  0  0  0  0  0  0  0  0  0
   55.1920   29.3050   44.8730 O   0  0  0  0  0  0  0  0  0  0  0  0
   57.4620   28.8640   44.9320 N   0  0  0  0  0  0  0  0  0  0  0  0
   58.3320   28.9760   46.0740 C   0  0  0  0  0  0  0  0  0  0  0  0
   58.2050   28.0150   47.0850 C   0  0  0  0  0  0  0  0  0  0  0  0
   59.0040   28.0720   48.2260 C   0  0  0  0  0  0  0  0  0  0  0  0
   59.9690   29.0900   48.3800 C   0  0  0  0  0  0  0  0  0  0  0  0
   60.7630   29.1900   49.5440 C   0  0  0  0  0  0  0  0  0  0  0  0
   60.7180   28.1910   50.6300 C   0  0  0  0  0  0  0  0  0  0  0  0
   61.1470   27.0250   50.4260 O   0  0  0  0  0  0  0  0  0  0  0  0
   60.2070   28.5680   51.9140 N   0  0  0  0  0  0  0  0  0  0  0  0
   58.9490   29.2880   52.1140 C   0  0  0  0  0  0  0  0  0  0  0  0
   59.0630   30.7140   51.6380 C   0  0  0  0  0  0  0  0  0  0  0  0
   59.8260   31.6520   52.3570 C   0  0  0  0  0  0  0  0  0  0  0  0
   59.9170   32.9810   51.9150 C   0  0  0  0  0  0  0  0  0  0  0  0
   59.2510   33.3800   50.7520 C   0  0  0  0  0  0  0  0  0  0  0  0
   58.4840   32.4560   50.0360 C   0  0  0  0  0  0  0  0  0  0  0  0
   58.3900   31.1270   50.4770 C   0  0  0  0  0  0  0  0  0  0  0  0
   61.6460   30.2670   49.6750 C   0  0  0  0  0  0  0  0  0  0  0  0
   61.7750   31.2070   48.6850 N   0  0  0  0  0  0  0  0  0  0  0  0
   62.7310   32.3110   48.8600 C   0  0  0  0  0  0  0  0  0  0  0  0
   61.0480   31.1050   47.5260 C   0  0  0  0  0  0  0  0  0  0  0  0
   61.1970   31.9630   46.6130 O   0  0  0  0  0  0  0  0  0  0  0  0
   60.1200   30.0560   47.3550 C   0  0  0  0  0  0  0  0  0  0  0  0
   59.3290   29.9630   46.1900 C   0  0  0  0  0  0  0  0  0  0  0  0
   57.1530   32.5250   45.4840 C   0  0  0  0  0  0  0  0  0  0  0  0
   57.5100   33.4880   46.6440 C   0  0  0  0  0  0  0  0  0  0  0  0
   59.0790   34.2319   48.6574 H   0  0  0  0  0  0  0  0  0  0  0  0
   60.3567   34.9974   47.6534 H   0  0  0  0  0  0  0  0  0  0  0  0
   58.6912   35.6700   47.6534 H   0  0  0  0  0  0  0  0  0  0  0  0
   58.6313   35.4450   45.2144 H   0  0  0  0  0  0  0  0  0  0  0  0
   60.2952   34.7457   45.2411 H   0  0  0  0  0  0  0  0  0  0  0  0
   58.0946   34.0810   43.4984 H   0  0  0  0  0  0  0  0  0  0  0  0
   59.7678   33.3863   43.5449 H   0  0  0  0  0  0  0  0  0  0  0  0
   58.0597   31.9441   42.5326 H   0  0  0  0  0  0  0  0  0  0  0  0
   58.6361   30.5294   43.5019 H   0  0  0  0  0  0  0  0  0  0  0  0
   55.8913   31.6951   44.0404 H   0  0  0  0  0  0  0  0  0  0  0  0
   56.1813   30.5842   42.6084 H   0  0  0  0  0  0  0  0  0  0  0  0
   57.4668   27.2066   46.9775 H   0  0  0  0  0  0  0  0  0  0  0  0
   58.8809   27.3152   49.0148 H   0  0  0  0  0  0  0  0  0  0  0  0
   58.1514   28.7827   51.5497 H   0  0  0  0  0  0  0  0  0  0  0  0
   58.7150   29.2942   53.1888 H   0  0  0  0  0  0  0  0  0  0  0  0
   60.3543   31.3421   53.2707 H   0  0  0  0  0  0  0  0  0  0  0  0
   60.5130   33.7096   52.4842 H   0  0  0  0  0  0  0  0  0  0  0  0
   59.3304   34.4194   50.4009 H   0  0  0  0  0  0  0  0  0  0  0  0
   57.9533   32.7712   49.1255 H   0  0  0  0  0  0  0  0  0  0  0  0
   57.7853   30.4043   49.9095 H   0  0  0  0  0  0  0  0  0  0  0  0
   62.2488   30.3617   50.5903 H   0  0  0  0  0  0  0  0  0  0  0  0
   62.8885   32.4929   49.9334 H   0  0  0  0  0  0  0  0  0  0  0  0
   63.6887   32.0449   48.3888 H   0  0  0  0  0  0  0  0  0  0  0  0
   62.3307   33.2208   48.3888 H   0  0  0  0  0  0  0  0  0  0  0  0
   59.4934   30.6697   45.3632 H   0  0  0  0  0  0  0  0  0  0  0  0
   56.3344   32.9621   44.8934 H   0  0  0  0  0  0  0  0  0  0  0  0
   56.8476   31.5594   45.9133 H   0  0  0  0  0  0  0  0  0  0  0  0
   56.8907   34.3936   46.5651 H   0  0  0  0  0  0  0  0  0  0  0  0
   57.3190   32.9772   47.5993 H   0  0  0  0  0  0  0  0  0  0  0  0
  1  2  1  0
  2  3  1  0
  3  4  1  0
  4  5  1  0
  5  6  1  0
  6  7  1  0
  7  8  1  0
  8  9  2  0
  8 10  1  0
 10 11  1  0
 11 12  2  0
 12 13  1  0
 13 14  2  0
 14 15  1  0
 15 16  1  0
 16 17  2  0
 16 18  1  0
 18 19  1  0
 19 20  1  0
 20 21  2  0
 21 22  1  0
 22 23  2  0
 23 24  1  0
 24 25  2  0
 15 26  2  0
 26 27  1  0
 27 28  1  0
 27 29  1  0
 29 30  2  0
 29 31  1  0
 31 32  2  0
  5 33  1  0
 33 34  1  0
 34  2  1  0
 32 11  1  0
 31 14  1  0
 25 20  1  0
  1 35  1  0
  1 36  1  0
  1 37  1  0
  3 38  1  0
  3 39  1  0
  4 40  1  0
  4 41  1  0
  6 42  1  0
  6 43  1  0
  7 44  1  0
  7 45  1  0
 12 46  1  0
 13 47  1  0
 19 48  1  0
 19 49  1  0
 21 50  1  0
 22 51  1  0
 23 52  1  0
 24 53  1  0
 25 54  1  0
 26 55  1  0
 28 56  1  0
 28 57  1  0
 28 58  1  0
 32 59  1  0
 33 60  1  0
 33 61  1  0
 34 62  1  0
 34 63  1  0
M  CHG  2  10  -1  18  -1
M  END
>  <UniqueID>  (75) 
71

>  <SMILES>  (75) 
CN1CCN(CCC(=O)[N-]c2ccc3c(C(=O)[N-]Cc4ccccc4)cn(C)c(=O)c3c2)CC1

>  <Energy>  (75) 
96.1754752663903

>  <Genealogy>  (75) 
CN1CCN(CCC(=O)[N-]c2ccc3c(C(=O)[N-]Cc4ccccc4)cn(C)c(=O)c3c2)CC1 (protonated)
CN1CCN(CCC(=O)[N-]c2ccc3c(C(=O)[N-]Cc4ccccc4)cn(C)c(=O)c3c2)CC1 (3D coordinates assigned)
CN1CCN(CCC(=O)[N-]c2ccc3c(C(=O)[N-]Cc4ccccc4)cn(C)c(=O)c3c2)CC1 (nonaromatic ring conformer: 96.1754752663903 kcal/mol)

>  <smiles>  (75) 
CN1CCN(CCC(=O)Nc2ccc3c(C(=O)NCc4ccccc4)cn(C)c(=O)c3c2)CC1

>  <score_type>  (75) 
oracle

>  <origin>  (75) 
adg

>  <m_score__min__energy>  (75) 
-12.15

>  <m_primary>  (75) 
energy

$$$$
75:0
     RDKit          3D

 62 65  0  0  0  0  0  0  0  0999 V2000
   56.3240   29.7090   42.7260 C   0  0  0  0  0  0  0  0  0  0  0  0
   56.2060   30.2460   44.0380 O   0  0  0  0  0  0  0  0  0  0  0  0
   57.2700   30.7960   44.7730 C   0  0  0  0  0  0  0  0  0  0  0  0
   57.4300   32.1740   44.7610 C   0  0  0  0  0  0  0  0  0  0  0  0
   58.4420   32.7970   45.5050 C   0  0  0  0  0  0  0  0  0  0  0  0
   58.5700   34.2980   45.3740 C   0  0  0  0  0  0  0  0  0  0  0  0
   59.3240   32.0190   46.3250 C   0  0  0  0  0  0  0  0  0  0  0  0
   60.2200   32.7980   47.3250 C   0  0  2  0  0  0  0  0  0  0  0  0
   61.6760   32.3610   47.5590 C   0  0  0  0  0  0  0  0  0  0  0  0
   62.3640   33.3030   48.4600 N   0  0  0  0  0  0  0  0  0  0  0  0
   63.7950   33.2180   48.6080 C   0  0  0  0  0  0  0  0  0  0  0  0
   64.5540   33.4650   47.6320 O   0  0  0  0  0  0  0  0  0  0  0  0
   64.3720   32.8890   49.8730 N   0  0  0  0  0  0  0  0  0  0  0  0
   64.9090   31.5770   50.1730 C   0  0  0  0  0  0  0  0  0  0  0  0
   65.4790   31.7010   51.5790 C   0  0  0  0  0  0  0  0  0  0  0  0
   65.7450   33.1940   51.7770 C   0  0  0  0  0  0  0  0  0  0  0  0
   64.8070   33.9090   50.8110 C   0  0  0  0  0  0  0  0  0  0  0  0
   61.6090   34.3580   49.1580 C   0  0  0  0  0  0  0  0  0  0  0  0
   60.2550   33.8260   49.6560 C   0  0  0  0  0  0  0  0  0  0  0  0
   59.5810   32.9990   48.6440 N   0  0  0  0  0  0  0  0  0  0  0  0
   58.2940   32.4470   48.9830 C   0  0  0  0  0  0  0  0  0  0  0  0
   57.2820   32.7550   48.2980 O   0  0  0  0  0  0  0  0  0  0  0  0
   58.1450   31.5260   50.1160 C   0  0  0  0  0  0  0  0  0  0  0  0
   58.5130   30.1970   50.1730 C   0  0  0  0  0  0  0  0  0  0  0  0
   58.1950   29.7020   51.3880 N   0  0  0  0  0  0  0  0  0  0  0  0
   57.6410   30.6840   52.0850 N   0  0  0  0  0  0  0  0  0  0  0  0
   57.1900   30.5470   53.4650 C   0  0  0  0  0  0  0  0  0  0  0  0
   57.6110   31.8140   51.3550 C   0  0  0  0  0  0  0  0  0  0  0  0
   59.2140   30.5870   46.2460 C   0  0  0  0  0  0  0  0  0  0  0  0
   60.1710   29.6120   46.8920 C   0  0  0  0  0  0  0  0  0  0  0  0
   58.1710   30.0100   45.4970 C   0  0  0  0  0  0  0  0  0  0  0  0
   56.5597   28.6364   42.7887 H   0  0  0  0  0  0  0  0  0  0  0  0
   55.3746   29.8449   42.1874 H   0  0  0  0  0  0  0  0  0  0  0  0
   57.1290   30.2304   42.1874 H   0  0  0  0  0  0  0  0  0  0  0  0
   56.7491   32.7903   44.1555 H   0  0  0  0  0  0  0  0  0  0  0  0
   58.6087   34.7515   46.3754 H   0  0  0  0  0  0  0  0  0  0  0  0
   59.4921   34.5409   44.8256 H   0  0  0  0  0  0  0  0  0  0  0  0
   57.7023   34.6935   44.8256 H   0  0  0  0  0  0  0  0  0  0  0  0
   60.3098   33.7320   46.7510 H   0  0  0  0  0  0  0  0  0  0  0  0
   61.6839   31.3581   48.0108 H   0  0  0  0  0  0  0  0  0  0  0  0
   62.2012   32.3482   46.5926 H   0  0  0  0  0  0  0  0  0  0  0  0
   64.1142   30.8171   50.1429 H   0  0  0  0  0  0  0  0  0  0  0  0
   65.6699   31.2635   49.4431 H   0  0  0  0  0  0  0  0  0  0  0  0
   64.7541   31.3370   52.3220 H   0  0  0  0  0  0  0  0  0  0  0  0
   66.3927   31.1016   51.7052 H   0  0  0  0  0  0  0  0  0  0  0  0
   65.5261   33.4889   52.8139 H   0  0  0  0  0  0  0  0  0  0  0  0
   66.7979   33.4488   51.5857 H   0  0  0  0  0  0  0  0  0  0  0  0
   63.9453   34.3289   51.3506 H   0  0  0  0  0  0  0  0  0  0  0  0
   65.3041   34.7483   50.3026 H   0  0  0  0  0  0  0  0  0  0  0  0
   62.1958   34.7112   50.0188 H   0  0  0  0  0  0  0  0  0  0  0  0
   61.4250   35.1828   48.4539 H   0  0  0  0  0  0  0  0  0  0  0  0
   60.4223   33.2179   50.5572 H   0  0  0  0  0  0  0  0  0  0  0  0
   59.6098   34.6902   49.8726 H   0  0  0  0  0  0  0  0  0  0  0  0
   58.9893   29.6315   49.3585 H   0  0  0  0  0  0  0  0  0  0  0  0
   58.0157   30.7978   54.1472 H   0  0  0  0  0  0  0  0  0  0  0  0
   56.3460   31.2293   53.6444 H   0  0  0  0  0  0  0  0  0  0  0  0
   56.8681   29.5106   53.6444 H   0  0  0  0  0  0  0  0  0  0  0  0
   57.2295   32.7911   51.6864 H   0  0  0  0  0  0  0  0  0  0  0  0
   60.0927   29.6918   47.9863 H   0  0  0  0  0  0  0  0  0  0  0  0
   59.9175   28.5881   46.5800 H   0  0  0  0  0  0  0  0  0  0  0  0
   61.1994   29.8464   46.5800 H   0  0  0  0  0  0  0  0  0  0  0  0
   58.0626   28.9155   45.4811 H   0  0  0  0  0  0  0  0  0  0  0  0
  1  2  1  0
  2  3  1  0
  3  4  2  0
  4  5  1  0
  5  6  1  0
  5  7  2  0
  7  8  1  0
  8  9  1  0
  9 10  1  0
 10 11  1  0
 11 12  2  0
 11 13  1  0
 13 14  1  0
 14 15  1  0
 15 16  1  0
 16 17  1  0
 10 18  1  0
 18 19  1  0
 19 20  1  0
 20 21  1  0
 21 22  2  0
 21 23  1  0
 23 24  1  0
 24 25  2  0
 25 26  1  0
 26 27  1  0
 26 28  1  0
  7 29  1  0
 29 30  1  0
 29 31  2  0
 31  3  1  0
 20  8  1  0
 28 23  2  0
 17 13  1  0
  1 32  1  0
  1 33  1  0
  1 34  1  0
  4 35  1  0
  6 36  1  0
  6 37  1  0
  6 38  1  0
  8 39  1  6
  9 40  1  0
  9 41  1  0
 14 42  1  0
 14 43  1  0
 15 44  1  0
 15 45  1  0
 16 46  1  0
 16 47  1  0
 17 48  1  0
 17 49  1  0
 18 50  1  0
 18 51  1  0
 19 52  1  0
 19 53  1  0
 24 54  1  0
 27 55  1  0
 27 56  1  0
 27 57  1  0
 28 58  1  0
 30 59  1  0
 30 60  1  0
 30 61  1  0
 31 62  1  0
M  END
>  <UniqueID>  (76) 
72

>  <SMILES>  (76) 
COc1cc(C)c([C@@H]2CN(C(=O)N3CCCC3)CCN2C(=O)c2cnn(C)c2)c(C)c1

>  <Energy>  (76) 
121.32577813697513

>  <Genealogy>  (76) 
COc1cc(C)c([C@@H]2CN(C(=O)N3CCCC3)CCN2C(=O)c2cnn(C)c2)c(C)c1 (chirality)
COc1cc(C)c([C@@H]2CN(C(=O)N3CCCC3)CCN2C(=O)c2cnn(C)c2)c(C)c1 (3D coordinates assigned)
COc1cc(C)c([C@@H]2CN(C(=O)N3CCCC3)CCN2C(=O)c2cnn(C)c2)c(C)c1 (nonaromatic ring conformer: 121.32577813697513 kcal/mol)

>  <smiles>  (76) 
COc1cc(C)c(C2CN(C(=O)N3CCCC3)CCN2C(=O)c2cnn(C)c2)c(C)c1

>  <score_type>  (76) 
oracle

>  <origin>  (76) 
adg

>  <m_score__min__energy>  (76) 
-7.5099999999999998

>  <m_primary>  (76) 
energy

$$$$
76:0
     RDKit          3D

 68 71  0  0  0  0  0  0  0  0999 V2000
   63.4180   33.5120   46.8550 C   0  0  0  0  0  0  0  0  0  0  0  0
   63.7870   33.0300   48.2570 C   0  0  0  0  0  0  0  0  0  0  0  0
   63.3920   34.0290   49.3530 C   0  0  0  0  0  0  0  0  0  0  0  0
   63.0070   33.3400   50.6760 C   0  0  0  0  0  0  0  0  0  0  0  0
   61.6440   33.8440   51.2180 C   0  0  0  0  0  0  0  0  0  0  0  0
   60.4390   33.2510   50.5740 N   0  0  2  0  0  0  0  0  0  0  0  0
   60.2140   33.7380   49.1880 C   0  0  0  0  0  0  0  0  0  0  0  0
   59.9120   32.6090   48.2290 C   0  0  0  0  0  0  0  0  0  0  0  0
   58.6790   32.5640   47.5630 C   0  0  0  0  0  0  0  0  0  0  0  0
   58.3750   31.4980   46.7110 C   0  0  0  0  0  0  0  0  0  0  0  0
   59.2970   30.4550   46.5150 C   0  0  0  0  0  0  0  0  0  0  0  0
   58.9530   29.3030   45.6440 C   0  0  0  0  0  0  0  0  0  0  0  0
   58.1240   29.4780   44.5210 C   0  0  0  0  0  0  0  0  0  0  0  0
   57.7580   28.3820   43.7330 C   0  0  0  0  0  0  0  0  0  0  0  0
   58.2010   27.0920   44.0600 C   0  0  0  0  0  0  0  0  0  0  0  0
   57.7740   25.9360   43.2460 C   0  0  0  0  0  0  0  0  0  0  0  0
   57.9830   25.9590   42.0020 O   0  0  0  0  0  0  0  0  0  0  0  0
   57.0950   24.8100   43.8300 N   0  0  0  0  0  0  0  0  0  0  0  0
   56.8190   23.5920   43.0860 C   0  0  0  0  0  0  0  0  0  0  0  0
   56.0310   22.7000   44.0340 C   0  0  0  0  0  0  0  0  0  0  0  0
   55.4820   23.6290   45.1120 C   0  0  0  0  0  0  0  0  0  0  0  0
   56.3850   24.8550   45.1010 C   0  0  0  0  0  0  0  0  0  0  0  0
   59.0630   26.9210   45.1550 C   0  0  0  0  0  0  0  0  0  0  0  0
   59.4300   28.0150   45.9440 C   0  0  0  0  0  0  0  0  0  0  0  0
   60.5380   30.5080   47.1780 C   0  0  0  0  0  0  0  0  0  0  0  0
   60.8410   31.5770   48.0260 C   0  0  0  0  0  0  0  0  0  0  0  0
   59.2470   33.4310   51.3850 C   0  0  0  0  0  0  0  0  0  0  0  0
   59.0060   34.5640   51.8910 O   0  0  0  0  0  0  0  0  0  0  0  0
   58.2920   32.3090   51.6480 C   0  0  0  0  0  0  0  0  0  0  0  0
   57.0880   32.5250   52.3470 C   0  0  0  0  0  0  0  0  0  0  0  0
   56.1960   31.4740   52.5640 C   0  0  0  0  0  0  0  0  0  0  0  0
   56.5080   30.2030   52.0880 C   0  0  0  0  0  0  0  0  0  0  0  0
   55.6300   29.1470   52.2920 O   0  0  0  0  0  0  0  0  0  0  0  0
   57.6740   29.9940   51.4230 N   0  0  0  0  0  0  0  0  0  0  0  0
   58.5650   30.9960   51.1930 C   0  0  0  0  0  0  0  0  0  0  0  0
   59.6350   30.7290   50.5830 O   0  0  0  0  0  0  0  0  0  0  0  0
   62.7509   34.3834   46.9306 H   0  0  0  0  0  0  0  0  0  0  0  0
   64.3319   33.7958   46.3125 H   0  0  0  0  0  0  0  0  0  0  0  0
   62.9055   32.7039   46.3125 H   0  0  0  0  0  0  0  0  0  0  0  0
   63.2717   32.0771   48.4479 H   0  0  0  0  0  0  0  0  0  0  0  0
   64.8806   32.9168   48.2909 H   0  0  0  0  0  0  0  0  0  0  0  0
   64.2431   34.7001   49.5406 H   0  0  0  0  0  0  0  0  0  0  0  0
   62.5093   34.5805   48.9969 H   0  0  0  0  0  0  0  0  0  0  0  0
   62.9424   32.2552   50.5058 H   0  0  0  0  0  0  0  0  0  0  0  0
   63.7792   33.5803   51.4217 H   0  0  0  0  0  0  0  0  0  0  0  0
   61.6011   33.6149   52.2930 H   0  0  0  0  0  0  0  0  0  0  0  0
   61.6084   34.9200   50.9922 H   0  0  0  0  0  0  0  0  0  0  0  0
   60.6080   32.2220   50.4940 H   0  0  0  0  0  0  0  0  0  0  0  0
   59.3646   34.4369   49.1914 H   0  0  0  0  0  0  0  0  0  0  0  0
   61.1367   34.2318   48.8491 H   0  0  0  0  0  0  0  0  0  0  0  0
   57.9471   33.3716   47.7116 H   0  0  0  0  0  0  0  0  0  0  0  0
   57.4066   31.4752   46.1898 H   0  0  0  0  0  0  0  0  0  0  0  0
   57.7613   30.4834   44.2609 H   0  0  0  0  0  0  0  0  0  0  0  0
   57.1184   28.5327   42.8508 H   0  0  0  0  0  0  0  0  0  0  0  0
   56.2246   23.8173   42.1883 H   0  0  0  0  0  0  0  0  0  0  0  0
   57.7450   23.1052   42.7461 H   0  0  0  0  0  0  0  0  0  0  0  0
   55.2077   22.2041   43.4990 H   0  0  0  0  0  0  0  0  0  0  0  0
   56.6604   21.9065   44.4631 H   0  0  0  0  0  0  0  0  0  0  0  0
   54.4453   23.9145   44.8802 H   0  0  0  0  0  0  0  0  0  0  0  0
   55.4708   23.1428   46.0987 H   0  0  0  0  0  0  0  0  0  0  0  0
   55.7848   25.7741   45.1728 H   0  0  0  0  0  0  0  0  0  0  0  0
   57.0793   24.8556   45.9542 H   0  0  0  0  0  0  0  0  0  0  0  0
   59.4519   25.9201   45.3935 H   0  0  0  0  0  0  0  0  0  0  0  0
   60.0970   27.8670   46.8061 H   0  0  0  0  0  0  0  0  0  0  0  0
   61.2732   29.7037   47.0278 H   0  0  0  0  0  0  0  0  0  0  0  0
   61.8142   31.6096   48.5377 H   0  0  0  0  0  0  0  0  0  0  0  0
   56.8492   33.5301   52.7247 H   0  0  0  0  0  0  0  0  0  0  0  0
   55.2548   31.6479   53.1062 H   0  0  0  0  0  0  0  0  0  0  0  0
  1  2  1  0
  2  3  1  0
  3  4  1  0
  4  5  1  0
  5  6  1  0
  6  7  1  0
  7  8  1  0
  8  9  2  0
  9 10  1  0
 10 11  2  0
 11 12  1  0
 12 13  2  0
 13 14  1  0
 14 15  2  0
 15 16  1  0
 16 17  2  0
 16 18  1  0
 18 19  1  0
 19 20  1  0
 20 21  1  0
 21 22  1  0
 15 23  1  0
 23 24  2  0
 11 25  1  0
 25 26  2  0
  6 27  1  0
 27 28  2  0
 27 29  1  0
 29 30  2  0
 30 31  1  0
 31 32  2  0
 32 33  1  0
 32 34  1  0
 34 35  1  0
 35 36  2  0
 26  8  1  0
 35 29  1  0
 24 12  1  0
 22 18  1  0
  1 37  1  0
  1 38  1  0
  1 39  1  0
  2 40  1  0
  2 41  1  0
  3 42  1  0
  3 43  1  0
  4 44  1  0
  4 45  1  0
  5 46  1  0
  5 47  1  0
  6 48  1  6
  7 49  1  0
  7 50  1  0
  9 51  1  0
 10 52  1  0
 13 53  1  0
 14 54  1  0
 19 55  1  0
 19 56  1  0
 20 57  1  0
 20 58  1  0
 21 59  1  0
 21 60  1  0
 22 61  1  0
 22 62  1  0
 23 63  1  0
 24 64  1  0
 25 65  1  0
 26 66  1  0
 30 67  1  0
 31 68  1  0
M  CHG  3   6   1  33  -1  34  -1
M  END
>  <UniqueID>  (77) 
73

>  <SMILES>  (77) 
CCCCC[N@H+](Cc1ccc(-c2ccc(C(=O)N3CCCC3)cc2)cc1)C(=O)c1ccc([O-])[n-]c1=O

>  <Energy>  (77) 
87.72143030639076

>  <Genealogy>  (77) 
CCCCC[NH+](Cc1ccc(-c2ccc(C(=O)N3CCCC3)cc2)cc1)C(=O)c1ccc([O-])[n-]c1=O (protonated)
CCCCC[N@H+](Cc1ccc(-c2ccc(C(=O)N3CCCC3)cc2)cc1)C(=O)c1ccc([O-])[n-]c1=O (chirality)
CCCCC[N@H+](Cc1ccc(-c2ccc(C(=O)N3CCCC3)cc2)cc1)C(=O)c1ccc([O-])[n-]c1=O (3D coordinates assigned)
CCCCC[N@H+](Cc1ccc(-c2ccc(C(=O)N3CCCC3)cc2)cc1)C(=O)c1ccc([O-])[n-]c1=O (nonaromatic ring conformer: 87.72143030639076 kcal/mol)

>  <smiles>  (77) 
CCCCCN(Cc1ccc(-c2ccc(C(=O)N3CCCC3)cc2)cc1)C(=O)c1ccc(O)[nH]c1=O

>  <score_type>  (77) 
oracle

>  <origin>  (77) 
adg

>  <m_score__min__energy>  (77) 
-14.08

>  <m_primary>  (77) 
energy

$$$$
77:0
     RDKit          3D

 56 58  0  0  0  0  0  0  0  0999 V2000
   55.7120   29.6480   43.0260 C   0  0  0  0  0  0  0  0  0  0  0  0
   56.4790   30.3440   44.1030 C   0  0  0  0  0  0  0  0  0  0  0  0
   56.5590   29.8170   45.2450 O   0  0  0  0  0  0  0  0  0  0  0  0
   57.0440   31.6400   43.8520 N   0  0  0  0  0  0  0  0  0  0  0  0
   57.9490   32.3150   44.7420 C   0  0  0  0  0  0  0  0  0  0  0  0
   58.8410   31.6030   45.5640 C   0  0  0  0  0  0  0  0  0  0  0  0
   59.7340   32.2840   46.3970 C   0  0  0  0  0  0  0  0  0  0  0  0
   59.7680   33.6880   46.4020 C   0  0  0  0  0  0  0  0  0  0  0  0
   60.7110   34.4240   47.3180 C   0  0  0  0  0  0  0  0  0  0  0  0
   62.1010   33.8540   47.2930 C   0  0  0  0  0  0  0  0  0  0  0  0
   62.8940   34.1160   46.3480 O   0  0  0  0  0  0  0  0  0  0  0  0
   62.5390   33.0240   48.3670 N   0  0  0  0  0  0  0  0  0  0  0  0
   63.6700   32.1190   48.6530 C   0  0  0  0  0  0  0  0  0  0  0  0
   63.2060   31.7010   50.0120 C   0  0  0  0  0  0  0  0  0  0  0  0
   62.0600   32.6300   49.7090 C   0  0  1  0  0  0  0  0  0  0  0  0
   62.0050   33.8520   50.6430 C   0  0  0  0  0  0  0  0  0  0  0  0
   60.7330   31.9120   49.6290 C   0  0  0  0  0  0  0  0  0  0  0  0
   59.6590   32.5490   49.8230 O   0  0  0  0  0  0  0  0  0  0  0  0
   60.6980   30.5520   49.3000 O   0  0  0  0  0  0  0  0  0  0  0  0
   61.1720   30.0410   48.0550 C   0  0  0  0  0  0  0  0  0  0  0  0
   60.1360   29.1360   47.4450 C   0  0  0  0  0  0  0  0  0  0  0  0
   59.0820   28.6260   48.2200 C   0  0  0  0  0  0  0  0  0  0  0  0
   58.1560   27.7420   47.6580 C   0  0  0  0  0  0  0  0  0  0  0  0
   58.2790   27.3500   46.3170 C   0  0  0  0  0  0  0  0  0  0  0  0
   57.1140   26.2360   45.6090 S   0  0  0  0  0  0  0  0  0  0  0  0
   55.5250   26.9000   45.7540 N   0  0  0  0  0  0  0  0  0  0  0  0
   57.1730   24.9130   46.3230 O   0  0  0  0  0  0  0  0  0  0  0  0
   57.4380   26.0160   44.1570 O   0  0  0  0  0  0  0  0  0  0  0  0
   59.3260   27.8620   45.5400 C   0  0  0  0  0  0  0  0  0  0  0  0
   60.2540   28.7460   46.1020 C   0  0  0  0  0  0  0  0  0  0  0  0
   58.8840   34.4000   45.5770 C   0  0  0  0  0  0  0  0  0  0  0  0
   57.9910   33.7170   44.7460 C   0  0  0  0  0  0  0  0  0  0  0  0
   54.9702   28.9749   43.4806 H   0  0  0  0  0  0  0  0  0  0  0  0
   55.1970   30.3935   42.4023 H   0  0  0  0  0  0  0  0  0  0  0  0
   56.4041   29.0633   42.4023 H   0  0  0  0  0  0  0  0  0  0  0  0
   56.7230   32.1520   42.9970 H   0  0  0  0  0  0  0  0  0  0  0  0
   58.8361   30.5031   45.5515 H   0  0  0  0  0  0  0  0  0  0  0  0
   60.4129   31.7175   47.0513 H   0  0  0  0  0  0  0  0  0  0  0  0
   60.7563   35.4775   47.0048 H   0  0  0  0  0  0  0  0  0  0  0  0
   60.3270   34.3226   48.3438 H   0  0  0  0  0  0  0  0  0  0  0  0
   63.7279   31.2771   47.9475 H   0  0  0  0  0  0  0  0  0  0  0  0
   64.6813   32.5457   48.5803 H   0  0  0  0  0  0  0  0  0  0  0  0
   62.9412   30.6386   50.1176 H   0  0  0  0  0  0  0  0  0  0  0  0
   63.8248   31.7632   50.9193 H   0  0  0  0  0  0  0  0  0  0  0  0
   62.0202   33.5144   51.6898 H   0  0  0  0  0  0  0  0  0  0  0  0
   62.8750   34.4979   50.4534 H   0  0  0  0  0  0  0  0  0  0  0  0
   61.0805   34.4171   50.4534 H   0  0  0  0  0  0  0  0  0  0  0  0
   61.3738   30.8780   47.3703 H   0  0  0  0  0  0  0  0  0  0  0  0
   62.0962   29.4696   48.2264 H   0  0  0  0  0  0  0  0  0  0  0  0
   58.9844   28.9234   49.2745 H   0  0  0  0  0  0  0  0  0  0  0  0
   57.3285   27.3528   48.2694 H   0  0  0  0  0  0  0  0  0  0  0  0
   55.5400   27.8340   45.2870 H   0  0  0  0  0  0  0  0  0  0  0  0
   59.4191   27.5681   44.4841 H   0  0  0  0  0  0  0  0  0  0  0  0
   61.0793   29.1368   45.4886 H   0  0  0  0  0  0  0  0  0  0  0  0
   58.8937   35.4999   45.5841 H   0  0  0  0  0  0  0  0  0  0  0  0
   57.3151   34.2843   44.0893 H   0  0  0  0  0  0  0  0  0  0  0  0
  1  2  1  0
  2  3  2  0
  2  4  1  0
  4  5  1  0
  5  6  2  0
  6  7  1  0
  7  8  2  0
  8  9  1  0
  9 10  1  0
 10 11  2  0
 10 12  1  0
 12 13  1  0
 13 14  1  0
 14 15  1  0
 15 16  1  1
 15 17  1  0
 17 18  2  0
 17 19  1  0
 19 20  1  0
 20 21  1  0
 21 22  2  0
 22 23  1  0
 23 24  2  0
 24 25  1  0
 25 26  1  0
 25 27  2  0
 25 28  2  0
 24 29  1  0
 29 30  2  0
  8 31  1  0
 31 32  2  0
 32  5  1  0
 15 12  1  0
 30 21  1  0
  1 33  1  0
  1 34  1  0
  1 35  1  0
  4 36  1  0
  6 37  1  0
  7 38  1  0
  9 39  1  0
  9 40  1  0
 13 41  1  0
 13 42  1  0
 14 43  1  0
 14 44  1  0
 16 45  1  0
 16 46  1  0
 16 47  1  0
 20 48  1  0
 20 49  1  0
 22 50  1  0
 23 51  1  0
 26 52  1  0
 29 53  1  0
 30 54  1  0
 31 55  1  0
 32 56  1  0
M  CHG  1  26  -1
M  END
>  <UniqueID>  (78) 
74

>  <SMILES>  (78) 
CC(=O)Nc1ccc(CC(=O)N2CC[C@]2(C)C(=O)OCc2ccc(S([NH-])(=O)=O)cc2)cc1

>  <Energy>  (78) 
97.96493654805977

>  <Genealogy>  (78) 
CC(=O)Nc1ccc(CC(=O)N2CCC2(C)C(=O)OCc2ccc(S([NH-])(=O)=O)cc2)cc1 (protonated)
CC(=O)Nc1ccc(CC(=O)N2CC[C@]2(C)C(=O)OCc2ccc(S([NH-])(=O)=O)cc2)cc1 (chirality)
CC(=O)Nc1ccc(CC(=O)N2CC[C@]2(C)C(=O)OCc2ccc(S([NH-])(=O)=O)cc2)cc1 (3D coordinates assigned)
CC(=O)Nc1ccc(CC(=O)N2CC[C@]2(C)C(=O)OCc2ccc(S([NH-])(=O)=O)cc2)cc1 (nonaromatic ring conformer: 97.96493654805977 kcal/mol)

>  <smiles>  (78) 
CC(=O)Nc1ccc(CC(=O)N2CCC2(C)C(=O)OCc2ccc(S(N)(=O)=O)cc2)cc1

>  <score_type>  (78) 
oracle

>  <origin>  (78) 
adg

>  <m_score__min__energy>  (78) 
-12.98

>  <m_primary>  (78) 
energy

$$$$
78:0
     RDKit          3D

 36 38  0  0  0  0  0  0  0  0999 V2000
   55.2080   28.9690   44.7050 N   0  0  0  0  0  0  0  0  0  0  0  0
   56.1220   29.7700   43.9600 C   0  0  0  0  0  0  0  0  0  0  0  0
   55.8630   30.0660   42.7630 O   0  0  0  0  0  0  0  0  0  0  0  0
   57.3630   30.2500   44.5870 C   0  0  0  0  0  0  0  0  0  0  0  0
   58.5220   29.5230   44.7780 C   0  0  0  0  0  0  0  0  0  0  0  0
   59.4400   30.2880   45.3950 N   0  0  0  0  0  0  0  0  0  0  0  0
   58.8800   31.5000   45.5910 C   0  0  0  0  0  0  0  0  0  0  0  0
   59.5420   32.6490   46.3170 C   0  0  0  0  0  0  0  0  0  0  0  0
   60.7990   32.1920   47.1120 C   0  0  0  0  0  0  0  0  0  0  0  0
   60.6800   32.4290   48.6240 C   0  0  0  0  0  0  0  0  0  0  0  0
   59.3480   32.0290   49.0940 N   0  0  0  0  0  0  0  0  0  0  0  0
   59.2080   30.8860   49.9590 C   0  0  0  0  0  0  0  0  0  0  0  0
   59.9800   29.8990   49.8170 O   0  0  0  0  0  0  0  0  0  0  0  0
   58.1710   30.8270   51.0030 C   0  0  0  0  0  0  0  0  0  0  0  0
   57.8440   31.8200   51.9040 C   0  0  0  0  0  0  0  0  0  0  0  0
   56.8660   31.2530   52.6890 C   0  0  0  0  0  0  0  0  0  0  0  0
   56.6350   29.9900   52.2810 N   0  0  0  0  0  0  0  0  0  0  0  0
   57.4350   29.7280   51.2570 N   0  0  0  0  0  0  0  0  0  0  0  0
   58.1560   32.6200   48.4650 C   0  0  0  0  0  0  0  0  0  0  0  0
   58.5150   33.4020   47.1900 C   0  0  0  0  0  0  0  0  0  0  0  0
   57.5830   31.5110   45.1090 C   0  0  0  0  0  0  0  0  0  0  0  0
   54.4120   29.4050   45.2220 H   0  0  0  0  0  0  0  0  0  0  0  0
   58.6714   28.4771   44.4719 H   0  0  0  0  0  0  0  0  0  0  0  0
   60.4000   29.9860   45.6710 H   0  0  0  0  0  0  0  0  0  0  0  0
   59.9137   33.3618   45.5662 H   0  0  0  0  0  0  0  0  0  0  0  0
   60.9503   31.1164   46.9380 H   0  0  0  0  0  0  0  0  0  0  0  0
   61.6477   32.7931   46.7536 H   0  0  0  0  0  0  0  0  0  0  0  0
   61.4439   31.8346   49.1467 H   0  0  0  0  0  0  0  0  0  0  0  0
   60.8297   33.4984   48.8337 H   0  0  0  0  0  0  0  0  0  0  0  0
   58.2678   32.8324   51.9778 H   0  0  0  0  0  0  0  0  0  0  0  0
   56.3516   31.7544   53.5221 H   0  0  0  0  0  0  0  0  0  0  0  0
   57.4543   31.8143   48.2035 H   0  0  0  0  0  0  0  0  0  0  0  0
   57.7019   33.3208   49.1810 H   0  0  0  0  0  0  0  0  0  0  0  0
   57.5991   33.5618   46.6021 H   0  0  0  0  0  0  0  0  0  0  0  0
   58.9655   34.3582   47.4945 H   0  0  0  0  0  0  0  0  0  0  0  0
   56.8729   32.3507   45.1357 H   0  0  0  0  0  0  0  0  0  0  0  0
  1  2  1  0
  2  3  2  0
  2  4  1  0
  4  5  2  0
  5  6  1  0
  6  7  1  0
  7  8  1  0
  8  9  1  0
  9 10  1  0
 10 11  1  0
 11 12  1  0
 12 13  2  0
 12 14  1  0
 14 15  1  0
 15 16  2  0
 16 17  1  0
 17 18  1  0
 11 19  1  0
 19 20  1  0
  7 21  2  0
 21  4  1  0
 20  8  1  0
 18 14  2  0
  1 22  1  0
  5 23  1  0
  6 24  1  0
  8 25  1  0
  9 26  1  0
  9 27  1  0
 10 28  1  0
 10 29  1  0
 15 30  1  0
 16 31  1  0
 19 32  1  0
 19 33  1  0
 20 34  1  0
 20 35  1  0
 21 36  1  0
M  CHG  2   1  -1  17  -1
M  END
>  <UniqueID>  (79) 
75

>  <SMILES>  (79) 
[NH-]C(=O)c1c[nH]c(C2CCN(C(=O)c3cc[n-]n3)CC2)c1

>  <Energy>  (79) 
96.32531690066355

>  <Genealogy>  (79) 
[NH-]C(=O)c1c[nH]c(C2CCN(C(=O)c3cc[n-]n3)CC2)c1 (protonated)
[NH-]C(=O)c1c[nH]c(C2CCN(C(=O)c3cc[n-]n3)CC2)c1 (3D coordinates assigned)
[NH-]C(=O)c1c[nH]c(C2CCN(C(=O)c3cc[n-]n3)CC2)c1 (nonaromatic ring conformer: 96.32531690066355 kcal/mol)

>  <smiles>  (79) 
NC(=O)c1c[nH]c(C2CCN(C(=O)c3cc[nH]n3)CC2)c1

>  <score_type>  (79) 
oracle

>  <origin>  (79) 
adg

>  <m_score__min__energy>  (79) 
-11.06

>  <m_primary>  (79) 
energy

$$$$
79:0
     RDKit          3D

 47 49  0  0  0  0  0  0  0  0999 V2000
   57.4870   30.1720   44.0450 C   0  0  0  0  0  0  0  0  0  0  0  0
   57.8880   29.8370   45.2820 C   0  0  0  0  0  0  0  0  0  0  0  0
   58.0570   28.5400   45.7920 C   0  0  0  0  0  0  0  0  0  0  0  0
   57.7020   27.3380   45.2960 C   0  0  0  0  0  0  0  0  0  0  0  0
   57.2040   26.1980   46.0830 C   0  0  0  0  0  0  0  0  0  0  0  0
   57.9620   25.1690   46.5050 N   0  0  0  0  0  0  0  0  0  0  0  0
   57.0610   24.3180   47.0400 C   0  0  0  0  0  0  0  0  0  0  0  0
   57.3920   23.2220   47.5640 O   0  0  0  0  0  0  0  0  0  0  0  0
   55.7760   24.7260   46.9590 N   0  0  0  0  0  0  0  0  0  0  0  0
   55.8850   25.9110   46.3370 C   0  0  0  0  0  0  0  0  0  0  0  0
   54.8000   26.7110   46.0020 O   0  0  0  0  0  0  0  0  0  0  0  0
   58.6700   28.6840   47.0230 C   0  0  0  0  0  0  0  0  0  0  0  0
   58.7950   30.0390   47.2560 C   0  0  0  0  0  0  0  0  0  0  0  0
   59.2910   30.6180   48.5240 C   0  0  0  0  0  0  0  0  0  0  0  0
   58.4620   30.8960   49.4330 O   0  0  0  0  0  0  0  0  0  0  0  0
   60.7000   30.8140   48.7620 N   0  0  0  0  0  0  0  0  0  0  0  0
   61.6300   31.0420   47.6490 C   0  0  0  0  0  0  0  0  0  0  0  0
   62.6780   32.0890   48.0350 C   0  0  0  0  0  0  0  0  0  0  0  0
   63.3300   31.7530   49.3100 N   0  0  0  0  0  0  0  0  0  0  0  0
   64.6040   32.3600   49.6100 C   0  0  0  0  0  0  0  0  0  0  0  0
   64.8980   33.4740   49.0960 O   0  0  0  0  0  0  0  0  0  0  0  0
   65.6430   31.6640   50.4510 C   0  0  0  0  0  0  0  0  0  0  0  0
   66.9430   32.4590   50.4700 C   0  0  0  0  0  0  0  0  0  0  0  0
   62.7230   30.7640   50.2130 C   0  0  0  0  0  0  0  0  0  0  0  0
   61.1920   30.8200   50.1470 C   0  0  0  0  0  0  0  0  0  0  0  0
   58.3260   30.7430   46.1970 N   0  0  0  0  0  0  0  0  0  0  0  0
   58.3660   32.2010   46.0300 C   0  0  0  0  0  0  0  0  0  0  0  0
   57.3932   31.2317   43.7653 H   0  0  0  0  0  0  0  0  0  0  0  0
   57.2523   29.3867   43.3114 H   0  0  0  0  0  0  0  0  0  0  0  0
   57.7922   27.1967   44.2089 H   0  0  0  0  0  0  0  0  0  0  0  0
   58.9963   27.8726   47.6903 H   0  0  0  0  0  0  0  0  0  0  0  0
   62.1359   30.0975   47.4001 H   0  0  0  0  0  0  0  0  0  0  0  0
   61.0635   31.4078   46.7800 H   0  0  0  0  0  0  0  0  0  0  0  0
   63.4418   32.1387   47.2449 H   0  0  0  0  0  0  0  0  0  0  0  0
   62.1715   33.0586   48.1508 H   0  0  0  0  0  0  0  0  0  0  0  0
   65.2664   31.5634   51.4796 H   0  0  0  0  0  0  0  0  0  0  0  0
   65.8416   30.6725   50.0180 H   0  0  0  0  0  0  0  0  0  0  0  0
   67.2448   32.6435   51.5116 H   0  0  0  0  0  0  0  0  0  0  0  0
   67.7299   31.8874   49.9561 H   0  0  0  0  0  0  0  0  0  0  0  0
   66.7927   33.4199   49.9561 H   0  0  0  0  0  0  0  0  0  0  0  0
   63.0583   29.7579   49.9209 H   0  0  0  0  0  0  0  0  0  0  0  0
   63.0362   30.9932   51.2423 H   0  0  0  0  0  0  0  0  0  0  0  0
   60.7816   29.9457   50.6734 H   0  0  0  0  0  0  0  0  0  0  0  0
   60.8656   31.7582   50.6194 H   0  0  0  0  0  0  0  0  0  0  0  0
   58.3792   32.6831   47.0186 H   0  0  0  0  0  0  0  0  0  0  0  0
   59.2722   32.4816   45.4731 H   0  0  0  0  0  0  0  0  0  0  0  0
   57.4766   32.5308   45.4731 H   0  0  0  0  0  0  0  0  0  0  0  0
  1  2  2  0
  2  3  1  0
  3  4  2  3
  4  5  1  0
  5  6  1  0
  6  7  1  0
  7  8  2  0
  7  9  1  0
  9 10  1  0
 10 11  1  0
  3 12  1  0
 12 13  2  0
 13 14  1  0
 14 15  2  0
 14 16  1  0
 16 17  1  0
 17 18  1  0
 18 19  1  0
 19 20  1  0
 20 21  2  0
 20 22  1  0
 22 23  1  0
 19 24  1  0
 24 25  1  0
 13 26  1  0
 26 27  1  0
 26  2  1  0
 10  5  2  0
 25 16  1  0
  1 28  1  0
  1 29  1  0
  4 30  1  0
 12 31  1  0
 17 32  1  0
 17 33  1  0
 18 34  1  0
 18 35  1  0
 22 36  1  0
 22 37  1  0
 23 38  1  0
 23 39  1  0
 23 40  1  0
 24 41  1  0
 24 42  1  0
 25 43  1  0
 25 44  1  0
 27 45  1  0
 27 46  1  0
 27 47  1  0
M  CHG  3   6  -1   9  -1  11  -1
M  END
>  <UniqueID>  (80) 
76

>  <SMILES>  (80) 
C=c1c(=Cc2[n-]c(=O)[n-]c2[O-])cc(C(=O)N2CCN(C(=O)CC)CC2)n1C

>  <Energy>  (80) 
120.23707043340555

>  <Genealogy>  (80) 
C=c1c(=Cc2[n-]c(=O)[n-]c2[O-])cc(C(=O)N2CCN(C(=O)CC)CC2)n1C (protonated)
C=c1c(=Cc2[n-]c(=O)[n-]c2[O-])cc(C(=O)N2CCN(C(=O)CC)CC2)n1C (3D coordinates assigned)
C=c1c(=Cc2[n-]c(=O)[n-]c2[O-])cc(C(=O)N2CCN(C(=O)CC)CC2)n1C (nonaromatic ring conformer: 120.23707043340555 kcal/mol)

>  <smiles>  (80) 
C=c1c(=Cc2[nH]c(=O)[nH]c2O)cc(C(=O)N2CCN(C(=O)CC)CC2)n1C

>  <score_type>  (80) 
oracle

>  <origin>  (80) 
adg

>  <m_score__min__energy>  (80) 
-16.66

>  <m_primary>  (80) 
energy

$$$$
80:0
     RDKit          3D

 23 24  0  0  0  0  0  0  0  0999 V2000
   57.0066   25.1245   46.5975 H   0  0  0  0  0  0  0  0  0  0  0  0
   57.8180   25.7750   46.2390 C   0  0  0  0  0  0  0  0  0  0  0  0
   58.8617   25.4312   46.2897 H   0  0  0  0  0  0  0  0  0  0  0  0
   57.5370   26.9780   45.7440 C   0  0  0  0  0  0  0  0  0  0  0  0
   58.6820   28.0670   45.1640 S   0  0  0  0  0  0  0  0  0  0  0  0
   57.5450   29.2490   44.7640 C   0  0  0  0  0  0  0  0  0  0  0  0
   57.8710   30.4260   44.2060 C   0  0  0  0  0  0  0  0  0  0  0  0
   58.0989   30.4341   43.1299 H   0  0  0  0  0  0  0  0  0  0  0  0
   57.9460   31.7090   44.9300 C   0  0  0  0  0  0  0  0  0  0  0  0
   57.7490   32.9310   44.2630 C   0  0  0  0  0  0  0  0  0  0  0  0
   57.5753   32.9406   43.1768 H   0  0  0  0  0  0  0  0  0  0  0  0
   57.7730   34.1340   44.9750 C   0  0  0  0  0  0  0  0  0  0  0  0
   57.6360   35.0885   44.4458 H   0  0  0  0  0  0  0  0  0  0  0  0
   57.9710   34.1250   46.3590 C   0  0  0  0  0  0  0  0  0  0  0  0
   57.9970   35.0727   46.9169 H   0  0  0  0  0  0  0  0  0  0  0  0
   58.1360   32.9120   47.0340 C   0  0  0  0  0  0  0  0  0  0  0  0
   58.3190   32.9030   48.4120 O   0  0  0  0  0  0  0  0  0  0  0  0
   58.1130   31.7060   46.3230 C   0  0  0  0  0  0  0  0  0  0  0  0
   58.2264   30.7521   46.8589 H   0  0  0  0  0  0  0  0  0  0  0  0
   56.2770   28.7370   45.0820 C   0  0  0  0  0  0  0  0  0  0  0  0
   55.1970   29.3430   44.8530 O   0  0  0  0  0  0  0  0  0  0  0  0
   56.2900   27.4920   45.6290 N   0  0  0  0  0  0  0  0  0  0  0  0
   55.1460   26.8210   46.0010 O   0  0  0  0  0  0  0  0  0  0  0  0
  1  2  1  0
  2  3  1  0
  2  4  2  0
  4  5  1  0
  5  6  1  0
  6  7  2  0
  7  8  1  0
  7  9  1  0
  9 10  2  0
 10 11  1  0
 10 12  1  0
 12 13  1  0
 12 14  2  0
 14 15  1  0
 14 16  1  0
 16 17  1  0
 16 18  2  0
 18 19  1  0
  6 20  1  0
 20 21  2  0
 20 22  1  0
 22 23  1  0
 22  4  1  0
 18  9  1  0
M  CHG  2  17  -1  23  -1
M  END
>  <UniqueID>  (81) 
77

>  <SMILES>  (81) 
C=c1s/c(=C/c2cccc([O-])c2)c(=O)n1[O-]

>  <Energy>  (81) 
63.32986342297238

>  <Genealogy>  (81) 
C=c1sc(=Cc2cccc([O-])c2)c(=O)n1[O-] (protonated)
C=c1s/c(=C/c2cccc([O-])c2)c(=O)n1[O-] (cis-trans isomerization)
C=c1s/c(=C/c2cccc([O-])c2)c(=O)n1[O-] (3D coordinates assigned)
C=c1s/c(=C/c2cccc([O-])c2)c(=O)n1[O-] (optimized conformer: 63.32986342297238 kcal/mol)

>  <smiles>  (81) 
C=c1sc(=Cc2cccc(O)c2)c(=O)n1O

>  <score_type>  (81) 
oracle

>  <origin>  (81) 
adg

>  <m_score__min__energy>  (81) 
-11.880000000000001

>  <m_primary>  (81) 
energy

$$$$
81:0
     RDKit          3D

 67 71  0  0  0  0  0  0  0  0999 V2000
   64.0420   33.3500   47.5580 C   0  0  0  0  0  0  0  0  0  0  0  0
   62.8880   32.4010   47.4350 C   0  0  0  0  0  0  0  0  0  0  0  0
   63.0570   31.2110   47.8180 O   0  0  0  0  0  0  0  0  0  0  0  0
   61.6050   32.8200   46.9150 N   0  0  0  0  0  0  0  0  0  0  0  0
   60.6060   31.8030   46.5350 C   0  0  0  0  0  0  0  0  0  0  0  0
   59.2030   32.2820   46.8920 C   0  0  0  0  0  0  0  0  0  0  0  0
   59.0000   33.6110   46.3120 N   0  0  0  0  0  0  0  0  0  0  0  0
   58.2540   33.8010   45.0860 C   0  0  0  0  0  0  0  0  0  0  0  0
   58.1150   34.9580   44.5970 O   0  0  0  0  0  0  0  0  0  0  0  0
   57.6820   32.6650   44.3470 C   0  0  0  0  0  0  0  0  0  0  0  0
   57.8330   32.5710   42.9560 C   0  0  0  0  0  0  0  0  0  0  0  0
   57.3450   31.4520   42.2760 C   0  0  0  0  0  0  0  0  0  0  0  0
   56.7200   30.4170   42.9820 C   0  0  0  0  0  0  0  0  0  0  0  0
   56.5440   30.5150   44.3680 C   0  0  0  0  0  0  0  0  0  0  0  0
   55.9330   29.4340   45.0850 N   0  0  0  0  0  0  0  0  0  0  0  0
   56.6710   28.3140   45.5840 C   0  0  0  0  0  0  0  0  0  0  0  0
   56.1190   27.1830   45.6260 O   0  0  0  0  0  0  0  0  0  0  0  0
   58.0450   28.4880   46.1040 C   0  0  0  0  0  0  0  0  0  0  0  0
   59.1450   28.4860   45.2380 C   0  0  0  0  0  0  0  0  0  0  0  0
   60.4390   28.6390   45.7470 C   0  0  0  0  0  0  0  0  0  0  0  0
   60.6440   28.7740   47.1220 C   0  0  0  0  0  0  0  0  0  0  0  0
   59.5520   28.7660   48.0050 C   0  0  0  0  0  0  0  0  0  0  0  0
   59.7870   28.7420   49.4980 C   0  0  0  0  0  0  0  0  0  0  0  0
   58.9750   29.7860   50.2290 C   0  0  0  0  0  0  0  0  0  0  0  0
   57.7740   29.4100   50.7440 N   0  0  0  0  0  0  0  0  0  0  0  0
   56.9920   30.2530   51.4120 N   0  0  0  0  0  0  0  0  0  0  0  0
   57.3600   31.5360   51.6380 C   0  0  0  0  0  0  0  0  0  0  0  0
   56.5840   32.2990   52.2740 O   0  0  0  0  0  0  0  0  0  0  0  0
   58.5990   31.9980   51.1650 C   0  0  0  0  0  0  0  0  0  0  0  0
   59.4060   31.1210   50.3980 C   0  0  0  0  0  0  0  0  0  0  0  0
   60.7620   31.5650   49.8810 C   0  0  0  0  0  0  0  0  0  0  0  0
   60.9310   33.0870   49.8590 C   0  0  0  0  0  0  0  0  0  0  0  0
   60.4940   33.6870   51.1880 C   0  0  0  0  0  0  0  0  0  0  0  0
   59.0000   33.4380   51.4150 C   0  0  0  0  0  0  0  0  0  0  0  0
   58.2550   28.6200   47.4820 C   0  0  0  0  0  0  0  0  0  0  0  0
   57.0270   31.6440   45.0470 C   0  0  0  0  0  0  0  0  0  0  0  0
   59.9250   34.6440   46.7900 C   0  0  0  0  0  0  0  0  0  0  0  0
   61.3670   34.2150   46.4890 C   0  0  0  0  0  0  0  0  0  0  0  0
   64.2585   33.5281   48.6217 H   0  0  0  0  0  0  0  0  0  0  0  0
   64.9276   32.9154   47.0713 H   0  0  0  0  0  0  0  0  0  0  0  0
   63.7866   34.3028   47.0713 H   0  0  0  0  0  0  0  0  0  0  0  0
   60.6639   31.6243   45.4512 H   0  0  0  0  0  0  0  0  0  0  0  0
   60.8167   30.8719   47.0815 H   0  0  0  0  0  0  0  0  0  0  0  0
   58.4581   31.5825   46.4848 H   0  0  0  0  0  0  0  0  0  0  0  0
   59.0891   32.3283   47.9851 H   0  0  0  0  0  0  0  0  0  0  0  0
   58.3350   33.3771   42.4009 H   0  0  0  0  0  0  0  0  0  0  0  0
   57.4522   31.3841   41.1833 H   0  0  0  0  0  0  0  0  0  0  0  0
   56.3660   29.5239   42.4463 H   0  0  0  0  0  0  0  0  0  0  0  0
   58.9915   28.3639   44.1556 H   0  0  0  0  0  0  0  0  0  0  0  0
   61.2990   28.6531   45.0613 H   0  0  0  0  0  0  0  0  0  0  0  0
   61.6652   28.8871   47.5149 H   0  0  0  0  0  0  0  0  0  0  0  0
   59.5122   27.7486   49.8823 H   0  0  0  0  0  0  0  0  0  0  0  0
   60.8503   28.9634   49.6724 H   0  0  0  0  0  0  0  0  0  0  0  0
   61.5406   31.1362   50.5290 H   0  0  0  0  0  0  0  0  0  0  0  0
   60.8474   31.2118   48.8428 H   0  0  0  0  0  0  0  0  0  0  0  0
   61.9884   33.3320   49.6806 H   0  0  0  0  0  0  0  0  0  0  0  0
   60.3063   33.5045   49.0556 H   0  0  0  0  0  0  0  0  0  0  0  0
   61.0679   33.2217   52.0030 H   0  0  0  0  0  0  0  0  0  0  0  0
   60.6785   34.7713   51.1703 H   0  0  0  0  0  0  0  0  0  0  0  0
   58.7552   33.6951   52.4562 H   0  0  0  0  0  0  0  0  0  0  0  0
   58.4477   34.0642   50.6989 H   0  0  0  0  0  0  0  0  0  0  0  0
   57.3930   28.6093   48.1652 H   0  0  0  0  0  0  0  0  0  0  0  0
   56.8904   31.7276   46.1353 H   0  0  0  0  0  0  0  0  0  0  0  0
   59.7103   35.5940   46.2787 H   0  0  0  0  0  0  0  0  0  0  0  0
   59.7996   34.7762   47.8748 H   0  0  0  0  0  0  0  0  0  0  0  0
   61.5480   34.2965   45.4071 H   0  0  0  0  0  0  0  0  0  0  0  0
   62.0513   34.8726   47.0451 H   0  0  0  0  0  0  0  0  0  0  0  0
  1  2  1  0
  2  3  2  0
  2  4  1  0
  4  5  1  0
  5  6  1  0
  6  7  1  0
  7  8  1  0
  8  9  2  0
  8 10  1  0
 10 11  2  0
 11 12  1  0
 12 13  2  0
 13 14  1  0
 14 15  1  0
 15 16  1  0
 16 17  2  0
 16 18  1  0
 18 19  2  0
 19 20  1  0
 20 21  2  0
 21 22  1  0
 22 23  1  0
 23 24  1  0
 24 25  2  0
 25 26  1  0
 26 27  1  0
 27 28  2  0
 27 29  1  0
 29 30  2  0
 30 31  1  0
 31 32  1  0
 32 33  1  0
 33 34  1  0
 22 35  2  0
 14 36  2  0
  7 37  1  0
 37 38  1  0
 38  4  1  0
 36 10  1  0
 35 18  1  0
 30 24  1  0
 34 29  1  0
  1 39  1  0
  1 40  1  0
  1 41  1  0
  5 42  1  0
  5 43  1  0
  6 44  1  0
  6 45  1  0
 11 46  1  0
 12 47  1  0
 13 48  1  0
 19 49  1  0
 20 50  1  0
 21 51  1  0
 23 52  1  0
 23 53  1  0
 31 54  1  0
 31 55  1  0
 32 56  1  0
 32 57  1  0
 33 58  1  0
 33 59  1  0
 34 60  1  0
 34 61  1  0
 35 62  1  0
 36 63  1  0
 37 64  1  0
 37 65  1  0
 38 66  1  0
 38 67  1  0
M  CHG  2  15  -1  26  -1
M  END
>  <UniqueID>  (82) 
78

>  <SMILES>  (82) 
CC(=O)N1CCN(C(=O)c2cccc([N-]C(=O)c3cccc(Cc4n[n-]c(=O)c5c4CCCC5)c3)c2)CC1

>  <Energy>  (82) 
83.74627478563258

>  <Genealogy>  (82) 
CC(=O)N1CCN(C(=O)c2cccc([N-]C(=O)c3cccc(Cc4n[n-]c(=O)c5c4CCCC5)c3)c2)CC1 (protonated)
CC(=O)N1CCN(C(=O)c2cccc([N-]C(=O)c3cccc(Cc4n[n-]c(=O)c5c4CCCC5)c3)c2)CC1 (3D coordinates assigned)
CC(=O)N1CCN(C(=O)c2cccc([N-]C(=O)c3cccc(Cc4n[n-]c(=O)c5c4CCCC5)c3)c2)CC1 (nonaromatic ring conformer: 83.74627478563258 kcal/mol)

>  <smiles>  (82) 
CC(=O)N1CCN(C(=O)c2cccc(NC(=O)c3cccc(Cc4n[nH]c(=O)c5c4CCCC5)c3)c2)CC1

>  <score_type>  (82) 
oracle

>  <origin>  (82) 
adg

>  <m_score__min__energy>  (82) 
-15.859999999999999

>  <m_primary>  (82) 
energy

$$$$
82:0
     RDKit          3D

 41 42  0  0  0  0  0  0  0  0999 V2000
   62.6440   31.3690   50.3260 C   0  0  0  0  0  0  0  0  0  0  0  0
   62.6840   31.2150   49.0030 C   0  0  0  0  0  0  0  0  0  0  0  0
   61.5440   31.5550   48.1150 C   0  0  0  0  0  0  0  0  0  0  0  0
   60.3770   30.7670   48.1440 C   0  0  0  0  0  0  0  0  0  0  0  0
   59.2680   31.0960   47.3640 C   0  0  0  0  0  0  0  0  0  0  0  0
   58.1390   30.2860   47.4070 O   0  0  0  0  0  0  0  0  0  0  0  0
   59.3030   32.2240   46.5360 C   0  0  0  0  0  0  0  0  0  0  0  0
   58.1480   32.5450   45.6780 C   0  0  0  0  0  0  0  0  0  0  0  0
   58.0640   32.2010   44.3830 C   0  0  0  0  0  0  0  0  0  0  0  0
   57.2780   31.0260   43.8520 C   0  0  0  0  0  0  0  0  0  0  0  0
   57.7290   29.7110   44.4560 C   0  0  0  0  0  0  0  0  0  0  0  0
   59.1040   29.4330   44.5150 C   0  0  0  0  0  0  0  0  0  0  0  0
   59.5690   28.2790   45.1370 C   0  0  0  0  0  0  0  0  0  0  0  0
   58.6720   27.3740   45.6960 C   0  0  0  0  0  0  0  0  0  0  0  0
   57.2850   27.5980   45.6250 C   0  0  0  0  0  0  0  0  0  0  0  0
   56.3590   26.5970   46.2190 C   0  0  0  0  0  0  0  0  0  0  0  0
   56.8100   25.6450   46.9110 O   0  0  0  0  0  0  0  0  0  0  0  0
   54.9850   26.6830   46.0270 O   0  0  0  0  0  0  0  0  0  0  0  0
   56.8070   28.7700   44.9870 C   0  0  0  0  0  0  0  0  0  0  0  0
   55.4290   28.9820   44.8900 O   0  0  0  0  0  0  0  0  0  0  0  0
   60.4420   33.0400   46.5240 C   0  0  0  0  0  0  0  0  0  0  0  0
   61.5730   32.7150   47.2950 C   0  0  0  0  0  0  0  0  0  0  0  0
   62.7850   33.5670   47.1760 C   0  0  0  0  0  0  0  0  0  0  0  0
   63.4300   34.1720   48.3850 C   0  0  0  0  0  0  0  0  0  0  0  0
   63.2470   33.8500   46.0380 O   0  0  0  0  0  0  0  0  0  0  0  0
   63.5182   31.1010   50.9376 H   0  0  0  0  0  0  0  0  0  0  0  0
   61.7368   31.7641   50.8065 H   0  0  0  0  0  0  0  0  0  0  0  0
   63.6035   30.8179   48.5482 H   0  0  0  0  0  0  0  0  0  0  0  0
   60.3393   29.8786   48.7915 H   0  0  0  0  0  0  0  0  0  0  0  0
   57.3078   33.0974   46.1239 H   0  0  0  0  0  0  0  0  0  0  0  0
   58.6079   32.8208   43.6550 H   0  0  0  0  0  0  0  0  0  0  0  0
   56.2141   31.1768   44.0875 H   0  0  0  0  0  0  0  0  0  0  0  0
   57.4459   30.9723   42.7662 H   0  0  0  0  0  0  0  0  0  0  0  0
   59.8210   30.1352   44.0646 H   0  0  0  0  0  0  0  0  0  0  0  0
   60.6499   28.0811   45.1872 H   0  0  0  0  0  0  0  0  0  0  0  0
   59.0519   26.4727   46.1994 H   0  0  0  0  0  0  0  0  0  0  0  0
   54.7750   28.2850   44.5610 H   0  0  0  0  0  0  0  0  0  0  0  0
   60.4520   33.9478   45.9028 H   0  0  0  0  0  0  0  0  0  0  0  0
   62.9774   33.7474   49.2932 H   0  0  0  0  0  0  0  0  0  0  0  0
   64.5076   33.9514   48.3748 H   0  0  0  0  0  0  0  0  0  0  0  0
   63.2787   35.2615   48.3748 H   0  0  0  0  0  0  0  0  0  0  0  0
  1  2  2  0
  2  3  1  0
  3  4  2  0
  4  5  1  0
  5  6  1  0
  5  7  2  0
  7  8  1  0
  8  9  2  3
  9 10  1  0
 10 11  1  0
 11 12  2  0
 12 13  1  0
 13 14  2  0
 14 15  1  0
 15 16  1  0
 16 17  2  0
 16 18  1  0
 15 19  2  0
 19 20  1  0
  7 21  1  0
 21 22  2  0
 22 23  1  0
 23 24  1  0
 23 25  2  0
 22  3  1  0
 19 11  1  0
  1 26  1  0
  1 27  1  0
  2 28  1  0
  4 29  1  0
  8 30  1  0
  9 31  1  0
 10 32  1  0
 10 33  1  0
 12 34  1  0
 13 35  1  0
 14 36  1  0
 20 37  1  0
 21 38  1  0
 24 39  1  0
 24 40  1  0
 24 41  1  0
M  CHG  2   6  -1  18  -1
M  END
>  <UniqueID>  (83) 
79

>  <SMILES>  (83) 
C=Cc1cc([O-])c(C=CCc2cccc(C(=O)[O-])c2O)cc1C(C)=O

>  <Energy>  (83) 
55.48560634629982

>  <Genealogy>  (83) 
C=Cc1cc([O-])c(C=CCc2cccc(C(=O)[O-])c2O)cc1C(C)=O (protonated)
C=Cc1cc([O-])c(C=CCc2cccc(C(=O)[O-])c2O)cc1C(C)=O (3D coordinates assigned)
C=Cc1cc([O-])c(C=CCc2cccc(C(=O)[O-])c2O)cc1C(C)=O (optimized conformer: 55.48560634629982 kcal/mol)

>  <smiles>  (83) 
C=Cc1cc(O)c(C=CCc2cccc(C(=O)O)c2O)cc1C(C)=O

>  <score_type>  (83) 
oracle

>  <origin>  (83) 
adg

>  <m_score__min__energy>  (83) 
-13.029999999999999

>  <m_primary>  (83) 
energy

$$$$
83:0
     RDKit          3D

 49 50  0  0  0  0  0  0  0  0999 V2000
   53.9000   22.4360   49.3670 C   0  0  0  0  0  0  0  0  0  0  0  0
   54.0320   22.5320   47.8520 C   0  0  0  0  0  0  0  0  0  0  0  0
   54.8590   23.6350   47.4890 O   0  0  0  0  0  0  0  0  0  0  0  0
   56.2060   23.5040   47.1290 C   0  0  0  0  0  0  0  0  0  0  0  0
   57.0010   22.8410   47.8520 O   0  0  0  0  0  0  0  0  0  0  0  0
   56.7070   24.1930   45.8900 C   0  0  1  0  0  0  0  0  0  0  0  0
   58.0240   24.8880   46.1990 C   0  0  0  0  0  0  0  0  0  0  0  0
   58.0240   26.2550   46.8250 C   0  0  0  0  0  0  0  0  0  0  0  0
   57.8060   27.3380   45.7670 C   0  0  0  0  0  0  0  0  0  0  0  0
   56.3470   27.6390   45.6140 C   0  0  0  0  0  0  0  0  0  0  0  0
   55.4900   26.7960   45.9910 O   0  0  0  0  0  0  0  0  0  0  0  0
   55.9370   28.8990   45.0720 N   0  0  0  0  0  0  0  0  0  0  0  0
   56.2330   29.3230   43.7080 C   0  0  0  0  0  0  0  0  0  0  0  0
   56.7190   30.7390   43.6930 C   0  0  0  0  0  0  0  0  0  0  0  0
   57.1930   31.2210   42.6280 O   0  0  0  0  0  0  0  0  0  0  0  0
   56.5510   31.5570   44.8550 N   0  0  0  0  0  0  0  0  0  0  0  0
   57.6020   32.1580   45.6290 C   0  0  0  0  0  0  0  0  0  0  0  0
   58.5360   31.3830   46.3410 C   0  0  0  0  0  0  0  0  0  0  0  0
   59.5280   32.0030   47.1080 C   0  0  0  0  0  0  0  0  0  0  0  0
   59.5870   33.3990   47.1820 C   0  0  0  0  0  0  0  0  0  0  0  0
   60.8350   34.1750   48.1440 Cl  0  0  0  0  0  0  0  0  0  0  0  0
   58.6480   34.1740   46.4940 C   0  0  0  0  0  0  0  0  0  0  0  0
   57.6550   33.5560   45.7260 C   0  0  0  0  0  0  0  0  0  0  0  0
   56.7520   34.3190   45.0620 F   0  0  0  0  0  0  0  0  0  0  0  0
   59.1630   24.2840   45.9990 N   0  0  0  0  0  0  0  0  0  0  0  0
   59.2360   22.9820   45.4120 C   0  0  0  0  0  0  0  0  0  0  0  0
   60.3300   22.3620   45.3840 O   0  0  0  0  0  0  0  0  0  0  0  0
   58.0580   22.3880   44.8690 N   0  0  0  0  0  0  0  0  0  0  0  0
   56.8480   23.1930   44.7130 C   0  0  2  0  0  0  0  0  0  0  0  0
   56.8950   23.9230   43.3670 C   0  0  0  0  0  0  0  0  0  0  0  0
   54.7021   23.0194   49.8426 H   0  0  0  0  0  0  0  0  0  0  0  0
   52.9230   22.8360   49.6760 H   0  0  0  0  0  0  0  0  0  0  0  0
   53.9795   21.3833   49.6760 H   0  0  0  0  0  0  0  0  0  0  0  0
   54.4795   21.6031   47.4686 H   0  0  0  0  0  0  0  0  0  0  0  0
   53.0323   22.6805   47.4178 H   0  0  0  0  0  0  0  0  0  0  0  0
   55.9750   24.9513   45.5751 H   0  0  0  0  0  0  0  0  0  0  0  0
   57.2161   26.3105   47.5695 H   0  0  0  0  0  0  0  0  0  0  0  0
   58.9996   26.4226   47.3047 H   0  0  0  0  0  0  0  0  0  0  0  0
   58.3339   28.2534   46.0725 H   0  0  0  0  0  0  0  0  0  0  0  0
   58.1966   26.9770   44.8041 H   0  0  0  0  0  0  0  0  0  0  0  0
   57.0104   28.6690   43.2862 H   0  0  0  0  0  0  0  0  0  0  0  0
   55.3140   29.2558   43.1072 H   0  0  0  0  0  0  0  0  0  0  0  0
   58.4859   30.2851   46.2943 H   0  0  0  0  0  0  0  0  0  0  0  0
   60.2625   31.3924   47.6536 H   0  0  0  0  0  0  0  0  0  0  0  0
   58.6901   35.2714   46.5567 H   0  0  0  0  0  0  0  0  0  0  0  0
   55.9653   22.5368   44.7279 H   0  0  0  0  0  0  0  0  0  0  0  0
   56.9648   25.0071   43.5401 H   0  0  0  0  0  0  0  0  0  0  0  0
   57.7733   23.5854   42.7972 H   0  0  0  0  0  0  0  0  0  0  0  0
   55.9807   23.7008   42.7972 H   0  0  0  0  0  0  0  0  0  0  0  0
  1  2  1  0
  2  3  1  0
  3  4  1  0
  4  5  2  0
  4  6  1  0
  6  7  1  0
  7  8  1  0
  8  9  1  0
  9 10  1  0
 10 11  2  0
 10 12  1  0
 12 13  1  0
 13 14  1  0
 14 15  2  0
 14 16  1  0
 16 17  1  0
 17 18  2  0
 18 19  1  0
 19 20  2  0
 20 21  1  0
 20 22  1  0
 22 23  2  0
 23 24  1  0
  7 25  2  0
 25 26  1  0
 26 27  2  0
 26 28  1  0
 28 29  1  0
 29 30  1  0
 29  6  1  0
 23 17  1  0
  1 31  1  0
  1 32  1  0
  1 33  1  0
  2 34  1  0
  2 35  1  0
  6 36  1  6
  8 37  1  0
  8 38  1  0
  9 39  1  0
  9 40  1  0
 13 41  1  0
 13 42  1  0
 18 43  1  0
 19 44  1  0
 22 45  1  0
 29 46  1  6
 30 47  1  0
 30 48  1  0
 30 49  1  0
M  CHG  3  12  -1  16  -1  28  -1
M  END
>  <UniqueID>  (84) 
80

>  <SMILES>  (84) 
CCOC(=O)[C@H]1C(CCC(=O)[N-]CC(=O)[N-]c2ccc(Cl)cc2F)=NC(=O)[N-][C@@H]1C

>  <Energy>  (84) 
36.99430139584172

>  <Genealogy>  (84) 
CCOC(=O)C1C(CCC(=O)[N-]CC(=O)[N-]c2ccc(Cl)cc2F)=NC(=O)[N-]C1C (protonated)
CCOC(=O)[C@H]1C(CCC(=O)[N-]CC(=O)[N-]c2ccc(Cl)cc2F)=NC(=O)[N-][C@@H]1C (chirality)
CCOC(=O)[C@H]1C(CCC(=O)[N-]CC(=O)[N-]c2ccc(Cl)cc2F)=NC(=O)[N-][C@@H]1C (3D coordinates assigned)
CCOC(=O)[C@H]1C(CCC(=O)[N-]CC(=O)[N-]c2ccc(Cl)cc2F)=NC(=O)[N-][C@@H]1C (nonaromatic ring conformer: 36.99430139584172 kcal/mol)

>  <smiles>  (84) 
CCOC(=O)C1C(CCC(=O)NCC(=O)Nc2ccc(Cl)cc2F)=NC(=O)NC1C

>  <score_type>  (84) 
oracle

>  <origin>  (84) 
adg

>  <m_score__min__energy>  (84) 
-13.51

>  <m_primary>  (84) 
energy

$$$$
84:0
     RDKit          3D

 73 76  0  0  1  0  0  0  0  0999 V2000
   66.5160   32.7020   50.1350 C   0  0  0  0  0  0  0  0  0  0  0  0
   65.2740   33.2340   50.8540 C   0  0  0  0  0  0  0  0  0  0  0  0
   64.0940   32.8880   50.0740 N   0  0  0  0  0  0  0  0  0  0  0  0
   64.3750   33.1570   48.6840 C   0  0  0  0  0  0  0  0  0  0  0  0
   63.1380   32.9810   47.8300 C   0  0  0  0  0  0  0  0  0  0  0  0
   62.0740   33.8340   48.3280 N   0  0  0  0  0  0  0  0  0  0  0  0
   60.8920   33.9340   47.5630 C   0  0  0  0  0  0  0  0  0  0  0  0
   61.0000   33.8430   46.1850 C   0  0  0  0  0  0  0  0  0  0  0  0
   59.8820   33.9320   45.3590 C   0  0  0  0  0  0  0  0  0  0  0  0
   58.6160   34.1150   45.8890 C   0  0  0  0  0  0  0  0  0  0  0  0
   57.4500   34.1970   44.9780 C   0  0  0  0  0  0  0  0  0  0  0  0
   57.5640   33.1620   43.9830 N   0  0  0  0  0  0  0  0  0  0  0  0
   57.1710   31.8140   44.1680 C   0  0  0  0  0  0  0  0  0  0  0  0
   56.6740   31.3620   45.2290 O   0  0  0  0  0  0  0  0  0  0  0  0
   57.3550   30.8760   43.0450 C   0  0  0  0  0  0  0  0  0  0  0  0
   56.6110   29.5820   43.2370 C   0  0  0  0  0  0  0  0  0  0  0  0
   57.3970   28.4040   43.0060 N   0  0  0  0  0  0  0  0  0  0  0  0
   57.9780   27.7660   43.9630 C   0  0  0  0  0  0  0  0  0  0  0  0
   58.9250   28.3390   44.7300 N   0  0  0  0  0  0  0  0  0  0  0  0
   59.5230   27.6620   45.7270 C   0  0  0  0  0  0  0  0  0  0  0  0
   60.5130   28.2420   46.5360 O   0  0  0  0  0  0  0  0  0  0  0  0
   60.0690   29.0110   47.6270 C   0  0  0  0  0  0  0  0  0  0  0  0
   60.0900   28.4580   48.8900 C   0  0  0  0  0  0  0  0  0  0  0  0
   60.5650   27.0720   49.1600 C   0  0  0  0  0  0  0  0  0  0  0  0
   59.6390   29.2600   49.9430 C   0  0  0  0  0  0  0  0  0  0  0  0
   59.1940   30.5470   49.7110 C   0  0  0  0  0  0  0  0  0  0  0  0
   58.7240   31.4020   50.7650 C   0  0  0  0  0  0  0  0  0  0  0  0
   58.3610   32.0990   51.6240 N   0  0  0  0  0  0  0  0  0  0  0  0
   59.1920   31.0600   48.4300 C   0  0  0  0  0  0  0  0  0  0  0  0
   59.6290   30.2980   47.3730 C   0  0  0  0  0  0  0  0  0  0  0  0
   59.6290   30.8390   45.9970 C   0  0  0  0  0  0  0  0  0  0  0  0
   59.1070   26.3520   45.9130 C   0  0  0  0  0  0  0  0  0  0  0  0
   58.1350   25.7590   45.1320 C   0  0  0  0  0  0  0  0  0  0  0  0
   57.5710   26.4830   44.1480 N   0  0  0  0  0  0  0  0  0  0  0  0
   58.5290   34.2040   47.2600 C   0  0  0  0  0  0  0  0  0  0  0  0
   59.6350   34.1160   48.0820 C   0  0  0  0  0  0  0  0  0  0  0  0
   62.3060   34.5170   49.5760 C   0  0  0  0  0  0  0  0  0  0  0  0
   62.9120   33.5320   50.5510 C   0  0  0  0  0  0  0  0  0  0  0  0
   67.2614   32.3827   50.8783 H   0  0  0  0  0  0  0  0  0  0  0  0
   66.2360   31.8449   49.5050 H   0  0  0  0  0  0  0  0  0  0  0  0
   66.9433   33.4961   49.5050 H   0  0  0  0  0  0  0  0  0  0  0  0
   65.2026   32.7796   51.8532 H   0  0  0  0  0  0  0  0  0  0  0  0
   65.3438   34.3266   50.9602 H   0  0  0  0  0  0  0  0  0  0  0  0
   64.7350   34.1917   48.5847 H   0  0  0  0  0  0  0  0  0  0  0  0
   65.1394   32.4449   48.3397 H   0  0  0  0  0  0  0  0  0  0  0  0
   63.3696   33.2548   46.7901 H   0  0  0  0  0  0  0  0  0  0  0  0
   62.8128   31.9310   47.8719 H   0  0  0  0  0  0  0  0  0  0  0  0
   61.9919   33.6970   45.7325 H   0  0  0  0  0  0  0  0  0  0  0  0
   60.0068   33.8557   44.2688 H   0  0  0  0  0  0  0  0  0  0  0  0
   56.5220   34.0574   45.5519 H   0  0  0  0  0  0  0  0  0  0  0  0
   57.4256   35.1827   44.4904 H   0  0  0  0  0  0  0  0  0  0  0  0
   57.9760   33.4560   43.0490 H   0  0  0  0  0  0  0  0  0  0  0  0
   56.9933   31.3558   42.1236 H   0  0  0  0  0  0  0  0  0  0  0  0
   58.4269   30.6358   42.9868 H   0  0  0  0  0  0  0  0  0  0  0  0
   56.2393   29.5496   44.2718 H   0  0  0  0  0  0  0  0  0  0  0  0
   55.8039   29.5712   42.4897 H   0  0  0  0  0  0  0  0  0  0  0  0
   60.6210   26.9087   50.2464 H   0  0  0  0  0  0  0  0  0  0  0  0
   59.8627   26.3508   48.7165 H   0  0  0  0  0  0  0  0  0  0  0  0
   61.5620   26.9332   48.7165 H   0  0  0  0  0  0  0  0  0  0  0  0
   59.6386   28.8613   50.9682 H   0  0  0  0  0  0  0  0  0  0  0  0
   58.8380   32.0864   48.2535 H   0  0  0  0  0  0  0  0  0  0  0  0
   60.6661   30.9732   45.6558 H   0  0  0  0  0  0  0  0  0  0  0  0
   59.1105   30.1373   45.3271 H   0  0  0  0  0  0  0  0  0  0  0  0
   59.1105   31.8090   45.9844 H   0  0  0  0  0  0  0  0  0  0  0  0
   59.5708   25.7608   46.7163 H   0  0  0  0  0  0  0  0  0  0  0  0
   57.8285   24.7177   45.3103 H   0  0  0  0  0  0  0  0  0  0  0  0
   56.8220   26.0620   43.5270 H   0  0  0  0  0  0  0  0  0  0  0  0
   57.5400   34.3509   47.7185 H   0  0  0  0  0  0  0  0  0  0  0  0
   59.5061   34.1931   49.1717 H   0  0  0  0  0  0  0  0  0  0  0  0
   62.9983   35.3570   49.4172 H   0  0  0  0  0  0  0  0  0  0  0  0
   61.3592   34.9107   49.9743 H   0  0  0  0  0  0  0  0  0  0  0  0
   63.1627   34.0721   51.4759 H   0  0  0  0  0  0  0  0  0  0  0  0
   62.1632   32.7418   50.7085 H   0  0  0  0  0  0  0  0  0  0  0  0
  1  2  1  0
  2  3  1  0
  3  4  1  0
  4  5  1  0
  5  6  1  0
  6  7  1  0
  7  8  2  0
  8  9  1  0
  9 10  2  0
 10 11  1  0
 11 12  1  0
 12 13  1  0
 13 14  2  0
 13 15  1  0
 15 16  1  0
 16 17  1  0
 17 18  2  0
 18 19  1  0
 19 20  2  0
 20 21  1  0
 21 22  1  0
 22 23  2  0
 23 24  1  0
 23 25  1  0
 25 26  2  0
 26 27  1  0
 27 28  3  0
 26 29  1  0
 29 30  2  0
 30 31  1  0
 20 32  1  0
 32 33  2  0
 33 34  1  0
 10 35  1  0
 35 36  2  0
  6 37  1  0
 37 38  1  0
 38  3  1  0
 36  7  1  0
 34 18  1  0
 30 22  1  0
  1 39  1  0
  1 40  1  0
  1 41  1  0
  2 42  1  0
  2 43  1  0
  4 44  1  0
  4 45  1  0
  5 46  1  0
  5 47  1  0
  8 48  1  0
  9 49  1  0
 11 50  1  0
 11 51  1  0
 12 52  1  0
 15 53  1  0
 15 54  1  0
 16 55  1  0
 16 56  1  0
 24 57  1  0
 24 58  1  0
 24 59  1  0
 25 60  1  0
 29 61  1  0
 31 62  1  0
 31 63  1  0
 31 64  1  0
 32 65  1  0
 33 66  1  0
 34 67  1  0
 35 68  1  0
 36 69  1  0
 37 70  1  0
 37 71  1  0
 38 72  1  0
 38 73  1  0
M  END
>  <smiles>  (85) 
CCN1CCN(c2ccc(CNC(=O)CCN=c3nc(Oc4c(C)cc(C#N)cc4C)cc[nH]3)cc2)CC1

>  <score_type>  (85) 
oracle

>  <origin>  (85) 
adg

>  <m_score__min__energy>  (85) 
-9.1999999999999993

>  <m_primary>  (85) 
energy

$$$$
85:0
     RDKit          3D

 26 27  0  0  0  0  0  0  0  0999 V2000
   57.7680   32.2000   41.1510 C   0  0  0  0  0  0  0  0  0  0  0  0
   57.5680   31.9360   42.4470 C   0  0  0  0  0  0  0  0  0  0  0  0
   58.1450   32.8270   43.4810 C   0  0  0  0  0  0  0  0  0  0  0  0
   57.9690   32.6020   44.8000 C   0  0  0  0  0  0  0  0  0  0  0  0
   58.5510   33.4930   45.7820 N   0  0  0  0  0  0  0  0  0  0  0  0
   58.3680   33.3710   47.2220 C   0  0  0  0  0  0  0  0  0  0  0  0
   59.2980   34.4010   47.8480 C   0  0  0  0  0  0  0  0  0  0  0  0
   59.6460   35.3770   46.7310 C   0  0  0  0  0  0  0  0  0  0  0  0
   59.4010   34.6210   45.4330 C   0  0  0  0  0  0  0  0  0  0  0  0
   57.1970   31.4620   45.2400 N   0  0  0  0  0  0  0  0  0  0  0  0
   56.6050   30.5450   44.3130 C   0  0  0  0  0  0  0  0  0  0  0  0
   55.9400   29.5620   44.7340 O   0  0  0  0  0  0  0  0  0  0  0  0
   56.7800   30.7650   42.8770 C   0  0  0  0  0  0  0  0  0  0  0  0
   56.2670   29.9720   42.0420 O   0  0  0  0  0  0  0  0  0  0  0  0
   57.3401   31.5392   40.3827 H   0  0  0  0  0  0  0  0  0  0  0  0
   58.3604   33.0779   40.8536 H   0  0  0  0  0  0  0  0  0  0  0  0
   58.7353   33.6992   43.1635 H   0  0  0  0  0  0  0  0  0  0  0  0
   57.3235   33.5826   47.4945 H   0  0  0  0  0  0  0  0  0  0  0  0
   58.5954   32.3539   47.5739 H   0  0  0  0  0  0  0  0  0  0  0  0
   58.7906   34.9255   48.6710 H   0  0  0  0  0  0  0  0  0  0  0  0
   60.1981   33.9307   48.2706 H   0  0  0  0  0  0  0  0  0  0  0  0
   59.0013   36.2667   46.7843 H   0  0  0  0  0  0  0  0  0  0  0  0
   60.6860   35.7272   46.8070 H   0  0  0  0  0  0  0  0  0  0  0  0
   58.8953   35.2694   44.7024 H   0  0  0  0  0  0  0  0  0  0  0  0
   60.3445   34.2889   44.9752 H   0  0  0  0  0  0  0  0  0  0  0  0
   57.0440   31.2900   46.2580 H   0  0  0  0  0  0  0  0  0  0  0  0
  1  2  2  0
  2  3  1  0
  3  4  2  0
  4  5  1  0
  5  6  1  0
  6  7  1  0
  7  8  1  0
  8  9  1  0
  4 10  1  0
 10 11  1  0
 11 12  2  0
 11 13  1  0
 13 14  2  0
 13  2  1  0
  9  5  1  0
  1 15  1  0
  1 16  1  0
  3 17  1  0
  6 18  1  0
  6 19  1  0
  7 20  1  0
  7 21  1  0
  8 22  1  0
  8 23  1  0
  9 24  1  0
  9 25  1  0
 10 26  1  0
M  END
>  <UniqueID>  (86) 
81

>  <SMILES>  (86) 
C=C1C=C(N2CCCC2)NC(=O)C1=O

>  <Energy>  (86) 
23.621318186400902

>  <Genealogy>  (86) 
C=C1C=C(N2CCCC2)NC(=O)C1=O (3D coordinates assigned)
C=C1C=C(N2CCCC2)NC(=O)C1=O (nonaromatic ring conformer: 23.621318186400902 kcal/mol)

>  <smiles>  (86) 
C=C1C=C(N2CCCC2)NC(=O)C1=O

>  <score_type>  (86) 
oracle

>  <origin>  (86) 
adg

>  <m_score__min__energy>  (86) 
-6.6600000000000001

>  <m_primary>  (86) 
energy

$$$$
86:0
     RDKit          3D

 44 47  0  0  0  0  0  0  0  0999 V2000
   52.9980   28.4010   53.0020 C   0  0  0  0  0  0  0  0  0  0  0  0
   54.1500   29.0670   52.8690 C   0  0  0  0  0  0  0  0  0  0  0  0
   55.3070   28.4910   53.1110 O   0  0  0  0  0  0  0  0  0  0  0  0
   56.2800   29.3280   52.8380 C   0  0  0  0  0  0  0  0  0  0  0  0
   55.7500   30.5180   52.4010 C   0  0  0  0  0  0  0  0  0  0  0  0
   56.5280   31.7320   52.0910 C   0  0  0  0  0  0  0  0  0  0  0  0
   56.0470   32.8610   52.3800 O   0  0  0  0  0  0  0  0  0  0  0  0
   57.8110   31.6420   51.4460 N   0  0  0  0  0  0  0  0  0  0  0  0
   58.1020   30.5690   50.4850 C   0  0  0  0  0  0  0  0  0  0  0  0
   58.7290   31.1670   49.2270 C   0  0  0  0  0  0  0  0  0  0  0  0
   59.8440   32.0480   49.6000 N   0  0  0  0  0  0  0  0  0  0  0  0
   61.0980   31.9630   48.8930 C   0  0  0  0  0  0  0  0  0  0  0  0
   61.1260   31.5020   47.7190 O   0  0  0  0  0  0  0  0  0  0  0  0
   62.3780   32.4430   49.5190 C   0  0  0  0  0  0  0  0  0  0  0  0
   62.8190   33.8410   49.1080 C   0  0  0  0  0  0  0  0  0  0  0  0
   63.5170   32.6250   48.5250 C   0  0  0  0  0  0  0  0  0  0  0  0
   59.5780   33.1160   50.5770 C   0  0  0  0  0  0  0  0  0  0  0  0
   58.9100   32.5380   51.8280 C   0  0  0  0  0  0  0  0  0  0  0  0
   54.3650   30.3810   52.4310 C   0  0  0  0  0  0  0  0  0  0  0  0
   53.4950   31.3420   52.0540 C   0  0  0  0  0  0  0  0  0  0  0  0
   52.5210   31.2320   50.9620 C   0  0  0  0  0  0  0  0  0  0  0  0
   52.5290   30.2670   50.0260 N   0  0  0  0  0  0  0  0  0  0  0  0
   51.3900   30.5020   49.3360 C   0  0  0  0  0  0  0  0  0  0  0  0
   51.0380   29.7980   48.3540 O   0  0  0  0  0  0  0  0  0  0  0  0
   50.6540   31.5400   49.7900 N   0  0  0  0  0  0  0  0  0  0  0  0
   51.3830   31.9830   50.8240 C   0  0  0  0  0  0  0  0  0  0  0  0
   51.0300   33.0690   51.6200 O   0  0  0  0  0  0  0  0  0  0  0  0
   52.0434   28.9062   52.7933 H   0  0  0  0  0  0  0  0  0  0  0  0
   53.0050   27.3480   53.3201 H   0  0  0  0  0  0  0  0  0  0  0  0
   57.3532   29.1107   52.9427 H   0  0  0  0  0  0  0  0  0  0  0  0
   58.8020   29.8514   50.9378 H   0  0  0  0  0  0  0  0  0  0  0  0
   57.1680   30.0526   50.2187 H   0  0  0  0  0  0  0  0  0  0  0  0
   59.1028   30.3565   48.5841 H   0  0  0  0  0  0  0  0  0  0  0  0
   57.9705   31.7497   48.6837 H   0  0  0  0  0  0  0  0  0  0  0  0
   62.2441   31.9268   50.4811 H   0  0  0  0  0  0  0  0  0  0  0  0
   62.1674   34.4583   48.4721 H   0  0  0  0  0  0  0  0  0  0  0  0
   63.1477   34.7421   49.6465 H   0  0  0  0  0  0  0  0  0  0  0  0
   63.3707   32.3618   47.4670 H   0  0  0  0  0  0  0  0  0  0  0  0
   64.5602   32.2811   48.4667 H   0  0  0  0  0  0  0  0  0  0  0  0
   60.5277   33.5932   50.8604 H   0  0  0  0  0  0  0  0  0  0  0  0
   58.9046   33.8574   50.1221 H   0  0  0  0  0  0  0  0  0  0  0  0
   59.6538   31.9737   52.4096 H   0  0  0  0  0  0  0  0  0  0  0  0
   58.5074   33.3628   52.4344 H   0  0  0  0  0  0  0  0  0  0  0  0
   53.5183   32.2888   52.6135 H   0  0  0  0  0  0  0  0  0  0  0  0
  1  2  2  0
  2  3  1  0
  3  4  1  0
  4  5  2  0
  5  6  1  0
  6  7  2  0
  6  8  1  0
  8  9  1  0
  9 10  1  0
 10 11  1  0
 11 12  1  0
 12 13  2  0
 12 14  1  0
 14 15  1  0
 15 16  1  0
 11 17  1  0
 17 18  1  0
  5 19  1  0
 19 20  2  3
 20 21  1  0
 21 22  1  0
 22 23  1  0
 23 24  2  0
 23 25  1  0
 25 26  1  0
 26 27  1  0
 19  2  1  0
 26 21  2  0
 18  8  1  0
 16 14  1  0
  1 28  1  0
  1 29  1  0
  4 30  1  0
  9 31  1  0
  9 32  1  0
 10 33  1  0
 10 34  1  0
 14 35  1  0
 15 36  1  0
 15 37  1  0
 16 38  1  0
 16 39  1  0
 17 40  1  0
 17 41  1  0
 18 42  1  0
 18 43  1  0
 20 44  1  0
M  CHG  3  22  -1  25  -1  27  -1
M  END
>  <UniqueID>  (87) 
82

>  <SMILES>  (87) 
C=c1occ(C(=O)N2CCN(C(=O)C3CC3)CC2)c1=Cc1[n-]c(=O)[n-]c1[O-]

>  <Energy>  (87) 
384.8981971255023

>  <Genealogy>  (87) 
C=c1occ(C(=O)N2CCN(C(=O)C3CC3)CC2)c1=Cc1[n-]c(=O)[n-]c1[O-] (protonated)
C=c1occ(C(=O)N2CCN(C(=O)C3CC3)CC2)c1=Cc1[n-]c(=O)[n-]c1[O-] (3D coordinates assigned)
C=c1occ(C(=O)N2CCN(C(=O)C3CC3)CC2)c1=Cc1[n-]c(=O)[n-]c1[O-] (nonaromatic ring conformer: 384.8981971255023 kcal/mol)

>  <smiles>  (87) 
C=c1occ(C(=O)N2CCN(C(=O)C3CC3)CC2)c1=Cc1[nH]c(=O)[nH]c1O

>  <score_type>  (87) 
oracle

>  <origin>  (87) 
adg

>  <m_score__min__energy>  (87) 
-15.91

>  <m_primary>  (87) 
energy

$$$$
87:0
     RDKit          3D

 54 56  0  0  0  0  0  0  0  0999 V2000
   56.8989   33.6506   45.9947 H   0  0  0  0  0  0  0  0  0  0  0  0
   57.6240   32.8250   45.9440 C   0  0  0  0  0  0  0  0  0  0  0  0
   57.9435   32.4329   44.9672 H   0  0  0  0  0  0  0  0  0  0  0  0
   58.1180   32.2970   47.0720 C   0  0  0  0  0  0  0  0  0  0  0  0
   57.7843   32.7049   48.0376 H   0  0  0  0  0  0  0  0  0  0  0  0
   59.1280   31.1490   47.0680 C   0  0  1  0  0  0  0  0  0  0  0  0
   58.9850   30.2620   48.3160 C   0  0  0  0  0  0  0  0  0  0  0  0
   58.2470   29.2380   48.2690 O   0  0  0  0  0  0  0  0  0  0  0  0
   59.6590   30.5680   49.5600 N   0  0  0  0  0  0  0  0  0  0  0  0
   59.1580   31.5700   50.4590 C   0  0  0  0  0  0  0  0  0  0  0  0
   59.8090   32.8070   50.5750 C   0  0  0  0  0  0  0  0  0  0  0  0
   60.7087   33.0120   49.9762 H   0  0  0  0  0  0  0  0  0  0  0  0
   59.3170   33.7800   51.4500 C   0  0  0  0  0  0  0  0  0  0  0  0
   59.8420   34.7410   51.5543 H   0  0  0  0  0  0  0  0  0  0  0  0
   58.1580   33.5330   52.1930 C   0  0  0  0  0  0  0  0  0  0  0  0
   57.7763   34.2954   52.8880 H   0  0  0  0  0  0  0  0  0  0  0  0
   57.4850   32.3150   52.0510 C   0  0  0  0  0  0  0  0  0  0  0  0
   56.5677   32.1241   52.6274 H   0  0  0  0  0  0  0  0  0  0  0  0
   57.9760   31.3400   51.1780 C   0  0  0  0  0  0  0  0  0  0  0  0
   57.4343   30.3906   51.0547 H   0  0  0  0  0  0  0  0  0  0  0  0
   60.6810   29.6520   50.0710 C   0  0  0  0  0  0  0  0  0  0  0  0
   60.6674   29.6642   51.1708 H   0  0  0  0  0  0  0  0  0  0  0  0
   60.4722   28.6331   49.7130 H   0  0  0  0  0  0  0  0  0  0  0  0
   61.6711   29.9707   49.7130 H   0  0  0  0  0  0  0  0  0  0  0  0
   58.9140   30.2530   45.8390 C   0  0  0  0  0  0  0  0  0  0  0  0
   58.0803   30.5274   45.1759 H   0  0  0  0  0  0  0  0  0  0  0  0
   59.6290   29.1710   45.4800 C   0  0  0  0  0  0  0  0  0  0  0  0
   60.5569   29.3501   44.9171 H   0  0  0  0  0  0  0  0  0  0  0  0
   59.2840   27.7700   45.7710 C   0  0  0  0  0  0  0  0  0  0  0  0
   60.2060   26.9130   45.8040 O   0  0  0  0  0  0  0  0  0  0  0  0
   57.9470   27.4050   46.1410 N   0  0  0  0  0  0  0  0  0  0  0  0
   57.3730   28.1350   46.6150 H   0  0  0  0  0  0  0  0  0  0  0  0
   57.4080   26.0760   46.0130 C   0  0  0  0  0  0  0  0  0  0  0  0
   58.2520   24.9520   45.9140 C   0  0  0  0  0  0  0  0  0  0  0  0
   59.3432   25.0823   45.9614 H   0  0  0  0  0  0  0  0  0  0  0  0
   57.7120   23.6730   45.7560 C   0  0  0  0  0  0  0  0  0  0  0  0
   58.3784   22.8007   45.6859 H   0  0  0  0  0  0  0  0  0  0  0  0
   56.3290   23.5000   45.6870 C   0  0  0  0  0  0  0  0  0  0  0  0
   55.9063   22.4914   45.5687 H   0  0  0  0  0  0  0  0  0  0  0  0
   55.4820   24.6060   45.7680 C   0  0  0  0  0  0  0  0  0  0  0  0
   54.3924   24.4674   45.7083 H   0  0  0  0  0  0  0  0  0  0  0  0
   56.0140   25.8910   45.9250 C   0  0  0  0  0  0  0  0  0  0  0  0
   55.1520   26.9800   46.0000 O   0  0  0  0  0  0  0  0  0  0  0  0
   60.5200   31.8120   47.0730 C   0  0  0  0  0  0  0  0  0  0  0  0
   60.6830   33.2180   47.0370 C   0  0  0  0  0  0  0  0  0  0  0  0
   59.7961   33.8654   46.9719 H   0  0  0  0  0  0  0  0  0  0  0  0
   61.9560   33.7950   47.0830 C   0  0  0  0  0  0  0  0  0  0  0  0
   62.0654   34.8876   47.0172 H   0  0  0  0  0  0  0  0  0  0  0  0
   63.0870   32.9900   47.2120 C   0  0  0  0  0  0  0  0  0  0  0  0
   64.0882   33.4453   47.2293 H   0  0  0  0  0  0  0  0  0  0  0  0
   62.9470   31.6080   47.3190 C   0  0  0  0  0  0  0  0  0  0  0  0
   63.8380   30.9746   47.4409 H   0  0  0  0  0  0  0  0  0  0  0  0
   61.6790   31.0240   47.2720 C   0  0  0  0  0  0  0  0  0  0  0  0
   61.5795   29.9350   47.3915 H   0  0  0  0  0  0  0  0  0  0  0  0
  1  2  1  0
  2  3  1  0
  2  4  2  0
  4  5  1  0
  6  4  1  1
  6  7  1  0
  7  8  2  0
  7  9  1  0
  9 10  1  0
 10 11  2  0
 11 12  1  0
 11 13  1  0
 13 14  1  0
 13 15  2  0
 15 16  1  0
 15 17  1  0
 17 18  1  0
 17 19  2  0
 19 20  1  0
  9 21  1  0
 21 22  1  0
 21 23  1  0
 21 24  1  0
  6 25  1  0
 25 26  1  0
 25 27  2  0
 27 28  1  0
 27 29  1  0
 29 30  2  0
 29 31  1  0
 31 32  1  0
 31 33  1  0
 33 34  2  0
 34 35  1  0
 34 36  1  0
 36 37  1  0
 36 38  2  0
 38 39  1  0
 38 40  1  0
 40 41  1  0
 40 42  2  0
 42 43  1  0
  6 44  1  0
 44 45  2  0
 45 46  1  0
 45 47  1  0
 47 48  1  0
 47 49  2  0
 49 50  1  0
 49 51  1  0
 51 52  1  0
 51 53  2  0
 53 54  1  0
 19 10  1  0
 42 33  1  0
 53 44  1  0
M  CHG  1  43  -1
M  END
>  <UniqueID>  (88) 
83

>  <SMILES>  (88) 
C=C[C@](/C=C\C(=O)Nc1ccccc1[O-])(C(=O)N(C)c1ccccc1)c1ccccc1

>  <Energy>  (88) 
79.8025936634944

>  <Genealogy>  (88) 
C=CC(C=CC(=O)Nc1ccccc1[O-])(C(=O)N(C)c1ccccc1)c1ccccc1 (protonated)
C=C[C@](C=CC(=O)Nc1ccccc1[O-])(C(=O)N(C)c1ccccc1)c1ccccc1 (chirality)
C=C[C@](/C=C\C(=O)Nc1ccccc1[O-])(C(=O)N(C)c1ccccc1)c1ccccc1 (cis-trans isomerization)
C=C[C@](/C=C\C(=O)Nc1ccccc1[O-])(C(=O)N(C)c1ccccc1)c1ccccc1 (3D coordinates assigned)
C=C[C@](/C=C\C(=O)Nc1ccccc1[O-])(C(=O)N(C)c1ccccc1)c1ccccc1 (optimized conformer: 79.8025936634944 kcal/mol)

>  <smiles>  (88) 
C=CC(C=CC(=O)Nc1ccccc1O)(C(=O)N(C)c1ccccc1)c1ccccc1

>  <score_type>  (88) 
oracle

>  <origin>  (88) 
adg

>  <m_score__min__energy>  (88) 
-12.449999999999999

>  <m_primary>  (88) 
energy

$$$$
88:0
     RDKit          3D

 57 60  0  0  0  0  0  0  0  0999 V2000
   57.7540   32.6580   47.0750 O   0  0  0  0  0  0  0  0  0  0  0  0
   58.5130   33.3510   46.3440 C   0  0  0  0  0  0  0  0  0  0  0  0
   58.1910   33.5820   44.8940 C   0  0  0  0  0  0  0  0  0  0  0  0
   57.7810   32.3110   44.1340 C   0  0  0  0  0  0  0  0  0  0  0  0
   56.6240   31.6750   44.7710 N   0  0  0  0  0  0  0  0  0  0  0  0
   56.6080   29.9780   44.3970 S   0  0  0  0  0  0  0  0  0  0  0  0
   55.3130   29.3770   44.8670 O   0  0  0  0  0  0  0  0  0  0  0  0
   56.7190   29.7810   42.9110 O   0  0  0  0  0  0  0  0  0  0  0  0
   57.9390   29.1660   45.2030 C   0  0  0  0  0  0  0  0  0  0  0  0
   57.8150   28.1790   46.1660 C   0  0  0  0  0  0  0  0  0  0  0  0
   59.0500   27.7380   46.6560 C   0  0  0  0  0  0  0  0  0  0  0  0
   60.1400   28.3830   46.0820 C   0  0  0  0  0  0  0  0  0  0  0  0
   59.5670   29.5030   44.9650 S   0  0  0  0  0  0  0  0  0  0  0  0
   59.6570   34.0050   46.9050 N   0  0  0  0  0  0  0  0  0  0  0  0
   60.9400   33.4100   47.1520 C   0  0  0  0  0  0  0  0  0  0  0  0
   62.0880   33.8450   46.4630 C   0  0  0  0  0  0  0  0  0  0  0  0
   63.3390   33.3000   46.7600 C   0  0  0  0  0  0  0  0  0  0  0  0
   63.4620   32.3290   47.7550 C   0  0  0  0  0  0  0  0  0  0  0  0
   62.3350   31.9050   48.4610 C   0  0  0  0  0  0  0  0  0  0  0  0
   61.0690   32.4410   48.1700 C   0  0  0  0  0  0  0  0  0  0  0  0
   59.9180   31.9800   48.9010 N   0  0  0  0  0  0  0  0  0  0  0  0
   59.3390   32.8360   49.9440 C   0  0  0  0  0  0  0  0  0  0  0  0
   58.0020   32.2820   50.4500 C   0  0  0  0  0  0  0  0  0  0  0  0
   58.1180   30.8470   50.7560 N   0  0  0  0  0  0  0  0  0  0  0  0
   57.3500   30.2700   51.8340 C   0  0  0  0  0  0  0  0  0  0  0  0
   56.0040   30.6340   52.0330 C   0  0  0  0  0  0  0  0  0  0  0  0
   55.2640   30.0700   53.0750 C   0  0  0  0  0  0  0  0  0  0  0  0
   55.8560   29.1380   53.9310 C   0  0  0  0  0  0  0  0  0  0  0  0
   57.1890   28.7670   53.7440 C   0  0  0  0  0  0  0  0  0  0  0  0
   57.9330   29.3260   52.7010 C   0  0  0  0  0  0  0  0  0  0  0  0
   58.9060   29.9670   49.8760 C   0  0  0  0  0  0  0  0  0  0  0  0
   59.3140   30.6820   48.5850 C   0  0  0  0  0  0  0  0  0  0  0  0
   57.3624   34.3030   44.8344 H   0  0  0  0  0  0  0  0  0  0  0  0
   59.1111   33.9535   44.4192 H   0  0  0  0  0  0  0  0  0  0  0  0
   57.5217   32.5775   43.0988 H   0  0  0  0  0  0  0  0  0  0  0  0
   58.6239   31.6044   44.1473 H   0  0  0  0  0  0  0  0  0  0  0  0
   56.7260   31.7480   45.8080 H   0  0  0  0  0  0  0  0  0  0  0  0
   56.8480   27.7831   46.5098 H   0  0  0  0  0  0  0  0  0  0  0  0
   59.1488   26.9553   47.4226 H   0  0  0  0  0  0  0  0  0  0  0  0
   61.1974   28.1932   46.3182 H   0  0  0  0  0  0  0  0  0  0  0  0
   61.9991   34.6187   45.6862 H   0  0  0  0  0  0  0  0  0  0  0  0
   64.2293   33.6367   46.2086 H   0  0  0  0  0  0  0  0  0  0  0  0
   64.4478   31.8975   47.9830 H   0  0  0  0  0  0  0  0  0  0  0  0
   62.4386   31.1461   49.2505 H   0  0  0  0  0  0  0  0  0  0  0  0
   60.0425   32.8967   50.7874 H   0  0  0  0  0  0  0  0  0  0  0  0
   59.1579   33.8311   49.5115 H   0  0  0  0  0  0  0  0  0  0  0  0
   57.7082   32.8233   51.3614 H   0  0  0  0  0  0  0  0  0  0  0  0
   57.2427   32.4169   49.6656 H   0  0  0  0  0  0  0  0  0  0  0  0
   55.5321   31.3678   51.3630 H   0  0  0  0  0  0  0  0  0  0  0  0
   54.2132   30.3603   53.2218 H   0  0  0  0  0  0  0  0  0  0  0  0
   55.2721   28.6966   54.7521 H   0  0  0  0  0  0  0  0  0  0  0  0
   57.6545   28.0335   54.4187 H   0  0  0  0  0  0  0  0  0  0  0  0
   58.9815   29.0263   52.5565 H   0  0  0  0  0  0  0  0  0  0  0  0
   59.8134   29.6479   50.4097 H   0  0  0  0  0  0  0  0  0  0  0  0
   58.2834   29.1006   49.6081 H   0  0  0  0  0  0  0  0  0  0  0  0
   60.0430   30.0637   48.0407 H   0  0  0  0  0  0  0  0  0  0  0  0
   58.4213   30.8408   47.9622 H   0  0  0  0  0  0  0  0  0  0  0  0
  1  2  2  0
  2  3  1  0
  3  4  1  0
  4  5  1  0
  5  6  1  0
  6  7  2  0
  6  8  2  0
  6  9  1  0
  9 10  2  0
 10 11  1  0
 11 12  2  0
 12 13  1  0
  2 14  1  0
 14 15  1  0
 15 16  2  0
 16 17  1  0
 17 18  2  0
 18 19  1  0
 19 20  2  0
 20 21  1  0
 21 22  1  0
 22 23  1  0
 23 24  1  0
 24 25  1  0
 25 26  2  0
 26 27  1  0
 27 28  2  0
 28 29  1  0
 29 30  2  0
 24 31  1  0
 31 32  1  0
 13  9  1  0
 20 15  1  0
 32 21  1  0
 30 25  1  0
  3 33  1  0
  3 34  1  0
  4 35  1  0
  4 36  1  0
  5 37  1  0
 10 38  1  0
 11 39  1  0
 12 40  1  0
 16 41  1  0
 17 42  1  0
 18 43  1  0
 19 44  1  0
 22 45  1  0
 22 46  1  0
 23 47  1  0
 23 48  1  0
 26 49  1  0
 27 50  1  0
 28 51  1  0
 29 52  1  0
 30 53  1  0
 31 54  1  0
 31 55  1  0
 32 56  1  0
 32 57  1  0
M  CHG  1  14  -1
M  END
>  <UniqueID>  (89) 
84

>  <SMILES>  (89) 
O=C(CCNS(=O)(=O)c1cccs1)[N-]c1ccccc1N1CCN(c2ccccc2)CC1

>  <Energy>  (89) 
94.51433344886765

>  <Genealogy>  (89) 
O=C(CCNS(=O)(=O)c1cccs1)[N-]c1ccccc1N1CCN(c2ccccc2)CC1 (protonated)
O=C(CCNS(=O)(=O)c1cccs1)[N-]c1ccccc1N1CCN(c2ccccc2)CC1 (3D coordinates assigned)
O=C(CCNS(=O)(=O)c1cccs1)[N-]c1ccccc1N1CCN(c2ccccc2)CC1 (nonaromatic ring conformer: 94.51433344886765 kcal/mol)

>  <smiles>  (89) 
O=C(CCNS(=O)(=O)c1cccs1)Nc1ccccc1N1CCN(c2ccccc2)CC1

>  <score_type>  (89) 
oracle

>  <origin>  (89) 
adg

>  <m_score__min__energy>  (89) 
-11.43

>  <m_primary>  (89) 
energy

$$$$
89:0
     RDKit          3D

 45 48  0  0  0  0  0  0  0  0999 V2000
   57.2120   29.3400   52.5780 H   0  0  0  0  0  0  0  0  0  0  0  0
   56.9960   29.7730   51.6530 N   0  0  0  0  0  0  0  0  0  0  0  0
   57.7510   30.6970   51.1520 C   0  0  0  0  0  0  0  0  0  0  0  0
   57.8800   32.2600   51.7570 S   0  0  0  0  0  0  0  0  0  0  0  0
   58.9910   32.7280   50.5760 C   0  0  0  0  0  0  0  0  0  0  0  0
   59.4492   33.7233   50.4794 H   0  0  0  0  0  0  0  0  0  0  0  0
   59.2280   31.6320   49.7420 C   0  0  0  0  0  0  0  0  0  0  0  0
   60.1750   31.6810   48.5760 C   0  0  0  0  0  0  0  0  0  0  0  0
   60.7253   32.6333   48.5965 H   0  0  0  0  0  0  0  0  0  0  0  0
   60.8755   30.8362   48.6512 H   0  0  0  0  0  0  0  0  0  0  0  0
   59.4340   31.5750   47.3020 N   0  0  0  0  0  0  0  0  0  0  0  0
   59.0250   30.3410   46.8290 C   0  0  0  0  0  0  0  0  0  0  0  0
   59.2890   29.3010   47.4970 O   0  0  0  0  0  0  0  0  0  0  0  0
   58.3260   30.2320   45.6400 N   0  0  0  0  0  0  0  0  0  0  0  0
   57.9460   28.9060   45.1090 C   0  0  0  0  0  0  0  0  0  0  0  0
   58.2379   28.8412   44.0504 H   0  0  0  0  0  0  0  0  0  0  0  0
   58.4611   28.1260   45.6890 H   0  0  0  0  0  0  0  0  0  0  0  0
   56.4580   28.7050   45.2280 C   0  0  0  0  0  0  0  0  0  0  0  0
   55.6820   29.6330   44.8690 O   0  0  0  0  0  0  0  0  0  0  0  0
   55.8950   27.4430   45.6090 N   0  0  0  0  0  0  0  0  0  0  0  0
   56.6230   26.2200   45.7670 C   0  0  0  0  0  0  0  0  0  0  0  0
   57.3980   25.9800   46.9120 C   0  0  0  0  0  0  0  0  0  0  0  0
   57.4606   26.7433   47.7016 H   0  0  0  0  0  0  0  0  0  0  0  0
   58.0900   24.7750   47.0520 C   0  0  0  0  0  0  0  0  0  0  0  0
   58.7100   24.5981   47.9433 H   0  0  0  0  0  0  0  0  0  0  0  0
   57.9960   23.7930   46.0610 C   0  0  0  0  0  0  0  0  0  0  0  0
   58.5579   22.8531   46.1653 H   0  0  0  0  0  0  0  0  0  0  0  0
   57.1870   24.0030   44.9340 C   0  0  0  0  0  0  0  0  0  0  0  0
   57.1120   22.9600   43.8560 C   0  0  0  0  0  0  0  0  0  0  0  0
   57.0403   21.9629   44.3149 H   0  0  0  0  0  0  0  0  0  0  0  0
   56.2246   23.1410   43.2318 H   0  0  0  0  0  0  0  0  0  0  0  0
   58.0162   23.0122   43.2318 H   0  0  0  0  0  0  0  0  0  0  0  0
   56.5040   25.2210   44.7920 C   0  0  0  0  0  0  0  0  0  0  0  0
   55.8708   25.3924   43.9090 H   0  0  0  0  0  0  0  0  0  0  0  0
   58.0090   31.3600   44.9220 C   0  0  0  0  0  0  0  0  0  0  0  0
   57.3690   31.2870   43.8350 O   0  0  0  0  0  0  0  0  0  0  0  0
   58.3990   32.5940   45.4080 C   0  0  0  0  0  0  0  0  0  0  0  0
   58.1370   34.1180   44.7540 S   0  0  0  0  0  0  0  0  0  0  0  0
   58.9310   34.9490   45.9900 C   0  0  0  0  0  0  0  0  0  0  0  0
   59.0525   36.0406   46.0496 H   0  0  0  0  0  0  0  0  0  0  0  0
   59.4080   34.0300   46.9230 C   0  0  0  0  0  0  0  0  0  0  0  0
   59.9639   34.3161   47.8281 H   0  0  0  0  0  0  0  0  0  0  0  0
   59.1040   32.6970   46.5860 C   0  0  0  0  0  0  0  0  0  0  0  0
   58.5300   30.5090   50.0680 N   0  0  0  0  0  0  0  0  0  0  0  0
   58.5890   29.6060   49.5440 H   0  0  0  0  0  0  0  0  0  0  0  0
  1  2  1  0
  2  3  2  0
  3  4  1  0
  4  5  1  0
  5  6  1  0
  5  7  2  0
  7  8  1  0
  8  9  1  0
  8 10  1  0
  8 11  1  0
 11 12  1  0
 12 13  2  0
 12 14  1  0
 14 15  1  0
 15 16  1  0
 15 17  1  0
 15 18  1  0
 18 19  2  0
 18 20  1  0
 20 21  1  0
 21 22  2  0
 22 23  1  0
 22 24  1  0
 24 25  1  0
 24 26  2  0
 26 27  1  0
 26 28  1  0
 28 29  1  0
 29 30  1  0
 29 31  1  0
 29 32  1  0
 28 33  2  0
 33 34  1  0
 14 35  1  0
 35 36  2  0
 35 37  1  0
 37 38  1  0
 38 39  1  0
 39 40  1  0
 39 41  2  0
 41 42  1  0
 41 43  1  0
  7 44  1  0
 44 45  1  0
 44  3  1  0
 43 11  1  0
 33 21  1  0
 43 37  2  0
M  CHG  1  20  -1
M  END
>  <UniqueID>  (90) 
85

>  <SMILES>  (90) 
[H]/N=c1/[nH]c(Cn2c(=O)n(CC(=O)[N-]c3cccc(C)c3)c(=O)c3sccc32)cs1

>  <Energy>  (90) 
120.63251966634859

>  <Genealogy>  (90) 
Cc1cccc([N-]C(=O)Cn2c(=O)c3sccc3n(Cc3csc(=N)[nH]3)c2=O)c1 (protonated)
[H]/N=c1/[nH]c(Cn2c(=O)n(CC(=O)[N-]c3cccc(C)c3)c(=O)c3sccc32)cs1 (cis-trans isomerization)
[H]/N=c1/[nH]c(Cn2c(=O)n(CC(=O)[N-]c3cccc(C)c3)c(=O)c3sccc32)cs1 (3D coordinates assigned)
[H]/N=c1/[nH]c(Cn2c(=O)n(CC(=O)[N-]c3cccc(C)c3)c(=O)c3sccc32)cs1 (optimized conformer: 120.63251966634859 kcal/mol)

>  <smiles>  (90) 
Cc1cccc(NC(=O)Cn2c(=O)c3sccc3n(Cc3csc(=N)[nH]3)c2=O)c1

>  <score_type>  (90) 
oracle

>  <origin>  (90) 
adg

>  <m_score__min__energy>  (90) 
-10.73

>  <m_primary>  (90) 
energy

$$$$
90:0
     RDKit          3D

 60 63  0  0  0  0  0  0  0  0999 V2000
   58.7110   33.7020   43.3200 H   0  0  0  0  0  0  0  0  0  0  0  0
   59.1880   33.7210   44.1900 O   0  0  0  0  0  0  0  0  0  0  0  0
   58.4260   34.5170   45.0600 C   0  0  1  0  0  0  0  0  0  0  0  0
   57.9155   35.2971   44.4761 H   0  0  0  0  0  0  0  0  0  0  0  0
   57.3510   33.6590   45.7610 C   0  0  0  0  0  0  0  0  0  0  0  0
   56.4308   34.2561   45.8432 H   0  0  0  0  0  0  0  0  0  0  0  0
   57.2152   32.7552   45.1489 H   0  0  0  0  0  0  0  0  0  0  0  0
   57.7520   33.1850   47.1780 C   0  0  0  0  0  0  0  0  0  0  0  0
   57.4526   33.9618   47.8970 H   0  0  0  0  0  0  0  0  0  0  0  0
   57.2406   32.2249   47.3416 H   0  0  0  0  0  0  0  0  0  0  0  0
   59.2870   32.9090   47.3660 C   0  0  1  0  0  0  0  0  0  0  0  0
   59.5740   32.5030   48.7930 N   0  0  0  0  0  0  0  0  0  0  0  0
   59.2700   33.5250   49.8190 C   0  0  0  0  0  0  0  0  0  0  0  0
   59.3997   33.0890   50.8205 H   0  0  0  0  0  0  0  0  0  0  0  0
   59.9530   34.3789   49.6996 H   0  0  0  0  0  0  0  0  0  0  0  0
   58.2313   33.8668   49.6996 H   0  0  0  0  0  0  0  0  0  0  0  0
   60.9160   31.9210   49.0600 C   0  0  0  0  0  0  0  0  0  0  0  0
   61.0373   31.8296   50.1495 H   0  0  0  0  0  0  0  0  0  0  0  0
   61.6437   32.6018   48.5941 H   0  0  0  0  0  0  0  0  0  0  0  0
   61.1620   30.5390   48.4360 C   0  0  0  0  0  0  0  0  0  0  0  0
   61.7340   29.9307   49.1521 H   0  0  0  0  0  0  0  0  0  0  0  0
   61.7091   30.7017   47.4957 H   0  0  0  0  0  0  0  0  0  0  0  0
   59.9170   29.8140   48.0950 N   0  0  2  0  0  0  0  0  0  0  0  0
   59.2780   29.9120   48.9180 H   0  0  0  0  0  0  0  0  0  0  0  0
   60.2380   28.4090   47.9320 C   0  0  0  0  0  0  0  0  0  0  0  0
   61.0790   27.8600   48.7000 O   0  0  0  0  0  0  0  0  0  0  0  0
   59.4970   27.5600   46.9760 C   0  0  0  0  0  0  0  0  0  0  0  0
   58.6690   26.5290   47.3620 C   0  0  0  0  0  0  0  0  0  0  0  0
   58.4787   26.1925   48.3918 H   0  0  0  0  0  0  0  0  0  0  0  0
   58.1220   25.9970   46.2070 C   0  0  0  0  0  0  0  0  0  0  0  0
   57.2990   24.9300   46.2150 C   0  0  0  0  0  0  0  0  0  0  0  0
   57.7398   23.9562   46.4748 H   0  0  0  0  0  0  0  0  0  0  0  0
   55.8620   24.9570   45.9060 C   0  0  0  0  0  0  0  0  0  0  0  0
   55.0520   23.8830   45.9410 N   0  0  0  0  0  0  0  0  0  0  0  0
   53.8250   24.4110   45.7370 C   0  0  0  0  0  0  0  0  0  0  0  0
   52.7820   23.7060   45.6920 O   0  0  0  0  0  0  0  0  0  0  0  0
   53.8030   25.7540   45.5970 N   0  0  0  0  0  0  0  0  0  0  0  0
   55.0990   26.0840   45.7200 C   0  0  0  0  0  0  0  0  0  0  0  0
   55.5760   27.3890   45.6590 O   0  0  0  0  0  0  0  0  0  0  0  0
   58.6120   26.7780   45.1460 C   0  0  0  0  0  0  0  0  0  0  0  0
   58.1860   26.7630   43.8720 C   0  0  0  0  0  0  0  0  0  0  0  0
   58.6524   27.4259   43.1283 H   0  0  0  0  0  0  0  0  0  0  0  0
   57.3708   26.0878   43.5726 H   0  0  0  0  0  0  0  0  0  0  0  0
   59.4930   27.6950   45.6290 N   0  0  0  0  0  0  0  0  0  0  0  0
   60.2550   28.6740   44.8470 C   0  0  0  0  0  0  0  0  0  0  0  0
   60.7852   29.3552   45.5288 H   0  0  0  0  0  0  0  0  0  0  0  0
   60.9844   28.1489   44.2128 H   0  0  0  0  0  0  0  0  0  0  0  0
   59.5669   29.2522   44.2128 H   0  0  0  0  0  0  0  0  0  0  0  0
   59.1880   30.3280   46.9010 C   0  0  0  0  0  0  0  0  0  0  0  0
   58.1209   30.4055   47.1565 H   0  0  0  0  0  0  0  0  0  0  0  0
   59.3831   29.6174   46.0843 H   0  0  0  0  0  0  0  0  0  0  0  0
   59.6680   31.7110   46.4060 C   0  0  0  0  0  0  0  0  0  0  0  0
   59.2168   31.9009   45.4209 H   0  0  0  0  0  0  0  0  0  0  0  0
   60.7667   31.6709   46.3698 H   0  0  0  0  0  0  0  0  0  0  0  0
   60.0870   34.2140   46.9830 C   0  0  0  0  0  0  0  0  0  0  0  0
   60.3547   34.7336   47.9149 H   0  0  0  0  0  0  0  0  0  0  0  0
   60.9561   33.8761   46.3995 H   0  0  0  0  0  0  0  0  0  0  0  0
   59.3330   35.2120   46.0820 C   0  0  0  0  0  0  0  0  0  0  0  0
   58.7137   35.8618   46.7178 H   0  0  0  0  0  0  0  0  0  0  0  0
   60.0845   35.7879   45.5221 H   0  0  0  0  0  0  0  0  0  0  0  0
  1  2  1  0
  2  3  1  0
  3  4  1  1
  3  5  1  0
  5  6  1  0
  5  7  1  0
  5  8  1  0
  8  9  1  0
  8 10  1  0
  8 11  1  0
 11 12  1  6
 12 13  1  0
 13 14  1  0
 13 15  1  0
 13 16  1  0
 12 17  1  0
 17 18  1  0
 17 19  1  0
 17 20  1  0
 20 21  1  0
 20 22  1  0
 20 23  1  0
 23 24  1  1
 23 25  1  0
 25 26  2  0
 25 27  1  0
 27 28  2  0
 28 29  1  0
 28 30  1  0
 30 31  2  0
 31 32  1  0
 31 33  1  0
 33 34  1  0
 34 35  1  0
 35 36  2  0
 35 37  1  0
 37 38  1  0
 38 39  1  0
 30 40  1  0
 40 41  2  0
 41 42  1  0
 41 43  1  0
 40 44  1  0
 44 45  1  0
 45 46  1  0
 45 47  1  0
 45 48  1  0
 23 49  1  0
 49 50  1  0
 49 51  1  0
 49 52  1  0
 52 53  1  0
 52 54  1  0
 11 55  1  0
 55 56  1  0
 55 57  1  0
 55 58  1  0
 58 59  1  0
 58 60  1  0
 58  3  1  0
 52 11  1  0
 44 27  1  0
 38 33  2  0
M  CHG  4  23   1  34  -1  37  -1  39  -1
M  END
>  <UniqueID>  (91) 
86

>  <SMILES>  (91) 
C=c1/c(=C\c2[n-]c(=O)[n-]c2[O-])cc(C(=O)[N@H+]2CCN(C)C3(CCC(O)CC3)CC2)n1C

>  <Energy>  (91) 
174.5201042409472

>  <Genealogy>  (91) 
C=c1c(=Cc2[n-]c(=O)[n-]c2[O-])cc(C(=O)[NH+]2CCN(C)C3(CCC(O)CC3)CC2)n1C (protonated)
C=c1c(=Cc2[n-]c(=O)[n-]c2[O-])cc(C(=O)[N@H+]2CCN(C)C3(CCC(O)CC3)CC2)n1C (chirality)
C=c1/c(=C\c2[n-]c(=O)[n-]c2[O-])cc(C(=O)[N@H+]2CCN(C)C3(CCC(O)CC3)CC2)n1C (cis-trans isomerization)
C=c1/c(=C\c2[n-]c(=O)[n-]c2[O-])cc(C(=O)[N@H+]2CCN(C)C3(CCC(O)CC3)CC2)n1C (3D coordinates assigned)
C=c1/c(=C\c2[n-]c(=O)[n-]c2[O-])cc(C(=O)[N@H+]2CCN(C)C3(CCC(O)CC3)CC2)n1C (nonaromatic ring conformer: 174.5201042409472 kcal/mol)

>  <smiles>  (91) 
C=c1c(=Cc2[nH]c(=O)[nH]c2O)cc(C(=O)N2CCN(C)C3(CCC(O)CC3)CC2)n1C

>  <score_type>  (91) 
oracle

>  <origin>  (91) 
adg

>  <m_score__min__energy>  (91) 
-13.69

>  <m_primary>  (91) 
energy

$$$$
