0:0
     RDKit          3D

 43 45  0  0  0  0  0  0  0  0999 V2000
   57.3700   32.4170   40.8190 C   0  0  0  0  0  0  0  0  0  0  0  0
   57.4600   31.5120   41.9140 O   0  0  0  0  0  0  0  0  0  0  0  0
   57.7500   31.8880   43.2360 C   0  0  0  0  0  0  0  0  0  0  0  0
   58.3820   33.1090   43.5370 C   0  0  0  0  0  0  0  0  0  0  0  0
   58.6610   33.4560   44.8610 C   0  0  0  0  0  0  0  0  0  0  0  0
   58.3290   32.5840   45.9060 C   0  0  0  0  0  0  0  0  0  0  0  0
   58.5950   32.9690   47.3350 C   0  0  0  0  0  0  0  0  0  0  0  0
   58.9110   31.7470   48.1370 C   0  0  0  0  0  0  0  0  0  0  0  0
   58.4120   31.6090   49.2870 O   0  0  0  0  0  0  0  0  0  0  0  0
   59.7830   30.7490   47.5880 N   0  0  0  0  0  0  0  0  0  0  0  0
   59.6220   29.4610   47.6630 C   0  0  0  0  0  0  0  0  0  0  0  0
   58.7860   28.7330   46.8840 N   0  0  0  0  0  0  0  0  0  0  0  0
   58.8740   27.3960   47.1450 C   0  0  0  0  0  0  0  0  0  0  0  0
   58.0650   26.3880   46.4170 C   0  0  0  0  0  0  0  0  0  0  0  0
   56.6590   26.4390   46.4580 C   0  0  0  0  0  0  0  0  0  0  0  0
   55.8960   25.4960   45.7630 C   0  0  0  0  0  0  0  0  0  0  0  0
   56.5250   24.4980   45.0150 C   0  0  0  0  0  0  0  0  0  0  0  0
   55.7810   23.5910   44.3350 F   0  0  0  0  0  0  0  0  0  0  0  0
   57.9190   24.4360   44.9680 C   0  0  0  0  0  0  0  0  0  0  0  0
   58.6870   25.3730   45.6640 C   0  0  0  0  0  0  0  0  0  0  0  0
   59.7970   27.0650   48.1410 C   0  0  0  0  0  0  0  0  0  0  0  0
   60.5140   28.4840   48.6930 S   0  0  0  0  0  0  0  0  0  0  0  0
   57.7010   31.3650   45.6120 C   0  0  0  0  0  0  0  0  0  0  0  0
   57.3980   31.0180   44.2860 C   0  0  0  0  0  0  0  0  0  0  0  0
   56.5740   29.4930   43.9440 S   0  0  0  0  0  0  0  0  0  0  0  0
   55.1470   29.3380   44.9050 N   0  0  0  0  0  0  0  0  0  0  0  0
   56.1820   29.4470   42.4940 O   0  0  0  0  0  0  0  0  0  0  0  0
   57.4970   28.3480   44.2490 O   0  0  0  0  0  0  0  0  0  0  0  0
   57.2679   33.4440   41.1996 H   0  0  0  0  0  0  0  0  0  0  0  0
   58.2800   32.3421   40.2056 H   0  0  0  0  0  0  0  0  0  0  0  0
   56.4926   32.1643   40.2056 H   0  0  0  0  0  0  0  0  0  0  0  0
   58.6584   33.7955   42.7232 H   0  0  0  0  0  0  0  0  0  0  0  0
   59.1438   34.4188   45.0842 H   0  0  0  0  0  0  0  0  0  0  0  0
   59.4481   33.6624   47.3739 H   0  0  0  0  0  0  0  0  0  0  0  0
   57.7021   33.4573   47.7525 H   0  0  0  0  0  0  0  0  0  0  0  0
   58.1940   29.1260   46.1230 H   0  0  0  0  0  0  0  0  0  0  0  0
   56.1574   27.2258   47.0406 H   0  0  0  0  0  0  0  0  0  0  0  0
   54.7977   25.5400   45.8053 H   0  0  0  0  0  0  0  0  0  0  0  0
   58.4138   23.6477   44.3817 H   0  0  0  0  0  0  0  0  0  0  0  0
   59.7849   25.3177   45.6236 H   0  0  0  0  0  0  0  0  0  0  0  0
   60.0173   26.0497   48.5026 H   0  0  0  0  0  0  0  0  0  0  0  0
   57.4434   30.6742   46.4283 H   0  0  0  0  0  0  0  0  0  0  0  0
   55.3220   28.5780   45.5990 H   0  0  0  0  0  0  0  0  0  0  0  0
  1  2  1  0
  2  3  1  0
  3  4  2  0
  4  5  1  0
  5  6  2  0
  6  7  1  0
  7  8  1  0
  8  9  2  0
  8 10  1  0
 10 11  2  3
 11 12  1  0
 12 13  1  0
 13 14  1  0
 14 15  2  0
 15 16  1  0
 16 17  2  0
 17 18  1  0
 17 19  1  0
 19 20  2  0
 13 21  2  0
 21 22  1  0
  6 23  1  0
 23 24  2  0
 24 25  1  0
 25 26  1  0
 25 27  2  0
 25 28  2  0
 24  3  1  0
 22 11  1  0
 20 14  1  0
  1 29  1  0
  1 30  1  0
  1 31  1  0
  4 32  1  0
  5 33  1  0
  7 34  1  0
  7 35  1  0
 12 36  1  0
 15 37  1  0
 16 38  1  0
 19 39  1  0
 20 40  1  0
 21 41  1  0
 23 42  1  0
 26 43  1  0
M  CHG  1  26  -1
M  END
>  <UniqueID>  (1) 
1

>  <SMILES>  (1) 
COc1ccc(CC(=O)N=c2[nH]c(-c3ccc(F)cc3)cs2)cc1S([NH-])(=O)=O

>  <Energy>  (1) 
81.46494508813022

>  <Genealogy>  (1) 
COc1ccc(CC(=O)N=c2[nH]c(-c3ccc(F)cc3)cs2)cc1S([NH-])(=O)=O (protonated)
COc1ccc(CC(=O)N=c2[nH]c(-c3ccc(F)cc3)cs2)cc1S([NH-])(=O)=O (3D coordinates assigned)
COc1ccc(CC(=O)N=c2[nH]c(-c3ccc(F)cc3)cs2)cc1S([NH-])(=O)=O (optimized conformer: 81.46494508813022 kcal/mol)

>  <smiles>  (1) 
COc1ccc(CC(=O)N=c2[nH]c(-c3ccc(F)cc3)cs2)cc1S(N)(=O)=O

>  <score_type>  (1) 
oracle

>  <origin>  (1) 
adg

>  <m_score__min__energy>  (1) 
-12.529999999999999

>  <m_primary>  (1) 
energy

$$$$
1:0
     RDKit          3D

 34 35  0  0  0  0  0  0  0  0999 V2000
   56.5460   29.4170   42.6280 N   0  0  0  0  0  0  0  0  0  0  0  0
   56.5710   29.8040   44.3120 S   0  0  0  0  0  0  0  0  0  0  0  0
   55.5340   28.9870   45.0320 O   0  0  0  0  0  0  0  0  0  0  0  0
   56.2420   31.2600   44.4910 O   0  0  0  0  0  0  0  0  0  0  0  0
   58.1660   29.4570   44.9780 C   0  0  0  0  0  0  0  0  0  0  0  0
   58.7010   30.2700   45.9880 C   0  0  0  0  0  0  0  0  0  0  0  0
   59.9580   29.9820   46.5430 C   0  0  0  0  0  0  0  0  0  0  0  0
   60.5000   30.8100   47.6770 C   0  0  0  0  0  0  0  0  0  0  0  0
   61.6700   31.5810   47.2500 N   0  0  0  0  0  0  0  0  0  0  0  0
   61.3290   33.2890   47.1980 S   0  0  0  0  0  0  0  0  0  0  0  0
   62.3690   33.9910   46.3670 O   0  0  0  0  0  0  0  0  0  0  0  0
   61.3780   33.8410   48.5940 O   0  0  0  0  0  0  0  0  0  0  0  0
   59.7200   33.5760   46.5380 C   0  0  0  0  0  0  0  0  0  0  0  0
   58.5910   33.2910   47.3170 C   0  0  0  0  0  0  0  0  0  0  0  0
   57.3090   33.4700   46.7890 C   0  0  0  0  0  0  0  0  0  0  0  0
   57.1500   33.9440   45.4830 C   0  0  0  0  0  0  0  0  0  0  0  0
   58.2730   34.2430   44.7070 C   0  0  0  0  0  0  0  0  0  0  0  0
   59.5560   34.0610   45.2310 C   0  0  0  0  0  0  0  0  0  0  0  0
   60.6930   28.8910   46.0570 C   0  0  0  0  0  0  0  0  0  0  0  0
   60.1710   28.0900   45.0370 C   0  0  0  0  0  0  0  0  0  0  0  0
   58.9120   28.3670   44.4990 C   0  0  0  0  0  0  0  0  0  0  0  0
   58.4220   27.5730   43.5140 F   0  0  0  0  0  0  0  0  0  0  0  0
   56.2960   28.4060   42.5500 H   0  0  0  0  0  0  0  0  0  0  0  0
   57.5280   29.5110   42.2800 H   0  0  0  0  0  0  0  0  0  0  0  0
   58.1315   31.1396   46.3479 H   0  0  0  0  0  0  0  0  0  0  0  0
   59.7186   31.5031   48.0222 H   0  0  0  0  0  0  0  0  0  0  0  0
   60.8025   30.1350   48.4911 H   0  0  0  0  0  0  0  0  0  0  0  0
   58.7136   32.9253   48.3472 H   0  0  0  0  0  0  0  0  0  0  0  0
   56.4250   33.2379   47.4011 H   0  0  0  0  0  0  0  0  0  0  0  0
   56.1412   34.0814   45.0667 H   0  0  0  0  0  0  0  0  0  0  0  0
   58.1471   34.6222   43.6821 H   0  0  0  0  0  0  0  0  0  0  0  0
   60.4383   34.2981   44.6184 H   0  0  0  0  0  0  0  0  0  0  0  0
   61.6831   28.6648   46.4796 H   0  0  0  0  0  0  0  0  0  0  0  0
   60.7540   27.2383   44.6566 H   0  0  0  0  0  0  0  0  0  0  0  0
  1  2  1  0
  2  3  2  0
  2  4  2  0
  2  5  1  0
  5  6  2  0
  6  7  1  0
  7  8  1  0
  8  9  1  0
  9 10  1  0
 10 11  2  0
 10 12  2  0
 10 13  1  0
 13 14  2  0
 14 15  1  0
 15 16  2  0
 16 17  1  0
 17 18  2  0
  7 19  2  0
 19 20  1  0
 20 21  2  0
 21 22  1  0
 21  5  1  0
 18 13  1  0
  1 23  1  0
  1 24  1  0
  6 25  1  0
  8 26  1  0
  8 27  1  0
 14 28  1  0
 15 29  1  0
 16 30  1  0
 17 31  1  0
 18 32  1  0
 19 33  1  0
 20 34  1  0
M  CHG  1   9  -1
M  END
>  <UniqueID>  (2) 
2

>  <SMILES>  (2) 
NS(=O)(=O)c1cc(C[N-]S(=O)(=O)c2ccccc2)ccc1F

>  <Energy>  (2) 
28.142207619471787

>  <Genealogy>  (2) 
NS(=O)(=O)c1cc(C[N-]S(=O)(=O)c2ccccc2)ccc1F (protonated)
NS(=O)(=O)c1cc(C[N-]S(=O)(=O)c2ccccc2)ccc1F (3D coordinates assigned)
NS(=O)(=O)c1cc(C[N-]S(=O)(=O)c2ccccc2)ccc1F (optimized conformer: 28.142207619471787 kcal/mol)

>  <smiles>  (2) 
NS(=O)(=O)c1cc(CNS(=O)(=O)c2ccccc2)ccc1F

>  <score_type>  (2) 
oracle

>  <origin>  (2) 
adg

>  <m_score__min__energy>  (2) 
-10.26

>  <m_primary>  (2) 
energy

$$$$
2:0
     RDKit          3D

 43 45  0  0  0  0  0  0  0  0999 V2000
   55.3920   29.5650   44.8640 O   0  0  0  0  0  0  0  0  0  0  0  0
   56.5930   29.7870   43.9900 S   0  0  0  0  0  0  0  0  0  0  0  0
   56.1120   30.1020   42.5990 O   0  0  0  0  0  0  0  0  0  0  0  0
   57.5520   28.3340   43.9590 N   0  0  0  0  0  0  0  0  0  0  0  0
   58.0790   27.9950   45.2940 C   0  0  0  0  0  0  0  0  0  0  0  0
   59.6180   27.9850   45.2270 C   0  0  0  0  0  0  0  0  0  0  0  0
   60.2090   27.1510   46.3710 C   0  0  0  0  0  0  0  0  0  0  0  0
   59.7870   25.7360   46.3240 N   0  0  0  0  0  0  0  0  0  0  0  0
   58.5140   25.4970   45.6160 C   0  0  0  0  0  0  0  0  0  0  0  0
   57.5180   26.6430   45.8210 C   0  0  0  0  0  0  0  0  0  0  0  0
   57.5210   31.1460   44.6190 C   0  0  0  0  0  0  0  0  0  0  0  0
   58.1290   31.0560   45.8790 C   0  0  0  0  0  0  0  0  0  0  0  0
   58.9070   32.1140   46.3610 C   0  0  0  0  0  0  0  0  0  0  0  0
   59.1010   33.2610   45.5840 C   0  0  0  0  0  0  0  0  0  0  0  0
   59.8880   34.3000   46.1020 O   0  0  0  0  0  0  0  0  0  0  0  0
   60.9950   34.1350   46.9460 C   0  0  0  0  0  0  0  0  0  0  0  0
   60.8040   34.2160   48.3310 C   0  0  0  0  0  0  0  0  0  0  0  0
   61.8820   34.0420   49.2060 C   0  0  0  0  0  0  0  0  0  0  0  0
   63.1570   33.7730   48.7010 C   0  0  0  0  0  0  0  0  0  0  0  0
   63.3540   33.6710   47.3210 C   0  0  0  0  0  0  0  0  0  0  0  0
   62.2790   33.8440   46.4440 C   0  0  0  0  0  0  0  0  0  0  0  0
   58.4730   33.3590   44.3310 C   0  0  0  0  0  0  0  0  0  0  0  0
   57.6930   32.3050   43.8500 C   0  0  0  0  0  0  0  0  0  0  0  0
   56.9630   27.5550   43.5810 H   0  0  0  0  0  0  0  0  0  0  0  0
   57.7471   28.7573   46.0142 H   0  0  0  0  0  0  0  0  0  0  0  0
   59.9341   27.5535   44.2658 H   0  0  0  0  0  0  0  0  0  0  0  0
   59.9812   29.0190   45.3211 H   0  0  0  0  0  0  0  0  0  0  0  0
   61.3063   27.1930   46.3063 H   0  0  0  0  0  0  0  0  0  0  0  0
   59.8399   27.5759   47.3161 H   0  0  0  0  0  0  0  0  0  0  0  0
   60.5310   25.1800   45.8400 H   0  0  0  0  0  0  0  0  0  0  0  0
   58.7200   25.3939   44.5404 H   0  0  0  0  0  0  0  0  0  0  0  0
   58.0651   24.5800   46.0254 H   0  0  0  0  0  0  0  0  0  0  0  0
   56.5886   26.4082   45.2814 H   0  0  0  0  0  0  0  0  0  0  0  0
   57.3322   26.7465   46.9002 H   0  0  0  0  0  0  0  0  0  0  0  0
   57.9940   30.1514   46.4901 H   0  0  0  0  0  0  0  0  0  0  0  0
   59.3689   32.0436   47.3568 H   0  0  0  0  0  0  0  0  0  0  0  0
   59.8003   34.4177   48.7335 H   0  0  0  0  0  0  0  0  0  0  0  0
   61.7257   34.1170   50.2923 H   0  0  0  0  0  0  0  0  0  0  0  0
   64.0050   33.6416   49.3892 H   0  0  0  0  0  0  0  0  0  0  0  0
   64.3568   33.4542   46.9242 H   0  0  0  0  0  0  0  0  0  0  0  0
   62.4360   33.7527   45.3591 H   0  0  0  0  0  0  0  0  0  0  0  0
   58.5961   34.2696   43.7263 H   0  0  0  0  0  0  0  0  0  0  0  0
   57.2119   32.3848   42.8640 H   0  0  0  0  0  0  0  0  0  0  0  0
  1  2  2  0
  2  3  2  0
  2  4  1  0
  4  5  1  0
  5  6  1  0
  6  7  1  0
  7  8  1  0
  8  9  1  0
  9 10  1  0
  2 11  1  0
 11 12  2  0
 12 13  1  0
 13 14  2  0
 14 15  1  0
 15 16  1  0
 16 17  2  0
 17 18  1  0
 18 19  2  0
 19 20  1  0
 20 21  2  0
 14 22  1  0
 22 23  2  0
 10  5  1  0
 23 11  1  0
 21 16  1  0
  4 24  1  0
  5 25  1  0
  6 26  1  0
  6 27  1  0
  7 28  1  0
  7 29  1  0
  8 30  1  0
  9 31  1  0
  9 32  1  0
 10 33  1  0
 10 34  1  0
 12 35  1  0
 13 36  1  0
 17 37  1  0
 18 38  1  0
 19 39  1  0
 20 40  1  0
 21 41  1  0
 22 42  1  0
 23 43  1  0
M  END
>  <UniqueID>  (3) 
3

>  <SMILES>  (3) 
O=S(=O)(NC1CCNCC1)c1ccc(Oc2ccccc2)cc1

>  <Energy>  (3) 
55.7729802744452

>  <Genealogy>  (3) 
O=S(=O)(NC1CCNCC1)c1ccc(Oc2ccccc2)cc1 (3D coordinates assigned)
O=S(=O)(NC1CCNCC1)c1ccc(Oc2ccccc2)cc1 (nonaromatic ring conformer: 55.7729802744452 kcal/mol)

>  <smiles>  (3) 
O=S(=O)(NC1CCNCC1)c1ccc(Oc2ccccc2)cc1

>  <score_type>  (3) 
oracle

>  <origin>  (3) 
adg

>  <m_score__min__energy>  (3) 
-9.0800000000000001

>  <m_primary>  (3) 
energy

$$$$
3:0
     RDKit          3D

 37 37  0  0  0  0  0  0  0  0999 V2000
   60.2390   28.9650   48.9270 C   0  0  0  0  0  0  0  0  0  0  0  0
   60.1090   29.8000   47.8920 C   0  0  0  0  0  0  0  0  0  0  0  0
   60.8340   29.5620   46.5990 C   0  0  0  0  0  0  0  0  0  0  0  0
   60.3290   28.4000   45.9390 O   0  0  0  0  0  0  0  0  0  0  0  0
   58.9940   27.9590   45.9650 C   0  0  0  0  0  0  0  0  0  0  0  0
   58.6440   26.6720   46.4240 C   0  0  0  0  0  0  0  0  0  0  0  0
   57.3100   26.2610   46.4330 C   0  0  0  0  0  0  0  0  0  0  0  0
   56.3080   27.1200   45.9820 C   0  0  0  0  0  0  0  0  0  0  0  0
   54.9820   26.7050   45.9900 O   0  0  0  0  0  0  0  0  0  0  0  0
   56.6380   28.3970   45.5240 C   0  0  0  0  0  0  0  0  0  0  0  0
   57.9760   28.8270   45.5130 C   0  0  0  0  0  0  0  0  0  0  0  0
   58.2870   30.2120   44.9960 C   0  0  0  0  0  0  0  0  0  0  0  0
   57.0360   30.9820   44.8160 N   0  0  0  0  0  0  0  0  0  0  0  0
   56.5240   30.8450   43.4330 C   0  0  0  0  0  0  0  0  0  0  0  0
   57.4010   31.6310   42.4630 C   0  0  0  0  0  0  0  0  0  0  0  0
   57.2340   32.4050   45.1780 C   0  0  0  0  0  0  0  0  0  0  0  0
   58.1130   32.5140   46.4200 C   0  0  0  0  0  0  0  0  0  0  0  0
   59.6970   29.1616   49.8638 H   0  0  0  0  0  0  0  0  0  0  0  0
   60.8880   28.0809   48.8423 H   0  0  0  0  0  0  0  0  0  0  0  0
   59.4569   30.6805   47.9893 H   0  0  0  0  0  0  0  0  0  0  0  0
   60.6992   30.4355   45.9442 H   0  0  0  0  0  0  0  0  0  0  0  0
   61.9010   29.4071   46.8171 H   0  0  0  0  0  0  0  0  0  0  0  0
   59.4285   25.9868   46.7777 H   0  0  0  0  0  0  0  0  0  0  0  0
   57.0482   25.2565   46.7969 H   0  0  0  0  0  0  0  0  0  0  0  0
   55.8449   29.0716   45.1691 H   0  0  0  0  0  0  0  0  0  0  0  0
   58.9338   30.7327   45.7175 H   0  0  0  0  0  0  0  0  0  0  0  0
   58.7994   30.1270   44.0263 H   0  0  0  0  0  0  0  0  0  0  0  0
   56.5294   29.7827   43.1477 H   0  0  0  0  0  0  0  0  0  0  0  0
   55.4989   31.2417   43.3902 H   0  0  0  0  0  0  0  0  0  0  0  0
   58.1028   32.2599   43.0304 H   0  0  0  0  0  0  0  0  0  0  0  0
   57.9657   30.9310   41.8296 H   0  0  0  0  0  0  0  0  0  0  0  0
   56.7668   32.2687   41.8296 H   0  0  0  0  0  0  0  0  0  0  0  0
   57.7199   32.9287   44.3416 H   0  0  0  0  0  0  0  0  0  0  0  0
   56.2558   32.8617   45.3888 H   0  0  0  0  0  0  0  0  0  0  0  0
   57.4863   32.4363   47.3207 H   0  0  0  0  0  0  0  0  0  0  0  0
   58.8538   31.7008   46.4174 H   0  0  0  0  0  0  0  0  0  0  0  0
   58.6327   33.4835   46.4174 H   0  0  0  0  0  0  0  0  0  0  0  0
  1  2  2  0
  2  3  1  0
  3  4  1  0
  4  5  1  0
  5  6  2  0
  6  7  1  0
  7  8  2  0
  8  9  1  0
  8 10  1  0
 10 11  2  0
 11 12  1  0
 12 13  1  0
 13 14  1  0
 14 15  1  0
 13 16  1  0
 16 17  1  0
 11  5  1  0
  1 18  1  0
  1 19  1  0
  2 20  1  0
  3 21  1  0
  3 22  1  0
  6 23  1  0
  7 24  1  0
 10 25  1  0
 12 26  1  0
 12 27  1  0
 14 28  1  0
 14 29  1  0
 15 30  1  0
 15 31  1  0
 15 32  1  0
 16 33  1  0
 16 34  1  0
 17 35  1  0
 17 36  1  0
 17 37  1  0
M  CHG  1   9  -1
M  END
>  <UniqueID>  (4) 
4

>  <SMILES>  (4) 
C=CCOc1ccc([O-])cc1CN(CC)CC

>  <Energy>  (4) 
30.45396675215838

>  <Genealogy>  (4) 
C=CCOc1ccc([O-])cc1CN(CC)CC (protonated)
C=CCOc1ccc([O-])cc1CN(CC)CC (3D coordinates assigned)
C=CCOc1ccc([O-])cc1CN(CC)CC (optimized conformer: 30.45396675215838 kcal/mol)

>  <smiles>  (4) 
C=CCOc1ccc(O)cc1CN(CC)CC

>  <score_type>  (4) 
oracle

>  <origin>  (4) 
adg

>  <m_score__min__energy>  (4) 
-8.7100000000000009

>  <m_primary>  (4) 
energy

$$$$
4:0
     RDKit          3D

 61 65  0  0  0  0  0  0  0  0999 V2000
   65.8634   29.5018   52.4130 H   0  0  0  0  0  0  0  0  0  0  0  0
   65.6170   30.3180   51.7180 C   0  0  0  0  0  0  0  0  0  0  0  0
   64.2890   30.5370   51.3440 C   0  0  0  0  0  0  0  0  0  0  0  0
   63.4911   29.8946   51.7449 H   0  0  0  0  0  0  0  0  0  0  0  0
   63.9750   31.5730   50.4600 C   0  0  0  0  0  0  0  0  0  0  0  0
   62.9269   31.7570   50.1812 H   0  0  0  0  0  0  0  0  0  0  0  0
   64.9920   32.3790   49.9270 C   0  0  0  0  0  0  0  0  0  0  0  0
   64.6440   33.4100   49.0480 O   0  0  0  0  0  0  0  0  0  0  0  0
   63.3660   33.6380   48.5220 C   0  0  0  0  0  0  0  0  0  0  0  0
   63.1840   33.5350   47.1400 C   0  0  0  0  0  0  0  0  0  0  0  0
   64.0261   33.2364   46.4983 H   0  0  0  0  0  0  0  0  0  0  0  0
   61.9390   33.8090   46.5690 C   0  0  0  0  0  0  0  0  0  0  0  0
   61.8017   33.7166   45.4815 H   0  0  0  0  0  0  0  0  0  0  0  0
   60.8600   34.2030   47.3820 C   0  0  0  0  0  0  0  0  0  0  0  0
   59.5660   34.4900   46.8340 N   0  0  0  0  0  0  0  0  0  0  0  0
   58.7730   33.6410   46.2460 C   0  0  0  0  0  0  0  0  0  0  0  0
   59.2050   32.3960   45.9070 N   0  0  0  0  0  0  0  0  0  0  0  0
   58.4110   31.5130   45.2450 C   0  0  0  0  0  0  0  0  0  0  0  0
   58.9060   30.2030   44.9160 N   0  0  0  0  0  0  0  0  0  0  0  0
   59.9360   29.6120   45.7230 C   0  0  0  0  0  0  0  0  0  0  0  0
   60.7660   28.8360   45.1810 O   0  0  0  0  0  0  0  0  0  0  0  0
   60.0220   29.8980   47.1760 C   0  0  0  0  0  0  0  0  0  0  0  0
   61.1580   30.5350   47.7060 C   0  0  0  0  0  0  0  0  0  0  0  0
   61.9786   30.8313   47.0360 H   0  0  0  0  0  0  0  0  0  0  0  0
   61.2550   30.7960   49.0790 C   0  0  0  0  0  0  0  0  0  0  0  0
   62.1569   31.2799   49.4819 H   0  0  0  0  0  0  0  0  0  0  0  0
   60.2040   30.4420   49.9450 C   0  0  0  0  0  0  0  0  0  0  0  0
   60.2740   30.6770   51.3280 O   0  0  0  0  0  0  0  0  0  0  0  0
   59.8620   31.8630   51.9520 C   0  0  0  0  0  0  0  0  0  0  0  0
   58.5260   32.2700   51.8100 C   0  0  0  0  0  0  0  0  0  0  0  0
   57.8279   31.6636   51.2142 H   0  0  0  0  0  0  0  0  0  0  0  0
   58.0810   33.4440   52.4240 C   0  0  0  0  0  0  0  0  0  0  0  0
   57.0303   33.7529   52.3213 H   0  0  0  0  0  0  0  0  0  0  0  0
   58.9680   34.2260   53.1680 C   0  0  0  0  0  0  0  0  0  0  0  0
   58.6122   35.1444   53.6579 H   0  0  0  0  0  0  0  0  0  0  0  0
   60.3080   33.8430   53.2910 C   0  0  0  0  0  0  0  0  0  0  0  0
   61.0071   34.4679   53.8661 H   0  0  0  0  0  0  0  0  0  0  0  0
   60.7600   32.6670   52.6840 C   0  0  0  0  0  0  0  0  0  0  0  0
   62.0660   32.3410   52.7660 F   0  0  0  0  0  0  0  0  0  0  0  0
   59.0740   29.8000   49.4220 C   0  0  0  0  0  0  0  0  0  0  0  0
   58.2538   29.5045   50.0928 H   0  0  0  0  0  0  0  0  0  0  0  0
   58.9820   29.5320   48.0500 C   0  0  0  0  0  0  0  0  0  0  0  0
   58.0876   29.0303   47.6520 H   0  0  0  0  0  0  0  0  0  0  0  0
   58.0990   29.3150   44.0800 C   0  0  0  0  0  0  0  0  0  0  0  0
   57.4979   28.6536   44.7213 H   0  0  0  0  0  0  0  0  0  0  0  0
   57.4314   29.9158   43.4449 H   0  0  0  0  0  0  0  0  0  0  0  0
   58.7607   28.7077   43.4449 H   0  0  0  0  0  0  0  0  0  0  0  0
   57.1100   31.8990   44.8980 C   0  0  0  0  0  0  0  0  0  0  0  0
   56.4468   31.2106   44.3537 H   0  0  0  0  0  0  0  0  0  0  0  0
   56.6730   33.1720   45.2560 C   0  0  0  0  0  0  0  0  0  0  0  0
   55.6517   33.4929   45.0032 H   0  0  0  0  0  0  0  0  0  0  0  0
   57.5070   34.0200   45.9180 N   0  0  0  0  0  0  0  0  0  0  0  0
   57.1620   34.9730   46.1730 H   0  0  0  0  0  0  0  0  0  0  0  0
   61.0340   34.2720   48.7680 C   0  0  0  0  0  0  0  0  0  0  0  0
   60.1821   34.5315   49.4137 H   0  0  0  0  0  0  0  0  0  0  0  0
   62.2800   34.0140   49.3360 C   0  0  0  0  0  0  0  0  0  0  0  0
   62.4158   34.1043   50.4238 H   0  0  0  0  0  0  0  0  0  0  0  0
   66.3270   32.1630   50.3180 C   0  0  0  0  0  0  0  0  0  0  0  0
   67.1274   32.8044   49.9204 H   0  0  0  0  0  0  0  0  0  0  0  0
   66.6350   31.1340   51.2110 C   0  0  0  0  0  0  0  0  0  0  0  0
   67.6782   30.9648   51.5160 H   0  0  0  0  0  0  0  0  0  0  0  0
  1  2  1  0
  2  3  2  0
  3  4  1  0
  3  5  1  0
  5  6  1  0
  5  7  2  0
  7  8  1  0
  8  9  1  0
  9 10  2  0
 10 11  1  0
 10 12  1  0
 12 13  1  0
 12 14  2  0
 14 15  1  0
 15 16  2  0
 16 17  1  0
 17 18  2  0
 18 19  1  0
 19 20  1  0
 20 21  2  0
 20 22  1  0
 22 23  2  0
 23 24  1  0
 23 25  1  0
 25 26  1  0
 25 27  2  0
 27 28  1  0
 28 29  1  0
 29 30  2  0
 30 31  1  0
 30 32  1  0
 32 33  1  0
 32 34  2  0
 34 35  1  0
 34 36  1  0
 36 37  1  0
 36 38  2  0
 38 39  1  0
 27 40  1  0
 40 41  1  0
 40 42  2  0
 42 43  1  0
 19 44  1  0
 44 45  1  0
 44 46  1  0
 44 47  1  0
 18 48  1  0
 48 49  1  0
 48 50  2  0
 50 51  1  0
 50 52  1  0
 52 53  1  0
 14 54  1  0
 54 55  1  0
 54 56  2  0
 56 57  1  0
  7 58  1  0
 58 59  1  0
 58 60  2  0
 60 61  1  0
 60  2  1  0
 56  9  1  0
 52 16  1  0
 42 22  1  0
 38 29  1  0
M  END
>  <UniqueID>  (5) 
5

>  <SMILES>  (5) 
CN(C(=O)c1ccc(Oc2ccccc2F)cc1)c1cc[nH]/c(=N/c2ccc(Oc3ccccc3)cc2)n1

>  <Energy>  (5) 
98.16072744091761

>  <Genealogy>  (5) 
CN(C(=O)c1ccc(Oc2ccccc2F)cc1)c1cc[nH]/c(=N/c2ccc(Oc3ccccc3)cc2)n1 (cis-trans isomerization)
CN(C(=O)c1ccc(Oc2ccccc2F)cc1)c1cc[nH]/c(=N/c2ccc(Oc3ccccc3)cc2)n1 (3D coordinates assigned)
CN(C(=O)c1ccc(Oc2ccccc2F)cc1)c1cc[nH]/c(=N/c2ccc(Oc3ccccc3)cc2)n1 (optimized conformer: 98.16072744091761 kcal/mol)

>  <smiles>  (5) 
CN(C(=O)c1ccc(Oc2ccccc2F)cc1)c1cc[nH]c(=Nc2ccc(Oc3ccccc3)cc2)n1

>  <score_type>  (5) 
oracle

>  <origin>  (5) 
adg

>  <m_score__min__energy>  (5) 
-8.7799999999999994

>  <m_primary>  (5) 
energy

$$$$
5:0
     RDKit          3D

 57 59  0  0  0  0  0  0  0  0999 V2000
   56.6380   21.8400   42.6290 C   0  0  0  0  0  0  0  0  0  0  0  0
   56.8200   21.6120   44.1290 C   0  0  0  0  0  0  0  0  0  0  0  0
   58.2610   21.8650   44.5910 C   0  0  0  0  0  0  0  0  0  0  0  0
   58.5140   23.3200   44.8590 C   0  0  0  0  0  0  0  0  0  0  0  0
   59.4610   23.6490   45.6240 O   0  0  0  0  0  0  0  0  0  0  0  0
   57.7330   24.3220   44.1880 N   0  0  0  0  0  0  0  0  0  0  0  0
   57.7950   25.7270   44.4850 C   0  0  0  0  0  0  0  0  0  0  0  0
   57.8480   26.6500   43.4310 C   0  0  0  0  0  0  0  0  0  0  0  0
   57.8850   28.0220   43.6900 C   0  0  0  0  0  0  0  0  0  0  0  0
   57.8590   28.4970   45.0100 C   0  0  0  0  0  0  0  0  0  0  0  0
   57.8990   29.9130   45.2660 N   0  0  0  0  0  0  0  0  0  0  0  0
   58.4630   30.4190   46.5260 C   0  0  0  0  0  0  0  0  0  0  0  0
   59.2050   31.7610   46.3270 C   0  0  0  0  0  0  0  0  0  0  0  0
   58.8530   32.4490   45.0630 N   0  0  0  0  0  0  0  0  0  0  0  0
   59.2200   33.8790   45.1320 C   0  0  0  0  0  0  0  0  0  0  0  0
   59.5000   34.3000   46.5520 C   0  0  0  0  0  0  0  0  0  0  0  0
   58.6270   34.9660   47.1740 O   0  0  0  0  0  0  0  0  0  0  0  0
   60.7930   33.9970   47.2180 C   0  0  0  0  0  0  0  0  0  0  0  0
   60.8860   33.8890   48.6190 C   0  0  0  0  0  0  0  0  0  0  0  0
   62.1110   33.6020   49.2290 C   0  0  0  0  0  0  0  0  0  0  0  0
   63.2610   33.4030   48.4530 C   0  0  0  0  0  0  0  0  0  0  0  0
   64.5790   33.1350   49.1160 C   0  0  0  0  0  0  0  0  0  0  0  0
   63.1770   33.5190   47.0580 C   0  0  0  0  0  0  0  0  0  0  0  0
   61.9520   33.8040   46.4460 C   0  0  0  0  0  0  0  0  0  0  0  0
   57.4230   32.2800   44.7520 C   0  0  0  0  0  0  0  0  0  0  0  0
   57.1810   30.8220   44.3620 C   0  0  0  0  0  0  0  0  0  0  0  0
   57.7820   27.5760   46.0700 C   0  0  0  0  0  0  0  0  0  0  0  0
   57.7040   28.0030   47.3550 F   0  0  0  0  0  0  0  0  0  0  0  0
   57.7440   26.2020   45.8070 C   0  0  0  0  0  0  0  0  0  0  0  0
   55.9592   22.6903   42.4671 H   0  0  0  0  0  0  0  0  0  0  0  0
   57.6138   22.0572   42.1701 H   0  0  0  0  0  0  0  0  0  0  0  0
   56.2099   20.9366   42.1701 H   0  0  0  0  0  0  0  0  0  0  0  0
   56.1501   22.2939   44.6733 H   0  0  0  0  0  0  0  0  0  0  0  0
   56.5819   20.5587   44.3384 H   0  0  0  0  0  0  0  0  0  0  0  0
   58.4438   21.2960   45.5145 H   0  0  0  0  0  0  0  0  0  0  0  0
   58.9390   21.5429   43.7869 H   0  0  0  0  0  0  0  0  0  0  0  0
   57.1510   24.0200   43.3730 H   0  0  0  0  0  0  0  0  0  0  0  0
   57.8605   26.2907   42.3914 H   0  0  0  0  0  0  0  0  0  0  0  0
   57.9348   28.7348   42.8537 H   0  0  0  0  0  0  0  0  0  0  0  0
   57.6458   30.5679   47.2471 H   0  0  0  0  0  0  0  0  0  0  0  0
   59.1884   29.6797   46.8963 H   0  0  0  0  0  0  0  0  0  0  0  0
   58.9539   32.4256   47.1668 H   0  0  0  0  0  0  0  0  0  0  0  0
   60.2802   31.5328   46.2827 H   0  0  0  0  0  0  0  0  0  0  0  0
   60.1202   34.0486   44.5230 H   0  0  0  0  0  0  0  0  0  0  0  0
   58.3773   34.4745   44.7510 H   0  0  0  0  0  0  0  0  0  0  0  0
   59.9881   34.0315   49.2382 H   0  0  0  0  0  0  0  0  0  0  0  0
   62.1725   33.5320   50.3250 H   0  0  0  0  0  0  0  0  0  0  0  0
   64.4519   33.1608   50.2083 H   0  0  0  0  0  0  0  0  0  0  0  0
   64.9470   32.1436   48.8130 H   0  0  0  0  0  0  0  0  0  0  0  0
   65.3049   33.9039   48.8130 H   0  0  0  0  0  0  0  0  0  0  0  0
   64.0786   33.3852   46.4422 H   0  0  0  0  0  0  0  0  0  0  0  0
   61.8949   33.8778   45.3500 H   0  0  0  0  0  0  0  0  0  0  0  0
   56.8186   32.5331   45.6355 H   0  0  0  0  0  0  0  0  0  0  0  0
   57.1361   32.9445   43.9237 H   0  0  0  0  0  0  0  0  0  0  0  0
   56.1034   30.6082   44.4171 H   0  0  0  0  0  0  0  0  0  0  0  0
   57.5511   30.6653   43.3381 H   0  0  0  0  0  0  0  0  0  0  0  0
   57.6737   25.4883   46.6411 H   0  0  0  0  0  0  0  0  0  0  0  0
  1  2  1  0
  2  3  1  0
  3  4  1  0
  4  5  2  0
  4  6  1  0
  6  7  1  0
  7  8  2  0
  8  9  1  0
  9 10  2  0
 10 11  1  0
 11 12  1  0
 12 13  1  0
 13 14  1  0
 14 15  1  0
 15 16  1  0
 16 17  2  0
 16 18  1  0
 18 19  2  0
 19 20  1  0
 20 21  2  0
 21 22  1  0
 21 23  1  0
 23 24  2  0
 14 25  1  0
 25 26  1  0
 10 27  1  0
 27 28  1  0
 27 29  2  0
 29  7  1  0
 26 11  1  0
 24 18  1  0
  1 30  1  0
  1 31  1  0
  1 32  1  0
  2 33  1  0
  2 34  1  0
  3 35  1  0
  3 36  1  0
  6 37  1  0
  8 38  1  0
  9 39  1  0
 12 40  1  0
 12 41  1  0
 13 42  1  0
 13 43  1  0
 15 44  1  0
 15 45  1  0
 19 46  1  0
 20 47  1  0
 22 48  1  0
 22 49  1  0
 22 50  1  0
 23 51  1  0
 24 52  1  0
 25 53  1  0
 25 54  1  0
 26 55  1  0
 26 56  1  0
 29 57  1  0
M  END
>  <UniqueID>  (6) 
6

>  <SMILES>  (6) 
CCCC(=O)Nc1ccc(N2CCN(CC(=O)c3ccc(C)cc3)CC2)c(F)c1

>  <Energy>  (6) 
67.40137250294293

>  <Genealogy>  (6) 
CCCC(=O)Nc1ccc(N2CCN(CC(=O)c3ccc(C)cc3)CC2)c(F)c1 (3D coordinates assigned)
CCCC(=O)Nc1ccc(N2CCN(CC(=O)c3ccc(C)cc3)CC2)c(F)c1 (nonaromatic ring conformer: 67.40137250294293 kcal/mol)

>  <smiles>  (6) 
CCCC(=O)Nc1ccc(N2CCN(CC(=O)c3ccc(C)cc3)CC2)c(F)c1

>  <score_type>  (6) 
oracle

>  <origin>  (6) 
adg

>  <m_score__min__energy>  (6) 
-8.3499999999999996

>  <m_primary>  (6) 
energy

$$$$
6:0
     RDKit          3D

 38 40  0  0  0  0  0  0  0  0999 V2000
   55.5380   26.6730   45.7650 O   0  0  0  0  0  0  0  0  0  0  0  0
   56.7850   26.8560   45.7630 C   0  0  0  0  0  0  0  0  0  0  0  0
   57.4460   27.4330   44.5540 C   0  0  0  0  0  0  0  0  0  0  0  0
   57.4560   28.9280   44.6430 C   0  0  0  0  0  0  0  0  0  0  0  0
   58.8390   29.8830   44.5510 S   0  0  0  0  0  0  0  0  0  0  0  0
   57.9670   31.3270   44.6380 C   0  0  0  0  0  0  0  0  0  0  0  0
   58.4630   32.5290   44.5760 N   0  0  0  0  0  0  0  0  0  0  0  0
   59.1530   33.2260   45.6240 C   0  0  0  0  0  0  0  0  0  0  0  0
   59.9230   32.5420   46.5840 C   0  0  0  0  0  0  0  0  0  0  0  0
   60.5440   33.2480   47.6190 C   0  0  0  0  0  0  0  0  0  0  0  0
   60.3870   34.6330   47.7150 C   0  0  0  0  0  0  0  0  0  0  0  0
   59.5980   35.3130   46.7840 C   0  0  0  0  0  0  0  0  0  0  0  0
   58.9730   34.6090   45.7490 C   0  0  0  0  0  0  0  0  0  0  0  0
   56.6370   31.1060   44.7040 N   0  0  0  0  0  0  0  0  0  0  0  0
   56.3470   29.7770   44.7070 C   0  0  0  0  0  0  0  0  0  0  0  0
   55.0280   29.3310   44.7570 O   0  0  0  0  0  0  0  0  0  0  0  0
   57.5780   26.5290   46.9110 N   0  0  0  0  0  0  0  0  0  0  0  0
   58.5320   27.3830   47.5570 C   0  0  0  0  0  0  0  0  0  0  0  0
   58.3360   28.7700   47.6670 C   0  0  0  0  0  0  0  0  0  0  0  0
   59.2800   29.5650   48.3260 C   0  0  0  0  0  0  0  0  0  0  0  0
   60.4260   28.9870   48.8990 C   0  0  0  0  0  0  0  0  0  0  0  0
   61.4200   29.8320   49.5940 C   0  0  0  0  0  0  0  0  0  0  0  0
   61.9230   30.8350   49.0180 O   0  0  0  0  0  0  0  0  0  0  0  0
   61.8130   29.5350   50.8930 O   0  0  0  0  0  0  0  0  0  0  0  0
   60.6030   27.5960   48.8080 C   0  0  0  0  0  0  0  0  0  0  0  0
   59.6600   26.8020   48.1490 C   0  0  0  0  0  0  0  0  0  0  0  0
   58.4806   27.0643   44.4931 H   0  0  0  0  0  0  0  0  0  0  0  0
   56.8888   27.1274   43.6561 H   0  0  0  0  0  0  0  0  0  0  0  0
   60.0363   31.4497   46.5197 H   0  0  0  0  0  0  0  0  0  0  0  0
   61.1570   32.7122   48.3587 H   0  0  0  0  0  0  0  0  0  0  0  0
   60.8847   35.1881   48.5238 H   0  0  0  0  0  0  0  0  0  0  0  0
   59.4681   36.4023   46.8647 H   0  0  0  0  0  0  0  0  0  0  0  0
   58.3366   35.1450   45.0294 H   0  0  0  0  0  0  0  0  0  0  0  0
   54.7720   28.3820   44.5160 H   0  0  0  0  0  0  0  0  0  0  0  0
   57.4371   29.2325   47.2334 H   0  0  0  0  0  0  0  0  0  0  0  0
   59.1240   30.6516   48.3963 H   0  0  0  0  0  0  0  0  0  0  0  0
   61.4906   27.1282   49.2589 H   0  0  0  0  0  0  0  0  0  0  0  0
   59.8052   25.7130   48.0951 H   0  0  0  0  0  0  0  0  0  0  0  0
  1  2  2  0
  2  3  1  0
  3  4  1  0
  4  5  1  0
  5  6  1  0
  6  7  2  3
  7  8  1  0
  8  9  2  0
  9 10  1  0
 10 11  2  0
 11 12  1  0
 12 13  2  0
  6 14  1  0
 14 15  1  0
 15 16  1  0
  2 17  1  0
 17 18  1  0
 18 19  2  0
 19 20  1  0
 20 21  2  0
 21 22  1  0
 22 23  2  0
 22 24  1  0
 21 25  1  0
 25 26  2  0
 15  4  2  0
 26 18  1  0
 13  8  1  0
  3 27  1  0
  3 28  1  0
  9 29  1  0
 10 30  1  0
 11 31  1  0
 12 32  1  0
 13 33  1  0
 16 34  1  0
 19 35  1  0
 20 36  1  0
 25 37  1  0
 26 38  1  0
M  CHG  3  14  -1  17  -1  24  -1
M  END
>  <UniqueID>  (7) 
7

>  <SMILES>  (7) 
O=C(Cc1sc(=Nc2ccccc2)[n-]c1O)[N-]c1ccc(C(=O)[O-])cc1

>  <Energy>  (7) 
79.75220415472238

>  <Genealogy>  (7) 
O=C(Cc1sc(=Nc2ccccc2)[n-]c1O)[N-]c1ccc(C(=O)[O-])cc1 (protonated)
O=C(Cc1sc(=Nc2ccccc2)[n-]c1O)[N-]c1ccc(C(=O)[O-])cc1 (3D coordinates assigned)
O=C(Cc1sc(=Nc2ccccc2)[n-]c1O)[N-]c1ccc(C(=O)[O-])cc1 (optimized conformer: 79.75220415472238 kcal/mol)

>  <smiles>  (7) 
O=C(Cc1sc(=Nc2ccccc2)[nH]c1O)Nc1ccc(C(=O)O)cc1

>  <score_type>  (7) 
oracle

>  <origin>  (7) 
adg

>  <m_score__min__energy>  (7) 
-13

>  <m_primary>  (7) 
energy

$$$$
7:0
     RDKit          3D

 62 64  0  0  0  0  0  0  0  0999 V2000
   61.6380   31.3050   49.4720 C   0  0  0  0  0  0  0  0  0  0  0  0
   60.3330   31.1530   50.2590 C   0  0  0  0  0  0  0  0  0  0  0  0
   59.9480   29.7490   50.5470 N   0  0  0  0  0  0  0  0  0  0  0  0
   59.1960   29.5390   51.8030 C   0  0  0  0  0  0  0  0  0  0  0  0
   57.8450   30.1850   51.7350 C   0  0  0  0  0  0  0  0  0  0  0  0
   57.7100   31.2530   51.0770 O   0  0  0  0  0  0  0  0  0  0  0  0
   56.7070   29.5250   52.3130 N   0  0  0  0  0  0  0  0  0  0  0  0
   55.3680   30.0300   52.4260 C   0  0  0  0  0  0  0  0  0  0  0  0
   54.6840   30.6060   51.3400 C   0  0  0  0  0  0  0  0  0  0  0  0
   53.3860   31.0940   51.5020 C   0  0  0  0  0  0  0  0  0  0  0  0
   52.7590   31.0320   52.7520 C   0  0  0  0  0  0  0  0  0  0  0  0
   51.1180   31.6330   52.9680 S   0  0  0  0  0  0  0  0  0  0  0  0
   50.7240   32.7010   51.6690 N   0  0  0  0  0  0  0  0  0  0  0  0
   51.0020   32.3750   54.2720 O   0  0  0  0  0  0  0  0  0  0  0  0
   50.1570   30.4790   52.9790 O   0  0  0  0  0  0  0  0  0  0  0  0
   53.4440   30.4800   53.8410 C   0  0  0  0  0  0  0  0  0  0  0  0
   54.7440   29.9900   53.6790 C   0  0  0  0  0  0  0  0  0  0  0  0
   59.4880   28.9480   49.3900 C   0  0  0  0  0  0  0  0  0  0  0  0
   58.9130   29.7640   48.2640 C   0  0  0  0  0  0  0  0  0  0  0  0
   58.1830   30.7630   48.5030 O   0  0  0  0  0  0  0  0  0  0  0  0
   59.1070   29.3180   46.9170 N   0  0  0  0  0  0  0  0  0  0  0  0
   58.2590   29.6270   45.8020 C   0  0  0  0  0  0  0  0  0  0  0  0
   58.4540   30.8200   45.0820 C   0  0  0  0  0  0  0  0  0  0  0  0
   57.6730   31.1120   43.9650 C   0  0  0  0  0  0  0  0  0  0  0  0
   56.6940   30.2150   43.5440 C   0  0  0  0  0  0  0  0  0  0  0  0
   56.4950   29.0180   44.2380 C   0  0  0  0  0  0  0  0  0  0  0  0
   57.2760   28.6980   45.3680 C   0  0  0  0  0  0  0  0  0  0  0  0
   57.0290   27.4050   46.0690 C   0  0  0  0  0  0  0  0  0  0  0  0
   57.9570   26.8690   46.7340 O   0  0  0  0  0  0  0  0  0  0  0  0
   55.7490   26.7600   45.9880 N   0  0  0  0  0  0  0  0  0  0  0  0
   55.5030   25.3310   45.7780 C   0  0  0  0  0  0  0  0  0  0  0  0
   55.8890   24.4780   46.9950 C   0  0  0  0  0  0  0  0  0  0  0  0
   56.8710   23.4280   46.4850 C   0  0  0  0  0  0  0  0  0  0  0  0
   56.6750   23.3710   44.9810 C   0  0  0  0  0  0  0  0  0  0  0  0
   56.2790   24.7790   44.5810 C   0  0  0  0  0  0  0  0  0  0  0  0
   62.4798   31.4030   50.1733 H   0  0  0  0  0  0  0  0  0  0  0  0
   61.7897   30.4184   48.8387 H   0  0  0  0  0  0  0  0  0  0  0  0
   61.5819   32.2027   48.8387 H   0  0  0  0  0  0  0  0  0  0  0  0
   60.4459   31.6817   51.2170 H   0  0  0  0  0  0  0  0  0  0  0  0
   59.5361   31.5727   49.6274 H   0  0  0  0  0  0  0  0  0  0  0  0
   59.0703   28.4591   51.9707 H   0  0  0  0  0  0  0  0  0  0  0  0
   59.7608   29.9943   52.6298 H   0  0  0  0  0  0  0  0  0  0  0  0
   55.1746   30.6723   50.3577 H   0  0  0  0  0  0  0  0  0  0  0  0
   52.8536   31.5292   50.6434 H   0  0  0  0  0  0  0  0  0  0  0  0
   49.9420   33.3080   52.0030 H   0  0  0  0  0  0  0  0  0  0  0  0
   52.9585   30.4315   54.8269 H   0  0  0  0  0  0  0  0  0  0  0  0
   55.2804   29.5699   54.5426 H   0  0  0  0  0  0  0  0  0  0  0  0
   60.3458   28.3797   49.0011 H   0  0  0  0  0  0  0  0  0  0  0  0
   58.6780   28.3001   49.7563 H   0  0  0  0  0  0  0  0  0  0  0  0
   59.2306   31.5294   45.4038 H   0  0  0  0  0  0  0  0  0  0  0  0
   57.8299   32.0518   43.4154 H   0  0  0  0  0  0  0  0  0  0  0  0
   56.0766   30.4489   42.6642 H   0  0  0  0  0  0  0  0  0  0  0  0
   55.7190   28.3163   43.8983 H   0  0  0  0  0  0  0  0  0  0  0  0
   54.4199   25.2621   45.5987 H   0  0  0  0  0  0  0  0  0  0  0  0
   56.3655   25.1041   47.7637 H   0  0  0  0  0  0  0  0  0  0  0  0
   55.0050   24.0107   47.4534 H   0  0  0  0  0  0  0  0  0  0  0  0
   57.9036   23.7211   46.7255 H   0  0  0  0  0  0  0  0  0  0  0  0
   56.6938   22.4483   46.9528 H   0  0  0  0  0  0  0  0  0  0  0  0
   57.6090   23.0756   44.4807 H   0  0  0  0  0  0  0  0  0  0  0  0
   55.9142   22.6309   44.6921 H   0  0  0  0  0  0  0  0  0  0  0  0
   57.1723   25.3902   44.3850 H   0  0  0  0  0  0  0  0  0  0  0  0
   55.6783   24.7917   43.6596 H   0  0  0  0  0  0  0  0  0  0  0  0
  1  2  1  0
  2  3  1  0
  3  4  1  0
  4  5  1  0
  5  6  2  0
  5  7  1  0
  7  8  1  0
  8  9  2  0
  9 10  1  0
 10 11  2  0
 11 12  1  0
 12 13  1  0
 12 14  2  0
 12 15  2  0
 11 16  1  0
 16 17  2  0
  3 18  1  0
 18 19  1  0
 19 20  2  0
 19 21  1  0
 21 22  1  0
 22 23  2  0
 23 24  1  0
 24 25  2  0
 25 26  1  0
 26 27  2  0
 27 28  1  0
 28 29  2  0
 28 30  1  0
 30 31  1  0
 31 32  1  0
 32 33  1  0
 33 34  1  0
 34 35  1  0
 17  8  1  0
 27 22  1  0
 35 31  1  0
  1 36  1  0
  1 37  1  0
  1 38  1  0
  2 39  1  0
  2 40  1  0
  4 41  1  0
  4 42  1  0
  9 43  1  0
 10 44  1  0
 13 45  1  0
 16 46  1  0
 17 47  1  0
 18 48  1  0
 18 49  1  0
 23 50  1  0
 24 51  1  0
 25 52  1  0
 26 53  1  0
 31 54  1  0
 32 55  1  0
 32 56  1  0
 33 57  1  0
 33 58  1  0
 34 59  1  0
 34 60  1  0
 35 61  1  0
 35 62  1  0
M  CHG  4   7  -1  13  -1  21  -1  30  -1
M  END
>  <UniqueID>  (8) 
8

>  <SMILES>  (8) 
CCN(CC(=O)[N-]c1ccc(S([NH-])(=O)=O)cc1)CC(=O)[N-]c1ccccc1C(=O)[N-]C1CCCC1

>  <Energy>  (8) 
79.43671462145319

>  <Genealogy>  (8) 
CCN(CC(=O)[N-]c1ccc(S([NH-])(=O)=O)cc1)CC(=O)[N-]c1ccccc1C(=O)[N-]C1CCCC1 (protonated)
CCN(CC(=O)[N-]c1ccc(S([NH-])(=O)=O)cc1)CC(=O)[N-]c1ccccc1C(=O)[N-]C1CCCC1 (3D coordinates assigned)
CCN(CC(=O)[N-]c1ccc(S([NH-])(=O)=O)cc1)CC(=O)[N-]c1ccccc1C(=O)[N-]C1CCCC1 (nonaromatic ring conformer: 79.43671462145319 kcal/mol)

>  <smiles>  (8) 
CCN(CC(=O)Nc1ccc(S(N)(=O)=O)cc1)CC(=O)Nc1ccccc1C(=O)NC1CCCC1

>  <score_type>  (8) 
oracle

>  <origin>  (8) 
adg

>  <m_score__min__energy>  (8) 
-15.390000000000001

>  <m_primary>  (8) 
energy

$$$$
8:0
     RDKit          3D

 58 61  0  0  0  0  0  0  0  0999 V2000
   58.0110   34.0670   47.0980 N   0  0  0  0  0  0  0  0  0  0  0  0
   58.8830   33.8330   45.6210 S   0  0  0  0  0  0  0  0  0  0  0  0
   58.9470   35.1380   44.8800 O   0  0  0  0  0  0  0  0  0  0  0  0
   60.2770   33.3680   45.9400 O   0  0  0  0  0  0  0  0  0  0  0  0
   58.0800   32.6320   44.6180 C   0  0  0  0  0  0  0  0  0  0  0  0
   58.1400   32.7120   43.2170 C   0  0  0  0  0  0  0  0  0  0  0  0
   57.5320   31.7280   42.4360 C   0  0  0  0  0  0  0  0  0  0  0  0
   56.8590   30.6650   43.0380 C   0  0  0  0  0  0  0  0  0  0  0  0
   56.7810   30.5800   44.4390 C   0  0  0  0  0  0  0  0  0  0  0  0
   56.1030   29.5010   45.0980 N   0  0  0  0  0  0  0  0  0  0  0  0
   56.7810   27.9220   45.3230 S   0  0  0  0  0  0  0  0  0  0  0  0
   55.6850   26.9430   45.6380 O   0  0  0  0  0  0  0  0  0  0  0  0
   57.4800   27.4940   44.0630 O   0  0  0  0  0  0  0  0  0  0  0  0
   57.8990   27.9980   46.6780 C   0  0  0  0  0  0  0  0  0  0  0  0
   58.3190   29.2480   47.1410 C   0  0  0  0  0  0  0  0  0  0  0  0
   59.3570   29.3440   48.0670 C   0  0  0  0  0  0  0  0  0  0  0  0
   59.9970   28.1840   48.5350 C   0  0  0  0  0  0  0  0  0  0  0  0
   61.1590   28.2520   49.3700 N   0  0  0  0  0  0  0  0  0  0  0  0
   61.2130   29.1170   50.8750 S   0  0  0  0  0  0  0  0  0  0  0  0
   60.8390   28.2030   52.0100 O   0  0  0  0  0  0  0  0  0  0  0  0
   62.6130   29.6110   51.1060 O   0  0  0  0  0  0  0  0  0  0  0  0
   60.1180   30.5010   50.7990 C   0  0  0  0  0  0  0  0  0  0  0  0
   60.5590   31.7310   50.2900 C   0  0  0  0  0  0  0  0  0  0  0  0
   59.7010   32.8310   50.2690 C   0  0  0  0  0  0  0  0  0  0  0  0
   58.3910   32.7080   50.7370 C   0  0  0  0  0  0  0  0  0  0  0  0
   57.9270   31.4850   51.2440 C   0  0  0  0  0  0  0  0  0  0  0  0
   56.5480   31.3740   51.6500 N   0  0  0  0  0  0  0  0  0  0  0  0
   56.1050   30.7110   52.8430 C   0  0  0  0  0  0  0  0  0  0  0  0
   56.7640   30.8440   53.9090 O   0  0  0  0  0  0  0  0  0  0  0  0
   54.8480   29.9270   52.8510 C   0  0  0  0  0  0  0  0  0  0  0  0
   54.8100   28.6770   53.4970 C   0  0  0  0  0  0  0  0  0  0  0  0
   53.6330   27.9240   53.5190 C   0  0  0  0  0  0  0  0  0  0  0  0
   52.4820   28.4050   52.8960 C   0  0  0  0  0  0  0  0  0  0  0  0
   52.5080   29.6350   52.2350 C   0  0  0  0  0  0  0  0  0  0  0  0
   53.6820   30.3930   52.2010 C   0  0  0  0  0  0  0  0  0  0  0  0
   53.6850   31.5910   51.4950 O   0  0  0  0  0  0  0  0  0  0  0  0
   58.8030   30.3790   51.2700 C   0  0  0  0  0  0  0  0  0  0  0  0
   59.5130   26.9320   48.1400 C   0  0  0  0  0  0  0  0  0  0  0  0
   58.4750   26.8360   47.2060 C   0  0  0  0  0  0  0  0  0  0  0  0
   57.3890   31.5720   45.2200 C   0  0  0  0  0  0  0  0  0  0  0  0
   57.0030   34.1710   46.8440 H   0  0  0  0  0  0  0  0  0  0  0  0
   58.6659   33.5497   42.7356 H   0  0  0  0  0  0  0  0  0  0  0  0
   57.5839   31.7912   41.3390 H   0  0  0  0  0  0  0  0  0  0  0  0
   56.3878   29.8908   42.4146 H   0  0  0  0  0  0  0  0  0  0  0  0
   57.8281   30.1610   46.7729 H   0  0  0  0  0  0  0  0  0  0  0  0
   59.6759   30.3313   48.4324 H   0  0  0  0  0  0  0  0  0  0  0  0
   61.5851   31.8289   49.9059 H   0  0  0  0  0  0  0  0  0  0  0  0
   60.0572   33.7974   49.8829 H   0  0  0  0  0  0  0  0  0  0  0  0
   57.7175   33.5772   50.7079 H   0  0  0  0  0  0  0  0  0  0  0  0
   55.8140   31.7460   51.0070 H   0  0  0  0  0  0  0  0  0  0  0  0
   55.7145   28.2896   53.9887 H   0  0  0  0  0  0  0  0  0  0  0  0
   53.6145   26.9495   54.0290 H   0  0  0  0  0  0  0  0  0  0  0  0
   51.5536   27.8157   52.9251 H   0  0  0  0  0  0  0  0  0  0  0  0
   51.6003   30.0091   51.7388 H   0  0  0  0  0  0  0  0  0  0  0  0
   58.4514   29.4136   51.6629 H   0  0  0  0  0  0  0  0  0  0  0  0
   59.9510   26.0174   48.5662 H   0  0  0  0  0  0  0  0  0  0  0  0
   58.1118   25.8480   46.8868 H   0  0  0  0  0  0  0  0  0  0  0  0
   57.3232   31.5180   46.3167 H   0  0  0  0  0  0  0  0  0  0  0  0
  1  2  1  0
  2  3  2  0
  2  4  2  0
  2  5  1  0
  5  6  2  0
  6  7  1  0
  7  8  2  0
  8  9  1  0
  9 10  1  0
 10 11  1  0
 11 12  2  0
 11 13  2  0
 11 14  1  0
 14 15  2  0
 15 16  1  0
 16 17  2  0
 17 18  1  0
 18 19  1  0
 19 20  2  0
 19 21  2  0
 19 22  1  0
 22 23  2  0
 23 24  1  0
 24 25  2  0
 25 26  1  0
 26 27  1  0
 27 28  1  0
 28 29  2  0
 28 30  1  0
 30 31  2  0
 31 32  1  0
 32 33  2  0
 33 34  1  0
 34 35  2  0
 35 36  1  0
 26 37  2  0
 17 38  1  0
 38 39  2  0
  9 40  2  0
 40  5  1  0
 39 14  1  0
 37 22  1  0
 35 30  1  0
  1 41  1  0
  6 42  1  0
  7 43  1  0
  8 44  1  0
 15 45  1  0
 16 46  1  0
 23 47  1  0
 24 48  1  0
 25 49  1  0
 27 50  1  0
 31 51  1  0
 32 52  1  0
 33 53  1  0
 34 54  1  0
 37 55  1  0
 38 56  1  0
 39 57  1  0
 40 58  1  0
M  CHG  4   1  -1  10  -1  18  -1  36  -1
M  END
>  <UniqueID>  (9) 
9

>  <SMILES>  (9) 
[NH-]S(=O)(=O)c1cccc([N-]S(=O)(=O)c2ccc([N-]S(=O)(=O)c3cccc(NC(=O)c4ccccc4[O-])c3)cc2)c1

>  <Energy>  (9) 
76.03474753829371

>  <Genealogy>  (9) 
[NH-]S(=O)(=O)c1cccc([N-]S(=O)(=O)c2ccc([N-]S(=O)(=O)c3cccc(NC(=O)c4ccccc4[O-])c3)cc2)c1 (protonated)
[NH-]S(=O)(=O)c1cccc([N-]S(=O)(=O)c2ccc([N-]S(=O)(=O)c3cccc(NC(=O)c4ccccc4[O-])c3)cc2)c1 (3D coordinates assigned)
[NH-]S(=O)(=O)c1cccc([N-]S(=O)(=O)c2ccc([N-]S(=O)(=O)c3cccc(NC(=O)c4ccccc4[O-])c3)cc2)c1 (optimized conformer: 76.03474753829371 kcal/mol)

>  <smiles>  (9) 
NS(=O)(=O)c1cccc(NS(=O)(=O)c2ccc(NS(=O)(=O)c3cccc(NC(=O)c4ccccc4O)c3)cc2)c1

>  <score_type>  (9) 
oracle

>  <origin>  (9) 
adg

>  <m_score__min__energy>  (9) 
-18.260000000000002

>  <m_primary>  (9) 
energy

$$$$
9:0
     RDKit          3D

 30 32  0  0  0  0  0  0  0  0999 V2000
   58.8320   26.1450   47.4860 C   0  0  0  0  0  0  0  0  0  0  0  0
   57.9740   27.0250   46.6820 N   0  0  0  0  0  0  0  0  0  0  0  0
   56.6940   26.6520   46.3320 C   0  0  0  0  0  0  0  0  0  0  0  0
   56.2400   25.5260   46.6700 O   0  0  0  0  0  0  0  0  0  0  0  0
   55.8950   27.5020   45.6130 N   0  0  0  0  0  0  0  0  0  0  0  0
   56.3220   28.7390   45.2330 C   0  0  0  0  0  0  0  0  0  0  0  0
   55.5650   29.4930   44.5680 O   0  0  0  0  0  0  0  0  0  0  0  0
   57.6050   29.1250   45.6070 C   0  0  0  0  0  0  0  0  0  0  0  0
   58.3910   28.2720   46.3180 C   0  0  0  0  0  0  0  0  0  0  0  0
   59.5830   28.8360   46.5960 N   0  0  0  0  0  0  0  0  0  0  0  0
   59.4680   30.0570   46.0180 C   0  0  0  0  0  0  0  0  0  0  0  0
   60.3890   30.9160   46.0600 O   0  0  0  0  0  0  0  0  0  0  0  0
   58.2770   30.2730   45.4000 N   0  0  0  0  0  0  0  0  0  0  0  0
   57.8250   31.5030   44.7420 C   0  0  0  0  0  0  0  0  0  0  0  0
   58.3270   32.7160   45.4810 C   0  0  0  0  0  0  0  0  0  0  0  0
   58.9440   33.7660   44.7800 C   0  0  0  0  0  0  0  0  0  0  0  0
   59.4080   34.8950   45.4630 C   0  0  0  0  0  0  0  0  0  0  0  0
   59.2540   34.9880   46.8490 C   0  0  0  0  0  0  0  0  0  0  0  0
   58.6310   33.9530   47.5520 C   0  0  0  0  0  0  0  0  0  0  0  0
   58.1660   32.8230   46.8740 C   0  0  0  0  0  0  0  0  0  0  0  0
   58.6499   26.3318   48.5546 H   0  0  0  0  0  0  0  0  0  0  0  0
   58.6013   25.0951   47.2528 H   0  0  0  0  0  0  0  0  0  0  0  0
   59.8875   26.3490   47.2528 H   0  0  0  0  0  0  0  0  0  0  0  0
   58.2087   31.5234   43.7113 H   0  0  0  0  0  0  0  0  0  0  0  0
   56.7251   31.5198   44.7395 H   0  0  0  0  0  0  0  0  0  0  0  0
   59.0627   33.6997   43.6884 H   0  0  0  0  0  0  0  0  0  0  0  0
   59.8948   35.7108   44.9085 H   0  0  0  0  0  0  0  0  0  0  0  0
   59.6226   35.8745   47.3858 H   0  0  0  0  0  0  0  0  0  0  0  0
   58.5063   34.0282   48.6423 H   0  0  0  0  0  0  0  0  0  0  0  0
   57.6721   32.0140   47.4321 H   0  0  0  0  0  0  0  0  0  0  0  0
  1  2  1  0
  2  3  1  0
  3  4  2  0
  3  5  1  0
  5  6  1  0
  6  7  2  0
  6  8  1  0
  8  9  2  0
  9 10  1  0
 10 11  1  0
 11 12  2  0
 11 13  1  0
 13 14  1  0
 14 15  1  0
 15 16  2  0
 16 17  1  0
 17 18  2  0
 18 19  1  0
 19 20  2  0
  9  2  1  0
 20 15  1  0
 13  8  1  0
  1 21  1  0
  1 22  1  0
  1 23  1  0
 14 24  1  0
 14 25  1  0
 16 26  1  0
 17 27  1  0
 18 28  1  0
 19 29  1  0
 20 30  1  0
M  CHG  2   5  -1  10  -1
M  END
>  <UniqueID>  (10) 
10

>  <SMILES>  (10) 
Cn1c(=O)[n-]c(=O)c2c1[n-]c(=O)n2Cc1ccccc1

>  <Energy>  (10) 
75.74727832680033

>  <Genealogy>  (10) 
Cn1c(=O)[n-]c(=O)c2c1[n-]c(=O)n2Cc1ccccc1 (protonated)
Cn1c(=O)[n-]c(=O)c2c1[n-]c(=O)n2Cc1ccccc1 (3D coordinates assigned)
Cn1c(=O)[n-]c(=O)c2c1[n-]c(=O)n2Cc1ccccc1 (optimized conformer: 75.74727832680033 kcal/mol)

>  <smiles>  (10) 
Cn1c(=O)[nH]c(=O)c2c1[nH]c(=O)n2Cc1ccccc1

>  <score_type>  (10) 
oracle

>  <origin>  (10) 
adg

>  <m_score__min__energy>  (10) 
-9.0399999999999991

>  <m_primary>  (10) 
energy

$$$$
10:0
     RDKit          3D

 58 63  0  0  0  0  0  0  0  0999 V2000
   58.9150   33.7340   48.4400 O   0  0  0  0  0  0  0  0  0  0  0  0
   59.5170   32.6270   48.4010 C   0  0  0  0  0  0  0  0  0  0  0  0
   58.9860   31.5170   47.6670 N   0  0  0  0  0  0  0  0  0  0  0  0
   58.5130   31.5560   46.4560 C   0  0  0  0  0  0  0  0  0  0  0  0
   57.7600   30.5480   45.9530 N   0  0  0  0  0  0  0  0  0  0  0  0
   57.4640   30.7690   44.6480 C   0  0  0  0  0  0  0  0  0  0  0  0
   56.7310   29.8920   43.8460 C   0  0  0  0  0  0  0  0  0  0  0  0
   56.5220   30.2230   42.4960 C   0  0  0  0  0  0  0  0  0  0  0  0
   57.0420   31.4210   41.9670 C   0  0  0  0  0  0  0  0  0  0  0  0
   57.7770   32.2970   42.7830 C   0  0  0  0  0  0  0  0  0  0  0  0
   57.9740   31.9430   44.1150 C   0  0  0  0  0  0  0  0  0  0  0  0
   58.8470   32.7560   45.2970 S   0  0  0  0  0  0  0  0  0  0  0  0
   60.8150   32.4720   49.0740 C   0  0  0  0  0  0  0  0  0  0  0  0
   61.6250   33.6020   49.2430 C   0  0  0  0  0  0  0  0  0  0  0  0
   62.8080   33.5190   49.9760 C   0  0  0  0  0  0  0  0  0  0  0  0
   63.1710   32.3200   50.5900 C   0  0  0  0  0  0  0  0  0  0  0  0
   62.3680   31.1780   50.4570 C   0  0  0  0  0  0  0  0  0  0  0  0
   61.1900   31.2430   49.6670 C   0  0  0  0  0  0  0  0  0  0  0  0
   60.3670   29.9900   49.4780 C   0  0  0  0  0  0  0  0  0  0  0  0
   60.4610   29.1750   50.6850 N   0  0  0  0  0  0  0  0  0  0  0  0
   59.4460   29.3150   51.6980 C   0  0  0  0  0  0  0  0  0  0  0  0
   59.4710   28.5380   52.8640 C   0  0  0  0  0  0  0  0  0  0  0  0
   58.4330   28.6610   53.7900 C   0  0  0  0  0  0  0  0  0  0  0  0
   57.3780   29.5440   53.5500 C   0  0  0  0  0  0  0  0  0  0  0  0
   56.3570   29.6710   54.4870 O   0  0  0  0  0  0  0  0  0  0  0  0
   57.3760   30.3020   52.3670 C   0  0  0  0  0  0  0  0  0  0  0  0
   56.2880   31.2380   52.0330 C   0  0  0  0  0  0  0  0  0  0  0  0
   56.4040   32.4470   52.3670 O   0  0  0  0  0  0  0  0  0  0  0  0
   55.0960   30.8240   51.3510 N   0  0  0  0  0  0  0  0  0  0  0  0
   53.7680   30.7690   51.8920 C   0  0  0  0  0  0  0  0  0  0  0  0
   53.3380   29.7100   52.7140 C   0  0  0  0  0  0  0  0  0  0  0  0
   52.0240   29.6770   53.1890 C   0  0  0  0  0  0  0  0  0  0  0  0
   51.1250   30.6850   52.8350 C   0  0  0  0  0  0  0  0  0  0  0  0
   51.5370   31.7250   51.9970 C   0  0  0  0  0  0  0  0  0  0  0  0
   50.6380   32.7180   51.6300 O   0  0  0  0  0  0  0  0  0  0  0  0
   52.8530   31.7640   51.5260 C   0  0  0  0  0  0  0  0  0  0  0  0
   58.4070   30.1700   51.4910 N   0  0  0  0  0  0  0  0  0  0  0  0
   61.8150   28.7370   51.0280 C   0  0  0  0  0  0  0  0  0  0  0  0
   62.7030   29.9610   51.3030 C   0  0  0  0  0  0  0  0  0  0  0  0
   56.3244   28.9589   44.2631 H   0  0  0  0  0  0  0  0  0  0  0  0
   55.9491   29.5428   41.8486 H   0  0  0  0  0  0  0  0  0  0  0  0
   56.8715   31.6716   40.9096 H   0  0  0  0  0  0  0  0  0  0  0  0
   58.1853   33.2360   42.3810 H   0  0  0  0  0  0  0  0  0  0  0  0
   61.3259   34.5609   48.7946 H   0  0  0  0  0  0  0  0  0  0  0  0
   63.4574   34.4018   50.0705 H   0  0  0  0  0  0  0  0  0  0  0  0
   64.0956   32.2699   51.1839 H   0  0  0  0  0  0  0  0  0  0  0  0
   59.3166   30.2621   49.2973 H   0  0  0  0  0  0  0  0  0  0  0  0
   60.7457   29.4225   48.6152 H   0  0  0  0  0  0  0  0  0  0  0  0
   60.2997   27.8384   53.0479 H   0  0  0  0  0  0  0  0  0  0  0  0
   58.4464   28.0604   54.7115 H   0  0  0  0  0  0  0  0  0  0  0  0
   54.0386   28.9058   52.9833 H   0  0  0  0  0  0  0  0  0  0  0  0
   51.6973   28.8552   53.8431 H   0  0  0  0  0  0  0  0  0  0  0  0
   50.0932   30.6606   53.2154 H   0  0  0  0  0  0  0  0  0  0  0  0
   53.1718   32.5820   50.8633 H   0  0  0  0  0  0  0  0  0  0  0  0
   61.7775   28.1035   51.9265 H   0  0  0  0  0  0  0  0  0  0  0  0
   62.2354   28.1640   50.1884 H   0  0  0  0  0  0  0  0  0  0  0  0
   62.5921   30.2364   52.3622 H   0  0  0  0  0  0  0  0  0  0  0  0
   63.7313   29.6695   51.0431 H   0  0  0  0  0  0  0  0  0  0  0  0
  1  2  2  0
  2  3  1  0
  3  4  2  3
  4  5  1  0
  5  6  1  0
  6  7  2  0
  7  8  1  0
  8  9  2  0
  9 10  1  0
 10 11  2  0
 11 12  1  0
  2 13  1  0
 13 14  2  0
 14 15  1  0
 15 16  2  0
 16 17  1  0
 17 18  2  0
 18 19  1  0
 19 20  1  0
 20 21  1  0
 21 22  2  0
 22 23  1  0
 23 24  2  0
 24 25  1  0
 24 26  1  0
 26 27  1  0
 27 28  2  0
 27 29  1  0
 29 30  1  0
 30 31  2  0
 31 32  1  0
 32 33  2  0
 33 34  1  0
 34 35  1  0
 34 36  2  0
 26 37  2  0
 20 38  1  0
 38 39  1  0
 12  4  1  0
 18 13  1  0
 37 21  1  0
 11  6  1  0
 39 17  1  0
 36 30  1  0
  7 40  1  0
  8 41  1  0
  9 42  1  0
 10 43  1  0
 14 44  1  0
 15 45  1  0
 16 46  1  0
 19 47  1  0
 19 48  1  0
 22 49  1  0
 23 50  1  0
 31 51  1  0
 32 52  1  0
 33 53  1  0
 36 54  1  0
 38 55  1  0
 38 56  1  0
 39 57  1  0
 39 58  1  0
M  CHG  4   5  -1  25  -1  29  -1  35  -1
M  END
>  <UniqueID>  (11) 
11

>  <SMILES>  (11) 
O=C(N=c1[n-]c2ccccc2s1)c1cccc2c1CN(c1ccc([O-])c(C(=O)[N-]c3cccc([O-])c3)n1)CC2

>  <Energy>  (11) 
122.90680567800673

>  <Genealogy>  (11) 
O=C(N=c1[n-]c2ccccc2s1)c1cccc2c1CN(c1ccc([O-])c(C(=O)[N-]c3cccc([O-])c3)n1)CC2 (protonated)
O=C(N=c1[n-]c2ccccc2s1)c1cccc2c1CN(c1ccc([O-])c(C(=O)[N-]c3cccc([O-])c3)n1)CC2 (3D coordinates assigned)
O=C(N=c1[n-]c2ccccc2s1)c1cccc2c1CN(c1ccc([O-])c(C(=O)[N-]c3cccc([O-])c3)n1)CC2 (nonaromatic ring conformer: 122.90680567800673 kcal/mol)

>  <smiles>  (11) 
O=C(N=c1[nH]c2ccccc2s1)c1cccc2c1CN(c1ccc(O)c(C(=O)Nc3cccc(O)c3)n1)CC2

>  <score_type>  (11) 
oracle

>  <origin>  (11) 
adg

>  <m_score__min__energy>  (11) 
-18.280000000000001

>  <m_primary>  (11) 
energy

$$$$
11:0
     RDKit          3D

 54 57  0  0  0  0  0  0  0  0999 V2000
   64.1210   33.6200   47.2600 N   0  0  0  0  0  0  0  0  0  0  0  0
   62.8010   33.0800   47.2210 C   0  0  0  0  0  0  0  0  0  0  0  0
   61.9940   33.4940   46.3470 O   0  0  0  0  0  0  0  0  0  0  0  0
   62.3790   32.0500   48.1970 C   0  0  0  0  0  0  0  0  0  0  0  0
   63.1850   31.7450   49.3080 C   0  0  0  0  0  0  0  0  0  0  0  0
   62.7830   30.7780   50.2290 C   0  0  0  0  0  0  0  0  0  0  0  0
   61.5640   30.1050   50.0670 C   0  0  0  0  0  0  0  0  0  0  0  0
   61.1720   29.1410   50.9960 O   0  0  0  0  0  0  0  0  0  0  0  0
   60.7420   30.4030   48.9660 C   0  0  0  0  0  0  0  0  0  0  0  0
   59.4160   29.7010   48.7880 C   0  0  0  0  0  0  0  0  0  0  0  0
   59.5150   28.2960   49.1770 N   0  0  0  0  0  0  0  0  0  0  0  0
   60.3310   27.3030   48.5390 C   0  0  0  0  0  0  0  0  0  0  0  0
   61.1620   26.6670   49.2410 O   0  0  0  0  0  0  0  0  0  0  0  0
   60.1600   26.9530   47.0810 C   0  0  0  0  0  0  0  0  0  0  0  0
   58.7010   26.8560   46.6780 C   0  0  0  0  0  0  0  0  0  0  0  0
   58.0010   25.7060   47.0920 C   0  0  0  0  0  0  0  0  0  0  0  0
   56.6510   25.5410   46.8000 C   0  0  0  0  0  0  0  0  0  0  0  0
   55.9640   26.5150   46.0850 C   0  0  0  0  0  0  0  0  0  0  0  0
   54.6110   26.3380   45.8150 O   0  0  0  0  0  0  0  0  0  0  0  0
   56.6320   27.6610   45.6360 C   0  0  0  0  0  0  0  0  0  0  0  0
   55.9360   28.5920   44.9330 N   0  0  0  0  0  0  0  0  0  0  0  0
   56.5160   29.7110   44.4400 C   0  0  0  0  0  0  0  0  0  0  0  0
   57.8830   29.9360   44.6280 C   0  0  0  0  0  0  0  0  0  0  0  0
   58.5290   31.1030   44.0940 N   0  0  0  0  0  0  0  0  0  0  0  0
   57.8670   32.2630   43.5720 C   0  0  0  0  0  0  0  0  0  0  0  0
   57.4280   32.2350   42.3930 O   0  0  0  0  0  0  0  0  0  0  0  0
   57.6930   33.4550   44.3500 N   0  0  0  0  0  0  0  0  0  0  0  0
   58.2520   33.7020   45.6500 C   0  0  0  0  0  0  0  0  0  0  0  0
   57.9490   32.8760   46.7490 C   0  0  0  0  0  0  0  0  0  0  0  0
   58.5080   33.1440   48.0020 C   0  0  0  0  0  0  0  0  0  0  0  0
   59.3560   34.2420   48.1710 C   0  0  0  0  0  0  0  0  0  0  0  0
   59.6400   35.0780   47.0900 C   0  0  0  0  0  0  0  0  0  0  0  0
   59.0840   34.8140   45.8340 C   0  0  0  0  0  0  0  0  0  0  0  0
   59.3740   35.6300   44.7910 F   0  0  0  0  0  0  0  0  0  0  0  0
   58.6330   29.0160   45.3730 C   0  0  0  0  0  0  0  0  0  0  0  0
   59.9880   29.2760   45.5410 O   0  0  0  0  0  0  0  0  0  0  0  0
   58.0170   27.8490   45.9040 C   0  0  0  0  0  0  0  0  0  0  0  0
   61.1610   31.3640   48.0300 C   0  0  0  0  0  0  0  0  0  0  0  0
   64.9250   33.1100   46.8300 H   0  0  0  0  0  0  0  0  0  0  0  0
   64.1393   32.2728   49.4517 H   0  0  0  0  0  0  0  0  0  0  0  0
   63.4271   30.5417   51.0888 H   0  0  0  0  0  0  0  0  0  0  0  0
   60.8040   28.2440   50.7070 H   0  0  0  0  0  0  0  0  0  0  0  0
   58.6592   30.1959   49.4144 H   0  0  0  0  0  0  0  0  0  0  0  0
   59.1296   29.7533   47.7272 H   0  0  0  0  0  0  0  0  0  0  0  0
   60.6440   27.7305   46.4717 H   0  0  0  0  0  0  0  0  0  0  0  0
   60.6202   25.9676   46.9159 H   0  0  0  0  0  0  0  0  0  0  0  0
   58.5312   24.9246   47.6562 H   0  0  0  0  0  0  0  0  0  0  0  0
   56.1248   24.6356   47.1365 H   0  0  0  0  0  0  0  0  0  0  0  0
   55.9100   30.4458   43.8897 H   0  0  0  0  0  0  0  0  0  0  0  0
   57.2716   32.0187   46.6216 H   0  0  0  0  0  0  0  0  0  0  0  0
   58.2800   32.4896   48.8563 H   0  0  0  0  0  0  0  0  0  0  0  0
   59.7998   34.4474   49.1563 H   0  0  0  0  0  0  0  0  0  0  0  0
   60.3021   35.9458   47.2260 H   0  0  0  0  0  0  0  0  0  0  0  0
   60.5296   31.5828   47.1563 H   0  0  0  0  0  0  0  0  0  0  0  0
  1  2  1  0
  2  3  2  0
  2  4  1  0
  4  5  2  0
  5  6  1  0
  6  7  2  0
  7  8  1  0
  7  9  1  0
  9 10  1  0
 10 11  1  0
 11 12  1  0
 12 13  2  0
 12 14  1  0
 14 15  1  0
 15 16  2  0
 16 17  1  0
 17 18  2  0
 18 19  1  0
 18 20  1  0
 20 21  2  0
 21 22  1  0
 22 23  2  0
 23 24  1  0
 24 25  1  0
 25 26  2  0
 25 27  1  0
 27 28  1  0
 28 29  2  0
 29 30  1  0
 30 31  2  0
 31 32  1  0
 32 33  2  0
 33 34  1  0
 23 35  1  0
 35 36  1  0
 35 37  2  0
  9 38  2  0
 38  4  1  0
 37 15  1  0
 37 20  1  0
 33 28  1  0
  1 39  1  0
  5 40  1  0
  6 41  1  0
  8 42  1  0
 10 43  1  0
 10 44  1  0
 14 45  1  0
 14 46  1  0
 16 47  1  0
 17 48  1  0
 22 49  1  0
 29 50  1  0
 30 51  1  0
 31 52  1  0
 32 53  1  0
 38 54  1  0
M  CHG  6   1  -1  11  -1  19  -1  24  -1  27  -1  36  -1
M  END
>  <UniqueID>  (12) 
12

>  <SMILES>  (12) 
[NH-]C(=O)c1ccc(O)c(C[N-]C(=O)Cc2ccc([O-])c3ncc([N-]C(=O)[N-]c4ccccc4F)c([O-])c23)c1

>  <Energy>  (12) 
74.48573869907564

>  <Genealogy>  (12) 
[NH-]C(=O)c1ccc(O)c(C[N-]C(=O)Cc2ccc([O-])c3ncc([N-]C(=O)[N-]c4ccccc4F)c([O-])c23)c1 (protonated)
[NH-]C(=O)c1ccc(O)c(C[N-]C(=O)Cc2ccc([O-])c3ncc([N-]C(=O)[N-]c4ccccc4F)c([O-])c23)c1 (3D coordinates assigned)
[NH-]C(=O)c1ccc(O)c(C[N-]C(=O)Cc2ccc([O-])c3ncc([N-]C(=O)[N-]c4ccccc4F)c([O-])c23)c1 (optimized conformer: 74.48573869907564 kcal/mol)

>  <smiles>  (12) 
NC(=O)c1ccc(O)c(CNC(=O)Cc2ccc(O)c3ncc(NC(=O)Nc4ccccc4F)c(O)c23)c1

>  <score_type>  (12) 
oracle

>  <origin>  (12) 
adg

>  <m_score__min__energy>  (12) 
-19.25

>  <m_primary>  (12) 
energy

$$$$
12:0
     RDKit          3D

 53 56  0  0  1  0  0  0  0  0999 V2000
   66.6130   31.5170   50.8500 C   0  0  0  0  0  0  0  0  0  0  0  0
   66.1640   32.7660   50.1050 C   0  0  0  0  0  0  0  0  0  0  0  0
   64.8090   33.0540   50.4020 O   0  0  0  0  0  0  0  0  0  0  0  0
   63.7750   32.6820   49.5310 C   0  0  0  0  0  0  0  0  0  0  0  0
   63.9070   33.1010   48.2200 C   0  0  0  0  0  0  0  0  0  0  0  0
   62.9070   32.7520   47.3370 C   0  0  0  0  0  0  0  0  0  0  0  0
   61.8050   32.0050   47.7520 C   0  0  0  0  0  0  0  0  0  0  0  0
   60.8420   31.7090   46.7460 N   0  0  0  0  0  0  0  0  0  0  0  0
   60.2280   30.5800   46.6780 C   0  0  0  0  0  0  0  0  0  0  0  0
   60.8300   29.4500   47.0930 N   0  0  0  0  0  0  0  0  0  0  0  0
   60.2000   28.2890   47.0240 N   0  0  0  0  0  0  0  0  0  0  0  0
   58.9410   28.1890   46.5410 C   0  0  0  0  0  0  0  0  0  0  0  0
   58.2240   26.9240   46.4530 C   0  0  0  0  0  0  0  0  0  0  0  0
   58.3130   26.0080   47.2990 O   0  0  0  0  0  0  0  0  0  0  0  0
   57.3730   26.7360   45.3260 N   0  0  0  0  0  0  0  0  0  0  0  0
   56.6290   25.5180   45.1630 C   0  0  0  0  0  0  0  0  0  0  0  0
   55.5790   25.2560   45.9990 C   0  0  0  0  0  0  0  0  0  0  0  0
   54.8700   24.0820   45.8320 C   0  0  0  0  0  0  0  0  0  0  0  0
   55.2200   23.1900   44.8370 C   0  0  0  0  0  0  0  0  0  0  0  0
   56.2870   23.4460   43.9800 C   0  0  0  0  0  0  0  0  0  0  0  0
   56.6320   22.5640   42.9960 F   0  0  0  0  0  0  0  0  0  0  0  0
   57.0030   24.6350   44.1500 C   0  0  0  0  0  0  0  0  0  0  0  0
   58.3130   29.3200   46.1170 C   0  0  0  0  0  0  0  0  0  0  0  0
   57.1430   29.3510   45.6480 O   0  0  0  0  0  0  0  0  0  0  0  0
   58.9590   30.4990   46.1880 N   0  0  0  0  0  0  0  0  0  0  0  0
   58.3670   31.7070   45.7670 C   0  0  0  0  0  0  0  0  0  0  0  0
   58.1570   32.0440   44.4470 C   0  0  0  0  0  0  0  0  0  0  0  0
   57.5690   33.2510   44.1330 C   0  0  0  0  0  0  0  0  0  0  0  0
   57.1890   34.1320   45.1430 C   0  0  0  0  0  0  0  0  0  0  0  0
   57.3950   33.8060   46.4780 C   0  0  0  0  0  0  0  0  0  0  0  0
   57.9810   32.5990   46.7720 C   0  0  0  0  0  0  0  0  0  0  0  0
   61.7030   31.6070   49.0480 C   0  0  0  0  0  0  0  0  0  0  0  0
   62.6960   31.9420   49.9690 C   0  0  0  0  0  0  0  0  0  0  0  0
   66.5494   31.6938   51.9338 H   0  0  0  0  0  0  0  0  0  0  0  0
   65.9618   30.6734   50.5773 H   0  0  0  0  0  0  0  0  0  0  0  0
   67.6522   31.2811   50.5773 H   0  0  0  0  0  0  0  0  0  0  0  0
   66.7913   33.6163   50.4107 H   0  0  0  0  0  0  0  0  0  0  0  0
   66.2649   32.5936   49.0233 H   0  0  0  0  0  0  0  0  0  0  0  0
   64.7766   33.6903   47.8938 H   0  0  0  0  0  0  0  0  0  0  0  0
   62.9799   33.0686   46.2861 H   0  0  0  0  0  0  0  0  0  0  0  0
   61.8010   29.5110   47.4670 H   0  0  0  0  0  0  0  0  0  0  0  0
   57.2480   27.4550   44.5810 H   0  0  0  0  0  0  0  0  0  0  0  0
   55.3035   25.9679   46.7910 H   0  0  0  0  0  0  0  0  0  0  0  0
   54.0219   23.8563   46.4952 H   0  0  0  0  0  0  0  0  0  0  0  0
   54.6448   22.2598   44.7195 H   0  0  0  0  0  0  0  0  0  0  0  0
   57.8521   24.8715   43.4919 H   0  0  0  0  0  0  0  0  0  0  0  0
   58.4576   31.3520   43.6465 H   0  0  0  0  0  0  0  0  0  0  0  0
   57.3991   33.5196   43.0799 H   0  0  0  0  0  0  0  0  0  0  0  0
   56.7222   35.0932   44.8817 H   0  0  0  0  0  0  0  0  0  0  0  0
   57.0962   34.4975   47.2796 H   0  0  0  0  0  0  0  0  0  0  0  0
   58.1508   32.3274   47.8243 H   0  0  0  0  0  0  0  0  0  0  0  0
   60.8327   31.0176   49.3722 H   0  0  0  0  0  0  0  0  0  0  0  0
   62.6205   31.6238   51.0193 H   0  0  0  0  0  0  0  0  0  0  0  0
  1  2  1  0
  2  3  1  0
  3  4  1  0
  4  5  2  0
  5  6  1  0
  6  7  2  0
  7  8  1  0
  8  9  2  0
  9 10  1  0
 10 11  1  0
 11 12  2  0
 12 13  1  0
 13 14  2  0
 13 15  1  0
 15 16  1  0
 16 17  2  0
 17 18  1  0
 18 19  2  0
 19 20  1  0
 20 21  1  0
 20 22  2  0
 12 23  1  0
 23 24  2  0
 23 25  1  0
 25 26  1  0
 26 27  2  0
 27 28  1  0
 28 29  2  0
 29 30  1  0
 30 31  2  0
  7 32  1  0
 32 33  2  0
 33  4  1  0
 25  9  1  0
 31 26  1  0
 22 16  1  0
  1 34  1  0
  1 35  1  0
  1 36  1  0
  2 37  1  0
  2 38  1  0
  5 39  1  0
  6 40  1  0
 10 41  1  0
 15 42  1  0
 17 43  1  0
 18 44  1  0
 19 45  1  0
 22 46  1  0
 27 47  1  0
 28 48  1  0
 29 49  1  0
 30 50  1  0
 31 51  1  0
 32 52  1  0
 33 53  1  0
M  END
>  <smiles>  (13) 
CCOc1ccc(N=c2[nH]nc(C(=O)Nc3cccc(F)c3)c(=O)n2-c2ccccc2)cc1

>  <score_type>  (13) 
oracle

>  <origin>  (13) 
adg

>  <m_score__min__energy>  (13) 
-7.9199999999999999

>  <m_primary>  (13) 
energy

$$$$
13:0
     RDKit          3D

 35 37  0  0  0  0  0  0  0  0999 V2000
   57.7240   26.4760   44.4480 C   0  0  0  0  0  0  0  0  0  0  0  0
   56.5860   27.1860   45.6190 S   0  0  0  0  0  0  0  0  0  0  0  0
   55.5500   26.1760   46.0230 O   0  0  0  0  0  0  0  0  0  0  0  0
   57.3530   27.6050   46.8420 O   0  0  0  0  0  0  0  0  0  0  0  0
   55.8190   28.5850   44.9370 N   0  0  0  0  0  0  0  0  0  0  0  0
   56.4900   29.7250   44.3830 C   0  0  0  0  0  0  0  0  0  0  0  0
   56.3910   29.9500   43.0050 C   0  0  0  0  0  0  0  0  0  0  0  0
   57.0250   31.0470   42.4220 C   0  0  0  0  0  0  0  0  0  0  0  0
   57.7630   31.9320   43.2080 C   0  0  0  0  0  0  0  0  0  0  0  0
   57.8780   31.7300   44.5960 C   0  0  0  0  0  0  0  0  0  0  0  0
   58.6600   32.6680   45.4460 C   0  0  0  0  0  0  0  0  0  0  0  0
   59.0630   33.9640   45.1170 C   0  0  0  0  0  0  0  0  0  0  0  0
   59.7920   34.6020   46.1280 C   0  0  0  0  0  0  0  0  0  0  0  0
   59.9630   33.8280   47.2710 C   0  0  0  0  0  0  0  0  0  0  0  0
   60.7350   34.2350   48.4650 C   0  0  0  0  0  0  0  0  0  0  0  0
   60.1610   34.9390   49.3400 O   0  0  0  0  0  0  0  0  0  0  0  0
   62.1480   33.8570   48.6840 C   0  0  0  0  0  0  0  0  0  0  0  0
   62.7420   33.8730   49.8990 N   0  0  0  0  0  0  0  0  0  0  0  0
   64.0280   33.4320   49.8680 C   0  0  0  0  0  0  0  0  0  0  0  0
   64.4800   33.0410   48.6140 C   0  0  0  0  0  0  0  0  0  0  0  0
   63.2170   33.2580   47.5250 S   0  0  0  0  0  0  0  0  0  0  0  0
   59.2250   32.3400   47.0000 S   0  0  0  0  0  0  0  0  0  0  0  0
   57.2370   30.6170   45.1730 C   0  0  0  0  0  0  0  0  0  0  0  0
   58.5370   25.9688   44.9881 H   0  0  0  0  0  0  0  0  0  0  0  0
   57.1936   25.7483   43.8162 H   0  0  0  0  0  0  0  0  0  0  0  0
   58.1444   27.2723   43.8162 H   0  0  0  0  0  0  0  0  0  0  0  0
   55.8098   29.2576   42.3783 H   0  0  0  0  0  0  0  0  0  0  0  0
   56.9427   31.2149   41.3380 H   0  0  0  0  0  0  0  0  0  0  0  0
   58.2590   32.7947   42.7392 H   0  0  0  0  0  0  0  0  0  0  0  0
   58.8294   34.4395   44.1530 H   0  0  0  0  0  0  0  0  0  0  0  0
   60.1926   35.6215   46.0276 H   0  0  0  0  0  0  0  0  0  0  0  0
   62.2710   34.1900   50.7760 H   0  0  0  0  0  0  0  0  0  0  0  0
   64.6613   33.3883   50.7664 H   0  0  0  0  0  0  0  0  0  0  0  0
   65.4835   32.6583   48.3761 H   0  0  0  0  0  0  0  0  0  0  0  0
   57.3216   30.4429   46.2558 H   0  0  0  0  0  0  0  0  0  0  0  0
  1  2  1  0
  2  3  2  0
  2  4  2  0
  2  5  1  0
  5  6  1  0
  6  7  2  0
  7  8  1  0
  8  9  2  0
  9 10  1  0
 10 11  1  0
 11 12  2  0
 12 13  1  0
 13 14  2  0
 14 15  1  0
 15 16  2  0
 15 17  1  0
 17 18  2  0
 18 19  1  0
 19 20  2  0
 20 21  1  0
 14 22  1  0
 10 23  2  0
 23  6  1  0
 22 11  1  0
 21 17  1  0
  1 24  1  0
  1 25  1  0
  1 26  1  0
  7 27  1  0
  8 28  1  0
  9 29  1  0
 12 30  1  0
 13 31  1  0
 18 32  1  0
 19 33  1  0
 20 34  1  0
 23 35  1  0
M  CHG  2   5  -1  18   1
M  END
>  <UniqueID>  (14) 
13

>  <SMILES>  (14) 
CS(=O)(=O)[N-]c1cccc(-c2ccc(C(=O)c3[nH+]ccs3)s2)c1

>  <Energy>  (14) 
96.15842175114118

>  <Genealogy>  (14) 
CS(=O)(=O)[N-]c1cccc(-c2ccc(C(=O)c3[nH+]ccs3)s2)c1 (protonated)
CS(=O)(=O)[N-]c1cccc(-c2ccc(C(=O)c3[nH+]ccs3)s2)c1 (3D coordinates assigned)
CS(=O)(=O)[N-]c1cccc(-c2ccc(C(=O)c3[nH+]ccs3)s2)c1 (optimized conformer: 96.15842175114118 kcal/mol)

>  <smiles>  (14) 
CS(=O)(=O)Nc1cccc(-c2ccc(C(=O)c3nccs3)s2)c1

>  <score_type>  (14) 
oracle

>  <origin>  (14) 
adg

>  <m_score__min__energy>  (14) 
-9.4800000000000004

>  <m_primary>  (14) 
energy

$$$$
14:0
     RDKit          3D

 36 37  0  0  0  0  0  0  0  0999 V2000
   54.8900   22.6910   48.5570 C   0  0  0  0  0  0  0  0  0  0  0  0
   56.3950   23.1350   47.7190 S   0  0  0  0  0  0  0  0  0  0  0  0
   57.0410   21.9170   47.1190 O   0  0  0  0  0  0  0  0  0  0  0  0
   57.3420   23.7420   48.7150 O   0  0  0  0  0  0  0  0  0  0  0  0
   56.0680   24.3040   46.4800 N   0  0  0  0  0  0  0  0  0  0  0  0
   56.8400   25.4840   46.2100 C   0  0  0  0  0  0  0  0  0  0  0  0
   58.2470   25.4720   46.2140 C   0  0  0  0  0  0  0  0  0  0  0  0
   58.9610   26.6460   45.9720 C   0  0  0  0  0  0  0  0  0  0  0  0
   58.2850   27.8380   45.7090 C   0  0  0  0  0  0  0  0  0  0  0  0
   56.8880   27.8650   45.6670 C   0  0  0  0  0  0  0  0  0  0  0  0
   56.2380   29.1170   45.4100 N   0  0  0  0  0  0  0  0  0  0  0  0
   55.8920   29.6340   44.1180 C   0  0  0  0  0  0  0  0  0  0  0  0
   54.7440   29.4250   43.6430 O   0  0  0  0  0  0  0  0  0  0  0  0
   56.9020   30.3040   43.2790 C   0  0  0  0  0  0  0  0  0  0  0  0
   58.0300   30.8740   43.7300 C   0  0  0  0  0  0  0  0  0  0  0  0
   58.0900   32.0250   44.6550 C   0  0  0  0  0  0  0  0  0  0  0  0
   58.1610   33.3450   44.1720 C   0  0  0  0  0  0  0  0  0  0  0  0
   58.2410   34.4180   45.0660 C   0  0  0  0  0  0  0  0  0  0  0  0
   58.2770   34.1810   46.4420 C   0  0  0  0  0  0  0  0  0  0  0  0
   58.2420   32.8710   46.9270 C   0  0  0  0  0  0  0  0  0  0  0  0
   58.1590   31.7950   46.0370 C   0  0  0  0  0  0  0  0  0  0  0  0
   56.1630   26.6880   45.9520 C   0  0  0  0  0  0  0  0  0  0  0  0
   54.7730   26.7110   46.0160 O   0  0  0  0  0  0  0  0  0  0  0  0
   55.0484   22.7377   49.6445 H   0  0  0  0  0  0  0  0  0  0  0  0
   54.0913   23.3918   48.2723 H   0  0  0  0  0  0  0  0  0  0  0  0
   54.5996   21.6689   48.2723 H   0  0  0  0  0  0  0  0  0  0  0  0
   58.7862   24.5332   46.4087 H   0  0  0  0  0  0  0  0  0  0  0  0
   60.0608   26.6318   45.9886 H   0  0  0  0  0  0  0  0  0  0  0  0
   58.8550   28.7623   45.5336 H   0  0  0  0  0  0  0  0  0  0  0  0
   56.7160   30.3396   42.1954 H   0  0  0  0  0  0  0  0  0  0  0  0
   58.9849   30.4514   43.3841 H   0  0  0  0  0  0  0  0  0  0  0  0
   58.1536   33.5335   43.0883 H   0  0  0  0  0  0  0  0  0  0  0  0
   58.2756   35.4493   44.6850 H   0  0  0  0  0  0  0  0  0  0  0  0
   58.3329   35.0259   47.1441 H   0  0  0  0  0  0  0  0  0  0  0  0
   58.2798   32.6855   48.0106 H   0  0  0  0  0  0  0  0  0  0  0  0
   58.1478   30.7647   46.4223 H   0  0  0  0  0  0  0  0  0  0  0  0
  1  2  1  0
  2  3  2  0
  2  4  2  0
  2  5  1  0
  5  6  1  0
  6  7  2  0
  7  8  1  0
  8  9  2  0
  9 10  1  0
 10 11  1  0
 11 12  1  0
 12 13  2  0
 12 14  1  0
 14 15  2  3
 15 16  1  0
 16 17  2  0
 17 18  1  0
 18 19  2  0
 19 20  1  0
 20 21  2  0
 10 22  2  0
 22 23  1  0
 22  6  1  0
 21 16  1  0
  1 24  1  0
  1 25  1  0
  1 26  1  0
  7 27  1  0
  8 28  1  0
  9 29  1  0
 14 30  1  0
 15 31  1  0
 17 32  1  0
 18 33  1  0
 19 34  1  0
 20 35  1  0
 21 36  1  0
M  CHG  3   5  -1  11  -1  23  -1
M  END
>  <UniqueID>  (15) 
14

>  <SMILES>  (15) 
CS(=O)(=O)[N-]c1cccc([N-]C(=O)C=Cc2ccccc2)c1[O-]

>  <Energy>  (15) 
47.959657591592986

>  <Genealogy>  (15) 
CS(=O)(=O)[N-]c1cccc([N-]C(=O)C=Cc2ccccc2)c1[O-] (protonated)
CS(=O)(=O)[N-]c1cccc([N-]C(=O)C=Cc2ccccc2)c1[O-] (3D coordinates assigned)
CS(=O)(=O)[N-]c1cccc([N-]C(=O)C=Cc2ccccc2)c1[O-] (optimized conformer: 47.959657591592986 kcal/mol)

>  <smiles>  (15) 
CS(=O)(=O)Nc1cccc(NC(=O)C=Cc2ccccc2)c1O

>  <score_type>  (15) 
oracle

>  <origin>  (15) 
adg

>  <m_score__min__energy>  (15) 
-16.25

>  <m_primary>  (15) 
energy

$$$$
15:0
     RDKit          3D

 46 49  0  0  0  0  0  0  0  0999 V2000
   58.1980   27.1190   43.4790 C   0  0  0  0  0  0  0  0  0  0  0  0
   58.9210   27.3190   44.7770 C   0  0  0  0  0  0  0  0  0  0  0  0
   58.8920   26.3190   45.7620 C   0  0  0  0  0  0  0  0  0  0  0  0
   59.5180   26.5260   46.9930 C   0  0  0  0  0  0  0  0  0  0  0  0
   60.1740   27.7320   47.2520 C   0  0  0  0  0  0  0  0  0  0  0  0
   60.2180   28.7400   46.2770 C   0  0  0  0  0  0  0  0  0  0  0  0
   60.8750   29.9830   46.5790 N   0  0  0  0  0  0  0  0  0  0  0  0
   60.6760   30.7210   47.7950 C   0  0  0  0  0  0  0  0  0  0  0  0
   59.7750   30.3820   48.6070 O   0  0  0  0  0  0  0  0  0  0  0  0
   61.5460   31.8750   48.1030 C   0  0  0  0  0  0  0  0  0  0  0  0
   62.9340   31.6520   48.1420 C   0  0  0  0  0  0  0  0  0  0  0  0
   63.8130   32.6850   48.4630 C   0  0  0  0  0  0  0  0  0  0  0  0
   63.3220   33.9560   48.7470 C   0  0  0  0  0  0  0  0  0  0  0  0
   61.9490   34.2030   48.6970 C   0  0  0  0  0  0  0  0  0  0  0  0
   61.0410   33.1780   48.3720 C   0  0  0  0  0  0  0  0  0  0  0  0
   59.5800   33.5480   48.2100 C   0  0  0  0  0  0  0  0  0  0  0  0
   59.2290   33.6250   46.7880 N   0  0  0  0  0  0  0  0  0  0  0  0
   59.4100   34.6760   45.9460 C   0  0  0  0  0  0  0  0  0  0  0  0
   59.9910   35.7410   46.2830 O   0  0  0  0  0  0  0  0  0  0  0  0
   58.9200   34.4780   44.6970 N   0  0  0  0  0  0  0  0  0  0  0  0
   58.4060   33.2380   44.7780 C   0  0  0  0  0  0  0  0  0  0  0  0
   57.7710   32.5190   43.7680 C   0  0  0  0  0  0  0  0  0  0  0  0
   57.3150   31.2200   44.0710 C   0  0  0  0  0  0  0  0  0  0  0  0
   56.6530   30.4400   43.0590 C   0  0  0  0  0  0  0  0  0  0  0  0
   56.1200   29.8130   42.2450 N   0  0  0  0  0  0  0  0  0  0  0  0
   57.5120   30.6790   45.3630 C   0  0  0  0  0  0  0  0  0  0  0  0
   58.1600   31.4300   46.3620 C   0  0  0  0  0  0  0  0  0  0  0  0
   58.5880   32.7180   46.0310 C   0  0  0  0  0  0  0  0  0  0  0  0
   59.5670   28.5360   45.0480 C   0  0  0  0  0  0  0  0  0  0  0  0
   57.1558   26.8307   43.6805 H   0  0  0  0  0  0  0  0  0  0  0  0
   58.2144   28.0554   42.9021 H   0  0  0  0  0  0  0  0  0  0  0  0
   58.6933   26.3241   42.9021 H   0  0  0  0  0  0  0  0  0  0  0  0
   58.3743   25.3690   45.5634 H   0  0  0  0  0  0  0  0  0  0  0  0
   59.4946   25.7380   47.7602 H   0  0  0  0  0  0  0  0  0  0  0  0
   60.6590   27.8923   48.2262 H   0  0  0  0  0  0  0  0  0  0  0  0
   61.4360   30.4370   45.8220 H   0  0  0  0  0  0  0  0  0  0  0  0
   63.3305   30.6510   47.9166 H   0  0  0  0  0  0  0  0  0  0  0  0
   64.8962   32.4955   48.4919 H   0  0  0  0  0  0  0  0  0  0  0  0
   64.0167   34.7669   49.0112 H   0  0  0  0  0  0  0  0  0  0  0  0
   61.5715   35.2130   48.9147 H   0  0  0  0  0  0  0  0  0  0  0  0
   58.9561   32.7841   48.6969 H   0  0  0  0  0  0  0  0  0  0  0  0
   59.4058   34.5294   48.6752 H   0  0  0  0  0  0  0  0  0  0  0  0
   57.6299   32.9509   42.7662 H   0  0  0  0  0  0  0  0  0  0  0  0
   57.1559   29.6631   45.5890 H   0  0  0  0  0  0  0  0  0  0  0  0
   58.3236   31.0170   47.3683 H   0  0  0  0  0  0  0  0  0  0  0  0
   59.5636   29.3358   44.2928 H   0  0  0  0  0  0  0  0  0  0  0  0
  1  2  1  0
  2  3  2  0
  3  4  1  0
  4  5  2  0
  5  6  1  0
  6  7  1  0
  7  8  1  0
  8  9  2  0
  8 10  1  0
 10 11  2  0
 11 12  1  0
 12 13  2  0
 13 14  1  0
 14 15  2  0
 15 16  1  0
 16 17  1  0
 17 18  1  0
 18 19  2  0
 18 20  1  0
 20 21  1  0
 21 22  2  0
 22 23  1  0
 23 24  1  0
 24 25  3  0
 23 26  2  0
 26 27  1  0
 27 28  2  0
  6 29  2  0
 29  2  1  0
 15 10  1  0
 28 17  1  0
 28 21  1  0
  1 30  1  0
  1 31  1  0
  1 32  1  0
  3 33  1  0
  4 34  1  0
  5 35  1  0
  7 36  1  0
 11 37  1  0
 12 38  1  0
 13 39  1  0
 14 40  1  0
 16 41  1  0
 16 42  1  0
 22 43  1  0
 26 44  1  0
 27 45  1  0
 29 46  1  0
M  CHG  1  20  -1
M  END
>  <UniqueID>  (16) 
15

>  <SMILES>  (16) 
Cc1cccc(NC(=O)c2ccccc2Cn2c(=O)[n-]c3cc(C#N)ccc32)c1

>  <Energy>  (16) 
97.04888744864093

>  <Genealogy>  (16) 
Cc1cccc(NC(=O)c2ccccc2Cn2c(=O)[n-]c3cc(C#N)ccc32)c1 (protonated)
Cc1cccc(NC(=O)c2ccccc2Cn2c(=O)[n-]c3cc(C#N)ccc32)c1 (3D coordinates assigned)
Cc1cccc(NC(=O)c2ccccc2Cn2c(=O)[n-]c3cc(C#N)ccc32)c1 (optimized conformer: 97.04888744864093 kcal/mol)

>  <smiles>  (16) 
Cc1cccc(NC(=O)c2ccccc2Cn2c(=O)[nH]c3cc(C#N)ccc32)c1

>  <score_type>  (16) 
oracle

>  <origin>  (16) 
adg

>  <m_score__min__energy>  (16) 
-9.6400000000000006

>  <m_primary>  (16) 
energy

$$$$
16:0
     RDKit          3D

 40 42  0  0  0  0  0  0  0  0999 V2000
   59.3905   35.3419   46.9880 H   0  0  0  0  0  0  0  0  0  0  0  0
   58.9270   34.6120   46.3080 C   0  0  0  0  0  0  0  0  0  0  0  0
   59.4240   34.4510   45.0110 C   0  0  0  0  0  0  0  0  0  0  0  0
   60.2660   35.0682   44.6645 H   0  0  0  0  0  0  0  0  0  0  0  0
   58.8520   33.5070   44.1550 C   0  0  0  0  0  0  0  0  0  0  0  0
   59.2503   33.3780   43.1378 H   0  0  0  0  0  0  0  0  0  0  0  0
   57.7710   32.7220   44.5870 C   0  0  0  0  0  0  0  0  0  0  0  0
   57.2340   31.6260   43.7080 C   0  0  0  0  0  0  0  0  0  0  0  0
   58.0783   31.0827   43.2585 H   0  0  0  0  0  0  0  0  0  0  0  0
   56.6044   32.0847   42.9313 H   0  0  0  0  0  0  0  0  0  0  0  0
   56.4120   30.6830   44.4660 N   0  0  0  0  0  0  0  0  0  0  0  0
   56.8220   29.5420   44.9360 C   0  0  0  0  0  0  0  0  0  0  0  0
   58.1510   29.2780   45.0680 N   0  0  0  0  0  0  0  0  0  0  0  0
   58.5960   28.0620   45.4740 C   0  0  0  0  0  0  0  0  0  0  0  0
   60.3720   27.8080   45.6270 S   0  0  0  0  0  0  0  0  0  0  0  0
   60.4590   28.1170   47.4270 C   0  0  0  0  0  0  0  0  0  0  0  0
   59.6759   27.5268   47.9254 H   0  0  0  0  0  0  0  0  0  0  0  0
   61.4624   27.8248   47.7702 H   0  0  0  0  0  0  0  0  0  0  0  0
   60.2610   29.5690   47.7680 C   0  0  0  0  0  0  0  0  0  0  0  0
   61.0850   30.5490   47.1920 C   0  0  0  0  0  0  0  0  0  0  0  0
   61.8389   30.2615   46.4443 H   0  0  0  0  0  0  0  0  0  0  0  0
   60.9500   31.8890   47.5660 C   0  0  0  0  0  0  0  0  0  0  0  0
   61.6073   32.6518   47.1231 H   0  0  0  0  0  0  0  0  0  0  0  0
   59.9810   32.2610   48.5020 C   0  0  0  0  0  0  0  0  0  0  0  0
   59.8868   33.3138   48.8066 H   0  0  0  0  0  0  0  0  0  0  0  0
   59.1320   31.2970   49.0510 C   0  0  0  0  0  0  0  0  0  0  0  0
   58.3524   31.5949   49.7675 H   0  0  0  0  0  0  0  0  0  0  0  0
   59.2730   29.9540   48.6900 C   0  0  0  0  0  0  0  0  0  0  0  0
   58.6081   29.1958   49.1293 H   0  0  0  0  0  0  0  0  0  0  0  0
   57.6710   27.0360   45.7290 C   0  0  0  0  0  0  0  0  0  0  0  0
   58.1050   25.7030   46.0840 C   0  0  0  0  0  0  0  0  0  0  0  0
   58.4510   24.6360   46.3670 N   0  0  0  0  0  0  0  0  0  0  0  0
   56.3060   27.3370   45.6300 C   0  0  0  0  0  0  0  0  0  0  0  0
   55.4380   26.4570   45.8810 O   0  0  0  0  0  0  0  0  0  0  0  0
   55.9100   28.5820   45.2510 N   0  0  0  0  0  0  0  0  0  0  0  0
   54.8880   28.7900   45.1620 H   0  0  0  0  0  0  0  0  0  0  0  0
   57.2610   32.9060   45.8840 C   0  0  0  0  0  0  0  0  0  0  0  0
   56.4028   32.3089   46.2260 H   0  0  0  0  0  0  0  0  0  0  0  0
   57.8420   33.8460   46.7400 C   0  0  0  0  0  0  0  0  0  0  0  0
   57.4437   33.9827   47.7562 H   0  0  0  0  0  0  0  0  0  0  0  0
  1  2  1  0
  2  3  2  0
  3  4  1  0
  3  5  1  0
  5  6  1  0
  5  7  2  0
  7  8  1  0
  8  9  1  0
  8 10  1  0
  8 11  1  0
 11 12  2  0
 12 13  1  0
 13 14  1  0
 14 15  1  0
 15 16  1  0
 16 17  1  0
 16 18  1  0
 16 19  1  0
 19 20  2  0
 20 21  1  0
 20 22  1  0
 22 23  1  0
 22 24  2  0
 24 25  1  0
 24 26  1  0
 26 27  1  0
 26 28  2  0
 28 29  1  0
 14 30  2  0
 30 31  1  0
 31 32  3  0
 30 33  1  0
 33 34  2  0
 33 35  1  0
 35 36  1  0
  7 37  1  0
 37 38  1  0
 37 39  2  0
 39 40  1  0
 39  2  1  0
 35 12  1  0
 28 19  1  0
M  CHG  1  13  -1
M  END
>  <UniqueID>  (17) 
16

>  <SMILES>  (17) 
N#Cc1c(SCc2ccccc2)[n-]/c(=N\Cc2ccccc2)[nH]c1=O

>  <Energy>  (17) 
37.24775231924958

>  <Genealogy>  (17) 
N#Cc1c(SCc2ccccc2)[n-]c(=NCc2ccccc2)[nH]c1=O (protonated)
N#Cc1c(SCc2ccccc2)[n-]/c(=N\Cc2ccccc2)[nH]c1=O (cis-trans isomerization)
N#Cc1c(SCc2ccccc2)[n-]/c(=N\Cc2ccccc2)[nH]c1=O (3D coordinates assigned)
N#Cc1c(SCc2ccccc2)[n-]/c(=N\Cc2ccccc2)[nH]c1=O (optimized conformer: 37.24775231924958 kcal/mol)

>  <smiles>  (17) 
N#Cc1c(SCc2ccccc2)[nH]c(=NCc2ccccc2)[nH]c1=O

>  <score_type>  (17) 
oracle

>  <origin>  (17) 
adg

>  <m_score__min__energy>  (17) 
-9.6199999999999992

>  <m_primary>  (17) 
energy

$$$$
17:0
     RDKit          3D

 37 39  0  0  0  0  0  0  0  0999 V2000
   56.2960   21.8460   42.6310 C   0  0  0  0  0  0  0  0  0  0  0  0
   56.9940   22.7700   43.5850 C   0  0  0  0  0  0  0  0  0  0  0  0
   57.5400   22.2710   44.7780 C   0  0  0  0  0  0  0  0  0  0  0  0
   58.1670   23.1360   45.6780 C   0  0  0  0  0  0  0  0  0  0  0  0
   58.2340   24.5050   45.4070 C   0  0  0  0  0  0  0  0  0  0  0  0
   57.6550   25.0260   44.2360 C   0  0  0  0  0  0  0  0  0  0  0  0
   57.7220   26.4280   43.9260 N   0  0  0  0  0  0  0  0  0  0  0  0
   58.1440   27.4400   44.8530 C   0  0  0  0  0  0  0  0  0  0  0  0
   58.2490   27.1710   46.0810 O   0  0  0  0  0  0  0  0  0  0  0  0
   58.3730   28.7770   44.3820 N   0  0  0  0  0  0  0  0  0  0  0  0
   58.9220   29.8370   45.1830 C   0  0  0  0  0  0  0  0  0  0  0  0
   60.0840   29.5130   46.3010 S   0  0  0  0  0  0  0  0  0  0  0  0
   58.6230   31.2040   44.8480 N   0  0  0  0  0  0  0  0  0  0  0  0
   57.9840   31.6370   43.7310 C   0  0  0  0  0  0  0  0  0  0  0  0
   57.8390   33.0190   43.7510 C   0  0  0  0  0  0  0  0  0  0  0  0
   58.4240   33.4290   44.9280 C   0  0  0  0  0  0  0  0  0  0  0  0
   58.5880   34.7100   45.4520 C   0  0  0  0  0  0  0  0  0  0  0  0
   59.2670   34.8360   46.6760 C   0  0  0  0  0  0  0  0  0  0  0  0
   59.7700   33.6950   47.3360 C   0  0  0  0  0  0  0  0  0  0  0  0
   59.5920   32.4140   46.7830 C   0  0  0  0  0  0  0  0  0  0  0  0
   58.8930   32.3120   45.5730 C   0  0  0  0  0  0  0  0  0  0  0  0
   57.0470   24.1480   43.3250 C   0  0  0  0  0  0  0  0  0  0  0  0
   55.7279   21.0940   43.1983 H   0  0  0  0  0  0  0  0  0  0  0  0
   55.6075   22.4246   41.9976 H   0  0  0  0  0  0  0  0  0  0  0  0
   57.0408   21.3419   41.9976 H   0  0  0  0  0  0  0  0  0  0  0  0
   57.4740   21.1966   45.0046 H   0  0  0  0  0  0  0  0  0  0  0  0
   58.6094   22.7380   46.6031 H   0  0  0  0  0  0  0  0  0  0  0  0
   58.7420   25.1785   46.1129 H   0  0  0  0  0  0  0  0  0  0  0  0
   57.3650   26.7420   42.9950 H   0  0  0  0  0  0  0  0  0  0  0  0
   58.0760   29.0100   43.4080 H   0  0  0  0  0  0  0  0  0  0  0  0
   57.6294   30.9831   42.9207 H   0  0  0  0  0  0  0  0  0  0  0  0
   57.3591   33.6507   42.9889 H   0  0  0  0  0  0  0  0  0  0  0  0
   58.1987   35.5935   44.9248 H   0  0  0  0  0  0  0  0  0  0  0  0
   59.4073   35.8314   47.1227 H   0  0  0  0  0  0  0  0  0  0  0  0
   60.3054   33.8080   48.2902 H   0  0  0  0  0  0  0  0  0  0  0  0
   59.9894   31.5196   47.2851 H   0  0  0  0  0  0  0  0  0  0  0  0
   56.6075   24.5442   42.3977 H   0  0  0  0  0  0  0  0  0  0  0  0
  1  2  1  0
  2  3  2  0
  3  4  1  0
  4  5  2  0
  5  6  1  0
  6  7  1  0
  7  8  1  0
  8  9  2  0
  8 10  1  0
 10 11  1  0
 11 12  2  0
 11 13  1  0
 13 14  1  0
 14 15  2  0
 15 16  1  0
 16 17  2  0
 17 18  1  0
 18 19  2  0
 19 20  1  0
 20 21  2  0
  6 22  2  0
 22  2  1  0
 21 13  1  0
 21 16  1  0
  1 23  1  0
  1 24  1  0
  1 25  1  0
  3 26  1  0
  4 27  1  0
  5 28  1  0
  7 29  1  0
 10 30  1  0
 14 31  1  0
 15 32  1  0
 17 33  1  0
 18 34  1  0
 19 35  1  0
 20 36  1  0
 22 37  1  0
M  END
>  <UniqueID>  (18) 
17

>  <SMILES>  (18) 
Cc1cccc(NC(=O)NC(=S)n2ccc3ccccc32)c1

>  <Energy>  (18) 
81.582063759282

>  <Genealogy>  (18) 
Cc1cccc(NC(=O)NC(=S)n2ccc3ccccc32)c1 (3D coordinates assigned)
Cc1cccc(NC(=O)NC(=S)n2ccc3ccccc32)c1 (optimized conformer: 81.582063759282 kcal/mol)

>  <smiles>  (18) 
Cc1cccc(NC(=O)NC(=S)n2ccc3ccccc32)c1

>  <score_type>  (18) 
oracle

>  <origin>  (18) 
adg

>  <m_score__min__energy>  (18) 
-7.5700000000000003

>  <m_primary>  (18) 
energy

$$$$
18:0
     RDKit          3D

 53 55  0  0  0  0  0  0  0  0999 V2000
   61.2320   30.1470   46.3680 C   0  0  0  0  0  0  0  0  0  0  0  0
   61.5030   31.4640   47.0320 C   0  0  0  0  0  0  0  0  0  0  0  0
   62.7870   31.7570   47.5130 C   0  0  0  0  0  0  0  0  0  0  0  0
   63.0130   32.9650   48.1720 C   0  0  0  0  0  0  0  0  0  0  0  0
   61.9640   33.8650   48.3520 C   0  0  0  0  0  0  0  0  0  0  0  0
   60.6890   33.5470   47.8610 C   0  0  0  0  0  0  0  0  0  0  0  0
   59.5360   34.4850   48.0960 C   0  0  0  0  0  0  0  0  0  0  0  0
   58.8200   34.7960   46.7780 C   0  0  0  0  0  0  0  0  0  0  0  0
   58.1350   33.5980   46.2710 N   0  0  0  0  0  0  0  0  0  0  0  0
   58.6400   33.2060   44.9480 C   0  0  0  0  0  0  0  0  0  0  0  0
   57.9480   31.9490   44.4990 C   0  0  0  0  0  0  0  0  0  0  0  0
   57.4350   31.8360   43.1970 C   0  0  0  0  0  0  0  0  0  0  0  0
   56.7910   30.6630   42.7960 C   0  0  0  0  0  0  0  0  0  0  0  0
   56.6400   29.6020   43.6920 C   0  0  0  0  0  0  0  0  0  0  0  0
   57.1220   29.7080   45.0020 C   0  0  0  0  0  0  0  0  0  0  0  0
   56.9550   28.6210   45.8740 O   0  0  0  0  0  0  0  0  0  0  0  0
   57.9720   28.0390   46.6470 C   0  0  0  0  0  0  0  0  0  0  0  0
   58.7150   28.8030   47.5660 C   0  0  0  0  0  0  0  0  0  0  0  0
   59.7060   28.2040   48.3460 C   0  0  0  0  0  0  0  0  0  0  0  0
   59.9550   26.8370   48.2300 C   0  0  0  0  0  0  0  0  0  0  0  0
   59.2120   26.0630   47.3360 C   0  0  0  0  0  0  0  0  0  0  0  0
   58.2210   26.6550   46.5350 C   0  0  0  0  0  0  0  0  0  0  0  0
   57.4100   25.7990   45.5970 C   0  0  0  0  0  0  0  0  0  0  0  0
   56.0660   25.5160   46.1880 C   0  0  0  0  0  0  0  0  0  0  0  0
   54.9890   26.4240   45.9780 N   0  0  0  0  0  0  0  0  0  0  0  0
   55.8950   24.4910   46.9020 O   0  0  0  0  0  0  0  0  0  0  0  0
   57.7940   30.8790   45.3960 C   0  0  0  0  0  0  0  0  0  0  0  0
   60.4840   32.3510   47.2350 N   0  0  0  0  0  0  0  0  0  0  0  0
   61.0732   29.3752   47.1355 H   0  0  0  0  0  0  0  0  0  0  0  0
   60.3323   30.2309   45.7407 H   0  0  0  0  0  0  0  0  0  0  0  0
   62.0917   29.8689   45.7407 H   0  0  0  0  0  0  0  0  0  0  0  0
   63.6092   31.0400   47.3717 H   0  0  0  0  0  0  0  0  0  0  0  0
   64.0175   33.2072   48.5492 H   0  0  0  0  0  0  0  0  0  0  0  0
   62.1347   34.8175   48.8751 H   0  0  0  0  0  0  0  0  0  0  0  0
   58.8248   34.0170   48.7926 H   0  0  0  0  0  0  0  0  0  0  0  0
   59.9218   35.4233   48.5212 H   0  0  0  0  0  0  0  0  0  0  0  0
   58.0801   35.5923   46.9467 H   0  0  0  0  0  0  0  0  0  0  0  0
   59.5641   35.1219   46.0363 H   0  0  0  0  0  0  0  0  0  0  0  0
   57.1190   33.8300   46.1650 H   0  0  0  0  0  0  0  0  0  0  0  0
   58.4410   34.0118   44.2262 H   0  0  0  0  0  0  0  0  0  0  0  0
   59.7236   33.0263   45.0079 H   0  0  0  0  0  0  0  0  0  0  0  0
   57.5404   32.6730   42.4911 H   0  0  0  0  0  0  0  0  0  0  0  0
   56.4014   30.5745   41.7711 H   0  0  0  0  0  0  0  0  0  0  0  0
   56.1396   28.6781   43.3664 H   0  0  0  0  0  0  0  0  0  0  0  0
   58.5137   29.8794   47.6705 H   0  0  0  0  0  0  0  0  0  0  0  0
   60.2909   28.8111   49.0527 H   0  0  0  0  0  0  0  0  0  0  0  0
   60.7379   26.3674   48.8436 H   0  0  0  0  0  0  0  0  0  0  0  0
   59.4039   24.9827   47.2584 H   0  0  0  0  0  0  0  0  0  0  0  0
   57.2825   26.3278   44.6409 H   0  0  0  0  0  0  0  0  0  0  0  0
   57.9373   24.8478   45.4325 H   0  0  0  0  0  0  0  0  0  0  0  0
   55.1390   27.4550   46.0390 H   0  0  0  0  0  0  0  0  0  0  0  0
   58.2021   30.9576   46.4145 H   0  0  0  0  0  0  0  0  0  0  0  0
   59.5230   32.1070   46.9050 H   0  0  0  0  0  0  0  0  0  0  0  0
  1  2  1  0
  2  3  2  0
  3  4  1  0
  4  5  2  0
  5  6  1  0
  6  7  1  0
  7  8  1  0
  8  9  1  0
  9 10  1  0
 10 11  1  0
 11 12  2  0
 12 13  1  0
 13 14  2  0
 14 15  1  0
 15 16  1  0
 16 17  1  0
 17 18  2  0
 18 19  1  0
 19 20  2  0
 20 21  1  0
 21 22  2  0
 22 23  1  0
 23 24  1  0
 24 25  1  0
 24 26  2  0
 15 27  2  0
  6 28  2  0
 28  2  1  0
 27 11  1  0
 22 17  1  0
  1 29  1  0
  1 30  1  0
  1 31  1  0
  3 32  1  0
  4 33  1  0
  5 34  1  0
  7 35  1  0
  7 36  1  0
  8 37  1  0
  8 38  1  0
  9 39  1  0
 10 40  1  0
 10 41  1  0
 12 42  1  0
 13 43  1  0
 14 44  1  0
 18 45  1  0
 19 46  1  0
 20 47  1  0
 21 48  1  0
 23 49  1  0
 23 50  1  0
 25 51  1  0
 27 52  1  0
 28 53  1  0
M  CHG  2  25  -1  28   1
M  END
>  <UniqueID>  (19) 
18

>  <SMILES>  (19) 
Cc1cccc(CCNCc2cccc(Oc3ccccc3CC([NH-])=O)c2)[nH+]1

>  <Energy>  (19) 
54.63421957277061

>  <Genealogy>  (19) 
Cc1cccc(CCNCc2cccc(Oc3ccccc3CC([NH-])=O)c2)[nH+]1 (protonated)
Cc1cccc(CCNCc2cccc(Oc3ccccc3CC([NH-])=O)c2)[nH+]1 (3D coordinates assigned)
Cc1cccc(CCNCc2cccc(Oc3ccccc3CC([NH-])=O)c2)[nH+]1 (optimized conformer: 54.63421957277061 kcal/mol)

>  <smiles>  (19) 
Cc1cccc(CCNCc2cccc(Oc3ccccc3CC(N)=O)c2)n1

>  <score_type>  (19) 
oracle

>  <origin>  (19) 
adg

>  <m_score__min__energy>  (19) 
-11.109999999999999

>  <m_primary>  (19) 
energy

$$$$
19:0
     RDKit          3D

 48 50  0  0  0  0  0  0  0  0999 V2000
   60.7510   26.4930   47.5940 C   0  0  0  0  0  0  0  0  0  0  0  0
   59.9720   26.3250   46.4130 O   0  0  0  0  0  0  0  0  0  0  0  0
   59.1350   27.3090   45.8640 C   0  0  0  0  0  0  0  0  0  0  0  0
   59.6290   28.5610   45.4560 C   0  0  0  0  0  0  0  0  0  0  0  0
   58.7700   29.5190   44.9120 C   0  0  0  0  0  0  0  0  0  0  0  0
   57.4010   29.2480   44.7630 C   0  0  0  0  0  0  0  0  0  0  0  0
   56.4920   30.2660   44.1810 C   0  0  0  0  0  0  0  0  0  0  0  0
   55.9470   30.0570   43.0630 O   0  0  0  0  0  0  0  0  0  0  0  0
   56.2760   31.5080   44.8650 N   0  0  0  0  0  0  0  0  0  0  0  0
   57.2670   32.4980   45.1860 C   0  0  0  0  0  0  0  0  0  0  0  0
   57.4250   32.9760   46.5010 C   0  0  0  0  0  0  0  0  0  0  0  0
   58.4090   33.9240   46.7950 C   0  0  0  0  0  0  0  0  0  0  0  0
   59.2520   34.3930   45.7870 C   0  0  0  0  0  0  0  0  0  0  0  0
   59.1230   33.9080   44.4840 C   0  0  0  0  0  0  0  0  0  0  0  0
   58.1400   32.9520   44.1760 C   0  0  0  0  0  0  0  0  0  0  0  0
   58.0130   32.4360   42.7690 C   0  0  0  0  0  0  0  0  0  0  0  0
   56.9080   27.9980   45.1700 C   0  0  0  0  0  0  0  0  0  0  0  0
   57.7640   27.0310   45.7160 C   0  0  0  0  0  0  0  0  0  0  0  0
   57.1240   25.4600   46.2080 S   0  0  0  0  0  0  0  0  0  0  0  0
   55.6230   25.5100   46.2920 O   0  0  0  0  0  0  0  0  0  0  0  0
   57.6760   25.1180   47.5650 O   0  0  0  0  0  0  0  0  0  0  0  0
   57.6040   24.2480   45.0470 N   0  0  0  0  0  0  0  0  0  0  0  0
   57.0170   24.5190   43.7150 C   0  0  0  0  0  0  0  0  0  0  0  0
   55.8720   23.5490   43.3750 C   0  0  0  0  0  0  0  0  0  0  0  0
   56.2700   22.1870   43.3990 O   0  0  0  0  0  0  0  0  0  0  0  0
   57.2270   21.8860   44.4080 C   0  0  0  0  0  0  0  0  0  0  0  0
   57.2750   22.9040   45.5590 C   0  0  0  0  0  0  0  0  0  0  0  0
   60.1111   26.3550   48.4780 H   0  0  0  0  0  0  0  0  0  0  0  0
   61.5610   25.7489   47.6079 H   0  0  0  0  0  0  0  0  0  0  0  0
   61.1823   27.5048   47.6079 H   0  0  0  0  0  0  0  0  0  0  0  0
   60.6998   28.7876   45.5661 H   0  0  0  0  0  0  0  0  0  0  0  0
   59.1701   30.4943   44.5977 H   0  0  0  0  0  0  0  0  0  0  0  0
   56.7702   32.6012   47.3015 H   0  0  0  0  0  0  0  0  0  0  0  0
   58.5190   34.3009   47.8225 H   0  0  0  0  0  0  0  0  0  0  0  0
   60.0195   35.1461   46.0192 H   0  0  0  0  0  0  0  0  0  0  0  0
   59.7944   34.2762   43.6943 H   0  0  0  0  0  0  0  0  0  0  0  0
   57.7502   31.3681   42.7924 H   0  0  0  0  0  0  0  0  0  0  0  0
   57.2259   32.9959   42.2428 H   0  0  0  0  0  0  0  0  0  0  0  0
   58.9701   32.5666   42.2428 H   0  0  0  0  0  0  0  0  0  0  0  0
   55.8367   27.7745   45.0591 H   0  0  0  0  0  0  0  0  0  0  0  0
   56.6255   25.5469   43.7031 H   0  0  0  0  0  0  0  0  0  0  0  0
   57.8087   24.3828   42.9635 H   0  0  0  0  0  0  0  0  0  0  0  0
   55.0641   23.6905   44.1080 H   0  0  0  0  0  0  0  0  0  0  0  0
   55.5432   23.7764   42.3502 H   0  0  0  0  0  0  0  0  0  0  0  0
   56.9836   20.8999   44.8303 H   0  0  0  0  0  0  0  0  0  0  0  0
   58.2142   21.9120   43.9234 H   0  0  0  0  0  0  0  0  0  0  0  0
   56.2938   22.9359   46.0552 H   0  0  0  0  0  0  0  0  0  0  0  0
   58.0519   22.5958   46.2742 H   0  0  0  0  0  0  0  0  0  0  0  0
  1  2  1  0
  2  3  1  0
  3  4  2  0
  4  5  1  0
  5  6  2  0
  6  7  1  0
  7  8  2  0
  7  9  1  0
  9 10  1  0
 10 11  2  0
 11 12  1  0
 12 13  2  0
 13 14  1  0
 14 15  2  0
 15 16  1  0
  6 17  1  0
 17 18  2  0
 18 19  1  0
 19 20  2  0
 19 21  2  0
 19 22  1  0
 22 23  1  0
 23 24  1  0
 24 25  1  0
 25 26  1  0
 26 27  1  0
 18  3  1  0
 27 22  1  0
 15 10  1  0
  1 28  1  0
  1 29  1  0
  1 30  1  0
  4 31  1  0
  5 32  1  0
 11 33  1  0
 12 34  1  0
 13 35  1  0
 14 36  1  0
 16 37  1  0
 16 38  1  0
 16 39  1  0
 17 40  1  0
 23 41  1  0
 23 42  1  0
 24 43  1  0
 24 44  1  0
 26 45  1  0
 26 46  1  0
 27 47  1  0
 27 48  1  0
M  CHG  1   9  -1
M  END
>  <UniqueID>  (20) 
19

>  <SMILES>  (20) 
COc1ccc(C(=O)[N-]c2ccccc2C)cc1S(=O)(=O)N1CCOCC1

>  <Energy>  (20) 
65.3937799416777

>  <Genealogy>  (20) 
COc1ccc(C(=O)[N-]c2ccccc2C)cc1S(=O)(=O)N1CCOCC1 (protonated)
COc1ccc(C(=O)[N-]c2ccccc2C)cc1S(=O)(=O)N1CCOCC1 (3D coordinates assigned)
COc1ccc(C(=O)[N-]c2ccccc2C)cc1S(=O)(=O)N1CCOCC1 (nonaromatic ring conformer: 65.3937799416777 kcal/mol)

>  <smiles>  (20) 
COc1ccc(C(=O)Nc2ccccc2C)cc1S(=O)(=O)N1CCOCC1

>  <score_type>  (20) 
oracle

>  <origin>  (20) 
adg

>  <m_score__min__energy>  (20) 
-10.550000000000001

>  <m_primary>  (20) 
energy

$$$$
20:0
     RDKit          3D

 41 42  0  0  0  0  0  0  0  0999 V2000
   60.5520   28.9320   44.9740 O   0  0  0  0  0  0  0  0  0  0  0  0
   59.5890   28.3460   45.5400 C   0  0  0  0  0  0  0  0  0  0  0  0
   58.7090   27.4420   44.7310 C   0  0  0  0  0  0  0  0  0  0  0  0
   57.3970   28.0450   44.4910 N   0  0  0  0  0  0  0  0  0  0  0  0
   57.1820   29.3930   44.0330 C   0  0  0  0  0  0  0  0  0  0  0  0
   55.6380   29.8810   43.7470 S   0  0  0  0  0  0  0  0  0  0  0  0
   58.2790   30.2850   43.7320 N   0  0  0  0  0  0  0  0  0  0  0  0
   58.1490   31.5070   44.4860 C   0  0  0  0  0  0  0  0  0  0  0  0
   57.8390   32.7160   43.8350 C   0  0  0  0  0  0  0  0  0  0  0  0
   57.7300   33.9020   44.5640 C   0  0  0  0  0  0  0  0  0  0  0  0
   57.9320   33.8980   45.9470 C   0  0  0  0  0  0  0  0  0  0  0  0
   58.2460   32.7040   46.6040 C   0  0  0  0  0  0  0  0  0  0  0  0
   58.5070   32.6990   48.3390 Cl  0  0  0  0  0  0  0  0  0  0  0  0
   58.3560   31.5140   45.8780 C   0  0  0  0  0  0  0  0  0  0  0  0
   59.3480   28.5350   46.9050 O   0  0  0  0  0  0  0  0  0  0  0  0
   60.3930   28.5540   47.8720 C   0  0  0  0  0  0  0  0  0  0  0  0
   60.2400   29.7650   48.7930 C   0  0  0  0  0  0  0  0  0  0  0  0
   61.3430   30.7710   48.5750 C   0  0  0  0  0  0  0  0  0  0  0  0
   61.5230   31.3700   47.3170 C   0  0  0  0  0  0  0  0  0  0  0  0
   62.5470   32.3020   47.1200 C   0  0  0  0  0  0  0  0  0  0  0  0
   63.3880   32.6540   48.1800 C   0  0  0  0  0  0  0  0  0  0  0  0
   64.3720   33.5660   47.9900 F   0  0  0  0  0  0  0  0  0  0  0  0
   63.2110   32.0670   49.4360 C   0  0  0  0  0  0  0  0  0  0  0  0
   62.1950   31.1270   49.6340 C   0  0  0  0  0  0  0  0  0  0  0  0
   59.1935   27.2434   43.7636 H   0  0  0  0  0  0  0  0  0  0  0  0
   58.5621   26.5086   45.2942 H   0  0  0  0  0  0  0  0  0  0  0  0
   56.5600   27.4500   44.6840 H   0  0  0  0  0  0  0  0  0  0  0  0
   58.2770   30.4860   42.7060 H   0  0  0  0  0  0  0  0  0  0  0  0
   59.2040   29.8570   43.9480 H   0  0  0  0  0  0  0  0  0  0  0  0
   57.6818   32.7265   42.7463 H   0  0  0  0  0  0  0  0  0  0  0  0
   57.4845   34.8421   44.0483 H   0  0  0  0  0  0  0  0  0  0  0  0
   57.8440   34.8337   46.5185 H   0  0  0  0  0  0  0  0  0  0  0  0
   58.6059   30.5775   46.3981 H   0  0  0  0  0  0  0  0  0  0  0  0
   60.3490   27.6333   48.4724 H   0  0  0  0  0  0  0  0  0  0  0  0
   61.3606   28.6186   47.3528 H   0  0  0  0  0  0  0  0  0  0  0  0
   59.2721   30.2471   48.5911 H   0  0  0  0  0  0  0  0  0  0  0  0
   60.2946   29.4146   49.8343 H   0  0  0  0  0  0  0  0  0  0  0  0
   60.8558   31.1049   46.4836 H   0  0  0  0  0  0  0  0  0  0  0  0
   62.6909   32.7587   46.1297 H   0  0  0  0  0  0  0  0  0  0  0  0
   63.8721   32.3450   50.2701 H   0  0  0  0  0  0  0  0  0  0  0  0
   62.0622   30.6642   50.6230 H   0  0  0  0  0  0  0  0  0  0  0  0
  1  2  2  0
  2  3  1  0
  3  4  1  0
  4  5  1  0
  5  6  2  0
  5  7  1  0
  7  8  1  0
  8  9  2  0
  9 10  1  0
 10 11  2  0
 11 12  1  0
 12 13  1  0
 12 14  2  0
  2 15  1  0
 15 16  1  0
 16 17  1  0
 17 18  1  0
 18 19  2  0
 19 20  1  0
 20 21  2  0
 21 22  1  0
 21 23  1  0
 23 24  2  0
 14  8  1  0
 24 18  1  0
  3 25  1  0
  3 26  1  0
  4 27  1  0
  7 28  1  0
  7 29  1  0
  9 30  1  0
 10 31  1  0
 11 32  1  0
 14 33  1  0
 16 34  1  0
 16 35  1  0
 17 36  1  0
 17 37  1  0
 19 38  1  0
 20 39  1  0
 23 40  1  0
 24 41  1  0
M  CHG  1   7   1
M  END
>  <UniqueID>  (21) 
20

>  <SMILES>  (21) 
O=C(CNC(=S)[NH2+]c1cccc(Cl)c1)OCCc1ccc(F)cc1

>  <Energy>  (21) 
33.046412889278514

>  <Genealogy>  (21) 
O=C(CNC(=S)[NH2+]c1cccc(Cl)c1)OCCc1ccc(F)cc1 (protonated)
O=C(CNC(=S)[NH2+]c1cccc(Cl)c1)OCCc1ccc(F)cc1 (3D coordinates assigned)
O=C(CNC(=S)[NH2+]c1cccc(Cl)c1)OCCc1ccc(F)cc1 (optimized conformer: 33.046412889278514 kcal/mol)

>  <smiles>  (21) 
O=C(CNC(=S)Nc1cccc(Cl)c1)OCCc1ccc(F)cc1

>  <score_type>  (21) 
oracle

>  <origin>  (21) 
adg

>  <m_score__min__energy>  (21) 
-6.5

>  <m_primary>  (21) 
energy

$$$$
21:0
     RDKit          3D

 54 59  0  0  0  0  0  0  0  0999 V2000
   62.7980   34.3130   49.7320 C   0  0  0  0  0  0  0  0  0  0  0  0
   61.6320   34.9030   49.1670 O   0  0  0  0  0  0  0  0  0  0  0  0
   60.7830   34.2600   48.2540 C   0  0  0  0  0  0  0  0  0  0  0  0
   59.8510   34.9620   47.4650 C   0  0  0  0  0  0  0  0  0  0  0  0
   59.0300   34.2750   46.5670 C   0  0  0  0  0  0  0  0  0  0  0  0
   59.1180   32.8800   46.4540 C   0  0  0  0  0  0  0  0  0  0  0  0
   60.0460   32.1800   47.2350 C   0  0  0  0  0  0  0  0  0  0  0  0
   60.8740   32.8690   48.1280 C   0  0  0  0  0  0  0  0  0  0  0  0
   60.1510   30.7610   47.1240 N   0  0  0  0  0  0  0  0  0  0  0  0
   59.3350   30.0380   46.4160 C   0  0  0  0  0  0  0  0  0  0  0  0
   58.2690   30.6930   45.6710 N   0  0  0  0  0  0  0  0  0  0  0  0
   58.2890   32.1460   45.4390 C   0  0  0  0  0  0  0  0  0  0  0  0
   57.3010   29.9060   44.8950 C   0  0  0  0  0  0  0  0  0  0  0  0
   57.1250   28.5570   45.5000 C   0  0  0  0  0  0  0  0  0  0  0  0
   56.0250   27.7930   45.3590 N   0  0  0  0  0  0  0  0  0  0  0  0
   56.3180   26.6320   45.9600 C   0  0  0  0  0  0  0  0  0  0  0  0
   55.4830   25.5200   46.0550 C   0  0  0  0  0  0  0  0  0  0  0  0
   55.9720   24.3790   46.7050 C   0  0  0  0  0  0  0  0  0  0  0  0
   57.2740   24.3700   47.2420 C   0  0  0  0  0  0  0  0  0  0  0  0
   58.1020   25.5030   47.1320 C   0  0  0  0  0  0  0  0  0  0  0  0
   57.6000   26.6380   46.4780 C   0  0  0  0  0  0  0  0  0  0  0  0
   58.1370   27.9010   46.1870 C   0  0  0  0  0  0  0  0  0  0  0  0
   59.5340   28.5170   46.3120 C   0  0  1  0  0  0  0  0  0  0  0  0
   60.2350   28.2760   45.1160 O   0  0  0  0  0  0  0  0  0  0  0  0
   60.3300   27.9110   47.5160 C   0  0  0  0  0  0  0  0  0  0  0  0
   60.0990   28.5650   48.8620 C   0  0  0  0  0  0  0  0  0  0  0  0
   61.1630   28.7010   49.7750 C   0  0  0  0  0  0  0  0  0  0  0  0
   60.9550   29.3090   51.0160 C   0  0  0  0  0  0  0  0  0  0  0  0
   59.6910   29.7980   51.3550 C   0  0  0  0  0  0  0  0  0  0  0  0
   58.6340   29.6870   50.4480 C   0  0  0  0  0  0  0  0  0  0  0  0
   58.8350   29.0810   49.2050 C   0  0  0  0  0  0  0  0  0  0  0  0
   62.7311   34.3469   50.8294 H   0  0  0  0  0  0  0  0  0  0  0  0
   62.8764   33.2667   49.4016 H   0  0  0  0  0  0  0  0  0  0  0  0
   63.6874   34.8695   49.4016 H   0  0  0  0  0  0  0  0  0  0  0  0
   59.7692   36.0552   47.5561 H   0  0  0  0  0  0  0  0  0  0  0  0
   58.3118   34.8306   45.9462 H   0  0  0  0  0  0  0  0  0  0  0  0
   61.6026   32.3128   48.7361 H   0  0  0  0  0  0  0  0  0  0  0  0
   58.7049   32.3377   44.4389 H   0  0  0  0  0  0  0  0  0  0  0  0
   57.2552   32.5120   45.5245 H   0  0  0  0  0  0  0  0  0  0  0  0
   56.3330   30.4285   44.8864 H   0  0  0  0  0  0  0  0  0  0  0  0
   57.6771   29.7901   43.8678 H   0  0  0  0  0  0  0  0  0  0  0  0
   55.1410   28.0430   44.8620 H   0  0  0  0  0  0  0  0  0  0  0  0
   54.4680   25.5376   45.6313 H   0  0  0  0  0  0  0  0  0  0  0  0
   55.3360   23.4861   46.7963 H   0  0  0  0  0  0  0  0  0  0  0  0
   57.6471   23.4696   47.7519 H   0  0  0  0  0  0  0  0  0  0  0  0
   59.1197   25.4985   47.5494 H   0  0  0  0  0  0  0  0  0  0  0  0
   60.7780   29.0820   44.9110 H   0  0  0  0  0  0  0  0  0  0  0  0
   60.0503   26.8509   47.6047 H   0  0  0  0  0  0  0  0  0  0  0  0
   61.3920   28.0789   47.2835 H   0  0  0  0  0  0  0  0  0  0  0  0
   62.1628   28.3267   49.5098 H   0  0  0  0  0  0  0  0  0  0  0  0
   61.7885   29.4028   51.7276 H   0  0  0  0  0  0  0  0  0  0  0  0
   59.5281   30.2700   52.3351 H   0  0  0  0  0  0  0  0  0  0  0  0
   57.6406   30.0778   50.7132 H   0  0  0  0  0  0  0  0  0  0  0  0
   58.0014   29.0068   48.4911 H   0  0  0  0  0  0  0  0  0  0  0  0
  1  2  1  0
  2  3  1  0
  3  4  2  0
  4  5  1  0
  5  6  2  0
  6  7  1  0
  7  8  2  0
  7  9  1  0
  9 10  2  0
 10 11  1  0
 11 12  1  0
 11 13  1  0
 13 14  1  0
 14 15  1  0
 15 16  1  0
 16 17  2  0
 17 18  1  0
 18 19  2  0
 19 20  1  0
 20 21  2  0
 21 22  1  0
 22 23  1  0
 23 24  1  6
 23 25  1  0
 25 26  1  0
 26 27  2  0
 27 28  1  0
 28 29  2  0
 29 30  1  0
 30 31  2  0
  8  3  1  0
 23 10  1  0
 31 26  1  0
 12  6  1  0
 22 14  2  0
 21 16  1  0
  1 32  1  0
  1 33  1  0
  1 34  1  0
  4 35  1  0
  5 36  1  0
  8 37  1  0
 12 38  1  0
 12 39  1  0
 13 40  1  0
 13 41  1  0
 15 42  1  0
 17 43  1  0
 18 44  1  0
 19 45  1  0
 20 46  1  0
 24 47  1  0
 25 48  1  0
 25 49  1  0
 27 50  1  0
 28 51  1  0
 29 52  1  0
 30 53  1  0
 31 54  1  0
M  END
>  <UniqueID>  (22) 
21

>  <SMILES>  (22) 
COc1ccc2c(c1)N=C1N(C2)Cc2[nH]c3ccccc3c2[C@]1(O)Cc1ccccc1

>  <Energy>  (22) 
109.95971628865595

>  <Genealogy>  (22) 
COc1ccc2c(c1)N=C1N(C2)Cc2[nH]c3ccccc3c2[C@]1(O)Cc1ccccc1 (chirality)
COc1ccc2c(c1)N=C1N(C2)Cc2[nH]c3ccccc3c2[C@]1(O)Cc1ccccc1 (3D coordinates assigned)
COc1ccc2c(c1)N=C1N(C2)Cc2[nH]c3ccccc3c2[C@]1(O)Cc1ccccc1 (nonaromatic ring conformer: 109.95971628865595 kcal/mol)

>  <smiles>  (22) 
COc1ccc2c(c1)N=C1N(C2)Cc2[nH]c3ccccc3c2C1(O)Cc1ccccc1

>  <score_type>  (22) 
oracle

>  <origin>  (22) 
adg

>  <m_score__min__energy>  (22) 
-8.0600000000000005

>  <m_primary>  (22) 
energy

$$$$
22:0
     RDKit          3D

 55 57  0  0  0  0  0  0  0  0999 V2000
   59.9980   35.3400   45.9340 C   0  0  0  0  0  0  0  0  0  0  0  0
   58.8970   34.9430   45.1240 O   0  0  0  0  0  0  0  0  0  0  0  0
   58.4220   33.6260   45.0210 C   0  0  0  0  0  0  0  0  0  0  0  0
   57.9320   33.1010   43.8090 C   0  0  0  0  0  0  0  0  0  0  0  0
   57.4650   31.7860   43.7470 C   0  0  0  0  0  0  0  0  0  0  0  0
   57.4830   30.9750   44.8880 C   0  0  0  0  0  0  0  0  0  0  0  0
   56.8830   29.3210   44.8140 S   0  0  0  0  0  0  0  0  0  0  0  0
   55.1580   29.3360   44.7210 N   0  0  0  0  0  0  0  0  0  0  0  0
   57.3150   28.5670   46.0400 O   0  0  0  0  0  0  0  0  0  0  0  0
   57.4420   28.6300   43.6020 O   0  0  0  0  0  0  0  0  0  0  0  0
   57.9650   31.4930   46.0970 C   0  0  0  0  0  0  0  0  0  0  0  0
   58.4390   32.8080   46.1640 C   0  0  0  0  0  0  0  0  0  0  0  0
   58.9580   33.3040   47.3970 N   0  0  0  0  0  0  0  0  0  0  0  0
   60.0840   32.3670   48.3180 S   0  0  0  0  0  0  0  0  0  0  0  0
   60.6360   31.2680   47.4530 O   0  0  0  0  0  0  0  0  0  0  0  0
   61.2210   33.2410   48.7680 O   0  0  0  0  0  0  0  0  0  0  0  0
   59.2680   31.6660   49.7110 C   0  0  0  0  0  0  0  0  0  0  0  0
   58.1480   32.3010   50.2590 C   0  0  0  0  0  0  0  0  0  0  0  0
   57.4440   31.7060   51.3110 C   0  0  0  0  0  0  0  0  0  0  0  0
   57.8450   30.4580   51.8180 C   0  0  0  0  0  0  0  0  0  0  0  0
   57.0720   29.8190   52.9070 C   0  0  0  0  0  0  0  0  0  0  0  0
   57.4120   30.0180   54.1060 O   0  0  0  0  0  0  0  0  0  0  0  0
   55.9240   29.0040   52.6160 N   0  0  0  0  0  0  0  0  0  0  0  0
   55.1400   28.3300   53.6530 C   0  0  0  0  0  0  0  0  0  0  0  0
   54.3220   29.3300   54.5010 C   0  0  1  0  0  0  0  0  0  0  0  0
   55.1370   30.0990   55.3530 O   0  0  0  0  0  0  0  0  0  0  0  0
   53.4190   30.2000   53.6450 C   0  0  0  0  0  0  0  0  0  0  0  0
   53.8330   30.5570   52.3490 C   0  0  0  0  0  0  0  0  0  0  0  0
   53.0390   31.3880   51.5530 C   0  0  0  0  0  0  0  0  0  0  0  0
   51.8260   31.8800   52.0440 C   0  0  0  0  0  0  0  0  0  0  0  0
   51.0360   32.7020   51.2510 O   0  0  0  0  0  0  0  0  0  0  0  0
   51.4090   31.5420   53.3340 C   0  0  0  0  0  0  0  0  0  0  0  0
   52.2020   30.7150   54.1360 C   0  0  0  0  0  0  0  0  0  0  0  0
   58.9810   29.8330   51.2740 C   0  0  0  0  0  0  0  0  0  0  0  0
   59.6840   30.4320   50.2260 C   0  0  0  0  0  0  0  0  0  0  0  0
   59.7264   35.2421   46.9954 H   0  0  0  0  0  0  0  0  0  0  0  0
   60.8639   34.6975   45.7163 H   0  0  0  0  0  0  0  0  0  0  0  0
   60.2546   36.3873   45.7163 H   0  0  0  0  0  0  0  0  0  0  0  0
   57.9171   33.7300   42.9067 H   0  0  0  0  0  0  0  0  0  0  0  0
   57.0812   31.3857   42.7970 H   0  0  0  0  0  0  0  0  0  0  0  0
   54.8010   29.3400   45.7030 H   0  0  0  0  0  0  0  0  0  0  0  0
   57.9709   30.8627   46.9985 H   0  0  0  0  0  0  0  0  0  0  0  0
   57.8197   33.2724   49.8607 H   0  0  0  0  0  0  0  0  0  0  0  0
   56.5717   32.2176   51.7439 H   0  0  0  0  0  0  0  0  0  0  0  0
   55.5600   28.9640   51.6380 H   0  0  0  0  0  0  0  0  0  0  0  0
   54.4481   27.6229   53.1720 H   0  0  0  0  0  0  0  0  0  0  0  0
   55.8394   27.8084   54.3230 H   0  0  0  0  0  0  0  0  0  0  0  0
   53.6671   28.7278   55.1479 H   0  0  0  0  0  0  0  0  0  0  0  0
   56.0820   29.9690   55.0900 H   0  0  0  0  0  0  0  0  0  0  0  0
   54.7894   30.1792   51.9585 H   0  0  0  0  0  0  0  0  0  0  0  0
   53.3693   31.6552   50.5384 H   0  0  0  0  0  0  0  0  0  0  0  0
   50.4539   31.9276   53.7201 H   0  0  0  0  0  0  0  0  0  0  0  0
   51.8742   30.4649   55.1558 H   0  0  0  0  0  0  0  0  0  0  0  0
   59.3182   28.8663   51.6762 H   0  0  0  0  0  0  0  0  0  0  0  0
   60.5681   29.9322   49.8035 H   0  0  0  0  0  0  0  0  0  0  0  0
  1  2  1  0
  2  3  1  0
  3  4  2  0
  4  5  1  0
  5  6  2  0
  6  7  1  0
  7  8  1  0
  7  9  2  0
  7 10  2  0
  6 11  1  0
 11 12  2  0
 12 13  1  0
 13 14  1  0
 14 15  2  0
 14 16  2  0
 14 17  1  0
 17 18  2  0
 18 19  1  0
 19 20  2  0
 20 21  1  0
 21 22  2  0
 21 23  1  0
 23 24  1  0
 24 25  1  0
 25 26  1  0
 25 27  1  0
 27 28  2  0
 28 29  1  0
 29 30  2  0
 30 31  1  0
 30 32  1  0
 32 33  2  0
 20 34  1  0
 34 35  2  0
 12  3  1  0
 35 17  1  0
 33 27  1  0
  1 36  1  0
  1 37  1  0
  1 38  1  0
  4 39  1  0
  5 40  1  0
  8 41  1  0
 11 42  1  0
 18 43  1  0
 19 44  1  0
 23 45  1  0
 24 46  1  0
 24 47  1  0
 25 48  1  1
 26 49  1  0
 28 50  1  0
 29 51  1  0
 32 52  1  0
 33 53  1  0
 34 54  1  0
 35 55  1  0
M  CHG  3   8  -1  13  -1  31  -1
M  END
>  <UniqueID>  (23) 
22

>  <SMILES>  (23) 
COc1ccc(S([NH-])(=O)=O)cc1[N-]S(=O)(=O)c1ccc(C(=O)NC[C@@H](O)c2ccc([O-])cc2)cc1

>  <Energy>  (23) 
65.42468313751873

>  <Genealogy>  (23) 
COc1ccc(S([NH-])(=O)=O)cc1[N-]S(=O)(=O)c1ccc(C(=O)NCC(O)c2ccc([O-])cc2)cc1 (protonated)
COc1ccc(S([NH-])(=O)=O)cc1[N-]S(=O)(=O)c1ccc(C(=O)NC[C@@H](O)c2ccc([O-])cc2)cc1 (chirality)
COc1ccc(S([NH-])(=O)=O)cc1[N-]S(=O)(=O)c1ccc(C(=O)NC[C@@H](O)c2ccc([O-])cc2)cc1 (3D coordinates assigned)
COc1ccc(S([NH-])(=O)=O)cc1[N-]S(=O)(=O)c1ccc(C(=O)NC[C@@H](O)c2ccc([O-])cc2)cc1 (optimized conformer: 65.42468313751873 kcal/mol)

>  <smiles>  (23) 
COc1ccc(S(N)(=O)=O)cc1NS(=O)(=O)c1ccc(C(=O)NCC(O)c2ccc(O)cc2)cc1

>  <score_type>  (23) 
oracle

>  <origin>  (23) 
adg

>  <m_score__min__energy>  (23) 
-17.120000000000001

>  <m_primary>  (23) 
energy

$$$$
23:0
     RDKit          3D

 54 57  0  0  0  0  0  0  0  0999 V2000
   66.3280   32.2930   50.2080 C   0  0  0  0  0  0  0  0  0  0  0  0
   64.8890   32.4840   49.8580 C   0  0  0  0  0  0  0  0  0  0  0  0
   64.0000   32.0300   50.6290 O   0  0  0  0  0  0  0  0  0  0  0  0
   64.5340   33.0960   48.6090 N   0  0  0  0  0  0  0  0  0  0  0  0
   63.2000   33.5010   48.2600 C   0  0  0  0  0  0  0  0  0  0  0  0
   62.2610   33.7300   49.2780 C   0  0  0  0  0  0  0  0  0  0  0  0
   60.9520   34.1050   48.9650 C   0  0  0  0  0  0  0  0  0  0  0  0
   60.5620   34.2650   47.6310 C   0  0  0  0  0  0  0  0  0  0  0  0
   59.2070   34.6250   47.3370 N   0  0  0  0  0  0  0  0  0  0  0  0
   58.1210   33.7210   47.0950 C   0  0  0  0  0  0  0  0  0  0  0  0
   57.7850   32.9240   48.0100 O   0  0  0  0  0  0  0  0  0  0  0  0
   57.3000   33.7750   45.8340 C   0  0  0  0  0  0  0  0  0  0  0  0
   58.1070   32.9220   44.4300 S   0  0  0  0  0  0  0  0  0  0  0  0
   57.8970   31.2620   45.0770 C   0  0  0  0  0  0  0  0  0  0  0  0
   56.7910   30.5440   44.7530 N   0  0  0  0  0  0  0  0  0  0  0  0
   56.5960   29.2800   45.2260 C   0  0  0  0  0  0  0  0  0  0  0  0
   55.5470   28.6640   44.8950 O   0  0  0  0  0  0  0  0  0  0  0  0
   57.5300   28.6920   46.0500 N   0  0  0  0  0  0  0  0  0  0  0  0
   57.3220   27.3350   46.5940 C   0  0  0  0  0  0  0  0  0  0  0  0
   57.2120   26.3210   45.4830 C   0  0  0  0  0  0  0  0  0  0  0  0
   56.4290   25.1670   45.6410 C   0  0  0  0  0  0  0  0  0  0  0  0
   56.3310   24.2400   44.6020 C   0  0  0  0  0  0  0  0  0  0  0  0
   57.0110   24.4790   43.4060 C   0  0  0  0  0  0  0  0  0  0  0  0
   57.7550   25.6070   43.2600 N   0  0  0  0  0  0  0  0  0  0  0  0
   57.8670   26.5240   44.2580 C   0  0  0  0  0  0  0  0  0  0  0  0
   58.6530   29.4090   46.3730 C   0  0  0  0  0  0  0  0  0  0  0  0
   58.8550   30.6760   45.8980 C   0  0  0  0  0  0  0  0  0  0  0  0
   60.1550   31.2450   46.3310 C   0  0  0  0  0  0  0  0  0  0  0  0
   60.7440   30.1640   47.2540 C   0  0  0  0  0  0  0  0  0  0  0  0
   59.7890   28.9570   47.2220 C   0  0  0  0  0  0  0  0  0  0  0  0
   61.4790   33.9830   46.6080 C   0  0  0  0  0  0  0  0  0  0  0  0
   62.7900   33.6070   46.9180 C   0  0  0  0  0  0  0  0  0  0  0  0
   66.4404   32.2781   51.3021 H   0  0  0  0  0  0  0  0  0  0  0  0
   66.6837   31.3398   49.7898 H   0  0  0  0  0  0  0  0  0  0  0  0
   66.9200   33.1204   49.7898 H   0  0  0  0  0  0  0  0  0  0  0  0
   65.2800   33.1820   47.8820 H   0  0  0  0  0  0  0  0  0  0  0  0
   62.5582   33.6133   50.3306 H   0  0  0  0  0  0  0  0  0  0  0  0
   60.2241   34.2754   49.7719 H   0  0  0  0  0  0  0  0  0  0  0  0
   56.3285   33.2960   46.0256 H   0  0  0  0  0  0  0  0  0  0  0  0
   57.1837   34.8334   45.5578 H   0  0  0  0  0  0  0  0  0  0  0  0
   58.1729   27.0713   47.2393 H   0  0  0  0  0  0  0  0  0  0  0  0
   56.3855   27.3273   47.1709 H   0  0  0  0  0  0  0  0  0  0  0  0
   55.8918   24.9928   46.5849 H   0  0  0  0  0  0  0  0  0  0  0  0
   55.7244   23.3306   44.7241 H   0  0  0  0  0  0  0  0  0  0  0  0
   56.9445   23.7539   42.5815 H   0  0  0  0  0  0  0  0  0  0  0  0
   58.4735   27.4288   44.1047 H   0  0  0  0  0  0  0  0  0  0  0  0
   60.8120   31.4218   45.4667 H   0  0  0  0  0  0  0  0  0  0  0  0
   60.0458   32.2176   46.8331 H   0  0  0  0  0  0  0  0  0  0  0  0
   61.7395   29.8648   46.8942 H   0  0  0  0  0  0  0  0  0  0  0  0
   60.8502   30.5466   48.2798 H   0  0  0  0  0  0  0  0  0  0  0  0
   60.2833   28.0807   46.7772 H   0  0  0  0  0  0  0  0  0  0  0  0
   59.4659   28.6501   48.2277 H   0  0  0  0  0  0  0  0  0  0  0  0
   61.1655   34.0579   45.5563 H   0  0  0  0  0  0  0  0  0  0  0  0
   63.5040   33.3931   46.1090 H   0  0  0  0  0  0  0  0  0  0  0  0
  1  2  1  0
  2  3  2  0
  2  4  1  0
  4  5  1  0
  5  6  2  0
  6  7  1  0
  7  8  2  0
  8  9  1  0
  9 10  1  0
 10 11  2  0
 10 12  1  0
 12 13  1  0
 13 14  1  0
 14 15  2  0
 15 16  1  0
 16 17  2  0
 16 18  1  0
 18 19  1  0
 19 20  1  0
 20 21  2  0
 21 22  1  0
 22 23  2  0
 23 24  1  0
 24 25  2  0
 18 26  1  0
 26 27  2  0
 27 28  1  0
 28 29  1  0
 29 30  1  0
  8 31  1  0
 31 32  2  0
 32  5  1  0
 27 14  1  0
 25 20  1  0
 30 26  1  0
  1 33  1  0
  1 34  1  0
  1 35  1  0
  4 36  1  0
  6 37  1  0
  7 38  1  0
 12 39  1  0
 12 40  1  0
 19 41  1  0
 19 42  1  0
 21 43  1  0
 22 44  1  0
 23 45  1  0
 25 46  1  0
 28 47  1  0
 28 48  1  0
 29 49  1  0
 29 50  1  0
 30 51  1  0
 30 52  1  0
 31 53  1  0
 32 54  1  0
M  CHG  1   9  -1
M  END
>  <UniqueID>  (24) 
23

>  <SMILES>  (24) 
CC(=O)Nc1ccc([N-]C(=O)CSc2nc(=O)n(Cc3cccnc3)c3c2CCC3)cc1

>  <Energy>  (24) 
71.86535826235021

>  <Genealogy>  (24) 
CC(=O)Nc1ccc([N-]C(=O)CSc2nc(=O)n(Cc3cccnc3)c3c2CCC3)cc1 (protonated)
CC(=O)Nc1ccc([N-]C(=O)CSc2nc(=O)n(Cc3cccnc3)c3c2CCC3)cc1 (3D coordinates assigned)
CC(=O)Nc1ccc([N-]C(=O)CSc2nc(=O)n(Cc3cccnc3)c3c2CCC3)cc1 (nonaromatic ring conformer: 71.86535826235021 kcal/mol)

>  <smiles>  (24) 
CC(=O)Nc1ccc(NC(=O)CSc2nc(=O)n(Cc3cccnc3)c3c2CCC3)cc1

>  <score_type>  (24) 
oracle

>  <origin>  (24) 
adg

>  <m_score__min__energy>  (24) 
-11.4

>  <m_primary>  (24) 
energy

$$$$
24:0
     RDKit          3D

 42 44  0  0  0  0  0  0  0  0999 V2000
   59.8100   27.9459   45.3351 H   0  0  0  0  0  0  0  0  0  0  0  0
   58.7980   27.5710   45.5480 C   0  0  0  0  0  0  0  0  0  0  0  0
   58.4220   26.1960   46.4420 S   0  0  0  0  0  0  0  0  0  0  0  0
   56.7700   26.3840   46.2210 C   0  0  0  0  0  0  0  0  0  0  0  0
   55.8870   25.5480   46.6800 N   0  0  0  0  0  0  0  0  0  0  0  0
   55.1860   24.5460   45.9210 C   0  0  0  0  0  0  0  0  0  0  0  0
   53.9300   24.4560   45.9850 O   0  0  0  0  0  0  0  0  0  0  0  0
   55.9470   23.6270   45.0400 C   0  0  0  0  0  0  0  0  0  0  0  0
   55.5760   23.4620   43.6920 C   0  0  0  0  0  0  0  0  0  0  0  0
   54.7328   24.0376   43.2825 H   0  0  0  0  0  0  0  0  0  0  0  0
   56.2730   22.5710   42.8710 C   0  0  0  0  0  0  0  0  0  0  0  0
   55.9684   22.4384   41.8224 H   0  0  0  0  0  0  0  0  0  0  0  0
   57.3560   21.8480   43.3790 C   0  0  0  0  0  0  0  0  0  0  0  0
   57.9060   21.1520   42.7286 H   0  0  0  0  0  0  0  0  0  0  0  0
   57.7400   22.0090   44.7120 C   0  0  0  0  0  0  0  0  0  0  0  0
   58.5946   21.4424   45.1104 H   0  0  0  0  0  0  0  0  0  0  0  0
   57.0370   22.8920   45.5420 C   0  0  0  0  0  0  0  0  0  0  0  0
   57.3390   23.0115   46.5929 H   0  0  0  0  0  0  0  0  0  0  0  0
   56.4760   27.4790   45.4830 N   0  0  0  0  0  0  0  0  0  0  0  0
   57.6010   28.1540   45.1230 C   0  0  0  0  0  0  0  0  0  0  0  0
   57.5300   29.3890   44.2710 C   0  0  0  0  0  0  0  0  0  0  0  0
   57.5796   29.0952   43.2121 H   0  0  0  0  0  0  0  0  0  0  0  0
   58.3752   30.0400   44.5389 H   0  0  0  0  0  0  0  0  0  0  0  0
   56.2610   30.1500   44.5050 C   0  0  0  0  0  0  0  0  0  0  0  0
   55.1790   29.5280   44.6910 O   0  0  0  0  0  0  0  0  0  0  0  0
   56.2950   31.5470   44.5290 O   0  0  0  0  0  0  0  0  0  0  0  0
   57.4840   32.2930   44.2890 C   0  0  0  0  0  0  0  0  0  0  0  0
   58.3595   31.6640   44.5077 H   0  0  0  0  0  0  0  0  0  0  0  0
   57.5066   32.6089   43.2356 H   0  0  0  0  0  0  0  0  0  0  0  0
   57.5120   33.5100   45.1710 C   0  0  0  0  0  0  0  0  0  0  0  0
   56.7800   34.4950   44.8770 O   0  0  0  0  0  0  0  0  0  0  0  0
   58.4100   33.5970   46.3520 C   0  0  0  0  0  0  0  0  0  0  0  0
   58.1900   32.7700   47.4670 C   0  0  0  0  0  0  0  0  0  0  0  0
   57.3520   32.0575   47.4605 H   0  0  0  0  0  0  0  0  0  0  0  0
   59.0260   32.8450   48.5830 C   0  0  0  0  0  0  0  0  0  0  0  0
   58.8510   32.1863   49.4464 H   0  0  0  0  0  0  0  0  0  0  0  0
   60.0840   33.7560   48.6030 C   0  0  0  0  0  0  0  0  0  0  0  0
   60.8930   33.8300   49.6880 F   0  0  0  0  0  0  0  0  0  0  0  0
   60.3080   34.5900   47.5040 C   0  0  0  0  0  0  0  0  0  0  0  0
   61.1406   35.3087   47.5220 H   0  0  0  0  0  0  0  0  0  0  0  0
   59.4790   34.5140   46.3840 C   0  0  0  0  0  0  0  0  0  0  0  0
   59.6610   35.1730   45.5223 H   0  0  0  0  0  0  0  0  0  0  0  0
  1  2  1  0
  2  3  1  0
  3  4  1  0
  4  5  2  0
  5  6  1  0
  6  7  2  0
  6  8  1  0
  8  9  2  0
  9 10  1  0
  9 11  1  0
 11 12  1  0
 11 13  2  0
 13 14  1  0
 13 15  1  0
 15 16  1  0
 15 17  2  0
 17 18  1  0
  4 19  1  0
 19 20  1  0
 20 21  1  0
 21 22  1  0
 21 23  1  0
 21 24  1  0
 24 25  2  0
 24 26  1  0
 26 27  1  0
 27 28  1  0
 27 29  1  0
 27 30  1  0
 30 31  2  0
 30 32  1  0
 32 33  2  0
 33 34  1  0
 33 35  1  0
 35 36  1  0
 35 37  2  0
 37 38  1  0
 37 39  1  0
 39 40  1  0
 39 41  2  0
 41 42  1  0
 20  2  2  0
 41 32  1  0
 17  8  1  0
M  CHG  1  19  -1
M  END
>  <UniqueID>  (25) 
24

>  <SMILES>  (25) 
O=C(Cc1cs/c(=N/C(=O)c2ccccc2)[n-]1)OCC(=O)c1ccc(F)cc1

>  <Energy>  (25) 
76.27023607464183

>  <Genealogy>  (25) 
O=C(Cc1csc(=NC(=O)c2ccccc2)[n-]1)OCC(=O)c1ccc(F)cc1 (protonated)
O=C(Cc1cs/c(=N/C(=O)c2ccccc2)[n-]1)OCC(=O)c1ccc(F)cc1 (cis-trans isomerization)
O=C(Cc1cs/c(=N/C(=O)c2ccccc2)[n-]1)OCC(=O)c1ccc(F)cc1 (3D coordinates assigned)
O=C(Cc1cs/c(=N/C(=O)c2ccccc2)[n-]1)OCC(=O)c1ccc(F)cc1 (optimized conformer: 76.27023607464183 kcal/mol)

>  <smiles>  (25) 
O=C(Cc1csc(=NC(=O)c2ccccc2)[nH]1)OCC(=O)c1ccc(F)cc1

>  <score_type>  (25) 
oracle

>  <origin>  (25) 
adg

>  <m_score__min__energy>  (25) 
-11.130000000000001

>  <m_primary>  (25) 
energy

$$$$
25:0
     RDKit          3D

 58 61  0  0  0  0  0  0  0  0999 V2000
   51.3030   32.2980   51.1180 N   0  0  0  0  0  0  0  0  0  0  0  0
   51.7360   30.6380   51.3270 S   0  0  0  0  0  0  0  0  0  0  0  0
   50.7340   29.9820   52.2360 O   0  0  0  0  0  0  0  0  0  0  0  0
   51.7150   29.9380   49.9970 O   0  0  0  0  0  0  0  0  0  0  0  0
   53.3530   30.5330   52.0230 C   0  0  0  0  0  0  0  0  0  0  0  0
   54.2780   31.5700   51.8250 C   0  0  0  0  0  0  0  0  0  0  0  0
   55.5650   31.4810   52.3650 C   0  0  0  0  0  0  0  0  0  0  0  0
   56.4410   32.4960   52.1490 F   0  0  0  0  0  0  0  0  0  0  0  0
   55.9440   30.3510   53.1130 C   0  0  0  0  0  0  0  0  0  0  0  0
   57.3440   30.2190   53.6540 C   0  0  0  0  0  0  0  0  0  0  0  0
   58.2370   29.6020   52.6120 C   0  0  0  0  0  0  0  0  0  0  0  0
   58.5050   28.3740   52.7050 O   0  0  0  0  0  0  0  0  0  0  0  0
   58.7280   30.3580   51.4840 N   0  0  0  0  0  0  0  0  0  0  0  0
   59.0910   31.7760   51.6490 C   0  0  0  0  0  0  0  0  0  0  0  0
   59.7750   32.3310   50.3940 C   0  0  0  0  0  0  0  0  0  0  0  0
   58.9190   32.0030   49.1480 C   0  0  0  0  0  0  0  0  0  0  0  0
   59.4300   32.6170   47.8850 N   0  0  2  0  0  0  0  0  0  0  0  0
   60.4910   33.6480   48.1150 C   0  0  0  0  0  0  0  0  0  0  0  0
   61.3110   34.1410   46.9280 C   0  0  0  0  0  0  0  0  0  0  0  0
   61.9600   33.2400   47.9690 C   0  0  0  0  0  0  0  0  0  0  0  0
   58.1290   32.9880   46.7490 S   0  0  0  0  0  0  0  0  0  0  0  0
   58.5290   34.1470   45.8790 O   0  0  0  0  0  0  0  0  0  0  0  0
   56.8460   33.3310   47.4540 O   0  0  0  0  0  0  0  0  0  0  0  0
   57.8190   31.6290   45.6800 C   0  0  0  0  0  0  0  0  0  0  0  0
   57.2180   31.7060   44.4340 C   0  0  0  0  0  0  0  0  0  0  0  0
   57.1960   30.4720   43.7710 C   0  0  0  0  0  0  0  0  0  0  0  0
   56.6360   30.3000   42.4690 N   0  0  0  0  0  0  0  0  0  0  0  0
   57.7800   29.4310   44.4850 C   0  0  0  0  0  0  0  0  0  0  0  0
   58.3310   30.0490   45.9490 S   0  0  0  0  0  0  0  0  0  0  0  0
   58.6570   30.4700   49.0070 C   0  0  0  0  0  0  0  0  0  0  0  0
   59.0750   29.6530   50.2400 C   0  0  0  0  0  0  0  0  0  0  0  0
   55.0180   29.3120   53.2990 C   0  0  0  0  0  0  0  0  0  0  0  0
   53.7310   29.4030   52.7630 C   0  0  0  0  0  0  0  0  0  0  0  0
   52.8570   28.3840   52.9630 F   0  0  0  0  0  0  0  0  0  0  0  0
   50.2860   32.3230   50.8790 H   0  0  0  0  0  0  0  0  0  0  0  0
   53.9892   32.4571   51.2422 H   0  0  0  0  0  0  0  0  0  0  0  0
   57.7279   31.2148   53.9206 H   0  0  0  0  0  0  0  0  0  0  0  0
   57.3294   29.5762   54.5465 H   0  0  0  0  0  0  0  0  0  0  0  0
   58.1785   32.3579   51.8456 H   0  0  0  0  0  0  0  0  0  0  0  0
   59.7956   31.8561   52.4899 H   0  0  0  0  0  0  0  0  0  0  0  0
   59.8822   33.4218   50.4876 H   0  0  0  0  0  0  0  0  0  0  0  0
   60.7684   31.8711   50.2859 H   0  0  0  0  0  0  0  0  0  0  0  0
   57.9449   32.4834   49.3220 H   0  0  0  0  0  0  0  0  0  0  0  0
   59.9370   31.8460   47.3900 H   0  0  0  0  0  0  0  0  0  0  0  0
   59.8892   34.1302   48.8994 H   0  0  0  0  0  0  0  0  0  0  0  0
   61.1042   33.7540   45.9193 H   0  0  0  0  0  0  0  0  0  0  0  0
   61.5443   35.1284   46.5029 H   0  0  0  0  0  0  0  0  0  0  0  0
   62.2201   32.2022   47.7132 H   0  0  0  0  0  0  0  0  0  0  0  0
   62.8534   33.3061   48.6074 H   0  0  0  0  0  0  0  0  0  0  0  0
   56.8039   32.6336   44.0119 H   0  0  0  0  0  0  0  0  0  0  0  0
   57.2220   30.4460   41.6190 H   0  0  0  0  0  0  0  0  0  0  0  0
   55.6270   30.0580   42.3520 H   0  0  0  0  0  0  0  0  0  0  0  0
   57.8664   28.3866   44.1508 H   0  0  0  0  0  0  0  0  0  0  0  0
   57.5811   30.3162   48.8376 H   0  0  0  0  0  0  0  0  0  0  0  0
   59.2706   30.1163   48.1654 H   0  0  0  0  0  0  0  0  0  0  0  0
   58.5575   28.6826   50.2205 H   0  0  0  0  0  0  0  0  0  0  0  0
   60.1653   29.5098   50.2115 H   0  0  0  0  0  0  0  0  0  0  0  0
   55.3083   28.4188   53.8716 H   0  0  0  0  0  0  0  0  0  0  0  0
  1  2  1  0
  2  3  2  0
  2  4  2  0
  2  5  1  0
  5  6  2  0
  6  7  1  0
  7  8  1  0
  7  9  2  0
  9 10  1  0
 10 11  1  0
 11 12  2  0
 11 13  1  0
 13 14  1  0
 14 15  1  0
 15 16  1  0
 16 17  1  0
 17 18  1  0
 18 19  1  0
 19 20  1  0
 17 21  1  0
 21 22  2  0
 21 23  2  0
 21 24  1  0
 24 25  2  0
 25 26  1  0
 26 27  1  0
 26 28  2  0
 28 29  1  0
 16 30  1  0
 30 31  1  0
  9 32  1  0
 32 33  2  0
 33 34  1  0
 33  5  1  0
 31 13  1  0
 20 18  1  0
 29 24  1  0
  1 35  1  0
  6 36  1  0
 10 37  1  0
 10 38  1  0
 14 39  1  0
 14 40  1  0
 15 41  1  0
 15 42  1  0
 16 43  1  0
 17 44  1  6
 18 45  1  0
 19 46  1  0
 19 47  1  0
 20 48  1  0
 20 49  1  0
 25 50  1  0
 27 51  1  0
 27 52  1  0
 28 53  1  0
 30 54  1  0
 30 55  1  0
 31 56  1  0
 31 57  1  0
 32 58  1  0
M  CHG  2   1  -1  17   1
M  END
>  <UniqueID>  (26) 
25

>  <SMILES>  (26) 
[NH-]S(=O)(=O)c1cc(F)c(CC(=O)N2CCC([N@H+](C3CC3)S(=O)(=O)c3cc(N)cs3)CC2)cc1F

>  <Energy>  (26) 
371.36328053318823

>  <Genealogy>  (26) 
[NH-]S(=O)(=O)c1cc(F)c(CC(=O)N2CCC([NH+](C3CC3)S(=O)(=O)c3cc(N)cs3)CC2)cc1F (protonated)
[NH-]S(=O)(=O)c1cc(F)c(CC(=O)N2CCC([N@H+](C3CC3)S(=O)(=O)c3cc(N)cs3)CC2)cc1F (chirality)
[NH-]S(=O)(=O)c1cc(F)c(CC(=O)N2CCC([N@H+](C3CC3)S(=O)(=O)c3cc(N)cs3)CC2)cc1F (3D coordinates assigned)
[NH-]S(=O)(=O)c1cc(F)c(CC(=O)N2CCC([N@H+](C3CC3)S(=O)(=O)c3cc(N)cs3)CC2)cc1F (nonaromatic ring conformer: 371.36328053318823 kcal/mol)

>  <smiles>  (26) 
Nc1csc(S(=O)(=O)N(C2CC2)C2CCN(C(=O)Cc3cc(F)c(S(N)(=O)=O)cc3F)CC2)c1

>  <score_type>  (26) 
oracle

>  <origin>  (26) 
adg

>  <m_score__min__energy>  (26) 
-11.300000000000001

>  <m_primary>  (26) 
energy

$$$$
26:0
     RDKit          3D

 51 53  0  0  0  0  0  0  0  0999 V2000
   55.9210   30.0940   43.8250 C   0  0  0  0  0  0  0  0  0  0  0  0
   56.5450   30.8270   44.8260 O   0  0  0  0  0  0  0  0  0  0  0  0
   57.6380   31.5250   44.3220 C   0  0  0  0  0  0  0  0  0  0  0  0
   58.1400   32.5040   45.3160 C   0  0  0  0  0  0  0  0  0  0  0  0
   58.6920   33.6790   44.8460 C   0  0  0  0  0  0  0  0  0  0  0  0
   59.1540   34.5690   45.7910 C   0  0  0  0  0  0  0  0  0  0  0  0
   59.0780   34.3210   47.1250 C   0  0  0  0  0  0  0  0  0  0  0  0
   58.5230   33.1390   47.6320 C   0  0  0  0  0  0  0  0  0  0  0  0
   58.5040   32.9450   49.0140 N   0  0  0  0  0  0  0  0  0  0  0  0
   59.4060   33.4400   49.9670 C   0  0  0  0  0  0  0  0  0  0  0  0
   60.3890   34.1380   49.6430 O   0  0  0  0  0  0  0  0  0  0  0  0
   59.2330   33.1560   51.4370 C   0  0  0  0  0  0  0  0  0  0  0  0
   58.2320   32.1020   51.6200 N   0  0  0  0  0  0  0  0  0  0  0  0
   57.0460   32.4790   52.3800 C   0  0  0  0  0  0  0  0  0  0  0  0
   58.3960   30.7930   51.0930 C   0  0  0  0  0  0  0  0  0  0  0  0
   57.4440   29.9890   51.0880 O   0  0  0  0  0  0  0  0  0  0  0  0
   59.7260   30.4320   50.5600 C   0  0  0  0  0  0  0  0  0  0  0  0
   59.6890   29.9950   49.1470 C   0  0  0  0  0  0  0  0  0  0  0  0
   60.7440   30.4100   48.3770 N   0  0  0  0  0  0  0  0  0  0  0  0
   60.8810   30.0890   47.0880 C   0  0  0  0  0  0  0  0  0  0  0  0
   61.8860   30.5080   46.4310 O   0  0  0  0  0  0  0  0  0  0  0  0
   59.9080   29.3020   46.5120 C   0  0  0  0  0  0  0  0  0  0  0  0
   60.0610   28.9710   45.1910 C   0  0  0  0  0  0  0  0  0  0  0  0
   59.1180   28.1810   44.5780 C   0  0  0  0  0  0  0  0  0  0  0  0
   58.0540   27.7600   45.3500 C   0  0  0  0  0  0  0  0  0  0  0  0
   57.9000   28.0930   46.6780 C   0  0  0  0  0  0  0  0  0  0  0  0
   58.8560   28.8970   47.3020 C   0  0  0  0  0  0  0  0  0  0  0  0
   58.7340   29.2310   48.6070 N   0  0  0  0  0  0  0  0  0  0  0  0
   58.0650   32.2570   46.6840 C   0  0  0  0  0  0  0  0  0  0  0  0
   55.2717   29.3313   44.2796 H   0  0  0  0  0  0  0  0  0  0  0  0
   55.3146   30.7673   43.2013 H   0  0  0  0  0  0  0  0  0  0  0  0
   56.6824   29.6029   43.2013 H   0  0  0  0  0  0  0  0  0  0  0  0
   58.4406   30.8128   44.0799 H   0  0  0  0  0  0  0  0  0  0  0  0
   57.3238   32.0685   43.4187 H   0  0  0  0  0  0  0  0  0  0  0  0
   58.7597   33.8942   43.7694 H   0  0  0  0  0  0  0  0  0  0  0  0
   59.6010   35.5156   45.4530 H   0  0  0  0  0  0  0  0  0  0  0  0
   59.4647   35.0725   47.8291 H   0  0  0  0  0  0  0  0  0  0  0  0
   57.7120   32.3460   49.4120 H   0  0  0  0  0  0  0  0  0  0  0  0
   60.1929   32.8268   51.8616 H   0  0  0  0  0  0  0  0  0  0  0  0
   58.8980   34.0704   51.9485 H   0  0  0  0  0  0  0  0  0  0  0  0
   57.2629   32.4101   53.4562 H   0  0  0  0  0  0  0  0  0  0  0  0
   56.7623   33.5116   52.1286 H   0  0  0  0  0  0  0  0  0  0  0  0
   56.2181   31.7997   52.1286 H   0  0  0  0  0  0  0  0  0  0  0  0
   60.3837   31.3104   50.6371 H   0  0  0  0  0  0  0  0  0  0  0  0
   60.0972   29.5842   51.1546 H   0  0  0  0  0  0  0  0  0  0  0  0
   60.9317   29.3347   44.6257 H   0  0  0  0  0  0  0  0  0  0  0  0
   59.2073   27.8968   43.5191 H   0  0  0  0  0  0  0  0  0  0  0  0
   57.2885   27.1250   44.8801 H   0  0  0  0  0  0  0  0  0  0  0  0
   57.0297   27.7279   47.2430 H   0  0  0  0  0  0  0  0  0  0  0  0
   57.9370   28.9170   49.1880 H   0  0  0  0  0  0  0  0  0  0  0  0
   57.6177   31.3105   47.0217 H   0  0  0  0  0  0  0  0  0  0  0  0
  1  2  1  0
  2  3  1  0
  3  4  1  0
  4  5  2  0
  5  6  1  0
  6  7  2  0
  7  8  1  0
  8  9  1  0
  9 10  1  0
 10 11  2  0
 10 12  1  0
 12 13  1  0
 13 14  1  0
 13 15  1  0
 15 16  2  0
 15 17  1  0
 17 18  1  0
 18 19  2  0
 19 20  1  0
 20 21  2  0
 20 22  1  0
 22 23  2  0
 23 24  1  0
 24 25  2  0
 25 26  1  0
 26 27  2  0
 27 28  1  0
  8 29  2  0
 29  4  1  0
 28 18  1  0
 27 22  1  0
  1 30  1  0
  1 31  1  0
  1 32  1  0
  3 33  1  0
  3 34  1  0
  5 35  1  0
  6 36  1  0
  7 37  1  0
  9 38  1  0
 12 39  1  0
 12 40  1  0
 14 41  1  0
 14 42  1  0
 14 43  1  0
 17 44  1  0
 17 45  1  0
 23 46  1  0
 24 47  1  0
 25 48  1  0
 26 49  1  0
 28 50  1  0
 29 51  1  0
M  END
>  <smiles>  (27) 
COCc1cccc(NC(=O)CN(C)C(=O)Cc2nc(=O)c3ccccc3[nH]2)c1

>  <score_type>  (27) 
oracle

>  <origin>  (27) 
adg

>  <m_score__min__energy>  (27) 
-9.2300000000000004

>  <m_primary>  (27) 
energy

$$$$
27:0
     RDKit          3D

 68 71  0  0  0  0  0  0  0  0999 V2000
   55.9720   30.0650   43.5600 C   0  0  0  0  0  0  0  0  0  0  0  0
   56.3660   30.3340   44.9030 O   0  0  0  0  0  0  0  0  0  0  0  0
   57.6960   30.3800   45.3540 C   0  0  0  0  0  0  0  0  0  0  0  0
   58.3100   31.6010   45.7030 C   0  0  0  0  0  0  0  0  0  0  0  0
   59.6190   31.6270   46.1850 C   0  0  0  0  0  0  0  0  0  0  0  0
   60.3420   30.4390   46.3190 C   0  0  0  0  0  0  0  0  0  0  0  0
   61.6550   30.4490   46.8000 O   0  0  0  0  0  0  0  0  0  0  0  0
   62.2400   31.5180   47.4980 C   0  0  0  0  0  0  0  0  0  0  0  0
   62.3590   32.8080   46.9450 C   0  0  0  0  0  0  0  0  0  0  0  0
   62.9060   33.8470   47.7000 C   0  0  0  0  0  0  0  0  0  0  0  0
   63.3180   33.6220   49.0150 C   0  0  0  0  0  0  0  0  0  0  0  0
   63.1830   32.3460   49.5910 C   0  0  0  0  0  0  0  0  0  0  0  0
   63.6440   32.1040   51.0160 C   0  0  0  0  0  0  0  0  0  0  0  0
   63.6110   30.6870   51.5020 N   0  0  1  0  0  0  0  0  0  0  0  0
   64.6860   30.2570   52.4330 C   0  0  0  0  0  0  0  0  0  0  0  0
   65.5620   29.1510   51.8780 C   0  0  0  0  0  0  0  0  0  0  0  0
   65.2030   27.7990   52.0230 C   0  0  0  0  0  0  0  0  0  0  0  0
   66.0340   26.7910   51.5210 C   0  0  0  0  0  0  0  0  0  0  0  0
   67.2370   27.1190   50.8930 C   0  0  0  0  0  0  0  0  0  0  0  0
   67.6210   28.4560   50.7780 C   0  0  0  0  0  0  0  0  0  0  0  0
   66.7970   29.4680   51.2830 C   0  0  0  0  0  0  0  0  0  0  0  0
   62.0450   30.3100   52.1970 S   0  0  0  0  0  0  0  0  0  0  0  0
   61.9200   28.8160   52.3270 O   0  0  0  0  0  0  0  0  0  0  0  0
   61.9510   30.8840   53.5830 O   0  0  0  0  0  0  0  0  0  0  0  0
   60.7060   30.9080   51.1970 C   0  0  0  0  0  0  0  0  0  0  0  0
   60.2160   32.2030   51.4360 C   0  0  0  0  0  0  0  0  0  0  0  0
   59.1300   32.6990   50.7140 C   0  0  0  0  0  0  0  0  0  0  0  0
   58.5220   31.9120   49.7350 C   0  0  0  0  0  0  0  0  0  0  0  0
   59.0120   30.6330   49.4660 C   0  0  0  0  0  0  0  0  0  0  0  0
   60.1020   30.1230   50.1850 C   0  0  0  0  0  0  0  0  0  0  0  0
   60.6580   28.5000   49.7730 Cl  0  0  0  0  0  0  0  0  0  0  0  0
   62.6670   31.2960   48.8110 C   0  0  0  0  0  0  0  0  0  0  0  0
   59.7600   29.2220   45.9530 C   0  0  0  0  0  0  0  0  0  0  0  0
   60.5040   28.0890   46.0690 F   0  0  0  0  0  0  0  0  0  0  0  0
   58.4270   29.1730   45.4830 C   0  0  0  0  0  0  0  0  0  0  0  0
   57.8010   27.8640   45.1650 C   0  0  0  0  0  0  0  0  0  0  0  0
   58.4260   27.0070   44.4810 O   0  0  0  0  0  0  0  0  0  0  0  0
   56.4720   27.5800   45.6150 N   0  0  0  0  0  0  0  0  0  0  0  0
   55.8970   25.9730   45.9100 S   0  0  0  0  0  0  0  0  0  0  0  0
   56.6130   24.8720   44.7110 C   0  0  0  0  0  0  0  0  0  0  0  0
   54.4010   25.9290   45.7940 O   0  0  0  0  0  0  0  0  0  0  0  0
   56.3090   25.5360   47.2880 O   0  0  0  0  0  0  0  0  0  0  0  0
   55.0635   29.4448   43.5616 H   0  0  0  0  0  0  0  0  0  0  0  0
   55.7678   31.0131   43.0409 H   0  0  0  0  0  0  0  0  0  0  0  0
   56.7806   29.5296   43.0409 H   0  0  0  0  0  0  0  0  0  0  0  0
   57.7511   32.5422   45.5940 H   0  0  0  0  0  0  0  0  0  0  0  0
   60.0831   32.5855   46.4603 H   0  0  0  0  0  0  0  0  0  0  0  0
   62.0201   32.9971   45.9157 H   0  0  0  0  0  0  0  0  0  0  0  0
   63.0130   34.8480   47.2567 H   0  0  0  0  0  0  0  0  0  0  0  0
   63.7497   34.4456   49.6026 H   0  0  0  0  0  0  0  0  0  0  0  0
   64.6819   32.4597   51.0956 H   0  0  0  0  0  0  0  0  0  0  0  0
   62.9239   32.6436   51.6486 H   0  0  0  0  0  0  0  0  0  0  0  0
   63.6630   30.0690   50.6590 H   0  0  0  0  0  0  0  0  0  0  0  0
   65.3222   31.1264   52.6551 H   0  0  0  0  0  0  0  0  0  0  0  0
   64.1939   29.8586   53.3325 H   0  0  0  0  0  0  0  0  0  0  0  0
   64.2654   27.5328   52.5330 H   0  0  0  0  0  0  0  0  0  0  0  0
   65.7382   25.7363   51.6216 H   0  0  0  0  0  0  0  0  0  0  0  0
   67.8817   26.3244   50.4892 H   0  0  0  0  0  0  0  0  0  0  0  0
   68.5723   28.7144   50.2899 H   0  0  0  0  0  0  0  0  0  0  0  0
   67.1169   30.5182   51.2144 H   0  0  0  0  0  0  0  0  0  0  0  0
   60.6939   32.8328   52.2008 H   0  0  0  0  0  0  0  0  0  0  0  0
   58.7524   33.7121   50.9168 H   0  0  0  0  0  0  0  0  0  0  0  0
   57.6575   32.2992   49.1759 H   0  0  0  0  0  0  0  0  0  0  0  0
   58.5393   30.0207   48.6840 H   0  0  0  0  0  0  0  0  0  0  0  0
   62.5982   30.2854   49.2398 H   0  0  0  0  0  0  0  0  0  0  0  0
   57.1418   24.0588   45.2297 H   0  0  0  0  0  0  0  0  0  0  0  0
   55.8171   24.4484   44.0808 H   0  0  0  0  0  0  0  0  0  0  0  0
   57.3230   25.4277   44.0808 H   0  0  0  0  0  0  0  0  0  0  0  0
  1  2  1  0
  2  3  1  0
  3  4  2  0
  4  5  1  0
  5  6  2  0
  6  7  1  0
  7  8  1  0
  8  9  2  0
  9 10  1  0
 10 11  2  0
 11 12  1  0
 12 13  1  0
 13 14  1  0
 14 15  1  0
 15 16  1  0
 16 17  2  0
 17 18  1  0
 18 19  2  0
 19 20  1  0
 20 21  2  0
 14 22  1  0
 22 23  2  0
 22 24  2  0
 22 25  1  0
 25 26  2  0
 26 27  1  0
 27 28  2  0
 28 29  1  0
 29 30  2  0
 30 31  1  0
 12 32  2  0
  6 33  1  0
 33 34  1  0
 33 35  2  0
 35 36  1  0
 36 37  2  0
 36 38  1  0
 38 39  1  0
 39 40  1  0
 39 41  2  0
 39 42  2  0
 35  3  1  0
 32  8  1  0
 21 16  1  0
 30 25  1  0
  1 43  1  0
  1 44  1  0
  1 45  1  0
  4 46  1  0
  5 47  1  0
  9 48  1  0
 10 49  1  0
 11 50  1  0
 13 51  1  0
 13 52  1  0
 14 53  1  6
 15 54  1  0
 15 55  1  0
 17 56  1  0
 18 57  1  0
 19 58  1  0
 20 59  1  0
 21 60  1  0
 26 61  1  0
 27 62  1  0
 28 63  1  0
 29 64  1  0
 32 65  1  0
 40 66  1  0
 40 67  1  0
 40 68  1  0
M  CHG  2  14   1  38  -1
M  END
>  <UniqueID>  (28) 
26

>  <SMILES>  (28) 
COc1ccc(Oc2cccc(C[N@@H+](Cc3ccccc3)S(=O)(=O)c3ccccc3Cl)c2)c(F)c1C(=O)[N-]S(C)(=O)=O

>  <Energy>  (28) 
91.42363799427723

>  <Genealogy>  (28) 
COc1ccc(Oc2cccc(C[NH+](Cc3ccccc3)S(=O)(=O)c3ccccc3Cl)c2)c(F)c1C(=O)[N-]S(C)(=O)=O (protonated)
COc1ccc(Oc2cccc(C[N@@H+](Cc3ccccc3)S(=O)(=O)c3ccccc3Cl)c2)c(F)c1C(=O)[N-]S(C)(=O)=O (chirality)
COc1ccc(Oc2cccc(C[N@@H+](Cc3ccccc3)S(=O)(=O)c3ccccc3Cl)c2)c(F)c1C(=O)[N-]S(C)(=O)=O (3D coordinates assigned)
COc1ccc(Oc2cccc(C[N@@H+](Cc3ccccc3)S(=O)(=O)c3ccccc3Cl)c2)c(F)c1C(=O)[N-]S(C)(=O)=O (optimized conformer: 91.42363799427723 kcal/mol)

>  <smiles>  (28) 
COc1ccc(Oc2cccc(CN(Cc3ccccc3)S(=O)(=O)c3ccccc3Cl)c2)c(F)c1C(=O)NS(C)(=O)=O

>  <score_type>  (28) 
oracle

>  <origin>  (28) 
adg

>  <m_score__min__energy>  (28) 
-11.51

>  <m_primary>  (28) 
energy

$$$$
28:0
     RDKit          3D

 39 41  0  0  0  0  0  0  0  0999 V2000
   55.7340   29.4320   44.8500 N   0  0  0  0  0  0  0  0  0  0  0  0
   56.7590   28.1240   45.3220 S   0  0  0  0  0  0  0  0  0  0  0  0
   55.9390   27.0580   45.9890 O   0  0  0  0  0  0  0  0  0  0  0  0
   57.4120   27.5520   44.0940 O   0  0  0  0  0  0  0  0  0  0  0  0
   57.9840   28.7080   46.4430 C   0  0  0  0  0  0  0  0  0  0  0  0
   58.6400   27.8220   47.3060 C   0  0  0  0  0  0  0  0  0  0  0  0
   59.6230   28.2940   48.1810 C   0  0  0  0  0  0  0  0  0  0  0  0
   59.9700   29.6500   48.1970 C   0  0  0  0  0  0  0  0  0  0  0  0
   61.0340   30.0700   49.0650 N   0  0  0  0  0  0  0  0  0  0  0  0
   61.1230   31.3120   49.7760 C   0  0  0  0  0  0  0  0  0  0  0  0
   60.1030   31.8490   50.2840 O   0  0  0  0  0  0  0  0  0  0  0  0
   62.4180   32.0070   49.8570 C   0  0  0  0  0  0  0  0  0  0  0  0
   63.5450   31.2350   50.1730 C   0  0  0  0  0  0  0  0  0  0  0  0
   64.7600   31.8490   50.4670 C   0  0  0  0  0  0  0  0  0  0  0  0
   64.8420   33.2380   50.4520 C   0  0  0  0  0  0  0  0  0  0  0  0
   63.7590   33.9800   50.1050 N   0  0  0  0  0  0  0  0  0  0  0  0
   62.5610   33.4260   49.7720 C   0  0  0  0  0  0  0  0  0  0  0  0
   61.6180   34.2390   49.3700 N   0  0  0  0  0  0  0  0  0  0  0  0
   60.7070   34.0770   48.2710 C   0  0  0  0  0  0  0  0  0  0  0  0
   59.3220   34.0740   48.4980 C   0  0  0  0  0  0  0  0  0  0  0  0
   58.4330   33.9540   47.4270 C   0  0  0  0  0  0  0  0  0  0  0  0
   58.9210   33.8120   46.1250 C   0  0  0  0  0  0  0  0  0  0  0  0
   57.8030   33.7120   44.7770 Cl  0  0  0  0  0  0  0  0  0  0  0  0
   60.3000   33.7580   45.8990 C   0  0  0  0  0  0  0  0  0  0  0  0
   61.1970   33.8750   46.9700 C   0  0  0  0  0  0  0  0  0  0  0  0
   62.9250   33.8290   46.6550 Cl  0  0  0  0  0  0  0  0  0  0  0  0
   59.2780   30.5450   47.3600 C   0  0  0  0  0  0  0  0  0  0  0  0
   58.2950   30.0720   46.4850 C   0  0  0  0  0  0  0  0  0  0  0  0
   54.7550   29.0700   44.8560 H   0  0  0  0  0  0  0  0  0  0  0  0
   58.3816   26.7528   47.2956 H   0  0  0  0  0  0  0  0  0  0  0  0
   60.1280   27.5938   48.8627 H   0  0  0  0  0  0  0  0  0  0  0  0
   63.4691   30.1377   50.1888 H   0  0  0  0  0  0  0  0  0  0  0  0
   65.6453   31.2424   50.7085 H   0  0  0  0  0  0  0  0  0  0  0  0
   65.7853   33.7355   50.7216 H   0  0  0  0  0  0  0  0  0  0  0  0
   58.9348   34.1665   49.5235 H   0  0  0  0  0  0  0  0  0  0  0  0
   57.3482   33.9713   47.6085 H   0  0  0  0  0  0  0  0  0  0  0  0
   60.6825   33.6231   44.8765 H   0  0  0  0  0  0  0  0  0  0  0  0
   59.5109   31.6195   47.3941 H   0  0  0  0  0  0  0  0  0  0  0  0
   57.7638   30.7752   45.8267 H   0  0  0  0  0  0  0  0  0  0  0  0
  1  2  1  0
  2  3  2  0
  2  4  2  0
  2  5  1  0
  5  6  2  0
  6  7  1  0
  7  8  2  0
  8  9  1  0
  9 10  1  0
 10 11  2  0
 10 12  1  0
 12 13  2  0
 13 14  1  0
 14 15  2  0
 15 16  1  0
 16 17  1  0
 17 18  2  3
 18 19  1  0
 19 20  2  0
 20 21  1  0
 21 22  2  0
 22 23  1  0
 22 24  1  0
 24 25  2  0
 25 26  1  0
  8 27  1  0
 27 28  2  0
 28  5  1  0
 17 12  1  0
 25 19  1  0
  1 29  1  0
  6 30  1  0
  7 31  1  0
 13 32  1  0
 14 33  1  0
 15 34  1  0
 20 35  1  0
 21 36  1  0
 24 37  1  0
 27 38  1  0
 28 39  1  0
M  CHG  3   1  -1   9  -1  16  -1
M  END
>  <UniqueID>  (29) 
27

>  <SMILES>  (29) 
[NH-]S(=O)(=O)c1ccc([N-]C(=O)c2ccc[n-]c2=Nc2ccc(Cl)cc2Cl)cc1

>  <Energy>  (29) 
65.7539668053465

>  <Genealogy>  (29) 
[NH-]S(=O)(=O)c1ccc([N-]C(=O)c2ccc[n-]c2=Nc2ccc(Cl)cc2Cl)cc1 (protonated)
[NH-]S(=O)(=O)c1ccc([N-]C(=O)c2ccc[n-]c2=Nc2ccc(Cl)cc2Cl)cc1 (3D coordinates assigned)
[NH-]S(=O)(=O)c1ccc([N-]C(=O)c2ccc[n-]c2=Nc2ccc(Cl)cc2Cl)cc1 (optimized conformer: 65.7539668053465 kcal/mol)

>  <smiles>  (29) 
NS(=O)(=O)c1ccc(NC(=O)c2ccc[nH]c2=Nc2ccc(Cl)cc2Cl)cc1

>  <score_type>  (29) 
oracle

>  <origin>  (29) 
adg

>  <m_score__min__energy>  (29) 
-13.24

>  <m_primary>  (29) 
energy

$$$$
29:0
     RDKit          3D

 63 67  0  0  0  0  0  0  0  0999 V2000
   56.0530   28.3560   54.0010 C   0  0  0  0  0  0  0  0  0  0  0  0
   55.0350   29.0870   53.1670 C   0  0  0  0  0  0  0  0  0  0  0  0
   53.6860   28.7010   53.2430 C   0  0  0  0  0  0  0  0  0  0  0  0
   52.7180   29.3520   52.4740 C   0  0  0  0  0  0  0  0  0  0  0  0
   53.0860   30.4000   51.6300 C   0  0  0  0  0  0  0  0  0  0  0  0
   54.4190   30.8080   51.5590 C   0  0  0  0  0  0  0  0  0  0  0  0
   55.4030   30.1690   52.3300 C   0  0  0  0  0  0  0  0  0  0  0  0
   56.7600   30.6370   52.2630 N   0  0  0  0  0  0  0  0  0  0  0  0
   57.0850   32.0170   52.6390 C   0  0  0  0  0  0  0  0  0  0  0  0
   58.0420   32.6240   51.6120 C   0  0  0  0  0  0  0  0  0  0  0  0
   59.1740   31.7270   51.3210 N   0  0  0  0  0  0  0  0  0  0  0  0
   60.3370   32.2240   50.6220 C   0  0  0  0  0  0  0  0  0  0  0  0
   61.4480   31.6430   50.7610 O   0  0  0  0  0  0  0  0  0  0  0  0
   60.2620   33.3900   49.6720 C   0  0  0  0  0  0  0  0  0  0  0  0
   59.6830   32.9480   48.3560 C   0  0  0  0  0  0  0  0  0  0  0  0
   58.7720   31.8840   48.3000 C   0  0  0  0  0  0  0  0  0  0  0  0
   58.2300   31.4820   47.0770 C   0  0  0  0  0  0  0  0  0  0  0  0
   58.5530   32.1650   45.8900 C   0  0  0  0  0  0  0  0  0  0  0  0
   57.9790   31.7240   44.5500 C   0  0  0  0  0  0  0  0  0  0  0  0
   58.3520   30.3540   44.1200 N   0  0  1  0  0  0  0  0  0  0  0  0
   59.2250   29.6900   45.0630 C   0  0  0  0  0  0  0  0  0  0  0  0
   60.4040   30.0880   45.2700 O   0  0  0  0  0  0  0  0  0  0  0  0
   58.6720   28.4990   45.7220 C   0  0  0  0  0  0  0  0  0  0  0  0
   59.2500   27.7520   46.7520 C   0  0  0  0  0  0  0  0  0  0  0  0
   58.5430   26.6530   47.2680 C   0  0  0  0  0  0  0  0  0  0  0  0
   57.2780   26.3160   46.7470 C   0  0  0  0  0  0  0  0  0  0  0  0
   56.7170   27.0730   45.7070 C   0  0  0  0  0  0  0  0  0  0  0  0
   57.4400   28.1580   45.2160 C   0  0  0  0  0  0  0  0  0  0  0  0
   56.9920   29.2620   43.9610 S   0  0  0  0  0  0  0  0  0  0  0  0
   55.6610   29.9090   44.2220 O   0  0  0  0  0  0  0  0  0  0  0  0
   57.0050   28.5890   42.6160 O   0  0  0  0  0  0  0  0  0  0  0  0
   59.4920   33.2100   45.9480 C   0  0  0  0  0  0  0  0  0  0  0  0
   60.0400   33.6070   47.1710 C   0  0  0  0  0  0  0  0  0  0  0  0
   59.2020   30.3750   51.9040 C   0  0  0  0  0  0  0  0  0  0  0  0
   57.8180   29.7220   51.8110 C   0  0  0  0  0  0  0  0  0  0  0  0
   55.8343   28.5131   55.0675 H   0  0  0  0  0  0  0  0  0  0  0  0
   56.0104   27.2809   53.7724 H   0  0  0  0  0  0  0  0  0  0  0  0
   57.0582   28.7399   53.7724 H   0  0  0  0  0  0  0  0  0  0  0  0
   53.3899   27.8803   53.9129 H   0  0  0  0  0  0  0  0  0  0  0  0
   51.6655   29.0381   52.5341 H   0  0  0  0  0  0  0  0  0  0  0  0
   52.3240   30.9060   51.0190 H   0  0  0  0  0  0  0  0  0  0  0  0
   54.7009   31.6372   50.8934 H   0  0  0  0  0  0  0  0  0  0  0  0
   56.1611   32.6130   52.6736 H   0  0  0  0  0  0  0  0  0  0  0  0
   57.5659   32.0194   53.6283 H   0  0  0  0  0  0  0  0  0  0  0  0
   57.4898   32.8142   50.6798 H   0  0  0  0  0  0  0  0  0  0  0  0
   58.4450   33.5579   52.0308 H   0  0  0  0  0  0  0  0  0  0  0  0
   59.6226   34.1726   50.1063 H   0  0  0  0  0  0  0  0  0  0  0  0
   61.2753   33.7844   49.5053 H   0  0  0  0  0  0  0  0  0  0  0  0
   58.4824   31.3628   49.2243 H   0  0  0  0  0  0  0  0  0  0  0  0
   57.5439   30.6230   47.0415 H   0  0  0  0  0  0  0  0  0  0  0  0
   56.8821   31.7719   44.6179 H   0  0  0  0  0  0  0  0  0  0  0  0
   58.4045   32.4050   43.7982 H   0  0  0  0  0  0  0  0  0  0  0  0
   58.8400   30.4070   43.1950 H   0  0  0  0  0  0  0  0  0  0  0  0
   60.2396   28.0194   47.1511 H   0  0  0  0  0  0  0  0  0  0  0  0
   58.9784   26.0538   48.0813 H   0  0  0  0  0  0  0  0  0  0  0  0
   56.7280   25.4562   47.1571 H   0  0  0  0  0  0  0  0  0  0  0  0
   55.7319   26.8163   45.2902 H   0  0  0  0  0  0  0  0  0  0  0  0
   59.7981   33.7197   45.0225 H   0  0  0  0  0  0  0  0  0  0  0  0
   60.7558   34.4416   47.2040 H   0  0  0  0  0  0  0  0  0  0  0  0
   59.9304   29.7594   51.3559 H   0  0  0  0  0  0  0  0  0  0  0  0
   59.4899   30.4499   52.9630 H   0  0  0  0  0  0  0  0  0  0  0  0
   57.6248   29.4408   50.7652 H   0  0  0  0  0  0  0  0  0  0  0  0
   57.8097   28.8356   52.4624 H   0  0  0  0  0  0  0  0  0  0  0  0
  1  2  1  0
  2  3  2  0
  3  4  1  0
  4  5  2  0
  5  6  1  0
  6  7  2  0
  7  8  1  0
  8  9  1  0
  9 10  1  0
 10 11  1  0
 11 12  1  0
 12 13  2  0
 12 14  1  0
 14 15  1  0
 15 16  2  0
 16 17  1  0
 17 18  2  0
 18 19  1  0
 19 20  1  0
 20 21  1  0
 21 22  2  0
 21 23  1  0
 23 24  2  0
 24 25  1  0
 25 26  2  0
 26 27  1  0
 27 28  2  0
 28 29  1  0
 29 30  2  0
 29 31  2  0
 18 32  1  0
 32 33  2  0
 11 34  1  0
 34 35  1  0
  7  2  1  0
 35  8  1  0
 33 15  1  0
 29 20  1  0
 28 23  1  0
  1 36  1  0
  1 37  1  0
  1 38  1  0
  3 39  1  0
  4 40  1  0
  5 41  1  0
  6 42  1  0
  9 43  1  0
  9 44  1  0
 10 45  1  0
 10 46  1  0
 14 47  1  0
 14 48  1  0
 16 49  1  0
 17 50  1  0
 19 51  1  0
 19 52  1  0
 20 53  1  6
 24 54  1  0
 25 55  1  0
 26 56  1  0
 27 57  1  0
 32 58  1  0
 33 59  1  0
 34 60  1  0
 34 61  1  0
 35 62  1  0
 35 63  1  0
M  CHG  1  20   1
M  END
>  <UniqueID>  (30) 
28

>  <SMILES>  (30) 
Cc1ccccc1N1CCN(C(=O)Cc2ccc(C[N@H+]3C(=O)c4ccccc4S3(=O)=O)cc2)CC1

>  <Energy>  (30) 
92.12087003428614

>  <Genealogy>  (30) 
Cc1ccccc1N1CCN(C(=O)Cc2ccc(C[NH+]3C(=O)c4ccccc4S3(=O)=O)cc2)CC1 (protonated)
Cc1ccccc1N1CCN(C(=O)Cc2ccc(C[N@H+]3C(=O)c4ccccc4S3(=O)=O)cc2)CC1 (chirality)
Cc1ccccc1N1CCN(C(=O)Cc2ccc(C[N@H+]3C(=O)c4ccccc4S3(=O)=O)cc2)CC1 (3D coordinates assigned)
Cc1ccccc1N1CCN(C(=O)Cc2ccc(C[N@H+]3C(=O)c4ccccc4S3(=O)=O)cc2)CC1 (nonaromatic ring conformer: 92.12087003428614 kcal/mol)

>  <smiles>  (30) 
Cc1ccccc1N1CCN(C(=O)Cc2ccc(CN3C(=O)c4ccccc4S3(=O)=O)cc2)CC1

>  <score_type>  (30) 
oracle

>  <origin>  (30) 
adg

>  <m_score__min__energy>  (30) 
-9.4199999999999999

>  <m_primary>  (30) 
energy

$$$$
30:0
     RDKit          3D

 34 35  0  0  0  0  0  0  0  0999 V2000
   57.3565   28.5355   46.6279 H   0  0  0  0  0  0  0  0  0  0  0  0
   57.1430   28.2700   45.5820 C   0  0  0  0  0  0  0  0  0  0  0  0
   57.7510   27.0280   45.0620 C   0  0  0  0  0  0  0  0  0  0  0  0
   58.9360   27.0730   44.6380 O   0  0  0  0  0  0  0  0  0  0  0  0
   57.0230   25.7090   45.0680 C   0  0  0  0  0  0  0  0  0  0  0  0
   57.7430   24.8994   45.2583 H   0  0  0  0  0  0  0  0  0  0  0  0
   56.5397   25.5660   44.0903 H   0  0  0  0  0  0  0  0  0  0  0  0
   55.9720   25.6930   46.1330 C   0  0  0  0  0  0  0  0  0  0  0  0
   56.1660   25.0610   47.2050 O   0  0  0  0  0  0  0  0  0  0  0  0
   54.7600   26.3390   45.9250 O   0  0  0  0  0  0  0  0  0  0  0  0
   56.3520   29.1020   44.8860 C   0  0  0  0  0  0  0  0  0  0  0  0
   55.2683   28.9166   44.9194 H   0  0  0  0  0  0  0  0  0  0  0  0
   56.8220   30.2480   44.0780 C   0  0  0  0  0  0  0  0  0  0  0  0
   56.5540   30.2420   42.7000 C   0  0  0  0  0  0  0  0  0  0  0  0
   55.9691   29.4204   42.2608 H   0  0  0  0  0  0  0  0  0  0  0  0
   57.0250   31.2720   41.8830 C   0  0  0  0  0  0  0  0  0  0  0  0
   56.8153   31.2560   40.8033 H   0  0  0  0  0  0  0  0  0  0  0  0
   57.7610   32.3210   42.4340 C   0  0  0  0  0  0  0  0  0  0  0  0
   58.1480   33.1207   41.7854 H   0  0  0  0  0  0  0  0  0  0  0  0
   58.0070   32.3570   43.8080 C   0  0  0  0  0  0  0  0  0  0  0  0
   58.5917   33.1843   44.2365 H   0  0  0  0  0  0  0  0  0  0  0  0
   57.5150   31.3480   44.6440 C   0  0  0  0  0  0  0  0  0  0  0  0
   57.7500   31.4570   46.0220 O   0  0  0  0  0  0  0  0  0  0  0  0
   58.6260   32.3790   46.6150 C   0  0  0  0  0  0  0  0  0  0  0  0
   58.1930   33.7000   46.7830 C   0  0  0  0  0  0  0  0  0  0  0  0
   57.1849   33.9915   46.4533 H   0  0  0  0  0  0  0  0  0  0  0  0
   59.0360   34.6510   47.3680 C   0  0  0  0  0  0  0  0  0  0  0  0
   58.6926   35.6889   47.4894 H   0  0  0  0  0  0  0  0  0  0  0  0
   60.3130   34.2840   47.7980 C   0  0  0  0  0  0  0  0  0  0  0  0
   60.9765   35.0336   48.2539 H   0  0  0  0  0  0  0  0  0  0  0  0
   60.7480   32.9640   47.6490 C   0  0  0  0  0  0  0  0  0  0  0  0
   61.7522   32.6744   47.9922 H   0  0  0  0  0  0  0  0  0  0  0  0
   59.9080   32.0110   47.0640 C   0  0  0  0  0  0  0  0  0  0  0  0
   60.2502   30.9713   46.9546 H   0  0  0  0  0  0  0  0  0  0  0  0
  1  2  1  0
  2  3  1  0
  3  4  2  0
  3  5  1  0
  5  6  1  0
  5  7  1  0
  5  8  1  0
  8  9  2  0
  8 10  1  0
  2 11  2  0
 11 12  1  0
 11 13  1  0
 13 14  2  0
 14 15  1  0
 14 16  1  0
 16 17  1  0
 16 18  2  0
 18 19  1  0
 18 20  1  0
 20 21  1  0
 20 22  2  0
 22 23  1  0
 23 24  1  0
 24 25  2  0
 25 26  1  0
 25 27  1  0
 27 28  1  0
 27 29  2  0
 29 30  1  0
 29 31  1  0
 31 32  1  0
 31 33  2  0
 33 34  1  0
 22 13  1  0
 33 24  1  0
M  CHG  1  10  -1
M  END
>  <UniqueID>  (31) 
29

>  <SMILES>  (31) 
O=C([O-])CC(=O)/C=C\c1ccccc1Oc1ccccc1

>  <Energy>  (31) 
49.72559054491099

>  <Genealogy>  (31) 
O=C([O-])CC(=O)C=Cc1ccccc1Oc1ccccc1 (protonated)
O=C([O-])CC(=O)/C=C\c1ccccc1Oc1ccccc1 (cis-trans isomerization)
O=C([O-])CC(=O)/C=C\c1ccccc1Oc1ccccc1 (3D coordinates assigned)
O=C([O-])CC(=O)/C=C\c1ccccc1Oc1ccccc1 (optimized conformer: 49.72559054491099 kcal/mol)

>  <smiles>  (31) 
O=C(O)CC(=O)C=Cc1ccccc1Oc1ccccc1

>  <score_type>  (31) 
oracle

>  <origin>  (31) 
adg

>  <m_score__min__energy>  (31) 
-10.109999999999999

>  <m_primary>  (31) 
energy

$$$$
31:0
     RDKit          3D

 52 54  0  0  0  0  0  0  0  0999 V2000
   55.0850   23.7450   44.3050 C   0  0  0  0  0  0  0  0  0  0  0  0
   54.1370   24.4530   45.6310 S   0  0  0  0  0  0  0  0  0  0  0  0
   54.3220   23.6210   46.8690 O   0  0  0  0  0  0  0  0  0  0  0  0
   52.6880   24.4760   45.2360 O   0  0  0  0  0  0  0  0  0  0  0  0
   54.6990   26.0670   45.9160 N   0  0  0  0  0  0  0  0  0  0  0  0
   56.0710   26.4470   46.0910 C   0  0  0  0  0  0  0  0  0  0  0  0
   56.4900   27.6900   45.6030 C   0  0  0  0  0  0  0  0  0  0  0  0
   57.8220   28.0940   45.7390 C   0  0  0  0  0  0  0  0  0  0  0  0
   58.7470   27.2600   46.3790 C   0  0  0  0  0  0  0  0  0  0  0  0
   60.4320   27.7470   46.5450 S   0  0  0  0  0  0  0  0  0  0  0  0
   60.9780   28.1440   45.2010 O   0  0  0  0  0  0  0  0  0  0  0  0
   61.2570   26.6040   47.0690 O   0  0  0  0  0  0  0  0  0  0  0  0
   60.5240   29.1080   47.6550 C   0  0  0  0  0  0  0  0  0  0  0  0
   59.6340   29.1870   48.7340 C   0  0  0  0  0  0  0  0  0  0  0  0
   59.7450   30.2220   49.6640 C   0  0  0  0  0  0  0  0  0  0  0  0
   60.7530   31.1900   49.5290 C   0  0  0  0  0  0  0  0  0  0  0  0
   60.9300   32.2130   50.5210 N   0  0  0  0  0  0  0  0  0  0  0  0
   61.6610   33.4250   50.2720 C   0  0  0  0  0  0  0  0  0  0  0  0
   62.4450   34.1530   51.5070 S   0  0  0  0  0  0  0  0  0  0  0  0
   61.7300   34.0010   48.9560 N   0  0  0  0  0  0  0  0  0  0  0  0
   60.6770   33.8840   47.9840 C   0  0  0  0  0  0  0  0  0  0  0  0
   60.9840   33.9340   46.6170 C   0  0  0  0  0  0  0  0  0  0  0  0
   59.9750   33.7950   45.6580 C   0  0  0  0  0  0  0  0  0  0  0  0
   58.6420   33.6240   46.0590 C   0  0  0  0  0  0  0  0  0  0  0  0
   57.3530   33.4740   44.8720 S   0  0  0  0  0  0  0  0  0  0  0  0
   56.4330   34.9360   44.8370 N   0  0  0  0  0  0  0  0  0  0  0  0
   56.4510   32.3260   45.2230 O   0  0  0  0  0  0  0  0  0  0  0  0
   57.9520   33.2240   43.5160 O   0  0  0  0  0  0  0  0  0  0  0  0
   58.3300   33.5930   47.4230 C   0  0  0  0  0  0  0  0  0  0  0  0
   59.3370   33.7290   48.3810 C   0  0  0  0  0  0  0  0  0  0  0  0
   61.6170   31.1330   48.4260 C   0  0  0  0  0  0  0  0  0  0  0  0
   61.5130   30.0900   47.5000 C   0  0  0  0  0  0  0  0  0  0  0  0
   58.3310   26.0170   46.8730 C   0  0  0  0  0  0  0  0  0  0  0  0
   57.0020   25.6090   46.7290 C   0  0  0  0  0  0  0  0  0  0  0  0
   55.9006   23.1359   44.7219 H   0  0  0  0  0  0  0  0  0  0  0  0
   54.4332   23.1108   43.6862 H   0  0  0  0  0  0  0  0  0  0  0  0
   55.5080   24.5500   43.6862 H   0  0  0  0  0  0  0  0  0  0  0  0
   55.7660   28.3544   45.1086 H   0  0  0  0  0  0  0  0  0  0  0  0
   58.1435   29.0684   45.3426 H   0  0  0  0  0  0  0  0  0  0  0  0
   58.8442   28.4300   48.8489 H   0  0  0  0  0  0  0  0  0  0  0  0
   59.0398   30.2795   50.5062 H   0  0  0  0  0  0  0  0  0  0  0  0
   60.5010   32.0740   51.4640 H   0  0  0  0  0  0  0  0  0  0  0  0
   62.5920   34.5300   48.6920 H   0  0  0  0  0  0  0  0  0  0  0  0
   62.0255   34.0836   46.2962 H   0  0  0  0  0  0  0  0  0  0  0  0
   60.2275   33.8199   44.5877 H   0  0  0  0  0  0  0  0  0  0  0  0
   55.8560   34.9540   45.7070 H   0  0  0  0  0  0  0  0  0  0  0  0
   57.2857   33.4608   47.7423 H   0  0  0  0  0  0  0  0  0  0  0  0
   59.0808   33.7148   49.4507 H   0  0  0  0  0  0  0  0  0  0  0  0
   62.3806   31.9127   48.2883 H   0  0  0  0  0  0  0  0  0  0  0  0
   62.2080   30.0399   46.6489 H   0  0  0  0  0  0  0  0  0  0  0  0
   59.0540   25.3586   47.3768 H   0  0  0  0  0  0  0  0  0  0  0  0
   56.6838   24.6297   47.1159 H   0  0  0  0  0  0  0  0  0  0  0  0
  1  2  1  0
  2  3  2  0
  2  4  2  0
  2  5  1  0
  5  6  1  0
  6  7  2  0
  7  8  1  0
  8  9  2  0
  9 10  1  0
 10 11  2  0
 10 12  2  0
 10 13  1  0
 13 14  2  0
 14 15  1  0
 15 16  2  0
 16 17  1  0
 17 18  1  0
 18 19  2  0
 18 20  1  0
 20 21  1  0
 21 22  2  0
 22 23  1  0
 23 24  2  0
 24 25  1  0
 25 26  1  0
 25 27  2  0
 25 28  2  0
 24 29  1  0
 29 30  2  0
 16 31  1  0
 31 32  2  0
  9 33  1  0
 33 34  2  0
 34  6  1  0
 32 13  1  0
 30 21  1  0
  1 35  1  0
  1 36  1  0
  1 37  1  0
  7 38  1  0
  8 39  1  0
 14 40  1  0
 15 41  1  0
 17 42  1  0
 20 43  1  0
 22 44  1  0
 23 45  1  0
 26 46  1  0
 29 47  1  0
 30 48  1  0
 31 49  1  0
 32 50  1  0
 33 51  1  0
 34 52  1  0
M  CHG  2   5  -1  26  -1
M  END
>  <UniqueID>  (32) 
30

>  <SMILES>  (32) 
CS(=O)(=O)[N-]c1ccc(S(=O)(=O)c2ccc(NC(=S)Nc3ccc(S([NH-])(=O)=O)cc3)cc2)cc1

>  <Energy>  (32) 
56.77162905818718

>  <Genealogy>  (32) 
CS(=O)(=O)[N-]c1ccc(S(=O)(=O)c2ccc(NC(=S)Nc3ccc(S([NH-])(=O)=O)cc3)cc2)cc1 (protonated)
CS(=O)(=O)[N-]c1ccc(S(=O)(=O)c2ccc(NC(=S)Nc3ccc(S([NH-])(=O)=O)cc3)cc2)cc1 (3D coordinates assigned)
CS(=O)(=O)[N-]c1ccc(S(=O)(=O)c2ccc(NC(=S)Nc3ccc(S([NH-])(=O)=O)cc3)cc2)cc1 (optimized conformer: 56.77162905818718 kcal/mol)

>  <smiles>  (32) 
CS(=O)(=O)Nc1ccc(S(=O)(=O)c2ccc(NC(=S)Nc3ccc(S(N)(=O)=O)cc3)cc2)cc1

>  <score_type>  (32) 
oracle

>  <origin>  (32) 
adg

>  <m_score__min__energy>  (32) 
-12.869999999999999

>  <m_primary>  (32) 
energy

$$$$
32:0
     RDKit          3D

 48 51  0  0  0  0  0  0  0  0999 V2000
   56.8766   30.0031   53.1380 H   0  0  0  0  0  0  0  0  0  0  0  0
   57.3360   30.2980   52.1830 C   0  0  0  0  0  0  0  0  0  0  0  0
   58.0480   29.3900   51.4620 N   0  0  0  0  0  0  0  0  0  0  0  0
   58.6260   29.7120   50.2700 C   0  0  0  0  0  0  0  0  0  0  0  0
   59.4230   28.6770   49.5270 C   0  0  0  0  0  0  0  0  0  0  0  0
   58.8871   27.7167   49.5535 H   0  0  0  0  0  0  0  0  0  0  0  0
   60.4078   28.5687   50.0050 H   0  0  0  0  0  0  0  0  0  0  0  0
   59.6090   29.0920   48.1290 N   0  0  0  0  0  0  0  0  0  0  0  0
   58.7600   28.7510   47.1130 C   0  0  0  0  0  0  0  0  0  0  0  0
   57.6540   27.9280   47.3070 O   0  0  0  0  0  0  0  0  0  0  0  0
   59.0780   29.3020   45.8710 C   0  0  0  0  0  0  0  0  0  0  0  0
   58.2620   29.1940   44.6220 C   0  0  0  0  0  0  0  0  0  0  0  0
   58.2528   28.1489   44.2790 H   0  0  0  0  0  0  0  0  0  0  0  0
   58.7007   29.8320   43.8406 H   0  0  0  0  0  0  0  0  0  0  0  0
   56.8630   29.6390   44.9020 C   0  0  0  0  0  0  0  0  0  0  0  0
   55.9860   28.7920   45.2210 O   0  0  0  0  0  0  0  0  0  0  0  0
   56.5450   31.0320   44.8650 N   0  0  0  0  0  0  0  0  0  0  0  0
   57.4830   32.0780   45.1400 C   0  0  0  0  0  0  0  0  0  0  0  0
   57.7050   32.4500   46.4750 C   0  0  0  0  0  0  0  0  0  0  0  0
   57.1750   31.9258   47.2838 H   0  0  0  0  0  0  0  0  0  0  0  0
   58.5950   33.4820   46.7830 C   0  0  0  0  0  0  0  0  0  0  0  0
   58.7716   33.7610   47.8323 H   0  0  0  0  0  0  0  0  0  0  0  0
   59.2610   34.1600   45.7580 C   0  0  0  0  0  0  0  0  0  0  0  0
   59.9585   34.9755   45.9999 H   0  0  0  0  0  0  0  0  0  0  0  0
   59.0400   33.8010   44.4260 C   0  0  0  0  0  0  0  0  0  0  0  0
   59.5599   34.3419   43.6215 H   0  0  0  0  0  0  0  0  0  0  0  0
   58.1610   32.7570   44.1070 C   0  0  0  0  0  0  0  0  0  0  0  0
   57.8930   32.3660   42.4090 Cl  0  0  0  0  0  0  0  0  0  0  0  0
   60.4350   30.2870   46.0580 S   0  0  0  0  0  0  0  0  0  0  0  0
   60.5810   29.9440   47.7070 C   0  0  0  0  0  0  0  0  0  0  0  0
   61.4730   30.4520   48.5070 N   0  0  0  0  0  0  0  0  0  0  0  0
   62.0990   31.7230   48.2910 C   0  0  0  0  0  0  0  0  0  0  0  0
   62.8030   31.9600   47.1010 C   0  0  0  0  0  0  0  0  0  0  0  0
   62.8606   31.1759   46.3317 H   0  0  0  0  0  0  0  0  0  0  0  0
   63.4320   33.1920   46.8910 C   0  0  0  0  0  0  0  0  0  0  0  0
   63.9809   33.3767   45.9558 H   0  0  0  0  0  0  0  0  0  0  0  0
   63.3630   34.1890   47.8700 C   0  0  0  0  0  0  0  0  0  0  0  0
   63.8570   35.1576   47.7033 H   0  0  0  0  0  0  0  0  0  0  0  0
   62.6670   33.9560   49.0600 C   0  0  0  0  0  0  0  0  0  0  0  0
   62.6127   34.7430   49.8267 H   0  0  0  0  0  0  0  0  0  0  0  0
   62.0380   32.7220   49.2790 C   0  0  0  0  0  0  0  0  0  0  0  0
   61.1870   32.4440   50.7950 Cl  0  0  0  0  0  0  0  0  0  0  0  0
   58.5080   31.0180   49.7740 C   0  0  0  0  0  0  0  0  0  0  0  0
   58.9836   31.2948   48.8215 H   0  0  0  0  0  0  0  0  0  0  0  0
   57.7810   31.9650   50.5000 C   0  0  0  0  0  0  0  0  0  0  0  0
   57.6764   32.9913   50.1182 H   0  0  0  0  0  0  0  0  0  0  0  0
   57.1880   31.6050   51.7110 C   0  0  0  0  0  0  0  0  0  0  0  0
   56.6103   32.3422   52.2878 H   0  0  0  0  0  0  0  0  0  0  0  0
  1  2  1  0
  2  3  2  0
  3  4  1  0
  4  5  1  0
  5  6  1  0
  5  7  1  0
  5  8  1  0
  8  9  1  0
  9 10  1  0
  9 11  2  0
 11 12  1  0
 12 13  1  0
 12 14  1  0
 12 15  1  0
 15 16  2  0
 15 17  1  0
 17 18  1  0
 18 19  2  0
 19 20  1  0
 19 21  1  0
 21 22  1  0
 21 23  2  0
 23 24  1  0
 23 25  1  0
 25 26  1  0
 25 27  2  0
 27 28  1  0
 11 29  1  0
 29 30  1  0
 30 31  2  0
 31 32  1  0
 32 33  2  0
 33 34  1  0
 33 35  1  0
 35 36  1  0
 35 37  2  0
 37 38  1  0
 37 39  1  0
 39 40  1  0
 39 41  2  0
 41 42  1  0
  4 43  2  0
 43 44  1  0
 43 45  1  0
 45 46  1  0
 45 47  2  0
 47 48  1  0
 47  2  1  0
 30  8  1  0
 41 32  1  0
 27 18  1  0
M  CHG  2  10  -1  17  -1
M  END
>  <UniqueID>  (33) 
31

>  <SMILES>  (33) 
O=C(Cc1s/c(=N\c2ccccc2Cl)n(Cc2ccccn2)c1[O-])[N-]c1ccccc1Cl

>  <Energy>  (33) 
94.71839904890558

>  <Genealogy>  (33) 
O=C(Cc1sc(=Nc2ccccc2Cl)n(Cc2ccccn2)c1[O-])[N-]c1ccccc1Cl (protonated)
O=C(Cc1s/c(=N\c2ccccc2Cl)n(Cc2ccccn2)c1[O-])[N-]c1ccccc1Cl (cis-trans isomerization)
O=C(Cc1s/c(=N\c2ccccc2Cl)n(Cc2ccccn2)c1[O-])[N-]c1ccccc1Cl (3D coordinates assigned)
O=C(Cc1s/c(=N\c2ccccc2Cl)n(Cc2ccccn2)c1[O-])[N-]c1ccccc1Cl (optimized conformer: 94.71839904890558 kcal/mol)

>  <smiles>  (33) 
O=C(Cc1sc(=Nc2ccccc2Cl)n(Cc2ccccn2)c1O)Nc1ccccc1Cl

>  <score_type>  (33) 
oracle

>  <origin>  (33) 
adg

>  <m_score__min__energy>  (33) 
-13.44

>  <m_primary>  (33) 
energy

$$$$
33:0
     RDKit          3D

 58 61  0  0  0  0  0  0  0  0999 V2000
   62.6230   33.5110   46.8500 C   0  0  0  0  0  0  0  0  0  0  0  0
   61.4990   34.1890   47.4030 O   0  0  0  0  0  0  0  0  0  0  0  0
   60.1870   34.0980   46.9090 C   0  0  0  0  0  0  0  0  0  0  0  0
   59.8390   34.5960   45.6360 C   0  0  0  0  0  0  0  0  0  0  0  0
   58.5430   34.4330   45.1440 C   0  0  0  0  0  0  0  0  0  0  0  0
   57.5810   33.7740   45.9080 C   0  0  0  0  0  0  0  0  0  0  0  0
   57.9070   33.2880   47.1760 C   0  0  0  0  0  0  0  0  0  0  0  0
   59.2010   33.4650   47.6930 C   0  0  0  0  0  0  0  0  0  0  0  0
   59.5130   32.9520   49.0400 C   0  0  0  0  0  0  0  0  0  0  0  0
   59.2840   33.6680   50.0500 O   0  0  0  0  0  0  0  0  0  0  0  0
   60.1100   31.6650   49.2160 N   0  0  0  0  0  0  0  0  0  0  0  0
   60.8280   30.6620   48.4060 C   0  0  0  0  0  0  0  0  0  0  0  0
   61.1460   29.7430   49.5400 C   0  0  0  0  0  0  0  0  0  0  0  0
   60.4200   28.5190   49.4460 O   0  0  0  0  0  0  0  0  0  0  0  0
   59.8030   28.0490   48.2780 C   0  0  0  0  0  0  0  0  0  0  0  0
   60.2870   26.9370   47.5630 C   0  0  0  0  0  0  0  0  0  0  0  0
   59.6250   26.4970   46.4120 C   0  0  0  0  0  0  0  0  0  0  0  0
   58.4760   27.1620   45.9590 C   0  0  0  0  0  0  0  0  0  0  0  0
   57.7440   26.6570   44.7440 C   0  0  0  0  0  0  0  0  0  0  0  0
   57.0220   25.4270   45.0580 N   0  0  0  0  0  0  0  0  0  0  0  0
   55.7330   25.4300   45.6900 C   0  0  0  0  0  0  0  0  0  0  0  0
   55.1880   26.5210   46.0120 O   0  0  0  0  0  0  0  0  0  0  0  0
   55.0670   24.1260   46.0340 C   0  0  0  0  0  0  0  0  0  0  0  0
   55.9810   22.9460   45.7720 C   0  0  0  0  0  0  0  0  0  0  0  0
   56.5470   22.2150   46.8440 C   0  0  0  0  0  0  0  0  0  0  0  0
   56.2300   22.6220   48.5290 Cl  0  0  0  0  0  0  0  0  0  0  0  0
   57.3780   21.1190   46.5850 C   0  0  0  0  0  0  0  0  0  0  0  0
   57.6410   20.7270   45.2720 C   0  0  0  0  0  0  0  0  0  0  0  0
   57.0670   21.4210   44.2080 C   0  0  0  0  0  0  0  0  0  0  0  0
   56.2360   22.5210   44.4450 C   0  0  0  0  0  0  0  0  0  0  0  0
   55.5180   23.3270   43.0530 Cl  0  0  0  0  0  0  0  0  0  0  0  0
   57.9990   28.2750   46.6680 C   0  0  0  0  0  0  0  0  0  0  0  0
   58.6610   28.7150   47.8170 C   0  0  0  0  0  0  0  0  0  0  0  0
   60.4330   30.7800   50.3500 C   0  0  0  0  0  0  0  0  0  0  0  0
   63.2571   33.1285   47.6634 H   0  0  0  0  0  0  0  0  0  0  0  0
   62.2761   32.6714   46.2298 H   0  0  0  0  0  0  0  0  0  0  0  0
   63.2039   34.2095   46.2298 H   0  0  0  0  0  0  0  0  0  0  0  0
   60.5935   35.1159   45.0274 H   0  0  0  0  0  0  0  0  0  0  0  0
   58.2800   34.8256   44.1507 H   0  0  0  0  0  0  0  0  0  0  0  0
   56.5641   33.6367   45.5117 H   0  0  0  0  0  0  0  0  0  0  0  0
   57.1463   32.7637   47.7731 H   0  0  0  0  0  0  0  0  0  0  0  0
   60.1870   30.1923   47.6454 H   0  0  0  0  0  0  0  0  0  0  0  0
   61.6723   31.0194   47.7982 H   0  0  0  0  0  0  0  0  0  0  0  0
   62.1514   29.3656   49.7781 H   0  0  0  0  0  0  0  0  0  0  0  0
   61.1891   26.4122   47.9107 H   0  0  0  0  0  0  0  0  0  0  0  0
   60.0071   25.6258   45.8597 H   0  0  0  0  0  0  0  0  0  0  0  0
   57.0280   27.4218   44.4086 H   0  0  0  0  0  0  0  0  0  0  0  0
   58.4749   26.4481   43.9489 H   0  0  0  0  0  0  0  0  0  0  0  0
   57.4640   24.5140   44.8080 H   0  0  0  0  0  0  0  0  0  0  0  0
   54.7928   24.1354   47.0992 H   0  0  0  0  0  0  0  0  0  0  0  0
   54.1751   24.0176   45.3994 H   0  0  0  0  0  0  0  0  0  0  0  0
   57.8265   20.5633   47.4217 H   0  0  0  0  0  0  0  0  0  0  0  0
   58.3018   19.8696   45.0763 H   0  0  0  0  0  0  0  0  0  0  0  0
   57.2689   21.1015   43.1750 H   0  0  0  0  0  0  0  0  0  0  0  0
   57.1000   28.8033   46.3177 H   0  0  0  0  0  0  0  0  0  0  0  0
   58.2821   29.5912   48.3635 H   0  0  0  0  0  0  0  0  0  0  0  0
   59.5362   30.3859   50.8505 H   0  0  0  0  0  0  0  0  0  0  0  0
   60.9827   31.2242   51.1929 H   0  0  0  0  0  0  0  0  0  0  0  0
  1  2  1  0
  2  3  1  0
  3  4  2  0
  4  5  1  0
  5  6  2  0
  6  7  1  0
  7  8  2  0
  8  9  1  0
  9 10  2  0
  9 11  1  0
 11 12  1  0
 12 13  1  0
 13 14  1  0
 14 15  1  0
 15 16  2  0
 16 17  1  0
 17 18  2  0
 18 19  1  0
 19 20  1  0
 20 21  1  0
 21 22  2  0
 21 23  1  0
 23 24  1  0
 24 25  2  0
 25 26  1  0
 25 27  1  0
 27 28  2  0
 28 29  1  0
 29 30  2  0
 30 31  1  0
 18 32  1  0
 32 33  2  0
 13 34  1  0
  8  3  1  0
 34 11  1  0
 33 15  1  0
 30 24  1  0
  1 35  1  0
  1 36  1  0
  1 37  1  0
  4 38  1  0
  5 39  1  0
  6 40  1  0
  7 41  1  0
 12 42  1  0
 12 43  1  0
 13 44  1  0
 16 45  1  0
 17 46  1  0
 19 47  1  0
 19 48  1  0
 20 49  1  0
 23 50  1  0
 23 51  1  0
 27 52  1  0
 28 53  1  0
 29 54  1  0
 32 55  1  0
 33 56  1  0
 34 57  1  0
 34 58  1  0
M  END
>  <UniqueID>  (34) 
32

>  <SMILES>  (34) 
COc1ccccc1C(=O)N1CC(Oc2ccc(CNC(=O)Cc3c(Cl)cccc3Cl)cc2)C1

>  <Energy>  (34) 
109.21210000925787

>  <Genealogy>  (34) 
COc1ccccc1C(=O)N1CC(Oc2ccc(CNC(=O)Cc3c(Cl)cccc3Cl)cc2)C1 (3D coordinates assigned)
COc1ccccc1C(=O)N1CC(Oc2ccc(CNC(=O)Cc3c(Cl)cccc3Cl)cc2)C1 (nonaromatic ring conformer: 109.21210000925787 kcal/mol)

>  <smiles>  (34) 
COc1ccccc1C(=O)N1CC(Oc2ccc(CNC(=O)Cc3c(Cl)cccc3Cl)cc2)C1

>  <score_type>  (34) 
oracle

>  <origin>  (34) 
adg

>  <m_score__min__energy>  (34) 
-9.5899999999999999

>  <m_primary>  (34) 
energy

$$$$
34:0
     RDKit          3D

 41 42  0  0  0  0  0  0  0  0999 V2000
   55.4320   30.0270   44.6710 O   0  0  0  0  0  0  0  0  0  0  0  0
   56.3700   30.1700   43.9010 C   0  0  0  0  0  0  0  0  0  0  0  0
   57.1750   31.4360   43.9490 C   0  0  0  0  0  0  0  0  0  0  0  0
   57.0280   32.0420   45.2350 O   0  0  0  0  0  0  0  0  0  0  0  0
   57.8750   33.0400   45.7410 C   0  0  0  0  0  0  0  0  0  0  0  0
   58.0790   33.0980   47.1290 C   0  0  0  0  0  0  0  0  0  0  0  0
   58.9140   34.0750   47.6820 C   0  0  0  0  0  0  0  0  0  0  0  0
   59.5560   35.0000   46.8510 C   0  0  0  0  0  0  0  0  0  0  0  0
   59.3620   34.9480   45.4650 C   0  0  0  0  0  0  0  0  0  0  0  0
   58.5220   33.9770   44.9080 C   0  0  0  0  0  0  0  0  0  0  0  0
   56.6950   29.0760   42.9180 C   0  0  0  0  0  0  0  0  0  0  0  0
   57.9750   27.9550   43.5850 S   0  0  0  0  0  0  0  0  0  0  0  0
   57.1910   27.7220   45.2270 C   0  0  0  0  0  0  0  0  0  0  0  0
   57.2760   26.2610   45.7100 C   0  0  1  0  0  0  0  0  0  0  0  0
   58.6580   26.0350   46.9000 S   0  0  0  0  0  0  0  0  0  0  0  0
   59.2820   27.7150   46.7730 C   0  0  0  0  0  0  0  0  0  0  0  0
   58.8260   28.7040   47.6560 C   0  0  0  0  0  0  0  0  0  0  0  0
   59.3140   30.0110   47.5570 C   0  0  0  0  0  0  0  0  0  0  0  0
   60.2650   30.3310   46.5810 C   0  0  0  0  0  0  0  0  0  0  0  0
   60.7270   29.3450   45.7030 C   0  0  0  0  0  0  0  0  0  0  0  0
   60.2420   28.0370   45.8020 C   0  0  0  0  0  0  0  0  0  0  0  0
   55.9870   25.7830   46.3300 C   0  0  0  0  0  0  0  0  0  0  0  0
   56.0010   24.8250   47.1470 O   0  0  0  0  0  0  0  0  0  0  0  0
   54.7650   26.3410   45.9690 O   0  0  0  0  0  0  0  0  0  0  0  0
   58.2355   31.2038   43.7715 H   0  0  0  0  0  0  0  0  0  0  0  0
   56.8180   32.1288   43.1727 H   0  0  0  0  0  0  0  0  0  0  0  0
   57.5792   32.3707   47.7857 H   0  0  0  0  0  0  0  0  0  0  0  0
   59.0659   34.1161   48.7707 H   0  0  0  0  0  0  0  0  0  0  0  0
   60.2127   35.7676   47.2862 H   0  0  0  0  0  0  0  0  0  0  0  0
   59.8713   35.6724   44.8123 H   0  0  0  0  0  0  0  0  0  0  0  0
   58.3661   33.9443   43.8196 H   0  0  0  0  0  0  0  0  0  0  0  0
   55.7831   28.4972   42.7096 H   0  0  0  0  0  0  0  0  0  0  0  0
   57.0786   29.5364   41.9956 H   0  0  0  0  0  0  0  0  0  0  0  0
   57.7008   28.3670   45.9578 H   0  0  0  0  0  0  0  0  0  0  0  0
   56.1272   27.9858   45.1340 H   0  0  0  0  0  0  0  0  0  0  0  0
   57.4656   25.6506   44.8147 H   0  0  0  0  0  0  0  0  0  0  0  0
   58.0836   28.4517   48.4275 H   0  0  0  0  0  0  0  0  0  0  0  0
   58.9505   30.7875   48.2461 H   0  0  0  0  0  0  0  0  0  0  0  0
   60.6494   31.3588   46.5044 H   0  0  0  0  0  0  0  0  0  0  0  0
   61.4720   29.5985   44.9344 H   0  0  0  0  0  0  0  0  0  0  0  0
   60.6136   27.2599   45.1178 H   0  0  0  0  0  0  0  0  0  0  0  0
  1  2  2  0
  2  3  1  0
  3  4  1  0
  4  5  1  0
  5  6  2  0
  6  7  1  0
  7  8  2  0
  8  9  1  0
  9 10  2  0
  2 11  1  0
 11 12  1  0
 12 13  1  0
 13 14  1  0
 14 15  1  0
 15 16  1  0
 16 17  2  0
 17 18  1  0
 18 19  2  0
 19 20  1  0
 20 21  2  0
 14 22  1  0
 22 23  2  0
 22 24  1  0
 10  5  1  0
 21 16  1  0
  3 25  1  0
  3 26  1  0
  6 27  1  0
  7 28  1  0
  8 29  1  0
  9 30  1  0
 10 31  1  0
 11 32  1  0
 11 33  1  0
 13 34  1  0
 13 35  1  0
 14 36  1  6
 17 37  1  0
 18 38  1  0
 19 39  1  0
 20 40  1  0
 21 41  1  0
M  CHG  1  24  -1
M  END
>  <UniqueID>  (35) 
33

>  <SMILES>  (35) 
O=C(COc1ccccc1)CSC[C@@H](Sc1ccccc1)C(=O)[O-]

>  <Energy>  (35) 
31.1655313208586

>  <Genealogy>  (35) 
O=C(COc1ccccc1)CSCC(Sc1ccccc1)C(=O)[O-] (protonated)
O=C(COc1ccccc1)CSC[C@@H](Sc1ccccc1)C(=O)[O-] (chirality)
O=C(COc1ccccc1)CSC[C@@H](Sc1ccccc1)C(=O)[O-] (3D coordinates assigned)
O=C(COc1ccccc1)CSC[C@@H](Sc1ccccc1)C(=O)[O-] (optimized conformer: 31.1655313208586 kcal/mol)

>  <smiles>  (35) 
O=C(COc1ccccc1)CSCC(Sc1ccccc1)C(=O)O

>  <score_type>  (35) 
oracle

>  <origin>  (35) 
adg

>  <m_score__min__energy>  (35) 
-11.640000000000001

>  <m_primary>  (35) 
energy

$$$$
35:0
     RDKit          3D

 41 43  0  0  0  0  0  0  0  0999 V2000
   60.4670   27.4100   46.4400 C   0  0  0  0  0  0  0  0  0  0  0  0
   59.0080   27.1010   46.2810 C   0  0  0  0  0  0  0  0  0  0  0  0
   58.4970   25.8610   46.6930 C   0  0  0  0  0  0  0  0  0  0  0  0
   57.1330   25.5900   46.5770 C   0  0  0  0  0  0  0  0  0  0  0  0
   56.2580   26.5640   46.0760 C   0  0  0  0  0  0  0  0  0  0  0  0
   54.8940   26.2930   45.9690 O   0  0  0  0  0  0  0  0  0  0  0  0
   56.7520   27.8210   45.7000 C   0  0  0  0  0  0  0  0  0  0  0  0
   55.8360   28.8170   45.2180 N   0  0  0  0  0  0  0  0  0  0  0  0
   56.1150   29.8070   44.2190 C   0  0  0  0  0  0  0  0  0  0  0  0
   56.4020   29.4320   43.0530 O   0  0  0  0  0  0  0  0  0  0  0  0
   56.0770   31.2110   44.5080 N   0  0  0  0  0  0  0  0  0  0  0  0
   57.1350   31.9740   45.1050 C   0  0  0  0  0  0  0  0  0  0  0  0
   57.0130   33.3670   45.1710 C   0  0  0  0  0  0  0  0  0  0  0  0
   58.0370   34.1410   45.7240 C   0  0  0  0  0  0  0  0  0  0  0  0
   59.1870   33.5240   46.2480 C   0  0  0  0  0  0  0  0  0  0  0  0
   60.2470   34.2660   46.7890 O   0  0  0  0  0  0  0  0  0  0  0  0
   61.4040   33.7250   47.3720 C   0  0  0  0  0  0  0  0  0  0  0  0
   62.5910   33.7150   46.6290 C   0  0  0  0  0  0  0  0  0  0  0  0
   63.7590   33.1700   47.1690 C   0  0  0  0  0  0  0  0  0  0  0  0
   63.7450   32.6190   48.4540 C   0  0  0  0  0  0  0  0  0  0  0  0
   62.5610   32.6060   49.1960 C   0  0  0  0  0  0  0  0  0  0  0  0
   61.3910   33.1510   48.6570 C   0  0  0  0  0  0  0  0  0  0  0  0
   59.3040   32.1310   46.1890 C   0  0  0  0  0  0  0  0  0  0  0  0
   58.2800   31.3570   45.6360 C   0  0  0  0  0  0  0  0  0  0  0  0
   58.1320   28.0760   45.7850 C   0  0  0  0  0  0  0  0  0  0  0  0
   60.7161   27.4628   47.5101 H   0  0  0  0  0  0  0  0  0  0  0  0
   61.0636   26.6183   45.9632 H   0  0  0  0  0  0  0  0  0  0  0  0
   60.6914   28.3756   45.9632 H   0  0  0  0  0  0  0  0  0  0  0  0
   59.1737   25.1000   47.1088 H   0  0  0  0  0  0  0  0  0  0  0  0
   56.7425   24.6073   46.8801 H   0  0  0  0  0  0  0  0  0  0  0  0
   54.3260   26.7140   45.2440 H   0  0  0  0  0  0  0  0  0  0  0  0
   56.1059   33.8553   44.7854 H   0  0  0  0  0  0  0  0  0  0  0  0
   57.9431   35.2367   45.7495 H   0  0  0  0  0  0  0  0  0  0  0  0
   62.6041   34.1388   45.6140 H   0  0  0  0  0  0  0  0  0  0  0  0
   64.6898   33.1745   46.5829 H   0  0  0  0  0  0  0  0  0  0  0  0
   64.6662   32.1957   48.8809 H   0  0  0  0  0  0  0  0  0  0  0  0
   62.5491   32.1669   50.2045 H   0  0  0  0  0  0  0  0  0  0  0  0
   60.4579   33.1309   49.2392 H   0  0  0  0  0  0  0  0  0  0  0  0
   60.2080   31.6417   46.5805 H   0  0  0  0  0  0  0  0  0  0  0  0
   58.3709   30.2609   45.6165 H   0  0  0  0  0  0  0  0  0  0  0  0
   58.5276   29.0494   45.4593 H   0  0  0  0  0  0  0  0  0  0  0  0
  1  2  1  0
  2  3  2  0
  3  4  1  0
  4  5  2  0
  5  6  1  0
  5  7  1  0
  7  8  1  0
  8  9  1  0
  9 10  2  0
  9 11  1  0
 11 12  1  0
 12 13  2  0
 13 14  1  0
 14 15  2  0
 15 16  1  0
 16 17  1  0
 17 18  2  0
 18 19  1  0
 19 20  2  0
 20 21  1  0
 21 22  2  0
 15 23  1  0
 23 24  2  0
  7 25  2  0
 25  2  1  0
 24 12  1  0
 22 17  1  0
  1 26  1  0
  1 27  1  0
  1 28  1  0
  3 29  1  0
  4 30  1  0
  6 31  1  0
 13 32  1  0
 14 33  1  0
 18 34  1  0
 19 35  1  0
 20 36  1  0
 21 37  1  0
 22 38  1  0
 23 39  1  0
 24 40  1  0
 25 41  1  0
M  CHG  2   8  -1  11  -1
M  END
>  <UniqueID>  (36) 
34

>  <SMILES>  (36) 
Cc1ccc(O)c([N-]C(=O)[N-]c2ccc(Oc3ccccc3)cc2)c1

>  <Energy>  (36) 
55.91546832276455

>  <Genealogy>  (36) 
Cc1ccc(O)c([N-]C(=O)[N-]c2ccc(Oc3ccccc3)cc2)c1 (protonated)
Cc1ccc(O)c([N-]C(=O)[N-]c2ccc(Oc3ccccc3)cc2)c1 (3D coordinates assigned)
Cc1ccc(O)c([N-]C(=O)[N-]c2ccc(Oc3ccccc3)cc2)c1 (optimized conformer: 55.91546832276455 kcal/mol)

>  <smiles>  (36) 
Cc1ccc(O)c(NC(=O)Nc2ccc(Oc3ccccc3)cc2)c1

>  <score_type>  (36) 
oracle

>  <origin>  (36) 
adg

>  <m_score__min__energy>  (36) 
-13.6

>  <m_primary>  (36) 
energy

$$$$
36:0
     RDKit          3D

 55 58  0  0  0  0  0  0  0  0999 V2000
   59.6400   33.5480   50.6560 C   0  0  0  0  0  0  0  0  0  0  0  0
   59.9580   34.3600   49.5280 O   0  0  0  0  0  0  0  0  0  0  0  0
   59.6070   34.0540   48.2010 C   0  0  0  0  0  0  0  0  0  0  0  0
   59.9730   34.9550   47.1920 C   0  0  0  0  0  0  0  0  0  0  0  0
   59.6370   34.7090   45.8550 C   0  0  0  0  0  0  0  0  0  0  0  0
   58.9200   33.5540   45.5080 C   0  0  0  0  0  0  0  0  0  0  0  0
   58.5540   33.3090   44.1750 C   0  0  0  0  0  0  0  0  0  0  0  0
   57.8350   32.1580   43.8440 C   0  0  0  0  0  0  0  0  0  0  0  0
   57.4890   31.2300   44.8360 C   0  0  0  0  0  0  0  0  0  0  0  0
   56.5950   29.7720   44.4160 S   0  0  0  0  0  0  0  0  0  0  0  0
   55.1290   30.1060   44.3900 O   0  0  0  0  0  0  0  0  0  0  0  0
   57.0070   29.3000   43.0500 O   0  0  0  0  0  0  0  0  0  0  0  0
   56.8670   28.5280   45.6160 N   0  0  0  0  0  0  0  0  0  0  0  0
   58.2630   28.0710   45.7550 C   0  0  1  0  0  0  0  0  0  0  0  0
   59.1560   28.5040   44.5770 C   0  0  0  0  0  0  0  0  0  0  0  0
   60.3310   29.3050   45.1740 C   0  0  0  0  0  0  0  0  0  0  0  0
   60.1020   29.3820   46.6130 N   0  0  0  0  0  0  0  0  0  0  0  0
   60.9020   30.1650   47.5260 C   0  0  0  0  0  0  0  0  0  0  0  0
   60.7380   30.0430   48.9170 C   0  0  0  0  0  0  0  0  0  0  0  0
   61.5020   30.8170   49.7930 C   0  0  0  0  0  0  0  0  0  0  0  0
   62.4400   31.7410   49.3000 C   0  0  0  0  0  0  0  0  0  0  0  0
   63.2190   32.5400   50.1520 O   0  0  0  0  0  0  0  0  0  0  0  0
   63.1170   33.9590   50.2470 C   0  0  0  0  0  0  0  0  0  0  0  0
   62.6070   31.8820   47.9150 C   0  0  0  0  0  0  0  0  0  0  0  0
   63.5470   32.8180   47.4510 O   0  0  0  0  0  0  0  0  0  0  0  0
   63.2690   33.8340   46.4910 C   0  0  0  0  0  0  0  0  0  0  0  0
   61.8390   31.0930   47.0360 C   0  0  0  0  0  0  0  0  0  0  0  0
   58.9570   28.6120   46.9450 C   0  0  0  0  0  0  0  0  0  0  0  0
   58.6380   28.3140   48.1270 O   0  0  0  0  0  0  0  0  0  0  0  0
   57.8380   31.4740   46.1710 C   0  0  0  0  0  0  0  0  0  0  0  0
   58.5520   32.6320   46.5170 C   0  0  0  0  0  0  0  0  0  0  0  0
   58.9000   32.8860   47.8560 C   0  0  0  0  0  0  0  0  0  0  0  0
   59.8574   34.1032   51.5804 H   0  0  0  0  0  0  0  0  0  0  0  0
   58.5723   33.2847   50.6289 H   0  0  0  0  0  0  0  0  0  0  0  0
   60.2449   32.6297   50.6289 H   0  0  0  0  0  0  0  0  0  0  0  0
   60.5309   35.8663   47.4533 H   0  0  0  0  0  0  0  0  0  0  0  0
   59.9362   35.4237   45.0742 H   0  0  0  0  0  0  0  0  0  0  0  0
   58.8342   34.0255   43.3888 H   0  0  0  0  0  0  0  0  0  0  0  0
   57.5389   31.9790   42.7998 H   0  0  0  0  0  0  0  0  0  0  0  0
   58.1460   26.9790   45.8177 H   0  0  0  0  0  0  0  0  0  0  0  0
   59.5339   27.6191   44.0440 H   0  0  0  0  0  0  0  0  0  0  0  0
   58.5896   29.1141   43.8580 H   0  0  0  0  0  0  0  0  0  0  0  0
   61.2820   28.7916   44.9690 H   0  0  0  0  0  0  0  0  0  0  0  0
   60.3894   30.3096   44.7297 H   0  0  0  0  0  0  0  0  0  0  0  0
   60.0014   29.3316   49.3188 H   0  0  0  0  0  0  0  0  0  0  0  0
   61.3687   30.7027   50.8789 H   0  0  0  0  0  0  0  0  0  0  0  0
   63.0957   34.2550   51.3062 H   0  0  0  0  0  0  0  0  0  0  0  0
   63.9841   34.4228   49.7540 H   0  0  0  0  0  0  0  0  0  0  0  0
   62.1925   34.2940   49.7540 H   0  0  0  0  0  0  0  0  0  0  0  0
   63.0131   34.7692   47.0105 H   0  0  0  0  0  0  0  0  0  0  0  0
   64.1560   33.9955   45.8608 H   0  0  0  0  0  0  0  0  0  0  0  0
   62.4234   33.5214   45.8608 H   0  0  0  0  0  0  0  0  0  0  0  0
   61.9741   31.2043   45.9500 H   0  0  0  0  0  0  0  0  0  0  0  0
   57.5510   30.7544   46.9519 H   0  0  0  0  0  0  0  0  0  0  0  0
   58.6179   32.1671   48.6393 H   0  0  0  0  0  0  0  0  0  0  0  0
  1  2  1  0
  2  3  1  0
  3  4  2  0
  4  5  1  0
  5  6  2  0
  6  7  1  0
  7  8  2  0
  8  9  1  0
  9 10  1  0
 10 11  2  0
 10 12  2  0
 10 13  1  0
 13 14  1  0
 14 15  1  0
 15 16  1  0
 16 17  1  0
 17 18  1  0
 18 19  2  0
 19 20  1  0
 20 21  2  0
 21 22  1  0
 22 23  1  0
 21 24  1  0
 24 25  1  0
 25 26  1  0
 24 27  2  0
 17 28  1  0
 28 29  2  0
  9 30  2  0
 30 31  1  0
 31 32  2  0
 32  3  1  0
 31  6  1  0
 28 14  1  0
 27 18  1  0
  1 33  1  0
  1 34  1  0
  1 35  1  0
  4 36  1  0
  5 37  1  0
  7 38  1  0
  8 39  1  0
 14 40  1  1
 15 41  1  0
 15 42  1  0
 16 43  1  0
 16 44  1  0
 19 45  1  0
 20 46  1  0
 23 47  1  0
 23 48  1  0
 23 49  1  0
 26 50  1  0
 26 51  1  0
 26 52  1  0
 27 53  1  0
 30 54  1  0
 32 55  1  0
M  CHG  1  13  -1
M  END
>  <UniqueID>  (37) 
35

>  <SMILES>  (37) 
COc1ccc2ccc(S(=O)(=O)[N-][C@H]3CCN(c4ccc(OC)c(OC)c4)C3=O)cc2c1

>  <Energy>  (37) 
72.88428021370125

>  <Genealogy>  (37) 
COc1ccc2ccc(S(=O)(=O)[N-]C3CCN(c4ccc(OC)c(OC)c4)C3=O)cc2c1 (protonated)
COc1ccc2ccc(S(=O)(=O)[N-][C@H]3CCN(c4ccc(OC)c(OC)c4)C3=O)cc2c1 (chirality)
COc1ccc2ccc(S(=O)(=O)[N-][C@H]3CCN(c4ccc(OC)c(OC)c4)C3=O)cc2c1 (3D coordinates assigned)
COc1ccc2ccc(S(=O)(=O)[N-][C@H]3CCN(c4ccc(OC)c(OC)c4)C3=O)cc2c1 (nonaromatic ring conformer: 72.88428021370125 kcal/mol)

>  <smiles>  (37) 
COc1ccc2ccc(S(=O)(=O)NC3CCN(c4ccc(OC)c(OC)c4)C3=O)cc2c1

>  <score_type>  (37) 
oracle

>  <origin>  (37) 
adg

>  <m_score__min__energy>  (37) 
-10.48

>  <m_primary>  (37) 
energy

$$$$
37:0
     RDKit          3D

 33 34  0  0  0  0  0  0  0  0999 V2000
   61.5900   30.7880   47.0110 C   0  0  0  0  0  0  0  0  0  0  0  0
   60.2950   30.1360   46.6060 C   0  0  0  0  0  0  0  0  0  0  0  0
   60.2920   29.1460   45.6130 C   0  0  0  0  0  0  0  0  0  0  0  0
   59.0990   28.5350   45.2300 C   0  0  0  0  0  0  0  0  0  0  0  0
   57.8990   28.9170   45.8440 C   0  0  0  0  0  0  0  0  0  0  0  0
   56.6140   28.2960   45.4710 C   0  0  0  0  0  0  0  0  0  0  0  0
   56.4450   27.0600   45.6520 O   0  0  0  0  0  0  0  0  0  0  0  0
   55.5610   29.0880   44.9090 N   0  0  0  0  0  0  0  0  0  0  0  0
   55.6190   29.6810   43.5780 C   0  0  0  0  0  0  0  0  0  0  0  0
   56.6000   30.8200   43.5550 C   0  0  0  0  0  0  0  0  0  0  0  0
   57.0760   31.3070   42.3280 C   0  0  0  0  0  0  0  0  0  0  0  0
   57.9680   32.3810   42.3150 C   0  0  0  0  0  0  0  0  0  0  0  0
   58.3720   32.9610   43.5170 C   0  0  0  0  0  0  0  0  0  0  0  0
   57.8740   32.4570   44.7200 C   0  0  0  0  0  0  0  0  0  0  0  0
   57.0060   31.4090   44.7180 N   0  0  0  0  0  0  0  0  0  0  0  0
   57.9200   29.8790   46.8050 N   0  0  0  0  0  0  0  0  0  0  0  0
   59.0670   30.4960   47.2040 C   0  0  0  0  0  0  0  0  0  0  0  0
   58.9860   31.5450   48.2720 C   0  0  0  0  0  0  0  0  0  0  0  0
   61.6562   30.8213   48.1085 H   0  0  0  0  0  0  0  0  0  0  0  0
   62.4339   30.2073   46.6102 H   0  0  0  0  0  0  0  0  0  0  0  0
   61.6261   31.8118   46.6102 H   0  0  0  0  0  0  0  0  0  0  0  0
   61.2366   28.8498   45.1334 H   0  0  0  0  0  0  0  0  0  0  0  0
   59.0998   27.7583   44.4511 H   0  0  0  0  0  0  0  0  0  0  0  0
   55.9347   28.9158   42.8536 H   0  0  0  0  0  0  0  0  0  0  0  0
   54.6220   30.0629   43.3133 H   0  0  0  0  0  0  0  0  0  0  0  0
   56.7490   30.8463   41.3841 H   0  0  0  0  0  0  0  0  0  0  0  0
   58.3509   32.7685   41.3594 H   0  0  0  0  0  0  0  0  0  0  0  0
   59.0755   33.8066   43.5174 H   0  0  0  0  0  0  0  0  0  0  0  0
   58.1846   32.9090   45.6735 H   0  0  0  0  0  0  0  0  0  0  0  0
   56.6470   31.0570   45.6350 H   0  0  0  0  0  0  0  0  0  0  0  0
   59.0231   31.0649   49.2610 H   0  0  0  0  0  0  0  0  0  0  0  0
   59.8332   32.2390   48.1693 H   0  0  0  0  0  0  0  0  0  0  0  0
   58.0423   32.1007   48.1693 H   0  0  0  0  0  0  0  0  0  0  0  0
  1  2  1  0
  2  3  2  0
  3  4  1  0
  4  5  2  0
  5  6  1  0
  6  7  2  0
  6  8  1  0
  8  9  1  0
  9 10  1  0
 10 11  2  0
 11 12  1  0
 12 13  2  0
 13 14  1  0
 14 15  2  0
  5 16  1  0
 16 17  2  0
 17 18  1  0
 17  2  1  0
 15 10  1  0
  1 19  1  0
  1 20  1  0
  1 21  1  0
  3 22  1  0
  4 23  1  0
  9 24  1  0
  9 25  1  0
 11 26  1  0
 12 27  1  0
 13 28  1  0
 14 29  1  0
 15 30  1  0
 18 31  1  0
 18 32  1  0
 18 33  1  0
M  CHG  2   8  -1  15   1
M  END
>  <UniqueID>  (38) 
36

>  <SMILES>  (38) 
Cc1ccc(C(=O)[N-]Cc2cccc[nH+]2)nc1C

>  <Energy>  (38) 
30.539500299685994

>  <Genealogy>  (38) 
Cc1ccc(C(=O)[N-]Cc2cccc[nH+]2)nc1C (protonated)
Cc1ccc(C(=O)[N-]Cc2cccc[nH+]2)nc1C (3D coordinates assigned)
Cc1ccc(C(=O)[N-]Cc2cccc[nH+]2)nc1C (optimized conformer: 30.539500299685994 kcal/mol)

>  <smiles>  (38) 
Cc1ccc(C(=O)NCc2ccccn2)nc1C

>  <score_type>  (38) 
oracle

>  <origin>  (38) 
adg

>  <m_score__min__energy>  (38) 
-6.9000000000000004

>  <m_primary>  (38) 
energy

$$$$
38:0
     RDKit          3D

 57 60  0  0  0  0  0  0  0  0999 V2000
   51.1170   23.6220   44.3380 C   0  0  0  0  0  0  0  0  0  0  0  0
   51.5820   22.3830   44.8650 O   0  0  0  0  0  0  0  0  0  0  0  0
   52.2670   22.2510   46.0830 C   0  0  0  0  0  0  0  0  0  0  0  0
   51.7390   21.5300   47.1720 C   0  0  0  0  0  0  0  0  0  0  0  0
   52.4650   21.4220   48.3600 C   0  0  0  0  0  0  0  0  0  0  0  0
   53.7150   22.0310   48.4780 C   0  0  0  0  0  0  0  0  0  0  0  0
   54.2470   22.7670   47.4070 C   0  0  0  0  0  0  0  0  0  0  0  0
   55.5920   23.4330   47.5320 C   0  0  0  0  0  0  0  0  0  0  0  0
   55.5320   24.7970   47.1110 O   0  0  0  0  0  0  0  0  0  0  0  0
   56.3510   25.3850   46.1320 C   0  0  0  0  0  0  0  0  0  0  0  0
   56.9090   26.6670   46.2920 C   0  0  0  0  0  0  0  0  0  0  0  0
   57.6750   27.2490   45.2680 C   0  0  0  0  0  0  0  0  0  0  0  0
   58.2380   28.5620   45.4180 N   0  0  0  0  0  0  0  0  0  0  0  0
   57.4590   29.7670   45.3530 C   0  0  0  0  0  0  0  0  0  0  0  0
   56.2910   29.7470   44.8770 O   0  0  0  0  0  0  0  0  0  0  0  0
   58.0260   31.0470   45.8040 C   0  0  0  0  0  0  0  0  0  0  0  0
   57.4090   32.2350   45.6270 N   0  0  0  0  0  0  0  0  0  0  0  0
   58.2590   33.1280   46.1620 C   0  0  0  0  0  0  0  0  0  0  0  0
   59.3680   32.4630   46.6450 C   0  0  0  0  0  0  0  0  0  0  0  0
   60.5430   33.0560   47.3270 C   0  0  0  0  0  0  0  0  0  0  0  0
   60.4100   33.7480   48.5470 C   0  0  0  0  0  0  0  0  0  0  0  0
   61.5310   34.2990   49.1740 C   0  0  0  0  0  0  0  0  0  0  0  0
   62.7940   34.1680   48.5950 C   0  0  0  0  0  0  0  0  0  0  0  0
   62.9400   33.4860   47.3840 C   0  0  0  0  0  0  0  0  0  0  0  0
   61.8230   32.9360   46.7510 C   0  0  0  0  0  0  0  0  0  0  0  0
   59.2210   31.1430   46.4210 N   0  0  0  0  0  0  0  0  0  0  0  0
   57.9310   26.5160   44.1020 C   0  0  0  0  0  0  0  0  0  0  0  0
   57.3920   25.2390   43.9420 C   0  0  0  0  0  0  0  0  0  0  0  0
   56.6080   24.6710   44.9510 C   0  0  0  0  0  0  0  0  0  0  0  0
   56.0480   23.3740   44.7500 N   0  0  0  0  0  0  0  0  0  0  0  0
   56.7810   22.2350   43.6720 S   0  0  0  0  0  0  0  0  0  0  0  0
   58.4880   22.0060   44.1190 C   0  0  0  0  0  0  0  0  0  0  0  0
   56.7100   22.7730   42.2700 O   0  0  0  0  0  0  0  0  0  0  0  0
   56.0540   20.9200   43.7320 O   0  0  0  0  0  0  0  0  0  0  0  0
   53.5210   22.8610   46.2090 C   0  0  0  0  0  0  0  0  0  0  0  0
   50.8625   24.3001   45.1659 H   0  0  0  0  0  0  0  0  0  0  0  0
   51.9056   24.0769   43.7206 H   0  0  0  0  0  0  0  0  0  0  0  0
   50.2238   23.4457   43.7206 H   0  0  0  0  0  0  0  0  0  0  0  0
   50.7525   21.0510   47.0863 H   0  0  0  0  0  0  0  0  0  0  0  0
   52.0499   20.8547   49.2061 H   0  0  0  0  0  0  0  0  0  0  0  0
   54.2857   21.9341   49.4134 H   0  0  0  0  0  0  0  0  0  0  0  0
   55.9152   23.3953   48.5828 H   0  0  0  0  0  0  0  0  0  0  0  0
   56.3069   22.8999   46.8880 H   0  0  0  0  0  0  0  0  0  0  0  0
   56.7437   27.2193   47.2288 H   0  0  0  0  0  0  0  0  0  0  0  0
   59.2770   28.6450   45.4970 H   0  0  0  0  0  0  0  0  0  0  0  0
   58.0969   34.2150   46.2077 H   0  0  0  0  0  0  0  0  0  0  0  0
   59.4175   33.8553   49.0090 H   0  0  0  0  0  0  0  0  0  0  0  0
   61.4174   34.8374   50.1265 H   0  0  0  0  0  0  0  0  0  0  0  0
   63.6745   34.6015   49.0918 H   0  0  0  0  0  0  0  0  0  0  0  0
   63.9360   33.3822   46.9287 H   0  0  0  0  0  0  0  0  0  0  0  0
   61.9437   32.4050   45.7952 H   0  0  0  0  0  0  0  0  0  0  0  0
   58.5593   26.9488   43.3096 H   0  0  0  0  0  0  0  0  0  0  0  0
   57.5849   24.6759   43.0169 H   0  0  0  0  0  0  0  0  0  0  0  0
   58.5815   21.9935   45.2149 H   0  0  0  0  0  0  0  0  0  0  0  0
   58.8494   21.0513   43.7092 H   0  0  0  0  0  0  0  0  0  0  0  0
   59.0883   22.8317   43.7092 H   0  0  0  0  0  0  0  0  0  0  0  0
   53.9419   23.4199   45.3602 H   0  0  0  0  0  0  0  0  0  0  0  0
  1  2  1  0
  2  3  1  0
  3  4  2  0
  4  5  1  0
  5  6  2  0
  6  7  1  0
  7  8  1  0
  8  9  1  0
  9 10  1  0
 10 11  2  0
 11 12  1  0
 12 13  1  0
 13 14  1  0
 14 15  2  0
 14 16  1  0
 16 17  2  0
 17 18  1  0
 18 19  2  0
 19 20  1  0
 20 21  2  0
 21 22  1  0
 22 23  2  0
 23 24  1  0
 24 25  2  0
 19 26  1  0
 12 27  2  0
 27 28  1  0
 28 29  2  0
 29 30  1  0
 30 31  1  0
 31 32  1  0
 31 33  2  0
 31 34  2  0
  7 35  2  0
 35  3  1  0
 29 10  1  0
 26 16  1  0
 25 20  1  0
  1 36  1  0
  1 37  1  0
  1 38  1  0
  4 39  1  0
  5 40  1  0
  6 41  1  0
  8 42  1  0
  8 43  1  0
 11 44  1  0
 13 45  1  0
 18 46  1  0
 21 47  1  0
 22 48  1  0
 23 49  1  0
 24 50  1  0
 25 51  1  0
 27 52  1  0
 28 53  1  0
 32 54  1  0
 32 55  1  0
 32 56  1  0
 35 57  1  0
M  CHG  2  26  -1  30  -1
M  END
>  <UniqueID>  (39) 
37

>  <SMILES>  (39) 
COc1cccc(COc2cc(NC(=O)c3ncc(-c4ccccc4)[n-]3)ccc2[N-]S(C)(=O)=O)c1

>  <Energy>  (39) 
96.08207875622038

>  <Genealogy>  (39) 
COc1cccc(COc2cc(NC(=O)c3ncc(-c4ccccc4)[n-]3)ccc2[N-]S(C)(=O)=O)c1 (protonated)
COc1cccc(COc2cc(NC(=O)c3ncc(-c4ccccc4)[n-]3)ccc2[N-]S(C)(=O)=O)c1 (3D coordinates assigned)
COc1cccc(COc2cc(NC(=O)c3ncc(-c4ccccc4)[n-]3)ccc2[N-]S(C)(=O)=O)c1 (optimized conformer: 96.08207875622038 kcal/mol)

>  <smiles>  (39) 
COc1cccc(COc2cc(NC(=O)c3ncc(-c4ccccc4)[nH]3)ccc2NS(C)(=O)=O)c1

>  <score_type>  (39) 
oracle

>  <origin>  (39) 
adg

>  <m_score__min__energy>  (39) 
-11.85

>  <m_primary>  (39) 
energy

$$$$
39:0
     RDKit          3D

 35 37  0  0  0  0  0  0  0  0999 V2000
   61.0750   27.6681   47.6554 H   0  0  0  0  0  0  0  0  0  0  0  0
   60.3800   27.8780   46.8290 C   0  0  0  0  0  0  0  0  0  0  0  0
   60.8110   28.3110   45.2650 S   0  0  0  0  0  0  0  0  0  0  0  0
   59.2510   28.4390   44.6570 C   0  0  0  0  0  0  0  0  0  0  0  0
   58.9802   28.7240   43.6297 H   0  0  0  0  0  0  0  0  0  0  0  0
   58.3600   28.1220   45.6780 C   0  0  0  0  0  0  0  0  0  0  0  0
   56.8710   28.1950   45.4920 C   0  0  0  0  0  0  0  0  0  0  0  0
   56.3822   27.8777   46.4249 H   0  0  0  0  0  0  0  0  0  0  0  0
   56.6043   27.5349   44.6534 H   0  0  0  0  0  0  0  0  0  0  0  0
   56.4170   29.5470   45.1590 N   0  0  0  0  0  0  0  0  0  0  0  0
   56.7410   30.3780   44.2020 C   0  0  0  0  0  0  0  0  0  0  0  0
   57.5210   31.5610   44.3700 C   0  0  0  0  0  0  0  0  0  0  0  0
   57.9570   32.1190   45.6650 C   0  0  0  0  0  0  0  0  0  0  0  0
   57.9620   33.5070   45.8680 C   0  0  0  0  0  0  0  0  0  0  0  0
   57.5750   34.1775   45.0865 H   0  0  0  0  0  0  0  0  0  0  0  0
   58.4580   34.0400   47.0620 C   0  0  0  0  0  0  0  0  0  0  0  0
   58.4341   35.1268   47.2300 H   0  0  0  0  0  0  0  0  0  0  0  0
   58.9840   33.1940   48.0420 C   0  0  0  0  0  0  0  0  0  0  0  0
   59.3644   33.6144   48.9846 H   0  0  0  0  0  0  0  0  0  0  0  0
   59.0270   31.8140   47.8250 C   0  0  0  0  0  0  0  0  0  0  0  0
   59.5520   30.9950   48.7690 F   0  0  0  0  0  0  0  0  0  0  0  0
   58.5280   31.2770   46.6340 C   0  0  0  0  0  0  0  0  0  0  0  0
   58.5827   30.1930   46.4555 H   0  0  0  0  0  0  0  0  0  0  0  0
   57.8540   32.3080   43.2330 C   0  0  0  0  0  0  0  0  0  0  0  0
   58.4661   33.2165   43.3328 H   0  0  0  0  0  0  0  0  0  0  0  0
   57.4120   31.9030   41.9780 C   0  0  0  0  0  0  0  0  0  0  0  0
   57.7330   32.7080   40.7580 C   0  0  0  0  0  0  0  0  0  0  0  0
   58.1248   33.6906   41.0597 H   0  0  0  0  0  0  0  0  0  0  0  0
   58.4893   32.1799   40.1588 H   0  0  0  0  0  0  0  0  0  0  0  0
   56.8208   32.8452   40.1588 H   0  0  0  0  0  0  0  0  0  0  0  0
   56.6420   30.7940   41.8760 N   0  0  0  0  0  0  0  0  0  0  0  0
   56.3190   30.0620   42.9420 N   0  0  0  0  0  0  0  0  0  0  0  0
   55.7360   29.2080   42.7930 H   0  0  0  0  0  0  0  0  0  0  0  0
   58.9950   27.8310   46.8980 C   0  0  0  0  0  0  0  0  0  0  0  0
   58.4459   27.5890   47.8199 H   0  0  0  0  0  0  0  0  0  0  0  0
  1  2  1  0
  2  3  1  0
  3  4  1  0
  4  5  1  0
  4  6  2  0
  6  7  1  0
  7  8  1  0
  7  9  1  0
  7 10  1  0
 10 11  2  0
 11 12  1  0
 12 13  1  0
 13 14  2  0
 14 15  1  0
 14 16  1  0
 16 17  1  0
 16 18  2  0
 18 19  1  0
 18 20  1  0
 20 21  1  0
 20 22  2  0
 22 23  1  0
 12 24  2  0
 24 25  1  0
 24 26  1  0
 26 27  1  0
 27 28  1  0
 27 29  1  0
 27 30  1  0
 26 31  2  0
 31 32  1  0
 32 33  1  0
  6 34  1  0
 34 35  1  0
 34  2  2  0
 32 11  1  0
 22 13  1  0
M  END
>  <UniqueID>  (40) 
38

>  <SMILES>  (40) 
Cc1cc(-c2cccc(F)c2)/c(=N\Cc2ccsc2)[nH]n1

>  <Energy>  (40) 
77.51393816318489

>  <Genealogy>  (40) 
Cc1cc(-c2cccc(F)c2)/c(=N\Cc2ccsc2)[nH]n1 (cis-trans isomerization)
Cc1cc(-c2cccc(F)c2)/c(=N\Cc2ccsc2)[nH]n1 (3D coordinates assigned)
Cc1cc(-c2cccc(F)c2)/c(=N\Cc2ccsc2)[nH]n1 (optimized conformer: 77.51393816318489 kcal/mol)

>  <smiles>  (40) 
Cc1cc(-c2cccc(F)c2)c(=NCc2ccsc2)[nH]n1

>  <score_type>  (40) 
oracle

>  <origin>  (40) 
adg

>  <m_score__min__energy>  (40) 
-7.6299999999999999

>  <m_primary>  (40) 
energy

$$$$
40:0
     RDKit          3D

 66 70  0  0  0  0  0  0  0  0999 V2000
   57.5412   28.8342   45.4175 H   0  0  0  0  0  0  0  0  0  0  0  0
   57.3740   27.8380   45.8530 C   0  0  0  0  0  0  0  0  0  0  0  0
   56.1960   27.1940   45.6400 N   0  0  0  0  0  0  0  0  0  0  0  0
   55.9380   25.9570   46.1430 C   0  0  0  0  0  0  0  0  0  0  0  0
   54.7740   25.4210   45.9060 N   0  0  0  0  0  0  0  0  0  0  0  0
   54.4590   24.0230   45.8650 C   0  0  0  0  0  0  0  0  0  0  0  0
   53.2540   23.6740   45.7400 O   0  0  0  0  0  0  0  0  0  0  0  0
   55.5020   23.0360   45.9060 N   0  0  0  0  0  0  0  0  0  0  0  0
   56.4880   23.3530   46.0450 H   0  0  0  0  0  0  0  0  0  0  0  0
   55.2410   21.6250   45.9480 C   0  0  0  0  0  0  0  0  0  0  0  0
   54.6530   21.0790   47.0970 C   0  0  0  0  0  0  0  0  0  0  0  0
   54.3954   21.7350   47.9416 H   0  0  0  0  0  0  0  0  0  0  0  0
   54.3900   19.7040   47.1800 C   0  0  0  0  0  0  0  0  0  0  0  0
   53.7080   19.1340   48.3880 C   0  0  0  0  0  0  0  0  0  0  0  0
   54.1822   19.5303   49.2980 H   0  0  0  0  0  0  0  0  0  0  0  0
   52.6448   19.4159   48.3760 H   0  0  0  0  0  0  0  0  0  0  0  0
   53.7968   18.0377   48.3760 H   0  0  0  0  0  0  0  0  0  0  0  0
   54.7080   18.8770   46.0960 C   0  0  0  0  0  0  0  0  0  0  0  0
   54.4727   17.8033   46.1392 H   0  0  0  0  0  0  0  0  0  0  0  0
   55.3220   19.4080   44.9610 C   0  0  0  0  0  0  0  0  0  0  0  0
   55.5840   18.7460   44.1225 H   0  0  0  0  0  0  0  0  0  0  0  0
   55.6090   20.7840   44.8800 C   0  0  0  0  0  0  0  0  0  0  0  0
   56.2730   21.3390   43.7740 O   0  0  0  0  0  0  0  0  0  0  0  0
   57.6860   21.4870   43.6710 C   0  0  0  0  0  0  0  0  0  0  0  0
   58.1243   21.5329   44.6789 H   0  0  0  0  0  0  0  0  0  0  0  0
   58.1060   20.6279   43.1273 H   0  0  0  0  0  0  0  0  0  0  0  0
   57.9189   22.4144   43.1273 H   0  0  0  0  0  0  0  0  0  0  0  0
   56.9190   25.3250   46.9350 C   0  0  0  0  0  0  0  0  0  0  0  0
   56.7252   24.3332   47.3694 H   0  0  0  0  0  0  0  0  0  0  0  0
   58.1370   25.9660   47.1640 C   0  0  0  0  0  0  0  0  0  0  0  0
   58.9116   25.4720   47.7690 H   0  0  0  0  0  0  0  0  0  0  0  0
   58.3760   27.2360   46.6260 C   0  0  0  0  0  0  0  0  0  0  0  0
   59.6970   27.9200   46.8480 C   0  0  0  0  0  0  0  0  0  0  0  0
   60.1054   27.6152   47.8228 H   0  0  0  0  0  0  0  0  0  0  0  0
   60.3914   27.6318   46.0451 H   0  0  0  0  0  0  0  0  0  0  0  0
   59.5190   29.3780   46.8300 N   0  0  0  0  0  0  0  0  0  0  0  0
   59.3320   30.0990   48.0630 C   0  0  0  0  0  0  0  0  0  0  0  0
   59.5090   29.5180   49.1690 O   0  0  0  0  0  0  0  0  0  0  0  0
   58.9050   31.5420   48.0630 C   0  0  1  0  0  0  0  0  0  0  0  0
   58.0448   31.6204   48.7442 H   0  0  0  0  0  0  0  0  0  0  0  0
   60.0200   32.4300   48.5820 C   0  0  0  0  0  0  0  0  0  0  0  0
   59.9160   33.0670   49.8310 C   0  0  0  0  0  0  0  0  0  0  0  0
   59.0171   32.9177   50.4472 H   0  0  0  0  0  0  0  0  0  0  0  0
   60.9450   33.8870   50.2940 C   0  0  0  0  0  0  0  0  0  0  0  0
   60.8542   34.3802   51.2730 H   0  0  0  0  0  0  0  0  0  0  0  0
   62.0890   34.0840   49.5200 C   0  0  0  0  0  0  0  0  0  0  0  0
   62.8961   34.7313   49.8937 H   0  0  0  0  0  0  0  0  0  0  0  0
   62.2180   33.4620   48.2670 C   0  0  0  0  0  0  0  0  0  0  0  0
   63.3980   33.6710   47.4700 N   0  0  0  0  0  0  0  0  0  0  0  0
   64.5280   33.3820   47.9180 O   0  0  0  0  0  0  0  0  0  0  0  0
   63.3010   34.1910   46.2010 O   0  0  0  0  0  0  0  0  0  0  0  0
   61.1760   32.6360   47.8070 C   0  0  0  0  0  0  0  0  0  0  0  0
   61.2665   32.1442   46.8272 H   0  0  0  0  0  0  0  0  0  0  0  0
   58.4200   32.0110   46.7080 C   0  0  0  0  0  0  0  0  0  0  0  0
   57.6360   33.1760   46.6280 C   0  0  0  0  0  0  0  0  0  0  0  0
   57.3699   33.7192   47.5468 H   0  0  0  0  0  0  0  0  0  0  0  0
   57.1930   33.6480   45.3910 C   0  0  0  0  0  0  0  0  0  0  0  0
   56.5741   34.5559   45.3394 H   0  0  0  0  0  0  0  0  0  0  0  0
   57.5340   32.9700   44.2200 C   0  0  0  0  0  0  0  0  0  0  0  0
   57.1852   33.3445   43.2463 H   0  0  0  0  0  0  0  0  0  0  0  0
   58.3180   31.8160   44.2840 C   0  0  0  0  0  0  0  0  0  0  0  0
   58.5958   31.2922   43.3575 H   0  0  0  0  0  0  0  0  0  0  0  0
   58.7540   31.3200   45.5230 C   0  0  0  0  0  0  0  0  0  0  0  0
   59.6400   30.1030   45.5590 C   0  0  0  0  0  0  0  0  0  0  0  0
   60.6853   30.4195   45.4277 H   0  0  0  0  0  0  0  0  0  0  0  0
   59.3267   29.4279   44.7490 H   0  0  0  0  0  0  0  0  0  0  0  0
  1  2  1  0
  2  3  1  0
  3  4  1  0
  4  5  2  0
  5  6  1  0
  6  7  2  0
  6  8  1  0
  8  9  1  0
  8 10  1  0
 10 11  2  0
 11 12  1  0
 11 13  1  0
 13 14  1  0
 14 15  1  0
 14 16  1  0
 14 17  1  0
 13 18  2  0
 18 19  1  0
 18 20  1  0
 20 21  1  0
 20 22  2  0
 22 23  1  0
 23 24  1  0
 24 25  1  0
 24 26  1  0
 24 27  1  0
  4 28  1  0
 28 29  1  0
 28 30  2  0
 30 31  1  0
 30 32  1  0
 32 33  1  0
 33 34  1  0
 33 35  1  0
 33 36  1  0
 36 37  1  0
 37 38  2  0
 37 39  1  0
 39 40  1  1
 39 41  1  0
 41 42  2  0
 42 43  1  0
 42 44  1  0
 44 45  1  0
 44 46  2  0
 46 47  1  0
 46 48  1  0
 48 49  1  0
 49 50  2  0
 49 51  1  0
 48 52  2  0
 52 53  1  0
 39 54  1  0
 54 55  2  0
 55 56  1  0
 55 57  1  0
 57 58  1  0
 57 59  2  0
 59 60  1  0
 59 61  1  0
 61 62  1  0
 61 63  2  0
 63 64  1  0
 64 65  1  0
 64 66  1  0
 32  2  2  0
 64 36  1  0
 22 10  1  0
 52 41  1  0
 63 54  1  0
M  CHG  3   3  -1  49   1  51  -1
M  END
>  <UniqueID>  (41) 
39

>  <SMILES>  (41) 
COc1ccc(C)cc1NC(=O)/N=c1\ccc(CN2Cc3ccccc3[C@H](c3cccc([N+](=O)[O-])c3)C2=O)c[n-]1

>  <Energy>  (41) 
87.42149123972834

>  <Genealogy>  (41) 
COc1ccc(C)cc1NC(=O)N=c1ccc(CN2Cc3ccccc3C(c3cccc([N+](=O)[O-])c3)C2=O)c[n-]1 (protonated)
COc1ccc(C)cc1NC(=O)N=c1ccc(CN2Cc3ccccc3[C@H](c3cccc([N+](=O)[O-])c3)C2=O)c[n-]1 (chirality)
COc1ccc(C)cc1NC(=O)/N=c1\ccc(CN2Cc3ccccc3[C@H](c3cccc([N+](=O)[O-])c3)C2=O)c[n-]1 (cis-trans isomerization)
COc1ccc(C)cc1NC(=O)/N=c1\ccc(CN2Cc3ccccc3[C@H](c3cccc([N+](=O)[O-])c3)C2=O)c[n-]1 (3D coordinates assigned)
COc1ccc(C)cc1NC(=O)/N=c1\ccc(CN2Cc3ccccc3[C@H](c3cccc([N+](=O)[O-])c3)C2=O)c[n-]1 (nonaromatic ring conformer: 87.42149123972834 kcal/mol)

>  <smiles>  (41) 
COc1ccc(C)cc1NC(=O)N=c1ccc(CN2Cc3ccccc3C(c3cccc([N+](=O)[O-])c3)C2=O)c[nH]1

>  <score_type>  (41) 
oracle

>  <origin>  (41) 
adg

>  <m_score__min__energy>  (41) 
-13.08

>  <m_primary>  (41) 
energy

$$$$
41:0
     RDKit          3D

 35 37  0  0  0  0  0  0  0  0999 V2000
   58.5622   30.5443   46.5209 H   0  0  0  0  0  0  0  0  0  0  0  0
   58.0550   30.4440   45.5500 C   0  0  0  0  0  0  0  0  0  0  0  0
   58.2400   31.4170   44.5650 C   0  0  0  0  0  0  0  0  0  0  0  0
   58.8834   32.2857   44.7682 H   0  0  0  0  0  0  0  0  0  0  0  0
   57.6090   31.2920   43.3170 C   0  0  0  0  0  0  0  0  0  0  0  0
   57.8330   32.3210   42.2480 C   0  0  0  0  0  0  0  0  0  0  0  0
   58.0449   33.2943   42.7146 H   0  0  0  0  0  0  0  0  0  0  0  0
   58.6868   32.0204   41.6229 H   0  0  0  0  0  0  0  0  0  0  0  0
   56.9316   32.4025   41.6229 H   0  0  0  0  0  0  0  0  0  0  0  0
   56.8190   30.1590   43.0550 C   0  0  0  0  0  0  0  0  0  0  0  0
   56.2330   29.9910   41.8430 F   0  0  0  0  0  0  0  0  0  0  0  0
   56.6360   29.1870   44.0450 C   0  0  0  0  0  0  0  0  0  0  0  0
   56.0254   28.2976   43.8304 H   0  0  0  0  0  0  0  0  0  0  0  0
   57.2240   29.3380   45.3060 C   0  0  0  0  0  0  0  0  0  0  0  0
   57.0660   28.2970   46.2810 N   0  0  0  0  0  0  0  0  0  0  0  0
   56.8650   27.0280   46.0570 C   0  0  0  0  0  0  0  0  0  0  0  0
   57.9480   26.2230   45.8940 N   0  0  0  0  0  0  0  0  0  0  0  0
   57.8230   24.8940   45.6520 C   0  0  0  0  0  0  0  0  0  0  0  0
   58.8600   24.1910   45.5160 O   0  0  0  0  0  0  0  0  0  0  0  0
   56.5450   24.3220   45.5560 C   0  0  0  0  0  0  0  0  0  0  0  0
   56.3540   22.9530   45.3100 C   0  0  0  0  0  0  0  0  0  0  0  0
   57.2239   22.2899   45.1934 H   0  0  0  0  0  0  0  0  0  0  0  0
   55.0620   22.4310   45.2130 C   0  0  0  0  0  0  0  0  0  0  0  0
   54.9218   21.3568   45.0222 H   0  0  0  0  0  0  0  0  0  0  0  0
   53.9450   23.2600   45.3560 C   0  0  0  0  0  0  0  0  0  0  0  0
   52.6700   22.6830   45.2460 O   0  0  0  0  0  0  0  0  0  0  0  0
   51.4530   23.4190   45.2030 C   0  0  0  0  0  0  0  0  0  0  0  0
   51.1126   23.6249   46.2285 H   0  0  0  0  0  0  0  0  0  0  0  0
   51.6176   24.3691   44.6736 H   0  0  0  0  0  0  0  0  0  0  0  0
   50.6880   22.8320   44.6736 H   0  0  0  0  0  0  0  0  0  0  0  0
   54.1310   24.6340   45.6020 C   0  0  0  0  0  0  0  0  0  0  0  0
   53.2570   25.2925   45.7134 H   0  0  0  0  0  0  0  0  0  0  0  0
   55.4260   25.1690   45.7060 C   0  0  0  0  0  0  0  0  0  0  0  0
   55.6080   26.5000   45.9440 N   0  0  0  0  0  0  0  0  0  0  0  0
   54.7650   27.1140   46.0000 H   0  0  0  0  0  0  0  0  0  0  0  0
  1  2  1  0
  2  3  2  0
  3  4  1  0
  3  5  1  0
  5  6  1  0
  6  7  1  0
  6  8  1  0
  6  9  1  0
  5 10  2  0
 10 11  1  0
 10 12  1  0
 12 13  1  0
 12 14  2  0
 14 15  1  0
 15 16  2  0
 16 17  1  0
 17 18  1  0
 18 19  2  0
 18 20  1  0
 20 21  2  0
 21 22  1  0
 21 23  1  0
 23 24  1  0
 23 25  2  0
 25 26  1  0
 26 27  1  0
 27 28  1  0
 27 29  1  0
 27 30  1  0
 25 31  1  0
 31 32  1  0
 31 33  2  0
 33 34  1  0
 34 35  1  0
 14  2  1  0
 34 16  1  0
 33 20  1  0
M  CHG  1  17  -1
M  END
>  <UniqueID>  (42) 
40

>  <SMILES>  (42) 
COc1ccc2c(=O)[n-]/c(=N/c3ccc(C)c(F)c3)[nH]c2c1

>  <Energy>  (42) 
50.39274714320548

>  <Genealogy>  (42) 
COc1ccc2c(=O)[n-]c(=Nc3ccc(C)c(F)c3)[nH]c2c1 (protonated)
COc1ccc2c(=O)[n-]/c(=N/c3ccc(C)c(F)c3)[nH]c2c1 (cis-trans isomerization)
COc1ccc2c(=O)[n-]/c(=N/c3ccc(C)c(F)c3)[nH]c2c1 (3D coordinates assigned)
COc1ccc2c(=O)[n-]/c(=N/c3ccc(C)c(F)c3)[nH]c2c1 (optimized conformer: 50.39274714320548 kcal/mol)

>  <smiles>  (42) 
COc1ccc2c(=O)[nH]c(=Nc3ccc(C)c(F)c3)[nH]c2c1

>  <score_type>  (42) 
oracle

>  <origin>  (42) 
adg

>  <m_score__min__energy>  (42) 
-8.5299999999999994

>  <m_primary>  (42) 
energy

$$$$
42:0
     RDKit          3D

 55 57  0  0  0  0  0  0  0  0999 V2000
   54.7810   26.3480   45.9070 O   0  0  0  0  0  0  0  0  0  0  0  0
   55.6180   25.4100   45.9840 C   0  0  0  0  0  0  0  0  0  0  0  0
   55.9880   24.9210   47.2290 O   0  0  0  0  0  0  0  0  0  0  0  0
   56.2400   24.8480   44.7440 C   0  0  0  0  0  0  0  0  0  0  0  0
   57.6350   25.4290   44.4980 C   0  0  0  0  0  0  0  0  0  0  0  0
   57.9330   26.5730   45.4220 C   0  0  0  0  0  0  0  0  0  0  0  0
   57.7840   27.7540   45.0070 O   0  0  0  0  0  0  0  0  0  0  0  0
   58.3160   26.3220   46.7830 N   0  0  0  0  0  0  0  0  0  0  0  0
   58.9540   27.2840   47.6390 C   0  0  0  0  0  0  0  0  0  0  0  0
   58.5220   28.6220   47.6920 C   0  0  0  0  0  0  0  0  0  0  0  0
   59.1950   29.5510   48.4910 C   0  0  0  0  0  0  0  0  0  0  0  0
   60.3240   29.1700   49.2310 C   0  0  0  0  0  0  0  0  0  0  0  0
   61.0530   30.1750   50.0400 C   0  0  0  0  0  0  0  0  0  0  0  0
   60.7190   30.3620   51.2400 O   0  0  0  0  0  0  0  0  0  0  0  0
   62.1530   30.9300   49.5110 N   0  0  0  0  0  0  0  0  0  0  0  0
   62.1020   31.9050   48.4580 C   0  0  0  0  0  0  0  0  0  0  0  0
   63.2800   32.2110   47.7640 C   0  0  0  0  0  0  0  0  0  0  0  0
   63.2760   33.1770   46.7540 C   0  0  0  0  0  0  0  0  0  0  0  0
   62.0940   33.8470   46.4300 C   0  0  0  0  0  0  0  0  0  0  0  0
   60.9140   33.5780   47.1390 C   0  0  0  0  0  0  0  0  0  0  0  0
   59.4140   34.4030   46.7160 S   0  0  0  0  0  0  0  0  0  0  0  0
   59.6520   35.2430   45.4900 O   0  0  0  0  0  0  0  0  0  0  0  0
   59.0520   35.3380   47.8380 O   0  0  0  0  0  0  0  0  0  0  0  0
   58.0690   33.3210   46.4280 N   0  0  0  0  0  0  0  0  0  0  0  0
   57.2960   33.6160   45.2050 C   0  0  0  0  0  0  0  0  0  0  0  0
   57.8510   32.9250   43.9540 C   0  0  0  0  0  0  0  0  0  0  0  0
   58.0070   31.4250   44.1920 C   0  0  0  0  0  0  0  0  0  0  0  0
   58.9180   31.1820   45.3910 C   0  0  0  0  0  0  0  0  0  0  0  0
   58.3820   31.8940   46.6440 C   0  0  0  0  0  0  0  0  0  0  0  0
   60.9220   32.6090   48.1530 C   0  0  0  0  0  0  0  0  0  0  0  0
   60.7520   27.8330   49.1800 C   0  0  0  0  0  0  0  0  0  0  0  0
   60.0800   26.9040   48.3820 C   0  0  0  0  0  0  0  0  0  0  0  0
   56.3219   23.7561   44.8494 H   0  0  0  0  0  0  0  0  0  0  0  0
   55.6015   25.1142   43.8887 H   0  0  0  0  0  0  0  0  0  0  0  0
   58.3831   24.6385   44.6573 H   0  0  0  0  0  0  0  0  0  0  0  0
   57.6713   25.8054   43.4650 H   0  0  0  0  0  0  0  0  0  0  0  0
   58.1170   25.3720   47.1740 H   0  0  0  0  0  0  0  0  0  0  0  0
   57.6498   28.9389   47.1014 H   0  0  0  0  0  0  0  0  0  0  0  0
   58.8361   30.5897   48.5398 H   0  0  0  0  0  0  0  0  0  0  0  0
   64.2141   31.6875   48.0157 H   0  0  0  0  0  0  0  0  0  0  0  0
   64.2052   33.4100   46.2134 H   0  0  0  0  0  0  0  0  0  0  0  0
   62.0885   34.5876   45.6167 H   0  0  0  0  0  0  0  0  0  0  0  0
   56.2595   33.2808   45.3580 H   0  0  0  0  0  0  0  0  0  0  0  0
   57.3604   34.7006   45.0332 H   0  0  0  0  0  0  0  0  0  0  0  0
   57.1591   33.0876   43.1144 H   0  0  0  0  0  0  0  0  0  0  0  0
   58.8382   33.3514   43.7223 H   0  0  0  0  0  0  0  0  0  0  0  0
   57.0194   30.9822   44.3885 H   0  0  0  0  0  0  0  0  0  0  0  0
   58.4515   30.9608   43.2993 H   0  0  0  0  0  0  0  0  0  0  0  0
   58.9732   30.1011   45.5875 H   0  0  0  0  0  0  0  0  0  0  0  0
   59.9157   31.5833   45.1599 H   0  0  0  0  0  0  0  0  0  0  0  0
   57.4638   31.3823   46.9681 H   0  0  0  0  0  0  0  0  0  0  0  0
   59.1770   31.8507   47.4030 H   0  0  0  0  0  0  0  0  0  0  0  0
   59.9996   32.3978   48.7138 H   0  0  0  0  0  0  0  0  0  0  0  0
   61.6225   27.5153   49.7727 H   0  0  0  0  0  0  0  0  0  0  0  0
   60.4378   25.8648   48.3364 H   0  0  0  0  0  0  0  0  0  0  0  0
  1  2  2  0
  2  3  1  0
  2  4  1  0
  4  5  1  0
  5  6  1  0
  6  7  2  0
  6  8  1  0
  8  9  1  0
  9 10  2  0
 10 11  1  0
 11 12  2  0
 12 13  1  0
 13 14  2  0
 13 15  1  0
 15 16  1  0
 16 17  2  0
 17 18  1  0
 18 19  2  0
 19 20  1  0
 20 21  1  0
 21 22  2  0
 21 23  2  0
 21 24  1  0
 24 25  1  0
 25 26  1  0
 26 27  1  0
 27 28  1  0
 28 29  1  0
 20 30  2  0
 12 31  1  0
 31 32  2  0
 32  9  1  0
 30 16  1  0
 29 24  1  0
  4 33  1  0
  4 34  1  0
  5 35  1  0
  5 36  1  0
  8 37  1  0
 10 38  1  0
 11 39  1  0
 17 40  1  0
 18 41  1  0
 19 42  1  0
 25 43  1  0
 25 44  1  0
 26 45  1  0
 26 46  1  0
 27 47  1  0
 27 48  1  0
 28 49  1  0
 28 50  1  0
 29 51  1  0
 29 52  1  0
 30 53  1  0
 31 54  1  0
 32 55  1  0
M  CHG  2   3  -1  15  -1
M  END
>  <UniqueID>  (43) 
41

>  <SMILES>  (43) 
O=C([O-])CCC(=O)Nc1ccc(C(=O)[N-]c2cccc(S(=O)(=O)N3CCCCC3)c2)cc1

>  <Energy>  (43) 
62.50372232116574

>  <Genealogy>  (43) 
O=C([O-])CCC(=O)Nc1ccc(C(=O)[N-]c2cccc(S(=O)(=O)N3CCCCC3)c2)cc1 (protonated)
O=C([O-])CCC(=O)Nc1ccc(C(=O)[N-]c2cccc(S(=O)(=O)N3CCCCC3)c2)cc1 (3D coordinates assigned)
O=C([O-])CCC(=O)Nc1ccc(C(=O)[N-]c2cccc(S(=O)(=O)N3CCCCC3)c2)cc1 (nonaromatic ring conformer: 62.50372232116574 kcal/mol)

>  <smiles>  (43) 
O=C(O)CCC(=O)Nc1ccc(C(=O)Nc2cccc(S(=O)(=O)N3CCCCC3)c2)cc1

>  <score_type>  (43) 
oracle

>  <origin>  (43) 
adg

>  <m_score__min__energy>  (43) 
-14.199999999999999

>  <m_primary>  (43) 
energy

$$$$
43:0
     RDKit          3D

 47 50  0  0  0  0  0  0  0  0999 V2000
   65.0481   34.0230   48.2210 H   0  0  0  0  0  0  0  0  0  0  0  0
   64.1380   33.4290   48.3910 C   0  0  0  0  0  0  0  0  0  0  0  0
   64.2020   32.2850   49.1180 N   0  0  0  0  0  0  0  0  0  0  0  0
   63.0930   31.5310   49.3330 C   0  0  0  0  0  0  0  0  0  0  0  0
   63.1631   30.6074   49.9263 H   0  0  0  0  0  0  0  0  0  0  0  0
   61.8580   31.9290   48.7990 C   0  0  0  0  0  0  0  0  0  0  0  0
   60.6570   31.1650   49.0000 N   0  0  0  0  0  0  0  0  0  0  0  0
   59.7670   31.6610   49.2310 H   0  0  0  0  0  0  0  0  0  0  0  0
   60.6120   29.7380   48.8660 C   0  0  0  0  0  0  0  0  0  0  0  0
   60.7330   28.9370   50.0150 C   0  0  0  0  0  0  0  0  0  0  0  0
   60.9230   29.6630   51.6050 Cl  0  0  0  0  0  0  0  0  0  0  0  0
   60.7200   27.5440   49.9030 C   0  0  0  0  0  0  0  0  0  0  0  0
   60.8206   26.9207   50.8038 H   0  0  0  0  0  0  0  0  0  0  0  0
   60.5800   26.9420   48.6540 C   0  0  0  0  0  0  0  0  0  0  0  0
   60.5751   25.8451   48.5712 H   0  0  0  0  0  0  0  0  0  0  0  0
   60.4460   27.7270   47.5080 C   0  0  0  0  0  0  0  0  0  0  0  0
   60.3259   27.2430   46.5275 H   0  0  0  0  0  0  0  0  0  0  0  0
   60.4630   29.1320   47.5940 C   0  0  0  0  0  0  0  0  0  0  0  0
   60.2820   29.9410   46.3570 C   0  0  0  0  0  0  0  0  0  0  0  0
   60.6750   31.1380   46.3300 O   0  0  0  0  0  0  0  0  0  0  0  0
   59.5580   29.4380   45.2230 N   0  0  0  0  0  0  0  0  0  0  0  0
   58.2650   29.3120   45.0940 C   0  0  0  0  0  0  0  0  0  0  0  0
   57.4580   30.3030   44.4990 C   0  0  0  0  0  0  0  0  0  0  0  0
   57.9111   31.2281   44.1130 H   0  0  0  0  0  0  0  0  0  0  0  0
   56.0790   30.1020   44.4030 C   0  0  0  0  0  0  0  0  0  0  0  0
   55.4438   30.8686   43.9352 H   0  0  0  0  0  0  0  0  0  0  0  0
   55.5210   28.9620   44.8860 N   0  0  0  0  0  0  0  0  0  0  0  0
   56.2710   27.9860   45.4660 C   0  0  0  0  0  0  0  0  0  0  0  0
   55.6550   26.8010   45.9850 N   0  0  0  0  0  0  0  0  0  0  0  0
   56.3430   25.5930   46.3340 C   0  0  0  0  0  0  0  0  0  0  0  0
   56.7980   25.4750   47.5030 O   0  0  0  0  0  0  0  0  0  0  0  0
   56.5730   24.5050   45.3550 C   0  0  0  0  0  0  0  0  0  0  0  0
   57.8360   23.8930   45.2640 C   0  0  0  0  0  0  0  0  0  0  0  0
   58.6501   24.2180   45.9285 H   0  0  0  0  0  0  0  0  0  0  0  0
   58.0630   22.8740   44.3340 C   0  0  0  0  0  0  0  0  0  0  0  0
   59.0506   22.3930   44.2762 H   0  0  0  0  0  0  0  0  0  0  0  0
   57.0370   22.4660   43.4780 C   0  0  0  0  0  0  0  0  0  0  0  0
   57.2159   21.6609   42.7501 H   0  0  0  0  0  0  0  0  0  0  0  0
   55.7840   23.0800   43.5460 C   0  0  0  0  0  0  0  0  0  0  0  0
   54.9783   22.7611   42.8684 H   0  0  0  0  0  0  0  0  0  0  0  0
   55.5530   24.1000   44.4750 C   0  0  0  0  0  0  0  0  0  0  0  0
   54.5682   24.5882   44.5176 H   0  0  0  0  0  0  0  0  0  0  0  0
   57.6520   28.1580   45.5960 C   0  0  0  0  0  0  0  0  0  0  0  0
   58.2576   27.3859   46.0932 H   0  0  0  0  0  0  0  0  0  0  0  0
   61.8190   33.1200   48.0640 C   0  0  0  0  0  0  0  0  0  0  0  0
   60.8669   33.4719   47.6400 H   0  0  0  0  0  0  0  0  0  0  0  0
   62.9530   33.8420   47.8730 N   0  0  0  0  0  0  0  0  0  0  0  0
  1  2  1  0
  2  3  2  0
  3  4  1  0
  4  5  1  0
  4  6  2  0
  6  7  1  0
  7  8  1  0
  7  9  1  0
  9 10  2  0
 10 11  1  0
 10 12  1  0
 12 13  1  0
 12 14  2  0
 14 15  1  0
 14 16  1  0
 16 17  1  0
 16 18  2  0
 18 19  1  0
 19 20  2  0
 19 21  1  0
 21 22  2  0
 22 23  1  0
 23 24  1  0
 23 25  2  0
 25 26  1  0
 25 27  1  0
 27 28  1  0
 28 29  1  0
 29 30  1  0
 30 31  2  0
 30 32  1  0
 32 33  2  0
 33 34  1  0
 33 35  1  0
 35 36  1  0
 35 37  2  0
 37 38  1  0
 37 39  1  0
 39 40  1  0
 39 41  2  0
 41 42  1  0
 28 43  2  0
 43 44  1  0
  6 45  1  0
 45 46  1  0
 45 47  2  0
 47  2  1  0
 18  9  1  0
 43 22  1  0
 41 32  1  0
M  CHG  2  27  -1  29  -1
M  END
>  <UniqueID>  (44) 
42

>  <SMILES>  (44) 
O=C([N-]c1c/c(=N/C(=O)c2cccc(Cl)c2Nc2cncnc2)cc[n-]1)c1ccccc1

>  <Energy>  (44) 
79.12133785230375

>  <Genealogy>  (44) 
O=C([N-]c1cc(=NC(=O)c2cccc(Cl)c2Nc2cncnc2)cc[n-]1)c1ccccc1 (protonated)
O=C([N-]c1c/c(=N/C(=O)c2cccc(Cl)c2Nc2cncnc2)cc[n-]1)c1ccccc1 (cis-trans isomerization)
O=C([N-]c1c/c(=N/C(=O)c2cccc(Cl)c2Nc2cncnc2)cc[n-]1)c1ccccc1 (3D coordinates assigned)
O=C([N-]c1c/c(=N/C(=O)c2cccc(Cl)c2Nc2cncnc2)cc[n-]1)c1ccccc1 (optimized conformer: 79.12133785230375 kcal/mol)

>  <smiles>  (44) 
O=C(Nc1cc(=NC(=O)c2cccc(Cl)c2Nc2cncnc2)cc[nH]1)c1ccccc1

>  <score_type>  (44) 
oracle

>  <origin>  (44) 
adg

>  <m_score__min__energy>  (44) 
-13.140000000000001

>  <m_primary>  (44) 
energy

$$$$
44:0
     RDKit          3D

 53 56  0  0  1  0  0  0  0  0999 V2000
   56.2530   21.7510   42.5950 N   0  0  0  0  0  0  0  0  0  0  0  0
   56.1950   22.5200   43.8300 C   0  0  1  0  0  0  0  0  0  0  0  0
   57.4960   23.2190   44.0980 C   0  0  0  0  0  0  0  0  0  0  0  0
   57.2600   24.6160   44.5780 C   0  0  0  0  0  0  0  0  0  0  0  0
   56.2370   24.6100   45.6820 C   0  0  1  0  0  0  0  0  0  0  0  0
   57.5590   33.6010   45.8970 N   0  0  0  0  0  0  0  0  0  0  0  0
   57.7040   32.5760   45.1610 C   0  0  0  0  0  0  0  0  0  0  0  0
   57.8240   32.7220   43.7980 C   0  0  0  0  0  0  0  0  0  0  0  0
   57.9200   28.9370   45.6780 C   0  0  0  0  0  0  0  0  0  0  0  0
   57.8890   30.2290   45.0060 C   0  0  0  0  0  0  0  0  0  0  0  0
   57.7390   31.3540   45.7270 N   0  0  0  0  0  0  0  0  0  0  0  0
   57.0110   26.8200   46.2790 C   0  0  0  0  0  0  0  0  0  0  0  0
   56.0630   25.9590   46.2220 N   0  0  0  0  0  0  0  0  0  0  0  0
   58.5270   34.6040   46.1480 C   0  0  0  0  0  0  0  0  0  0  0  0
   59.7240   34.1400   46.8670 C   0  0  0  0  0  0  0  0  0  0  0  0
   59.6010   33.9990   48.2560 C   0  0  0  0  0  0  0  0  0  0  0  0
   60.6850   33.5680   49.0030 C   0  0  0  0  0  0  0  0  0  0  0  0
   61.8610   33.2770   48.4510 N   0  0  0  0  0  0  0  0  0  0  0  0
   61.9960   33.4090   47.1110 C   0  0  0  0  0  0  0  0  0  0  0  0
   60.9290   33.8390   46.3280 C   0  0  0  0  0  0  0  0  0  0  0  0
   56.8920   28.0240   45.6050 C   0  0  0  0  0  0  0  0  0  0  0  0
   57.9790   31.5710   43.0550 C   0  0  0  0  0  0  0  0  0  0  0  0
   58.0070   30.3730   43.6750 N   0  0  0  0  0  0  0  0  0  0  0  0
   59.0170   28.5830   46.4330 C   0  0  0  0  0  0  0  0  0  0  0  0
   60.3650   29.7030   46.5700 Cl  0  0  0  0  0  0  0  0  0  0  0  0
   59.1130   27.3850   47.0930 C   0  0  0  0  0  0  0  0  0  0  0  0
   58.0930   26.5070   47.0050 N   0  0  0  0  0  0  0  0  0  0  0  0
   54.9100   24.2320   45.0430 C   0  0  0  0  0  0  0  0  0  0  0  0
   55.0860   23.5380   43.7310 C   0  0  0  0  0  0  0  0  0  0  0  0
   56.9290   20.9810   42.6980 H   0  0  0  0  0  0  0  0  0  0  0  0
   56.4280   22.3380   41.7670 H   0  0  0  0  0  0  0  0  0  0  0  0
   56.0009   21.8271   44.6620 H   0  0  0  0  0  0  0  0  0  0  0  0
   58.0524   22.6628   44.8668 H   0  0  0  0  0  0  0  0  0  0  0  0
   58.0729   23.2606   43.1623 H   0  0  0  0  0  0  0  0  0  0  0  0
   58.2034   25.0363   44.9567 H   0  0  0  0  0  0  0  0  0  0  0  0
   56.8897   25.2291   43.7431 H   0  0  0  0  0  0  0  0  0  0  0  0
   56.5540   23.9218   46.4795 H   0  0  0  0  0  0  0  0  0  0  0  0
   57.7974   33.7134   43.3222 H   0  0  0  0  0  0  0  0  0  0  0  0
   58.8480   35.0194   45.1813 H   0  0  0  0  0  0  0  0  0  0  0  0
   58.0424   35.3459   46.7997 H   0  0  0  0  0  0  0  0  0  0  0  0
   58.6465   34.2299   48.7515 H   0  0  0  0  0  0  0  0  0  0  0  0
   60.5699   33.4623   50.0919 H   0  0  0  0  0  0  0  0  0  0  0  0
   62.9596   33.1738   46.6355 H   0  0  0  0  0  0  0  0  0  0  0  0
   61.0684   33.9371   45.2413 H   0  0  0  0  0  0  0  0  0  0  0  0
   55.9883   28.2479   45.0192 H   0  0  0  0  0  0  0  0  0  0  0  0
   58.0794   31.6292   41.9611 H   0  0  0  0  0  0  0  0  0  0  0  0
   58.1260   29.5430   43.0660 H   0  0  0  0  0  0  0  0  0  0  0  0
   60.0081   27.1437   47.6851 H   0  0  0  0  0  0  0  0  0  0  0  0
   58.1350   25.5750   47.5030 H   0  0  0  0  0  0  0  0  0  0  0  0
   54.3668   23.5628   45.7265 H   0  0  0  0  0  0  0  0  0  0  0  0
   54.3503   25.1608   44.8584 H   0  0  0  0  0  0  0  0  0  0  0  0
   54.1488   23.0303   43.4589 H   0  0  0  0  0  0  0  0  0  0  0  0
   55.3452   24.2805   42.9619 H   0  0  0  0  0  0  0  0  0  0  0  0
  1  2  1  0
  2  3  1  0
  3  4  1  0
  4  5  1  0
  5  6  1  0
  6  7  2  0
  7  8  1  0
  8  9  2  0
  9 10  1  0
 10 11  2  0
 11 12  1  0
 12 13  2  0
 13 14  1  0
 14 15  1  0
 15 16  2  0
 16 17  1  0
 17 18  2  0
 18 19  1  0
 19 20  2  0
 12 21  1  0
 21 22  2  0
 22 23  1  0
  9 24  1  0
 24 25  1  0
 24 26  2  0
 26 27  1  0
  5 28  1  0
 28 29  1  0
 29  2  1  0
 27  7  1  0
 23 10  1  0
 20 15  1  0
  1 30  1  0
  1 31  1  0
  2 32  1  1
  3 33  1  0
  3 34  1  0
  4 35  1  0
  4 36  1  0
  5 37  1  1
  8 38  1  0
 14 39  1  0
 14 40  1  0
 16 41  1  0
 17 42  1  0
 19 43  1  0
 20 44  1  0
 21 45  1  0
 22 46  1  0
 23 47  1  0
 26 48  1  0
 27 49  1  0
 28 50  1  0
 28 51  1  0
 29 52  1  0
 29 53  1  0
M  END
>  <smiles>  (45) 
NC1CCC(N=c2cc(-c3nc(=NCc4ccncc4)cc[nH]3)c(Cl)c[nH]2)CC1

>  <score_type>  (45) 
oracle

>  <origin>  (45) 
adg

>  <m_score__min__energy>  (45) 
-9.9499999999999993

>  <m_primary>  (45) 
energy

$$$$
45:0
     RDKit          3D

 44 46  0  0  0  0  0  0  0  0999 V2000
   66.7040   32.6630   50.0490 C   0  0  0  0  0  0  0  0  0  0  0  0
   65.2460   32.8450   50.3610 C   0  0  0  0  0  0  0  0  0  0  0  0
   64.7870   32.7230   51.6750 C   0  0  0  0  0  0  0  0  0  0  0  0
   63.4330   32.9290   51.9980 C   0  0  0  0  0  0  0  0  0  0  0  0
   63.0230   32.7690   53.4420 C   0  0  0  0  0  0  0  0  0  0  0  0
   62.5140   33.2820   50.9640 C   0  0  0  0  0  0  0  0  0  0  0  0
   61.1280   33.5100   51.1740 C   0  0  0  0  0  0  0  0  0  0  0  0
   60.6040   33.4070   52.3140 O   0  0  0  0  0  0  0  0  0  0  0  0
   60.3030   33.8590   50.1000 C   0  0  0  0  0  0  0  0  0  0  0  0
   60.8390   33.9870   48.8140 C   0  0  0  0  0  0  0  0  0  0  0  0
   59.9860   34.3510   47.6620 C   0  0  0  0  0  0  0  0  0  0  0  0
   58.8650   34.8930   47.8580 O   0  0  0  0  0  0  0  0  0  0  0  0
   60.4260   34.0930   46.3180 N   0  0  0  0  0  0  0  0  0  0  0  0
   59.5830   34.3570   45.1550 C   0  0  0  0  0  0  0  0  0  0  0  0
   58.7690   33.1380   44.8150 C   0  0  0  0  0  0  0  0  0  0  0  0
   58.2070   32.9860   43.5370 C   0  0  0  0  0  0  0  0  0  0  0  0
   57.4340   31.8600   43.2370 C   0  0  0  0  0  0  0  0  0  0  0  0
   57.2130   30.8750   44.2090 C   0  0  0  0  0  0  0  0  0  0  0  0
   56.2250   29.4650   43.8400 S   0  0  0  0  0  0  0  0  0  0  0  0
   56.0990   28.4660   45.2420 N   0  0  0  0  0  0  0  0  0  0  0  0
   54.8520   29.9000   43.4120 O   0  0  0  0  0  0  0  0  0  0  0  0
   56.8540   28.6840   42.7200 O   0  0  0  0  0  0  0  0  0  0  0  0
   57.7630   31.0310   45.4880 C   0  0  0  0  0  0  0  0  0  0  0  0
   58.5370   32.1560   45.7910 C   0  0  0  0  0  0  0  0  0  0  0  0
   62.1660   33.7630   48.6250 N   0  0  0  0  0  0  0  0  0  0  0  0
   63.0040   33.4210   49.6380 C   0  0  0  0  0  0  0  0  0  0  0  0
   64.3540   33.2100   49.3500 C   0  0  0  0  0  0  0  0  0  0  0  0
   67.2737   32.5919   50.9873 H   0  0  0  0  0  0  0  0  0  0  0  0
   66.8418   31.7407   49.4656 H   0  0  0  0  0  0  0  0  0  0  0  0
   67.0643   33.5231   49.4656 H   0  0  0  0  0  0  0  0  0  0  0  0
   65.4979   32.4608   52.4725 H   0  0  0  0  0  0  0  0  0  0  0  0
   63.8476   33.0908   54.0951 H   0  0  0  0  0  0  0  0  0  0  0  0
   62.1348   33.3865   53.6416 H   0  0  0  0  0  0  0  0  0  0  0  0
   62.7878   31.7131   53.6416 H   0  0  0  0  0  0  0  0  0  0  0  0
   59.2298   34.0333   50.2668 H   0  0  0  0  0  0  0  0  0  0  0  0
   61.3810   33.7030   46.1500 H   0  0  0  0  0  0  0  0  0  0  0  0
   58.9063   35.1946   45.3795 H   0  0  0  0  0  0  0  0  0  0  0  0
   60.2238   34.6109   44.2977 H   0  0  0  0  0  0  0  0  0  0  0  0
   58.3755   33.7555   42.7692 H   0  0  0  0  0  0  0  0  0  0  0  0
   56.9975   31.7469   42.2337 H   0  0  0  0  0  0  0  0  0  0  0  0
   55.1410   28.6100   45.6340 H   0  0  0  0  0  0  0  0  0  0  0  0
   57.5854   30.2653   46.2575 H   0  0  0  0  0  0  0  0  0  0  0  0
   58.9654   32.2716   46.7975 H   0  0  0  0  0  0  0  0  0  0  0  0
   64.7177   33.3322   48.3191 H   0  0  0  0  0  0  0  0  0  0  0  0
  1  2  1  0
  2  3  2  0
  3  4  1  0
  4  5  1  0
  4  6  2  0
  6  7  1  0
  7  8  2  0
  7  9  1  0
  9 10  2  0
 10 11  1  0
 11 12  2  0
 11 13  1  0
 13 14  1  0
 14 15  1  0
 15 16  2  0
 16 17  1  0
 17 18  2  0
 18 19  1  0
 19 20  1  0
 19 21  2  0
 19 22  2  0
 18 23  1  0
 23 24  2  0
 10 25  1  0
 25 26  1  0
 26 27  2  0
 27  2  1  0
 26  6  1  0
 24 15  1  0
  1 28  1  0
  1 29  1  0
  1 30  1  0
  3 31  1  0
  5 32  1  0
  5 33  1  0
  5 34  1  0
  9 35  1  0
 13 36  1  0
 14 37  1  0
 14 38  1  0
 16 39  1  0
 17 40  1  0
 20 41  1  0
 23 42  1  0
 24 43  1  0
 27 44  1  0
M  CHG  2  20  -1  25  -1
M  END
>  <UniqueID>  (46) 
43

>  <SMILES>  (46) 
Cc1cc(C)c2c(=O)cc(C(=O)NCc3ccc(S([NH-])(=O)=O)cc3)[n-]c2c1

>  <Energy>  (46) 
51.43938689185574

>  <Genealogy>  (46) 
Cc1cc(C)c2c(=O)cc(C(=O)NCc3ccc(S([NH-])(=O)=O)cc3)[n-]c2c1 (protonated)
Cc1cc(C)c2c(=O)cc(C(=O)NCc3ccc(S([NH-])(=O)=O)cc3)[n-]c2c1 (3D coordinates assigned)
Cc1cc(C)c2c(=O)cc(C(=O)NCc3ccc(S([NH-])(=O)=O)cc3)[n-]c2c1 (optimized conformer: 51.43938689185574 kcal/mol)

>  <smiles>  (46) 
Cc1cc(C)c2c(=O)cc(C(=O)NCc3ccc(S(N)(=O)=O)cc3)[nH]c2c1

>  <score_type>  (46) 
oracle

>  <origin>  (46) 
adg

>  <m_score__min__energy>  (46) 
-11.67

>  <m_primary>  (46) 
energy

$$$$
46:0
     RDKit          3D

 54 58  0  0  0  0  0  0  0  0999 V2000
   56.3309   30.3015   44.7293 H   0  0  0  0  0  0  0  0  0  0  0  0
   56.7170   29.3560   45.1380 C   0  0  0  0  0  0  0  0  0  0  0  0
   55.8970   28.2820   45.2460 N   0  0  0  0  0  0  0  0  0  0  0  0
   56.3310   27.1020   45.7540 C   0  0  0  0  0  0  0  0  0  0  0  0
   55.6395   26.2487   45.8149 H   0  0  0  0  0  0  0  0  0  0  0  0
   57.6500   26.9580   46.2020 C   0  0  0  0  0  0  0  0  0  0  0  0
   58.0200   25.4100   46.9720 Cl  0  0  0  0  0  0  0  0  0  0  0  0
   58.5510   28.0600   46.0780 C   0  0  0  0  0  0  0  0  0  0  0  0
   59.8100   28.0310   46.4400 N   0  0  0  0  0  0  0  0  0  0  0  0
   60.3690   27.8310   47.7420 C   0  0  0  0  0  0  0  0  0  0  0  0
   61.0380   26.7940   47.9930 O   0  0  0  0  0  0  0  0  0  0  0  0
   60.1770   28.8450   48.7810 C   0  0  0  0  0  0  0  0  0  0  0  0
   59.0520   28.9640   49.5110 N   0  0  0  0  0  0  0  0  0  0  0  0
   59.2040   29.9880   50.3340 N   0  0  0  0  0  0  0  0  0  0  0  0
   58.1880   30.3910   51.2790 C   0  0  0  0  0  0  0  0  0  0  0  0
   57.6610   29.4560   52.1860 C   0  0  0  0  0  0  0  0  0  0  0  0
   58.0422   28.4242   52.1889 H   0  0  0  0  0  0  0  0  0  0  0  0
   56.6570   29.8260   53.0840 C   0  0  0  0  0  0  0  0  0  0  0  0
   56.2513   29.0854   53.7889 H   0  0  0  0  0  0  0  0  0  0  0  0
   56.1670   31.1340   53.0890 C   0  0  0  0  0  0  0  0  0  0  0  0
   55.3894   31.4288   53.8090 H   0  0  0  0  0  0  0  0  0  0  0  0
   56.6660   32.0650   52.1790 C   0  0  0  0  0  0  0  0  0  0  0  0
   56.2776   33.0942   52.1784 H   0  0  0  0  0  0  0  0  0  0  0  0
   57.6580   31.6940   51.2680 C   0  0  0  0  0  0  0  0  0  0  0  0
   58.0278   32.4270   50.5359 H   0  0  0  0  0  0  0  0  0  0  0  0
   60.4480   30.4960   50.1700 C   0  0  0  0  0  0  0  0  0  0  0  0
   60.9940   31.3350   51.0090 N   0  0  0  0  0  0  0  0  0  0  0  0
   61.9450   32.3740   50.7140 C   0  0  0  0  0  0  0  0  0  0  0  0
   62.6680   32.8740   51.6160 O   0  0  0  0  0  0  0  0  0  0  0  0
   61.9980   32.9380   49.3510 C   0  0  0  0  0  0  0  0  0  0  0  0
   60.7870   33.2500   48.7070 C   0  0  0  0  0  0  0  0  0  0  0  0
   59.8427   33.1931   49.2683 H   0  0  0  0  0  0  0  0  0  0  0  0
   60.7690   33.6330   47.3570 C   0  0  0  0  0  0  0  0  0  0  0  0
   59.4830   33.8180   46.6450 C   0  0  0  0  0  0  0  0  0  0  0  0
   58.2720   33.3740   47.2080 C   0  0  0  0  0  0  0  0  0  0  0  0
   58.2370   32.8100   48.4390 F   0  0  0  0  0  0  0  0  0  0  0  0
   57.0860   33.5270   46.4890 C   0  0  0  0  0  0  0  0  0  0  0  0
   56.1332   33.1877   46.9215 H   0  0  0  0  0  0  0  0  0  0  0  0
   57.1080   34.1100   45.2220 C   0  0  0  0  0  0  0  0  0  0  0  0
   56.1773   34.2265   44.6474 H   0  0  0  0  0  0  0  0  0  0  0  0
   58.3240   34.5440   44.6910 C   0  0  0  0  0  0  0  0  0  0  0  0
   58.3531   35.0074   43.6938 H   0  0  0  0  0  0  0  0  0  0  0  0
   59.4750   34.3950   45.4050 N   0  0  0  0  0  0  0  0  0  0  0  0
   60.3710   34.7100   44.9690 H   0  0  0  0  0  0  0  0  0  0  0  0
   61.9800   33.7370   46.6560 C   0  0  0  0  0  0  0  0  0  0  0  0
   61.9754   34.0230   45.5938 H   0  0  0  0  0  0  0  0  0  0  0  0
   63.1900   33.4790   47.3010 C   0  0  0  0  0  0  0  0  0  0  0  0
   64.1367   33.6087   46.7561 H   0  0  0  0  0  0  0  0  0  0  0  0
   63.2100   33.0570   48.6340 C   0  0  0  0  0  0  0  0  0  0  0  0
   64.7740   32.7560   49.3830 Cl  0  0  0  0  0  0  0  0  0  0  0  0
   61.0910   29.8130   49.1470 C   0  0  0  0  0  0  0  0  0  0  0  0
   62.0908   29.9987   48.7276 H   0  0  0  0  0  0  0  0  0  0  0  0
   58.0540   29.2660   45.5450 C   0  0  0  0  0  0  0  0  0  0  0  0
   59.0830   30.6870   45.3770 Cl  0  0  0  0  0  0  0  0  0  0  0  0
  1  2  1  0
  2  3  1  0
  3  4  1  0
  4  5  1  0
  4  6  2  0
  6  7  1  0
  6  8  1  0
  8  9  2  3
  9 10  1  0
 10 11  2  0
 10 12  1  0
 12 13  1  0
 13 14  1  0
 14 15  1  0
 15 16  2  0
 16 17  1  0
 16 18  1  0
 18 19  1  0
 18 20  2  0
 20 21  1  0
 20 22  1  0
 22 23  1  0
 22 24  2  0
 24 25  1  0
 14 26  1  0
 26 27  2  0
 27 28  1  0
 28 29  2  0
 28 30  1  0
 30 31  2  0
 31 32  1  0
 31 33  1  0
 33 34  1  0
 34 35  2  0
 35 36  1  0
 35 37  1  0
 37 38  1  0
 37 39  2  0
 39 40  1  0
 39 41  1  0
 41 42  1  0
 41 43  2  0
 43 44  1  0
 33 45  2  0
 45 46  1  0
 45 47  1  0
 47 48  1  0
 47 49  2  0
 49 50  1  0
 26 51  1  0
 51 52  1  0
  8 53  1  0
 53 54  1  0
 53  2  2  0
 51 12  2  0
 24 15  1  0
 49 30  1  0
 43 34  1  0
M  CHG  3   3  -1  13  -1  43   1
M  END
>  <UniqueID>  (47) 
44

>  <SMILES>  (47) 
O=C(N=c1c(Cl)c[n-]cc1Cl)c1c/c(=N\C(=O)c2cc(-c3[nH+]cccc3F)ccc2Cl)n(-c2ccccc2)[n-]1

>  <Energy>  (47) 
133.5458033725523

>  <Genealogy>  (47) 
O=C(N=c1c(Cl)c[n-]cc1Cl)c1cc(=NC(=O)c2cc(-c3[nH+]cccc3F)ccc2Cl)n(-c2ccccc2)[n-]1 (protonated)
O=C(N=c1c(Cl)c[n-]cc1Cl)c1c/c(=N\C(=O)c2cc(-c3[nH+]cccc3F)ccc2Cl)n(-c2ccccc2)[n-]1 (cis-trans isomerization)
O=C(N=c1c(Cl)c[n-]cc1Cl)c1c/c(=N\C(=O)c2cc(-c3[nH+]cccc3F)ccc2Cl)n(-c2ccccc2)[n-]1 (3D coordinates assigned)
O=C(N=c1c(Cl)c[n-]cc1Cl)c1c/c(=N\C(=O)c2cc(-c3[nH+]cccc3F)ccc2Cl)n(-c2ccccc2)[n-]1 (optimized conformer: 133.5458033725523 kcal/mol)

>  <smiles>  (47) 
O=C(N=c1c(Cl)c[nH]cc1Cl)c1cc(=NC(=O)c2cc(-c3ncccc3F)ccc2Cl)n(-c2ccccc2)[nH]1

>  <score_type>  (47) 
oracle

>  <origin>  (47) 
adg

>  <m_score__min__energy>  (47) 
-12.039999999999999

>  <m_primary>  (47) 
energy

$$$$
47:0
     RDKit          3D

 32 35  0  0  0  0  0  0  0  0999 V2000
   58.5030   20.4980   46.4230 O   0  0  0  0  0  0  0  0  0  0  0  0
   57.4340   21.0590   46.0570 C   0  0  0  0  0  0  0  0  0  0  0  0
   56.1210   20.6280   46.4530 C   0  0  0  0  0  0  0  0  0  0  0  0
   55.7660   19.5280   47.2360 C   0  0  0  0  0  0  0  0  0  0  0  0
   54.4030   19.2680   47.4420 C   0  0  0  0  0  0  0  0  0  0  0  0
   53.4300   20.0980   46.8580 C   0  0  0  0  0  0  0  0  0  0  0  0
   53.8150   21.1960   46.0710 C   0  0  0  0  0  0  0  0  0  0  0  0
   55.1810   21.4500   45.8820 C   0  0  0  0  0  0  0  0  0  0  0  0
   55.8140   22.5900   45.1050 C   0  0  1  0  0  0  0  0  0  0  0  0
   55.3000   22.6320   43.7930 O   0  0  0  0  0  0  0  0  0  0  0  0
   55.5340   23.9140   45.8010 C   0  0  0  0  0  0  0  0  0  0  0  0
   54.4080   24.1030   46.3410 O   0  0  0  0  0  0  0  0  0  0  0  0
   56.5210   25.0130   45.7760 C   0  0  0  0  0  0  0  0  0  0  0  0
   56.1290   26.3600   45.9500 C   0  0  0  0  0  0  0  0  0  0  0  0
   54.7900   26.7060   46.1060 O   0  0  0  0  0  0  0  0  0  0  0  0
   57.0880   27.3770   45.9540 C   0  0  0  0  0  0  0  0  0  0  0  0
   58.4360   27.0690   45.7880 C   0  0  0  0  0  0  0  0  0  0  0  0
   58.8340   25.7440   45.6140 C   0  0  0  0  0  0  0  0  0  0  0  0
   57.8820   24.7070   45.6020 C   0  0  0  0  0  0  0  0  0  0  0  0
   58.3160   23.3050   45.4420 C   0  0  0  0  0  0  0  0  0  0  0  0
   59.5410   23.0250   45.5650 O   0  0  0  0  0  0  0  0  0  0  0  0
   57.3490   22.1960   45.0700 C   0  0  1  0  0  0  0  0  0  0  0  0
   57.6750   21.7140   43.7850 O   0  0  0  0  0  0  0  0  0  0  0  0
   56.5364   18.8809   47.6806 H   0  0  0  0  0  0  0  0  0  0  0  0
   54.0948   18.4130   48.0617 H   0  0  0  0  0  0  0  0  0  0  0  0
   52.3624   19.8866   47.0181 H   0  0  0  0  0  0  0  0  0  0  0  0
   53.0568   21.8463   45.6102 H   0  0  0  0  0  0  0  0  0  0  0  0
   55.5240   21.7760   43.3420 H   0  0  0  0  0  0  0  0  0  0  0  0
   56.7771   28.4235   46.0886 H   0  0  0  0  0  0  0  0  0  0  0  0
   59.1877   27.8720   45.7942 H   0  0  0  0  0  0  0  0  0  0  0  0
   59.9004   25.5071   45.4851 H   0  0  0  0  0  0  0  0  0  0  0  0
   57.3250   22.3530   43.1100 H   0  0  0  0  0  0  0  0  0  0  0  0
  1  2  2  0
  2  3  1  0
  3  4  2  0
  4  5  1  0
  5  6  2  0
  6  7  1  0
  7  8  2  0
  8  9  1  0
  9 10  1  6
  9 11  1  0
 11 12  2  0
 11 13  1  0
 13 14  2  0
 14 15  1  0
 14 16  1  0
 16 17  2  0
 17 18  1  0
 18 19  2  0
 19 20  1  0
 20 21  2  0
 20 22  1  0
 22 23  1  6
 22  2  1  0
  8  3  1  0
 22  9  1  0
 19 13  1  0
  4 24  1  0
  5 25  1  0
  6 26  1  0
  7 27  1  0
 10 28  1  0
 16 29  1  0
 17 30  1  0
 18 31  1  0
 23 32  1  0
M  CHG  1  15  -1
M  END
>  <UniqueID>  (48) 
45

>  <SMILES>  (48) 
O=C1c2ccccc2[C@@]2(O)C(=O)c3c([O-])cccc3C(=O)[C@@]12O

>  <Energy>  (48) 
66.60423577688086

>  <Genealogy>  (48) 
O=C1c2ccccc2C2(O)C(=O)c3c([O-])cccc3C(=O)C12O (protonated)
O=C1c2ccccc2[C@@]2(O)C(=O)c3c([O-])cccc3C(=O)[C@@]12O (chirality)
O=C1c2ccccc2[C@@]2(O)C(=O)c3c([O-])cccc3C(=O)[C@@]12O (3D coordinates assigned)
O=C1c2ccccc2[C@@]2(O)C(=O)c3c([O-])cccc3C(=O)[C@@]12O (nonaromatic ring conformer: 66.60423577688086 kcal/mol)

>  <smiles>  (48) 
O=C1c2ccccc2C2(O)C(=O)c3c(O)cccc3C(=O)C12O

>  <score_type>  (48) 
oracle

>  <origin>  (48) 
adg

>  <m_score__min__energy>  (48) 
-10.07

>  <m_primary>  (48) 
energy

$$$$
48:0
     RDKit          3D

 56 59  0  0  1  0  0  0  0  0999 V2000
   63.2080   33.6850   47.3660 C   0  0  0  0  0  0  0  0  0  0  0  0
   61.9840   32.8740   47.4940 C   0  0  2  0  0  0  0  0  0  0  0  0
   60.7850   33.4710   48.1730 C   0  0  0  0  0  0  0  0  0  0  0  0
   59.5740   33.5920   47.3000 C   0  0  0  0  0  0  0  0  0  0  0  0
   58.4130   32.9230   47.4940 C   0  0  0  0  0  0  0  0  0  0  0  0
   58.2450   32.0390   48.4980 F   0  0  0  0  0  0  0  0  0  0  0  0
   57.3110   33.0980   46.6480 C   0  0  0  0  0  0  0  0  0  0  0  0
   57.3730   33.9630   45.5790 C   0  0  0  0  0  0  0  0  0  0  0  0
   58.5440   34.6470   45.3690 C   0  0  0  0  0  0  0  0  0  0  0  0
   59.6080   34.4690   46.2000 C   0  0  0  0  0  0  0  0  0  0  0  0
   60.7690   35.1550   45.9830 F   0  0  0  0  0  0  0  0  0  0  0  0
   62.0180   31.4680   47.3040 N   0  0  0  0  0  0  0  0  0  0  0  0
   61.2440   30.6000   47.7720 C   0  0  0  0  0  0  0  0  0  0  0  0
   61.3010   30.3060   49.0790 N   0  0  0  0  0  0  0  0  0  0  0  0
   60.4570   29.3750   49.5370 C   0  0  0  0  0  0  0  0  0  0  0  0
   59.5670   28.7310   48.7420 N   0  0  0  0  0  0  0  0  0  0  0  0
   59.4570   28.9760   47.4190 C   0  0  0  0  0  0  0  0  0  0  0  0
   58.6500   28.4380   46.5330 O   0  0  0  0  0  0  0  0  0  0  0  0
   58.3990   27.3110   45.9030 C   0  0  0  0  0  0  0  0  0  0  0  0
   58.4180   26.0120   46.3530 C   0  0  0  0  0  0  0  0  0  0  0  0
   58.1230   24.9170   45.5510 C   0  0  0  0  0  0  0  0  0  0  0  0
   58.1680   23.5710   46.1110 C   0  0  0  0  0  0  0  0  0  0  0  0
   57.3940   23.1930   47.0260 O   0  0  0  0  0  0  0  0  0  0  0  0
   59.0860   22.6430   45.6430 O   0  0  0  0  0  0  0  0  0  0  0  0
   57.7910   25.0910   44.2370 C   0  0  0  0  0  0  0  0  0  0  0  0
   57.7590   26.3670   43.7410 C   0  0  0  0  0  0  0  0  0  0  0  0
   58.0470   27.4360   44.5270 C   0  0  0  0  0  0  0  0  0  0  0  0
   57.9890   28.7330   43.9270 N   0  0  0  0  0  0  0  0  0  0  0  0
   56.8720   29.5400   44.2800 C   0  0  0  0  0  0  0  0  0  0  0  0
   56.0360   29.0520   45.0810 O   0  0  0  0  0  0  0  0  0  0  0  0
   56.6420   30.8920   43.7660 C   0  0  0  0  0  0  0  0  0  0  0  0
   57.9070   31.6950   43.5080 C   0  0  0  0  0  0  0  0  0  0  0  0
   57.0070   31.2790   42.3860 C   0  0  0  0  0  0  0  0  0  0  0  0
   60.3550   29.9640   46.9540 C   0  0  0  0  0  0  0  0  0  0  0  0
   60.3310   30.2840   45.6670 F   0  0  0  0  0  0  0  0  0  0  0  0
   63.5876   33.9365   48.3673 H   0  0  0  0  0  0  0  0  0  0  0  0
   63.9710   33.1132   46.8176 H   0  0  0  0  0  0  0  0  0  0  0  0
   62.9789   34.6106   46.8176 H   0  0  0  0  0  0  0  0  0  0  0  0
   61.7295   33.0690   46.4418 H   0  0  0  0  0  0  0  0  0  0  0  0
   60.5262   32.8369   49.0338 H   0  0  0  0  0  0  0  0  0  0  0  0
   61.0661   34.4944   48.4623 H   0  0  0  0  0  0  0  0  0  0  0  0
   56.3843   32.5373   46.8400 H   0  0  0  0  0  0  0  0  0  0  0  0
   56.5090   34.1019   44.9125 H   0  0  0  0  0  0  0  0  0  0  0  0
   58.6238   35.3448   44.5224 H   0  0  0  0  0  0  0  0  0  0  0  0
   60.4861   29.1202   50.6067 H   0  0  0  0  0  0  0  0  0  0  0  0
   58.9750   28.0330   49.2240 H   0  0  0  0  0  0  0  0  0  0  0  0
   58.6811   25.8300   47.4054 H   0  0  0  0  0  0  0  0  0  0  0  0
   60.0480   22.5860   45.9910 H   0  0  0  0  0  0  0  0  0  0  0  0
   57.5558   24.2293   43.5950 H   0  0  0  0  0  0  0  0  0  0  0  0
   57.4949   26.5290   42.6855 H   0  0  0  0  0  0  0  0  0  0  0  0
   58.7040   29.0950   43.2670 H   0  0  0  0  0  0  0  0  0  0  0  0
   55.7062   30.9929   44.3353 H   0  0  0  0  0  0  0  0  0  0  0  0
   57.9634   32.7513   43.8099 H   0  0  0  0  0  0  0  0  0  0  0  0
   58.9748   31.5758   43.7439 H   0  0  0  0  0  0  0  0  0  0  0  0
   56.4105   32.0357   41.8553 H   0  0  0  0  0  0  0  0  0  0  0  0
   57.1543   30.7273   41.4458 H   0  0  0  0  0  0  0  0  0  0  0  0
  1  2  1  0
  2  3  1  0
  3  4  1  0
  4  5  2  0
  5  6  1  0
  5  7  1  0
  7  8  2  0
  8  9  1  0
  9 10  2  0
 10 11  1  0
  2 12  1  0
 12 13  2  0
 13 14  1  0
 14 15  2  0
 15 16  1  0
 16 17  1  0
 17 18  1  0
 18 19  1  0
 19 20  2  0
 20 21  1  0
 21 22  1  0
 22 23  2  0
 22 24  1  0
 21 25  2  0
 25 26  1  0
 26 27  2  0
 27 28  1  0
 28 29  1  0
 29 30  2  0
 29 31  1  0
 31 32  1  0
 32 33  1  0
 17 34  2  0
 34 35  1  0
 10  4  1  0
 34 13  1  0
 27 19  1  0
 33 31  1  0
  1 36  1  0
  1 37  1  0
  1 38  1  0
  2 39  1  6
  3 40  1  0
  3 41  1  0
  7 42  1  0
  8 43  1  0
  9 44  1  0
 15 45  1  0
 16 46  1  0
 20 47  1  0
 24 48  1  0
 25 49  1  0
 26 50  1  0
 28 51  1  0
 31 52  1  0
 32 53  1  0
 32 54  1  0
 33 55  1  0
 33 56  1  0
M  END
>  <smiles>  (49) 
CC(Cc1c(F)cccc1F)N=c1nc[nH]c(Oc2cc(C(=O)O)ccc2NC(=O)C2CC2)c1F

>  <score_type>  (49) 
oracle

>  <origin>  (49) 
adg

>  <m_score__min__energy>  (49) 
-9.2599999999999998

>  <m_primary>  (49) 
energy

$$$$
49:0
     RDKit          3D

 46 48  0  0  0  0  0  0  0  0999 V2000
   63.3520   33.9990   46.7900 C   0  0  0  0  0  0  0  0  0  0  0  0
   62.2890   33.2110   47.4950 C   0  0  0  0  0  0  0  0  0  0  0  0
   61.5600   32.2400   46.7980 C   0  0  0  0  0  0  0  0  0  0  0  0
   60.4990   31.5680   47.4320 C   0  0  0  0  0  0  0  0  0  0  0  0
   59.7160   30.5960   46.7820 O   0  0  0  0  0  0  0  0  0  0  0  0
   60.0930   29.2500   46.4810 C   0  0  0  0  0  0  0  0  0  0  0  0
   59.0610   28.5690   45.5700 C   0  0  0  0  0  0  0  0  0  0  0  0
   57.6420   28.5900   46.1370 C   0  0  0  0  0  0  0  0  0  0  0  0
   56.9590   29.7620   45.7110 O   0  0  0  0  0  0  0  0  0  0  0  0
   56.9550   30.1830   44.3810 C   0  0  0  0  0  0  0  0  0  0  0  0
   56.5600   29.4190   43.3440 N   0  0  0  0  0  0  0  0  0  0  0  0
   56.7220   30.1370   42.2700 O   0  0  0  0  0  0  0  0  0  0  0  0
   57.1990   31.3280   42.5560 C   0  0  0  0  0  0  0  0  0  0  0  0
   57.4740   32.3730   41.5240 C   0  0  0  0  0  0  0  0  0  0  0  0
   57.3840   31.4150   43.9280 C   0  0  0  0  0  0  0  0  0  0  0  0
   57.9060   32.5410   44.7360 C   0  0  0  0  0  0  0  0  0  0  0  0
   57.5780   32.6460   46.1000 C   0  0  0  0  0  0  0  0  0  0  0  0
   58.0770   33.7000   46.8710 C   0  0  0  0  0  0  0  0  0  0  0  0
   58.9080   34.6600   46.2890 C   0  0  0  0  0  0  0  0  0  0  0  0
   59.3950   35.6790   47.0390 F   0  0  0  0  0  0  0  0  0  0  0  0
   59.2440   34.5650   44.9360 C   0  0  0  0  0  0  0  0  0  0  0  0
   58.7530   33.5070   44.1650 C   0  0  0  0  0  0  0  0  0  0  0  0
   60.2050   31.8800   48.7690 C   0  0  0  0  0  0  0  0  0  0  0  0
   59.1140   31.2140   49.4430 C   0  0  0  0  0  0  0  0  0  0  0  0
   58.2420   30.6800   49.9850 N   0  0  0  0  0  0  0  0  0  0  0  0
   60.9710   32.8460   49.4410 C   0  0  0  0  0  0  0  0  0  0  0  0
   60.7260   33.1270   50.6460 O   0  0  0  0  0  0  0  0  0  0  0  0
   61.9760   33.4940   48.7910 N   0  0  0  0  0  0  0  0  0  0  0  0
   64.0037   34.4821   47.5329 H   0  0  0  0  0  0  0  0  0  0  0  0
   63.9510   33.3250   46.1599 H   0  0  0  0  0  0  0  0  0  0  0  0
   62.8812   34.7680   46.1599 H   0  0  0  0  0  0  0  0  0  0  0  0
   61.8167   32.0026   45.7551 H   0  0  0  0  0  0  0  0  0  0  0  0
   61.0690   29.2567   45.9736 H   0  0  0  0  0  0  0  0  0  0  0  0
   60.1471   28.6866   47.4242 H   0  0  0  0  0  0  0  0  0  0  0  0
   59.0564   29.0877   44.6000 H   0  0  0  0  0  0  0  0  0  0  0  0
   59.3573   27.5138   45.4764 H   0  0  0  0  0  0  0  0  0  0  0  0
   57.0964   27.7029   45.7830 H   0  0  0  0  0  0  0  0  0  0  0  0
   57.6950   28.5855   47.2357 H   0  0  0  0  0  0  0  0  0  0  0  0
   57.7238   33.3221   42.0208 H   0  0  0  0  0  0  0  0  0  0  0  0
   58.3189   32.0545   40.8958 H   0  0  0  0  0  0  0  0  0  0  0  0
   56.5818   32.5117   40.8958 H   0  0  0  0  0  0  0  0  0  0  0  0
   56.9238   31.8929   46.5635 H   0  0  0  0  0  0  0  0  0  0  0  0
   57.8150   33.7733   47.9368 H   0  0  0  0  0  0  0  0  0  0  0  0
   59.8954   35.3233   44.4770 H   0  0  0  0  0  0  0  0  0  0  0  0
   59.0315   33.4298   43.1036 H   0  0  0  0  0  0  0  0  0  0  0  0
   62.5140   34.2310   49.3010 H   0  0  0  0  0  0  0  0  0  0  0  0
  1  2  1  0
  2  3  2  0
  3  4  1  0
  4  5  1  0
  5  6  1  0
  6  7  1  0
  7  8  1  0
  8  9  1  0
  9 10  1  0
 10 11  2  0
 11 12  1  0
 12 13  1  0
 13 14  1  0
 13 15  2  0
 15 16  1  0
 16 17  2  0
 17 18  1  0
 18 19  2  0
 19 20  1  0
 19 21  1  0
 21 22  2  0
  4 23  2  0
 23 24  1  0
 24 25  3  0
 23 26  1  0
 26 27  2  0
 26 28  1  0
 28  2  1  0
 15 10  1  0
 22 16  1  0
  1 29  1  0
  1 30  1  0
  1 31  1  0
  3 32  1  0
  6 33  1  0
  6 34  1  0
  7 35  1  0
  7 36  1  0
  8 37  1  0
  8 38  1  0
 14 39  1  0
 14 40  1  0
 14 41  1  0
 17 42  1  0
 18 43  1  0
 21 44  1  0
 22 45  1  0
 28 46  1  0
M  END
>  <UniqueID>  (50) 
46

>  <SMILES>  (50) 
Cc1cc(OCCCOc2noc(C)c2-c2ccc(F)cc2)c(C#N)c(=O)[nH]1

>  <Energy>  (50) 
72.73399890341442

>  <Genealogy>  (50) 
Cc1cc(OCCCOc2noc(C)c2-c2ccc(F)cc2)c(C#N)c(=O)[nH]1 (3D coordinates assigned)
Cc1cc(OCCCOc2noc(C)c2-c2ccc(F)cc2)c(C#N)c(=O)[nH]1 (optimized conformer: 72.73399890341442 kcal/mol)

>  <smiles>  (50) 
Cc1cc(OCCCOc2noc(C)c2-c2ccc(F)cc2)c(C#N)c(=O)[nH]1

>  <score_type>  (50) 
oracle

>  <origin>  (50) 
adg

>  <m_score__min__energy>  (50) 
-7.7999999999999998

>  <m_primary>  (50) 
energy

$$$$
50:0
     RDKit          3D

 66 71  0  0  0  0  0  0  0  0999 V2000
   62.6370   30.3600   50.8300 C   0  0  0  0  0  0  0  0  0  0  0  0
   61.5110   29.3740   50.5450 C   0  0  0  0  0  0  0  0  0  0  0  0
   60.4800   29.4880   51.5230 O   0  0  0  0  0  0  0  0  0  0  0  0
   59.1480   29.7850   51.2050 C   0  0  0  0  0  0  0  0  0  0  0  0
   58.6410   29.3360   50.1380 O   0  0  0  0  0  0  0  0  0  0  0  0
   58.3870   30.6950   52.0380 N   0  0  2  0  0  0  0  0  0  0  0  0
   57.4290   31.5540   51.3310 C   0  0  1  0  0  0  0  0  0  0  0  0
   56.9520   32.5460   52.4040 C   0  0  0  0  0  0  0  0  0  0  0  0
   58.1340   32.6450   53.3660 C   0  0  0  0  0  0  0  0  0  0  0  0
   59.1820   31.6890   52.7730 C   0  0  2  0  0  0  0  0  0  0  0  0
   60.1170   32.4700   51.8130 C   0  0  0  0  0  0  0  0  0  0  0  0
   59.4420   32.8610   50.5580 N   0  0  0  0  0  0  0  0  0  0  0  0
   60.1410   33.6930   49.6080 C   0  0  0  0  0  0  0  0  0  0  0  0
   59.6830   34.8270   49.3000 O   0  0  0  0  0  0  0  0  0  0  0  0
   61.4170   33.2650   49.0080 C   0  0  0  0  0  0  0  0  0  0  0  0
   62.6210   33.6770   49.5920 C   0  0  0  0  0  0  0  0  0  0  0  0
   63.8420   33.3010   49.0260 C   0  0  0  0  0  0  0  0  0  0  0  0
   63.8680   32.5150   47.8710 C   0  0  0  0  0  0  0  0  0  0  0  0
   62.6720   32.0950   47.2820 C   0  0  0  0  0  0  0  0  0  0  0  0
   61.4410   32.4570   47.8480 C   0  0  0  0  0  0  0  0  0  0  0  0
   60.1900   31.9810   47.2190 C   0  0  0  0  0  0  0  0  0  0  0  0
   59.8110   30.6470   47.4080 C   0  0  0  0  0  0  0  0  0  0  0  0
   58.6380   30.1580   46.8160 C   0  0  0  0  0  0  0  0  0  0  0  0
   58.2220   28.7460   46.9690 C   0  0  0  0  0  0  0  0  0  0  0  0
   58.7370   28.0560   47.8850 O   0  0  0  0  0  0  0  0  0  0  0  0
   57.2240   28.1400   46.1330 N   0  0  0  0  0  0  0  0  0  0  0  0
   56.7190   28.6710   45.0610 C   0  0  0  0  0  0  0  0  0  0  0  0
   55.5230   29.3020   45.0140 N   0  0  0  0  0  0  0  0  0  0  0  0
   55.2590   29.7770   43.7690 C   0  0  0  0  0  0  0  0  0  0  0  0
   56.2500   29.5350   42.8230 C   0  0  0  0  0  0  0  0  0  0  0  0
   57.5010   28.6950   43.5770 S   0  0  0  0  0  0  0  0  0  0  0  0
   57.8830   30.9870   46.0450 N   0  0  0  0  0  0  0  0  0  0  0  0
   58.2110   32.2900   45.8410 C   0  0  0  0  0  0  0  0  0  0  0  0
   57.3840   33.1000   45.0530 C   0  0  0  0  0  0  0  0  0  0  0  0
   57.7050   34.4430   44.8500 C   0  0  0  0  0  0  0  0  0  0  0  0
   58.8540   34.9850   45.4290 C   0  0  0  0  0  0  0  0  0  0  0  0
   59.6910   34.1860   46.2150 C   0  0  0  0  0  0  0  0  0  0  0  0
   59.3800   32.8290   46.4300 C   0  0  0  0  0  0  0  0  0  0  0  0
   58.1160   32.3320   50.1750 C   0  0  0  0  0  0  0  0  0  0  0  0
   62.7620   30.4695   51.9174 H   0  0  0  0  0  0  0  0  0  0  0  0
   63.5727   29.9855   50.3892 H   0  0  0  0  0  0  0  0  0  0  0  0
   62.3893   31.3369   50.3892 H   0  0  0  0  0  0  0  0  0  0  0  0
   61.0901   29.5845   49.5508 H   0  0  0  0  0  0  0  0  0  0  0  0
   61.9187   28.3529   50.5792 H   0  0  0  0  0  0  0  0  0  0  0  0
   57.8650   30.0980   52.7260 H   0  0  0  0  0  0  0  0  0  0  0  0
   56.6136   30.9708   50.8783 H   0  0  0  0  0  0  0  0  0  0  0  0
   56.0586   32.1644   52.9200 H   0  0  0  0  0  0  0  0  0  0  0  0
   56.6660   33.5209   51.9825 H   0  0  0  0  0  0  0  0  0  0  0  0
   57.8421   32.3255   54.3773 H   0  0  0  0  0  0  0  0  0  0  0  0
   58.5106   33.6736   53.4673 H   0  0  0  0  0  0  0  0  0  0  0  0
   59.8251   31.2230   53.5340 H   0  0  0  0  0  0  0  0  0  0  0  0
   60.9797   31.8338   51.5660 H   0  0  0  0  0  0  0  0  0  0  0  0
   60.4276   33.3920   52.3263 H   0  0  0  0  0  0  0  0  0  0  0  0
   62.6057   34.2987   50.4993 H   0  0  0  0  0  0  0  0  0  0  0  0
   64.7850   33.6246   49.4908 H   0  0  0  0  0  0  0  0  0  0  0  0
   64.8310   32.2264   47.4247 H   0  0  0  0  0  0  0  0  0  0  0  0
   62.6964   31.4784   46.3714 H   0  0  0  0  0  0  0  0  0  0  0  0
   60.4347   29.9809   48.0223 H   0  0  0  0  0  0  0  0  0  0  0  0
   54.3299   30.3136   43.5266 H   0  0  0  0  0  0  0  0  0  0  0  0
   56.2218   29.8392   41.7663 H   0  0  0  0  0  0  0  0  0  0  0  0
   56.4790   32.6767   44.5928 H   0  0  0  0  0  0  0  0  0  0  0  0
   57.0511   35.0761   44.2323 H   0  0  0  0  0  0  0  0  0  0  0  0
   59.1020   36.0443   45.2665 H   0  0  0  0  0  0  0  0  0  0  0  0
   60.5956   34.6190   46.6670 H   0  0  0  0  0  0  0  0  0  0  0  0
   58.2410   31.6532   49.3185 H   0  0  0  0  0  0  0  0  0  0  0  0
   57.4748   33.1891   49.9217 H   0  0  0  0  0  0  0  0  0  0  0  0
  1  2  1  0
  2  3  1  0
  3  4  1  0
  4  5  2  0
  4  6  1  0
  6  7  1  0
  7  8  1  0
  8  9  1  0
  9 10  1  0
 10 11  1  0
 11 12  1  0
 12 13  1  0
 13 14  2  0
 13 15  1  0
 15 16  2  0
 16 17  1  0
 17 18  2  0
 18 19  1  0
 19 20  2  0
 20 21  1  0
 21 22  2  0
 22 23  1  0
 23 24  1  0
 24 25  2  0
 24 26  1  0
 26 27  2  3
 27 28  1  0
 28 29  1  0
 29 30  2  0
 30 31  1  0
 23 32  2  0
 32 33  1  0
 33 34  2  0
 34 35  1  0
 35 36  2  0
 36 37  1  0
 37 38  2  0
 12 39  1  0
 10  6  1  0
 20 15  1  0
 38 21  1  0
 39  7  1  0
 31 27  1  0
 38 33  1  0
  1 40  1  0
  1 41  1  0
  1 42  1  0
  2 43  1  0
  2 44  1  0
  6 45  1  1
  7 46  1  6
  8 47  1  0
  8 48  1  0
  9 49  1  0
  9 50  1  0
 10 51  1  1
 11 52  1  0
 11 53  1  0
 16 54  1  0
 17 55  1  0
 18 56  1  0
 19 57  1  0
 22 58  1  0
 29 59  1  0
 30 60  1  0
 34 61  1  0
 35 62  1  0
 36 63  1  0
 37 64  1  0
 39 65  1  0
 39 66  1  0
M  CHG  2   6   1  28  -1
M  END
>  <UniqueID>  (51) 
47

>  <SMILES>  (51) 
CCOC(=O)[NH+]1[C@@H]2CC[C@H]1CN(C(=O)c1ccccc1-c1cc(C(=O)N=c3[n-]ccs3)nc3ccccc13)C2

>  <Energy>  (51) 
138.28509640032289

>  <Genealogy>  (51) 
CCOC(=O)[NH+]1C2CCC1CN(C(=O)c1ccccc1-c1cc(C(=O)N=c3[n-]ccs3)nc3ccccc13)C2 (protonated)
CCOC(=O)[NH+]1[C@@H]2CC[C@H]1CN(C(=O)c1ccccc1-c1cc(C(=O)N=c3[n-]ccs3)nc3ccccc13)C2 (chirality)
CCOC(=O)[NH+]1[C@@H]2CC[C@H]1CN(C(=O)c1ccccc1-c1cc(C(=O)N=c3[n-]ccs3)nc3ccccc13)C2 (3D coordinates assigned)
CCOC(=O)[NH+]1[C@@H]2CC[C@H]1CN(C(=O)c1ccccc1-c1cc(C(=O)N=c3[n-]ccs3)nc3ccccc13)C2 (nonaromatic ring conformer: 138.28509640032289 kcal/mol)

>  <smiles>  (51) 
CCOC(=O)N1C2CCC1CN(C(=O)c1ccccc1-c1cc(C(=O)N=c3[nH]ccs3)nc3ccccc13)C2

>  <score_type>  (51) 
oracle

>  <origin>  (51) 
adg

>  <m_score__min__energy>  (51) 
-11.23

>  <m_primary>  (51) 
energy

$$$$
51:0
     RDKit          3D

 34 35  0  0  0  0  0  0  0  0999 V2000
   55.1380   26.4200   46.0460 N   0  0  0  0  0  0  0  0  0  0  0  0
   56.7850   25.9010   46.0810 S   0  0  0  0  0  0  0  0  0  0  0  0
   57.0920   25.2980   47.4240 O   0  0  0  0  0  0  0  0  0  0  0  0
   57.0040   24.8560   45.0230 O   0  0  0  0  0  0  0  0  0  0  0  0
   57.8420   27.2780   45.7860 C   0  0  0  0  0  0  0  0  0  0  0  0
   58.7840   27.2330   44.7490 C   0  0  0  0  0  0  0  0  0  0  0  0
   59.6160   28.3290   44.5110 C   0  0  0  0  0  0  0  0  0  0  0  0
   59.5230   29.4680   45.3150 C   0  0  0  0  0  0  0  0  0  0  0  0
   58.6110   29.5140   46.3770 C   0  0  0  0  0  0  0  0  0  0  0  0
   58.5520   30.7030   47.1780 N   0  0  0  0  0  0  0  0  0  0  0  0
   59.5380   31.7390   47.2490 C   0  0  0  0  0  0  0  0  0  0  0  0
   60.7150   31.4910   47.6270 O   0  0  0  0  0  0  0  0  0  0  0  0
   59.1950   33.1150   46.7710 C   0  0  0  0  0  0  0  0  0  0  0  0
   57.8550   33.1350   46.1610 N   0  0  0  0  0  0  0  0  0  0  0  0
   57.9040   33.1260   44.6900 C   0  0  0  0  0  0  0  0  0  0  0  0
   57.2580   31.8910   44.1430 C   0  0  0  0  0  0  0  0  0  0  0  0
   57.4170   31.3960   42.8630 C   0  0  0  0  0  0  0  0  0  0  0  0
   56.6400   30.2580   42.8080 C   0  0  0  0  0  0  0  0  0  0  0  0
   56.0650   30.1260   44.0560 C   0  0  0  0  0  0  0  0  0  0  0  0
   56.4550   31.1130   44.8300 O   0  0  0  0  0  0  0  0  0  0  0  0
   57.7560   28.4180   46.5980 C   0  0  0  0  0  0  0  0  0  0  0  0
   55.1440   27.4600   46.1390 H   0  0  0  0  0  0  0  0  0  0  0  0
   58.8680   26.3332   44.1219 H   0  0  0  0  0  0  0  0  0  0  0  0
   60.3461   28.2956   43.6889 H   0  0  0  0  0  0  0  0  0  0  0  0
   60.1702   30.3341   45.1126 H   0  0  0  0  0  0  0  0  0  0  0  0
   59.2137   33.8088   47.6244 H   0  0  0  0  0  0  0  0  0  0  0  0
   59.9326   33.4207   46.0144 H   0  0  0  0  0  0  0  0  0  0  0  0
   57.3690   32.2560   46.4570 H   0  0  0  0  0  0  0  0  0  0  0  0
   57.3739   34.0102   44.3063 H   0  0  0  0  0  0  0  0  0  0  0  0
   58.9571   33.1426   44.3726 H   0  0  0  0  0  0  0  0  0  0  0  0
   58.0338   31.8204   42.0571 H   0  0  0  0  0  0  0  0  0  0  0  0
   56.5056   29.5904   41.9442 H   0  0  0  0  0  0  0  0  0  0  0  0
   55.3834   29.3167   44.3568 H   0  0  0  0  0  0  0  0  0  0  0  0
   57.0167   28.4559   47.4117 H   0  0  0  0  0  0  0  0  0  0  0  0
  1  2  1  0
  2  3  2  0
  2  4  2  0
  2  5  1  0
  5  6  2  0
  6  7  1  0
  7  8  2  0
  8  9  1  0
  9 10  1  0
 10 11  1  0
 11 12  2  0
 11 13  1  0
 13 14  1  0
 14 15  1  0
 15 16  1  0
 16 17  2  0
 17 18  1  0
 18 19  2  0
 19 20  1  0
  9 21  2  0
 21  5  1  0
 20 16  1  0
  1 22  1  0
  6 23  1  0
  7 24  1  0
  8 25  1  0
 13 26  1  0
 13 27  1  0
 14 28  1  0
 15 29  1  0
 15 30  1  0
 17 31  1  0
 18 32  1  0
 19 33  1  0
 21 34  1  0
M  CHG  2   1  -1  10  -1
M  END
>  <UniqueID>  (52) 
48

>  <SMILES>  (52) 
[NH-]S(=O)(=O)c1cccc([N-]C(=O)CNCc2ccco2)c1

>  <Energy>  (52) 
59.51101768972046

>  <Genealogy>  (52) 
[NH-]S(=O)(=O)c1cccc([N-]C(=O)CNCc2ccco2)c1 (protonated)
[NH-]S(=O)(=O)c1cccc([N-]C(=O)CNCc2ccco2)c1 (3D coordinates assigned)
[NH-]S(=O)(=O)c1cccc([N-]C(=O)CNCc2ccco2)c1 (optimized conformer: 59.51101768972046 kcal/mol)

>  <smiles>  (52) 
NS(=O)(=O)c1cccc(NC(=O)CNCc2ccco2)c1

>  <score_type>  (52) 
oracle

>  <origin>  (52) 
adg

>  <m_score__min__energy>  (52) 
-11.07

>  <m_primary>  (52) 
energy

$$$$
52:0
     RDKit          3D

 57 60  0  0  0  0  0  0  0  0999 V2000
   57.3790   28.8050   44.2550 C   0  0  0  0  0  0  0  0  0  0  0  0
   56.8010   29.9340   43.4100 C   0  0  0  0  0  0  0  0  0  0  0  0
   57.2300   31.2680   43.9430 C   0  0  0  0  0  0  0  0  0  0  0  0
   57.1130   31.6190   45.2020 O   0  0  0  0  0  0  0  0  0  0  0  0
   57.5630   32.8460   45.3370 C   0  0  0  0  0  0  0  0  0  0  0  0
   57.6320   33.5710   46.6400 C   0  0  0  0  0  0  0  0  0  0  0  0
   59.3760   33.7470   47.1350 S   0  0  0  0  0  0  0  0  0  0  0  0
   59.2160   32.6550   48.5490 C   0  0  0  0  0  0  0  0  0  0  0  0
   59.3390   33.1690   49.8440 C   0  0  0  0  0  0  0  0  0  0  0  0
   59.1980   32.3270   50.9500 C   0  0  0  0  0  0  0  0  0  0  0  0
   58.9120   30.9620   50.7690 C   0  0  0  0  0  0  0  0  0  0  0  0
   58.7770   30.0510   51.9230 C   0  0  0  0  0  0  0  0  0  0  0  0
   57.7010   30.0160   52.7230 C   0  0  0  0  0  0  0  0  0  0  0  0
   56.6530   31.4190   53.0730 S   0  0  0  0  0  0  0  0  0  0  0  0
   55.7820   30.3430   54.2170 C   0  0  0  0  0  0  0  0  0  0  0  0
   55.0600   30.8140   55.0840 O   0  0  0  0  0  0  0  0  0  0  0  0
   56.0030   28.9230   54.1250 N   0  0  1  0  0  0  0  0  0  0  0  0
   54.8490   28.2790   53.4620 C   0  0  0  0  0  0  0  0  0  0  0  0
   53.9010   29.3010   52.8830 C   0  0  0  0  0  0  0  0  0  0  0  0
   54.1810   29.8980   51.6440 C   0  0  0  0  0  0  0  0  0  0  0  0
   53.3230   30.8670   51.1150 C   0  0  0  0  0  0  0  0  0  0  0  0
   52.1690   31.2560   51.8180 C   0  0  0  0  0  0  0  0  0  0  0  0
   51.2650   32.2820   51.2570 C   0  0  0  0  0  0  0  0  0  0  0  0
   50.6840   33.1090   52.0120 O   0  0  0  0  0  0  0  0  0  0  0  0
   51.0390   32.3430   49.8870 O   0  0  0  0  0  0  0  0  0  0  0  0
   51.8920   30.6580   53.0590 C   0  0  0  0  0  0  0  0  0  0  0  0
   52.7500   29.6880   53.5880 C   0  0  0  0  0  0  0  0  0  0  0  0
   57.2000   28.7920   53.3450 C   0  0  0  0  0  0  0  0  0  0  0  0
   57.8070   27.6900   53.2500 O   0  0  0  0  0  0  0  0  0  0  0  0
   58.8190   30.4460   49.4670 C   0  0  0  0  0  0  0  0  0  0  0  0
   58.9590   31.2910   48.3610 C   0  0  0  0  0  0  0  0  0  0  0  0
   57.9980   33.3350   44.1180 C   0  0  0  0  0  0  0  0  0  0  0  0
   57.7750   32.3130   43.2170 C   0  0  0  0  0  0  0  0  0  0  0  0
   58.1040   32.3310   41.7580 C   0  0  0  0  0  0  0  0  0  0  0  0
   57.2560   29.0452   45.3214 H   0  0  0  0  0  0  0  0  0  0  0  0
   56.8496   27.8682   44.0268 H   0  0  0  0  0  0  0  0  0  0  0  0
   58.4485   28.6868   44.0268 H   0  0  0  0  0  0  0  0  0  0  0  0
   57.1559   29.8279   42.3742 H   0  0  0  0  0  0  0  0  0  0  0  0
   55.7031   29.8756   43.4452 H   0  0  0  0  0  0  0  0  0  0  0  0
   57.1779   34.5670   46.5315 H   0  0  0  0  0  0  0  0  0  0  0  0
   57.0850   33.0043   47.4079 H   0  0  0  0  0  0  0  0  0  0  0  0
   59.5473   34.2389   49.9921 H   0  0  0  0  0  0  0  0  0  0  0  0
   59.3111   32.7332   51.9660 H   0  0  0  0  0  0  0  0  0  0  0  0
   59.6064   29.3615   52.1391 H   0  0  0  0  0  0  0  0  0  0  0  0
   56.1660   28.5370   55.0850 H   0  0  0  0  0  0  0  0  0  0  0  0
   55.2174   27.6337   52.6509 H   0  0  0  0  0  0  0  0  0  0  0  0
   54.3036   27.6905   54.2145 H   0  0  0  0  0  0  0  0  0  0  0  0
   55.0812   29.6017   51.0856 H   0  0  0  0  0  0  0  0  0  0  0  0
   53.5522   31.3279   50.1429 H   0  0  0  0  0  0  0  0  0  0  0  0
   50.9931   30.9550   53.6191 H   0  0  0  0  0  0  0  0  0  0  0  0
   52.5221   29.2266   54.5602 H   0  0  0  0  0  0  0  0  0  0  0  0
   58.6352   29.3721   49.3156 H   0  0  0  0  0  0  0  0  0  0  0  0
   58.8672   30.8841   47.3432 H   0  0  0  0  0  0  0  0  0  0  0  0
   58.4291   34.3256   43.9111 H   0  0  0  0  0  0  0  0  0  0  0  0
   59.1948   32.3907   41.6288 H   0  0  0  0  0  0  0  0  0  0  0  0
   57.7287   31.4110   41.2861 H   0  0  0  0  0  0  0  0  0  0  0  0
   57.6305   33.2046   41.2861 H   0  0  0  0  0  0  0  0  0  0  0  0
  1  2  1  0
  2  3  1  0
  3  4  1  0
  4  5  1  0
  5  6  1  0
  6  7  1  0
  7  8  1  0
  8  9  2  0
  9 10  1  0
 10 11  2  0
 11 12  1  0
 12 13  2  3
 13 14  1  0
 14 15  1  0
 15 16  2  0
 15 17  1  0
 17 18  1  0
 18 19  1  0
 19 20  2  0
 20 21  1  0
 21 22  2  0
 22 23  1  0
 23 24  2  0
 23 25  1  0
 22 26  1  0
 26 27  2  0
 17 28  1  0
 28 29  2  0
 11 30  1  0
 30 31  2  0
  5 32  2  0
 32 33  1  0
 33 34  1  0
 33  3  2  0
 31  8  1  0
 28 13  1  0
 27 19  1  0
  1 35  1  0
  1 36  1  0
  1 37  1  0
  2 38  1  0
  2 39  1  0
  6 40  1  0
  6 41  1  0
  9 42  1  0
 10 43  1  0
 12 44  1  0
 17 45  1  1
 18 46  1  0
 18 47  1  0
 20 48  1  0
 21 49  1  0
 26 50  1  0
 27 51  1  0
 30 52  1  0
 31 53  1  0
 32 54  1  0
 34 55  1  0
 34 56  1  0
 34 57  1  0
M  CHG  2  17   1  25  -1
M  END
>  <UniqueID>  (53) 
49

>  <SMILES>  (53) 
CCc1oc(CSc2ccc(C=C3SC(=O)[N@@H+](Cc4ccc(C(=O)[O-])cc4)C3=O)cc2)cc1C

>  <Energy>  (53) 
100.2957622039793

>  <Genealogy>  (53) 
CCc1oc(CSc2ccc(C=C3SC(=O)[NH+](Cc4ccc(C(=O)[O-])cc4)C3=O)cc2)cc1C (protonated)
CCc1oc(CSc2ccc(C=C3SC(=O)[N@@H+](Cc4ccc(C(=O)[O-])cc4)C3=O)cc2)cc1C (chirality)
CCc1oc(CSc2ccc(C=C3SC(=O)[N@@H+](Cc4ccc(C(=O)[O-])cc4)C3=O)cc2)cc1C (3D coordinates assigned)
CCc1oc(CSc2ccc(C=C3SC(=O)[N@@H+](Cc4ccc(C(=O)[O-])cc4)C3=O)cc2)cc1C (nonaromatic ring conformer: 100.2957622039793 kcal/mol)

>  <smiles>  (53) 
CCc1oc(CSc2ccc(C=C3SC(=O)N(Cc4ccc(C(=O)O)cc4)C3=O)cc2)cc1C

>  <score_type>  (53) 
oracle

>  <origin>  (53) 
adg

>  <m_score__min__energy>  (53) 
-13.119999999999999

>  <m_primary>  (53) 
energy

$$$$
53:0
     RDKit          3D

 49 52  0  0  0  0  0  0  0  0999 V2000
   59.6580   35.2810   45.9470 C   0  0  0  0  0  0  0  0  0  0  0  0
   59.4210   34.5100   44.7740 O   0  0  0  0  0  0  0  0  0  0  0  0
   58.6800   33.3190   44.7470 C   0  0  0  0  0  0  0  0  0  0  0  0
   58.1140   32.8070   43.5630 C   0  0  0  0  0  0  0  0  0  0  0  0
   57.3810   31.6180   43.5890 C   0  0  0  0  0  0  0  0  0  0  0  0
   57.1880   30.9240   44.7950 C   0  0  0  0  0  0  0  0  0  0  0  0
   56.4030   29.6680   44.8130 C   0  0  0  0  0  0  0  0  0  0  0  0
   55.1450   29.7260   44.7950 O   0  0  0  0  0  0  0  0  0  0  0  0
   57.0300   28.3770   44.8030 N   0  0  0  0  0  0  0  0  0  0  0  0
   57.8510   27.8260   45.8420 C   0  0  0  0  0  0  0  0  0  0  0  0
   57.5990   26.5220   46.2850 C   0  0  0  0  0  0  0  0  0  0  0  0
   58.3710   25.9620   47.3050 C   0  0  0  0  0  0  0  0  0  0  0  0
   59.3990   26.7010   47.8940 C   0  0  0  0  0  0  0  0  0  0  0  0
   59.6650   28.0140   47.4650 C   0  0  0  0  0  0  0  0  0  0  0  0
   60.6950   28.8070   48.0780 N   0  0  0  0  0  0  0  0  0  0  0  0
   60.5720   30.2180   48.3310 C   0  0  0  0  0  0  0  0  0  0  0  0
   59.4260   30.7440   48.3890 O   0  0  0  0  0  0  0  0  0  0  0  0
   61.7700   31.0540   48.5770 C   0  0  0  0  0  0  0  0  0  0  0  0
   62.1920   31.9890   47.6100 C   0  0  0  0  0  0  0  0  0  0  0  0
   63.3290   32.7750   47.8280 C   0  0  0  0  0  0  0  0  0  0  0  0
   64.0610   32.6290   49.0070 C   0  0  0  0  0  0  0  0  0  0  0  0
   63.6420   31.7170   49.9840 C   0  0  0  0  0  0  0  0  0  0  0  0
   62.5140   30.9210   49.7650 C   0  0  0  0  0  0  0  0  0  0  0  0
   64.3700   31.6160   51.1740 O   0  0  0  0  0  0  0  0  0  0  0  0
   65.3450   32.6000   51.5300 C   0  0  0  0  0  0  0  0  0  0  0  0
   66.1220   33.0520   50.2860 C   0  0  0  0  0  0  0  0  0  0  0  0
   65.2180   33.3830   49.2290 O   0  0  0  0  0  0  0  0  0  0  0  0
   58.8670   28.5790   46.4580 C   0  0  0  0  0  0  0  0  0  0  0  0
   57.7680   31.4290   45.9710 C   0  0  0  0  0  0  0  0  0  0  0  0
   58.5010   32.6190   45.9440 C   0  0  0  0  0  0  0  0  0  0  0  0
   59.4680   34.6628   46.8367 H   0  0  0  0  0  0  0  0  0  0  0  0
   60.7031   35.6241   45.9553 H   0  0  0  0  0  0  0  0  0  0  0  0
   58.9861   36.1519   45.9553 H   0  0  0  0  0  0  0  0  0  0  0  0
   58.2498   33.3458   42.6137 H   0  0  0  0  0  0  0  0  0  0  0  0
   56.9513   31.2218   42.6571 H   0  0  0  0  0  0  0  0  0  0  0  0
   56.7887   25.9356   45.8272 H   0  0  0  0  0  0  0  0  0  0  0  0
   58.1687   24.9358   47.6455 H   0  0  0  0  0  0  0  0  0  0  0  0
   60.0036   26.2544   48.6971 H   0  0  0  0  0  0  0  0  0  0  0  0
   61.5250   28.3100   48.4730 H   0  0  0  0  0  0  0  0  0  0  0  0
   61.6224   32.1017   46.6757 H   0  0  0  0  0  0  0  0  0  0  0  0
   63.6455   33.5073   47.0707 H   0  0  0  0  0  0  0  0  0  0  0  0
   62.2061   30.1872   50.5244 H   0  0  0  0  0  0  0  0  0  0  0  0
   64.8384   33.4681   51.9771 H   0  0  0  0  0  0  0  0  0  0  0  0
   66.0490   32.1620   52.2529 H   0  0  0  0  0  0  0  0  0  0  0  0
   66.7261   33.9363   50.5370 H   0  0  0  0  0  0  0  0  0  0  0  0
   66.7749   32.2312   49.9543 H   0  0  0  0  0  0  0  0  0  0  0  0
   59.0377   29.6204   46.1476 H   0  0  0  0  0  0  0  0  0  0  0  0
   57.6445   30.8845   46.9188 H   0  0  0  0  0  0  0  0  0  0  0  0
   58.9413   33.0085   46.8737 H   0  0  0  0  0  0  0  0  0  0  0  0
  1  2  1  0
  2  3  1  0
  3  4  2  0
  4  5  1  0
  5  6  2  0
  6  7  1  0
  7  8  2  0
  7  9  1  0
  9 10  1  0
 10 11  2  0
 11 12  1  0
 12 13  2  0
 13 14  1  0
 14 15  1  0
 15 16  1  0
 16 17  2  0
 16 18  1  0
 18 19  2  0
 19 20  1  0
 20 21  2  0
 21 22  1  0
 22 23  2  0
 22 24  1  0
 24 25  1  0
 25 26  1  0
 26 27  1  0
 14 28  2  0
  6 29  1  0
 29 30  2  0
 30  3  1  0
 28 10  1  0
 23 18  1  0
 27 21  1  0
  1 31  1  0
  1 32  1  0
  1 33  1  0
  4 34  1  0
  5 35  1  0
 11 36  1  0
 12 37  1  0
 13 38  1  0
 15 39  1  0
 19 40  1  0
 20 41  1  0
 23 42  1  0
 25 43  1  0
 25 44  1  0
 26 45  1  0
 26 46  1  0
 28 47  1  0
 29 48  1  0
 30 49  1  0
M  CHG  1   9  -1
M  END
>  <UniqueID>  (54) 
50

>  <SMILES>  (54) 
COc1ccc(C(=O)[N-]c2cccc(NC(=O)c3ccc4c(c3)OCCO4)c2)cc1

>  <Energy>  (54) 
65.52372912076821

>  <Genealogy>  (54) 
COc1ccc(C(=O)[N-]c2cccc(NC(=O)c3ccc4c(c3)OCCO4)c2)cc1 (protonated)
COc1ccc(C(=O)[N-]c2cccc(NC(=O)c3ccc4c(c3)OCCO4)c2)cc1 (3D coordinates assigned)
COc1ccc(C(=O)[N-]c2cccc(NC(=O)c3ccc4c(c3)OCCO4)c2)cc1 (nonaromatic ring conformer: 65.52372912076821 kcal/mol)

>  <smiles>  (54) 
COc1ccc(C(=O)Nc2cccc(NC(=O)c3ccc4c(c3)OCCO4)c2)cc1

>  <score_type>  (54) 
oracle

>  <origin>  (54) 
adg

>  <m_score__min__energy>  (54) 
-9.6799999999999997

>  <m_primary>  (54) 
energy

$$$$
54:0
     RDKit          3D

 76 80  0  0  0  0  0  0  0  0999 V2000
   56.7842   31.9258   44.7105 H   0  0  0  0  0  0  0  0  0  0  0  0
   57.4810   32.2960   43.9440 C   0  0  0  0  0  0  0  0  0  0  0  0
   58.3340   33.2740   44.3030 C   0  0  0  0  0  0  0  0  0  0  0  0
   59.3245   33.2859   43.8247 H   0  0  0  0  0  0  0  0  0  0  0  0
   58.0330   34.3570   45.3140 C   0  0  0  0  0  0  0  0  0  0  0  0
   58.6738   35.2264   45.1054 H   0  0  0  0  0  0  0  0  0  0  0  0
   56.9683   34.6192   45.2262 H   0  0  0  0  0  0  0  0  0  0  0  0
   58.2810   33.9010   46.7020 N   0  0  0  0  0  0  0  0  0  0  0  0
   57.3980   34.0110   47.2560 H   0  0  0  0  0  0  0  0  0  0  0  0
   59.3230   34.7470   47.3390 C   0  0  0  0  0  0  0  0  0  0  0  0
   60.1050   34.9569   46.5944 H   0  0  0  0  0  0  0  0  0  0  0  0
   58.8270   35.6637   47.6906 H   0  0  0  0  0  0  0  0  0  0  0  0
   59.9830   34.0850   48.5690 C   0  0  0  0  0  0  0  0  0  0  0  0
   60.9638   33.6816   48.2767 H   0  0  0  0  0  0  0  0  0  0  0  0
   60.0962   34.8452   49.3559 H   0  0  0  0  0  0  0  0  0  0  0  0
   59.1520   32.9930   49.0920 N   0  0  0  0  0  0  0  0  0  0  0  0
   58.8860   32.8780   50.5030 C   0  0  0  0  0  0  0  0  0  0  0  0
   58.0510   31.8550   50.9900 C   0  0  0  0  0  0  0  0  0  0  0  0
   57.6006   31.1352   50.2907 H   0  0  0  0  0  0  0  0  0  0  0  0
   57.7920   31.7510   52.3620 C   0  0  0  0  0  0  0  0  0  0  0  0
   57.1426   30.9466   52.7378 H   0  0  0  0  0  0  0  0  0  0  0  0
   58.3560   32.6660   53.2560 C   0  0  0  0  0  0  0  0  0  0  0  0
   58.1545   32.5783   54.3338 H   0  0  0  0  0  0  0  0  0  0  0  0
   59.1760   33.6920   52.7790 C   0  0  0  0  0  0  0  0  0  0  0  0
   59.6176   34.4140   53.4816 H   0  0  0  0  0  0  0  0  0  0  0  0
   59.4360   33.8020   51.4080 C   0  0  0  0  0  0  0  0  0  0  0  0
   60.0748   34.6168   51.0366 H   0  0  0  0  0  0  0  0  0  0  0  0
   58.6880   31.9530   48.1690 C   0  0  0  0  0  0  0  0  0  0  0  0
   59.3627   31.0866   48.2331 H   0  0  0  0  0  0  0  0  0  0  0  0
   57.6649   31.6628   48.4500 H   0  0  0  0  0  0  0  0  0  0  0  0
   58.6730   32.4740   46.7240 C   0  0  0  0  0  0  0  0  0  0  0  0
   59.6770   32.3657   46.2877 H   0  0  0  0  0  0  0  0  0  0  0  0
   57.9459   31.8918   46.1389 H   0  0  0  0  0  0  0  0  0  0  0  0
   57.4040   31.6650   42.5700 C   0  0  0  0  0  0  0  0  0  0  0  0
   58.3949   31.7269   42.0964 H   0  0  0  0  0  0  0  0  0  0  0  0
   56.6464   32.2128   41.9904 H   0  0  0  0  0  0  0  0  0  0  0  0
   56.9750   30.1890   42.6280 C   0  0  0  0  0  0  0  0  0  0  0  0
   57.8458   29.5912   42.9352 H   0  0  0  0  0  0  0  0  0  0  0  0
   56.6062   29.9337   41.6236 H   0  0  0  0  0  0  0  0  0  0  0  0
   55.8230   29.8910   43.6010 C   0  0  0  0  0  0  0  0  0  0  0  0
   55.1295   29.1842   43.1220 H   0  0  0  0  0  0  0  0  0  0  0  0
   55.3269   30.8441   43.8365 H   0  0  0  0  0  0  0  0  0  0  0  0
   56.3050   29.2950   44.8890 C   0  0  0  0  0  0  0  0  0  0  0  0
   57.0750   29.9540   45.6380 O   0  0  0  0  0  0  0  0  0  0  0  0
   55.8640   28.0180   45.2560 O   0  0  0  0  0  0  0  0  0  0  0  0
   56.6850   27.0520   45.9110 C   0  0  0  0  0  0  0  0  0  0  0  0
   57.4363   27.5727   46.5229 H   0  0  0  0  0  0  0  0  0  0  0  0
   56.0469   26.4188   46.5449 H   0  0  0  0  0  0  0  0  0  0  0  0
   57.3990   26.1620   44.8890 C   0  0  0  0  0  0  0  0  0  0  0  0
   57.4466   25.1336   45.2766 H   0  0  0  0  0  0  0  0  0  0  0  0
   56.8371   26.1879   43.9437 H   0  0  0  0  0  0  0  0  0  0  0  0
   58.7250   26.6340   44.6480 O   0  0  0  0  0  0  0  0  0  0  0  0
   59.3850   27.6330   45.3830 C   0  0  0  0  0  0  0  0  0  0  0  0
   59.6940   27.3670   46.7210 C   0  0  0  0  0  0  0  0  0  0  0  0
   59.4046   26.4030   47.1648 H   0  0  0  0  0  0  0  0  0  0  0  0
   60.3660   28.3120   47.5000 C   0  0  0  0  0  0  0  0  0  0  0  0
   60.6070   28.0841   48.5488 H   0  0  0  0  0  0  0  0  0  0  0  0
   60.7360   29.5520   46.9520 C   0  0  0  0  0  0  0  0  0  0  0  0
   61.4650   30.5630   47.7550 C   0  0  0  0  0  0  0  0  0  0  0  0
   61.4230   30.6070   49.0760 O   0  0  0  0  0  0  0  0  0  0  0  0
   62.1620   31.6170   49.4650 C   0  0  0  0  0  0  0  0  0  0  0  0
   62.4040   32.0440   50.7690 C   0  0  0  0  0  0  0  0  0  0  0  0
   61.9631   31.5200   51.6298 H   0  0  0  0  0  0  0  0  0  0  0  0
   63.2320   33.1690   50.9480 C   0  0  0  0  0  0  0  0  0  0  0  0
   63.4465   33.5339   51.9633 H   0  0  0  0  0  0  0  0  0  0  0  0
   63.7890   33.8320   49.8310 C   0  0  0  0  0  0  0  0  0  0  0  0
   64.4328   34.7111   49.9814 H   0  0  0  0  0  0  0  0  0  0  0  0
   63.5240   33.3730   48.5270 C   0  0  0  0  0  0  0  0  0  0  0  0
   63.9507   33.8793   47.6486 H   0  0  0  0  0  0  0  0  0  0  0  0
   62.7040   32.2570   48.3860 C   0  0  0  0  0  0  0  0  0  0  0  0
   62.2710   31.5940   47.2630 C   0  0  0  0  0  0  0  0  0  0  0  0
   62.5057   31.8230   46.2130 H   0  0  0  0  0  0  0  0  0  0  0  0
   60.4080   29.8290   45.6140 C   0  0  0  0  0  0  0  0  0  0  0  0
   60.6788   30.8011   45.1762 H   0  0  0  0  0  0  0  0  0  0  0  0
   59.7400   28.8790   44.8340 C   0  0  0  0  0  0  0  0  0  0  0  0
   59.4912   29.1071   43.7871 H   0  0  0  0  0  0  0  0  0  0  0  0
  1  2  1  0
  2  3  2  0
  3  4  1  0
  3  5  1  0
  5  6  1  0
  5  7  1  0
  5  8  1  0
  8  9  1  0
  8 10  1  0
 10 11  1  0
 10 12  1  0
 10 13  1  0
 13 14  1  0
 13 15  1  0
 13 16  1  0
 16 17  1  0
 17 18  2  0
 18 19  1  0
 18 20  1  0
 20 21  1  0
 20 22  2  0
 22 23  1  0
 22 24  1  0
 24 25  1  0
 24 26  2  0
 26 27  1  0
 16 28  1  0
 28 29  1  0
 28 30  1  0
 28 31  1  0
 31 32  1  0
 31 33  1  0
  2 34  1  0
 34 35  1  0
 34 36  1  0
 34 37  1  0
 37 38  1  0
 37 39  1  0
 37 40  1  0
 40 41  1  0
 40 42  1  0
 40 43  1  0
 43 44  2  0
 43 45  1  0
 45 46  1  0
 46 47  1  0
 46 48  1  0
 46 49  1  0
 49 50  1  0
 49 51  1  0
 49 52  1  0
 52 53  1  0
 53 54  2  0
 54 55  1  0
 54 56  1  0
 56 57  1  0
 56 58  2  0
 58 59  1  0
 59 60  1  0
 60 61  1  0
 61 62  2  0
 62 63  1  0
 62 64  1  0
 64 65  1  0
 64 66  2  0
 66 67  1  0
 66 68  1  0
 68 69  1  0
 68 70  2  0
 70 71  1  0
 71 72  1  0
 58 73  1  0
 73 74  1  0
 73 75  2  0
 75 76  1  0
 31  8  1  0
 75 53  1  0
 26 17  1  0
 71 59  2  0
 70 61  1  0
M  CHG  1   8   1
M  END
>  <UniqueID>  (55) 
51

>  <SMILES>  (55) 
O=C(CCC/C=C\C[NH+]1CCN(c2ccccc2)CC1)OCCOc1ccc(-c2cc3ccccc3o2)cc1

>  <Energy>  (55) 
119.64204339281973

>  <Genealogy>  (55) 
O=C(CCCC=CC[NH+]1CCN(c2ccccc2)CC1)OCCOc1ccc(-c2cc3ccccc3o2)cc1 (protonated)
O=C(CCC/C=C\C[NH+]1CCN(c2ccccc2)CC1)OCCOc1ccc(-c2cc3ccccc3o2)cc1 (cis-trans isomerization)
O=C(CCC/C=C\C[NH+]1CCN(c2ccccc2)CC1)OCCOc1ccc(-c2cc3ccccc3o2)cc1 (3D coordinates assigned)
O=C(CCC/C=C\C[NH+]1CCN(c2ccccc2)CC1)OCCOc1ccc(-c2cc3ccccc3o2)cc1 (nonaromatic ring conformer: 119.64204339281973 kcal/mol)

>  <smiles>  (55) 
O=C(CCCC=CCN1CCN(c2ccccc2)CC1)OCCOc1ccc(-c2cc3ccccc3o2)cc1

>  <score_type>  (55) 
oracle

>  <origin>  (55) 
adg

>  <m_score__min__energy>  (55) 
-7.4900000000000002

>  <m_primary>  (55) 
energy

$$$$
55:0
     RDKit          3D

 32 33  0  0  0  0  0  0  0  0999 V2000
   55.1709   21.4366   45.7174 H   0  0  0  0  0  0  0  0  0  0  0  0
   55.1370   22.5350   45.7650 C   0  0  0  0  0  0  0  0  0  0  0  0
   56.3030   23.2560   46.0400 C   0  0  0  0  0  0  0  0  0  0  0  0
   57.2472   22.7192   46.2142 H   0  0  0  0  0  0  0  0  0  0  0  0
   56.2800   24.6600   46.0960 C   0  0  0  0  0  0  0  0  0  0  0  0
   57.5390   25.3970   46.3720 C   0  0  0  0  0  0  0  0  0  0  0  0
   57.9370   25.5130   47.5620 O   0  0  0  0  0  0  0  0  0  0  0  0
   58.2910   26.0400   45.3310 N   0  0  0  0  0  0  0  0  0  0  0  0
   58.3540   27.3190   45.0700 C   0  0  0  0  0  0  0  0  0  0  0  0
   59.5550   28.0510   45.1810 C   0  0  0  0  0  0  0  0  0  0  0  0
   60.4837   27.5485   45.4893 H   0  0  0  0  0  0  0  0  0  0  0  0
   59.5560   29.4160   44.8970 C   0  0  0  0  0  0  0  0  0  0  0  0
   60.4887   29.9935   44.9779 H   0  0  0  0  0  0  0  0  0  0  0  0
   58.3770   30.0490   44.5110 C   0  0  0  0  0  0  0  0  0  0  0  0
   58.3725   31.1264   44.2891 H   0  0  0  0  0  0  0  0  0  0  0  0
   57.1980   29.3020   44.4080 C   0  0  0  0  0  0  0  0  0  0  0  0
   55.9110   29.9800   44.0390 C   0  0  0  0  0  0  0  0  0  0  0  0
   55.3709   30.2645   44.9541 H   0  0  0  0  0  0  0  0  0  0  0  0
   56.1280   30.8809   43.4462 H   0  0  0  0  0  0  0  0  0  0  0  0
   55.2907   29.2916   43.4462 H   0  0  0  0  0  0  0  0  0  0  0  0
   57.2110   27.9710   44.7080 N   0  0  0  0  0  0  0  0  0  0  0  0
   56.3170   27.4290   44.6490 H   0  0  0  0  0  0  0  0  0  0  0  0
   55.0550   25.3300   45.9010 C   0  0  0  0  0  0  0  0  0  0  0  0
   54.9720   26.7160   46.0010 O   0  0  0  0  0  0  0  0  0  0  0  0
   53.8930   24.6040   45.6220 C   0  0  0  0  0  0  0  0  0  0  0  0
   52.9452   25.1377   45.4579 H   0  0  0  0  0  0  0  0  0  0  0  0
   53.9210   23.2080   45.5490 C   0  0  0  0  0  0  0  0  0  0  0  0
   52.7260   22.5300   45.2660 O   0  0  0  0  0  0  0  0  0  0  0  0
   51.4290   23.0170   45.5930 C   0  0  0  0  0  0  0  0  0  0  0  0
   51.3180   23.0587   46.6866 H   0  0  0  0  0  0  0  0  0  0  0  0
   51.2991   24.0251   45.1726 H   0  0  0  0  0  0  0  0  0  0  0  0
   50.6677   22.3435   45.1726 H   0  0  0  0  0  0  0  0  0  0  0  0
  1  2  1  0
  2  3  2  0
  3  4  1  0
  3  5  1  0
  5  6  1  0
  6  7  2  0
  6  8  1  0
  8  9  2  0
  9 10  1  0
 10 11  1  0
 10 12  2  0
 12 13  1  0
 12 14  1  0
 14 15  1  0
 14 16  2  0
 16 17  1  0
 17 18  1  0
 17 19  1  0
 17 20  1  0
 16 21  1  0
 21 22  1  0
  5 23  2  0
 23 24  1  0
 23 25  1  0
 25 26  1  0
 25 27  2  0
 27 28  1  0
 28 29  1  0
 29 30  1  0
 29 31  1  0
 29 32  1  0
 27  2  1  0
 21  9  1  0
M  CHG  1  24  -1
M  END
>  <UniqueID>  (56) 
52

>  <SMILES>  (56) 
COc1ccc(C(=O)/N=c2\cccc(C)[nH]2)c([O-])c1

>  <Energy>  (56) 
43.83155841709318

>  <Genealogy>  (56) 
COc1ccc(C(=O)N=c2cccc(C)[nH]2)c([O-])c1 (protonated)
COc1ccc(C(=O)/N=c2\cccc(C)[nH]2)c([O-])c1 (cis-trans isomerization)
COc1ccc(C(=O)/N=c2\cccc(C)[nH]2)c([O-])c1 (3D coordinates assigned)
COc1ccc(C(=O)/N=c2\cccc(C)[nH]2)c([O-])c1 (optimized conformer: 43.83155841709318 kcal/mol)

>  <smiles>  (56) 
COc1ccc(C(=O)N=c2cccc(C)[nH]2)c(O)c1

>  <score_type>  (56) 
oracle

>  <origin>  (56) 
adg

>  <m_score__min__energy>  (56) 
-11.24

>  <m_primary>  (56) 
energy

$$$$
56:0
     RDKit          3D

 29 30  0  0  0  0  0  0  0  0999 V2000
   53.6260   21.9850   44.8710 H   0  0  0  0  0  0  0  0  0  0  0  0
   53.3680   22.9620   44.9350 O   0  0  0  0  0  0  0  0  0  0  0  0
   54.3080   23.9620   45.1850 C   0  0  0  0  0  0  0  0  0  0  0  0
   53.8760   25.2190   45.6120 C   0  0  0  0  0  0  0  0  0  0  0  0
   52.8012   25.4143   45.7411 H   0  0  0  0  0  0  0  0  0  0  0  0
   54.7790   26.2030   45.8690 N   0  0  0  0  0  0  0  0  0  0  0  0
   56.1190   26.0080   45.7350 C   0  0  0  0  0  0  0  0  0  0  0  0
   57.0270   27.1390   46.0220 C   0  0  0  0  0  0  0  0  0  0  0  0
   57.1901   27.3991   47.0783 H   0  0  0  0  0  0  0  0  0  0  0  0
   57.6690   27.8750   45.1010 C   0  0  0  0  0  0  0  0  0  0  0  0
   58.1306   27.3433   44.2559 H   0  0  0  0  0  0  0  0  0  0  0  0
   57.8020   29.3480   45.1380 C   0  0  0  0  0  0  0  0  0  0  0  0
   58.6600   29.9040   46.0990 C   0  0  0  0  0  0  0  0  0  0  0  0
   59.2212   29.2438   46.7766 H   0  0  0  0  0  0  0  0  0  0  0  0
   58.8070   31.2880   46.2020 C   0  0  0  0  0  0  0  0  0  0  0  0
   59.4743   31.7140   46.9657 H   0  0  0  0  0  0  0  0  0  0  0  0
   58.1090   32.1320   45.3380 C   0  0  0  0  0  0  0  0  0  0  0  0
   58.2148   33.2229   45.4310 H   0  0  0  0  0  0  0  0  0  0  0  0
   57.2760   31.5930   44.3550 C   0  0  0  0  0  0  0  0  0  0  0  0
   56.7269   32.2639   43.6780 H   0  0  0  0  0  0  0  0  0  0  0  0
   57.1330   30.2010   44.2230 C   0  0  0  0  0  0  0  0  0  0  0  0
   56.2540   29.6710   43.1200 C   0  0  0  0  0  0  0  0  0  0  0  0
   55.3899   29.1500   43.5581 H   0  0  0  0  0  0  0  0  0  0  0  0
   55.9014   30.5072   42.4983 H   0  0  0  0  0  0  0  0  0  0  0  0
   56.8289   28.9689   42.4983 H   0  0  0  0  0  0  0  0  0  0  0  0
   56.5920   24.7670   45.2770 C   0  0  0  0  0  0  0  0  0  0  0  0
   57.6700   24.6057   45.1286 H   0  0  0  0  0  0  0  0  0  0  0  0
   55.6830   23.7380   45.0110 C   0  0  0  0  0  0  0  0  0  0  0  0
   56.1040   22.6200   44.6120 O   0  0  0  0  0  0  0  0  0  0  0  0
  1  2  1  0
  2  3  1  0
  3  4  2  0
  4  5  1  0
  4  6  1  0
  6  7  1  0
  7  8  1  0
  8  9  1  0
  8 10  2  0
 10 11  1  0
 10 12  1  0
 12 13  2  0
 13 14  1  0
 13 15  1  0
 15 16  1  0
 15 17  2  0
 17 18  1  0
 17 19  1  0
 19 20  1  0
 19 21  2  0
 21 22  1  0
 22 23  1  0
 22 24  1  0
 22 25  1  0
  7 26  2  0
 26 27  1  0
 26 28  1  0
 28 29  2  0
 28  3  1  0
 21 12  1  0
M  CHG  1   6  -1
M  END
>  <UniqueID>  (57) 
53

>  <SMILES>  (57) 
Cc1ccccc1/C=C\c1cc(=O)c(O)c[n-]1

>  <Energy>  (57) 
41.99545379528417

>  <Genealogy>  (57) 
Cc1ccccc1C=Cc1cc(=O)c(O)c[n-]1 (protonated)
Cc1ccccc1/C=C\c1cc(=O)c(O)c[n-]1 (cis-trans isomerization)
Cc1ccccc1/C=C\c1cc(=O)c(O)c[n-]1 (3D coordinates assigned)
Cc1ccccc1/C=C\c1cc(=O)c(O)c[n-]1 (optimized conformer: 41.99545379528417 kcal/mol)

>  <smiles>  (57) 
Cc1ccccc1C=Cc1cc(=O)c(O)c[nH]1

>  <score_type>  (57) 
oracle

>  <origin>  (57) 
adg

>  <m_score__min__energy>  (57) 
-8.6699999999999999

>  <m_primary>  (57) 
energy

$$$$
57:0
     RDKit          3D

 39 43  0  0  0  0  0  0  0  0999 V2000
   51.7002   31.9734   54.1064 H   0  0  0  0  0  0  0  0  0  0  0  0
   52.0480   31.1900   53.4170 C   0  0  0  0  0  0  0  0  0  0  0  0
   51.6060   31.2530   52.0190 C   0  0  0  0  0  0  0  0  0  0  0  0
   51.8840   30.3100   51.1030 N   0  0  0  0  0  0  0  0  0  0  0  0
   51.4150   30.8440   49.9530 C   0  0  0  0  0  0  0  0  0  0  0  0
   51.4940   30.0630   48.5200 S   0  0  0  0  0  0  0  0  0  0  0  0
   50.8920   32.0820   50.0810 N   0  0  0  0  0  0  0  0  0  0  0  0
   51.0280   32.3280   51.3920 C   0  0  0  0  0  0  0  0  0  0  0  0
   50.6650   33.5260   51.9960 O   0  0  0  0  0  0  0  0  0  0  0  0
   52.8510   30.2330   53.9020 C   0  0  0  0  0  0  0  0  0  0  0  0
   52.6040   29.4630   55.0360 C   0  0  0  0  0  0  0  0  0  0  0  0
   51.6943   29.5204   55.6518 H   0  0  0  0  0  0  0  0  0  0  0  0
   53.6490   28.6330   55.2690 N   0  0  0  0  0  0  0  0  0  0  0  0
   54.5410   28.8670   54.3190 N   0  0  0  0  0  0  0  0  0  0  0  0
   56.1500   29.7780   52.3570 C   0  0  0  0  0  0  0  0  0  0  0  0
   56.9810   30.2410   51.4700 N   0  0  0  0  0  0  0  0  0  0  0  0
   55.7110   26.0190   55.2820 C   0  0  0  0  0  0  0  0  0  0  0  0
   55.8340   26.1008   56.3720 H   0  0  0  0  0  0  0  0  0  0  0  0
   54.6310   25.4730   54.3620 C   0  0  0  0  0  0  0  0  0  0  0  0
   53.8512   24.8083   54.7621 H   0  0  0  0  0  0  0  0  0  0  0  0
   53.8979   25.9164   53.6722 H   0  0  0  0  0  0  0  0  0  0  0  0
   56.0720   24.9750   54.2380 C   0  0  0  0  0  0  0  0  0  0  0  0
   56.3295   23.9517   54.5488 H   0  0  0  0  0  0  0  0  0  0  0  0
   56.8066   24.9111   53.4218 H   0  0  0  0  0  0  0  0  0  0  0  0
   56.5790   28.7970   53.2070 N   0  0  0  0  0  0  0  0  0  0  0  0
   55.7770   28.3260   54.2000 C   0  0  0  0  0  0  0  0  0  0  0  0
   56.1660   27.4010   55.0370 N   0  0  0  0  0  0  0  0  0  0  0  0
   57.7030   31.4770   51.5490 C   0  0  0  0  0  0  0  0  0  0  0  0
   57.4120   32.4300   52.5340 C   0  0  0  0  0  0  0  0  0  0  0  0
   56.6539   32.2192   53.3027 H   0  0  0  0  0  0  0  0  0  0  0  0
   58.0930   33.6510   52.5320 C   0  0  0  0  0  0  0  0  0  0  0  0
   57.8770   34.4016   53.3065 H   0  0  0  0  0  0  0  0  0  0  0  0
   59.0220   33.9120   51.5740 N   0  0  0  0  0  0  0  0  0  0  0  0
   59.3080   33.0120   50.5960 C   0  0  0  0  0  0  0  0  0  0  0  0
   60.0653   33.2501   49.8346 H   0  0  0  0  0  0  0  0  0  0  0  0
   58.6410   31.7850   50.5570 C   0  0  0  0  0  0  0  0  0  0  0  0
   58.8517   31.0657   49.7519 H   0  0  0  0  0  0  0  0  0  0  0  0
   54.8930   30.3020   52.4960 N   0  0  0  0  0  0  0  0  0  0  0  0
   54.1010   29.8130   53.4840 C   0  0  0  0  0  0  0  0  0  0  0  0
  1  2  1  0
  2  3  1  0
  3  4  1  0
  4  5  1  0
  5  6  2  0
  5  7  1  0
  7  8  1  0
  8  9  1  0
  2 10  2  3
 10 11  1  0
 11 12  1  0
 11 13  2  0
 13 14  1  0
 14 15  1  0
 15 16  2  0
 16 17  1  0
 17 18  1  0
 17 19  1  0
 19 20  1  0
 19 21  1  0
 19 22  1  0
 22 23  1  0
 22 24  1  0
 15 25  1  0
 25 26  1  0
 26 27  2  0
 27 28  1  0
 28 29  2  0
 29 30  1  0
 29 31  1  0
 31 32  1  0
 31 33  2  0
 33 34  1  0
 34 35  1  0
 34 36  2  0
 36 37  1  0
 26 38  1  0
 38 39  2  0
  8  3  2  0
 39 10  1  0
 39 14  1  0
 22 17  1  0
 36 28  1  0
M  CHG  4   4  -1   7  -1   9  -1  25  -1
M  END
>  <UniqueID>  (58) 
54

>  <SMILES>  (58) 
[O-]c1[n-]c(=S)[n-]c1C=c1cnn2/c(=N/C3CC3)[n-]/c(=N/c3ccncc3)nc12

>  <Energy>  (58) 
400.1399035972654

>  <Genealogy>  (58) 
[O-]c1[n-]c(=S)[n-]c1C=c1cnn2c(=NC3CC3)[n-]c(=Nc3ccncc3)nc12 (protonated)
[O-]c1[n-]c(=S)[n-]c1C=c1cnn2/c(=N/C3CC3)[n-]/c(=N/c3ccncc3)nc12 (cis-trans isomerization)
[O-]c1[n-]c(=S)[n-]c1C=c1cnn2/c(=N/C3CC3)[n-]/c(=N/c3ccncc3)nc12 (3D coordinates assigned)
[O-]c1[n-]c(=S)[n-]c1C=c1cnn2/c(=N/C3CC3)[n-]/c(=N/c3ccncc3)nc12 (nonaromatic ring conformer: 400.1399035972654 kcal/mol)

>  <smiles>  (58) 
Oc1[nH]c(=S)[nH]c1C=c1cnn2c(=NC3CC3)[nH]c(=Nc3ccncc3)nc12

>  <score_type>  (58) 
oracle

>  <origin>  (58) 
adg

>  <m_score__min__energy>  (58) 
-16.449999999999999

>  <m_primary>  (58) 
energy

$$$$
58:0
     RDKit          3D

 59 63  0  0  0  0  0  0  0  0999 V2000
   62.2200   26.3920   52.2050 C   0  0  0  0  0  0  0  0  0  0  0  0
   61.3350   27.1410   51.2530 C   0  0  0  0  0  0  0  0  0  0  0  0
   60.7530   28.3590   51.6340 C   0  0  0  0  0  0  0  0  0  0  0  0
   59.9730   29.0890   50.7250 C   0  0  0  0  0  0  0  0  0  0  0  0
   59.3480   30.3990   51.1290 C   0  0  0  0  0  0  0  0  0  0  0  0
   59.8950   31.4920   50.3280 N   0  0  0  0  0  0  0  0  0  0  0  0
   59.0580   32.3940   49.5900 C   0  0  0  0  0  0  0  0  0  0  0  0
   57.8050   32.3420   49.7260 O   0  0  0  0  0  0  0  0  0  0  0  0
   59.6600   33.3890   48.6790 C   0  0  0  0  0  0  0  0  0  0  0  0
   60.6930   34.0090   49.0560 O   0  0  0  0  0  0  0  0  0  0  0  0
   59.1000   33.6800   47.3370 C   0  0  0  0  0  0  0  0  0  0  0  0
   57.9080   33.0530   46.9290 C   0  0  0  0  0  0  0  0  0  0  0  0
   57.3440   33.3450   45.6840 C   0  0  0  0  0  0  0  0  0  0  0  0
   57.9560   34.2740   44.8370 C   0  0  0  0  0  0  0  0  0  0  0  0
   59.1260   34.9160   45.2400 C   0  0  0  0  0  0  0  0  0  0  0  0
   59.6970   34.6230   46.4820 C   0  0  0  0  0  0  0  0  0  0  0  0
   59.7790   28.5910   49.4290 C   0  0  0  0  0  0  0  0  0  0  0  0
   60.3300   27.3640   49.0440 C   0  0  0  0  0  0  0  0  0  0  0  0
   60.0840   26.8920   47.7110 N   0  0  0  0  0  0  0  0  0  0  0  0
   58.8210   26.5570   47.1180 C   0  0  0  0  0  0  0  0  0  0  0  0
   58.4490   25.3520   47.1320 O   0  0  0  0  0  0  0  0  0  0  0  0
   57.9390   27.5670   46.4900 C   0  0  0  0  0  0  0  0  0  0  0  0
   58.5330   28.7960   46.1540 C   0  0  0  0  0  0  0  0  0  0  0  0
   57.8640   29.7090   45.3430 C   0  0  0  0  0  0  0  0  0  0  0  0
   56.5950   29.3920   44.8670 C   0  0  0  0  0  0  0  0  0  0  0  0
   56.0040   28.2260   45.2310 N   0  0  0  0  0  0  0  0  0  0  0  0
   56.6000   27.3200   46.0560 C   0  0  0  0  0  0  0  0  0  0  0  0
   55.8880   26.2800   46.4030 N   0  0  0  0  0  0  0  0  0  0  0  0
   55.8250   24.9750   45.8130 C   0  0  0  0  0  0  0  0  0  0  0  0
   55.4140   23.8810   46.6110 C   0  0  0  0  0  0  0  0  0  0  0  0
   55.3970   22.5730   46.0900 C   0  0  0  0  0  0  0  0  0  0  0  0
   55.8320   22.3980   44.7800 C   0  0  0  0  0  0  0  0  0  0  0  0
   55.9110   21.2540   44.0810 N   0  0  0  0  0  0  0  0  0  0  0  0
   56.3930   21.5590   42.8800 N   0  0  0  0  0  0  0  0  0  0  0  0
   56.6210   22.8940   42.8130 C   0  0  0  0  0  0  0  0  0  0  0  0
   56.2670   23.4430   44.0200 C   0  0  0  0  0  0  0  0  0  0  0  0
   56.2950   24.7490   44.4990 C   0  0  0  0  0  0  0  0  0  0  0  0
   61.1460   26.6630   49.9470 C   0  0  0  0  0  0  0  0  0  0  0  0
   61.9339   26.6341   53.2392 H   0  0  0  0  0  0  0  0  0  0  0  0
   62.1073   25.3108   52.0369 H   0  0  0  0  0  0  0  0  0  0  0  0
   63.2677   26.6819   52.0369 H   0  0  0  0  0  0  0  0  0  0  0  0
   60.9093   28.7443   52.6524 H   0  0  0  0  0  0  0  0  0  0  0  0
   58.2603   30.3449   50.9739 H   0  0  0  0  0  0  0  0  0  0  0  0
   59.5692   30.5882   52.1898 H   0  0  0  0  0  0  0  0  0  0  0  0
   60.9340   31.5790   50.2620 H   0  0  0  0  0  0  0  0  0  0  0  0
   57.4167   32.3280   47.5946 H   0  0  0  0  0  0  0  0  0  0  0  0
   56.4170   32.8431   45.3699 H   0  0  0  0  0  0  0  0  0  0  0  0
   57.5151   34.4979   43.8544 H   0  0  0  0  0  0  0  0  0  0  0  0
   59.6014   35.6554   44.5787 H   0  0  0  0  0  0  0  0  0  0  0  0
   60.6202   35.1341   46.7926 H   0  0  0  0  0  0  0  0  0  0  0  0
   59.1867   29.1716   48.7065 H   0  0  0  0  0  0  0  0  0  0  0  0
   59.5358   29.0387   46.5354 H   0  0  0  0  0  0  0  0  0  0  0  0
   58.3327   30.6692   45.0816 H   0  0  0  0  0  0  0  0  0  0  0  0
   56.0707   30.0874   44.1951 H   0  0  0  0  0  0  0  0  0  0  0  0
   55.1037   24.0547   47.6519 H   0  0  0  0  0  0  0  0  0  0  0  0
   55.0528   21.7217   46.6957 H   0  0  0  0  0  0  0  0  0  0  0  0
   57.0191   23.4401   41.9451 H   0  0  0  0  0  0  0  0  0  0  0  0
   56.6694   25.5759   43.8776 H   0  0  0  0  0  0  0  0  0  0  0  0
   61.6402   25.7333   49.6286 H   0  0  0  0  0  0  0  0  0  0  0  0
  1  2  1  0
  2  3  2  0
  3  4  1  0
  4  5  1  0
  5  6  1  0
  6  7  1  0
  7  8  2  0
  7  9  1  0
  9 10  2  0
  9 11  1  0
 11 12  2  0
 12 13  1  0
 13 14  2  0
 14 15  1  0
 15 16  2  0
  4 17  2  0
 17 18  1  0
 18 19  1  0
 19 20  1  0
 20 21  2  0
 20 22  1  0
 22 23  2  0
 23 24  1  0
 24 25  2  0
 25 26  1  0
 26 27  1  0
 27 28  2  3
 28 29  1  0
 29 30  2  0
 30 31  1  0
 31 32  2  0
 32 33  1  0
 33 34  1  0
 34 35  2  0
 35 36  1  0
 36 37  2  0
 18 38  2  0
 38  2  1  0
 16 11  1  0
 27 22  1  0
 37 29  1  0
 36 32  1  0
  1 39  1  0
  1 40  1  0
  1 41  1  0
  3 42  1  0
  5 43  1  0
  5 44  1  0
  6 45  1  0
 12 46  1  0
 13 47  1  0
 14 48  1  0
 15 49  1  0
 16 50  1  0
 17 51  1  0
 23 52  1  0
 24 53  1  0
 25 54  1  0
 30 55  1  0
 31 56  1  0
 35 57  1  0
 37 58  1  0
 38 59  1  0
M  CHG  3  19  -1  26  -1  33  -1
M  END
>  <UniqueID>  (59) 
55

>  <SMILES>  (59) 
Cc1cc(CNC(=O)C(=O)c2ccccc2)cc([N-]C(=O)c2ccc[n-]c2=Nc2ccc3[n-]ncc3c2)c1

>  <Energy>  (59) 
124.0419188700665

>  <Genealogy>  (59) 
Cc1cc(CNC(=O)C(=O)c2ccccc2)cc([N-]C(=O)c2ccc[n-]c2=Nc2ccc3[n-]ncc3c2)c1 (protonated)
Cc1cc(CNC(=O)C(=O)c2ccccc2)cc([N-]C(=O)c2ccc[n-]c2=Nc2ccc3[n-]ncc3c2)c1 (3D coordinates assigned)
Cc1cc(CNC(=O)C(=O)c2ccccc2)cc([N-]C(=O)c2ccc[n-]c2=Nc2ccc3[n-]ncc3c2)c1 (optimized conformer: 124.0419188700665 kcal/mol)

>  <smiles>  (59) 
Cc1cc(CNC(=O)C(=O)c2ccccc2)cc(NC(=O)c2ccc[nH]c2=Nc2ccc3[nH]ncc3c2)c1

>  <score_type>  (59) 
oracle

>  <origin>  (59) 
adg

>  <m_score__min__energy>  (59) 
-15.550000000000001

>  <m_primary>  (59) 
energy

$$$$
59:0
     RDKit          3D

 40 42  0  0  0  0  0  0  0  0999 V2000
   55.4200   29.0540   44.5190 N   0  0  0  0  0  0  0  0  0  0  0  0
   56.2160   30.1840   44.1650 C   0  0  0  0  0  0  0  0  0  0  0  0
   56.5310   30.4430   42.8270 C   0  0  0  0  0  0  0  0  0  0  0  0
   57.3100   31.5620   42.5310 C   0  0  0  0  0  0  0  0  0  0  0  0
   57.6090   31.8260   41.3380 O   0  0  0  0  0  0  0  0  0  0  0  0
   57.7460   32.3680   43.5330 N   0  0  0  0  0  0  0  0  0  0  0  0
   57.4350   32.1000   44.8290 C   0  0  0  0  0  0  0  0  0  0  0  0
   58.0280   33.1760   46.1300 S   0  0  0  0  0  0  0  0  0  0  0  0
   59.5480   32.2090   46.3930 C   0  0  0  0  0  0  0  0  0  0  0  0
   59.2010   30.7590   46.5070 C   0  0  0  0  0  0  0  0  0  0  0  0
   58.3420   30.3960   47.3550 O   0  0  0  0  0  0  0  0  0  0  0  0
   59.9090   29.7890   45.7200 N   0  0  0  0  0  0  0  0  0  0  0  0
   59.5310   28.4060   45.6170 C   0  0  0  0  0  0  0  0  0  0  0  0
   60.1650   27.4120   46.3850 C   0  0  0  0  0  0  0  0  0  0  0  0
   59.7640   26.0770   46.2830 C   0  0  0  0  0  0  0  0  0  0  0  0
   58.7170   25.7180   45.4230 C   0  0  0  0  0  0  0  0  0  0  0  0
   58.2090   24.0370   45.3090 S   0  0  0  0  0  0  0  0  0  0  0  0
   57.7760   23.7510   43.8970 O   0  0  0  0  0  0  0  0  0  0  0  0
   59.3500   23.1360   45.6860 O   0  0  0  0  0  0  0  0  0  0  0  0
   56.8880   23.7640   46.3990 N   0  0  0  0  0  0  0  0  0  0  0  0
   55.6440   23.8580   46.0440 C   0  0  0  0  0  0  0  0  0  0  0  0
   54.9620   25.0220   45.9880 N   0  0  0  0  0  0  0  0  0  0  0  0
   53.6790   24.8230   45.5830 C   0  0  0  0  0  0  0  0  0  0  0  0
   53.3420   23.4990   45.3180 C   0  0  0  0  0  0  0  0  0  0  0  0
   54.7010   22.5440   45.6000 S   0  0  0  0  0  0  0  0  0  0  0  0
   58.0640   26.7090   44.6790 C   0  0  0  0  0  0  0  0  0  0  0  0
   58.4660   28.0440   44.7800 C   0  0  0  0  0  0  0  0  0  0  0  0
   56.6750   31.0170   45.1370 N   0  0  0  0  0  0  0  0  0  0  0  0
   54.3790   29.1240   44.5200 H   0  0  0  0  0  0  0  0  0  0  0  0
   55.8640   28.1440   44.7790 H   0  0  0  0  0  0  0  0  0  0  0  0
   56.1726   29.7794   42.0262 H   0  0  0  0  0  0  0  0  0  0  0  0
   60.2292   32.3575   45.5422 H   0  0  0  0  0  0  0  0  0  0  0  0
   60.0402   32.5428   47.3184 H   0  0  0  0  0  0  0  0  0  0  0  0
   60.7990   30.0910   45.2620 H   0  0  0  0  0  0  0  0  0  0  0  0
   60.9809   27.6872   47.0696 H   0  0  0  0  0  0  0  0  0  0  0  0
   60.2720   25.3052   46.8799 H   0  0  0  0  0  0  0  0  0  0  0  0
   52.9602   25.6483   45.4729 H   0  0  0  0  0  0  0  0  0  0  0  0
   52.3584   23.1384   44.9825 H   0  0  0  0  0  0  0  0  0  0  0  0
   57.2322   26.4358   44.0131 H   0  0  0  0  0  0  0  0  0  0  0  0
   57.9425   28.8168   44.1980 H   0  0  0  0  0  0  0  0  0  0  0  0
  1  2  1  0
  2  3  2  0
  3  4  1  0
  4  5  2  0
  4  6  1  0
  6  7  2  0
  7  8  1  0
  8  9  1  0
  9 10  1  0
 10 11  2  0
 10 12  1  0
 12 13  1  0
 13 14  2  0
 14 15  1  0
 15 16  2  0
 16 17  1  0
 17 18  2  0
 17 19  2  0
 17 20  1  0
 20 21  2  3
 21 22  1  0
 22 23  1  0
 23 24  2  0
 24 25  1  0
 16 26  1  0
 26 27  2  0
  7 28  1  0
 28  2  1  0
 27 13  1  0
 25 21  1  0
  1 29  1  0
  1 30  1  0
  3 31  1  0
  9 32  1  0
  9 33  1  0
 12 34  1  0
 14 35  1  0
 15 36  1  0
 23 37  1  0
 24 38  1  0
 26 39  1  0
 27 40  1  0
M  CHG  2  22  -1  28  -1
M  END
>  <UniqueID>  (60) 
56

>  <SMILES>  (60) 
Nc1cc(=O)nc(SCC(=O)Nc2ccc(S(=O)(=O)N=c3[n-]ccs3)cc2)[n-]1

>  <Energy>  (60) 
73.83187028923797

>  <Genealogy>  (60) 
Nc1cc(=O)nc(SCC(=O)Nc2ccc(S(=O)(=O)N=c3[n-]ccs3)cc2)[n-]1 (protonated)
Nc1cc(=O)nc(SCC(=O)Nc2ccc(S(=O)(=O)N=c3[n-]ccs3)cc2)[n-]1 (3D coordinates assigned)
Nc1cc(=O)nc(SCC(=O)Nc2ccc(S(=O)(=O)N=c3[n-]ccs3)cc2)[n-]1 (optimized conformer: 73.83187028923797 kcal/mol)

>  <smiles>  (60) 
Nc1cc(=O)nc(SCC(=O)Nc2ccc(S(=O)(=O)N=c3[nH]ccs3)cc2)[nH]1

>  <score_type>  (60) 
oracle

>  <origin>  (60) 
adg

>  <m_score__min__energy>  (60) 
-11.66

>  <m_primary>  (60) 
energy

$$$$
60:0
     RDKit          3D

 33 35  0  0  0  0  0  0  0  0999 V2000
   57.4350   31.9280   41.7900 O   0  0  0  0  0  0  0  0  0  0  0  0
   57.3320   31.5190   42.9760 C   0  0  0  0  0  0  0  0  0  0  0  0
   56.9340   30.2080   43.2350 C   0  0  0  0  0  0  0  0  0  0  0  0
   56.8430   29.7870   44.5700 C   0  0  0  0  0  0  0  0  0  0  0  0
   56.3740   28.4730   44.9070 N   0  0  0  0  0  0  0  0  0  0  0  0
   56.9810   27.5730   45.6310 C   0  0  0  0  0  0  0  0  0  0  0  0
   58.3020   27.7330   46.1010 C   0  0  0  0  0  0  0  0  0  0  0  0
   58.8810   26.7290   46.8820 C   0  0  0  0  0  0  0  0  0  0  0  0
   58.1720   25.6140   47.1970 N   0  0  0  0  0  0  0  0  0  0  0  0
   56.8930   25.4400   46.7740 C   0  0  0  0  0  0  0  0  0  0  0  0
   56.2750   26.4180   45.9910 C   0  0  0  0  0  0  0  0  0  0  0  0
   57.0940   30.6750   45.5670 N   0  0  0  0  0  0  0  0  0  0  0  0
   57.4880   31.9480   45.2970 C   0  0  0  0  0  0  0  0  0  0  0  0
   57.7380   32.9090   46.4180 C   0  0  0  0  0  0  0  0  0  0  0  0
   59.2220   33.0100   46.7030 C   0  0  0  0  0  0  0  0  0  0  0  0
   59.9890   34.0710   46.1640 C   0  0  0  0  0  0  0  0  0  0  0  0
   59.2740   35.3360   45.1670 Cl  0  0  0  0  0  0  0  0  0  0  0  0
   61.3650   34.1390   46.4110 C   0  0  0  0  0  0  0  0  0  0  0  0
   61.9940   33.1610   47.1780 C   0  0  0  0  0  0  0  0  0  0  0  0
   61.2540   32.1000   47.7010 C   0  0  0  0  0  0  0  0  0  0  0  0
   59.8780   32.0130   47.4660 C   0  0  0  0  0  0  0  0  0  0  0  0
   59.0190   30.6310   48.1420 Cl  0  0  0  0  0  0  0  0  0  0  0  0
   57.6000   32.3620   44.0070 N   0  0  0  0  0  0  0  0  0  0  0  0
   56.6967   29.5192   42.4108 H   0  0  0  0  0  0  0  0  0  0  0  0
   58.8717   28.6411   45.8545 H   0  0  0  0  0  0  0  0  0  0  0  0
   59.9140   26.8420   47.2427 H   0  0  0  0  0  0  0  0  0  0  0  0
   56.3431   24.5277   47.0484 H   0  0  0  0  0  0  0  0  0  0  0  0
   55.2357   26.2813   45.6577 H   0  0  0  0  0  0  0  0  0  0  0  0
   57.3540   33.9010   46.1379 H   0  0  0  0  0  0  0  0  0  0  0  0
   57.2242   32.5470   47.3208 H   0  0  0  0  0  0  0  0  0  0  0  0
   61.9538   34.9706   45.9965 H   0  0  0  0  0  0  0  0  0  0  0  0
   63.0749   33.2252   47.3715 H   0  0  0  0  0  0  0  0  0  0  0  0
   61.7559   31.3272   48.3018 H   0  0  0  0  0  0  0  0  0  0  0  0
  1  2  2  0
  2  3  1  0
  3  4  2  0
  4  5  1  0
  5  6  2  3
  6  7  1  0
  7  8  2  0
  8  9  1  0
  9 10  1  0
 10 11  2  0
  4 12  1  0
 12 13  2  0
 13 14  1  0
 14 15  1  0
 15 16  2  0
 16 17  1  0
 16 18  1  0
 18 19  2  0
 19 20  1  0
 20 21  2  0
 21 22  1  0
 13 23  1  0
 23  2  1  0
 11  6  1  0
 21 15  1  0
  3 24  1  0
  7 25  1  0
  8 26  1  0
 10 27  1  0
 11 28  1  0
 14 29  1  0
 14 30  1  0
 18 31  1  0
 19 32  1  0
 20 33  1  0
M  CHG  2   9  -1  23  -1
M  END
>  <UniqueID>  (61) 
57

>  <SMILES>  (61) 
O=c1cc(N=c2cc[n-]cc2)nc(Cc2c(Cl)cccc2Cl)[n-]1

>  <Energy>  (61) 
48.768809898144625

>  <Genealogy>  (61) 
O=c1cc(N=c2cc[n-]cc2)nc(Cc2c(Cl)cccc2Cl)[n-]1 (protonated)
O=c1cc(N=c2cc[n-]cc2)nc(Cc2c(Cl)cccc2Cl)[n-]1 (3D coordinates assigned)
O=c1cc(N=c2cc[n-]cc2)nc(Cc2c(Cl)cccc2Cl)[n-]1 (optimized conformer: 48.768809898144625 kcal/mol)

>  <smiles>  (61) 
O=c1cc(N=c2cc[nH]cc2)nc(Cc2c(Cl)cccc2Cl)[nH]1

>  <score_type>  (61) 
oracle

>  <origin>  (61) 
adg

>  <m_score__min__energy>  (61) 
-10.039999999999999

>  <m_primary>  (61) 
energy

$$$$
61:0
     RDKit          3D

 52 54  0  0  0  0  0  0  0  0999 V2000
   58.0870   32.1460   43.9745 H   0  0  0  0  0  0  0  0  0  0  0  0
   57.3950   31.2910   43.9630 C   0  0  0  0  0  0  0  0  0  0  0  0
   57.0480   30.7780   45.1080 N   0  0  0  0  0  0  0  0  0  0  0  0
   57.8200   29.9080   45.9480 C   0  0  0  0  0  0  0  0  0  0  0  0
   57.3010   28.8280   46.3360 O   0  0  0  0  0  0  0  0  0  0  0  0
   59.2930   30.1720   46.1960 C   0  0  1  0  0  0  0  0  0  0  0  0
   59.4966   31.1716   45.7844 H   0  0  0  0  0  0  0  0  0  0  0  0
   59.6100   30.0950   47.6190 N   0  0  0  0  0  0  0  0  0  0  0  0
   59.2350   31.1130   48.5680 C   0  0  0  0  0  0  0  0  0  0  0  0
   58.5710   30.7880   49.5900 O   0  0  0  0  0  0  0  0  0  0  0  0
   59.6700   32.5560   48.3820 C   0  0  0  0  0  0  0  0  0  0  0  0
   59.3246   33.0899   49.2796 H   0  0  0  0  0  0  0  0  0  0  0  0
   61.1830   32.7020   48.3160 C   0  0  0  0  0  0  0  0  0  0  0  0
   61.9700   31.8250   47.5440 C   0  0  0  0  0  0  0  0  0  0  0  0
   61.4871   31.0216   46.9683 H   0  0  0  0  0  0  0  0  0  0  0  0
   63.3600   31.9680   47.5040 C   0  0  0  0  0  0  0  0  0  0  0  0
   63.9651   31.2801   46.8952 H   0  0  0  0  0  0  0  0  0  0  0  0
   63.9820   32.9820   48.2350 C   0  0  0  0  0  0  0  0  0  0  0  0
   65.0757   33.0943   48.2000 H   0  0  0  0  0  0  0  0  0  0  0  0
   63.2140   33.8540   49.0110 C   0  0  0  0  0  0  0  0  0  0  0  0
   63.7044   34.6515   49.5885 H   0  0  0  0  0  0  0  0  0  0  0  0
   61.8240   33.7150   49.0550 C   0  0  0  0  0  0  0  0  0  0  0  0
   61.2261   34.4022   49.6716 H   0  0  0  0  0  0  0  0  0  0  0  0
   59.0110   33.2100   47.1800 C   0  0  0  0  0  0  0  0  0  0  0  0
   59.8170   33.7360   46.1540 C   0  0  0  0  0  0  0  0  0  0  0  0
   60.9124   33.6832   46.2397 H   0  0  0  0  0  0  0  0  0  0  0  0
   59.2380   34.3250   45.0270 C   0  0  0  0  0  0  0  0  0  0  0  0
   59.8780   34.7414   44.2352 H   0  0  0  0  0  0  0  0  0  0  0  0
   57.8480   34.3860   44.9040 C   0  0  0  0  0  0  0  0  0  0  0  0
   57.3943   34.8529   44.0174 H   0  0  0  0  0  0  0  0  0  0  0  0
   57.0340   33.8540   45.9070 C   0  0  0  0  0  0  0  0  0  0  0  0
   55.9394   33.9003   45.8080 H   0  0  0  0  0  0  0  0  0  0  0  0
   57.6080   33.2630   47.0360 C   0  0  0  0  0  0  0  0  0  0  0  0
   56.9620   32.8364   47.8175 H   0  0  0  0  0  0  0  0  0  0  0  0
   60.4060   28.9220   47.9510 C   0  0  0  0  0  0  0  0  0  0  0  0
   59.9086   28.3301   48.7335 H   0  0  0  0  0  0  0  0  0  0  0  0
   61.3973   29.2009   48.3377 H   0  0  0  0  0  0  0  0  0  0  0  0
   60.5120   28.1170   46.6640 C   0  0  0  0  0  0  0  0  0  0  0  0
   59.8064   27.2732   46.6794 H   0  0  0  0  0  0  0  0  0  0  0  0
   61.5178   27.6921   46.5308 H   0  0  0  0  0  0  0  0  0  0  0  0
   60.1560   29.0890   45.5430 C   0  0  0  0  0  0  0  0  0  0  0  0
   59.5916   28.5731   44.7523 H   0  0  0  0  0  0  0  0  0  0  0  0
   61.0546   29.5137   45.0717 H   0  0  0  0  0  0  0  0  0  0  0  0
   56.9250   30.8060   42.6500 C   0  0  0  0  0  0  0  0  0  0  0  0
   57.0270   31.5750   41.6040 N   0  0  0  0  0  0  0  0  0  0  0  0
   58.1530   32.4560   41.3160 C   0  0  0  0  0  0  0  0  0  0  0  0
   58.5974   32.8037   42.2603 H   0  0  0  0  0  0  0  0  0  0  0  0
   58.9089   31.9070   40.7353 H   0  0  0  0  0  0  0  0  0  0  0  0
   57.8020   33.3218   40.7353 H   0  0  0  0  0  0  0  0  0  0  0  0
   56.2620   29.5360   42.5850 N   0  0  0  0  0  0  0  0  0  0  0  0
   55.8900   29.1460   41.6930 H   0  0  0  0  0  0  0  0  0  0  0  0
   56.1570   28.9560   43.4470 H   0  0  0  0  0  0  0  0  0  0  0  0
  1  2  1  0
  2  3  2  0
  3  4  1  0
  4  5  2  0
  4  6  1  0
  6  7  1  6
  6  8  1  0
  8  9  1  0
  9 10  2  0
  9 11  1  0
 11 12  1  0
 11 13  1  0
 13 14  2  0
 14 15  1  0
 14 16  1  0
 16 17  1  0
 16 18  2  0
 18 19  1  0
 18 20  1  0
 20 21  1  0
 20 22  2  0
 22 23  1  0
 11 24  1  0
 24 25  2  0
 25 26  1  0
 25 27  1  0
 27 28  1  0
 27 29  2  0
 29 30  1  0
 29 31  1  0
 31 32  1  0
 31 33  2  0
 33 34  1  0
  8 35  1  0
 35 36  1  0
 35 37  1  0
 35 38  1  0
 38 39  1  0
 38 40  1  0
 38 41  1  0
 41 42  1  0
 41 43  1  0
  2 44  1  0
 44 45  2  0
 45 46  1  0
 46 47  1  0
 46 48  1  0
 46 49  1  0
 44 50  1  0
 50 51  1  0
 50 52  1  0
 41  6  1  0
 22 13  1  0
 33 24  1  0
M  END
>  <UniqueID>  (62) 
58

>  <SMILES>  (62) 
C/N=C(\N)C=NC(=O)[C@@H]1CCCN1C(=O)C(c1ccccc1)c1ccccc1

>  <Energy>  (62) 
63.20540310717931

>  <Genealogy>  (62) 
CN=C(N)C=NC(=O)[C@@H]1CCCN1C(=O)C(c1ccccc1)c1ccccc1 (chirality)
C/N=C(\N)C=NC(=O)[C@@H]1CCCN1C(=O)C(c1ccccc1)c1ccccc1 (cis-trans isomerization)
C/N=C(\N)C=NC(=O)[C@@H]1CCCN1C(=O)C(c1ccccc1)c1ccccc1 (3D coordinates assigned)
C/N=C(\N)C=NC(=O)[C@@H]1CCCN1C(=O)C(c1ccccc1)c1ccccc1 (nonaromatic ring conformer: 63.20540310717931 kcal/mol)

>  <smiles>  (62) 
CN=C(N)C=NC(=O)C1CCCN1C(=O)C(c1ccccc1)c1ccccc1

>  <score_type>  (62) 
oracle

>  <origin>  (62) 
adg

>  <m_score__min__energy>  (62) 
-8.8200000000000003

>  <m_primary>  (62) 
energy

$$$$
62:0
     RDKit          3D

 50 52  0  0  0  0  0  0  0  0999 V2000
   62.2690   31.3970   47.5960 C   0  0  0  0  0  0  0  0  0  0  0  0
   61.4490   30.4500   46.7230 C   0  0  0  0  0  0  0  0  0  0  0  0
   60.5110   29.5680   47.5520 C   0  0  0  0  0  0  0  0  0  0  0  0
   59.1150   29.7860   47.1720 N   0  0  0  0  0  0  0  0  0  0  0  0
   58.6680   31.0040   46.5500 C   0  0  0  0  0  0  0  0  0  0  0  0
   58.0580   30.9820   45.2690 C   0  0  0  0  0  0  0  0  0  0  0  0
   57.6800   29.7600   44.6160 N   0  0  0  0  0  0  0  0  0  0  0  0
   56.7640   28.7800   45.1240 C   0  0  0  0  0  0  0  0  0  0  0  0
   55.5380   29.0630   45.1660 O   0  0  0  0  0  0  0  0  0  0  0  0
   57.2140   27.4520   45.6010 C   0  0  0  0  0  0  0  0  0  0  0  0
   58.5860   27.1470   45.5940 C   0  0  0  0  0  0  0  0  0  0  0  0
   59.0410   25.9150   46.0720 C   0  0  0  0  0  0  0  0  0  0  0  0
   58.1290   24.9700   46.5470 C   0  0  0  0  0  0  0  0  0  0  0  0
   56.7600   25.2490   46.5330 C   0  0  0  0  0  0  0  0  0  0  0  0
   56.2980   26.4800   46.0510 C   0  0  0  0  0  0  0  0  0  0  0  0
   54.9270   26.7110   45.9990 O   0  0  0  0  0  0  0  0  0  0  0  0
   57.7890   32.1860   44.6100 C   0  0  0  0  0  0  0  0  0  0  0  0
   58.0360   33.4060   45.2350 C   0  0  0  0  0  0  0  0  0  0  0  0
   58.5640   33.4360   46.5250 C   0  0  0  0  0  0  0  0  0  0  0  0
   58.8940   32.2450   47.1910 C   0  0  0  0  0  0  0  0  0  0  0  0
   59.4470   32.2970   48.5190 N   0  0  0  0  0  0  0  0  0  0  0  0
   58.6460   32.1880   49.7070 C   0  0  0  0  0  0  0  0  0  0  0  0
   57.3990   32.3700   49.6370 O   0  0  0  0  0  0  0  0  0  0  0  0
   59.2690   31.9120   51.0230 C   0  0  0  0  0  0  0  0  0  0  0  0
   59.9720   30.7120   51.2340 C   0  0  0  0  0  0  0  0  0  0  0  0
   60.5650   30.4450   52.4720 C   0  0  0  0  0  0  0  0  0  0  0  0
   60.4700   31.3740   53.5090 C   0  0  0  0  0  0  0  0  0  0  0  0
   59.7850   32.5760   53.3100 C   0  0  0  0  0  0  0  0  0  0  0  0
   59.6690   33.8540   54.7250 Br  0  0  0  0  0  0  0  0  0  0  0  0
   59.1890   32.8470   52.0730 C   0  0  0  0  0  0  0  0  0  0  0  0
   62.0778   31.1761   48.6565 H   0  0  0  0  0  0  0  0  0  0  0  0
   63.3390   31.2606   47.3802 H   0  0  0  0  0  0  0  0  0  0  0  0
   61.9810   32.4365   47.3802 H   0  0  0  0  0  0  0  0  0  0  0  0
   60.8471   31.0463   46.0214 H   0  0  0  0  0  0  0  0  0  0  0  0
   62.1490   29.7909   46.1886 H   0  0  0  0  0  0  0  0  0  0  0  0
   60.7688   28.5118   47.3846 H   0  0  0  0  0  0  0  0  0  0  0  0
   60.6305   29.8300   48.6137 H   0  0  0  0  0  0  0  0  0  0  0  0
   58.4110   29.0830   47.4870 H   0  0  0  0  0  0  0  0  0  0  0  0
   59.3070   27.8834   45.2095 H   0  0  0  0  0  0  0  0  0  0  0  0
   60.1177   25.6896   46.0741 H   0  0  0  0  0  0  0  0  0  0  0  0
   58.4889   24.0047   46.9327 H   0  0  0  0  0  0  0  0  0  0  0  0
   56.0435   24.5001   46.9014 H   0  0  0  0  0  0  0  0  0  0  0  0
   57.3789   32.1693   43.5894 H   0  0  0  0  0  0  0  0  0  0  0  0
   57.8142   34.3469   44.7102 H   0  0  0  0  0  0  0  0  0  0  0  0
   58.7236   34.4023   47.0258 H   0  0  0  0  0  0  0  0  0  0  0  0
   60.4640   32.5010   48.6290 H   0  0  0  0  0  0  0  0  0  0  0  0
   60.0559   29.9780   50.4190 H   0  0  0  0  0  0  0  0  0  0  0  0
   61.1074   29.5009   52.6287 H   0  0  0  0  0  0  0  0  0  0  0  0
   60.9342   31.1603   54.4831 H   0  0  0  0  0  0  0  0  0  0  0  0
   58.6547   33.7963   51.9200 H   0  0  0  0  0  0  0  0  0  0  0  0
  1  2  1  0
  2  3  1  0
  3  4  1  0
  4  5  1  0
  5  6  2  0
  6  7  1  0
  7  8  1  0
  8  9  2  0
  8 10  1  0
 10 11  2  0
 11 12  1  0
 12 13  2  0
 13 14  1  0
 14 15  2  0
 15 16  1  0
  6 17  1  0
 17 18  2  0
 18 19  1  0
 19 20  2  0
 20 21  1  0
 21 22  1  0
 22 23  2  0
 22 24  1  0
 24 25  2  0
 25 26  1  0
 26 27  2  0
 27 28  1  0
 28 29  1  0
 28 30  2  0
 20  5  1  0
 30 24  1  0
 15 10  1  0
  1 31  1  0
  1 32  1  0
  1 33  1  0
  2 34  1  0
  2 35  1  0
  3 36  1  0
  3 37  1  0
  4 38  1  0
 11 39  1  0
 12 40  1  0
 13 41  1  0
 14 42  1  0
 17 43  1  0
 18 44  1  0
 19 45  1  0
 21 46  1  0
 25 47  1  0
 26 48  1  0
 27 49  1  0
 30 50  1  0
M  CHG  2   7  -1  16  -1
M  END
>  <UniqueID>  (63) 
59

>  <SMILES>  (63) 
CCCNc1c([N-]C(=O)c2ccccc2[O-])cccc1NC(=O)c1cccc(Br)c1

>  <Energy>  (63) 
67.235553267028

>  <Genealogy>  (63) 
CCCNc1c([N-]C(=O)c2ccccc2[O-])cccc1NC(=O)c1cccc(Br)c1 (protonated)
CCCNc1c([N-]C(=O)c2ccccc2[O-])cccc1NC(=O)c1cccc(Br)c1 (3D coordinates assigned)
CCCNc1c([N-]C(=O)c2ccccc2[O-])cccc1NC(=O)c1cccc(Br)c1 (optimized conformer: 67.235553267028 kcal/mol)

>  <smiles>  (63) 
CCCNc1c(NC(=O)c2cccc(Br)c2)cccc1NC(=O)c1ccccc1O

>  <score_type>  (63) 
oracle

>  <origin>  (63) 
adg

>  <m_score__min__energy>  (63) 
-13.800000000000001

>  <m_primary>  (63) 
energy

$$$$
63:0
     RDKit          3D

 30 31  0  0  0  0  0  0  0  0999 V2000
   58.1830   21.0740   43.2420 N   0  0  0  0  0  0  0  0  0  0  0  0
   56.6780   21.8160   43.6590 S   0  0  0  0  0  0  0  0  0  0  0  0
   55.8500   20.8410   44.4490 O   0  0  0  0  0  0  0  0  0  0  0  0
   55.9350   22.1940   42.4100 O   0  0  0  0  0  0  0  0  0  0  0  0
   56.9720   23.2520   44.6210 C   0  0  0  0  0  0  0  0  0  0  0  0
   56.8410   23.3850   45.9890 C   0  0  0  0  0  0  0  0  0  0  0  0
   57.1440   24.6520   46.3350 N   0  0  0  0  0  0  0  0  0  0  0  0
   57.4690   25.3040   45.2270 N   0  0  0  0  0  0  0  0  0  0  0  0
   57.8000   26.7240   45.1880 C   0  0  0  0  0  0  0  0  0  0  0  0
   56.6030   27.5340   45.5660 C   0  0  0  0  0  0  0  0  0  0  0  0
   55.5350   26.9500   45.8950 O   0  0  0  0  0  0  0  0  0  0  0  0
   56.7200   28.9590   45.6560 N   0  0  0  0  0  0  0  0  0  0  0  0
   56.9360   29.8690   44.5670 C   0  0  0  0  0  0  0  0  0  0  0  0
   57.7750   30.9730   44.7730 C   0  0  0  0  0  0  0  0  0  0  0  0
   58.0290   31.8730   43.7320 C   0  0  0  0  0  0  0  0  0  0  0  0
   57.4560   31.6670   42.4740 C   0  0  0  0  0  0  0  0  0  0  0  0
   57.7050   32.5380   41.4650 F   0  0  0  0  0  0  0  0  0  0  0  0
   56.6390   30.5550   42.2530 C   0  0  0  0  0  0  0  0  0  0  0  0
   56.3830   29.6540   43.2900 C   0  0  0  0  0  0  0  0  0  0  0  0
   57.3650   24.4870   44.1620 C   0  0  0  0  0  0  0  0  0  0  0  0
   58.6080   20.7260   44.1300 H   0  0  0  0  0  0  0  0  0  0  0  0
   57.9580   20.2320   42.6650 H   0  0  0  0  0  0  0  0  0  0  0  0
   56.5387   22.5871   46.6833 H   0  0  0  0  0  0  0  0  0  0  0  0
   58.6171   26.9279   45.8957 H   0  0  0  0  0  0  0  0  0  0  0  0
   58.1149   26.9953   44.1696 H   0  0  0  0  0  0  0  0  0  0  0  0
   58.2364   31.1328   45.7587 H   0  0  0  0  0  0  0  0  0  0  0  0
   58.6799   32.7429   43.9039 H   0  0  0  0  0  0  0  0  0  0  0  0
   56.1962   30.3885   41.2599 H   0  0  0  0  0  0  0  0  0  0  0  0
   55.7478   28.7745   43.1083 H   0  0  0  0  0  0  0  0  0  0  0  0
   57.5594   24.7585   43.1139 H   0  0  0  0  0  0  0  0  0  0  0  0
  1  2  1  0
  2  3  2  0
  2  4  2  0
  2  5  1  0
  5  6  1  0
  6  7  2  0
  7  8  1  0
  8  9  1  0
  9 10  1  0
 10 11  2  0
 10 12  1  0
 12 13  1  0
 13 14  2  0
 14 15  1  0
 15 16  2  0
 16 17  1  0
 16 18  1  0
 18 19  2  0
  8 20  1  0
 20  5  2  0
 19 13  1  0
  1 21  1  0
  1 22  1  0
  6 23  1  0
  9 24  1  0
  9 25  1  0
 14 26  1  0
 15 27  1  0
 18 28  1  0
 19 29  1  0
 20 30  1  0
M  CHG  1  12  -1
M  END
>  <UniqueID>  (64) 
60

>  <SMILES>  (64) 
NS(=O)(=O)c1cnn(CC(=O)[N-]c2ccc(F)cc2)c1

>  <Energy>  (64) 
60.08530795382462

>  <Genealogy>  (64) 
NS(=O)(=O)c1cnn(CC(=O)[N-]c2ccc(F)cc2)c1 (protonated)
NS(=O)(=O)c1cnn(CC(=O)[N-]c2ccc(F)cc2)c1 (3D coordinates assigned)
NS(=O)(=O)c1cnn(CC(=O)[N-]c2ccc(F)cc2)c1 (optimized conformer: 60.08530795382462 kcal/mol)

>  <smiles>  (64) 
NS(=O)(=O)c1cnn(CC(=O)Nc2ccc(F)cc2)c1

>  <score_type>  (64) 
oracle

>  <origin>  (64) 
adg

>  <m_score__min__energy>  (64) 
-9.1500000000000004

>  <m_primary>  (64) 
energy

$$$$
64:0
     RDKit          3D

 36 37  0  0  0  0  0  0  0  0999 V2000
   55.5920   26.6480   46.0000 N   0  0  0  0  0  0  0  0  0  0  0  0
   57.1530   25.9070   46.0200 S   0  0  0  0  0  0  0  0  0  0  0  0
   57.5240   25.4810   44.6300 O   0  0  0  0  0  0  0  0  0  0  0  0
   57.1140   24.6930   46.9040 O   0  0  0  0  0  0  0  0  0  0  0  0
   58.3410   27.0550   46.6290 C   0  0  0  0  0  0  0  0  0  0  0  0
   59.4900   27.3510   45.8840 C   0  0  0  0  0  0  0  0  0  0  0  0
   60.4270   28.2660   46.3720 C   0  0  0  0  0  0  0  0  0  0  0  0
   60.2240   28.9010   47.6080 C   0  0  0  0  0  0  0  0  0  0  0  0
   61.2000   29.9400   48.0990 C   0  0  0  0  0  0  0  0  0  0  0  0
   61.0070   31.2080   47.3970 N   0  0  0  0  0  0  0  0  0  0  0  0
   59.7630   31.9150   47.3000 C   0  0  0  0  0  0  0  0  0  0  0  0
   59.3320   32.5400   48.3040 O   0  0  0  0  0  0  0  0  0  0  0  0
   59.0070   31.9700   46.0410 C   0  0  0  0  0  0  0  0  0  0  0  0
   58.9260   33.1660   45.3140 C   0  0  0  0  0  0  0  0  0  0  0  0
   58.1540   33.2280   44.1510 C   0  0  0  0  0  0  0  0  0  0  0  0
   57.4480   32.1020   43.7170 C   0  0  0  0  0  0  0  0  0  0  0  0
   57.5160   30.9050   44.4430 C   0  0  0  0  0  0  0  0  0  0  0  0
   56.5950   29.4980   43.9230 S   0  0  0  0  0  0  0  0  0  0  0  0
   55.1310   29.3790   44.8340 N   0  0  0  0  0  0  0  0  0  0  0  0
   57.4050   28.2530   44.1490 O   0  0  0  0  0  0  0  0  0  0  0  0
   56.2680   29.6270   42.4640 O   0  0  0  0  0  0  0  0  0  0  0  0
   58.3150   30.8360   45.5920 C   0  0  0  0  0  0  0  0  0  0  0  0
   59.0830   28.5820   48.3630 C   0  0  0  0  0  0  0  0  0  0  0  0
   58.1460   27.6670   47.8730 C   0  0  0  0  0  0  0  0  0  0  0  0
   55.6100   27.3760   45.2520 H   0  0  0  0  0  0  0  0  0  0  0  0
   59.6551   26.8620   44.9126 H   0  0  0  0  0  0  0  0  0  0  0  0
   61.3293   28.4902   45.7841 H   0  0  0  0  0  0  0  0  0  0  0  0
   61.0467   30.0977   49.1768 H   0  0  0  0  0  0  0  0  0  0  0  0
   62.2221   29.5824   47.9054 H   0  0  0  0  0  0  0  0  0  0  0  0
   59.4710   34.0568   45.6596 H   0  0  0  0  0  0  0  0  0  0  0  0
   58.1016   34.1643   43.5760 H   0  0  0  0  0  0  0  0  0  0  0  0
   56.8376   32.1556   42.8035 H   0  0  0  0  0  0  0  0  0  0  0  0
   55.3150   28.7170   45.6210 H   0  0  0  0  0  0  0  0  0  0  0  0
   58.3998   29.8884   46.1441 H   0  0  0  0  0  0  0  0  0  0  0  0
   58.9260   29.0541   49.3440 H   0  0  0  0  0  0  0  0  0  0  0  0
   57.2520   27.4271   48.4674 H   0  0  0  0  0  0  0  0  0  0  0  0
  1  2  1  0
  2  3  2  0
  2  4  2  0
  2  5  1  0
  5  6  2  0
  6  7  1  0
  7  8  2  0
  8  9  1  0
  9 10  1  0
 10 11  1  0
 11 12  2  0
 11 13  1  0
 13 14  2  0
 14 15  1  0
 15 16  2  0
 16 17  1  0
 17 18  1  0
 18 19  1  0
 18 20  2  0
 18 21  2  0
 17 22  2  0
  8 23  1  0
 23 24  2  0
 24  5  1  0
 22 13  1  0
  1 25  1  0
  6 26  1  0
  7 27  1  0
  9 28  1  0
  9 29  1  0
 14 30  1  0
 15 31  1  0
 16 32  1  0
 19 33  1  0
 22 34  1  0
 23 35  1  0
 24 36  1  0
M  CHG  3   1  -1  10  -1  19  -1
M  END
>  <UniqueID>  (65) 
61

>  <SMILES>  (65) 
[NH-]S(=O)(=O)c1ccc(C[N-]C(=O)c2cccc(S([NH-])(=O)=O)c2)cc1

>  <Energy>  (65) 
36.36462991538642

>  <Genealogy>  (65) 
[NH-]S(=O)(=O)c1ccc(C[N-]C(=O)c2cccc(S([NH-])(=O)=O)c2)cc1 (protonated)
[NH-]S(=O)(=O)c1ccc(C[N-]C(=O)c2cccc(S([NH-])(=O)=O)c2)cc1 (3D coordinates assigned)
[NH-]S(=O)(=O)c1ccc(C[N-]C(=O)c2cccc(S([NH-])(=O)=O)c2)cc1 (optimized conformer: 36.36462991538642 kcal/mol)

>  <smiles>  (65) 
NS(=O)(=O)c1ccc(CNC(=O)c2cccc(S(N)(=O)=O)c2)cc1

>  <score_type>  (65) 
oracle

>  <origin>  (65) 
adg

>  <m_score__min__energy>  (65) 
-14

>  <m_primary>  (65) 
energy

$$$$
65:0
     RDKit          3D

 43 46  0  0  0  0  0  0  0  0999 V2000
   63.9360   34.0504   46.7354 H   0  0  0  0  0  0  0  0  0  0  0  0
   62.9380   33.9090   47.1760 C   0  0  0  0  0  0  0  0  0  0  0  0
   61.7680   34.0410   46.5100 N   0  0  0  0  0  0  0  0  0  0  0  0
   60.8280   33.7810   47.4440 C   0  0  0  0  0  0  0  0  0  0  0  0
   59.4310   33.7280   47.2540 C   0  0  0  0  0  0  0  0  0  0  0  0
   58.8310   34.0170   46.1320 N   0  0  0  0  0  0  0  0  0  0  0  0
   58.3790   33.1120   45.1150 C   0  0  0  0  0  0  0  0  0  0  0  0
   58.4720   33.4870   43.7700 C   0  0  0  0  0  0  0  0  0  0  0  0
   58.8477   34.4860   43.5039 H   0  0  0  0  0  0  0  0  0  0  0  0
   58.0890   32.5960   42.7640 C   0  0  0  0  0  0  0  0  0  0  0  0
   58.1497   32.9005   41.7087 H   0  0  0  0  0  0  0  0  0  0  0  0
   57.6290   31.3190   43.0960 C   0  0  0  0  0  0  0  0  0  0  0  0
   57.3211   30.6230   42.3018 H   0  0  0  0  0  0  0  0  0  0  0  0
   57.5590   30.9230   44.4380 C   0  0  0  0  0  0  0  0  0  0  0  0
   57.0070   29.3060   44.8640 S   0  0  0  0  0  0  0  0  0  0  0  0
   57.4730   28.9640   46.2530 O   0  0  0  0  0  0  0  0  0  0  0  0
   55.5060   29.2520   44.8310 O   0  0  0  0  0  0  0  0  0  0  0  0
   57.6490   28.1640   43.7360 N   0  0  0  0  0  0  0  0  0  0  0  0
   56.8360   27.6730   43.3030 H   0  0  0  0  0  0  0  0  0  0  0  0
   58.1110   28.7120   42.9760 H   0  0  0  0  0  0  0  0  0  0  0  0
   57.9560   31.8140   45.4440 C   0  0  0  0  0  0  0  0  0  0  0  0
   57.9362   31.4951   46.4966 H   0  0  0  0  0  0  0  0  0  0  0  0
   58.6720   33.3140   48.3110 N   0  0  0  0  0  0  0  0  0  0  0  0
   59.2180   32.9820   49.5180 C   0  0  0  0  0  0  0  0  0  0  0  0
   58.5713   32.6555   50.3458 H   0  0  0  0  0  0  0  0  0  0  0  0
   60.6030   33.0590   49.6970 C   0  0  0  0  0  0  0  0  0  0  0  0
   61.0675   32.7926   50.6579 H   0  0  0  0  0  0  0  0  0  0  0  0
   61.3560   33.4740   48.6440 N   0  0  0  0  0  0  0  0  0  0  0  0
   62.6910   33.5690   48.4960 C   0  0  0  0  0  0  0  0  0  0  0  0
   63.7140   33.3430   49.5390 C   0  0  0  0  0  0  0  0  0  0  0  0
   64.7070   32.3740   49.3520 C   0  0  0  0  0  0  0  0  0  0  0  0
   64.7208   31.7677   48.4343 H   0  0  0  0  0  0  0  0  0  0  0  0
   65.6800   32.1800   50.3350 C   0  0  0  0  0  0  0  0  0  0  0  0
   66.4472   31.4038   50.1973 H   0  0  0  0  0  0  0  0  0  0  0  0
   65.6870   32.9460   51.4660 N   0  0  0  0  0  0  0  0  0  0  0  0
   66.6920   32.7020   52.5020 C   0  0  0  0  0  0  0  0  0  0  0  0
   66.2305   32.8140   53.4942 H   0  0  0  0  0  0  0  0  0  0  0  0
   67.0885   31.6815   52.3951 H   0  0  0  0  0  0  0  0  0  0  0  0
   67.5123   33.4271   52.3951 H   0  0  0  0  0  0  0  0  0  0  0  0
   64.7250   33.8960   51.6660 C   0  0  0  0  0  0  0  0  0  0  0  0
   64.7297   34.4907   52.5914 H   0  0  0  0  0  0  0  0  0  0  0  0
   63.7360   34.1180   50.7050 C   0  0  0  0  0  0  0  0  0  0  0  0
   62.9774   34.8986   50.8635 H   0  0  0  0  0  0  0  0  0  0  0  0
  1  2  1  0
  2  3  1  0
  3  4  2  0
  4  5  1  0
  5  6  2  0
  6  7  1  0
  7  8  2  0
  8  9  1  0
  8 10  1  0
 10 11  1  0
 10 12  2  0
 12 13  1  0
 12 14  1  0
 14 15  1  0
 15 16  2  0
 15 17  2  0
 15 18  1  0
 18 19  1  0
 18 20  1  0
 14 21  2  0
 21 22  1  0
  5 23  1  0
 23 24  1  0
 24 25  1  0
 24 26  2  0
 26 27  1  0
 26 28  1  0
 28 29  1  0
 29 30  1  0
 30 31  2  0
 31 32  1  0
 31 33  1  0
 33 34  1  0
 33 35  2  0
 35 36  1  0
 36 37  1  0
 36 38  1  0
 36 39  1  0
 35 40  1  0
 40 41  1  0
 40 42  2  0
 42 43  1  0
 29  2  2  0
 42 30  1  0
 28  4  1  0
 21  7  1  0
M  CHG  2  23  -1  35   1
M  END
>  <UniqueID>  (66) 
62

>  <SMILES>  (66) 
C[n+]1ccc(-c2cnc3/c(=N\c4cccc(S(N)(=O)=O)c4)[n-]ccn23)cc1

>  <Energy>  (66) 
99.53524342025705

>  <Genealogy>  (66) 
C[n+]1ccc(-c2cnc3c(=Nc4cccc(S(N)(=O)=O)c4)[n-]ccn23)cc1 (protonated)
C[n+]1ccc(-c2cnc3/c(=N\c4cccc(S(N)(=O)=O)c4)[n-]ccn23)cc1 (cis-trans isomerization)
C[n+]1ccc(-c2cnc3/c(=N\c4cccc(S(N)(=O)=O)c4)[n-]ccn23)cc1 (3D coordinates assigned)
C[n+]1ccc(-c2cnc3/c(=N\c4cccc(S(N)(=O)=O)c4)[n-]ccn23)cc1 (optimized conformer: 99.53524342025705 kcal/mol)

>  <smiles>  (66) 
C[n+]1ccc(-c2cnc3c(=Nc4cccc(S(N)(=O)=O)c4)[nH]ccn23)cc1

>  <score_type>  (66) 
oracle

>  <origin>  (66) 
adg

>  <m_score__min__energy>  (66) 
-8.7599999999999998

>  <m_primary>  (66) 
energy

$$$$
66:0
     RDKit          3D

 40 42  0  0  0  0  0  0  0  0999 V2000
   59.5850   35.1780   46.7420 C   0  0  0  0  0  0  0  0  0  0  0  0
   58.7110   33.9710   45.7680 S   0  0  0  0  0  0  0  0  0  0  0  0
   57.2500   34.0310   46.1180 O   0  0  0  0  0  0  0  0  0  0  0  0
   58.8680   34.2660   44.3030 O   0  0  0  0  0  0  0  0  0  0  0  0
   59.3010   32.3800   46.1210 N   0  0  0  0  0  0  0  0  0  0  0  0
   59.2680   31.7290   47.3990 C   0  0  0  0  0  0  0  0  0  0  0  0
   58.5300   32.2510   48.4780 C   0  0  0  0  0  0  0  0  0  0  0  0
   58.5150   31.5880   49.7090 C   0  0  0  0  0  0  0  0  0  0  0  0
   59.2320   30.4020   49.8760 C   0  0  0  0  0  0  0  0  0  0  0  0
   59.9670   29.8760   48.8130 C   0  0  0  0  0  0  0  0  0  0  0  0
   59.9920   30.5350   47.5770 C   0  0  0  0  0  0  0  0  0  0  0  0
   60.9690   29.8410   46.2360 S   0  0  0  0  0  0  0  0  0  0  0  0
   59.9390   28.3780   46.1150 C   0  0  0  0  0  0  0  0  0  0  0  0
   60.5180   27.1070   46.1900 C   0  0  0  0  0  0  0  0  0  0  0  0
   59.7160   25.9670   46.0820 C   0  0  0  0  0  0  0  0  0  0  0  0
   58.3360   26.0920   45.9030 C   0  0  0  0  0  0  0  0  0  0  0  0
   57.7400   27.3650   45.8410 C   0  0  0  0  0  0  0  0  0  0  0  0
   56.2780   27.4920   45.6140 C   0  0  0  0  0  0  0  0  0  0  0  0
   55.5110   26.5740   46.0080 O   0  0  0  0  0  0  0  0  0  0  0  0
   55.7060   28.5990   44.8970 N   0  0  0  0  0  0  0  0  0  0  0  0
   56.3610   29.6300   44.4540 C   0  0  0  0  0  0  0  0  0  0  0  0
   56.7930   29.7800   43.1550 C   0  0  0  0  0  0  0  0  0  0  0  0
   57.4030   31.0180   43.1530 C   0  0  0  0  0  0  0  0  0  0  0  0
   57.3150   31.5490   44.3870 N   0  0  0  0  0  0  0  0  0  0  0  0
   56.6760   30.7140   45.1910 N   0  0  0  0  0  0  0  0  0  0  0  0
   58.5560   28.5060   45.9410 C   0  0  0  0  0  0  0  0  0  0  0  0
   59.4322   34.9670   47.8107 H   0  0  0  0  0  0  0  0  0  0  0  0
   60.6589   35.1296   46.5086 H   0  0  0  0  0  0  0  0  0  0  0  0
   59.2039   36.1831   46.5086 H   0  0  0  0  0  0  0  0  0  0  0  0
   57.9624   33.1848   48.3522 H   0  0  0  0  0  0  0  0  0  0  0  0
   57.9366   32.0021   50.5481 H   0  0  0  0  0  0  0  0  0  0  0  0
   59.2176   29.8822   50.8453 H   0  0  0  0  0  0  0  0  0  0  0  0
   60.5292   28.9399   48.9460 H   0  0  0  0  0  0  0  0  0  0  0  0
   61.6037   27.0045   46.3339 H   0  0  0  0  0  0  0  0  0  0  0  0
   60.1731   24.9680   46.1382 H   0  0  0  0  0  0  0  0  0  0  0  0
   57.7124   25.1906   45.8101 H   0  0  0  0  0  0  0  0  0  0  0  0
   56.6787   29.0779   42.3160 H   0  0  0  0  0  0  0  0  0  0  0  0
   57.8828   31.4933   42.2848 H   0  0  0  0  0  0  0  0  0  0  0  0
   57.6850   32.4790   44.6830 H   0  0  0  0  0  0  0  0  0  0  0  0
   58.1038   29.5070   45.8820 H   0  0  0  0  0  0  0  0  0  0  0  0
  1  2  1  0
  2  3  2  0
  2  4  2  0
  2  5  1  0
  5  6  1  0
  6  7  2  0
  7  8  1  0
  8  9  2  0
  9 10  1  0
 10 11  2  0
 11 12  1  0
 12 13  1  0
 13 14  2  0
 14 15  1  0
 15 16  2  0
 16 17  1  0
 17 18  1  0
 18 19  2  0
 18 20  1  0
 20 21  2  3
 21 22  1  0
 22 23  2  0
 23 24  1  0
 24 25  1  0
 17 26  2  0
 11  6  1  0
 26 13  1  0
 25 21  1  0
  1 27  1  0
  1 28  1  0
  1 29  1  0
  7 30  1  0
  8 31  1  0
  9 32  1  0
 10 33  1  0
 14 34  1  0
 15 35  1  0
 16 36  1  0
 22 37  1  0
 23 38  1  0
 24 39  1  0
 26 40  1  0
M  CHG  2   5  -1  25  -1
M  END
>  <UniqueID>  (67) 
63

>  <SMILES>  (67) 
CS(=O)(=O)[N-]c1ccccc1Sc1cccc(C(=O)N=c2cc[nH][n-]2)c1

>  <Energy>  (67) 
73.86479980242454

>  <Genealogy>  (67) 
CS(=O)(=O)[N-]c1ccccc1Sc1cccc(C(=O)N=c2cc[nH][n-]2)c1 (protonated)
CS(=O)(=O)[N-]c1ccccc1Sc1cccc(C(=O)N=c2cc[nH][n-]2)c1 (3D coordinates assigned)
CS(=O)(=O)[N-]c1ccccc1Sc1cccc(C(=O)N=c2cc[nH][n-]2)c1 (optimized conformer: 73.86479980242454 kcal/mol)

>  <smiles>  (67) 
CS(=O)(=O)Nc1ccccc1Sc1cccc(C(=O)N=c2cc[nH][nH]2)c1

>  <score_type>  (67) 
oracle

>  <origin>  (67) 
adg

>  <m_score__min__energy>  (67) 
-12.6

>  <m_primary>  (67) 
energy

$$$$
67:0
     RDKit          3D

 28 30  0  0  0  0  0  0  0  0999 V2000
   58.3050   34.4320   44.4910 N   0  0  0  0  0  0  0  0  0  0  0  0
   58.2760   33.0370   44.8060 C   0  0  0  0  0  0  0  0  0  0  0  0
   57.7700   32.1150   43.8810 C   0  0  0  0  0  0  0  0  0  0  0  0
   57.7430   30.7510   44.1890 C   0  0  0  0  0  0  0  0  0  0  0  0
   58.2160   30.2920   45.4300 C   0  0  0  0  0  0  0  0  0  0  0  0
   58.1950   28.8420   45.7500 C   0  0  0  0  0  0  0  0  0  0  0  0
   59.3810   28.2000   46.1340 C   0  0  0  0  0  0  0  0  0  0  0  0
   59.3840   26.8790   46.4410 N   0  0  0  0  0  0  0  0  0  0  0  0
   58.2550   26.1250   46.3880 C   0  0  0  0  0  0  0  0  0  0  0  0
   58.3170   24.7700   46.7170 C   0  0  0  0  0  0  0  0  0  0  0  0
   57.1570   23.9970   46.6580 C   0  0  0  0  0  0  0  0  0  0  0  0
   55.9810   24.5630   46.2850 N   0  0  0  0  0  0  0  0  0  0  0  0
   55.8790   25.8780   45.9570 C   0  0  0  0  0  0  0  0  0  0  0  0
   54.7550   26.3350   45.6200 O   0  0  0  0  0  0  0  0  0  0  0  0
   57.0260   26.7070   46.0000 C   0  0  0  0  0  0  0  0  0  0  0  0
   57.0070   28.0840   45.6730 C   0  0  0  0  0  0  0  0  0  0  0  0
   55.9370   28.6360   45.2910 O   0  0  0  0  0  0  0  0  0  0  0  0
   58.7300   31.2210   46.3520 C   0  0  0  0  0  0  0  0  0  0  0  0
   58.7570   32.5840   46.0420 C   0  0  0  0  0  0  0  0  0  0  0  0
   57.4230   34.9920   44.4640 H   0  0  0  0  0  0  0  0  0  0  0  0
   59.2070   34.9140   44.2810 H   0  0  0  0  0  0  0  0  0  0  0  0
   57.3925   32.4649   42.9089 H   0  0  0  0  0  0  0  0  0  0  0  0
   57.3489   30.0328   43.4549 H   0  0  0  0  0  0  0  0  0  0  0  0
   60.3182   28.7735   46.1868 H   0  0  0  0  0  0  0  0  0  0  0  0
   59.2718   24.3156   47.0201 H   0  0  0  0  0  0  0  0  0  0  0  0
   57.1955   22.9279   46.9140 H   0  0  0  0  0  0  0  0  0  0  0  0
   59.1131   30.8733   47.3228 H   0  0  0  0  0  0  0  0  0  0  0  0
   59.1574   33.3038   46.7711 H   0  0  0  0  0  0  0  0  0  0  0  0
  1  2  1  0
  2  3  2  0
  3  4  1  0
  4  5  2  0
  5  6  1  0
  6  7  2  0
  7  8  1  0
  8  9  1  0
  9 10  1  0
 10 11  2  0
 11 12  1  0
 12 13  1  0
 13 14  2  0
 13 15  1  0
 15 16  1  0
 16 17  2  0
  5 18  1  0
 18 19  2  0
 19  2  1  0
 16  6  1  0
 15  9  2  0
  1 20  1  0
  1 21  1  0
  3 22  1  0
  4 23  1  0
  7 24  1  0
 10 25  1  0
 11 26  1  0
 18 27  1  0
 19 28  1  0
M  CHG  2   8  -1  12  -1
M  END
>  <UniqueID>  (68) 
64

>  <SMILES>  (68) 
Nc1ccc(-c2c[n-]c3cc[n-]c(=O)c3c2=O)cc1

>  <Energy>  (68) 
44.588258945051116

>  <Genealogy>  (68) 
Nc1ccc(-c2c[n-]c3cc[n-]c(=O)c3c2=O)cc1 (protonated)
Nc1ccc(-c2c[n-]c3cc[n-]c(=O)c3c2=O)cc1 (3D coordinates assigned)
Nc1ccc(-c2c[n-]c3cc[n-]c(=O)c3c2=O)cc1 (optimized conformer: 44.588258945051116 kcal/mol)

>  <smiles>  (68) 
Nc1ccc(-c2c[nH]c3cc[nH]c(=O)c3c2=O)cc1

>  <score_type>  (68) 
oracle

>  <origin>  (68) 
adg

>  <m_score__min__energy>  (68) 
-9.1699999999999999

>  <m_primary>  (68) 
energy

$$$$
68:0
     RDKit          3D

 49 52  0  0  0  0  0  0  0  0999 V2000
   63.4390   34.1970   51.2690 C   0  0  0  0  0  0  0  0  0  0  0  0
   62.3420   34.5480   50.4310 O   0  0  0  0  0  0  0  0  0  0  0  0
   62.2320   34.1980   49.0760 C   0  0  0  0  0  0  0  0  0  0  0  0
   63.3510   34.1550   48.2240 C   0  0  0  0  0  0  0  0  0  0  0  0
   63.2030   33.7810   46.8890 C   0  0  0  0  0  0  0  0  0  0  0  0
   61.9420   33.4750   46.3800 C   0  0  0  0  0  0  0  0  0  0  0  0
   60.8090   33.5410   47.2040 C   0  0  0  0  0  0  0  0  0  0  0  0
   59.4840   33.3150   46.5970 C   0  0  0  0  0  0  0  0  0  0  0  0
   58.7300   34.3040   46.3840 O   0  0  0  0  0  0  0  0  0  0  0  0
   59.0290   31.9930   46.2680 N   0  0  0  0  0  0  0  0  0  0  0  0
   57.8180   31.7300   45.4750 C   0  0  0  0  0  0  0  0  0  0  0  0
   57.8800   30.2270   45.3210 C   0  0  2  0  0  0  0  0  0  0  0  0
   56.7300   29.2650   45.1130 C   0  0  0  0  0  0  0  0  0  0  0  0
   57.2730   28.0330   45.7020 N   0  0  0  0  0  0  0  0  0  0  0  0
   56.7090   26.7340   45.4890 C   0  0  0  0  0  0  0  0  0  0  0  0
   55.5180   26.3530   46.0000 N   0  0  0  0  0  0  0  0  0  0  0  0
   55.2090   25.0730   45.6560 C   0  0  0  0  0  0  0  0  0  0  0  0
   56.1550   24.4390   44.8570 C   0  0  0  0  0  0  0  0  0  0  0  0
   56.1130   23.0180   44.3870 C   0  0  0  0  0  0  0  0  0  0  0  0
   57.2720   22.3690   44.7710 F   0  0  0  0  0  0  0  0  0  0  0  0
   55.0260   22.3800   44.9530 F   0  0  0  0  0  0  0  0  0  0  0  0
   56.0040   22.9650   43.0090 F   0  0  0  0  0  0  0  0  0  0  0  0
   57.4330   25.5040   44.5940 S   0  0  0  0  0  0  0  0  0  0  0  0
   58.4780   28.2910   46.5050 C   0  0  0  0  0  0  0  0  0  0  0  0
   58.4190   29.7960   46.6540 C   0  0  1  0  0  0  0  0  0  0  0  0
   59.5700   30.7570   46.8590 C   0  0  0  0  0  0  0  0  0  0  0  0
   60.9620   33.8670   48.5740 C   0  0  0  0  0  0  0  0  0  0  0  0
   59.8820   33.8700   49.4660 O   0  0  0  0  0  0  0  0  0  0  0  0
   59.6010   32.7940   50.3550 C   0  0  0  0  0  0  0  0  0  0  0  0
   63.1403   34.2926   52.3233 H   0  0  0  0  0  0  0  0  0  0  0  0
   63.7383   33.1582   51.0654 H   0  0  0  0  0  0  0  0  0  0  0  0
   64.2857   34.8691   51.0654 H   0  0  0  0  0  0  0  0  0  0  0  0
   64.3461   34.4174   48.6126 H   0  0  0  0  0  0  0  0  0  0  0  0
   64.0854   33.7272   46.2345 H   0  0  0  0  0  0  0  0  0  0  0  0
   61.8348   33.1800   45.3257 H   0  0  0  0  0  0  0  0  0  0  0  0
   56.9102   32.0419   46.0122 H   0  0  0  0  0  0  0  0  0  0  0  0
   57.7780   32.2775   44.5218 H   0  0  0  0  0  0  0  0  0  0  0  0
   58.3846   30.1456   44.3470 H   0  0  0  0  0  0  0  0  0  0  0  0
   55.8252   29.5991   45.6419 H   0  0  0  0  0  0  0  0  0  0  0  0
   56.4144   29.1612   44.0644 H   0  0  0  0  0  0  0  0  0  0  0  0
   54.2831   24.5781   45.9843 H   0  0  0  0  0  0  0  0  0  0  0  0
   58.4265   27.7874   47.4816 H   0  0  0  0  0  0  0  0  0  0  0  0
   59.4090   27.9195   46.0521 H   0  0  0  0  0  0  0  0  0  0  0  0
   57.9148   29.8787   47.6282 H   0  0  0  0  0  0  0  0  0  0  0  0
   59.7983   30.8886   47.9270 H   0  0  0  0  0  0  0  0  0  0  0  0
   60.5180   30.4235   46.4117 H   0  0  0  0  0  0  0  0  0  0  0  0
   59.6923   33.1434   51.3940 H   0  0  0  0  0  0  0  0  0  0  0  0
   58.5778   32.4306   50.1789 H   0  0  0  0  0  0  0  0  0  0  0  0
   60.3158   31.9767   50.1789 H   0  0  0  0  0  0  0  0  0  0  0  0
  1  2  1  0
  2  3  1  0
  3  4  2  0
  4  5  1  0
  5  6  2  0
  6  7  1  0
  7  8  1  0
  8  9  2  0
  8 10  1  0
 10 11  1  0
 11 12  1  0
 12 13  1  0
 13 14  1  0
 14 15  1  0
 15 16  2  0
 16 17  1  0
 17 18  2  0
 18 19  1  0
 19 20  1  0
 19 21  1  0
 19 22  1  0
 18 23  1  0
 14 24  1  0
 24 25  1  0
 25 26  1  0
  7 27  2  0
 27 28  1  0
 28 29  1  0
 27  3  1  0
 26 10  1  0
 25 12  1  0
 23 15  1  0
  1 30  1  0
  1 31  1  0
  1 32  1  0
  4 33  1  0
  5 34  1  0
  6 35  1  0
 11 36  1  0
 11 37  1  0
 12 38  1  6
 13 39  1  0
 13 40  1  0
 17 41  1  0
 24 42  1  0
 24 43  1  0
 25 44  1  1
 26 45  1  0
 26 46  1  0
 29 47  1  0
 29 48  1  0
 29 49  1  0
M  END
>  <UniqueID>  (69) 
65

>  <SMILES>  (69) 
COc1cccc(C(=O)N2C[C@@H]3CN(c4ncc(C(F)(F)F)s4)C[C@H]3C2)c1OC

>  <Energy>  (69) 
124.04011720277575

>  <Genealogy>  (69) 
COc1cccc(C(=O)N2C[C@@H]3CN(c4ncc(C(F)(F)F)s4)C[C@H]3C2)c1OC (chirality)
COc1cccc(C(=O)N2C[C@@H]3CN(c4ncc(C(F)(F)F)s4)C[C@H]3C2)c1OC (3D coordinates assigned)
COc1cccc(C(=O)N2C[C@@H]3CN(c4ncc(C(F)(F)F)s4)C[C@H]3C2)c1OC (nonaromatic ring conformer: 124.04011720277575 kcal/mol)

>  <smiles>  (69) 
COc1cccc(C(=O)N2CC3CN(c4ncc(C(F)(F)F)s4)CC3C2)c1OC

>  <score_type>  (69) 
oracle

>  <origin>  (69) 
adg

>  <m_score__min__energy>  (69) 
-7.4400000000000004

>  <m_primary>  (69) 
energy

$$$$
69:0
     RDKit          3D

 43 45  0  0  0  0  0  0  0  0999 V2000
   62.7510   34.1900   50.9040 C   0  0  0  0  0  0  0  0  0  0  0  0
   62.7910   33.9530   49.4200 C   0  0  0  0  0  0  0  0  0  0  0  0
   61.6460   34.0690   48.6410 C   0  0  0  0  0  0  0  0  0  0  0  0
   61.6940   33.8470   47.2620 C   0  0  0  0  0  0  0  0  0  0  0  0
   60.4600   33.9700   46.5340 C   0  0  0  0  0  0  0  0  0  0  0  0
   60.1420   35.1550   46.1610 O   0  0  0  0  0  0  0  0  0  0  0  0
   59.5480   32.9040   46.1800 C   0  0  0  0  0  0  0  0  0  0  0  0
   58.7160   33.0100   45.0990 N   0  0  0  0  0  0  0  0  0  0  0  0
   58.0020   31.8770   45.0050 C   0  0  0  0  0  0  0  0  0  0  0  0
   57.0470   31.5370   44.0760 C   0  0  0  0  0  0  0  0  0  0  0  0
   56.4450   30.3140   44.1810 C   0  0  0  0  0  0  0  0  0  0  0  0
   56.8080   29.4490   45.2110 C   0  0  0  0  0  0  0  0  0  0  0  0
   56.1340   28.1960   45.2460 N   0  0  0  0  0  0  0  0  0  0  0  0
   56.8990   26.7740   45.8740 S   0  0  0  0  0  0  0  0  0  0  0  0
   57.7880   27.1760   47.0160 O   0  0  0  0  0  0  0  0  0  0  0  0
   55.9260   25.7900   46.4110 O   0  0  0  0  0  0  0  0  0  0  0  0
   57.9350   26.0430   44.6370 C   0  0  0  0  0  0  0  0  0  0  0  0
   57.2710   24.8150   44.0390 C   0  0  0  0  0  0  0  0  0  0  0  0
   58.2020   27.0220   43.5250 C   0  0  0  0  0  0  0  0  0  0  0  0
   57.7700   29.8070   46.1330 C   0  0  0  0  0  0  0  0  0  0  0  0
   58.3700   31.0300   46.0280 C   0  0  0  0  0  0  0  0  0  0  0  0
   59.3170   31.7080   46.7150 N   0  0  0  0  0  0  0  0  0  0  0  0
   62.9160   33.5140   46.7440 C   0  0  0  0  0  0  0  0  0  0  0  0
   64.0640   33.4000   47.5330 C   0  0  0  0  0  0  0  0  0  0  0  0
   63.9800   33.6240   48.8760 N   0  0  0  0  0  0  0  0  0  0  0  0
   62.9116   33.2383   51.4318 H   0  0  0  0  0  0  0  0  0  0  0  0
   63.5417   34.9020   51.1830 H   0  0  0  0  0  0  0  0  0  0  0  0
   61.7704   34.6031   51.1830 H   0  0  0  0  0  0  0  0  0  0  0  0
   60.6908   34.3387   49.1153 H   0  0  0  0  0  0  0  0  0  0  0  0
   56.7741   32.2319   43.2682 H   0  0  0  0  0  0  0  0  0  0  0  0
   55.6760   30.0137   43.4541 H   0  0  0  0  0  0  0  0  0  0  0  0
   55.1430   28.1800   44.8700 H   0  0  0  0  0  0  0  0  0  0  0  0
   58.8800   25.7584   45.1227 H   0  0  0  0  0  0  0  0  0  0  0  0
   56.9165   24.1593   44.8479 H   0  0  0  0  0  0  0  0  0  0  0  0
   56.4178   25.1253   43.4180 H   0  0  0  0  0  0  0  0  0  0  0  0
   57.9978   24.2709   43.4180 H   0  0  0  0  0  0  0  0  0  0  0  0
   58.4686   27.9995   43.9532 H   0  0  0  0  0  0  0  0  0  0  0  0
   59.0327   26.6546   42.9046 H   0  0  0  0  0  0  0  0  0  0  0  0
   57.2998   27.1272   42.9046 H   0  0  0  0  0  0  0  0  0  0  0  0
   58.0503   29.1166   46.9422 H   0  0  0  0  0  0  0  0  0  0  0  0
   59.7820   31.2950   47.5460 H   0  0  0  0  0  0  0  0  0  0  0  0
   62.9981   33.3285   45.6629 H   0  0  0  0  0  0  0  0  0  0  0  0
   65.0274   33.1318   47.0748 H   0  0  0  0  0  0  0  0  0  0  0  0
  1  2  1  0
  2  3  2  0
  3  4  1  0
  4  5  1  0
  5  6  2  0
  5  7  1  0
  7  8  2  0
  8  9  1  0
  9 10  2  0
 10 11  1  0
 11 12  2  0
 12 13  1  0
 13 14  1  0
 14 15  2  0
 14 16  2  0
 14 17  1  0
 17 18  1  0
 17 19  1  0
 12 20  1  0
 20 21  2  0
 21 22  1  0
  4 23  2  0
 23 24  1  0
 24 25  2  0
 25  2  1  0
 22  7  1  0
 21  9  1  0
  1 26  1  0
  1 27  1  0
  1 28  1  0
  3 29  1  0
 10 30  1  0
 11 31  1  0
 13 32  1  0
 17 33  1  0
 18 34  1  0
 18 35  1  0
 18 36  1  0
 19 37  1  0
 19 38  1  0
 19 39  1  0
 20 40  1  0
 22 41  1  0
 23 42  1  0
 24 43  1  0
M  END
>  <smiles>  (70) 
Cc1cc(C(=O)c2nc3ccc(NS(=O)(=O)C(C)C)cc3[nH]2)ccn1

>  <score_type>  (70) 
oracle

>  <origin>  (70) 
adg

>  <m_score__min__energy>  (70) 
-8.9000000000000004

>  <m_primary>  (70) 
energy

$$$$
70:0
     RDKit          3D

 61 64  0  0  0  0  0  0  0  0999 V2000
   57.1900   34.5130   45.9000 H   0  0  0  0  0  0  0  0  0  0  0  0
   56.9260   33.8190   45.1650 N   0  0  0  0  0  0  0  0  0  0  0  0
   57.2120   32.5610   45.2840 C   0  0  0  0  0  0  0  0  0  0  0  0
   56.6240   31.6570   44.4550 N   0  0  0  0  0  0  0  0  0  0  0  0
   56.8540   30.3230   44.5580 C   0  0  0  0  0  0  0  0  0  0  0  0
   56.3696   29.6282   43.8561 H   0  0  0  0  0  0  0  0  0  0  0  0
   57.7070   29.8260   45.5560 C   0  0  0  0  0  0  0  0  0  0  0  0
   57.9580   28.3680   45.6860 C   0  0  0  0  0  0  0  0  0  0  0  0
   59.2720   27.8710   45.7010 C   0  0  0  0  0  0  0  0  0  0  0  0
   60.1206   28.5664   45.6209 H   0  0  0  0  0  0  0  0  0  0  0  0
   59.5070   26.5000   45.8170 C   0  0  0  0  0  0  0  0  0  0  0  0
   60.5393   26.1202   45.8258 H   0  0  0  0  0  0  0  0  0  0  0  0
   58.4370   25.6080   45.9220 C   0  0  0  0  0  0  0  0  0  0  0  0
   58.6312   24.5287   46.0083 H   0  0  0  0  0  0  0  0  0  0  0  0
   57.1130   26.0820   45.9180 C   0  0  0  0  0  0  0  0  0  0  0  0
   55.9670   25.1460   46.0130 C   0  0  0  0  0  0  0  0  0  0  0  0
   54.7930   25.6000   45.9340 O   0  0  0  0  0  0  0  0  0  0  0  0
   56.1730   23.7370   46.2120 N   0  0  0  0  0  0  0  0  0  0  0  0
   57.1180   23.3900   46.4910 H   0  0  0  0  0  0  0  0  0  0  0  0
   55.0730   22.7730   46.2380 C   0  0  0  0  0  0  0  0  0  0  0  0
   54.1274   23.3099   46.4043 H   0  0  0  0  0  0  0  0  0  0  0  0
   55.0487   22.2414   45.2753 H   0  0  0  0  0  0  0  0  0  0  0  0
   55.2710   21.7490   47.3570 C   0  0  0  0  0  0  0  0  0  0  0  0
   54.5386   21.9444   48.1541 H   0  0  0  0  0  0  0  0  0  0  0  0
   55.1300   20.7435   46.9339 H   0  0  0  0  0  0  0  0  0  0  0  0
   56.6510   21.8270   47.9340 C   0  0  0  0  0  0  0  0  0  0  0  0
   57.4380   20.8500   47.8270 O   0  0  0  0  0  0  0  0  0  0  0  0
   57.0530   22.9630   48.6240 O   0  0  0  0  0  0  0  0  0  0  0  0
   56.8840   27.4650   45.7930 C   0  0  0  0  0  0  0  0  0  0  0  0
   55.8519   27.8451   45.7787 H   0  0  0  0  0  0  0  0  0  0  0  0
   58.3210   30.7410   46.4250 C   0  0  0  0  0  0  0  0  0  0  0  0
   58.9824   30.3745   47.2239 H   0  0  0  0  0  0  0  0  0  0  0  0
   58.0990   32.1170   46.2840 C   0  0  0  0  0  0  0  0  0  0  0  0
   58.7760   33.0510   47.2080 C   0  0  0  0  0  0  0  0  0  0  0  0
   59.1060   34.3100   46.8640 N   0  0  0  0  0  0  0  0  0  0  0  0
   59.6770   34.8650   47.9230 N   0  0  0  0  0  0  0  0  0  0  0  0
   59.6790   33.9420   48.9050 C   0  0  0  0  0  0  0  0  0  0  0  0
   60.2510   34.2190   50.2760 C   0  0  1  0  0  0  0  0  0  0  0  0
   60.5512   35.2760   50.3265 H   0  0  0  0  0  0  0  0  0  0  0  0
   59.2380   33.9840   51.3070 N   0  0  0  0  0  0  0  0  0  0  0  0
   58.7910   34.8980   51.5480 H   0  0  0  0  0  0  0  0  0  0  0  0
   58.4760   33.3990   50.8930 H   0  0  0  0  0  0  0  0  0  0  0  0
   61.5070   33.3580   50.5230 C   0  0  0  0  0  0  0  0  0  0  0  0
   62.1667   33.8845   51.2284 H   0  0  0  0  0  0  0  0  0  0  0  0
   61.1830   32.3898   50.9325 H   0  0  0  0  0  0  0  0  0  0  0  0
   62.2660   33.0970   49.2470 C   0  0  0  0  0  0  0  0  0  0  0  0
   62.2660   31.8180   48.6660 C   0  0  0  0  0  0  0  0  0  0  0  0
   61.6926   31.0039   49.1334 H   0  0  0  0  0  0  0  0  0  0  0  0
   62.9920   31.5760   47.4960 C   0  0  0  0  0  0  0  0  0  0  0  0
   62.9861   30.5735   47.0433 H   0  0  0  0  0  0  0  0  0  0  0  0
   63.7250   32.6060   46.9010 C   0  0  0  0  0  0  0  0  0  0  0  0
   64.2944   32.4144   45.9795 H   0  0  0  0  0  0  0  0  0  0  0  0
   63.7350   33.8790   47.4760 C   0  0  0  0  0  0  0  0  0  0  0  0
   64.3137   34.6886   47.0073 H   0  0  0  0  0  0  0  0  0  0  0  0
   63.0110   34.1260   48.6460 C   0  0  0  0  0  0  0  0  0  0  0  0
   63.0244   35.1289   49.0977 H   0  0  0  0  0  0  0  0  0  0  0  0
   59.1020   32.7880   48.4930 N   0  0  0  0  0  0  0  0  0  0  0  0
   58.8720   31.5540   49.2450 C   0  0  0  0  0  0  0  0  0  0  0  0
   58.9120   31.7687   50.3231 H   0  0  0  0  0  0  0  0  0  0  0  0
   57.8826   31.1474   48.9886 H   0  0  0  0  0  0  0  0  0  0  0  0
   59.6485   30.8182   48.9886 H   0  0  0  0  0  0  0  0  0  0  0  0
  1  2  1  0
  2  3  2  0
  3  4  1  0
  4  5  1  0
  5  6  1  0
  5  7  2  0
  7  8  1  0
  8  9  2  0
  9 10  1  0
  9 11  1  0
 11 12  1  0
 11 13  2  0
 13 14  1  0
 13 15  1  0
 15 16  1  0
 16 17  2  0
 16 18  1  0
 18 19  1  0
 18 20  1  0
 20 21  1  0
 20 22  1  0
 20 23  1  0
 23 24  1  0
 23 25  1  0
 23 26  1  0
 26 27  2  0
 26 28  1  0
 15 29  2  0
 29 30  1  0
  7 31  1  0
 31 32  1  0
 31 33  2  0
 33 34  1  0
 34 35  2  0
 35 36  1  0
 36 37  2  0
 37 38  1  0
 38 39  1  6
 38 40  1  0
 40 41  1  0
 40 42  1  0
 38 43  1  0
 43 44  1  0
 43 45  1  0
 43 46  1  0
 46 47  2  0
 47 48  1  0
 47 49  1  0
 49 50  1  0
 49 51  2  0
 51 52  1  0
 51 53  1  0
 53 54  1  0
 53 55  2  0
 55 56  1  0
 37 57  1  0
 57 58  1  0
 58 59  1  0
 58 60  1  0
 58 61  1  0
 33  3  1  0
 57 34  1  0
 29  8  1  0
 55 46  1  0
M  CHG  2   4  -1  28  -1
M  END
>  <UniqueID>  (71) 
66

>  <SMILES>  (71) 
[H]/N=c1\[n-]cc(-c2cccc(C(=O)NCCC(=O)[O-])c2)cc1-c1nnc([C@@H](N)Cc2ccccc2)n1C

>  <Energy>  (71) 
108.37011148271442

>  <Genealogy>  (71) 
Cn1c(-c2cc(-c3cccc(C(=O)NCCC(=O)[O-])c3)c[n-]c2=N)nnc1C(N)Cc1ccccc1 (protonated)
Cn1c(-c2cc(-c3cccc(C(=O)NCCC(=O)[O-])c3)c[n-]c2=N)nnc1[C@@H](N)Cc1ccccc1 (chirality)
[H]/N=c1\[n-]cc(-c2cccc(C(=O)NCCC(=O)[O-])c2)cc1-c1nnc([C@@H](N)Cc2ccccc2)n1C (cis-trans isomerization)
[H]/N=c1\[n-]cc(-c2cccc(C(=O)NCCC(=O)[O-])c2)cc1-c1nnc([C@@H](N)Cc2ccccc2)n1C (3D coordinates assigned)
[H]/N=c1\[n-]cc(-c2cccc(C(=O)NCCC(=O)[O-])c2)cc1-c1nnc([C@@H](N)Cc2ccccc2)n1C (optimized conformer: 108.37011148271442 kcal/mol)

>  <smiles>  (71) 
Cn1c(-c2cc(-c3cccc(C(=O)NCCC(=O)O)c3)c[nH]c2=N)nnc1C(N)Cc1ccccc1

>  <score_type>  (71) 
oracle

>  <origin>  (71) 
adg

>  <m_score__min__energy>  (71) 
-14.58

>  <m_primary>  (71) 
energy

$$$$
71:0
     RDKit          3D

 47 49  0  0  0  0  0  0  0  0999 V2000
   58.4660   33.1810   44.3280 C   0  0  0  0  0  0  0  0  0  0  0  0
   58.2470   34.2820   45.2820 N   0  0  0  0  0  0  0  0  0  0  0  0
   57.4480   33.8060   46.4350 C   0  0  0  0  0  0  0  0  0  0  0  0
   58.2440   32.9230   47.4140 C   0  0  0  0  0  0  0  0  0  0  0  0
   59.3720   33.7000   48.1030 C   0  0  0  0  0  0  0  0  0  0  0  0
   60.6320   33.6230   47.3520 N   0  0  0  0  0  0  0  0  0  0  0  0
   61.8140   33.0980   47.9900 C   0  0  0  0  0  0  0  0  0  0  0  0
   62.9650   33.8990   48.0760 C   0  0  0  0  0  0  0  0  0  0  0  0
   64.0880   33.4560   48.7780 C   0  0  0  0  0  0  0  0  0  0  0  0
   64.0710   32.2110   49.4100 C   0  0  0  0  0  0  0  0  0  0  0  0
   62.9400   31.3980   49.3210 C   0  0  0  0  0  0  0  0  0  0  0  0
   61.8200   31.8140   48.5910 C   0  0  0  0  0  0  0  0  0  0  0  0
   60.7030   30.9230   48.4830 N   0  0  0  0  0  0  0  0  0  0  0  0
   60.3010   30.2950   47.2630 C   0  0  0  0  0  0  0  0  0  0  0  0
   61.1330   30.1370   46.3280 O   0  0  0  0  0  0  0  0  0  0  0  0
   58.9440   29.8660   47.1060 N   0  0  0  0  0  0  0  0  0  0  0  0
   58.4330   29.4240   45.8420 C   0  0  0  0  0  0  0  0  0  0  0  0
   57.5090   30.2290   45.1590 C   0  0  0  0  0  0  0  0  0  0  0  0
   57.0060   29.8300   43.9190 C   0  0  0  0  0  0  0  0  0  0  0  0
   57.4110   28.6170   43.3580 C   0  0  0  0  0  0  0  0  0  0  0  0
   58.3150   27.7980   44.0390 C   0  0  0  0  0  0  0  0  0  0  0  0
   58.8260   28.1920   45.2820 C   0  0  0  0  0  0  0  0  0  0  0  0
   59.9030   27.0980   46.1420 Cl  0  0  0  0  0  0  0  0  0  0  0  0
   60.6880   34.0320   45.9420 C   0  0  0  0  0  0  0  0  0  0  0  0
   59.5180   34.9740   45.6060 C   0  0  0  0  0  0  0  0  0  0  0  0
   58.6515   32.2483   44.8808 H   0  0  0  0  0  0  0  0  0  0  0  0
   57.5741   33.0611   43.6954 H   0  0  0  0  0  0  0  0  0  0  0  0
   59.3359   33.4115   43.6954 H   0  0  0  0  0  0  0  0  0  0  0  0
   57.0727   34.6825   46.9836 H   0  0  0  0  0  0  0  0  0  0  0  0
   56.6345   33.1862   46.0299 H   0  0  0  0  0  0  0  0  0  0  0  0
   57.5578   32.5374   48.1824 H   0  0  0  0  0  0  0  0  0  0  0  0
   58.6990   32.1034   46.8385 H   0  0  0  0  0  0  0  0  0  0  0  0
   59.0745   34.7554   48.1901 H   0  0  0  0  0  0  0  0  0  0  0  0
   59.5386   33.2504   49.0930 H   0  0  0  0  0  0  0  0  0  0  0  0
   62.9818   34.8837   47.5861 H   0  0  0  0  0  0  0  0  0  0  0  0
   64.9865   34.0882   48.8331 H   0  0  0  0  0  0  0  0  0  0  0  0
   64.9493   31.8708   49.9782 H   0  0  0  0  0  0  0  0  0  0  0  0
   62.9285   30.4222   49.8287 H   0  0  0  0  0  0  0  0  0  0  0  0
   58.2580   30.1470   47.8420 H   0  0  0  0  0  0  0  0  0  0  0  0
   57.1789   31.1798   45.6028 H   0  0  0  0  0  0  0  0  0  0  0  0
   56.2904   30.4715   43.3838 H   0  0  0  0  0  0  0  0  0  0  0  0
   57.0178   28.3060   42.3789 H   0  0  0  0  0  0  0  0  0  0  0  0
   58.6266   26.8400   43.5972 H   0  0  0  0  0  0  0  0  0  0  0  0
   61.6380   34.5537   45.7541 H   0  0  0  0  0  0  0  0  0  0  0  0
   60.6154   33.1354   45.3088 H   0  0  0  0  0  0  0  0  0  0  0  0
   59.3425   35.6273   46.4734 H   0  0  0  0  0  0  0  0  0  0  0  0
   59.8118   35.5292   44.7030 H   0  0  0  0  0  0  0  0  0  0  0  0
  1  2  1  0
  2  3  1  0
  3  4  1  0
  4  5  1  0
  5  6  1  0
  6  7  1  0
  7  8  2  0
  8  9  1  0
  9 10  2  0
 10 11  1  0
 11 12  2  0
 12 13  1  0
 13 14  1  0
 14 15  2  0
 14 16  1  0
 16 17  1  0
 17 18  2  0
 18 19  1  0
 19 20  2  0
 20 21  1  0
 21 22  2  0
 22 23  1  0
  6 24  1  0
 24 25  1  0
 25  2  1  0
 12  7  1  0
 22 17  1  0
  1 26  1  0
  1 27  1  0
  1 28  1  0
  3 29  1  0
  3 30  1  0
  4 31  1  0
  4 32  1  0
  5 33  1  0
  5 34  1  0
  8 35  1  0
  9 36  1  0
 10 37  1  0
 11 38  1  0
 16 39  1  0
 18 40  1  0
 19 41  1  0
 20 42  1  0
 21 43  1  0
 24 44  1  0
 24 45  1  0
 25 46  1  0
 25 47  1  0
M  CHG  1  13  -1
M  END
>  <UniqueID>  (72) 
67

>  <SMILES>  (72) 
CN1CCCN(c2ccccc2[N-]C(=O)Nc2ccccc2Cl)CC1

>  <Energy>  (72) 
72.08305312756463

>  <Genealogy>  (72) 
CN1CCCN(c2ccccc2[N-]C(=O)Nc2ccccc2Cl)CC1 (protonated)
CN1CCCN(c2ccccc2[N-]C(=O)Nc2ccccc2Cl)CC1 (3D coordinates assigned)
CN1CCCN(c2ccccc2[N-]C(=O)Nc2ccccc2Cl)CC1 (nonaromatic ring conformer: 72.08305312756463 kcal/mol)

>  <smiles>  (72) 
CN1CCCN(c2ccccc2NC(=O)Nc2ccccc2Cl)CC1

>  <score_type>  (72) 
oracle

>  <origin>  (72) 
adg

>  <m_score__min__energy>  (72) 
-8.2100000000000009

>  <m_primary>  (72) 
energy

$$$$
72:0
     RDKit          3D

 39 41  0  0  0  0  0  0  0  0999 V2000
   64.8210   33.1790   49.4750 C   0  0  0  0  0  0  0  0  0  0  0  0
   63.6300   32.7270   48.6930 C   0  0  0  0  0  0  0  0  0  0  0  0
   63.7940   31.9650   47.7030 O   0  0  0  0  0  0  0  0  0  0  0  0
   62.3100   33.0860   49.1320 N   0  0  0  0  0  0  0  0  0  0  0  0
   61.1150   32.8600   48.3630 C   0  0  0  0  0  0  0  0  0  0  0  0
   60.6300   31.5630   48.1250 C   0  0  0  0  0  0  0  0  0  0  0  0
   59.4800   31.3690   47.3540 C   0  0  0  0  0  0  0  0  0  0  0  0
   58.7960   32.4700   46.8090 C   0  0  0  0  0  0  0  0  0  0  0  0
   57.6280   32.3120   45.9920 N   0  0  0  0  0  0  0  0  0  0  0  0
   57.5290   32.5830   44.5880 C   0  0  0  0  0  0  0  0  0  0  0  0
   57.4030   33.7630   44.1640 O   0  0  0  0  0  0  0  0  0  0  0  0
   57.5830   31.4490   43.6150 C   0  0  0  0  0  0  0  0  0  0  0  0
   57.3520   30.1490   44.3300 C   0  0  0  0  0  0  0  0  0  0  0  0
   58.4220   29.3740   44.6580 N   0  0  0  0  0  0  0  0  0  0  0  0
   58.2660   28.1740   45.2750 C   0  0  0  0  0  0  0  0  0  0  0  0
   59.3790   27.3930   45.6100 C   0  0  0  0  0  0  0  0  0  0  0  0
   59.1970   26.1600   46.2450 C   0  0  0  0  0  0  0  0  0  0  0  0
   57.9070   25.7060   46.5450 C   0  0  0  0  0  0  0  0  0  0  0  0
   56.7920   26.4820   46.2120 C   0  0  0  0  0  0  0  0  0  0  0  0
   56.9670   27.7160   45.5770 C   0  0  0  0  0  0  0  0  0  0  0  0
   55.8980   28.4820   45.2410 N   0  0  0  0  0  0  0  0  0  0  0  0
   56.0550   29.6830   44.6230 C   0  0  0  0  0  0  0  0  0  0  0  0
   55.0390   30.3610   44.3190 O   0  0  0  0  0  0  0  0  0  0  0  0
   59.3090   33.7580   47.0070 C   0  0  0  0  0  0  0  0  0  0  0  0
   60.4580   33.9520   47.7780 C   0  0  0  0  0  0  0  0  0  0  0  0
   64.6059   33.0974   50.5507 H   0  0  0  0  0  0  0  0  0  0  0  0
   65.6855   32.5464   49.2249 H   0  0  0  0  0  0  0  0  0  0  0  0
   65.0481   34.2258   49.2249 H   0  0  0  0  0  0  0  0  0  0  0  0
   62.2080   33.4590   50.1020 H   0  0  0  0  0  0  0  0  0  0  0  0
   61.1580   30.6955   48.5476 H   0  0  0  0  0  0  0  0  0  0  0  0
   59.1083   30.3497   47.1728 H   0  0  0  0  0  0  0  0  0  0  0  0
   56.8047   31.5876   42.8501 H   0  0  0  0  0  0  0  0  0  0  0  0
   58.5742   31.4284   43.1384 H   0  0  0  0  0  0  0  0  0  0  0  0
   60.3932   27.7480   45.3745 H   0  0  0  0  0  0  0  0  0  0  0  0
   60.0700   25.5452   46.5094 H   0  0  0  0  0  0  0  0  0  0  0  0
   57.7699   24.7355   47.0444 H   0  0  0  0  0  0  0  0  0  0  0  0
   55.7797   26.1227   46.4490 H   0  0  0  0  0  0  0  0  0  0  0  0
   58.8038   34.6229   46.5524 H   0  0  0  0  0  0  0  0  0  0  0  0
   60.8501   34.9689   47.9272 H   0  0  0  0  0  0  0  0  0  0  0  0
  1  2  1  0
  2  3  2  0
  2  4  1  0
  4  5  1  0
  5  6  2  0
  6  7  1  0
  7  8  2  0
  8  9  1  0
  9 10  1  0
 10 11  2  0
 10 12  1  0
 12 13  1  0
 13 14  2  0
 14 15  1  0
 15 16  2  0
 16 17  1  0
 17 18  2  0
 18 19  1  0
 19 20  2  0
 20 21  1  0
 21 22  1  0
 22 23  2  0
  8 24  1  0
 24 25  2  0
 25  5  1  0
 22 13  1  0
 20 15  1  0
  1 26  1  0
  1 27  1  0
  1 28  1  0
  4 29  1  0
  6 30  1  0
  7 31  1  0
 12 32  1  0
 12 33  1  0
 16 34  1  0
 17 35  1  0
 18 36  1  0
 19 37  1  0
 24 38  1  0
 25 39  1  0
M  CHG  2   9  -1  21  -1
M  END
>  <UniqueID>  (73) 
68

>  <SMILES>  (73) 
CC(=O)Nc1ccc([N-]C(=O)Cc2nc3ccccc3[n-]c2=O)cc1

>  <Energy>  (73) 
48.88179883080262

>  <Genealogy>  (73) 
CC(=O)Nc1ccc([N-]C(=O)Cc2nc3ccccc3[n-]c2=O)cc1 (protonated)
CC(=O)Nc1ccc([N-]C(=O)Cc2nc3ccccc3[n-]c2=O)cc1 (3D coordinates assigned)
CC(=O)Nc1ccc([N-]C(=O)Cc2nc3ccccc3[n-]c2=O)cc1 (optimized conformer: 48.88179883080262 kcal/mol)

>  <smiles>  (73) 
CC(=O)Nc1ccc(NC(=O)Cc2nc3ccccc3[nH]c2=O)cc1

>  <score_type>  (73) 
oracle

>  <origin>  (73) 
adg

>  <m_score__min__energy>  (73) 
-11.16

>  <m_primary>  (73) 
energy

$$$$
73:0
     RDKit          3D

 73 76  0  0  0  0  0  0  0  0999 V2000
   57.5530   21.8730   50.6420 C   0  0  0  0  0  0  0  0  0  0  0  0
   57.3490   21.9240   49.2340 O   0  0  0  0  0  0  0  0  0  0  0  0
   56.0950   21.8200   48.6090 C   0  0  0  0  0  0  0  0  0  0  0  0
   55.0770   20.9770   49.0970 C   0  0  0  0  0  0  0  0  0  0  0  0
   53.8440   20.9100   48.4390 C   0  0  0  0  0  0  0  0  0  0  0  0
   53.6170   21.6770   47.2940 C   0  0  0  0  0  0  0  0  0  0  0  0
   54.6240   22.5170   46.7990 C   0  0  0  0  0  0  0  0  0  0  0  0
   54.3360   23.5110   45.3730 S   0  0  0  0  0  0  0  0  0  0  0  0
   55.1400   22.9580   44.2300 O   0  0  0  0  0  0  0  0  0  0  0  0
   52.8820   23.4630   44.9920 O   0  0  0  0  0  0  0  0  0  0  0  0
   54.7980   25.1610   45.6390 N   0  0  0  0  0  0  0  0  0  0  0  0
   56.1570   25.5800   45.7890 C   0  0  0  0  0  0  0  0  0  0  0  0
   56.6680   25.9640   47.0370 C   0  0  0  0  0  0  0  0  0  0  0  0
   58.0000   26.3710   47.1580 C   0  0  0  0  0  0  0  0  0  0  0  0
   58.8420   26.3950   46.0330 C   0  0  0  0  0  0  0  0  0  0  0  0
   60.2420   26.8540   46.1600 C   0  0  0  0  0  0  0  0  0  0  0  0
   61.1370   26.0570   46.5570 O   0  0  0  0  0  0  0  0  0  0  0  0
   60.5730   28.1750   45.8370 O   0  0  0  0  0  0  0  0  0  0  0  0
   59.8530   28.9320   44.8690 C   0  0  0  0  0  0  0  0  0  0  0  0
   58.4710   29.2820   45.4210 C   0  0  0  0  0  0  0  0  0  0  0  0
   57.7030   30.3300   44.5880 C   0  0  0  0  0  0  0  0  0  0  0  0
   57.5610   31.7610   45.1780 C   0  0  0  0  0  0  0  0  0  0  0  0
   58.1330   31.9070   46.5950 C   0  0  0  0  0  0  0  0  0  0  0  0
   57.8510   33.3090   47.1560 C   0  0  0  0  0  0  0  0  0  0  0  0
   58.2780   34.3870   46.2410 N   0  0  0  0  0  0  0  0  0  0  0  0
   59.5810   35.0320   46.5150 C   0  0  0  0  0  0  0  0  0  0  0  0
   60.7890   34.2240   46.0160 C   0  0  0  0  0  0  0  0  0  0  0  0
   61.7040   33.8910   47.1630 C   0  0  0  0  0  0  0  0  0  0  0  0
   63.0240   33.4730   46.9170 C   0  0  0  0  0  0  0  0  0  0  0  0
   63.8830   33.1900   47.9830 C   0  0  0  0  0  0  0  0  0  0  0  0
   63.4380   33.3360   49.3000 C   0  0  0  0  0  0  0  0  0  0  0  0
   62.1310   33.7650   49.5530 C   0  0  0  0  0  0  0  0  0  0  0  0
   61.2680   34.0450   48.4900 C   0  0  0  0  0  0  0  0  0  0  0  0
   57.8770   34.2500   44.8250 C   0  0  0  0  0  0  0  0  0  0  0  0
   58.1310   32.8480   44.2530 C   0  0  0  0  0  0  0  0  0  0  0  0
   58.3320   25.9800   44.7890 C   0  0  0  0  0  0  0  0  0  0  0  0
   57.0020   25.5660   44.6740 C   0  0  0  0  0  0  0  0  0  0  0  0
   55.8580   22.5860   47.4600 C   0  0  0  0  0  0  0  0  0  0  0  0
   56.6105   22.1086   51.1578 H   0  0  0  0  0  0  0  0  0  0  0  0
   57.8853   20.8641   50.9281 H   0  0  0  0  0  0  0  0  0  0  0  0
   58.3209   22.6068   50.9281 H   0  0  0  0  0  0  0  0  0  0  0  0
   55.2520   20.3700   49.9975 H   0  0  0  0  0  0  0  0  0  0  0  0
   53.0515   20.2517   48.8244 H   0  0  0  0  0  0  0  0  0  0  0  0
   52.6462   21.6217   46.7798 H   0  0  0  0  0  0  0  0  0  0  0  0
   56.0182   25.9449   47.9244 H   0  0  0  0  0  0  0  0  0  0  0  0
   58.3916   26.6744   48.1401 H   0  0  0  0  0  0  0  0  0  0  0  0
   60.4032   29.8576   44.6441 H   0  0  0  0  0  0  0  0  0  0  0  0
   59.7411   28.3393   43.9491 H   0  0  0  0  0  0  0  0  0  0  0  0
   57.8701   28.3613   45.4555 H   0  0  0  0  0  0  0  0  0  0  0  0
   58.6309   29.7245   46.4153 H   0  0  0  0  0  0  0  0  0  0  0  0
   58.2193   30.4233   43.6212 H   0  0  0  0  0  0  0  0  0  0  0  0
   56.6733   29.9461   44.5405 H   0  0  0  0  0  0  0  0  0  0  0  0
   56.4745   31.9149   45.2539 H   0  0  0  0  0  0  0  0  0  0  0  0
   57.6680   31.1561   47.2506 H   0  0  0  0  0  0  0  0  0  0  0  0
   59.2219   31.7570   46.5526 H   0  0  0  0  0  0  0  0  0  0  0  0
   56.7697   33.4059   47.3332 H   0  0  0  0  0  0  0  0  0  0  0  0
   58.4277   33.4160   48.0866 H   0  0  0  0  0  0  0  0  0  0  0  0
   59.5926   36.0145   46.0206 H   0  0  0  0  0  0  0  0  0  0  0  0
   59.6767   35.1101   47.6080 H   0  0  0  0  0  0  0  0  0  0  0  0
   60.4352   33.2917   45.5515 H   0  0  0  0  0  0  0  0  0  0  0  0
   61.3424   34.8254   45.2797 H   0  0  0  0  0  0  0  0  0  0  0  0
   63.3819   33.3683   45.8821 H   0  0  0  0  0  0  0  0  0  0  0  0
   64.9108   32.8518   47.7850 H   0  0  0  0  0  0  0  0  0  0  0  0
   64.1157   33.1135   50.1374 H   0  0  0  0  0  0  0  0  0  0  0  0
   61.7820   33.8821   50.5896 H   0  0  0  0  0  0  0  0  0  0  0  0
   60.2426   34.3876   48.6930 H   0  0  0  0  0  0  0  0  0  0  0  0
   56.8024   34.4704   44.7439 H   0  0  0  0  0  0  0  0  0  0  0  0
   58.4905   34.9542   44.2438 H   0  0  0  0  0  0  0  0  0  0  0  0
   57.6493   32.7696   43.2672 H   0  0  0  0  0  0  0  0  0  0  0  0
   59.2172   32.6979   44.1658 H   0  0  0  0  0  0  0  0  0  0  0  0
   58.9833   25.9814   43.9025 H   0  0  0  0  0  0  0  0  0  0  0  0
   56.6172   25.2271   43.7008 H   0  0  0  0  0  0  0  0  0  0  0  0
   56.6474   23.2473   47.0733 H   0  0  0  0  0  0  0  0  0  0  0  0
  1  2  1  0
  2  3  1  0
  3  4  2  0
  4  5  1  0
  5  6  2  0
  6  7  1  0
  7  8  1  0
  8  9  2  0
  8 10  2  0
  8 11  1  0
 11 12  1  0
 12 13  2  0
 13 14  1  0
 14 15  2  0
 15 16  1  0
 16 17  2  0
 16 18  1  0
 18 19  1  0
 19 20  1  0
 20 21  1  0
 21 22  1  0
 22 23  1  0
 23 24  1  0
 24 25  1  0
 25 26  1  0
 26 27  1  0
 27 28  1  0
 28 29  2  0
 29 30  1  0
 30 31  2  0
 31 32  1  0
 32 33  2  0
 25 34  1  0
 34 35  1  0
 15 36  1  0
 36 37  2  0
  7 38  2  0
 38  3  1  0
 37 12  1  0
 35 22  1  0
 33 28  1  0
  1 39  1  0
  1 40  1  0
  1 41  1  0
  4 42  1  0
  5 43  1  0
  6 44  1  0
 13 45  1  0
 14 46  1  0
 19 47  1  0
 19 48  1  0
 20 49  1  0
 20 50  1  0
 21 51  1  0
 21 52  1  0
 22 53  1  0
 23 54  1  0
 23 55  1  0
 24 56  1  0
 24 57  1  0
 26 58  1  0
 26 59  1  0
 27 60  1  0
 27 61  1  0
 29 62  1  0
 30 63  1  0
 31 64  1  0
 32 65  1  0
 33 66  1  0
 34 67  1  0
 34 68  1  0
 35 69  1  0
 35 70  1  0
 36 71  1  0
 37 72  1  0
 38 73  1  0
M  CHG  1  11  -1
M  END
>  <UniqueID>  (74) 
69

>  <SMILES>  (74) 
COc1cccc(S(=O)(=O)[N-]c2ccc(C(=O)OCCCC3CCN(CCc4ccccc4)CC3)cc2)c1

>  <Energy>  (74) 
87.09390821284059

>  <Genealogy>  (74) 
COc1cccc(S(=O)(=O)[N-]c2ccc(C(=O)OCCCC3CCN(CCc4ccccc4)CC3)cc2)c1 (protonated)
COc1cccc(S(=O)(=O)[N-]c2ccc(C(=O)OCCCC3CCN(CCc4ccccc4)CC3)cc2)c1 (3D coordinates assigned)
COc1cccc(S(=O)(=O)[N-]c2ccc(C(=O)OCCCC3CCN(CCc4ccccc4)CC3)cc2)c1 (nonaromatic ring conformer: 87.09390821284059 kcal/mol)

>  <smiles>  (74) 
COc1cccc(S(=O)(=O)Nc2ccc(C(=O)OCCCC3CCN(CCc4ccccc4)CC3)cc2)c1

>  <score_type>  (74) 
oracle

>  <origin>  (74) 
adg

>  <m_score__min__energy>  (74) 
-11.619999999999999

>  <m_primary>  (74) 
energy

$$$$
74:0
     RDKit          3D

 51 53  0  0  0  0  0  0  0  0999 V2000
   58.1410   32.6730   43.4270 C   0  0  0  0  0  0  0  0  0  0  0  0
   57.7240   33.5460   44.4720 O   0  0  0  0  0  0  0  0  0  0  0  0
   58.2920   33.5710   45.7550 C   0  0  0  0  0  0  0  0  0  0  0  0
   57.6570   32.9940   46.8740 C   0  0  0  0  0  0  0  0  0  0  0  0
   58.2620   33.0460   48.1320 C   0  0  0  0  0  0  0  0  0  0  0  0
   59.5150   33.6650   48.2930 C   0  0  0  0  0  0  0  0  0  0  0  0
   60.1420   33.7610   49.5440 O   0  0  0  0  0  0  0  0  0  0  0  0
   59.5470   33.4270   50.7690 C   0  0  0  0  0  0  0  0  0  0  0  0
   58.8940   34.3810   51.4980 N   0  0  0  0  0  0  0  0  0  0  0  0
   58.3120   34.0950   52.6960 C   0  0  0  0  0  0  0  0  0  0  0  0
   58.3740   32.8030   53.2150 C   0  0  0  0  0  0  0  0  0  0  0  0
   59.0230   31.8050   52.4870 C   0  0  0  0  0  0  0  0  0  0  0  0
   59.6040   32.0960   51.2440 C   0  0  0  0  0  0  0  0  0  0  0  0
   60.2780   31.0210   50.4760 C   0  0  0  0  0  0  0  0  0  0  0  0
   61.5270   30.8680   50.5570 O   0  0  0  0  0  0  0  0  0  0  0  0
   59.5000   30.1240   49.6700 N   0  0  0  0  0  0  0  0  0  0  0  0
   59.5810   29.9990   48.2430 C   0  0  0  0  0  0  0  0  0  0  0  0
   60.7910   30.2980   47.6050 C   0  0  0  0  0  0  0  0  0  0  0  0
   60.9050   30.1790   46.2160 C   0  0  0  0  0  0  0  0  0  0  0  0
   59.8150   29.7430   45.4550 C   0  0  0  0  0  0  0  0  0  0  0  0
   58.6060   29.4140   46.0850 C   0  0  0  0  0  0  0  0  0  0  0  0
   57.2310   28.8470   45.1310 S   0  0  0  0  0  0  0  0  0  0  0  0
   56.7570   27.5290   45.6810 O   0  0  0  0  0  0  0  0  0  0  0  0
   56.1040   29.8330   45.2570 O   0  0  0  0  0  0  0  0  0  0  0  0
   57.6510   28.6580   43.4440 N   0  0  0  0  0  0  0  0  0  0  0  0
   56.6140   29.2650   42.6010 C   0  0  0  0  0  0  0  0  0  0  0  0
   57.7970   27.2330   43.1200 C   0  0  0  0  0  0  0  0  0  0  0  0
   58.4950   29.5310   47.4780 C   0  0  0  0  0  0  0  0  0  0  0  0
   60.1370   34.2480   47.1830 C   0  0  0  0  0  0  0  0  0  0  0  0
   59.5320   34.1980   45.9230 C   0  0  0  0  0  0  0  0  0  0  0  0
   58.5764   31.7615   43.8625 H   0  0  0  0  0  0  0  0  0  0  0  0
   57.2739   32.4045   42.8057 H   0  0  0  0  0  0  0  0  0  0  0  0
   58.8948   33.1787   42.8057 H   0  0  0  0  0  0  0  0  0  0  0  0
   56.6809   32.5008   46.7558 H   0  0  0  0  0  0  0  0  0  0  0  0
   57.7560   32.6006   49.0013 H   0  0  0  0  0  0  0  0  0  0  0  0
   58.8150   35.3560   51.1320 H   0  0  0  0  0  0  0  0  0  0  0  0
   57.7915   34.8862   53.2555 H   0  0  0  0  0  0  0  0  0  0  0  0
   57.9162   32.5724   54.1883 H   0  0  0  0  0  0  0  0  0  0  0  0
   59.0793   30.7833   52.8906 H   0  0  0  0  0  0  0  0  0  0  0  0
   61.6560   30.6280   48.1989 H   0  0  0  0  0  0  0  0  0  0  0  0
   61.8547   30.4290   45.7204 H   0  0  0  0  0  0  0  0  0  0  0  0
   59.9063   29.6582   44.3621 H   0  0  0  0  0  0  0  0  0  0  0  0
   55.8409   29.7175   43.2394 H   0  0  0  0  0  0  0  0  0  0  0  0
   57.0657   30.0413   41.9659 H   0  0  0  0  0  0  0  0  0  0  0  0
   56.1583   28.4911   41.9659 H   0  0  0  0  0  0  0  0  0  0  0  0
   57.8568   26.6496   44.0506 H   0  0  0  0  0  0  0  0  0  0  0  0
   56.9283   26.8995   42.5333 H   0  0  0  0  0  0  0  0  0  0  0  0
   58.7153   27.0826   42.5333 H   0  0  0  0  0  0  0  0  0  0  0  0
   57.5538   29.2555   47.9763 H   0  0  0  0  0  0  0  0  0  0  0  0
   61.1089   34.7492   47.3025 H   0  0  0  0  0  0  0  0  0  0  0  0
   60.0344   34.6548   45.0576 H   0  0  0  0  0  0  0  0  0  0  0  0
  1  2  1  0
  2  3  1  0
  3  4  2  0
  4  5  1  0
  5  6  2  0
  6  7  1  0
  7  8  1  0
  8  9  2  0
  9 10  1  0
 10 11  2  0
 11 12  1  0
 12 13  2  0
 13 14  1  0
 14 15  2  0
 14 16  1  0
 16 17  1  0
 17 18  2  0
 18 19  1  0
 19 20  2  0
 20 21  1  0
 21 22  1  0
 22 23  2  0
 22 24  2  0
 22 25  1  0
 25 26  1  0
 25 27  1  0
 21 28  2  0
  6 29  1  0
 29 30  2  0
 30  3  1  0
 13  8  1  0
 28 17  1  0
  1 31  1  0
  1 32  1  0
  1 33  1  0
  4 34  1  0
  5 35  1  0
  9 36  1  0
 10 37  1  0
 11 38  1  0
 12 39  1  0
 18 40  1  0
 19 41  1  0
 20 42  1  0
 26 43  1  0
 26 44  1  0
 26 45  1  0
 27 46  1  0
 27 47  1  0
 27 48  1  0
 28 49  1  0
 29 50  1  0
 30 51  1  0
M  CHG  2   9   1  16  -1
M  END
>  <UniqueID>  (75) 
70

>  <SMILES>  (75) 
COc1ccc(Oc2[nH+]cccc2C(=O)[N-]c2cccc(S(=O)(=O)N(C)C)c2)cc1

>  <Energy>  (75) 
62.11798718104962

>  <Genealogy>  (75) 
COc1ccc(Oc2[nH+]cccc2C(=O)[N-]c2cccc(S(=O)(=O)N(C)C)c2)cc1 (protonated)
COc1ccc(Oc2[nH+]cccc2C(=O)[N-]c2cccc(S(=O)(=O)N(C)C)c2)cc1 (3D coordinates assigned)
COc1ccc(Oc2[nH+]cccc2C(=O)[N-]c2cccc(S(=O)(=O)N(C)C)c2)cc1 (optimized conformer: 62.11798718104962 kcal/mol)

>  <smiles>  (75) 
COc1ccc(Oc2ncccc2C(=O)Nc2cccc(S(=O)(=O)N(C)C)c2)cc1

>  <score_type>  (75) 
oracle

>  <origin>  (75) 
adg

>  <m_score__min__energy>  (75) 
-9.2599999999999998

>  <m_primary>  (75) 
energy

$$$$
75:0
     RDKit          3D

 36 38  0  0  0  0  0  0  0  0999 V2000
   64.3420   31.4590   50.1740 N   0  0  0  0  0  0  0  0  0  0  0  0
   63.7190   32.0630   49.4080 C   0  0  0  0  0  0  0  0  0  0  0  0
   62.9450   32.8120   48.4580 C   0  0  0  0  0  0  0  0  0  0  0  0
   63.2070   32.9030   47.0980 C   0  0  0  0  0  0  0  0  0  0  0  0
   62.2820   33.7030   46.4160 C   0  0  0  0  0  0  0  0  0  0  0  0
   61.3060   34.2290   47.2500 C   0  0  0  0  0  0  0  0  0  0  0  0
   59.9570   35.2850   46.7330 S   0  0  0  0  0  0  0  0  0  0  0  0
   58.9910   33.9010   46.1300 C   0  0  0  0  0  0  0  0  0  0  0  0
   59.0570   32.6630   46.7780 C   0  0  0  0  0  0  0  0  0  0  0  0
   58.2980   31.5870   46.3130 C   0  0  0  0  0  0  0  0  0  0  0  0
   57.4780   31.7300   45.1850 C   0  0  0  0  0  0  0  0  0  0  0  0
   56.6970   30.6050   44.7550 N   0  0  0  0  0  0  0  0  0  0  0  0
   57.1120   29.2340   44.7320 C   0  0  0  0  0  0  0  0  0  0  0  0
   58.0770   28.8710   44.0050 O   0  0  0  0  0  0  0  0  0  0  0  0
   56.4220   28.2830   45.5540 N   0  0  0  0  0  0  0  0  0  0  0  0
   56.8600   26.9290   45.7640 C   0  0  0  0  0  0  0  0  0  0  0  0
   58.2280   26.6020   45.8010 C   0  0  0  0  0  0  0  0  0  0  0  0
   58.6340   25.2840   46.0320 C   0  0  0  0  0  0  0  0  0  0  0  0
   57.6820   24.2850   46.2400 C   0  0  0  0  0  0  0  0  0  0  0  0
   56.3220   24.6010   46.2260 C   0  0  0  0  0  0  0  0  0  0  0  0
   55.9090   25.9190   45.9970 C   0  0  0  0  0  0  0  0  0  0  0  0
   54.5840   26.2080   45.9850 F   0  0  0  0  0  0  0  0  0  0  0  0
   57.3980   32.9830   44.5490 C   0  0  0  0  0  0  0  0  0  0  0  0
   58.1590   34.0600   45.0160 C   0  0  0  0  0  0  0  0  0  0  0  0
   61.5750   33.7140   48.8280 S   0  0  0  0  0  0  0  0  0  0  0  0
   64.0529   32.3993   46.6072 H   0  0  0  0  0  0  0  0  0  0  0  0
   62.3247   33.8942   45.3336 H   0  0  0  0  0  0  0  0  0  0  0  0
   59.7081   32.5368   47.6556 H   0  0  0  0  0  0  0  0  0  0  0  0
   58.3439   30.6202   46.8356 H   0  0  0  0  0  0  0  0  0  0  0  0
   55.5020   28.5750   45.9530 H   0  0  0  0  0  0  0  0  0  0  0  0
   58.9824   27.3876   45.6473 H   0  0  0  0  0  0  0  0  0  0  0  0
   59.7051   25.0343   46.0498 H   0  0  0  0  0  0  0  0  0  0  0  0
   58.0033   23.2477   46.4151 H   0  0  0  0  0  0  0  0  0  0  0  0
   55.5736   23.8128   46.3952 H   0  0  0  0  0  0  0  0  0  0  0  0
   56.7347   33.1159   43.6816 H   0  0  0  0  0  0  0  0  0  0  0  0
   58.1033   35.0334   44.5067 H   0  0  0  0  0  0  0  0  0  0  0  0
  1  2  3  0
  2  3  1  0
  3  4  2  0
  4  5  1  0
  5  6  2  0
  6  7  1  0
  7  8  1  0
  8  9  2  0
  9 10  1  0
 10 11  2  0
 11 12  1  0
 12 13  1  0
 13 14  2  0
 13 15  1  0
 15 16  1  0
 16 17  2  0
 17 18  1  0
 18 19  2  0
 19 20  1  0
 20 21  2  0
 21 22  1  0
 11 23  1  0
 23 24  2  0
  6 25  1  0
 25  3  1  0
 24  8  1  0
 21 16  1  0
  4 26  1  0
  5 27  1  0
  9 28  1  0
 10 29  1  0
 15 30  1  0
 17 31  1  0
 18 32  1  0
 19 33  1  0
 20 34  1  0
 23 35  1  0
 24 36  1  0
M  CHG  1  12  -1
M  END
>  <UniqueID>  (76) 
71

>  <SMILES>  (76) 
N#Cc1ccc(Sc2ccc([N-]C(=O)Nc3ccccc3F)cc2)s1

>  <Energy>  (76) 
67.13529832304675

>  <Genealogy>  (76) 
N#Cc1ccc(Sc2ccc([N-]C(=O)Nc3ccccc3F)cc2)s1 (protonated)
N#Cc1ccc(Sc2ccc([N-]C(=O)Nc3ccccc3F)cc2)s1 (3D coordinates assigned)
N#Cc1ccc(Sc2ccc([N-]C(=O)Nc3ccccc3F)cc2)s1 (optimized conformer: 67.13529832304675 kcal/mol)

>  <smiles>  (76) 
N#Cc1ccc(Sc2ccc(NC(=O)Nc3ccccc3F)cc2)s1

>  <score_type>  (76) 
oracle

>  <origin>  (76) 
adg

>  <m_score__min__energy>  (76) 
-10.210000000000001

>  <m_primary>  (76) 
energy

$$$$
76:0
     RDKit          3D

 47 51  0  0  0  0  0  0  0  0999 V2000
   59.2890   34.4900   50.3770 O   0  0  0  0  0  0  0  0  0  0  0  0
   60.0080   33.6490   50.9840 C   0  0  0  0  0  0  0  0  0  0  0  0
   60.6620   32.6040   50.2420 N   0  0  0  0  0  0  0  0  0  0  0  0
   60.2290   32.1550   48.9460 C   0  0  0  0  0  0  0  0  0  0  0  0
   61.1540   31.5540   48.0790 C   0  0  0  0  0  0  0  0  0  0  0  0
   60.7530   31.0900   46.8240 C   0  0  0  0  0  0  0  0  0  0  0  0
   59.4170   31.2310   46.4130 C   0  0  0  0  0  0  0  0  0  0  0  0
   58.9690   30.7040   45.1540 N   0  0  0  0  0  0  0  0  0  0  0  0
   57.8060   30.1870   44.8590 C   0  0  0  0  0  0  0  0  0  0  0  0
   56.8060   30.9810   44.2590 C   0  0  0  0  0  0  0  0  0  0  0  0
   55.5170   30.4870   44.1070 C   0  0  0  0  0  0  0  0  0  0  0  0
   55.2040   29.2600   44.5780 N   0  0  0  0  0  0  0  0  0  0  0  0
   56.1250   28.4490   45.1540 C   0  0  0  0  0  0  0  0  0  0  0  0
   55.7110   27.2610   45.6550 N   0  0  0  0  0  0  0  0  0  0  0  0
   56.5490   26.3890   46.2570 C   0  0  0  0  0  0  0  0  0  0  0  0
   56.0790   25.3170   46.7260 O   0  0  0  0  0  0  0  0  0  0  0  0
   57.9220   26.6710   46.3320 C   0  0  0  0  0  0  0  0  0  0  0  0
   58.8060   25.7410   46.9150 C   0  0  0  0  0  0  0  0  0  0  0  0
   60.1780   25.9710   46.9080 C   0  0  0  0  0  0  0  0  0  0  0  0
   60.6880   27.1060   46.2930 C   0  0  0  0  0  0  0  0  0  0  0  0
   59.8300   28.0450   45.7190 C   0  0  0  0  0  0  0  0  0  0  0  0
   58.4210   27.8870   45.7780 C   0  0  0  0  0  0  0  0  0  0  0  0
   57.4870   28.8480   45.2570 C   0  0  0  0  0  0  0  0  0  0  0  0
   58.4800   31.7760   47.2970 C   0  0  0  0  0  0  0  0  0  0  0  0
   58.8810   32.2420   48.5520 C   0  0  0  0  0  0  0  0  0  0  0  0
   60.2070   33.7810   52.4470 C   0  0  0  0  0  0  0  0  0  0  0  0
   59.1630   34.2540   53.2640 C   0  0  0  0  0  0  0  0  0  0  0  0
   59.3420   34.3770   54.6460 C   0  0  0  0  0  0  0  0  0  0  0  0
   60.5610   34.0210   55.2280 C   0  0  0  0  0  0  0  0  0  0  0  0
   61.6020   33.5390   54.4310 C   0  0  0  0  0  0  0  0  0  0  0  0
   62.8110   33.1780   55.0130 O   0  0  0  0  0  0  0  0  0  0  0  0
   61.4280   33.4170   53.0480 C   0  0  0  0  0  0  0  0  0  0  0  0
   61.5660   32.2320   50.6110 H   0  0  0  0  0  0  0  0  0  0  0  0
   62.2037   31.4473   48.3901 H   0  0  0  0  0  0  0  0  0  0  0  0
   61.4851   30.6130   46.1558 H   0  0  0  0  0  0  0  0  0  0  0  0
   57.0483   31.9957   43.9101 H   0  0  0  0  0  0  0  0  0  0  0  0
   54.7509   31.0947   43.6032 H   0  0  0  0  0  0  0  0  0  0  0  0
   58.4082   24.8265   47.3790 H   0  0  0  0  0  0  0  0  0  0  0  0
   60.8585   25.2535   47.3898 H   0  0  0  0  0  0  0  0  0  0  0  0
   61.7757   27.2664   46.2578 H   0  0  0  0  0  0  0  0  0  0  0  0
   60.2538   28.9240   45.2113 H   0  0  0  0  0  0  0  0  0  0  0  0
   57.4219   31.8381   47.0028 H   0  0  0  0  0  0  0  0  0  0  0  0
   58.1386   32.6793   49.2358 H   0  0  0  0  0  0  0  0  0  0  0  0
   58.1986   34.5292   52.8122 H   0  0  0  0  0  0  0  0  0  0  0  0
   58.5222   34.7544   55.2749 H   0  0  0  0  0  0  0  0  0  0  0  0
   60.7012   34.1203   56.3145 H   0  0  0  0  0  0  0  0  0  0  0  0
   62.2503   33.0342   52.4257 H   0  0  0  0  0  0  0  0  0  0  0  0
  1  2  2  0
  2  3  1  0
  3  4  1  0
  4  5  2  0
  5  6  1  0
  6  7  2  0
  7  8  1  0
  8  9  2  3
  9 10  1  0
 10 11  2  0
 11 12  1  0
 12 13  1  0
 13 14  1  0
 14 15  1  0
 15 16  2  0
 15 17  1  0
 17 18  2  0
 18 19  1  0
 19 20  2  0
 20 21  1  0
 21 22  2  0
 22 23  1  0
  7 24  1  0
 24 25  2  0
  2 26  1  0
 26 27  2  0
 27 28  1  0
 28 29  2  0
 29 30  1  0
 30 31  1  0
 30 32  2  0
 25  4  1  0
 32 26  1  0
 23  9  1  0
 23 13  2  0
 22 17  1  0
  3 33  1  0
  5 34  1  0
  6 35  1  0
 10 36  1  0
 11 37  1  0
 18 38  1  0
 19 39  1  0
 20 40  1  0
 21 41  1  0
 24 42  1  0
 25 43  1  0
 27 44  1  0
 28 45  1  0
 29 46  1  0
 32 47  1  0
M  CHG  3  12  -1  14  -1  31  -1
M  END
>  <UniqueID>  (77) 
72

>  <SMILES>  (77) 
O=C(Nc1ccc(N=c2cc[n-]c3[n-]c(=O)c4ccccc4c23)cc1)c1cccc([O-])c1

>  <Energy>  (77) 
90.79155962841268

>  <Genealogy>  (77) 
O=C(Nc1ccc(N=c2cc[n-]c3[n-]c(=O)c4ccccc4c23)cc1)c1cccc([O-])c1 (protonated)
O=C(Nc1ccc(N=c2cc[n-]c3[n-]c(=O)c4ccccc4c23)cc1)c1cccc([O-])c1 (3D coordinates assigned)
O=C(Nc1ccc(N=c2cc[n-]c3[n-]c(=O)c4ccccc4c23)cc1)c1cccc([O-])c1 (optimized conformer: 90.79155962841268 kcal/mol)

>  <smiles>  (77) 
O=C(Nc1ccc(N=c2cc[nH]c3[nH]c(=O)c4ccccc4c23)cc1)c1cccc(O)c1

>  <score_type>  (77) 
oracle

>  <origin>  (77) 
adg

>  <m_score__min__energy>  (77) 
-14.039999999999999

>  <m_primary>  (77) 
energy

$$$$
77:0
     RDKit          3D

 41 42  0  0  0  0  0  0  0  0999 V2000
   54.5270   25.0500   45.5730 C   0  0  0  0  0  0  0  0  0  0  0  0
   54.9680   26.3380   45.9920 O   0  0  0  0  0  0  0  0  0  0  0  0
   56.3070   26.7600   45.9980 C   0  0  0  0  0  0  0  0  0  0  0  0
   57.3300   25.9670   46.5550 C   0  0  0  0  0  0  0  0  0  0  0  0
   58.6430   26.4400   46.6080 C   0  0  0  0  0  0  0  0  0  0  0  0
   58.9510   27.7090   46.1150 C   0  0  0  0  0  0  0  0  0  0  0  0
   57.9480   28.5010   45.5530 C   0  0  0  0  0  0  0  0  0  0  0  0
   56.6340   28.0260   45.4610 C   0  0  0  0  0  0  0  0  0  0  0  0
   55.6400   28.8790   44.8770 N   0  0  0  0  0  0  0  0  0  0  0  0
   55.9060   30.0860   44.1530 C   0  0  0  0  0  0  0  0  0  0  0  0
   55.8500   30.1010   42.8940 O   0  0  0  0  0  0  0  0  0  0  0  0
   56.2820   31.2750   44.8480 N   0  0  0  0  0  0  0  0  0  0  0  0
   57.6630   31.7390   44.9290 C   0  0  0  0  0  0  0  0  0  0  0  0
   57.8870   32.5620   46.2190 C   0  0  1  0  0  0  0  0  0  0  0  0
   59.1410   32.0580   46.8970 C   0  0  0  0  0  0  0  0  0  0  0  0
   60.0080   31.0980   46.3910 C   0  0  0  0  0  0  0  0  0  0  0  0
   61.1030   30.8480   47.2270 C   0  0  0  0  0  0  0  0  0  0  0  0
   61.1060   31.6130   48.3870 C   0  0  0  0  0  0  0  0  0  0  0  0
   59.7450   32.6000   48.3730 S   0  0  0  0  0  0  0  0  0  0  0  0
   58.0070   34.0240   45.9490 N   0  0  0  0  0  0  0  0  0  0  0  0
   57.0800   34.4340   44.8740 C   0  0  0  0  0  0  0  0  0  0  0  0
   59.3770   34.4060   45.5520 C   0  0  0  0  0  0  0  0  0  0  0  0
   54.3147   24.4298   46.4564 H   0  0  0  0  0  0  0  0  0  0  0  0
   53.6132   25.1537   44.9695 H   0  0  0  0  0  0  0  0  0  0  0  0
   55.3126   24.5718   44.9695 H   0  0  0  0  0  0  0  0  0  0  0  0
   57.0928   24.9685   46.9508 H   0  0  0  0  0  0  0  0  0  0  0  0
   59.4360   25.8112   47.0391 H   0  0  0  0  0  0  0  0  0  0  0  0
   59.9834   28.0848   46.1693 H   0  0  0  0  0  0  0  0  0  0  0  0
   58.1920   29.5064   45.1794 H   0  0  0  0  0  0  0  0  0  0  0  0
   58.3367   30.8694   44.9336 H   0  0  0  0  0  0  0  0  0  0  0  0
   57.8731   32.3791   44.0595 H   0  0  0  0  0  0  0  0  0  0  0  0
   57.0095   32.4305   46.8692 H   0  0  0  0  0  0  0  0  0  0  0  0
   59.8503   30.5858   45.4304 H   0  0  0  0  0  0  0  0  0  0  0  0
   61.8873   30.1148   46.9879 H   0  0  0  0  0  0  0  0  0  0  0  0
   61.8685   31.5787   49.1791 H   0  0  0  0  0  0  0  0  0  0  0  0
   56.1599   34.8410   45.3187 H   0  0  0  0  0  0  0  0  0  0  0  0
   57.5583   35.2045   44.2515 H   0  0  0  0  0  0  0  0  0  0  0  0
   56.8317   33.5617   44.2515 H   0  0  0  0  0  0  0  0  0  0  0  0
   59.9858   34.5757   46.4523 H   0  0  0  0  0  0  0  0  0  0  0  0
   59.8241   33.5983   44.9540 H   0  0  0  0  0  0  0  0  0  0  0  0
   59.3417   35.3286   44.9540 H   0  0  0  0  0  0  0  0  0  0  0  0
  1  2  1  0
  2  3  1  0
  3  4  2  0
  4  5  1  0
  5  6  2  0
  6  7  1  0
  7  8  2  0
  8  9  1  0
  9 10  1  0
 10 11  2  0
 10 12  1  0
 12 13  1  0
 13 14  1  0
 14 15  1  0
 15 16  2  0
 16 17  1  0
 17 18  2  0
 18 19  1  0
 14 20  1  0
 20 21  1  0
 20 22  1  0
  8  3  1  0
 19 15  1  0
  1 23  1  0
  1 24  1  0
  1 25  1  0
  4 26  1  0
  5 27  1  0
  6 28  1  0
  7 29  1  0
 13 30  1  0
 13 31  1  0
 14 32  1  1
 16 33  1  0
 17 34  1  0
 18 35  1  0
 21 36  1  0
 21 37  1  0
 21 38  1  0
 22 39  1  0
 22 40  1  0
 22 41  1  0
M  CHG  2   9  -1  12  -1
M  END
>  <UniqueID>  (78) 
73

>  <SMILES>  (78) 
COc1ccccc1[N-]C(=O)[N-]C[C@@H](c1cccs1)N(C)C

>  <Energy>  (78) 
71.52308480585475

>  <Genealogy>  (78) 
COc1ccccc1[N-]C(=O)[N-]CC(c1cccs1)N(C)C (protonated)
COc1ccccc1[N-]C(=O)[N-]C[C@@H](c1cccs1)N(C)C (chirality)
COc1ccccc1[N-]C(=O)[N-]C[C@@H](c1cccs1)N(C)C (3D coordinates assigned)
COc1ccccc1[N-]C(=O)[N-]C[C@@H](c1cccs1)N(C)C (optimized conformer: 71.52308480585475 kcal/mol)

>  <smiles>  (78) 
COc1ccccc1NC(=O)NCC(c1cccs1)N(C)C

>  <score_type>  (78) 
oracle

>  <origin>  (78) 
adg

>  <m_score__min__energy>  (78) 
-10.970000000000001

>  <m_primary>  (78) 
energy

$$$$
78:0
     RDKit          3D

 61 65  0  0  0  0  0  0  0  0999 V2000
   56.2830   22.5840   41.6890 H   0  0  0  0  0  0  0  0  0  0  0  0
   55.8940   22.1080   42.4680 O   0  0  0  0  0  0  0  0  0  0  0  0
   56.6870   22.4480   43.5730 C   0  0  0  0  0  0  0  0  0  0  0  0
   57.7206   22.6224   43.2394 H   0  0  0  0  0  0  0  0  0  0  0  0
   56.6633   21.6237   44.3010 H   0  0  0  0  0  0  0  0  0  0  0  0
   56.1470   23.7190   44.2360 C   0  0  0  0  0  0  0  0  0  0  0  0
   55.5605   24.2829   43.4957 H   0  0  0  0  0  0  0  0  0  0  0  0
   57.0066   24.3037   44.5954 H   0  0  0  0  0  0  0  0  0  0  0  0
   55.2490   23.4070   45.4460 C   0  0  0  0  0  0  0  0  0  0  0  0
   55.6151   22.4938   45.9381 H   0  0  0  0  0  0  0  0  0  0  0  0
   54.2183   23.2690   45.0874 H   0  0  0  0  0  0  0  0  0  0  0  0
   55.2590   24.5070   46.4130 N   0  0  0  0  0  0  0  0  0  0  0  0
   55.9990   25.5810   46.3710 C   0  0  0  0  0  0  0  0  0  0  0  0
   55.5150   26.6810   45.7320 N   0  0  0  0  0  0  0  0  0  0  0  0
   56.2670   27.8050   45.6200 C   0  0  0  0  0  0  0  0  0  0  0  0
   55.7710   28.8590   45.0410 N   0  0  0  0  0  0  0  0  0  0  0  0
   56.5500   29.9270   44.4730 C   0  0  0  0  0  0  0  0  0  0  0  0
   56.4730   30.2390   43.1030 C   0  0  0  0  0  0  0  0  0  0  0  0
   55.7987   29.6677   42.4481 H   0  0  0  0  0  0  0  0  0  0  0  0
   57.2500   31.2720   42.5710 C   0  0  0  0  0  0  0  0  0  0  0  0
   57.1943   31.5017   41.4967 H   0  0  0  0  0  0  0  0  0  0  0  0
   58.0960   32.0130   43.3970 C   0  0  0  0  0  0  0  0  0  0  0  0
   58.7090   32.8217   42.9725 H   0  0  0  0  0  0  0  0  0  0  0  0
   58.1650   31.7270   44.7680 C   0  0  0  0  0  0  0  0  0  0  0  0
   59.0160   32.5000   45.6170 N   0  0  0  0  0  0  0  0  0  0  0  0
   59.9830   32.1740   45.8480 H   0  0  0  0  0  0  0  0  0  0  0  0
   58.6980   33.4210   45.9970 H   0  0  0  0  0  0  0  0  0  0  0  0
   57.3830   30.6900   45.3020 C   0  0  0  0  0  0  0  0  0  0  0  0
   57.4247   30.4749   46.3800 H   0  0  0  0  0  0  0  0  0  0  0  0
   57.5120   27.8270   46.1560 N   0  0  0  0  0  0  0  0  0  0  0  0
   58.0120   26.7450   46.8080 C   0  0  0  0  0  0  0  0  0  0  0  0
   59.1990   26.7880   47.3420 N   0  0  0  0  0  0  0  0  0  0  0  0
   59.7650   27.9750   47.9130 C   0  0  0  0  0  0  0  0  0  0  0  0
   60.2400   27.9560   49.2300 C   0  0  0  0  0  0  0  0  0  0  0  0
   60.2239   27.0199   49.8074 H   0  0  0  0  0  0  0  0  0  0  0  0
   60.7350   29.1280   49.8110 C   0  0  0  0  0  0  0  0  0  0  0  0
   61.0939   29.1157   50.8507 H   0  0  0  0  0  0  0  0  0  0  0  0
   60.7750   30.3210   49.0700 C   0  0  0  0  0  0  0  0  0  0  0  0
   61.2990   31.5220   49.6510 N   0  0  0  0  0  0  0  0  0  0  0  0
   62.3330   32.2340   49.2810 C   0  0  0  0  0  0  0  0  0  0  0  0
   62.1470   33.0560   48.1590 C   0  0  0  0  0  0  0  0  0  0  0  0
   61.1362   33.2062   47.7519 H   0  0  0  0  0  0  0  0  0  0  0  0
   63.2370   33.6830   47.5580 C   0  0  0  0  0  0  0  0  0  0  0  0
   63.0874   34.2995   46.6593 H   0  0  0  0  0  0  0  0  0  0  0  0
   64.4820   33.5360   48.0770 N   0  0  0  0  0  0  0  0  0  0  0  0
   64.7070   32.8320   49.2160 C   0  0  0  0  0  0  0  0  0  0  0  0
   66.0060   32.7840   49.7420 C   0  0  0  0  0  0  0  0  0  0  0  0
   66.8406   33.2294   49.1807 H   0  0  0  0  0  0  0  0  0  0  0  0
   66.2450   32.1740   50.9740 C   0  0  0  0  0  0  0  0  0  0  0  0
   67.8760   32.1520   51.6330 Cl  0  0  0  0  0  0  0  0  0  0  0  0
   65.1830   31.6350   51.7010 C   0  0  0  0  0  0  0  0  0  0  0  0
   65.3679   31.1871   52.6885 H   0  0  0  0  0  0  0  0  0  0  0  0
   63.8840   31.6610   51.1810 C   0  0  0  0  0  0  0  0  0  0  0  0
   63.0514   31.2615   51.7787 H   0  0  0  0  0  0  0  0  0  0  0  0
   63.6280   32.1960   49.8930 C   0  0  0  0  0  0  0  0  0  0  0  0
   60.3730   30.3190   47.7290 C   0  0  0  0  0  0  0  0  0  0  0  0
   60.4608   31.2353   47.1267 H   0  0  0  0  0  0  0  0  0  0  0  0
   59.8600   29.1520   47.1560 C   0  0  0  0  0  0  0  0  0  0  0  0
   59.5293   29.1566   46.1069 H   0  0  0  0  0  0  0  0  0  0  0  0
   57.2490   25.6250   46.9300 N   0  0  0  0  0  0  0  0  0  0  0  0
   57.6500   24.8060   47.4430 H   0  0  0  0  0  0  0  0  0  0  0  0
  1  2  1  0
  2  3  1  0
  3  4  1  0
  3  5  1  0
  3  6  1  0
  6  7  1  0
  6  8  1  0
  6  9  1  0
  9 10  1  0
  9 11  1  0
  9 12  1  0
 12 13  2  0
 13 14  1  0
 14 15  1  0
 15 16  2  3
 16 17  1  0
 17 18  2  0
 18 19  1  0
 18 20  1  0
 20 21  1  0
 20 22  2  0
 22 23  1  0
 22 24  1  0
 24 25  1  0
 25 26  1  0
 25 27  1  0
 24 28  2  0
 28 29  1  0
 15 30  1  0
 30 31  1  0
 31 32  2  0
 32 33  1  0
 33 34  2  0
 34 35  1  0
 34 36  1  0
 36 37  1  0
 36 38  2  0
 38 39  1  0
 39 40  2  3
 40 41  1  0
 41 42  1  0
 41 43  2  0
 43 44  1  0
 43 45  1  0
 45 46  1  0
 46 47  2  0
 47 48  1  0
 47 49  1  0
 49 50  1  0
 49 51  2  0
 51 52  1  0
 51 53  1  0
 53 54  1  0
 53 55  2  0
 38 56  1  0
 56 57  1  0
 56 58  2  0
 58 59  1  0
 31 60  1  0
 60 61  1  0
 60 13  1  0
 28 17  1  0
 58 33  1  0
 55 40  1  0
 55 46  1  0
M  CHG  3  14  -1  30  -1  45  -1
M  END
>  <UniqueID>  (79) 
74

>  <SMILES>  (79) 
Nc1cccc(N=c2[n-]/c(=N/CCCO)[nH]/c(=N/c3ccc(N=c4cc[n-]c5cc(Cl)ccc45)cc3)[n-]2)c1

>  <Energy>  (79) 
98.15327004829942

>  <Genealogy>  (79) 
Nc1cccc(N=c2[n-]c(=NCCCO)[nH]c(=Nc3ccc(N=c4cc[n-]c5cc(Cl)ccc45)cc3)[n-]2)c1 (protonated)
Nc1cccc(N=c2[n-]/c(=N/CCCO)[nH]/c(=N/c3ccc(N=c4cc[n-]c5cc(Cl)ccc45)cc3)[n-]2)c1 (cis-trans isomerization)
Nc1cccc(N=c2[n-]/c(=N/CCCO)[nH]/c(=N/c3ccc(N=c4cc[n-]c5cc(Cl)ccc45)cc3)[n-]2)c1 (3D coordinates assigned)
Nc1cccc(N=c2[n-]/c(=N/CCCO)[nH]/c(=N/c3ccc(N=c4cc[n-]c5cc(Cl)ccc45)cc3)[n-]2)c1 (optimized conformer: 98.15327004829942 kcal/mol)

>  <smiles>  (79) 
Nc1cccc(N=c2[nH]c(=NCCCO)[nH]c(=Nc3ccc(N=c4cc[nH]c5cc(Cl)ccc45)cc3)[nH]2)c1

>  <score_type>  (79) 
oracle

>  <origin>  (79) 
adg

>  <m_score__min__energy>  (79) 
-13.4

>  <m_primary>  (79) 
energy

$$$$
79:0
     RDKit          3D

 51 54  0  0  0  0  0  0  0  0999 V2000
   60.9100   33.5140   49.8900 H   0  0  0  0  0  0  0  0  0  0  0  0
   59.9770   33.9050   49.8900 O   0  0  0  0  0  0  0  0  0  0  0  0
   58.9250   33.1780   49.3810 N   0  0  0  0  0  0  0  0  0  0  0  0
   59.0080   32.5450   48.2520 C   0  0  0  0  0  0  0  0  0  0  0  0
   59.4190   31.1200   48.2380 C   0  0  0  0  0  0  0  0  0  0  0  0
   60.2670   30.5850   49.2260 C   0  0  0  0  0  0  0  0  0  0  0  0
   60.7210   31.3900   50.2800 O   0  0  0  0  0  0  0  0  0  0  0  0
   62.0970   31.5420   50.6180 C   0  0  0  0  0  0  0  0  0  0  0  0
   62.5420   30.5493   50.7808 H   0  0  0  0  0  0  0  0  0  0  0  0
   62.1747   32.1460   51.5340 H   0  0  0  0  0  0  0  0  0  0  0  0
   62.8310   32.2360   49.5160 C   0  0  0  0  0  0  0  0  0  0  0  0
   62.2790   32.6920   48.4200 O   0  0  0  0  0  0  0  0  0  0  0  0
   63.2500   33.1920   47.6920 C   0  0  0  0  0  0  0  0  0  0  0  0
   63.0370   33.8370   46.3640 C   0  0  0  0  0  0  0  0  0  0  0  0
   62.6951   34.8723   46.5098 H   0  0  0  0  0  0  0  0  0  0  0  0
   63.9823   33.8388   45.8014 H   0  0  0  0  0  0  0  0  0  0  0  0
   62.2766   33.2755   45.8014 H   0  0  0  0  0  0  0  0  0  0  0  0
   64.4600   33.0900   48.2830 N   0  0  0  0  0  0  0  0  0  0  0  0
   64.1860   32.4720   49.4490 C   0  0  0  0  0  0  0  0  0  0  0  0
   64.9228   32.2010   50.2195 H   0  0  0  0  0  0  0  0  0  0  0  0
   60.6320   29.2740   49.1630 N   0  0  0  0  0  0  0  0  0  0  0  0
   60.2040   28.4350   48.1820 C   0  0  0  0  0  0  0  0  0  0  0  0
   60.6810   27.0120   48.2070 C   0  0  0  0  0  0  0  0  0  0  0  0
   60.7920   26.6808   49.2501 H   0  0  0  0  0  0  0  0  0  0  0  0
   59.9487   26.3707   47.6946 H   0  0  0  0  0  0  0  0  0  0  0  0
   61.6518   26.9417   47.6946 H   0  0  0  0  0  0  0  0  0  0  0  0
   59.3290   28.9200   47.1880 C   0  0  0  0  0  0  0  0  0  0  0  0
   58.7990   28.0570   46.1080 C   0  0  0  0  0  0  0  0  0  0  0  0
   57.9570   26.9740   46.4100 C   0  0  0  0  0  0  0  0  0  0  0  0
   57.6962   26.7574   47.4565 H   0  0  0  0  0  0  0  0  0  0  0  0
   57.4490   26.1700   45.3840 C   0  0  0  0  0  0  0  0  0  0  0  0
   56.7962   25.3182   45.6254 H   0  0  0  0  0  0  0  0  0  0  0  0
   57.7700   26.4480   44.0530 C   0  0  0  0  0  0  0  0  0  0  0  0
   57.3724   25.8133   43.2474 H   0  0  0  0  0  0  0  0  0  0  0  0
   58.5960   27.5320   43.7450 C   0  0  0  0  0  0  0  0  0  0  0  0
   58.8446   27.7523   42.6963 H   0  0  0  0  0  0  0  0  0  0  0  0
   59.1070   28.3370   44.7670 C   0  0  0  0  0  0  0  0  0  0  0  0
   59.7526   29.1927   44.5199 H   0  0  0  0  0  0  0  0  0  0  0  0
   58.9600   30.2730   47.2190 C   0  0  0  0  0  0  0  0  0  0  0  0
   58.3023   30.6746   46.4341 H   0  0  0  0  0  0  0  0  0  0  0  0
   58.7240   33.2240   47.0170 N   0  0  0  0  0  0  0  0  0  0  0  0
   59.4850   34.3610   46.5190 C   0  0  0  0  0  0  0  0  0  0  0  0
   59.3047   35.2556   47.1332 H   0  0  0  0  0  0  0  0  0  0  0  0
   60.5724   34.1973   46.5468 H   0  0  0  0  0  0  0  0  0  0  0  0
   58.9580   34.5460   45.1390 C   0  0  0  0  0  0  0  0  0  0  0  0
   59.2995   35.3259   44.4425 H   0  0  0  0  0  0  0  0  0  0  0  0
   58.0210   33.6460   44.8580 C   0  0  0  0  0  0  0  0  0  0  0  0
   57.4825   33.5866   43.9007 H   0  0  0  0  0  0  0  0  0  0  0  0
   57.7960   32.7290   46.0090 C   0  0  0  0  0  0  0  0  0  0  0  0
   56.7571   32.7910   46.3652 H   0  0  0  0  0  0  0  0  0  0  0  0
   57.9593   31.6712   45.7554 H   0  0  0  0  0  0  0  0  0  0  0  0
  1  2  1  0
  2  3  1  0
  3  4  2  0
  4  5  1  0
  5  6  1  0
  6  7  1  0
  7  8  1  0
  8  9  1  0
  8 10  1  0
  8 11  1  0
 11 12  1  0
 12 13  1  0
 13 14  1  0
 14 15  1  0
 14 16  1  0
 14 17  1  0
 13 18  2  0
 18 19  1  0
 19 20  1  0
  6 21  2  0
 21 22  1  0
 22 23  1  0
 23 24  1  0
 23 25  1  0
 23 26  1  0
 22 27  2  0
 27 28  1  0
 28 29  2  0
 29 30  1  0
 29 31  1  0
 31 32  1  0
 31 33  2  0
 33 34  1  0
 33 35  1  0
 35 36  1  0
 35 37  2  0
 37 38  1  0
 27 39  1  0
 39 40  1  0
  4 41  1  0
 41 42  1  0
 42 43  1  0
 42 44  1  0
 42 45  1  0
 45 46  1  0
 45 47  2  0
 47 48  1  0
 47 49  1  0
 49 50  1  0
 49 51  1  0
 39  5  2  0
 49 41  1  0
 19 11  2  0
 37 28  1  0
M  END
>  <UniqueID>  (80) 
75

>  <SMILES>  (80) 
Cc1ncc(COc2nc(C)c(-c3ccccc3)cc2/C(=N/O)N2CC=CC2)o1

>  <Energy>  (80) 
99.33931590572065

>  <Genealogy>  (80) 
Cc1ncc(COc2nc(C)c(-c3ccccc3)cc2/C(=N/O)N2CC=CC2)o1 (cis-trans isomerization)
Cc1ncc(COc2nc(C)c(-c3ccccc3)cc2/C(=N/O)N2CC=CC2)o1 (3D coordinates assigned)
Cc1ncc(COc2nc(C)c(-c3ccccc3)cc2/C(=N/O)N2CC=CC2)o1 (nonaromatic ring conformer: 99.33931590572065 kcal/mol)

>  <smiles>  (80) 
Cc1ncc(COc2nc(C)c(-c3ccccc3)cc2C(=NO)N2CC=CC2)o1

>  <score_type>  (80) 
oracle

>  <origin>  (80) 
adg

>  <m_score__min__energy>  (80) 
-8.6099999999999994

>  <m_primary>  (80) 
energy

$$$$
80:0
     RDKit          3D

 32 34  0  0  0  0  0  0  0  0999 V2000
   56.2410   27.4890   44.8190 H   0  0  0  0  0  0  0  0  0  0  0  0
   55.8930   28.3770   45.2440 N   0  0  0  0  0  0  0  0  0  0  0  0
   56.5460   29.4840   45.1080 C   0  0  0  0  0  0  0  0  0  0  0  0
   57.3580   29.9890   46.0610 N   0  0  0  0  0  0  0  0  0  0  0  0
   57.9230   31.1390   45.6960 N   0  0  0  0  0  0  0  0  0  0  0  0
   57.5570   31.5390   44.4580 C   0  0  0  0  0  0  0  0  0  0  0  0
   58.1460   33.0440   43.6910 S   0  0  0  0  0  0  0  0  0  0  0  0
   57.4830   34.1110   45.0090 C   0  0  0  0  0  0  0  0  0  0  0  0
   57.2486   35.1032   44.5959 H   0  0  0  0  0  0  0  0  0  0  0  0
   56.5669   33.6627   45.4210 H   0  0  0  0  0  0  0  0  0  0  0  0
   58.5040   34.2490   46.0910 C   0  0  0  0  0  0  0  0  0  0  0  0
   59.1940   35.3010   46.1650 O   0  0  0  0  0  0  0  0  0  0  0  0
   58.6700   33.2020   47.0590 N   0  0  0  0  0  0  0  0  0  0  0  0
   58.2370   32.2710   46.8650 H   0  0  0  0  0  0  0  0  0  0  0  0
   59.6170   33.2970   48.1320 C   0  0  0  0  0  0  0  0  0  0  0  0
   59.1460   33.2200   49.4500 C   0  0  0  0  0  0  0  0  0  0  0  0
   58.0669   33.1184   49.6378 H   0  0  0  0  0  0  0  0  0  0  0  0
   60.0330   33.2710   50.5260 C   0  0  0  0  0  0  0  0  0  0  0  0
   59.6504   33.1988   51.5548 H   0  0  0  0  0  0  0  0  0  0  0  0
   61.4020   33.4130   50.3030 C   0  0  0  0  0  0  0  0  0  0  0  0
   62.0961   33.4373   51.1560 H   0  0  0  0  0  0  0  0  0  0  0  0
   61.8980   33.5250   48.9960 C   0  0  0  0  0  0  0  0  0  0  0  0
   63.2730   33.6940   48.7750 C   0  0  0  0  0  0  0  0  0  0  0  0
   63.9668   33.7131   49.6284 H   0  0  0  0  0  0  0  0  0  0  0  0
   63.7640   33.8380   47.4770 C   0  0  0  0  0  0  0  0  0  0  0  0
   64.8437   33.9652   47.3097 H   0  0  0  0  0  0  0  0  0  0  0  0
   62.8880   33.8210   46.3900 C   0  0  0  0  0  0  0  0  0  0  0  0
   63.2795   33.9428   45.3693 H   0  0  0  0  0  0  0  0  0  0  0  0
   61.5170   33.6500   46.5930 C   0  0  0  0  0  0  0  0  0  0  0  0
   60.8337   33.6480   45.7310 H   0  0  0  0  0  0  0  0  0  0  0  0
   61.0020   33.4800   47.8940 C   0  0  0  0  0  0  0  0  0  0  0  0
   56.4830   30.4570   43.7370 S   0  0  0  0  0  0  0  0  0  0  0  0
  1  2  1  0
  2  3  2  0
  3  4  1  0
  4  5  1  0
  5  6  2  0
  6  7  1  0
  7  8  1  0
  8  9  1  0
  8 10  1  0
  8 11  1  0
 11 12  2  0
 11 13  1  0
 13 14  1  0
 13 15  1  0
 15 16  2  0
 16 17  1  0
 16 18  1  0
 18 19  1  0
 18 20  2  0
 20 21  1  0
 20 22  1  0
 22 23  2  0
 23 24  1  0
 23 25  1  0
 25 26  1  0
 25 27  2  0
 27 28  1  0
 27 29  1  0
 29 30  1  0
 29 31  2  0
  6 32  1  0
 32  3  1  0
 31 15  1  0
 31 22  1  0
M  CHG  1   4  -1
M  END
>  <UniqueID>  (81) 
76

>  <SMILES>  (81) 
[H]/N=c1\[n-]nc(SCC(=O)Nc2cccc3ccccc23)s1

>  <Energy>  (81) 
73.38023561843634

>  <Genealogy>  (81) 
N=c1[n-]nc(SCC(=O)Nc2cccc3ccccc23)s1 (protonated)
[H]/N=c1\[n-]nc(SCC(=O)Nc2cccc3ccccc23)s1 (cis-trans isomerization)
[H]/N=c1\[n-]nc(SCC(=O)Nc2cccc3ccccc23)s1 (3D coordinates assigned)
[H]/N=c1\[n-]nc(SCC(=O)Nc2cccc3ccccc23)s1 (optimized conformer: 73.38023561843634 kcal/mol)

>  <smiles>  (81) 
N=c1[nH]nc(SCC(=O)Nc2cccc3ccccc23)s1

>  <score_type>  (81) 
oracle

>  <origin>  (81) 
adg

>  <m_score__min__energy>  (81) 
-10.130000000000001

>  <m_primary>  (81) 
energy

$$$$
81:0
     RDKit          3D

 50 52  0  0  0  0  0  0  0  0999 V2000
   57.6020   31.6180   51.9960 C   0  0  0  0  0  0  0  0  0  0  0  0
   58.1060   30.9170   50.7780 C   0  0  0  0  0  0  0  0  0  0  0  0
   58.0490   29.6590   50.7180 O   0  0  0  0  0  0  0  0  0  0  0  0
   58.7130   31.6760   49.7200 N   0  0  0  0  0  0  0  0  0  0  0  0
   59.0410   31.1450   48.4240 C   0  0  0  0  0  0  0  0  0  0  0  0
   60.0620   30.1900   48.3110 C   0  0  0  0  0  0  0  0  0  0  0  0
   60.4120   29.6720   47.0620 C   0  0  0  0  0  0  0  0  0  0  0  0
   59.7560   30.1130   45.9110 C   0  0  0  0  0  0  0  0  0  0  0  0
   58.7540   31.0890   45.9990 C   0  0  0  0  0  0  0  0  0  0  0  0
   58.0630   31.5320   44.8180 N   0  0  0  0  0  0  0  0  0  0  0  0
   58.4150   32.8130   44.2000 C   0  0  0  0  0  0  0  0  0  0  0  0
   57.9370   33.9350   45.0670 C   0  0  0  0  0  0  0  0  0  0  0  0
   56.7020   34.1190   45.2340 O   0  0  0  0  0  0  0  0  0  0  0  0
   58.8960   34.7690   45.7220 N   0  0  0  0  0  0  0  0  0  0  0  0
   59.9100   34.3320   46.6370 C   0  0  0  0  0  0  0  0  0  0  0  0
   61.1550   33.8490   46.1910 C   0  0  0  0  0  0  0  0  0  0  0  0
   62.1370   33.4830   47.1160 C   0  0  0  0  0  0  0  0  0  0  0  0
   61.8920   33.6060   48.4860 C   0  0  0  0  0  0  0  0  0  0  0  0
   60.6650   34.1040   48.9340 C   0  0  0  0  0  0  0  0  0  0  0  0
   60.4340   34.2380   50.2630 F   0  0  0  0  0  0  0  0  0  0  0  0
   59.6800   34.4690   48.0120 C   0  0  0  0  0  0  0  0  0  0  0  0
   56.9210   30.4830   44.0270 S   0  0  0  0  0  0  0  0  0  0  0  0
   55.5290   30.7870   44.5070 O   0  0  0  0  0  0  0  0  0  0  0  0
   56.9660   30.7210   42.5440 O   0  0  0  0  0  0  0  0  0  0  0  0
   57.3140   28.8000   44.3740 C   0  0  0  0  0  0  0  0  0  0  0  0
   57.0540   28.2670   45.6460 C   0  0  0  0  0  0  0  0  0  0  0  0
   57.3200   26.9210   45.9120 C   0  0  0  0  0  0  0  0  0  0  0  0
   57.8460   26.0990   44.9110 C   0  0  0  0  0  0  0  0  0  0  0  0
   58.1150   26.6270   43.6440 C   0  0  0  0  0  0  0  0  0  0  0  0
   57.8550   27.9750   43.3780 C   0  0  0  0  0  0  0  0  0  0  0  0
   58.4010   31.6020   47.2570 C   0  0  0  0  0  0  0  0  0  0  0  0
   57.9721   31.1032   52.8949 H   0  0  0  0  0  0  0  0  0  0  0  0
   57.9605   32.6579   51.9953 H   0  0  0  0  0  0  0  0  0  0  0  0
   56.5020   31.6094   51.9953 H   0  0  0  0  0  0  0  0  0  0  0  0
   59.0070   32.6540   49.9380 H   0  0  0  0  0  0  0  0  0  0  0  0
   60.5908   29.8466   49.2124 H   0  0  0  0  0  0  0  0  0  0  0  0
   61.2063   28.9149   46.9849 H   0  0  0  0  0  0  0  0  0  0  0  0
   60.0267   29.6927   44.9312 H   0  0  0  0  0  0  0  0  0  0  0  0
   59.5073   32.8773   44.0867 H   0  0  0  0  0  0  0  0  0  0  0  0
   57.9381   32.8857   43.2114 H   0  0  0  0  0  0  0  0  0  0  0  0
   61.3552   33.7595   45.1131 H   0  0  0  0  0  0  0  0  0  0  0  0
   63.1052   33.0971   46.7644 H   0  0  0  0  0  0  0  0  0  0  0  0
   62.6642   33.3111   49.2117 H   0  0  0  0  0  0  0  0  0  0  0  0
   58.7182   34.8663   48.3683 H   0  0  0  0  0  0  0  0  0  0  0  0
   56.6396   28.9106   46.4360 H   0  0  0  0  0  0  0  0  0  0  0  0
   57.1151   26.5077   46.9106 H   0  0  0  0  0  0  0  0  0  0  0  0
   58.0481   25.0380   45.1196 H   0  0  0  0  0  0  0  0  0  0  0  0
   58.5313   25.9816   42.8565 H   0  0  0  0  0  0  0  0  0  0  0  0
   58.0758   28.3897   42.3834 H   0  0  0  0  0  0  0  0  0  0  0  0
   57.6161   32.3691   47.3314 H   0  0  0  0  0  0  0  0  0  0  0  0
  1  2  1  0
  2  3  2  0
  2  4  1  0
  4  5  1  0
  5  6  2  0
  6  7  1  0
  7  8  2  0
  8  9  1  0
  9 10  1  0
 10 11  1  0
 11 12  1  0
 12 13  2  0
 12 14  1  0
 14 15  1  0
 15 16  2  0
 16 17  1  0
 17 18  2  0
 18 19  1  0
 19 20  1  0
 19 21  2  0
 10 22  1  0
 22 23  2  0
 22 24  2  0
 22 25  1  0
 25 26  2  0
 26 27  1  0
 27 28  2  0
 28 29  1  0
 29 30  2  0
  9 31  2  0
 31  5  1  0
 21 15  1  0
 30 25  1  0
  1 32  1  0
  1 33  1  0
  1 34  1  0
  4 35  1  0
  6 36  1  0
  7 37  1  0
  8 38  1  0
 11 39  1  0
 11 40  1  0
 16 41  1  0
 17 42  1  0
 18 43  1  0
 21 44  1  0
 26 45  1  0
 27 46  1  0
 28 47  1  0
 29 48  1  0
 30 49  1  0
 31 50  1  0
M  CHG  1  14  -1
M  END
>  <UniqueID>  (82) 
77

>  <SMILES>  (82) 
CC(=O)Nc1cccc(N(CC(=O)[N-]c2cccc(F)c2)S(=O)(=O)c2ccccc2)c1

>  <Energy>  (82) 
56.50871419666424

>  <Genealogy>  (82) 
CC(=O)Nc1cccc(N(CC(=O)[N-]c2cccc(F)c2)S(=O)(=O)c2ccccc2)c1 (protonated)
CC(=O)Nc1cccc(N(CC(=O)[N-]c2cccc(F)c2)S(=O)(=O)c2ccccc2)c1 (3D coordinates assigned)
CC(=O)Nc1cccc(N(CC(=O)[N-]c2cccc(F)c2)S(=O)(=O)c2ccccc2)c1 (optimized conformer: 56.50871419666424 kcal/mol)

>  <smiles>  (82) 
CC(=O)Nc1cccc(N(CC(=O)Nc2cccc(F)c2)S(=O)(=O)c2ccccc2)c1

>  <score_type>  (82) 
oracle

>  <origin>  (82) 
adg

>  <m_score__min__energy>  (82) 
-11.039999999999999

>  <m_primary>  (82) 
energy

$$$$
82:0
     RDKit          3D

 49 51  0  0  0  0  0  0  0  0999 V2000
   61.2150   28.9670   44.7330 C   0  0  0  0  0  0  0  0  0  0  0  0
   59.7960   28.8850   44.6380 O   0  0  0  0  0  0  0  0  0  0  0  0
   59.0020   27.9830   45.3630 C   0  0  0  0  0  0  0  0  0  0  0  0
   59.5220   27.2360   46.4400 C   0  0  0  0  0  0  0  0  0  0  0  0
   58.7100   26.3380   47.1360 C   0  0  0  0  0  0  0  0  0  0  0  0
   57.3780   26.1640   46.7620 C   0  0  0  0  0  0  0  0  0  0  0  0
   56.8490   26.8980   45.6980 C   0  0  0  0  0  0  0  0  0  0  0  0
   57.6470   27.8200   45.0000 C   0  0  0  0  0  0  0  0  0  0  0  0
   57.0610   28.5950   43.8460 C   0  0  0  0  0  0  0  0  0  0  0  0
   56.9850   30.0530   44.1840 C   0  0  0  0  0  0  0  0  0  0  0  0
   55.8730   30.5610   44.4980 O   0  0  0  0  0  0  0  0  0  0  0  0
   58.1650   30.8660   44.1350 N   0  0  0  0  0  0  0  0  0  0  0  0
   58.3090   32.0880   44.8750 C   0  0  0  0  0  0  0  0  0  0  0  0
   58.3040   33.3050   44.1900 C   0  0  0  0  0  0  0  0  0  0  0  0
   58.4750   34.4980   44.8840 C   0  0  0  0  0  0  0  0  0  0  0  0
   58.6730   34.4670   46.2640 C   0  0  0  0  0  0  0  0  0  0  0  0
   58.7110   33.2790   46.9390 N   0  0  0  0  0  0  0  0  0  0  0  0
   59.0120   33.2990   48.3820 C   0  0  0  0  0  0  0  0  0  0  0  0
   60.0370   34.3910   48.7210 C   0  0  0  0  0  0  0  0  0  0  0  0
   61.4430   33.9630   48.3880 C   0  0  0  0  0  0  0  0  0  0  0  0
   62.3790   33.7400   49.4130 C   0  0  0  0  0  0  0  0  0  0  0  0
   63.6920   33.3770   49.0990 C   0  0  0  0  0  0  0  0  0  0  0  0
   64.0800   33.2320   47.7660 C   0  0  0  0  0  0  0  0  0  0  0  0
   63.1610   33.4710   46.7390 C   0  0  0  0  0  0  0  0  0  0  0  0
   61.8480   33.8410   47.0480 C   0  0  0  0  0  0  0  0  0  0  0  0
   58.5420   32.0910   46.2660 C   0  0  0  0  0  0  0  0  0  0  0  0
   58.6310   30.9940   46.8850 O   0  0  0  0  0  0  0  0  0  0  0  0
   61.5112   28.9841   45.7922 H   0  0  0  0  0  0  0  0  0  0  0  0
   61.6666   28.0935   44.2401 H   0  0  0  0  0  0  0  0  0  0  0  0
   61.5630   29.8867   44.2401 H   0  0  0  0  0  0  0  0  0  0  0  0
   60.5745   27.3615   46.7340 H   0  0  0  0  0  0  0  0  0  0  0  0
   59.1220   25.7668   47.9810 H   0  0  0  0  0  0  0  0  0  0  0  0
   56.7435   25.4483   47.3053 H   0  0  0  0  0  0  0  0  0  0  0  0
   55.7990   26.7531   45.4041 H   0  0  0  0  0  0  0  0  0  0  0  0
   57.6970   28.4609   42.9586 H   0  0  0  0  0  0  0  0  0  0  0  0
   56.0466   28.2215   43.6425 H   0  0  0  0  0  0  0  0  0  0  0  0
   58.9450   30.5670   43.5100 H   0  0  0  0  0  0  0  0  0  0  0  0
   58.1645   33.3200   43.0990 H   0  0  0  0  0  0  0  0  0  0  0  0
   58.4542   35.4586   44.3485 H   0  0  0  0  0  0  0  0  0  0  0  0
   58.8001   35.4099   46.8160 H   0  0  0  0  0  0  0  0  0  0  0  0
   58.0837   33.4929   48.9394 H   0  0  0  0  0  0  0  0  0  0  0  0
   59.4367   32.3238   48.6625 H   0  0  0  0  0  0  0  0  0  0  0  0
   59.7952   35.2970   48.1459 H   0  0  0  0  0  0  0  0  0  0  0  0
   59.9858   34.5834   49.8028 H   0  0  0  0  0  0  0  0  0  0  0  0
   62.0774   33.8515   50.4650 H   0  0  0  0  0  0  0  0  0  0  0  0
   64.4212   33.2052   49.9044 H   0  0  0  0  0  0  0  0  0  0  0  0
   65.1093   32.9295   47.5230 H   0  0  0  0  0  0  0  0  0  0  0  0
   63.4708   33.3680   45.6886 H   0  0  0  0  0  0  0  0  0  0  0  0
   61.1294   34.0373   46.2386 H   0  0  0  0  0  0  0  0  0  0  0  0
  1  2  1  0
  2  3  1  0
  3  4  2  0
  4  5  1  0
  5  6  2  0
  6  7  1  0
  7  8  2  0
  8  9  1  0
  9 10  1  0
 10 11  2  0
 10 12  1  0
 12 13  1  0
 13 14  2  0
 14 15  1  0
 15 16  2  0
 16 17  1  0
 17 18  1  0
 18 19  1  0
 19 20  1  0
 20 21  2  0
 21 22  1  0
 22 23  2  0
 23 24  1  0
 24 25  2  0
 17 26  1  0
 26 27  2  0
  8  3  1  0
 26 13  1  0
 25 20  1  0
  1 28  1  0
  1 29  1  0
  1 30  1  0
  4 31  1  0
  5 32  1  0
  6 33  1  0
  7 34  1  0
  9 35  1  0
  9 36  1  0
 12 37  1  0
 14 38  1  0
 15 39  1  0
 16 40  1  0
 18 41  1  0
 18 42  1  0
 19 43  1  0
 19 44  1  0
 21 45  1  0
 22 46  1  0
 23 47  1  0
 24 48  1  0
 25 49  1  0
M  END
>  <UniqueID>  (83) 
78

>  <SMILES>  (83) 
COc1ccccc1CC(=O)Nc1cccn(CCc2ccccc2)c1=O

>  <Energy>  (83) 
49.322200938788605

>  <Genealogy>  (83) 
COc1ccccc1CC(=O)Nc1cccn(CCc2ccccc2)c1=O (3D coordinates assigned)
COc1ccccc1CC(=O)Nc1cccn(CCc2ccccc2)c1=O (optimized conformer: 49.322200938788605 kcal/mol)

>  <smiles>  (83) 
COc1ccccc1CC(=O)Nc1cccn(CCc2ccccc2)c1=O

>  <score_type>  (83) 
oracle

>  <origin>  (83) 
adg

>  <m_score__min__energy>  (83) 
-9.2400000000000002

>  <m_primary>  (83) 
energy

$$$$
83:0
     RDKit          3D

 26 27  0  0  0  0  0  0  0  0999 V2000
   55.1440   30.1410   44.5670 N   0  0  0  0  0  0  0  0  0  0  0  0
   56.8610   30.3030   44.4600 S   0  0  0  0  0  0  0  0  0  0  0  0
   57.2450   30.6660   43.0520 O   0  0  0  0  0  0  0  0  0  0  0  0
   57.3180   31.3980   45.3810 O   0  0  0  0  0  0  0  0  0  0  0  0
   57.6240   28.7830   44.9130 C   0  0  0  0  0  0  0  0  0  0  0  0
   57.9200   27.8250   43.9340 C   0  0  0  0  0  0  0  0  0  0  0  0
   58.5170   26.6130   44.2930 C   0  0  0  0  0  0  0  0  0  0  0  0
   58.8410   26.3550   45.6370 C   0  0  0  0  0  0  0  0  0  0  0  0
   59.4220   25.1040   46.0380 N   0  0  0  0  0  0  0  0  0  0  0  0
   58.8470   23.9610   45.9920 N   0  0  0  0  0  0  0  0  0  0  0  0
   57.5590   23.6890   45.4220 C   0  0  0  0  0  0  0  0  0  0  0  0
   57.4030   22.7800   44.3650 C   0  0  0  0  0  0  0  0  0  0  0  0
   56.1170   22.5300   43.8840 C   0  0  0  0  0  0  0  0  0  0  0  0
   55.9420   21.7320   42.9260 O   0  0  0  0  0  0  0  0  0  0  0  0
   55.0490   23.1450   44.4550 N   0  0  0  0  0  0  0  0  0  0  0  0
   55.2130   24.0010   45.4970 C   0  0  0  0  0  0  0  0  0  0  0  0
   54.2100   24.5520   46.0210 O   0  0  0  0  0  0  0  0  0  0  0  0
   56.4570   24.2580   45.9780 N   0  0  0  0  0  0  0  0  0  0  0  0
   58.5050   27.2950   46.6160 C   0  0  0  0  0  0  0  0  0  0  0  0
   57.9070   28.5080   46.2570 C   0  0  0  0  0  0  0  0  0  0  0  0
   54.9520   29.3630   45.2380 H   0  0  0  0  0  0  0  0  0  0  0  0
   57.6817   28.0274   42.8794 H   0  0  0  0  0  0  0  0  0  0  0  0
   58.7340   25.8590   43.5221 H   0  0  0  0  0  0  0  0  0  0  0  0
   58.2755   22.2751   43.9248 H   0  0  0  0  0  0  0  0  0  0  0  0
   58.7120   27.0797   47.6747 H   0  0  0  0  0  0  0  0  0  0  0  0
   57.6585   29.2476   47.0323 H   0  0  0  0  0  0  0  0  0  0  0  0
  1  2  1  0
  2  3  2  0
  2  4  2  0
  2  5  1  0
  5  6  2  0
  6  7  1  0
  7  8  2  0
  8  9  1  0
  9 10  2  3
 10 11  1  0
 11 12  2  0
 12 13  1  0
 13 14  2  0
 13 15  1  0
 15 16  1  0
 16 17  2  0
 16 18  1  0
  8 19  1  0
 19 20  2  0
 20  5  1  0
 18 11  1  0
  1 21  1  0
  6 22  1  0
  7 23  1  0
 12 24  1  0
 19 25  1  0
 20 26  1  0
M  CHG  3   1  -1  15  -1  18  -1
M  END
>  <UniqueID>  (84) 
79

>  <SMILES>  (84) 
[NH-]S(=O)(=O)c1ccc(N=Nc2cc(=O)[n-]c(=O)[n-]2)cc1

>  <Energy>  (84) 
40.97159301105007

>  <Genealogy>  (84) 
[NH-]S(=O)(=O)c1ccc(N=Nc2cc(=O)[n-]c(=O)[n-]2)cc1 (protonated)
[NH-]S(=O)(=O)c1ccc(N=Nc2cc(=O)[n-]c(=O)[n-]2)cc1 (3D coordinates assigned)
[NH-]S(=O)(=O)c1ccc(N=Nc2cc(=O)[n-]c(=O)[n-]2)cc1 (optimized conformer: 40.97159301105007 kcal/mol)

>  <smiles>  (84) 
NS(=O)(=O)c1ccc(N=Nc2cc(=O)[nH]c(=O)[nH]2)cc1

>  <score_type>  (84) 
oracle

>  <origin>  (84) 
adg

>  <m_score__min__energy>  (84) 
-12.08

>  <m_primary>  (84) 
energy

$$$$
84:0
     RDKit          3D

 51 53  0  0  0  0  0  0  0  0999 V2000
   58.1340   27.4670   43.0720 C   0  0  0  0  0  0  0  0  0  0  0  0
   57.3900   28.1540   44.0730 O   0  0  0  0  0  0  0  0  0  0  0  0
   57.8410   29.2920   44.7620 C   0  0  0  0  0  0  0  0  0  0  0  0
   57.8680   30.5630   44.1540 C   0  0  0  0  0  0  0  0  0  0  0  0
   58.2590   31.6880   44.8810 C   0  0  0  0  0  0  0  0  0  0  0  0
   58.6220   31.5670   46.2270 C   0  0  0  0  0  0  0  0  0  0  0  0
   59.1070   32.9930   47.1510 S   0  0  0  0  0  0  0  0  0  0  0  0
   58.6430   34.2290   46.4330 O   0  0  0  0  0  0  0  0  0  0  0  0
   58.4380   32.9570   48.4960 O   0  0  0  0  0  0  0  0  0  0  0  0
   60.8390   33.0660   47.3700 N   0  0  0  0  0  0  0  0  0  0  0  0
   61.4480   33.9650   46.3750 C   0  0  0  0  0  0  0  0  0  0  0  0
   62.9860   33.8510   46.4060 C   0  0  0  0  0  0  0  0  0  0  0  0
   63.4200   33.1430   47.5510 O   0  0  0  0  0  0  0  0  0  0  0  0
   62.9550   31.8050   47.4950 C   0  0  0  0  0  0  0  0  0  0  0  0
   61.4300   31.7240   47.2700 C   0  0  0  0  0  0  0  0  0  0  0  0
   58.6020   30.3070   46.8370 C   0  0  0  0  0  0  0  0  0  0  0  0
   58.2470   29.1660   46.1080 C   0  0  0  0  0  0  0  0  0  0  0  0
   58.2460   27.9000   46.7800 N   0  0  0  0  0  0  0  0  0  0  0  0
   59.3710   27.0190   46.8760 C   0  0  0  0  0  0  0  0  0  0  0  0
   60.3890   27.3490   47.5420 O   0  0  0  0  0  0  0  0  0  0  0  0
   59.3400   25.7010   46.1700 C   0  0  0  0  0  0  0  0  0  0  0  0
   58.0940   25.5510   45.4150 N   0  0  0  0  0  0  0  0  0  0  0  0
   57.6820   24.3110   44.8100 C   0  0  0  0  0  0  0  0  0  0  0  0
   58.2850   23.0840   45.1490 C   0  0  0  0  0  0  0  0  0  0  0  0
   57.8590   21.8960   44.5450 C   0  0  0  0  0  0  0  0  0  0  0  0
   56.8280   21.9190   43.5950 C   0  0  0  0  0  0  0  0  0  0  0  0
   56.3980   20.7420   42.9870 O   0  0  0  0  0  0  0  0  0  0  0  0
   56.2270   23.1330   43.2560 C   0  0  0  0  0  0  0  0  0  0  0  0
   56.6500   24.3210   43.8570 C   0  0  0  0  0  0  0  0  0  0  0  0
   58.8612   26.7955   43.5518 H   0  0  0  0  0  0  0  0  0  0  0  0
   57.4485   26.8775   42.4454 H   0  0  0  0  0  0  0  0  0  0  0  0
   58.6671   28.1973   42.4454 H   0  0  0  0  0  0  0  0  0  0  0  0
   57.5786   30.6691   43.0981 H   0  0  0  0  0  0  0  0  0  0  0  0
   58.2820   32.6741   44.3940 H   0  0  0  0  0  0  0  0  0  0  0  0
   61.0859   33.6925   45.3727 H   0  0  0  0  0  0  0  0  0  0  0  0
   61.1653   35.0007   46.6145 H   0  0  0  0  0  0  0  0  0  0  0  0
   63.3253   33.3195   45.5047 H   0  0  0  0  0  0  0  0  0  0  0  0
   63.4114   34.8649   46.4394 H   0  0  0  0  0  0  0  0  0  0  0  0
   63.4627   31.2884   46.6671 H   0  0  0  0  0  0  0  0  0  0  0  0
   63.1783   31.3303   48.4618 H   0  0  0  0  0  0  0  0  0  0  0  0
   61.2300   31.3107   46.2704 H   0  0  0  0  0  0  0  0  0  0  0  0
   60.9843   31.0733   48.0367 H   0  0  0  0  0  0  0  0  0  0  0  0
   58.8680   30.2127   47.9002 H   0  0  0  0  0  0  0  0  0  0  0  0
   60.1922   25.6417   45.4770 H   0  0  0  0  0  0  0  0  0  0  0  0
   59.4014   24.8963   46.9174 H   0  0  0  0  0  0  0  0  0  0  0  0
   57.4680   26.3830   45.3060 H   0  0  0  0  0  0  0  0  0  0  0  0
   59.0952   23.0597   45.8926 H   0  0  0  0  0  0  0  0  0  0  0  0
   58.3341   20.9416   44.8161 H   0  0  0  0  0  0  0  0  0  0  0  0
   56.9000   19.8690   43.1070 H   0  0  0  0  0  0  0  0  0  0  0  0
   55.4168   23.1539   42.5123 H   0  0  0  0  0  0  0  0  0  0  0  0
   56.1710   25.2722   43.5817 H   0  0  0  0  0  0  0  0  0  0  0  0
  1  2  1  0
  2  3  1  0
  3  4  2  0
  4  5  1  0
  5  6  2  0
  6  7  1  0
  7  8  2  0
  7  9  2  0
  7 10  1  0
 10 11  1  0
 11 12  1  0
 12 13  1  0
 13 14  1  0
 14 15  1  0
  6 16  1  0
 16 17  2  0
 17 18  1  0
 18 19  1  0
 19 20  2  0
 19 21  1  0
 21 22  1  0
 22 23  1  0
 23 24  2  0
 24 25  1  0
 25 26  2  0
 26 27  1  0
 26 28  1  0
 28 29  2  0
 17  3  1  0
 29 23  1  0
 15 10  1  0
  1 30  1  0
  1 31  1  0
  1 32  1  0
  4 33  1  0
  5 34  1  0
 11 35  1  0
 11 36  1  0
 12 37  1  0
 12 38  1  0
 14 39  1  0
 14 40  1  0
 15 41  1  0
 15 42  1  0
 16 43  1  0
 21 44  1  0
 21 45  1  0
 22 46  1  0
 24 47  1  0
 25 48  1  0
 27 49  1  0
 28 50  1  0
 29 51  1  0
M  CHG  1  18  -1
M  END
>  <UniqueID>  (85) 
80

>  <SMILES>  (85) 
COc1ccc(S(=O)(=O)N2CCOCC2)cc1[N-]C(=O)CNc1ccc(O)cc1

>  <Energy>  (85) 
62.08855792586079

>  <Genealogy>  (85) 
COc1ccc(S(=O)(=O)N2CCOCC2)cc1[N-]C(=O)CNc1ccc(O)cc1 (protonated)
COc1ccc(S(=O)(=O)N2CCOCC2)cc1[N-]C(=O)CNc1ccc(O)cc1 (3D coordinates assigned)
COc1ccc(S(=O)(=O)N2CCOCC2)cc1[N-]C(=O)CNc1ccc(O)cc1 (nonaromatic ring conformer: 62.08855792586079 kcal/mol)

>  <smiles>  (85) 
COc1ccc(S(=O)(=O)N2CCOCC2)cc1NC(=O)CNc1ccc(O)cc1

>  <score_type>  (85) 
oracle

>  <origin>  (85) 
adg

>  <m_score__min__energy>  (85) 
-10.58

>  <m_primary>  (85) 
energy

$$$$
85:0
     RDKit          3D

 45 48  0  0  0  0  0  0  0  0999 V2000
   55.9872   33.5068   44.8898 H   0  0  0  0  0  0  0  0  0  0  0  0
   57.0270   33.4330   45.2410 C   0  0  0  0  0  0  0  0  0  0  0  0
   57.6050   32.2150   45.4010 N   0  0  0  0  0  0  0  0  0  0  0  0
   58.8820   32.0720   45.8520 C   0  0  0  0  0  0  0  0  0  0  0  0
   59.4480   30.7940   45.9190 O   0  0  0  0  0  0  0  0  0  0  0  0
   58.7180   29.6040   46.0360 C   0  0  0  0  0  0  0  0  0  0  0  0
   58.9130   28.8180   47.1780 C   0  0  0  0  0  0  0  0  0  0  0  0
   59.6668   29.1144   47.9223 H   0  0  0  0  0  0  0  0  0  0  0  0
   58.1570   27.6590   47.3800 C   0  0  0  0  0  0  0  0  0  0  0  0
   58.3030   27.0641   48.2937 H   0  0  0  0  0  0  0  0  0  0  0  0
   57.2170   27.2510   46.4290 C   0  0  0  0  0  0  0  0  0  0  0  0
   56.3880   26.1140   46.7210 N   0  0  0  0  0  0  0  0  0  0  0  0
   55.8730   25.2570   45.8840 C   0  0  0  0  0  0  0  0  0  0  0  0
   54.5340   25.0050   45.9600 N   0  0  0  0  0  0  0  0  0  0  0  0
   53.9140   24.1120   45.1450 C   0  0  0  0  0  0  0  0  0  0  0  0
   52.8304   23.9459   45.2358 H   0  0  0  0  0  0  0  0  0  0  0  0
   54.6490   23.4060   44.1940 C   0  0  0  0  0  0  0  0  0  0  0  0
   54.1514   22.6861   43.5276 H   0  0  0  0  0  0  0  0  0  0  0  0
   56.0240   23.6240   44.0980 C   0  0  0  0  0  0  0  0  0  0  0  0
   56.6174   23.0698   43.3559 H   0  0  0  0  0  0  0  0  0  0  0  0
   56.6480   24.5450   44.9430 C   0  0  0  0  0  0  0  0  0  0  0  0
   57.7329   24.7138   44.8758 H   0  0  0  0  0  0  0  0  0  0  0  0
   57.0070   28.0420   45.2840 C   0  0  0  0  0  0  0  0  0  0  0  0
   56.2496   27.7448   44.5438 H   0  0  0  0  0  0  0  0  0  0  0  0
   57.7590   29.2060   45.0840 C   0  0  0  0  0  0  0  0  0  0  0  0
   57.6003   29.8121   44.1799 H   0  0  0  0  0  0  0  0  0  0  0  0
   59.6490   33.2150   46.1810 C   0  0  0  0  0  0  0  0  0  0  0  0
   61.0090   33.0790   46.7810 C   0  0  0  0  0  0  0  0  0  0  0  0
   62.0320   33.8310   46.2850 N   0  0  0  0  0  0  0  0  0  0  0  0
   63.2970   33.7500   46.7700 C   0  0  0  0  0  0  0  0  0  0  0  0
   64.0902   34.3835   46.3463 H   0  0  0  0  0  0  0  0  0  0  0  0
   63.5910   32.8640   47.8050 C   0  0  0  0  0  0  0  0  0  0  0  0
   64.6162   32.7962   48.1978 H   0  0  0  0  0  0  0  0  0  0  0  0
   62.5820   32.0630   48.3420 C   0  0  0  0  0  0  0  0  0  0  0  0
   62.9180   31.1730   49.3750 O   0  0  0  0  0  0  0  0  0  0  0  0
   63.7650   31.4890   50.4750 C   0  0  0  0  0  0  0  0  0  0  0  0
   63.2324   31.2903   51.4168 H   0  0  0  0  0  0  0  0  0  0  0  0
   64.6724   30.8689   50.4290 H   0  0  0  0  0  0  0  0  0  0  0  0
   64.0445   32.5519   50.4290 H   0  0  0  0  0  0  0  0  0  0  0  0
   61.2730   32.1760   47.8310 C   0  0  0  0  0  0  0  0  0  0  0  0
   60.4615   31.5626   48.2495 H   0  0  0  0  0  0  0  0  0  0  0  0
   59.0590   34.4810   46.0000 C   0  0  0  0  0  0  0  0  0  0  0  0
   59.6318   35.3897   46.2368 H   0  0  0  0  0  0  0  0  0  0  0  0
   57.7520   34.5900   45.5220 C   0  0  0  0  0  0  0  0  0  0  0  0
   57.2982   35.5802   45.3684 H   0  0  0  0  0  0  0  0  0  0  0  0
  1  2  1  0
  2  3  2  0
  3  4  1  0
  4  5  1  0
  5  6  1  0
  6  7  2  0
  7  8  1  0
  7  9  1  0
  9 10  1  0
  9 11  2  0
 11 12  1  0
 12 13  2  0
 13 14  1  0
 14 15  1  0
 15 16  1  0
 15 17  2  0
 17 18  1  0
 17 19  1  0
 19 20  1  0
 19 21  2  0
 21 22  1  0
 11 23  1  0
 23 24  1  0
 23 25  2  0
 25 26  1  0
  4 27  2  0
 27 28  1  0
 28 29  2  0
 29 30  1  0
 30 31  1  0
 30 32  2  0
 32 33  1  0
 32 34  1  0
 34 35  1  0
 35 36  1  0
 36 37  1  0
 36 38  1  0
 36 39  1  0
 34 40  2  0
 40 41  1  0
 27 42  1  0
 42 43  1  0
 42 44  2  0
 44 45  1  0
 44  2  1  0
 25  6  1  0
 40 28  1  0
 21 13  1  0
M  CHG  1  14  -1
M  END
>  <UniqueID>  (86) 
81

>  <SMILES>  (86) 
COc1ccnc(-c2cccnc2Oc2ccc(/N=c3\cccc[n-]3)cc2)c1

>  <Energy>  (86) 
74.03243988972059

>  <Genealogy>  (86) 
COc1ccnc(-c2cccnc2Oc2ccc(N=c3cccc[n-]3)cc2)c1 (protonated)
COc1ccnc(-c2cccnc2Oc2ccc(/N=c3\cccc[n-]3)cc2)c1 (cis-trans isomerization)
COc1ccnc(-c2cccnc2Oc2ccc(/N=c3\cccc[n-]3)cc2)c1 (3D coordinates assigned)
COc1ccnc(-c2cccnc2Oc2ccc(/N=c3\cccc[n-]3)cc2)c1 (optimized conformer: 74.03243988972059 kcal/mol)

>  <smiles>  (86) 
COc1ccnc(-c2cccnc2Oc2ccc(N=c3cccc[nH]3)cc2)c1

>  <score_type>  (86) 
oracle

>  <origin>  (86) 
adg

>  <m_score__min__energy>  (86) 
-9.7400000000000002

>  <m_primary>  (86) 
energy

$$$$
86:0
     RDKit          3D

 31 33  0  0  0  0  0  0  0  0999 V2000
   58.3290   26.4275   43.6490 H   0  0  0  0  0  0  0  0  0  0  0  0
   57.7630   26.7670   44.5290 C   0  0  0  0  0  0  0  0  0  0  0  0
   57.3260   25.8310   45.3850 C   0  0  0  0  0  0  0  0  0  0  0  0
   58.2830   24.3430   45.6950 S   0  0  0  0  0  0  0  0  0  0  0  0
   57.0480   23.8900   46.9170 C   0  0  0  0  0  0  0  0  0  0  0  0
   57.1750   22.8740   47.6480 O   0  0  0  0  0  0  0  0  0  0  0  0
   55.9180   24.7430   47.0240 N   0  0  0  0  0  0  0  0  0  0  0  0
   56.0640   25.8350   46.1360 C   0  0  0  0  0  0  0  0  0  0  0  0
   55.1470   26.6850   45.9840 O   0  0  0  0  0  0  0  0  0  0  0  0
   57.5410   28.2180   44.6800 C   0  0  0  0  0  0  0  0  0  0  0  0
   57.0070   28.9470   43.6090 C   0  0  0  0  0  0  0  0  0  0  0  0
   56.7210   28.4282   42.6822 H   0  0  0  0  0  0  0  0  0  0  0  0
   56.8360   30.3310   43.7130 C   0  0  0  0  0  0  0  0  0  0  0  0
   56.3897   30.8906   42.8778 H   0  0  0  0  0  0  0  0  0  0  0  0
   57.2290   31.0090   44.8730 C   0  0  0  0  0  0  0  0  0  0  0  0
   57.0240   32.3950   44.9460 O   0  0  0  0  0  0  0  0  0  0  0  0
   57.8790   33.3120   45.5760 C   0  0  0  0  0  0  0  0  0  0  0  0
   58.6410   34.1770   44.7810 C   0  0  0  0  0  0  0  0  0  0  0  0
   58.5514   34.1340   43.6855 H   0  0  0  0  0  0  0  0  0  0  0  0
   59.5150   35.0950   45.3710 C   0  0  0  0  0  0  0  0  0  0  0  0
   60.1029   35.7781   44.7403 H   0  0  0  0  0  0  0  0  0  0  0  0
   59.6420   35.1450   46.7630 C   0  0  0  0  0  0  0  0  0  0  0  0
   60.3246   35.8717   47.2277 H   0  0  0  0  0  0  0  0  0  0  0  0
   58.9010   34.2710   47.5630 C   0  0  0  0  0  0  0  0  0  0  0  0
   59.0065   34.3055   48.6574 H   0  0  0  0  0  0  0  0  0  0  0  0
   58.0260   33.3530   46.9750 C   0  0  0  0  0  0  0  0  0  0  0  0
   57.4508   32.6608   47.6075 H   0  0  0  0  0  0  0  0  0  0  0  0
   57.7740   30.2800   45.9440 C   0  0  0  0  0  0  0  0  0  0  0  0
   58.0665   30.8003   46.8680 H   0  0  0  0  0  0  0  0  0  0  0  0
   57.9460   28.8960   45.8400 C   0  0  0  0  0  0  0  0  0  0  0  0
   58.4006   28.3366   46.6709 H   0  0  0  0  0  0  0  0  0  0  0  0
  1  2  1  0
  2  3  2  0
  3  4  1  0
  4  5  1  0
  5  6  2  0
  5  7  1  0
  7  8  1  0
  8  9  2  0
  2 10  1  0
 10 11  2  0
 11 12  1  0
 11 13  1  0
 13 14  1  0
 13 15  2  0
 15 16  1  0
 16 17  1  0
 17 18  2  0
 18 19  1  0
 18 20  1  0
 20 21  1  0
 20 22  2  0
 22 23  1  0
 22 24  1  0
 24 25  1  0
 24 26  2  0
 26 27  1  0
 15 28  1  0
 28 29  1  0
 28 30  2  0
 30 31  1  0
  8  3  1  0
 30 10  1  0
 26 17  1  0
M  CHG  1   7  -1
M  END
>  <UniqueID>  (87) 
82

>  <SMILES>  (87) 
O=C1[N-]C(=O)/C(=C\c2ccc(Oc3ccccc3)cc2)S1

>  <Energy>  (87) 
66.70015344633835

>  <Genealogy>  (87) 
O=C1[N-]C(=O)C(=Cc2ccc(Oc3ccccc3)cc2)S1 (protonated)
O=C1[N-]C(=O)/C(=C\c2ccc(Oc3ccccc3)cc2)S1 (cis-trans isomerization)
O=C1[N-]C(=O)/C(=C\c2ccc(Oc3ccccc3)cc2)S1 (3D coordinates assigned)
O=C1[N-]C(=O)/C(=C\c2ccc(Oc3ccccc3)cc2)S1 (nonaromatic ring conformer: 66.70015344633835 kcal/mol)

>  <smiles>  (87) 
O=C1NC(=O)C(=Cc2ccc(Oc3ccccc3)cc2)S1

>  <score_type>  (87) 
oracle

>  <origin>  (87) 
adg

>  <m_score__min__energy>  (87) 
-10.65

>  <m_primary>  (87) 
energy

$$$$
87:0
     RDKit          3D

 54 57  0  0  0  0  0  0  0  0999 V2000
   58.4850   34.9670   46.9860 O   0  0  0  0  0  0  0  0  0  0  0  0
   59.5910   34.3720   46.8740 C   0  0  0  0  0  0  0  0  0  0  0  0
   60.0730   34.0020   45.5720 N   0  0  0  0  0  0  0  0  0  0  0  0
   59.2160   34.0280   44.3880 C   0  0  0  0  0  0  0  0  0  0  0  0
   58.4480   32.7400   44.2770 C   0  0  0  0  0  0  0  0  0  0  0  0
   57.7680   32.4130   43.0920 C   0  0  0  0  0  0  0  0  0  0  0  0
   57.0350   31.2250   43.0060 C   0  0  0  0  0  0  0  0  0  0  0  0
   56.9700   30.3600   44.1030 C   0  0  0  0  0  0  0  0  0  0  0  0
   56.2600   29.2090   44.0170 F   0  0  0  0  0  0  0  0  0  0  0  0
   57.6370   30.6840   45.2890 C   0  0  0  0  0  0  0  0  0  0  0  0
   58.3700   31.8710   45.3780 C   0  0  0  0  0  0  0  0  0  0  0  0
   60.3900   34.0910   48.0900 C   0  0  0  0  0  0  0  0  0  0  0  0
   59.7720   34.1050   49.3490 C   0  0  0  0  0  0  0  0  0  0  0  0
   60.4860   33.8430   50.4840 N   0  0  0  0  0  0  0  0  0  0  0  0
   59.7830   33.8560   51.7790 C   0  0  0  0  0  0  0  0  0  0  0  0
   58.7760   32.7370   51.8450 C   0  0  0  0  0  0  0  0  0  0  0  0
   57.8080   32.7150   52.8620 C   0  0  0  0  0  0  0  0  0  0  0  0
   56.8800   31.6730   52.9300 C   0  0  0  0  0  0  0  0  0  0  0  0
   56.9050   30.6370   51.9810 C   0  0  0  0  0  0  0  0  0  0  0  0
   55.9770   29.5850   52.0100 O   0  0  0  0  0  0  0  0  0  0  0  0
   54.5910   29.7390   52.1490 C   0  0  0  0  0  0  0  0  0  0  0  0
   53.9560   29.1520   53.2480 C   0  0  0  0  0  0  0  0  0  0  0  0
   52.5790   29.2950   53.4280 C   0  0  0  0  0  0  0  0  0  0  0  0
   51.8260   30.0380   52.5150 C   0  0  0  0  0  0  0  0  0  0  0  0
   52.4450   30.6510   51.4120 C   0  0  0  0  0  0  0  0  0  0  0  0
   51.6670   31.4230   50.4770 N   0  0  0  0  0  0  0  0  0  0  0  0
   51.3910   32.6180   50.7110 O   0  0  0  0  0  0  0  0  0  0  0  0
   51.2240   30.8580   49.3020 O   0  0  0  0  0  0  0  0  0  0  0  0
   53.8340   30.5000   51.2400 C   0  0  0  0  0  0  0  0  0  0  0  0
   57.8530   30.6730   50.9530 C   0  0  0  0  0  0  0  0  0  0  0  0
   58.7880   31.7100   50.8870 C   0  0  0  0  0  0  0  0  0  0  0  0
   61.8220   33.5480   50.3940 C   0  0  0  0  0  0  0  0  0  0  0  0
   62.5000   33.2970   51.4260 O   0  0  0  0  0  0  0  0  0  0  0  0
   62.4320   33.5140   49.1820 N   0  0  0  0  0  0  0  0  0  0  0  0
   61.7560   33.7700   48.0370 C   0  0  0  0  0  0  0  0  0  0  0  0
   62.3620   33.6890   46.9360 O   0  0  0  0  0  0  0  0  0  0  0  0
   61.0770   33.7390   45.4490 H   0  0  0  0  0  0  0  0  0  0  0  0
   58.5093   34.8671   44.4689 H   0  0  0  0  0  0  0  0  0  0  0  0
   59.8430   34.1514   43.4926 H   0  0  0  0  0  0  0  0  0  0  0  0
   57.8122   33.0936   42.2289 H   0  0  0  0  0  0  0  0  0  0  0  0
   56.5088   30.9706   42.0741 H   0  0  0  0  0  0  0  0  0  0  0  0
   57.5847   30.0043   46.1523 H   0  0  0  0  0  0  0  0  0  0  0  0
   58.8880   32.1257   46.3144 H   0  0  0  0  0  0  0  0  0  0  0  0
   58.6978   34.3300   49.4236 H   0  0  0  0  0  0  0  0  0  0  0  0
   60.5159   33.7316   52.5898 H   0  0  0  0  0  0  0  0  0  0  0  0
   59.2559   34.8153   51.8876 H   0  0  0  0  0  0  0  0  0  0  0  0
   57.7803   33.5222   53.6088 H   0  0  0  0  0  0  0  0  0  0  0  0
   56.1258   31.6635   53.7306 H   0  0  0  0  0  0  0  0  0  0  0  0
   54.5452   28.5740   53.9752 H   0  0  0  0  0  0  0  0  0  0  0  0
   52.0859   28.8220   54.2900 H   0  0  0  0  0  0  0  0  0  0  0  0
   50.7408   30.1439   52.6606 H   0  0  0  0  0  0  0  0  0  0  0  0
   54.3324   30.9820   50.3861 H   0  0  0  0  0  0  0  0  0  0  0  0
   57.8628   29.8796   50.1911 H   0  0  0  0  0  0  0  0  0  0  0  0
   59.5366   31.7218   50.0811 H   0  0  0  0  0  0  0  0  0  0  0  0
  1  2  2  0
  2  3  1  0
  3  4  1  0
  4  5  1  0
  5  6  2  0
  6  7  1  0
  7  8  2  0
  8  9  1  0
  8 10  1  0
 10 11  2  0
  2 12  1  0
 12 13  2  0
 13 14  1  0
 14 15  1  0
 15 16  1  0
 16 17  2  0
 17 18  1  0
 18 19  2  0
 19 20  1  0
 20 21  1  0
 21 22  2  0
 22 23  1  0
 23 24  2  0
 24 25  1  0
 25 26  1  0
 26 27  2  0
 26 28  1  0
 25 29  2  0
 19 30  1  0
 30 31  2  0
 14 32  1  0
 32 33  2  0
 32 34  1  0
 34 35  1  0
 35 36  2  0
 11  5  1  0
 35 12  1  0
 31 16  1  0
 29 21  1  0
  3 37  1  0
  4 38  1  0
  4 39  1  0
  6 40  1  0
  7 41  1  0
 10 42  1  0
 11 43  1  0
 13 44  1  0
 15 45  1  0
 15 46  1  0
 17 47  1  0
 18 48  1  0
 22 49  1  0
 23 50  1  0
 24 51  1  0
 29 52  1  0
 30 53  1  0
 31 54  1  0
M  CHG  3  26   1  28  -1  34  -1
M  END
>  <UniqueID>  (88) 
83

>  <SMILES>  (88) 
O=C(NCc1ccc(F)cc1)c1cn(Cc2ccc(Oc3cccc([N+](=O)[O-])c3)cc2)c(=O)[n-]c1=O

>  <Energy>  (88) 
70.692649788051

>  <Genealogy>  (88) 
O=C(NCc1ccc(F)cc1)c1cn(Cc2ccc(Oc3cccc([N+](=O)[O-])c3)cc2)c(=O)[n-]c1=O (protonated)
O=C(NCc1ccc(F)cc1)c1cn(Cc2ccc(Oc3cccc([N+](=O)[O-])c3)cc2)c(=O)[n-]c1=O (3D coordinates assigned)
O=C(NCc1ccc(F)cc1)c1cn(Cc2ccc(Oc3cccc([N+](=O)[O-])c3)cc2)c(=O)[n-]c1=O (optimized conformer: 70.692649788051 kcal/mol)

>  <smiles>  (88) 
O=C(NCc1ccc(F)cc1)c1cn(Cc2ccc(Oc3cccc([N+](=O)[O-])c3)cc2)c(=O)[nH]c1=O

>  <score_type>  (88) 
oracle

>  <origin>  (88) 
adg

>  <m_score__min__energy>  (88) 
-11.539999999999999

>  <m_primary>  (88) 
energy

$$$$
88:0
     RDKit          3D

 56 60  0  0  0  0  0  0  0  0999 V2000
   58.4330   32.7490   48.1310 O   0  0  0  0  0  0  0  0  0  0  0  0
   59.4110   33.1110   47.4190 C   0  0  0  0  0  0  0  0  0  0  0  0
   59.1740   33.5780   46.0800 N   0  0  0  0  0  0  0  0  0  0  0  0
   57.8280   33.8020   45.5600 C   0  0  0  0  0  0  0  0  0  0  0  0
   57.4840   32.7400   44.5620 C   0  0  0  0  0  0  0  0  0  0  0  0
   57.9980   32.7120   43.2680 C   0  0  0  0  0  0  0  0  0  0  0  0
   57.3990   31.3380   42.5070 S   0  0  0  0  0  0  0  0  0  0  0  0
   56.5280   30.8370   43.8540 C   0  0  0  0  0  0  0  0  0  0  0  0
   55.6620   29.6190   43.9080 C   0  0  0  0  0  0  0  0  0  0  0  0
   55.7150   29.0310   45.1930 O   0  0  0  0  0  0  0  0  0  0  0  0
   56.6900   28.0060   45.2440 C   0  0  0  0  0  0  0  0  0  0  0  0
   58.0550   28.5890   45.4980 C   0  0  0  0  0  0  0  0  0  0  0  0
   59.0940   28.4070   44.5690 C   0  0  0  0  0  0  0  0  0  0  0  0
   60.3630   28.9370   44.8200 C   0  0  0  0  0  0  0  0  0  0  0  0
   60.6040   29.6490   45.9990 C   0  0  0  0  0  0  0  0  0  0  0  0
   59.5770   29.8300   46.9290 C   0  0  0  0  0  0  0  0  0  0  0  0
   58.3060   29.3010   46.6820 C   0  0  0  0  0  0  0  0  0  0  0  0
   56.6710   31.6980   44.8840 N   0  0  0  0  0  0  0  0  0  0  0  0
   60.8250   33.0430   47.9770 C   0  0  1  0  0  0  0  0  0  0  0  0
   61.1370   34.3360   48.7840 C   0  0  0  0  0  0  0  0  0  0  0  0
   62.5770   34.2820   49.3390 C   0  0  2  0  0  0  0  0  0  0  0  0
   63.5760   34.1540   48.1670 C   0  0  0  0  0  0  0  0  0  0  0  0
   63.2870   32.8580   47.3780 C   0  0  1  0  0  0  0  0  0  0  0  0
   63.4330   31.6410   48.3170 C   0  0  0  0  0  0  0  0  0  0  0  0
   62.4340   31.7690   49.4860 C   0  0  1  0  0  0  0  0  0  0  0  0
   62.7240   33.0640   50.2750 C   0  0  0  0  0  0  0  0  0  0  0  0
   60.9940   31.8200   48.9290 C   0  0  0  0  0  0  0  0  0  0  0  0
   61.8480   32.9070   46.8160 C   0  0  0  0  0  0  0  0  0  0  0  0
   59.9810   33.7880   45.4520 H   0  0  0  0  0  0  0  0  0  0  0  0
   57.1065   33.7703   46.3897 H   0  0  0  0  0  0  0  0  0  0  0  0
   57.7881   34.7860   45.0700 H   0  0  0  0  0  0  0  0  0  0  0  0
   58.6751   33.4561   42.8233 H   0  0  0  0  0  0  0  0  0  0  0  0
   54.6235   29.9028   43.6822 H   0  0  0  0  0  0  0  0  0  0  0  0
   56.0253   28.8907   43.1679 H   0  0  0  0  0  0  0  0  0  0  0  0
   56.4383   27.3069   46.0551 H   0  0  0  0  0  0  0  0  0  0  0  0
   56.7024   27.4783   44.2789 H   0  0  0  0  0  0  0  0  0  0  0  0
   58.9080   27.8457   43.6415 H   0  0  0  0  0  0  0  0  0  0  0  0
   61.1727   28.7938   44.0893 H   0  0  0  0  0  0  0  0  0  0  0  0
   61.6026   30.0669   46.1945 H   0  0  0  0  0  0  0  0  0  0  0  0
   59.7684   30.3893   47.8567 H   0  0  0  0  0  0  0  0  0  0  0  0
   57.5005   29.4432   47.4175 H   0  0  0  0  0  0  0  0  0  0  0  0
   60.4279   34.4225   49.6205 H   0  0  0  0  0  0  0  0  0  0  0  0
   61.0404   35.2069   48.1191 H   0  0  0  0  0  0  0  0  0  0  0  0
   62.7870   35.2035   49.9018 H   0  0  0  0  0  0  0  0  0  0  0  0
   64.6019   34.1205   48.5626 H   0  0  0  0  0  0  0  0  0  0  0  0
   63.4669   35.0205   47.4982 H   0  0  0  0  0  0  0  0  0  0  0  0
   64.0016   32.7671   46.5467 H   0  0  0  0  0  0  0  0  0  0  0  0
   64.4584   31.6050   48.7135 H   0  0  0  0  0  0  0  0  0  0  0  0
   63.2237   30.7184   47.7558 H   0  0  0  0  0  0  0  0  0  0  0  0
   62.5406   30.9014   50.1537 H   0  0  0  0  0  0  0  0  0  0  0  0
   63.7490   33.0290   50.6727 H   0  0  0  0  0  0  0  0  0  0  0  0
   62.0101   33.1534   51.1071 H   0  0  0  0  0  0  0  0  0  0  0  0
   60.2846   31.9101   49.7649 H   0  0  0  0  0  0  0  0  0  0  0  0
   60.7959   30.8970   48.3643 H   0  0  0  0  0  0  0  0  0  0  0  0
   61.7500   33.7707   46.1419 H   0  0  0  0  0  0  0  0  0  0  0  0
   61.6452   31.9768   46.2650 H   0  0  0  0  0  0  0  0  0  0  0  0
  1  2  2  0
  2  3  1  0
  3  4  1  0
  4  5  1  0
  5  6  2  0
  6  7  1  0
  7  8  1  0
  8  9  1  0
  9 10  1  0
 10 11  1  0
 11 12  1  0
 12 13  2  0
 13 14  1  0
 14 15  2  0
 15 16  1  0
 16 17  2  0
  8 18  2  0
 19  2  1  6
 19 20  1  0
 20 21  1  0
 21 22  1  0
 22 23  1  0
 23 24  1  0
 24 25  1  0
 25 26  1  0
 25 27  1  0
 23 28  1  0
 18  5  1  0
 27 19  1  0
 17 12  1  0
 28 19  1  0
 26 21  1  0
  3 29  1  0
  4 30  1  0
  4 31  1  0
  6 32  1  0
  9 33  1  0
  9 34  1  0
 11 35  1  0
 11 36  1  0
 13 37  1  0
 14 38  1  0
 15 39  1  0
 16 40  1  0
 17 41  1  0
 20 42  1  0
 20 43  1  0
 21 44  1  1
 22 45  1  0
 22 46  1  0
 23 47  1  6
 24 48  1  0
 24 49  1  0
 25 50  1  1
 26 51  1  0
 26 52  1  0
 27 53  1  0
 27 54  1  0
 28 55  1  0
 28 56  1  0
M  END
>  <UniqueID>  (89) 
84

>  <SMILES>  (89) 
O=C(NCc1csc(COCc2ccccc2)n1)C12CC3CC(CC(C3)C1)C2

>  <Energy>  (89) 
85.82214702254892

>  <Genealogy>  (89) 
O=C(NCc1csc(COCc2ccccc2)n1)C12CC3CC(CC(C3)C1)C2 (3D coordinates assigned)
O=C(NCc1csc(COCc2ccccc2)n1)C12CC3CC(CC(C3)C1)C2 (nonaromatic ring conformer: 85.82214702254892 kcal/mol)

>  <smiles>  (89) 
O=C(NCc1csc(COCc2ccccc2)n1)C12CC3CC(CC(C3)C1)C2

>  <score_type>  (89) 
oracle

>  <origin>  (89) 
adg

>  <m_score__min__energy>  (89) 
-9.8599999999999994

>  <m_primary>  (89) 
energy

$$$$
89:0
     RDKit          3D

 56 58  0  0  0  0  0  0  0  0999 V2000
   56.6950   22.1930   43.2980 C   0  0  0  0  0  0  0  0  0  0  0  0
   56.9540   23.2530   44.3680 C   0  0  0  0  0  0  0  0  0  0  0  0
   55.8380   24.3070   44.4320 C   0  0  0  0  0  0  0  0  0  0  0  0
   55.8050   25.1820   45.9960 S   0  0  0  0  0  0  0  0  0  0  0  0
   54.7750   26.2770   46.0060 O   0  0  0  0  0  0  0  0  0  0  0  0
   55.4740   24.2030   47.0880 O   0  0  0  0  0  0  0  0  0  0  0  0
   57.3700   25.8550   46.3100 N   0  0  0  0  0  0  0  0  0  0  0  0
   57.6910   27.2540   46.2950 C   0  0  0  0  0  0  0  0  0  0  0  0
   58.2310   27.9100   47.4150 C   0  0  0  0  0  0  0  0  0  0  0  0
   58.5240   29.2740   47.3590 C   0  0  0  0  0  0  0  0  0  0  0  0
   58.2780   29.9980   46.1890 C   0  0  0  0  0  0  0  0  0  0  0  0
   58.5520   31.3210   46.1430 N   0  0  0  0  0  0  0  0  0  0  0  0
   58.3180   32.0710   45.0310 C   0  0  0  0  0  0  0  0  0  0  0  0
   58.6420   33.5530   45.0710 C   0  0  0  0  0  0  0  0  0  0  0  0
   59.3930   33.9440   46.3120 C   0  0  0  0  0  0  0  0  0  0  0  0
   59.2290   35.0960   46.7990 O   0  0  0  0  0  0  0  0  0  0  0  0
   60.3530   33.0380   46.8810 N   0  0  0  0  0  0  0  0  0  0  0  0
   61.2200   33.3960   47.9720 C   0  0  0  0  0  0  0  0  0  0  0  0
   60.7060   33.5070   49.2740 C   0  0  0  0  0  0  0  0  0  0  0  0
   61.5410   33.8390   50.3420 C   0  0  0  0  0  0  0  0  0  0  0  0
   62.9100   34.0410   50.1310 C   0  0  0  0  0  0  0  0  0  0  0  0
   63.8050   34.4340   51.2710 C   0  0  0  0  0  0  0  0  0  0  0  0
   63.4320   33.9340   48.8340 C   0  0  0  0  0  0  0  0  0  0  0  0
   62.5990   33.6110   47.7490 C   0  0  0  0  0  0  0  0  0  0  0  0
   63.1890   33.4970   46.3690 C   0  0  0  0  0  0  0  0  0  0  0  0
   57.8070   31.4740   43.8980 N   0  0  0  0  0  0  0  0  0  0  0  0
   57.5450   32.2860   42.6940 C   0  0  0  0  0  0  0  0  0  0  0  0
   57.5070   30.1310   43.9090 C   0  0  0  0  0  0  0  0  0  0  0  0
   57.0210   29.5770   42.8840 O   0  0  0  0  0  0  0  0  0  0  0  0
   57.7400   29.3590   45.0620 C   0  0  0  0  0  0  0  0  0  0  0  0
   57.4500   27.9820   45.1220 C   0  0  0  0  0  0  0  0  0  0  0  0
   56.4605   21.2333   43.7818 H   0  0  0  0  0  0  0  0  0  0  0  0
   55.8466   22.5045   42.6710 H   0  0  0  0  0  0  0  0  0  0  0  0
   57.5915   22.0782   42.6710 H   0  0  0  0  0  0  0  0  0  0  0  0
   57.0270   22.7562   45.3467 H   0  0  0  0  0  0  0  0  0  0  0  0
   57.8890   23.7706   44.1073 H   0  0  0  0  0  0  0  0  0  0  0  0
   55.9954   25.0362   43.6236 H   0  0  0  0  0  0  0  0  0  0  0  0
   54.8774   23.7821   44.3236 H   0  0  0  0  0  0  0  0  0  0  0  0
   58.4236   27.3461   48.3397 H   0  0  0  0  0  0  0  0  0  0  0  0
   58.9496   29.7802   48.2380 H   0  0  0  0  0  0  0  0  0  0  0  0
   59.2559   33.8038   44.1934 H   0  0  0  0  0  0  0  0  0  0  0  0
   57.6898   34.1037   45.0689 H   0  0  0  0  0  0  0  0  0  0  0  0
   60.5260   32.1380   46.3810 H   0  0  0  0  0  0  0  0  0  0  0  0
   59.6352   33.3306   49.4539 H   0  0  0  0  0  0  0  0  0  0  0  0
   61.1216   33.9423   51.3536 H   0  0  0  0  0  0  0  0  0  0  0  0
   63.3027   34.2134   52.2244 H   0  0  0  0  0  0  0  0  0  0  0  0
   64.7451   33.8659   51.2118 H   0  0  0  0  0  0  0  0  0  0  0  0
   64.0229   35.5106   51.2118 H   0  0  0  0  0  0  0  0  0  0  0  0
   64.5053   34.1047   48.6638 H   0  0  0  0  0  0  0  0  0  0  0  0
   64.2663   33.2888   46.4469 H   0  0  0  0  0  0  0  0  0  0  0  0
   62.6955   32.6776   45.8258 H   0  0  0  0  0  0  0  0  0  0  0  0
   63.0363   34.4413   45.8258 H   0  0  0  0  0  0  0  0  0  0  0  0
   57.2201   33.2930   42.9945 H   0  0  0  0  0  0  0  0  0  0  0  0
   58.4646   32.3609   42.0950 H   0  0  0  0  0  0  0  0  0  0  0  0
   56.7551   31.8093   42.0950 H   0  0  0  0  0  0  0  0  0  0  0  0
   57.0309   27.4739   44.2410 H   0  0  0  0  0  0  0  0  0  0  0  0
  1  2  1  0
  2  3  1  0
  3  4  1  0
  4  5  2  0
  4  6  2  0
  4  7  1  0
  7  8  1  0
  8  9  2  0
  9 10  1  0
 10 11  2  0
 11 12  1  0
 12 13  2  0
 13 14  1  0
 14 15  1  0
 15 16  2  0
 15 17  1  0
 17 18  1  0
 18 19  2  0
 19 20  1  0
 20 21  2  0
 21 22  1  0
 21 23  1  0
 23 24  2  0
 24 25  1  0
 13 26  1  0
 26 27  1  0
 26 28  1  0
 28 29  2  0
 28 30  1  0
 30 31  2  0
 31  8  1  0
 30 11  1  0
 24 18  1  0
  1 32  1  0
  1 33  1  0
  1 34  1  0
  2 35  1  0
  2 36  1  0
  3 37  1  0
  3 38  1  0
  9 39  1  0
 10 40  1  0
 14 41  1  0
 14 42  1  0
 17 43  1  0
 19 44  1  0
 20 45  1  0
 22 46  1  0
 22 47  1  0
 22 48  1  0
 23 49  1  0
 25 50  1  0
 25 51  1  0
 25 52  1  0
 27 53  1  0
 27 54  1  0
 27 55  1  0
 31 56  1  0
M  CHG  1   7  -1
M  END
>  <UniqueID>  (90) 
85

>  <SMILES>  (90) 
CCCS(=O)(=O)[N-]c1ccc2nc(CC(=O)Nc3ccc(C)cc3C)n(C)c(=O)c2c1

>  <Energy>  (90) 
64.73593983028536

>  <Genealogy>  (90) 
CCCS(=O)(=O)[N-]c1ccc2nc(CC(=O)Nc3ccc(C)cc3C)n(C)c(=O)c2c1 (protonated)
CCCS(=O)(=O)[N-]c1ccc2nc(CC(=O)Nc3ccc(C)cc3C)n(C)c(=O)c2c1 (3D coordinates assigned)
CCCS(=O)(=O)[N-]c1ccc2nc(CC(=O)Nc3ccc(C)cc3C)n(C)c(=O)c2c1 (optimized conformer: 64.73593983028536 kcal/mol)

>  <smiles>  (90) 
CCCS(=O)(=O)Nc1ccc2nc(CC(=O)Nc3ccc(C)cc3C)n(C)c(=O)c2c1

>  <score_type>  (90) 
oracle

>  <origin>  (90) 
adg

>  <m_score__min__energy>  (90) 
-11.08

>  <m_primary>  (90) 
energy

$$$$
90:0
     RDKit          3D

 21 22  0  0  0  0  0  0  0  0999 V2000
   56.5837   23.6258   47.2524 H   0  0  0  0  0  0  0  0  0  0  0  0
   56.2630   24.5710   46.7900 C   0  0  0  0  0  0  0  0  0  0  0  0
   57.0820   25.6200   46.5810 N   0  0  0  0  0  0  0  0  0  0  0  0
   56.2500   26.5130   46.0080 C   0  0  0  0  0  0  0  0  0  0  0  0
   56.6570   27.8610   45.5720 C   0  0  0  0  0  0  0  0  0  0  0  0
   55.7430   28.6690   44.9710 N   0  0  0  0  0  0  0  0  0  0  0  0
   56.0570   29.9220   44.5480 C   0  0  0  0  0  0  0  0  0  0  0  0
   55.2897   30.5463   44.0669 H   0  0  0  0  0  0  0  0  0  0  0  0
   57.3510   30.4200   44.7220 C   0  0  0  0  0  0  0  0  0  0  0  0
   57.7580   32.1910   44.1130 Br  0  0  0  0  0  0  0  0  0  0  0  0
   58.3210   29.6150   45.3380 C   0  0  0  0  0  0  0  0  0  0  0  0
   59.5270   30.0760   45.5020 N   0  0  0  0  0  0  0  0  0  0  0  0
   60.1600   30.0890   46.7250 O   0  0  0  0  0  0  0  0  0  0  0  0
   60.9170   31.2180   47.1270 C   0  0  0  0  0  0  0  0  0  0  0  0
   60.9490   31.2658   48.2255 H   0  0  0  0  0  0  0  0  0  0  0  0
   61.9407   31.1320   46.7337 H   0  0  0  0  0  0  0  0  0  0  0  0
   60.4487   32.1324   46.7337 H   0  0  0  0  0  0  0  0  0  0  0  0
   57.9670   28.3220   45.7670 C   0  0  0  0  0  0  0  0  0  0  0  0
   58.7138   27.6766   46.2526 H   0  0  0  0  0  0  0  0  0  0  0  0
   54.9990   26.0360   45.8760 N   0  0  0  0  0  0  0  0  0  0  0  0
   55.0090   24.8110   46.3690 N   0  0  0  0  0  0  0  0  0  0  0  0
  1  2  1  0
  2  3  2  0
  3  4  1  0
  4  5  1  0
  5  6  1  0
  6  7  1  0
  7  8  1  0
  7  9  2  0
  9 10  1  0
  9 11  1  0
 11 12  2  0
 12 13  1  0
 13 14  1  0
 14 15  1  0
 14 16  1  0
 14 17  1  0
 11 18  1  0
 18 19  1  0
  4 20  2  0
 20 21  1  0
 21  2  1  0
 18  5  2  0
M  CHG  2   6  -1  21  -1
M  END
>  <UniqueID>  (91) 
86

>  <SMILES>  (91) 
CO/N=c1\cc(-c2nc[n-]n2)[n-]cc1Br

>  <Energy>  (91) 
51.965240868913895

>  <Genealogy>  (91) 
CON=c1cc(-c2nc[n-]n2)[n-]cc1Br (protonated)
CO/N=c1\cc(-c2nc[n-]n2)[n-]cc1Br (cis-trans isomerization)
CO/N=c1\cc(-c2nc[n-]n2)[n-]cc1Br (3D coordinates assigned)
CO/N=c1\cc(-c2nc[n-]n2)[n-]cc1Br (optimized conformer: 51.965240868913895 kcal/mol)

>  <smiles>  (91) 
CON=c1cc(-c2nc[nH]n2)[nH]cc1Br

>  <score_type>  (91) 
oracle

>  <origin>  (91) 
adg

>  <m_score__min__energy>  (91) 
-10.02

>  <m_primary>  (91) 
energy

$$$$
91:0
     RDKit          3D

 32 34  0  0  0  0  0  0  0  0999 V2000
   54.4020   30.4780   44.4520 H   0  0  0  0  0  0  0  0  0  0  0  0
   55.1280   29.8200   44.0880 N   0  0  0  0  0  0  0  0  0  0  0  0
   56.0240   29.3060   44.8650 C   0  0  0  0  0  0  0  0  0  0  0  0
   55.9420   28.0040   45.2400 N   0  0  0  0  0  0  0  0  0  0  0  0
   56.8830   27.4650   46.0600 C   0  0  0  0  0  0  0  0  0  0  0  0
   56.8390   26.2110   46.4090 N   0  0  0  0  0  0  0  0  0  0  0  0
   56.6470   25.0790   45.5450 C   0  0  0  0  0  0  0  0  0  0  0  0
   55.7350   24.0880   45.9300 C   0  0  0  0  0  0  0  0  0  0  0  0
   55.2030   24.1778   46.8886 H   0  0  0  0  0  0  0  0  0  0  0  0
   55.4960   22.9840   45.1030 C   0  0  0  0  0  0  0  0  0  0  0  0
   54.7922   22.2009   45.4215 H   0  0  0  0  0  0  0  0  0  0  0  0
   56.1510   22.8760   43.8730 C   0  0  0  0  0  0  0  0  0  0  0  0
   55.9130   21.7810   43.0510 O   0  0  0  0  0  0  0  0  0  0  0  0
   57.0400   23.8760   43.4650 C   0  0  0  0  0  0  0  0  0  0  0  0
   57.5495   23.7950   42.4935 H   0  0  0  0  0  0  0  0  0  0  0  0
   57.2820   24.9790   44.2910 C   0  0  0  0  0  0  0  0  0  0  0  0
   57.9703   25.7708   43.9604 H   0  0  0  0  0  0  0  0  0  0  0  0
   57.9160   28.2350   46.4870 N   0  0  0  0  0  0  0  0  0  0  0  0
   58.0020   29.5400   46.1250 C   0  0  0  0  0  0  0  0  0  0  0  0
   59.0140   30.2470   46.5360 N   0  0  0  0  0  0  0  0  0  0  0  0
   59.0720   31.6770   46.6710 C   0  0  0  0  0  0  0  0  0  0  0  0
   58.7440   32.5420   45.6090 C   0  0  0  0  0  0  0  0  0  0  0  0
   58.4602   32.1262   44.6309 H   0  0  0  0  0  0  0  0  0  0  0  0
   58.7780   33.9280   45.7940 C   0  0  0  0  0  0  0  0  0  0  0  0
   58.4660   34.7570   44.7660 F   0  0  0  0  0  0  0  0  0  0  0  0
   59.1210   34.4610   47.0400 C   0  0  0  0  0  0  0  0  0  0  0  0
   59.1587   35.5513   47.1805 H   0  0  0  0  0  0  0  0  0  0  0  0
   59.4160   33.6080   48.1070 C   0  0  0  0  0  0  0  0  0  0  0  0
   59.7320   34.1240   49.3190 F   0  0  0  0  0  0  0  0  0  0  0  0
   59.3810   32.2220   47.9250 C   0  0  0  0  0  0  0  0  0  0  0  0
   59.5975   31.5545   48.7721 H   0  0  0  0  0  0  0  0  0  0  0  0
   57.0550   30.0710   45.3050 N   0  0  0  0  0  0  0  0  0  0  0  0
  1  2  1  0
  2  3  2  0
  3  4  1  0
  4  5  1  0
  5  6  2  3
  6  7  1  0
  7  8  2  0
  8  9  1  0
  8 10  1  0
 10 11  1  0
 10 12  2  0
 12 13  1  0
 12 14  1  0
 14 15  1  0
 14 16  2  0
 16 17  1  0
  5 18  1  0
 18 19  1  0
 19 20  2  0
 20 21  1  0
 21 22  2  0
 22 23  1  0
 22 24  1  0
 24 25  1  0
 24 26  2  0
 26 27  1  0
 26 28  1  0
 28 29  1  0
 28 30  2  0
 30 31  1  0
 19 32  1  0
 32  3  1  0
 16  7  1  0
 30 21  1  0
M  CHG  4   4  -1  13  -1  18  -1  32  -1
M  END
>  <UniqueID>  (92) 
87

>  <SMILES>  (92) 
[H]/N=c1\[n-]c(=Nc2ccc([O-])cc2)[n-]/c(=N/c2cc(F)cc(F)c2)[n-]1

>  <Energy>  (92) 
48.20901045054584

>  <Genealogy>  (92) 
N=c1[n-]c(=Nc2ccc([O-])cc2)[n-]c(=Nc2cc(F)cc(F)c2)[n-]1 (protonated)
[H]/N=c1\[n-]c(=Nc2ccc([O-])cc2)[n-]/c(=N/c2cc(F)cc(F)c2)[n-]1 (cis-trans isomerization)
[H]/N=c1\[n-]c(=Nc2ccc([O-])cc2)[n-]/c(=N/c2cc(F)cc(F)c2)[n-]1 (3D coordinates assigned)
[H]/N=c1\[n-]c(=Nc2ccc([O-])cc2)[n-]/c(=N/c2cc(F)cc(F)c2)[n-]1 (optimized conformer: 48.20901045054584 kcal/mol)

>  <smiles>  (92) 
N=c1[nH]c(=Nc2ccc(O)cc2)[nH]c(=Nc2cc(F)cc(F)c2)[nH]1

>  <score_type>  (92) 
oracle

>  <origin>  (92) 
adg

>  <m_score__min__energy>  (92) 
-13.789999999999999

>  <m_primary>  (92) 
energy

$$$$
92:0
     RDKit          3D

 44 47  0  0  0  0  0  0  0  0999 V2000
   55.1400   29.3280   44.4770 O   0  0  0  0  0  0  0  0  0  0  0  0
   56.3480   29.6090   44.7080 C   0  0  0  0  0  0  0  0  0  0  0  0
   56.7120   30.9230   45.1390 N   0  0  0  0  0  0  0  0  0  0  0  0
   57.4940   31.8440   44.3210 C   0  0  0  0  0  0  0  0  0  0  0  0
   58.0810   32.9290   45.1830 C   0  0  0  0  0  0  0  0  0  0  0  0
   58.7860   33.9920   44.5930 C   0  0  0  0  0  0  0  0  0  0  0  0
   59.3760   34.9750   45.3920 C   0  0  0  0  0  0  0  0  0  0  0  0
   59.2700   34.9040   46.7840 C   0  0  0  0  0  0  0  0  0  0  0  0
   58.5740   33.8480   47.3790 C   0  0  0  0  0  0  0  0  0  0  0  0
   57.9840   32.8620   46.5830 C   0  0  0  0  0  0  0  0  0  0  0  0
   57.3880   28.5850   44.5300 C   0  0  0  0  0  0  0  0  0  0  0  0
   57.7650   28.2830   43.3660 O   0  0  0  0  0  0  0  0  0  0  0  0
   58.0010   27.9050   45.6880 C   0  0  0  0  0  0  0  0  0  0  0  0
   57.9190   26.5470   46.0230 C   0  0  0  0  0  0  0  0  0  0  0  0
   57.0850   25.5200   45.3580 C   0  0  0  0  0  0  0  0  0  0  0  0
   55.8820   25.1010   45.9530 C   0  0  0  0  0  0  0  0  0  0  0  0
   55.0810   24.1420   45.3260 C   0  0  0  0  0  0  0  0  0  0  0  0
   55.4670   23.6020   44.0970 C   0  0  0  0  0  0  0  0  0  0  0  0
   56.6530   24.0220   43.4900 C   0  0  0  0  0  0  0  0  0  0  0  0
   57.4570   24.9800   44.1140 C   0  0  0  0  0  0  0  0  0  0  0  0
   58.7110   26.2760   47.0880 N   0  0  0  0  0  0  0  0  0  0  0  0
   59.2930   27.4390   47.4280 C   0  0  0  0  0  0  0  0  0  0  0  0
   60.2160   27.6480   48.4510 C   0  0  0  0  0  0  0  0  0  0  0  0
   60.7470   28.9410   48.6060 C   0  0  0  0  0  0  0  0  0  0  0  0
   60.3560   29.9820   47.7370 C   0  0  0  0  0  0  0  0  0  0  0  0
   59.4250   29.7420   46.7100 C   0  0  0  0  0  0  0  0  0  0  0  0
   58.8930   28.4550   46.5950 C   0  0  0  0  0  0  0  0  0  0  0  0
   58.3070   31.2917   43.8271 H   0  0  0  0  0  0  0  0  0  0  0  0
   56.8383   32.2998   43.5645 H   0  0  0  0  0  0  0  0  0  0  0  0
   58.8737   34.0505   43.4981 H   0  0  0  0  0  0  0  0  0  0  0  0
   59.9247   35.8060   44.9248 H   0  0  0  0  0  0  0  0  0  0  0  0
   59.7344   35.6792   47.4112 H   0  0  0  0  0  0  0  0  0  0  0  0
   58.4905   33.7928   48.4744 H   0  0  0  0  0  0  0  0  0  0  0  0
   57.4412   32.0297   47.0549 H   0  0  0  0  0  0  0  0  0  0  0  0
   55.5695   25.5299   46.9166 H   0  0  0  0  0  0  0  0  0  0  0  0
   54.1454   23.8122   45.8012 H   0  0  0  0  0  0  0  0  0  0  0  0
   54.8366   22.8455   43.6068 H   0  0  0  0  0  0  0  0  0  0  0  0
   56.9543   23.5986   42.5205 H   0  0  0  0  0  0  0  0  0  0  0  0
   58.3863   25.3136   43.6291 H   0  0  0  0  0  0  0  0  0  0  0  0
   58.8410   25.3530   47.5610 H   0  0  0  0  0  0  0  0  0  0  0  0
   60.5199   26.8268   49.1168 H   0  0  0  0  0  0  0  0  0  0  0  0
   61.4712   29.1421   49.4091 H   0  0  0  0  0  0  0  0  0  0  0  0
   60.7822   30.9881   47.8636 H   0  0  0  0  0  0  0  0  0  0  0  0
   59.1249   30.5431   46.0185 H   0  0  0  0  0  0  0  0  0  0  0  0
  1  2  2  0
  2  3  1  0
  3  4  1  0
  4  5  1  0
  5  6  2  0
  6  7  1  0
  7  8  2  0
  8  9  1  0
  9 10  2  0
  2 11  1  0
 11 12  2  0
 11 13  1  0
 13 14  2  0
 14 15  1  0
 15 16  2  0
 16 17  1  0
 17 18  2  0
 18 19  1  0
 19 20  2  0
 14 21  1  0
 21 22  1  0
 22 23  2  0
 23 24  1  0
 24 25  2  0
 25 26  1  0
 26 27  2  0
 10  5  1  0
 27 13  1  0
 20 15  1  0
 27 22  1  0
  4 28  1  0
  4 29  1  0
  6 30  1  0
  7 31  1  0
  8 32  1  0
  9 33  1  0
 10 34  1  0
 16 35  1  0
 17 36  1  0
 18 37  1  0
 19 38  1  0
 20 39  1  0
 21 40  1  0
 23 41  1  0
 24 42  1  0
 25 43  1  0
 26 44  1  0
M  CHG  1   3  -1
M  END
>  <UniqueID>  (93) 
88

>  <SMILES>  (93) 
O=C([N-]Cc1ccccc1)C(=O)c1c(-c2ccccc2)[nH]c2ccccc12

>  <Energy>  (93) 
86.88174646047638

>  <Genealogy>  (93) 
O=C([N-]Cc1ccccc1)C(=O)c1c(-c2ccccc2)[nH]c2ccccc12 (protonated)
O=C([N-]Cc1ccccc1)C(=O)c1c(-c2ccccc2)[nH]c2ccccc12 (3D coordinates assigned)
O=C([N-]Cc1ccccc1)C(=O)c1c(-c2ccccc2)[nH]c2ccccc12 (optimized conformer: 86.88174646047638 kcal/mol)

>  <smiles>  (93) 
O=C(NCc1ccccc1)C(=O)c1c(-c2ccccc2)[nH]c2ccccc12

>  <score_type>  (93) 
oracle

>  <origin>  (93) 
adg

>  <m_score__min__energy>  (93) 
-10.4

>  <m_primary>  (93) 
energy

$$$$
93:0
     RDKit          3D

 53 56  0  0  0  0  0  0  0  0999 V2000
   59.6530   35.8420   45.6760 C   0  0  0  0  0  0  0  0  0  0  0  0
   59.2490   34.5130   46.1280 N   0  0  0  0  0  0  0  0  0  0  0  0
   59.2280   34.0260   47.3930 C   0  0  0  0  0  0  0  0  0  0  0  0
   59.6460   34.6660   48.3950 O   0  0  0  0  0  0  0  0  0  0  0  0
   58.7150   32.8120   47.4720 O   0  0  0  0  0  0  0  0  0  0  0  0
   58.3750   32.4940   46.2450 C   0  0  0  0  0  0  0  0  0  0  0  0
   57.7700   31.3280   45.7870 C   0  0  0  0  0  0  0  0  0  0  0  0
   57.4650   31.2440   44.4100 C   0  0  0  0  0  0  0  0  0  0  0  0
   56.6350   29.8350   43.7600 S   0  0  0  0  0  0  0  0  0  0  0  0
   55.2340   29.8040   44.3010 O   0  0  0  0  0  0  0  0  0  0  0  0
   56.5670   29.8930   42.2590 O   0  0  0  0  0  0  0  0  0  0  0  0
   57.4660   28.3940   44.2530 N   0  0  0  0  0  0  0  0  0  0  0  0
   58.1840   28.2350   45.4840 C   0  0  0  0  0  0  0  0  0  0  0  0
   59.5170   28.6640   45.5460 C   0  0  0  0  0  0  0  0  0  0  0  0
   60.2580   28.5130   46.7210 C   0  0  0  0  0  0  0  0  0  0  0  0
   59.6720   27.9490   47.8690 C   0  0  0  0  0  0  0  0  0  0  0  0
   60.4800   27.7800   49.1070 C   0  0  0  0  0  0  0  0  0  0  0  0
   61.1230   26.7020   49.2700 O   0  0  0  0  0  0  0  0  0  0  0  0
   60.5020   28.7900   50.1470 N   0  0  1  0  0  0  0  0  0  0  0  0
   61.9010   29.0600   50.5230 C   0  0  0  0  0  0  0  0  0  0  0  0
   59.8170   30.0200   49.6860 C   0  0  0  0  0  0  0  0  0  0  0  0
   60.8000   31.0790   49.2490 C   0  0  0  0  0  0  0  0  0  0  0  0
   61.3720   31.0230   47.9660 C   0  0  0  0  0  0  0  0  0  0  0  0
   62.2530   32.0240   47.5420 C   0  0  0  0  0  0  0  0  0  0  0  0
   62.5630   33.0910   48.3910 C   0  0  0  0  0  0  0  0  0  0  0  0
   63.4070   34.0640   47.9740 F   0  0  0  0  0  0  0  0  0  0  0  0
   61.9930   33.1540   49.6680 C   0  0  0  0  0  0  0  0  0  0  0  0
   61.1200   32.1500   50.1000 C   0  0  0  0  0  0  0  0  0  0  0  0
   58.3360   27.5140   47.8010 C   0  0  0  0  0  0  0  0  0  0  0  0
   57.5990   27.6580   46.6220 C   0  0  0  0  0  0  0  0  0  0  0  0
   57.7860   32.3210   43.5460 C   0  0  0  0  0  0  0  0  0  0  0  0
   58.4040   33.4820   44.0420 C   0  0  0  0  0  0  0  0  0  0  0  0
   58.6870   33.5270   45.4070 C   0  0  0  0  0  0  0  0  0  0  0  0
   59.8477   36.4826   46.5487 H   0  0  0  0  0  0  0  0  0  0  0  0
   60.5671   35.7609   45.0694 H   0  0  0  0  0  0  0  0  0  0  0  0
   58.8484   36.2833   45.0694 H   0  0  0  0  0  0  0  0  0  0  0  0
   57.5372   30.5003   46.4730 H   0  0  0  0  0  0  0  0  0  0  0  0
   59.9837   29.1234   44.6622 H   0  0  0  0  0  0  0  0  0  0  0  0
   61.3086   28.8379   46.7487 H   0  0  0  0  0  0  0  0  0  0  0  0
   59.9870   28.4320   50.9850 H   0  0  0  0  0  0  0  0  0  0  0  0
   61.9893   29.0770   51.6193 H   0  0  0  0  0  0  0  0  0  0  0  0
   62.5492   28.2704   50.1152 H   0  0  0  0  0  0  0  0  0  0  0  0
   62.2088   30.0341   50.1152 H   0  0  0  0  0  0  0  0  0  0  0  0
   59.1649   29.7674   48.8369 H   0  0  0  0  0  0  0  0  0  0  0  0
   59.2331   30.4218   50.5272 H   0  0  0  0  0  0  0  0  0  0  0  0
   61.1259   30.1887   47.2926 H   0  0  0  0  0  0  0  0  0  0  0  0
   62.7024   31.9715   46.5394 H   0  0  0  0  0  0  0  0  0  0  0  0
   62.2324   33.9960   50.3341 H   0  0  0  0  0  0  0  0  0  0  0  0
   60.6831   32.1992   51.1083 H   0  0  0  0  0  0  0  0  0  0  0  0
   57.8667   27.0561   48.6842 H   0  0  0  0  0  0  0  0  0  0  0  0
   56.5538   27.3169   46.5858 H   0  0  0  0  0  0  0  0  0  0  0  0
   57.5486   32.2473   42.4745 H   0  0  0  0  0  0  0  0  0  0  0  0
   58.6549   34.3230   43.3789 H   0  0  0  0  0  0  0  0  0  0  0  0
  1  2  1  0
  2  3  1  0
  3  4  2  0
  3  5  1  0
  5  6  1  0
  6  7  2  0
  7  8  1  0
  8  9  1  0
  9 10  2  0
  9 11  2  0
  9 12  1  0
 12 13  1  0
 13 14  2  0
 14 15  1  0
 15 16  2  0
 16 17  1  0
 17 18  2  0
 17 19  1  0
 19 20  1  0
 19 21  1  0
 21 22  1  0
 22 23  2  0
 23 24  1  0
 24 25  2  0
 25 26  1  0
 25 27  1  0
 27 28  2  0
 16 29  1  0
 29 30  2  0
  8 31  2  0
 31 32  1  0
 32 33  2  0
 33  2  1  0
 33  6  1  0
 30 13  1  0
 28 22  1  0
  1 34  1  0
  1 35  1  0
  1 36  1  0
  7 37  1  0
 14 38  1  0
 15 39  1  0
 19 40  1  1
 20 41  1  0
 20 42  1  0
 20 43  1  0
 21 44  1  0
 21 45  1  0
 23 46  1  0
 24 47  1  0
 27 48  1  0
 28 49  1  0
 29 50  1  0
 30 51  1  0
 31 52  1  0
 32 53  1  0
M  CHG  2  12  -1  19   1
M  END
>  <UniqueID>  (94) 
89

>  <SMILES>  (94) 
Cn1c(=O)oc2cc(S(=O)(=O)[N-]c3ccc(C(=O)[N@@H+](C)Cc4ccc(F)cc4)cc3)ccc21

>  <Energy>  (94) 
107.15487581269814

>  <Genealogy>  (94) 
Cn1c(=O)oc2cc(S(=O)(=O)[N-]c3ccc(C(=O)[NH+](C)Cc4ccc(F)cc4)cc3)ccc21 (protonated)
Cn1c(=O)oc2cc(S(=O)(=O)[N-]c3ccc(C(=O)[N@@H+](C)Cc4ccc(F)cc4)cc3)ccc21 (chirality)
Cn1c(=O)oc2cc(S(=O)(=O)[N-]c3ccc(C(=O)[N@@H+](C)Cc4ccc(F)cc4)cc3)ccc21 (3D coordinates assigned)
Cn1c(=O)oc2cc(S(=O)(=O)[N-]c3ccc(C(=O)[N@@H+](C)Cc4ccc(F)cc4)cc3)ccc21 (optimized conformer: 107.15487581269814 kcal/mol)

>  <smiles>  (94) 
CN(Cc1ccc(F)cc1)C(=O)c1ccc(NS(=O)(=O)c2ccc3c(c2)oc(=O)n3C)cc1

>  <score_type>  (94) 
oracle

>  <origin>  (94) 
adg

>  <m_score__min__energy>  (94) 
-8.8499999999999996

>  <m_primary>  (94) 
energy

$$$$
94:0
     RDKit          3D

 64 68  0  0  0  0  0  0  0  0999 V2000
   62.9820   33.3790   49.4230 C   0  0  0  0  0  0  0  0  0  0  0  0
   61.8150   34.2150   49.9280 C   0  0  0  0  0  0  0  0  0  0  0  0
   60.5440   33.5840   49.5650 N   0  0  0  0  0  0  0  0  0  0  0  0
   59.5620   33.1140   50.3870 C   0  0  0  0  0  0  0  0  0  0  0  0
   59.6420   33.0640   51.8860 C   0  0  0  0  0  0  0  0  0  0  0  0
   58.7490   31.9680   52.4050 C   0  0  0  0  0  0  0  0  0  0  0  0
   57.3720   32.2040   52.5620 C   0  0  0  0  0  0  0  0  0  0  0  0
   56.5200   31.1690   52.9570 C   0  0  0  0  0  0  0  0  0  0  0  0
   57.0330   29.8860   53.1950 C   0  0  0  0  0  0  0  0  0  0  0  0
   56.1900   28.8450   53.5820 O   0  0  0  0  0  0  0  0  0  0  0  0
   58.4030   29.6470   53.0400 C   0  0  0  0  0  0  0  0  0  0  0  0
   59.2580   30.6810   52.6440 C   0  0  0  0  0  0  0  0  0  0  0  0
   58.5090   32.5800   49.7130 N   0  0  0  0  0  0  0  0  0  0  0  0
   58.8510   32.7490   48.4260 C   0  0  0  0  0  0  0  0  0  0  0  0
   58.1440   32.3290   47.3050 C   0  0  0  0  0  0  0  0  0  0  0  0
   58.7120   32.5680   46.0360 C   0  0  0  0  0  0  0  0  0  0  0  0
   57.9060   31.9670   44.5930 S   0  0  0  0  0  0  0  0  0  0  0  0
   56.4390   31.8090   44.8720 O   0  0  0  0  0  0  0  0  0  0  0  0
   58.0680   32.9300   43.4490 O   0  0  0  0  0  0  0  0  0  0  0  0
   58.5670   30.4130   44.1940 N   0  0  0  0  0  0  0  0  0  0  0  0
   58.3160   29.2130   44.9330 C   0  0  0  0  0  0  0  0  0  0  0  0
   59.3730   28.5690   45.5990 C   0  0  0  0  0  0  0  0  0  0  0  0
   59.1770   27.3380   46.2200 C   0  0  0  0  0  0  0  0  0  0  0  0
   57.9220   26.7370   46.1960 C   0  0  0  0  0  0  0  0  0  0  0  0
   56.8410   27.3770   45.5840 C   0  0  0  0  0  0  0  0  0  0  0  0
   55.5550   26.7490   45.6560 N   0  0  0  0  0  0  0  0  0  0  0  0
   55.3200   25.0670   46.0070 S   0  0  0  0  0  0  0  0  0  0  0  0
   53.8470   24.7670   45.9880 O   0  0  0  0  0  0  0  0  0  0  0  0
   55.8760   24.7600   47.3700 O   0  0  0  0  0  0  0  0  0  0  0  0
   56.1050   24.0670   44.7950 C   0  0  0  0  0  0  0  0  0  0  0  0
   57.4090   23.6040   44.8550 C   0  0  0  0  0  0  0  0  0  0  0  0
   57.7510   22.7970   43.7660 C   0  0  0  0  0  0  0  0  0  0  0  0
   56.7200   22.6310   42.8520 C   0  0  0  0  0  0  0  0  0  0  0  0
   55.3790   23.4880   43.3960 S   0  0  0  0  0  0  0  0  0  0  0  0
   57.0260   28.6140   44.9270 C   0  0  0  0  0  0  0  0  0  0  0  0
   55.9110   29.1830   44.2870 O   0  0  0  0  0  0  0  0  0  0  0  0
   55.8800   29.7200   42.9680 C   0  0  0  0  0  0  0  0  0  0  0  0
   59.9620   33.2260   45.9330 C   0  0  0  0  0  0  0  0  0  0  0  0
   60.6520   33.6350   47.0900 C   0  0  0  0  0  0  0  0  0  0  0  0
   60.0660   33.3630   48.3270 C   0  0  0  0  0  0  0  0  0  0  0  0
   63.5430   32.9772   50.2796 H   0  0  0  0  0  0  0  0  0  0  0  0
   62.6003   32.5476   48.8122 H   0  0  0  0  0  0  0  0  0  0  0  0
   63.6463   34.0079   48.8122 H   0  0  0  0  0  0  0  0  0  0  0  0
   61.8776   34.3018   51.0228 H   0  0  0  0  0  0  0  0  0  0  0  0
   61.8637   35.2129   49.4678 H   0  0  0  0  0  0  0  0  0  0  0  0
   60.6801   32.8649   52.1905 H   0  0  0  0  0  0  0  0  0  0  0  0
   59.3142   34.0285   52.3010 H   0  0  0  0  0  0  0  0  0  0  0  0
   56.9634   33.2077   52.3731 H   0  0  0  0  0  0  0  0  0  0  0  0
   55.4441   31.3614   53.0815 H   0  0  0  0  0  0  0  0  0  0  0  0
   56.1430   28.5360   54.5470 H   0  0  0  0  0  0  0  0  0  0  0  0
   58.8091   28.6426   53.2302 H   0  0  0  0  0  0  0  0  0  0  0  0
   60.3332   30.4853   52.5193 H   0  0  0  0  0  0  0  0  0  0  0  0
   57.1711   31.8255   47.4046 H   0  0  0  0  0  0  0  0  0  0  0  0
   60.3655   29.0423   45.6300 H   0  0  0  0  0  0  0  0  0  0  0  0
   60.0149   26.8402   46.7300 H   0  0  0  0  0  0  0  0  0  0  0  0
   57.7799   25.7509   46.6622 H   0  0  0  0  0  0  0  0  0  0  0  0
   58.1027   23.8459   45.6737 H   0  0  0  0  0  0  0  0  0  0  0  0
   58.7430   22.3373   43.6450 H   0  0  0  0  0  0  0  0  0  0  0  0
   56.7713   22.0382   41.9268 H   0  0  0  0  0  0  0  0  0  0  0  0
   55.8167   30.8169   43.0201 H   0  0  0  0  0  0  0  0  0  0  0  0
   56.7963   29.4306   42.4327 H   0  0  0  0  0  0  0  0  0  0  0  0
   55.0030   29.3271   42.4327 H   0  0  0  0  0  0  0  0  0  0  0  0
   60.3971   33.4190   44.9413 H   0  0  0  0  0  0  0  0  0  0  0  0
   61.6207   34.1517   47.0213 H   0  0  0  0  0  0  0  0  0  0  0  0
  1  2  1  0
  2  3  1  0
  3  4  1  0
  4  5  1  0
  5  6  1  0
  6  7  2  0
  7  8  1  0
  8  9  2  0
  9 10  1  0
  9 11  1  0
 11 12  2  0
  4 13  2  0
 13 14  1  0
 14 15  2  0
 15 16  1  0
 16 17  1  0
 17 18  2  0
 17 19  2  0
 17 20  1  0
 20 21  1  0
 21 22  2  0
 22 23  1  0
 23 24  2  0
 24 25  1  0
 25 26  1  0
 26 27  1  0
 27 28  2  0
 27 29  2  0
 27 30  1  0
 30 31  2  0
 31 32  1  0
 32 33  2  0
 33 34  1  0
 25 35  2  0
 35 36  1  0
 36 37  1  0
 16 38  2  0
 38 39  1  0
 39 40  2  0
 40  3  1  0
 12  6  1  0
 40 14  1  0
 35 21  1  0
 34 30  1  0
  1 41  1  0
  1 42  1  0
  1 43  1  0
  2 44  1  0
  2 45  1  0
  5 46  1  0
  5 47  1  0
  7 48  1  0
  8 49  1  0
 10 50  1  0
 11 51  1  0
 12 52  1  0
 15 53  1  0
 22 54  1  0
 23 55  1  0
 24 56  1  0
 31 57  1  0
 32 58  1  0
 33 59  1  0
 37 60  1  0
 37 61  1  0
 37 62  1  0
 38 63  1  0
 39 64  1  0
M  CHG  2  20  -1  26  -1
M  END
>  <UniqueID>  (95) 
90

>  <SMILES>  (95) 
CCn1c(Cc2ccc(O)cc2)nc2cc(S(=O)(=O)[N-]c3cccc([N-]S(=O)(=O)c4cccs4)c3OC)ccc21

>  <Energy>  (95) 
137.62451853449124

>  <Genealogy>  (95) 
CCn1c(Cc2ccc(O)cc2)nc2cc(S(=O)(=O)[N-]c3cccc([N-]S(=O)(=O)c4cccs4)c3OC)ccc21 (protonated)
CCn1c(Cc2ccc(O)cc2)nc2cc(S(=O)(=O)[N-]c3cccc([N-]S(=O)(=O)c4cccs4)c3OC)ccc21 (3D coordinates assigned)
CCn1c(Cc2ccc(O)cc2)nc2cc(S(=O)(=O)[N-]c3cccc([N-]S(=O)(=O)c4cccs4)c3OC)ccc21 (optimized conformer: 137.62451853449124 kcal/mol)

>  <smiles>  (95) 
CCn1c(Cc2ccc(O)cc2)nc2cc(S(=O)(=O)Nc3cccc(NS(=O)(=O)c4cccs4)c3OC)ccc21

>  <score_type>  (95) 
oracle

>  <origin>  (95) 
adg

>  <m_score__min__energy>  (95) 
-14.01

>  <m_primary>  (95) 
energy

$$$$
95:0
     RDKit          3D

 58 62  0  0  0  0  0  0  0  0999 V2000
   56.7720   28.8070   44.7780 C   0  0  0  0  0  0  0  0  0  0  0  0
   58.1360   29.0450   45.3730 C   0  0  0  0  0  0  0  0  0  0  0  0
   58.5460   30.3710   45.6010 C   0  0  0  0  0  0  0  0  0  0  0  0
   59.7940   30.6580   46.1750 C   0  0  0  0  0  0  0  0  0  0  0  0
   60.1940   32.0650   46.4200 C   0  0  0  0  0  0  0  0  0  0  0  0
   59.3340   32.9820   46.3120 O   0  0  0  0  0  0  0  0  0  0  0  0
   61.5500   32.4000   46.7620 N   0  0  0  0  0  0  0  0  0  0  0  0
   61.9250   33.7250   47.2470 C   0  0  0  0  0  0  0  0  0  0  0  0
   62.5690   33.6190   48.6030 C   0  0  0  0  0  0  0  0  0  0  0  0
   61.8210   33.8490   49.7700 C   0  0  0  0  0  0  0  0  0  0  0  0
   62.4210   33.7220   51.0260 C   0  0  0  0  0  0  0  0  0  0  0  0
   63.7670   33.3570   51.1270 C   0  0  0  0  0  0  0  0  0  0  0  0
   64.5170   33.1190   49.9700 C   0  0  0  0  0  0  0  0  0  0  0  0
   66.2030   32.6550   50.0970 Cl  0  0  0  0  0  0  0  0  0  0  0  0
   63.9180   33.2470   48.7110 C   0  0  0  0  0  0  0  0  0  0  0  0
   60.6320   29.5960   46.5400 C   0  0  0  0  0  0  0  0  0  0  0  0
   60.2470   28.2760   46.3080 C   0  0  0  0  0  0  0  0  0  0  0  0
   59.0100   27.9770   45.7100 C   0  0  0  0  0  0  0  0  0  0  0  0
   58.6660   26.5540   45.4570 C   0  0  0  0  0  0  0  0  0  0  0  0
   59.0110   25.5330   46.2760 N   0  0  0  0  0  0  0  0  0  0  0  0
   58.5510   24.3320   45.8330 C   0  0  0  0  0  0  0  0  0  0  0  0
   57.8310   24.3880   44.6460 C   0  0  0  0  0  0  0  0  0  0  0  0
   57.1800   23.2290   43.9540 C   0  0  0  0  0  0  0  0  0  0  0  0
   56.9070   22.1050   44.9280 C   0  0  0  0  0  0  0  0  0  0  0  0
   57.9050   21.1330   45.1240 C   0  0  0  0  0  0  0  0  0  0  0  0
   57.7130   20.0850   46.0240 C   0  0  0  0  0  0  0  0  0  0  0  0
   56.5250   19.9920   46.7450 C   0  0  0  0  0  0  0  0  0  0  0  0
   55.5270   20.9520   46.5760 C   0  0  0  0  0  0  0  0  0  0  0  0
   55.7050   22.0260   45.6840 C   0  0  0  0  0  0  0  0  0  0  0  0
   54.5810   23.0240   45.5290 C   0  0  0  0  0  0  0  0  0  0  0  0
   55.0010   24.3710   46.0250 C   0  0  0  0  0  0  0  0  0  0  0  0
   55.9500   24.5760   46.9550 N   0  0  0  0  0  0  0  0  0  0  0  0
   56.0050   25.8910   47.0920 N   0  0  0  0  0  0  0  0  0  0  0  0
   55.1310   26.4630   46.2800 N   0  0  0  0  0  0  0  0  0  0  0  0
   54.4830   25.5350   45.5940 N   0  0  0  0  0  0  0  0  0  0  0  0
   57.7540   25.9940   44.1530 S   0  0  0  0  0  0  0  0  0  0  0  0
   56.0368   28.6787   45.5861 H   0  0  0  0  0  0  0  0  0  0  0  0
   56.4874   29.6691   44.1568 H   0  0  0  0  0  0  0  0  0  0  0  0
   56.7962   27.8995   44.1568 H   0  0  0  0  0  0  0  0  0  0  0  0
   57.8760   31.1984   45.3243 H   0  0  0  0  0  0  0  0  0  0  0  0
   62.3090   31.6960   46.6250 H   0  0  0  0  0  0  0  0  0  0  0  0
   62.6351   34.1824   46.5423 H   0  0  0  0  0  0  0  0  0  0  0  0
   61.0213   34.3472   47.3265 H   0  0  0  0  0  0  0  0  0  0  0  0
   60.7601   34.1298   49.6949 H   0  0  0  0  0  0  0  0  0  0  0  0
   61.8332   33.9095   51.9367 H   0  0  0  0  0  0  0  0  0  0  0  0
   64.2366   33.2569   52.1167 H   0  0  0  0  0  0  0  0  0  0  0  0
   64.5074   33.0551   47.8023 H   0  0  0  0  0  0  0  0  0  0  0  0
   61.6024   29.8055   47.0138 H   0  0  0  0  0  0  0  0  0  0  0  0
   60.9211   27.4563   46.5971 H   0  0  0  0  0  0  0  0  0  0  0  0
   58.7345   23.3908   46.3719 H   0  0  0  0  0  0  0  0  0  0  0  0
   56.2294   23.5612   43.5114 H   0  0  0  0  0  0  0  0  0  0  0  0
   57.8590   22.8596   43.1714 H   0  0  0  0  0  0  0  0  0  0  0  0
   58.8476   21.2003   44.5610 H   0  0  0  0  0  0  0  0  0  0  0  0
   58.5011   19.3306   46.1646 H   0  0  0  0  0  0  0  0  0  0  0  0
   56.3734   19.1603   47.4488 H   0  0  0  0  0  0  0  0  0  0  0  0
   54.5902   20.8686   47.1465 H   0  0  0  0  0  0  0  0  0  0  0  0
   54.3082   23.0991   44.4660 H   0  0  0  0  0  0  0  0  0  0  0  0
   53.7187   22.6815   46.1198 H   0  0  0  0  0  0  0  0  0  0  0  0
  1  2  1  0
  2  3  2  0
  3  4  1  0
  4  5  1  0
  5  6  2  0
  5  7  1  0
  7  8  1  0
  8  9  1  0
  9 10  2  0
 10 11  1  0
 11 12  2  0
 12 13  1  0
 13 14  1  0
 13 15  2  0
  4 16  2  0
 16 17  1  0
 17 18  2  0
 18 19  1  0
 19 20  2  0
 20 21  1  0
 21 22  2  0
 22 23  1  0
 23 24  1  0
 24 25  2  0
 25 26  1  0
 26 27  2  0
 27 28  1  0
 28 29  2  0
 29 30  1  0
 30 31  1  0
 31 32  1  0
 32 33  2  0
 33 34  1  0
 34 35  1  0
 22 36  1  0
 18  2  1  0
 36 19  1  0
 15  9  1  0
 29 24  1  0
 35 31  2  0
  1 37  1  0
  1 38  1  0
  1 39  1  0
  3 40  1  0
  7 41  1  0
  8 42  1  0
  8 43  1  0
 10 44  1  0
 11 45  1  0
 12 46  1  0
 15 47  1  0
 16 48  1  0
 17 49  1  0
 21 50  1  0
 23 51  1  0
 23 52  1  0
 25 53  1  0
 26 54  1  0
 27 55  1  0
 28 56  1  0
 30 57  1  0
 30 58  1  0
M  CHG  1  34  -1
M  END
>  <UniqueID>  (96) 
91

>  <SMILES>  (96) 
Cc1cc(C(=O)NCc2cccc(Cl)c2)ccc1-c1ncc(Cc2ccccc2Cc2nn[n-]n2)s1

>  <Energy>  (96) 
135.15246354176233

>  <Genealogy>  (96) 
Cc1cc(C(=O)NCc2cccc(Cl)c2)ccc1-c1ncc(Cc2ccccc2Cc2nn[n-]n2)s1 (protonated)
Cc1cc(C(=O)NCc2cccc(Cl)c2)ccc1-c1ncc(Cc2ccccc2Cc2nn[n-]n2)s1 (3D coordinates assigned)
Cc1cc(C(=O)NCc2cccc(Cl)c2)ccc1-c1ncc(Cc2ccccc2Cc2nn[n-]n2)s1 (optimized conformer: 135.15246354176233 kcal/mol)

>  <smiles>  (96) 
Cc1cc(C(=O)NCc2cccc(Cl)c2)ccc1-c1ncc(Cc2ccccc2Cc2nn[nH]n2)s1

>  <score_type>  (96) 
oracle

>  <origin>  (96) 
adg

>  <m_score__min__energy>  (96) 
-12.25

>  <m_primary>  (96) 
energy

$$$$
