0:0
     RDKit          3D

 53 57  0  0  0  0  0  0  0  0999 V2000
   59.6650   25.9500   46.2140 O   0  0  0  0  0  0  0  0  0  0  0  0
   58.6110   26.5780   46.5070 C   0  0  0  0  0  0  0  0  0  0  0  0
   57.4610   25.8740   46.9930 N   0  0  0  0  0  0  0  0  0  0  0  0
   56.5790   25.0750   46.1940 C   0  0  0  0  0  0  0  0  0  0  0  0
   57.0160   23.8110   45.7750 C   0  0  0  0  0  0  0  0  0  0  0  0
   56.1880   22.9930   44.9970 C   0  0  0  0  0  0  0  0  0  0  0  0
   56.7580   21.4200   44.4460 S   0  0  0  0  0  0  0  0  0  0  0  0
   58.2610   21.3950   44.4750 O   0  0  0  0  0  0  0  0  0  0  0  0
   56.2860   21.2120   43.0340 O   0  0  0  0  0  0  0  0  0  0  0  0
   56.1160   20.1660   45.4880 N   0  0  0  0  0  0  0  0  0  0  0  0
   55.2660   20.7250   46.5640 C   0  0  0  0  0  0  0  0  0  0  0  0
   56.0040   20.8300   47.9120 C   0  0  0  0  0  0  0  0  0  0  0  0
   57.3700   21.1060   47.7000 O   0  0  0  0  0  0  0  0  0  0  0  0
   58.0130   19.9840   47.1200 C   0  0  0  0  0  0  0  0  0  0  0  0
   57.1820   19.2940   46.0120 C   0  0  0  0  0  0  0  0  0  0  0  0
   54.9090   23.4410   44.6400 C   0  0  0  0  0  0  0  0  0  0  0  0
   54.4530   24.6840   45.0850 C   0  0  0  0  0  0  0  0  0  0  0  0
   55.2730   25.4970   45.8720 C   0  0  0  0  0  0  0  0  0  0  0  0
   54.7720   26.7000   46.3540 O   0  0  0  0  0  0  0  0  0  0  0  0
   58.5630   28.0450   46.3280 C   0  0  0  0  0  0  0  0  0  0  0  0
   57.8490   28.5490   45.2300 C   0  0  0  0  0  0  0  0  0  0  0  0
   57.7010   29.9290   45.0590 C   0  0  0  0  0  0  0  0  0  0  0  0
   56.9490   30.4720   43.8790 C   0  0  0  0  0  0  0  0  0  0  0  0
   55.5030   30.0070   43.7670 C   0  0  0  0  0  0  0  0  0  0  0  0
   56.5590   29.4300   42.8400 C   0  0  0  0  0  0  0  0  0  0  0  0
   58.2870   30.7850   45.9370 N   0  0  0  0  0  0  0  0  0  0  0  0
   59.0080   30.3470   47.0010 C   0  0  0  0  0  0  0  0  0  0  0  0
   59.5940   31.2790   47.8640 C   0  0  0  0  0  0  0  0  0  0  0  0
   60.3680   30.8480   48.9420 C   0  0  0  0  0  0  0  0  0  0  0  0
   60.5720   29.4840   49.1560 C   0  0  0  0  0  0  0  0  0  0  0  0
   59.9910   28.5420   48.3020 C   0  0  0  0  0  0  0  0  0  0  0  0
   59.1790   28.9560   47.2240 C   0  0  0  0  0  0  0  0  0  0  0  0
   58.0183   23.4586   46.0599 H   0  0  0  0  0  0  0  0  0  0  0  0
   54.9356   21.7306   46.2646 H   0  0  0  0  0  0  0  0  0  0  0  0
   54.4154   20.0416   46.7037 H   0  0  0  0  0  0  0  0  0  0  0  0
   55.5581   21.6399   48.5080 H   0  0  0  0  0  0  0  0  0  0  0  0
   55.9104   19.8737   48.4474 H   0  0  0  0  0  0  0  0  0  0  0  0
   58.9656   20.3175   46.6827 H   0  0  0  0  0  0  0  0  0  0  0  0
   58.1550   19.2449   47.9223 H   0  0  0  0  0  0  0  0  0  0  0  0
   57.8535   19.0200   45.1849 H   0  0  0  0  0  0  0  0  0  0  0  0
   56.7047   18.4063   46.4526 H   0  0  0  0  0  0  0  0  0  0  0  0
   54.2634   22.8130   44.0085 H   0  0  0  0  0  0  0  0  0  0  0  0
   53.4427   25.0248   44.8144 H   0  0  0  0  0  0  0  0  0  0  0  0
   57.4040   27.8558   44.5010 H   0  0  0  0  0  0  0  0  0  0  0  0
   57.4574   31.4472   43.8573 H   0  0  0  0  0  0  0  0  0  0  0  0
   55.0640   29.3808   44.5577 H   0  0  0  0  0  0  0  0  0  0  0  0
   54.5340   30.5079   43.6254 H   0  0  0  0  0  0  0  0  0  0  0  0
   56.8842   28.3860   42.9595 H   0  0  0  0  0  0  0  0  0  0  0  0
   56.6706   29.3403   41.7494 H   0  0  0  0  0  0  0  0  0  0  0  0
   59.4441   32.3551   47.6922 H   0  0  0  0  0  0  0  0  0  0  0  0
   60.8180   31.5843   49.6241 H   0  0  0  0  0  0  0  0  0  0  0  0
   61.1925   29.1488   50.0002 H   0  0  0  0  0  0  0  0  0  0  0  0
   60.1680   27.4696   48.4714 H   0  0  0  0  0  0  0  0  0  0  0  0
  1  2  2  0
  2  3  1  0
  3  4  1  0
  4  5  2  0
  5  6  1  0
  6  7  1  0
  7  8  2  0
  7  9  2  0
  7 10  1  0
 10 11  1  0
 11 12  1  0
 12 13  1  0
 13 14  1  0
 14 15  1  0
  6 16  2  0
 16 17  1  0
 17 18  2  0
 18 19  1  0
  2 20  1  0
 20 21  2  0
 21 22  1  0
 22 23  1  0
 23 24  1  0
 24 25  1  0
 22 26  2  0
 26 27  1  0
 27 28  2  0
 28 29  1  0
 29 30  2  0
 30 31  1  0
 31 32  2  0
 18  4  1  0
 32 20  1  0
 15 10  1  0
 25 23  1  0
 32 27  1  0
  5 33  1  0
 11 34  1  0
 11 35  1  0
 12 36  1  0
 12 37  1  0
 14 38  1  0
 14 39  1  0
 15 40  1  0
 15 41  1  0
 16 42  1  0
 17 43  1  0
 21 44  1  0
 23 45  1  0
 24 46  1  0
 24 47  1  0
 25 48  1  0
 25 49  1  0
 28 50  1  0
 29 51  1  0
 30 52  1  0
 31 53  1  0
M  CHG  2   3  -1  19  -1
M  END
>  <UniqueID>  (1) 
1

>  <SMILES>  (1) 
O=C([N-]c1cc(S(=O)(=O)N2CCOCC2)ccc1[O-])c1cc(C2CC2)nc2ccccc12

>  <Energy>  (1) 
347.3582985738458

>  <Genealogy>  (1) 
O=C([N-]c1cc(S(=O)(=O)N2CCOCC2)ccc1[O-])c1cc(C2CC2)nc2ccccc12 (protonated)
O=C([N-]c1cc(S(=O)(=O)N2CCOCC2)ccc1[O-])c1cc(C2CC2)nc2ccccc12 (3D coordinates assigned)
O=C([N-]c1cc(S(=O)(=O)N2CCOCC2)ccc1[O-])c1cc(C2CC2)nc2ccccc12 (nonaromatic ring conformer: 347.3582985738458 kcal/mol)

>  <smiles>  (1) 
O=C(Nc1cc(S(=O)(=O)N2CCOCC2)ccc1O)c1cc(C2CC2)nc2ccccc12

>  <score_type>  (1) 
oracle

>  <origin>  (1) 
adg

>  <m_score__min__energy>  (1) 
-14.119999999999999

>  <m_primary>  (1) 
energy

$$$$
1:0
     RDKit          3D

 50 52  0  0  1  0  0  0  0  0999 V2000
   59.2710   33.1160   50.7960 C   0  0  0  0  0  0  0  0  0  0  0  0
   59.6590   34.2300   50.0290 O   0  0  0  0  0  0  0  0  0  0  0  0
   60.2630   34.0270   48.7910 C   0  0  0  0  0  0  0  0  0  0  0  0
   59.5480   34.1060   47.6090 C   0  0  0  0  0  0  0  0  0  0  0  0
   60.1460   33.9030   46.3740 C   0  0  0  0  0  0  0  0  0  0  0  0
   59.4390   33.9870   45.3000 N   0  0  0  0  0  0  0  0  0  0  0  0
   57.8180   33.3510   45.2550 S   0  0  0  0  0  0  0  0  0  0  0  0
   57.0250   34.0170   44.1490 O   0  0  0  0  0  0  0  0  0  0  0  0
   57.1260   33.5260   46.5910 O   0  0  0  0  0  0  0  0  0  0  0  0
   57.9070   31.6320   44.9310 C   0  0  0  0  0  0  0  0  0  0  0  0
   58.1210   30.9790   43.7360 C   0  0  0  0  0  0  0  0  0  0  0  0
   58.1090   29.6530   43.9540 N   0  0  0  0  0  0  0  0  0  0  0  0
   57.8930   29.4230   45.2610 C   0  0  0  0  0  0  0  0  0  0  0  0
   57.7960   28.1570   45.9810 C   0  0  0  0  0  0  0  0  0  0  0  0
   58.3110   27.9740   47.1210 O   0  0  0  0  0  0  0  0  0  0  0  0
   57.1000   27.0370   45.4280 N   0  0  0  0  0  0  0  0  0  0  0  0
   57.0670   25.8340   46.2250 C   0  0  0  0  0  0  0  0  0  0  0  0
   57.0140   24.6030   45.4140 C   0  0  0  0  0  0  0  0  0  0  0  0
   55.9210   24.4230   44.5610 C   0  0  0  0  0  0  0  0  0  0  0  0
   55.7680   23.3300   43.7670 C   0  0  0  0  0  0  0  0  0  0  0  0
   56.7180   22.3510   43.7940 C   0  0  0  0  0  0  0  0  0  0  0  0
   56.5900   21.2290   43.0000 O   0  0  0  0  0  0  0  0  0  0  0  0
   57.8100   22.4950   44.6240 C   0  0  0  0  0  0  0  0  0  0  0  0
   58.7620   21.4870   44.6330 O   0  0  0  0  0  0  0  0  0  0  0  0
   57.9750   23.6150   45.4430 C   0  0  0  0  0  0  0  0  0  0  0  0
   57.7650   30.6500   45.8760 C   0  0  0  0  0  0  0  0  0  0  0  0
   61.4630   33.6250   46.3820 N   0  0  0  0  0  0  0  0  0  0  0  0
   62.1750   33.5440   47.5260 C   0  0  0  0  0  0  0  0  0  0  0  0
   63.5290   33.2590   47.5600 O   0  0  0  0  0  0  0  0  0  0  0  0
   64.0450   32.4540   48.6230 C   0  0  0  0  0  0  0  0  0  0  0  0
   61.5780   33.7440   48.7360 N   0  0  0  0  0  0  0  0  0  0  0  0
   59.3558   33.3596   51.8653 H   0  0  0  0  0  0  0  0  0  0  0  0
   58.2287   32.8542   50.5611 H   0  0  0  0  0  0  0  0  0  0  0  0
   59.9251   32.2634   50.5611 H   0  0  0  0  0  0  0  0  0  0  0  0
   58.4732   34.3367   47.6499 H   0  0  0  0  0  0  0  0  0  0  0  0
   58.2765   31.4648   42.7614 H   0  0  0  0  0  0  0  0  0  0  0  0
   58.2450   28.9030   43.2310 H   0  0  0  0  0  0  0  0  0  0  0  0
   56.6400   27.0980   44.4840 H   0  0  0  0  0  0  0  0  0  0  0  0
   57.9721   25.8030   46.8494 H   0  0  0  0  0  0  0  0  0  0  0  0
   56.1493   25.8672   46.8306 H   0  0  0  0  0  0  0  0  0  0  0  0
   55.1469   25.2039   44.5308 H   0  0  0  0  0  0  0  0  0  0  0  0
   54.8897   23.2362   43.1114 H   0  0  0  0  0  0  0  0  0  0  0  0
   57.2240   20.4460   43.1110 H   0  0  0  0  0  0  0  0  0  0  0  0
   58.6110   20.5420   44.3470 H   0  0  0  0  0  0  0  0  0  0  0  0
   58.8541   23.7065   46.0978 H   0  0  0  0  0  0  0  0  0  0  0  0
   57.5796   30.8137   46.9478 H   0  0  0  0  0  0  0  0  0  0  0  0
   63.7612   32.8967   49.5892 H   0  0  0  0  0  0  0  0  0  0  0  0
   63.6292   31.4383   48.5488 H   0  0  0  0  0  0  0  0  0  0  0  0
   65.1415   32.4077   48.5488 H   0  0  0  0  0  0  0  0  0  0  0  0
   62.1110   33.6870   49.6310 H   0  0  0  0  0  0  0  0  0  0  0  0
  1  2  1  0
  2  3  1  0
  3  4  2  0
  4  5  1  0
  5  6  2  0
  6  7  1  0
  7  8  2  0
  7  9  2  0
  7 10  1  0
 10 11  2  0
 11 12  1  0
 12 13  1  0
 13 14  1  0
 14 15  2  0
 14 16  1  0
 16 17  1  0
 17 18  1  0
 18 19  2  0
 19 20  1  0
 20 21  2  0
 21 22  1  0
 21 23  1  0
 23 24  1  0
 23 25  2  0
 13 26  2  0
  5 27  1  0
 27 28  2  0
 28 29  1  0
 29 30  1  0
 28 31  1  0
 31  3  1  0
 26 10  1  0
 25 18  1  0
  1 32  1  0
  1 33  1  0
  1 34  1  0
  4 35  1  0
 11 36  1  0
 12 37  1  0
 16 38  1  0
 17 39  1  0
 17 40  1  0
 19 41  1  0
 20 42  1  0
 22 43  1  0
 24 44  1  0
 25 45  1  0
 26 46  1  0
 30 47  1  0
 30 48  1  0
 30 49  1  0
 31 50  1  0
M  END
>  <smiles>  (2) 
COc1cc(=NS(=O)(=O)c2c[nH]c(C(=O)NCc3ccc(O)c(O)c3)c2)nc(OC)[nH]1

>  <score_type>  (2) 
oracle

>  <origin>  (2) 
adg

>  <m_score__min__energy>  (2) 
-8.8499999999999996

>  <m_primary>  (2) 
energy

$$$$
2:0
     RDKit          3D

 47 50  0  0  0  0  0  0  0  0999 V2000
   58.1300   26.9800   42.7860 C   0  0  0  0  0  0  0  0  0  0  0  0
   58.1150   27.7830   43.8550 C   0  0  0  0  0  0  0  0  0  0  0  0
   58.0800   29.1260   43.7350 N   0  0  0  0  0  0  0  0  0  0  0  0
   57.8950   29.6360   44.9680 C   0  0  0  0  0  0  0  0  0  0  0  0
   57.7560   31.0850   45.2380 C   0  0  0  0  0  0  0  0  0  0  0  0
   56.6580   31.6440   44.9580 O   0  0  0  0  0  0  0  0  0  0  0  0
   58.8140   31.8380   45.8830 N   0  0  0  0  0  0  0  0  0  0  0  0
   58.8200   33.2570   45.4420 C   0  0  0  0  0  0  0  0  0  0  0  0
   59.6240   34.1740   46.3920 C   0  0  0  0  0  0  0  0  0  0  0  0
   60.5170   33.3860   47.2470 N   0  0  0  0  0  0  0  0  0  0  0  0
   61.9460   33.5280   47.1320 C   0  0  0  0  0  0  0  0  0  0  0  0
   62.4550   33.8000   46.0120 O   0  0  0  0  0  0  0  0  0  0  0  0
   62.8400   33.3540   48.2940 C   0  0  0  0  0  0  0  0  0  0  0  0
   62.5310   33.6240   49.6150 C   0  0  0  0  0  0  0  0  0  0  0  0
   63.6730   33.3570   50.3430 C   0  0  0  0  0  0  0  0  0  0  0  0
   64.6310   32.9460   49.4380 C   0  0  0  0  0  0  0  0  0  0  0  0
   64.1220   32.9520   48.1940 N   0  0  0  0  0  0  0  0  0  0  0  0
   59.9330   32.2950   48.0420 C   0  0  0  0  0  0  0  0  0  0  0  0
   58.6820   31.7280   47.3490 C   0  0  0  0  0  0  0  0  0  0  0  0
   57.8120   28.6140   45.8980 C   0  0  0  0  0  0  0  0  0  0  0  0
   57.9900   27.4260   45.2060 C   0  0  0  0  0  0  0  0  0  0  0  0
   58.0190   26.2230   45.8080 C   0  0  0  0  0  0  0  0  0  0  0  0
   56.9630   25.2030   45.7300 C   0  0  0  0  0  0  0  0  0  0  0  0
   57.2080   23.5330   45.7210 S   0  0  0  0  0  0  0  0  0  0  0  0
   55.5650   23.2080   45.8590 C   0  0  0  0  0  0  0  0  0  0  0  0
   55.0710   22.0510   45.8910 O   0  0  0  0  0  0  0  0  0  0  0  0
   54.8190   24.3290   45.9490 N   0  0  0  0  0  0  0  0  0  0  0  0
   55.6010   25.4400   45.8960 C   0  0  0  0  0  0  0  0  0  0  0  0
   55.0630   26.7160   46.0040 O   0  0  0  0  0  0  0  0  0  0  0  0
   58.1586   25.8884   42.9185 H   0  0  0  0  0  0  0  0  0  0  0  0
   58.1137   27.4110   41.7741 H   0  0  0  0  0  0  0  0  0  0  0  0
   58.1320   29.6710   42.8440 H   0  0  0  0  0  0  0  0  0  0  0  0
   59.7360   31.4310   45.5980 H   0  0  0  0  0  0  0  0  0  0  0  0
   59.2670   33.3117   44.4384 H   0  0  0  0  0  0  0  0  0  0  0  0
   57.7780   33.6095   45.4432 H   0  0  0  0  0  0  0  0  0  0  0  0
   60.2242   34.8751   45.7935 H   0  0  0  0  0  0  0  0  0  0  0  0
   58.9178   34.7229   47.0323 H   0  0  0  0  0  0  0  0  0  0  0  0
   61.5671   33.9805   50.0073 H   0  0  0  0  0  0  0  0  0  0  0  0
   63.7957   33.4530   51.4319 H   0  0  0  0  0  0  0  0  0  0  0  0
   65.6600   32.6561   49.6970 H   0  0  0  0  0  0  0  0  0  0  0  0
   64.6320   32.6930   47.3200 H   0  0  0  0  0  0  0  0  0  0  0  0
   60.6772   31.4931   48.1567 H   0  0  0  0  0  0  0  0  0  0  0  0
   59.6437   32.6902   49.0270 H   0  0  0  0  0  0  0  0  0  0  0  0
   58.5630   30.6696   47.6242 H   0  0  0  0  0  0  0  0  0  0  0  0
   57.8020   32.3030   47.6731 H   0  0  0  0  0  0  0  0  0  0  0  0
   57.6382   28.7235   46.9786 H   0  0  0  0  0  0  0  0  0  0  0  0
   58.9080   25.9823   46.4094 H   0  0  0  0  0  0  0  0  0  0  0  0
  1  2  2  0
  2  3  1  0
  3  4  1  0
  4  5  1  0
  5  6  2  0
  5  7  1  0
  7  8  1  0
  8  9  1  0
  9 10  1  0
 10 11  1  0
 11 12  2  0
 11 13  1  0
 13 14  2  0
 14 15  1  0
 15 16  2  0
 16 17  1  0
 10 18  1  0
 18 19  1  0
  4 20  2  0
 20 21  1  0
 21 22  2  3
 22 23  1  0
 23 24  1  0
 24 25  1  0
 25 26  2  0
 25 27  1  0
 27 28  1  0
 28 29  1  0
 21  2  1  0
 28 23  2  0
 19  7  1  0
 17 13  1  0
  1 30  1  0
  1 31  1  0
  3 32  1  0
  7 33  1  0
  8 34  1  0
  8 35  1  0
  9 36  1  0
  9 37  1  0
 14 38  1  0
 15 39  1  0
 16 40  1  0
 17 41  1  0
 18 42  1  0
 18 43  1  0
 19 44  1  0
 19 45  1  0
 20 46  1  0
 22 47  1  0
M  CHG  3   7   1  27  -1  29  -1
M  END
>  <UniqueID>  (3) 
2

>  <SMILES>  (3) 
C=c1[nH]c(C(=O)[NH+]2CCN(C(=O)c3ccc[nH]3)CC2)cc1=Cc1sc(=O)[n-]c1[O-]

>  <Energy>  (3) 
157.41320913533193

>  <Genealogy>  (3) 
C=c1[nH]c(C(=O)[NH+]2CCN(C(=O)c3ccc[nH]3)CC2)cc1=Cc1sc(=O)[n-]c1[O-] (protonated)
C=c1[nH]c(C(=O)[NH+]2CCN(C(=O)c3ccc[nH]3)CC2)cc1=Cc1sc(=O)[n-]c1[O-] (3D coordinates assigned)
C=c1[nH]c(C(=O)[NH+]2CCN(C(=O)c3ccc[nH]3)CC2)cc1=Cc1sc(=O)[n-]c1[O-] (nonaromatic ring conformer: 157.41320913533193 kcal/mol)

>  <smiles>  (3) 
C=c1[nH]c(C(=O)N2CCN(C(=O)c3ccc[nH]3)CC2)cc1=Cc1sc(=O)[nH]c1O

>  <score_type>  (3) 
oracle

>  <origin>  (3) 
adg

>  <m_score__min__energy>  (3) 
-14.56

>  <m_primary>  (3) 
energy

$$$$
3:0
     RDKit          3D

 62 65  0  0  0  0  0  0  0  0999 V2000
   54.1650   22.1190   45.9500 C   0  0  0  0  0  0  0  0  0  0  0  0
   55.1690   21.5720   46.9350 C   0  0  0  0  0  0  0  0  0  0  0  0
   54.9850   21.8340   48.2970 C   0  0  0  0  0  0  0  0  0  0  0  0
   55.8890   21.3500   49.2310 C   0  0  0  0  0  0  0  0  0  0  0  0
   56.9860   20.6110   48.8040 C   0  0  0  0  0  0  0  0  0  0  0  0
   57.1870   20.3480   47.4760 N   0  0  0  0  0  0  0  0  0  0  0  0
   58.3770   19.5660   47.1010 C   0  0  0  0  0  0  0  0  0  0  0  0
   56.2750   20.7770   46.5290 C   0  0  0  0  0  0  0  0  0  0  0  0
   56.4780   20.4600   45.0500 C   0  0  0  0  0  0  0  0  0  0  0  0
   56.6390   21.7040   44.2080 C   0  0  0  0  0  0  0  0  0  0  0  0
   56.2600   21.6890   43.0030 O   0  0  0  0  0  0  0  0  0  0  0  0
   57.2270   22.9530   44.7680 C   0  0  0  0  0  0  0  0  0  0  0  0
   58.5910   22.9970   45.0990 C   0  0  0  0  0  0  0  0  0  0  0  0
   59.1590   24.1570   45.6250 C   0  0  0  0  0  0  0  0  0  0  0  0
   58.3820   25.3030   45.8270 C   0  0  0  0  0  0  0  0  0  0  0  0
   58.9840   26.4500   46.4470 N   0  0  0  0  0  0  0  0  0  0  0  0
   60.2390   26.9980   45.9270 C   0  0  0  0  0  0  0  0  0  0  0  0
   60.0900   28.5120   45.7010 C   0  0  0  0  0  0  0  0  0  0  0  0
   59.3740   29.2290   46.7960 N   0  0  0  0  0  0  0  0  0  0  0  0
   58.1770   29.9480   46.3080 C   0  0  0  0  0  0  0  0  0  0  0  0
   58.4670   31.4210   46.1770 C   0  0  0  0  0  0  0  0  0  0  0  0
   59.4370   32.0210   46.9960 C   0  0  0  0  0  0  0  0  0  0  0  0
   59.7200   33.3840   46.8720 C   0  0  0  0  0  0  0  0  0  0  0  0
   59.0360   34.1580   45.9300 C   0  0  0  0  0  0  0  0  0  0  0  0
   58.0690   33.5690   45.1100 C   0  0  0  0  0  0  0  0  0  0  0  0
   57.7840   32.2050   45.2310 C   0  0  0  0  0  0  0  0  0  0  0  0
   59.0620   28.3850   47.9720 C   0  0  0  0  0  0  0  0  0  0  0  0
   58.3130   27.1080   47.5700 C   0  0  0  0  0  0  0  0  0  0  0  0
   57.0110   25.2880   45.4840 C   0  0  0  0  0  0  0  0  0  0  0  0
   56.1880   26.4600   45.6250 N   0  0  0  0  0  0  0  0  0  0  0  0
   56.6160   27.5820   45.2830 O   0  0  0  0  0  0  0  0  0  0  0  0
   54.8680   26.3390   45.9910 O   0  0  0  0  0  0  0  0  0  0  0  0
   56.4450   24.1080   44.9690 C   0  0  0  0  0  0  0  0  0  0  0  0
   53.3267   22.5757   46.4964 H   0  0  0  0  0  0  0  0  0  0  0  0
   54.6480   22.8787   45.3178 H   0  0  0  0  0  0  0  0  0  0  0  0
   53.7886   21.3013   45.3178 H   0  0  0  0  0  0  0  0  0  0  0  0
   54.1195   22.4265   48.6286 H   0  0  0  0  0  0  0  0  0  0  0  0
   55.7388   21.5496   50.3023 H   0  0  0  0  0  0  0  0  0  0  0  0
   57.7044   20.2313   49.5455 H   0  0  0  0  0  0  0  0  0  0  0  0
   58.8940   19.2262   48.0105 H   0  0  0  0  0  0  0  0  0  0  0  0
   58.0697   18.6932   46.5062 H   0  0  0  0  0  0  0  0  0  0  0  0
   59.0562   20.1944   46.5062 H   0  0  0  0  0  0  0  0  0  0  0  0
   57.3816   19.8420   44.9426 H   0  0  0  0  0  0  0  0  0  0  0  0
   55.5812   19.9306   44.6957 H   0  0  0  0  0  0  0  0  0  0  0  0
   59.2181   22.1071   44.9417 H   0  0  0  0  0  0  0  0  0  0  0  0
   60.2281   24.1712   45.8836 H   0  0  0  0  0  0  0  0  0  0  0  0
   61.0461   26.8142   46.6515 H   0  0  0  0  0  0  0  0  0  0  0  0
   60.4814   26.5095   44.9717 H   0  0  0  0  0  0  0  0  0  0  0  0
   61.0960   28.9466   45.6049 H   0  0  0  0  0  0  0  0  0  0  0  0
   59.4818   28.6364   44.7929 H   0  0  0  0  0  0  0  0  0  0  0  0
   57.8883   29.5465   45.3254 H   0  0  0  0  0  0  0  0  0  0  0  0
   57.3578   29.8080   47.0286 H   0  0  0  0  0  0  0  0  0  0  0  0
   59.9768   31.4153   47.7388 H   0  0  0  0  0  0  0  0  0  0  0  0
   60.4815   33.8481   47.5161 H   0  0  0  0  0  0  0  0  0  0  0  0
   59.2587   35.2309   45.8339 H   0  0  0  0  0  0  0  0  0  0  0  0
   57.5317   34.1789   44.3688 H   0  0  0  0  0  0  0  0  0  0  0  0
   57.0230   31.7444   44.5839 H   0  0  0  0  0  0  0  0  0  0  0  0
   60.0022   28.1053   48.4698 H   0  0  0  0  0  0  0  0  0  0  0  0
   58.4156   28.9637   48.6481 H   0  0  0  0  0  0  0  0  0  0  0  0
   58.2847   26.4200   48.4278 H   0  0  0  0  0  0  0  0  0  0  0  0
   57.2910   27.3770   47.2647 H   0  0  0  0  0  0  0  0  0  0  0  0
   55.3740   24.0863   44.7189 H   0  0  0  0  0  0  0  0  0  0  0  0
  1  2  1  0
  2  3  2  0
  3  4  1  0
  4  5  2  0
  5  6  1  0
  6  7  1  0
  6  8  2  0
  8  9  1  0
  9 10  1  0
 10 11  2  0
 10 12  1  0
 12 13  2  0
 13 14  1  0
 14 15  2  0
 15 16  1  0
 16 17  1  0
 17 18  1  0
 18 19  1  0
 19 20  1  0
 20 21  1  0
 21 22  2  0
 22 23  1  0
 23 24  2  0
 24 25  1  0
 25 26  2  0
 19 27  1  0
 27 28  1  0
 15 29  1  0
 29 30  1  0
 30 31  2  0
 30 32  1  0
 29 33  2  0
  8  2  1  0
 33 12  1  0
 28 16  1  0
 26 21  1  0
  1 34  1  0
  1 35  1  0
  1 36  1  0
  3 37  1  0
  4 38  1  0
  5 39  1  0
  7 40  1  0
  7 41  1  0
  7 42  1  0
  9 43  1  0
  9 44  1  0
 13 45  1  0
 14 46  1  0
 17 47  1  0
 17 48  1  0
 18 49  1  0
 18 50  1  0
 20 51  1  0
 20 52  1  0
 22 53  1  0
 23 54  1  0
 24 55  1  0
 25 56  1  0
 26 57  1  0
 27 58  1  0
 27 59  1  0
 28 60  1  0
 28 61  1  0
 33 62  1  0
M  CHG  3   6   1  30   1  32  -1
M  END
>  <UniqueID>  (4) 
3

>  <SMILES>  (4) 
Cc1ccc[n+](C)c1CC(=O)c1ccc(N2CCN(Cc3ccccc3)CC2)c([N+](=O)[O-])c1

>  <Energy>  (4) 
88.39549198204571

>  <Genealogy>  (4) 
Cc1ccc[n+](C)c1CC(=O)c1ccc(N2CCN(Cc3ccccc3)CC2)c([N+](=O)[O-])c1 (3D coordinates assigned)
Cc1ccc[n+](C)c1CC(=O)c1ccc(N2CCN(Cc3ccccc3)CC2)c([N+](=O)[O-])c1 (nonaromatic ring conformer: 88.39549198204571 kcal/mol)

>  <smiles>  (4) 
Cc1ccc[n+](C)c1CC(=O)c1ccc(N2CCN(Cc3ccccc3)CC2)c([N+](=O)[O-])c1

>  <score_type>  (4) 
oracle

>  <origin>  (4) 
adg

>  <m_score__min__energy>  (4) 
-7.8899999999999997

>  <m_primary>  (4) 
energy

$$$$
4:0
     RDKit          3D

 55 58  0  0  0  0  0  0  0  0999 V2000
   58.8150   33.0420   50.0530 H   0  0  0  0  0  0  0  0  0  0  0  0
   59.3960   33.6790   49.5210 O   0  0  0  0  0  0  0  0  0  0  0  0
   60.5560   33.2470   48.8790 C   0  0  0  0  0  0  0  0  0  0  0  0
   61.8090   33.6980   49.3170 C   0  0  0  0  0  0  0  0  0  0  0  0
   61.8690   34.3904   50.1696 H   0  0  0  0  0  0  0  0  0  0  0  0
   62.9840   33.2790   48.6840 C   0  0  0  0  0  0  0  0  0  0  0  0
   64.2080   33.7810   49.1570 O   0  0  0  0  0  0  0  0  0  0  0  0
   65.1020   33.0860   50.0270 C   0  0  0  0  0  0  0  0  0  0  0  0
   65.9961   32.7847   49.4615 H   0  0  0  0  0  0  0  0  0  0  0  0
   65.3834   33.7537   50.8546 H   0  0  0  0  0  0  0  0  0  0  0  0
   64.4440   31.8690   50.5910 C   0  0  0  0  0  0  0  0  0  0  0  0
   65.0980   30.7410   50.9270 N   0  0  0  0  0  0  0  0  0  0  0  0
   64.1800   29.9040   51.3810 N   0  0  0  0  0  0  0  0  0  0  0  0
   63.0010   30.5560   51.3100 C   0  0  0  0  0  0  0  0  0  0  0  0
   61.6900   29.9950   51.6830 C   0  0  0  0  0  0  0  0  0  0  0  0
   61.6760   29.2358   52.4788 H   0  0  0  0  0  0  0  0  0  0  0  0
   60.5120   30.3310   51.1350 C   0  0  0  0  0  0  0  0  0  0  0  0
   60.2011   29.7822   50.2338 H   0  0  0  0  0  0  0  0  0  0  0  0
   59.5990   31.3740   51.6390 C   0  0  0  0  0  0  0  0  0  0  0  0
   58.2880   31.3320   51.2720 N   0  0  0  0  0  0  0  0  0  0  0  0
   57.4020   32.2890   51.6580 C   0  0  0  0  0  0  0  0  0  0  0  0
   56.3470   32.2148   51.3556 H   0  0  0  0  0  0  0  0  0  0  0  0
   57.8300   33.3660   52.4380 C   0  0  0  0  0  0  0  0  0  0  0  0
   57.1159   34.1379   52.7608 H   0  0  0  0  0  0  0  0  0  0  0  0
   59.1750   33.4510   52.8030 C   0  0  0  0  0  0  0  0  0  0  0  0
   59.5288   34.2969   53.4107 H   0  0  0  0  0  0  0  0  0  0  0  0
   60.0700   32.4600   52.3950 C   0  0  0  0  0  0  0  0  0  0  0  0
   61.1345   32.5292   52.6633 H   0  0  0  0  0  0  0  0  0  0  0  0
   63.1570   31.7600   50.8170 O   0  0  0  0  0  0  0  0  0  0  0  0
   62.8970   32.3810   47.6040 C   0  0  0  0  0  0  0  0  0  0  0  0
   63.8135   32.0386   47.1013 H   0  0  0  0  0  0  0  0  0  0  0  0
   61.6530   31.9230   47.1680 C   0  0  0  0  0  0  0  0  0  0  0  0
   61.5973   31.2059   46.3358 H   0  0  0  0  0  0  0  0  0  0  0  0
   60.4700   32.3700   47.7830 C   0  0  0  0  0  0  0  0  0  0  0  0
   59.1480   31.8680   47.3410 C   0  0  0  0  0  0  0  0  0  0  0  0
   58.9894   30.7796   47.3547 H   0  0  0  0  0  0  0  0  0  0  0  0
   58.1280   32.6360   46.9250 C   0  0  0  0  0  0  0  0  0  0  0  0
   57.4406   33.0229   47.6917 H   0  0  0  0  0  0  0  0  0  0  0  0
   57.8550   33.0030   45.5200 C   0  0  0  0  0  0  0  0  0  0  0  0
   57.5320   34.1930   45.2610 O   0  0  0  0  0  0  0  0  0  0  0  0
   58.0360   32.0290   44.4230 C   0  0  0  0  0  0  0  0  0  0  0  0
   58.9257   32.1099   43.7812 H   0  0  0  0  0  0  0  0  0  0  0  0
   57.1530   31.0520   44.1850 C   0  0  0  0  0  0  0  0  0  0  0  0
   56.3018   31.2662   43.5220 H   0  0  0  0  0  0  0  0  0  0  0  0
   57.2660   29.6960   44.7710 C   0  0  0  0  0  0  0  0  0  0  0  0
   58.5530   29.1700   44.9780 C   0  0  0  0  0  0  0  0  0  0  0  0
   59.4362   29.7688   44.7110 H   0  0  0  0  0  0  0  0  0  0  0  0
   58.7200   27.8930   45.5200 C   0  0  0  0  0  0  0  0  0  0  0  0
   59.7320   27.4943   45.6843 H   0  0  0  0  0  0  0  0  0  0  0  0
   57.6060   27.1230   45.8530 C   0  0  0  0  0  0  0  0  0  0  0  0
   57.7406   26.1234   46.2920 H   0  0  0  0  0  0  0  0  0  0  0  0
   56.3200   27.6190   45.6300 C   0  0  0  0  0  0  0  0  0  0  0  0
   55.2140   26.8360   45.9450 O   0  0  0  0  0  0  0  0  0  0  0  0
   56.1420   28.8970   45.0800 C   0  0  0  0  0  0  0  0  0  0  0  0
   54.8500   29.3420   44.8180 O   0  0  0  0  0  0  0  0  0  0  0  0
  1  2  1  0
  2  3  1  0
  3  4  2  0
  4  5  1  0
  4  6  1  0
  6  7  1  0
  7  8  1  0
  8  9  1  0
  8 10  1  0
  8 11  1  0
 11 12  2  0
 12 13  1  0
 13 14  2  0
 14 15  1  0
 15 16  1  0
 15 17  2  0
 17 18  1  0
 17 19  1  0
 19 20  2  0
 20 21  1  0
 21 22  1  0
 21 23  2  0
 23 24  1  0
 23 25  1  0
 25 26  1  0
 25 27  2  0
 27 28  1  0
 14 29  1  0
  6 30  2  0
 30 31  1  0
 30 32  1  0
 32 33  1  0
 32 34  2  0
 34 35  1  0
 35 36  1  0
 35 37  2  0
 37 38  1  0
 37 39  1  0
 39 40  2  0
 39 41  1  0
 41 42  1  0
 41 43  2  3
 43 44  1  0
 43 45  1  0
 45 46  2  0
 46 47  1  0
 46 48  1  0
 48 49  1  0
 48 50  2  0
 50 51  1  0
 50 52  1  0
 52 53  1  0
 52 54  2  0
 54 55  1  0
 34  3  1  0
 54 45  1  0
 29 11  1  0
 27 19  1  0
M  CHG  2  53  -1  55  -1
M  END
>  <UniqueID>  (5) 
4

>  <SMILES>  (5) 
O=C(C=Cc1cccc([O-])c1[O-])/C=C\c1ccc(OCc2nnc(/C=C\c3ccccn3)o2)cc1O

>  <Energy>  (5) 
112.96854316371255

>  <Genealogy>  (5) 
O=C(C=Cc1ccc(OCc2nnc(C=Cc3ccccn3)o2)cc1O)C=Cc1cccc([O-])c1[O-] (protonated)
O=C(C=Cc1cccc([O-])c1[O-])/C=C\c1ccc(OCc2nnc(/C=C\c3ccccn3)o2)cc1O (cis-trans isomerization)
O=C(C=Cc1cccc([O-])c1[O-])/C=C\c1ccc(OCc2nnc(/C=C\c3ccccn3)o2)cc1O (3D coordinates assigned)
O=C(C=Cc1cccc([O-])c1[O-])/C=C\c1ccc(OCc2nnc(/C=C\c3ccccn3)o2)cc1O (optimized conformer: 112.96854316371255 kcal/mol)

>  <smiles>  (5) 
O=C(C=Cc1ccc(OCc2nnc(C=Cc3ccccn3)o2)cc1O)C=Cc1cccc(O)c1O

>  <score_type>  (5) 
oracle

>  <origin>  (5) 
adg

>  <m_score__min__energy>  (5) 
-18.239999999999998

>  <m_primary>  (5) 
energy

$$$$
5:0
     RDKit          3D

 31 33  0  0  0  0  0  0  0  0999 V2000
   64.1866   31.8337   48.7621 H   0  0  0  0  0  0  0  0  0  0  0  0
   63.3980   32.4380   48.2900 C   0  0  0  0  0  0  0  0  0  0  0  0
   61.8620   32.7150   48.9170 S   0  0  0  0  0  0  0  0  0  0  0  0
   61.3150   33.6620   47.6400 C   0  0  0  0  0  0  0  0  0  0  0  0
   59.9840   34.3420   47.5770 C   0  0  0  0  0  0  0  0  0  0  0  0
   60.1031   35.3337   47.1162 H   0  0  0  0  0  0  0  0  0  0  0  0
   59.5850   34.4498   48.5964 H   0  0  0  0  0  0  0  0  0  0  0  0
   59.0320   33.5280   46.7610 C   0  0  0  0  0  0  0  0  0  0  0  0
   59.3630   32.0090   46.1110 S   0  0  0  0  0  0  0  0  0  0  0  0
   57.7970   31.8300   45.4990 C   0  0  0  0  0  0  0  0  0  0  0  0
   57.3330   30.7930   44.8640 N   0  0  0  0  0  0  0  0  0  0  0  0
   57.9930   29.5260   44.7260 C   0  0  0  0  0  0  0  0  0  0  0  0
   59.1150   29.4930   44.1530 O   0  0  0  0  0  0  0  0  0  0  0  0
   57.4370   28.2830   45.3130 C   0  0  0  0  0  0  0  0  0  0  0  0
   56.0480   28.0450   45.3510 C   0  0  0  0  0  0  0  0  0  0  0  0
   55.1490   28.9880   44.8640 O   0  0  0  0  0  0  0  0  0  0  0  0
   55.5690   26.8880   45.8810 N   0  0  0  0  0  0  0  0  0  0  0  0
   56.3920   25.9310   46.3840 C   0  0  0  0  0  0  0  0  0  0  0  0
   55.9030   24.8760   46.8670 O   0  0  0  0  0  0  0  0  0  0  0  0
   57.7740   26.1190   46.3640 C   0  0  0  0  0  0  0  0  0  0  0  0
   58.4455   25.3484   46.7704 H   0  0  0  0  0  0  0  0  0  0  0  0
   58.2960   27.2950   45.8230 C   0  0  0  0  0  0  0  0  0  0  0  0
   59.3848   27.4490   45.7958 H   0  0  0  0  0  0  0  0  0  0  0  0
   57.0240   32.8940   45.8080 N   0  0  0  0  0  0  0  0  0  0  0  0
   56.0160   32.9790   45.5480 H   0  0  0  0  0  0  0  0  0  0  0  0
   57.7000   33.8400   46.5110 C   0  0  0  0  0  0  0  0  0  0  0  0
   57.2326   34.7749   46.8539 H   0  0  0  0  0  0  0  0  0  0  0  0
   62.3390   33.7940   46.7120 C   0  0  0  0  0  0  0  0  0  0  0  0
   62.2471   34.3817   45.7867 H   0  0  0  0  0  0  0  0  0  0  0  0
   63.5010   33.1020   47.0750 C   0  0  0  0  0  0  0  0  0  0  0  0
   64.4100   33.0860   46.4557 H   0  0  0  0  0  0  0  0  0  0  0  0
  1  2  1  0
  2  3  1  0
  3  4  1  0
  4  5  1  0
  5  6  1  0
  5  7  1  0
  5  8  1  0
  8  9  1  0
  9 10  1  0
 10 11  2  0
 11 12  1  0
 12 13  2  0
 12 14  1  0
 14 15  2  0
 15 16  1  0
 15 17  1  0
 17 18  1  0
 18 19  2  0
 18 20  1  0
 20 21  1  0
 20 22  2  0
 22 23  1  0
 10 24  1  0
 24 25  1  0
 24 26  1  0
 26 27  1  0
  4 28  2  0
 28 29  1  0
 28 30  1  0
 30 31  1  0
 30  2  2  0
 26  8  2  0
 22 14  1  0
M  CHG  2  16  -1  17  -1
M  END
>  <UniqueID>  (6) 
5

>  <SMILES>  (6) 
O=C(/N=c1/[nH]cc(Cc2cccs2)s1)c1ccc(=O)[n-]c1[O-]

>  <Energy>  (6) 
97.18860316078708

>  <Genealogy>  (6) 
O=C(N=c1[nH]cc(Cc2cccs2)s1)c1ccc(=O)[n-]c1[O-] (protonated)
O=C(/N=c1/[nH]cc(Cc2cccs2)s1)c1ccc(=O)[n-]c1[O-] (cis-trans isomerization)
O=C(/N=c1/[nH]cc(Cc2cccs2)s1)c1ccc(=O)[n-]c1[O-] (3D coordinates assigned)
O=C(/N=c1/[nH]cc(Cc2cccs2)s1)c1ccc(=O)[n-]c1[O-] (optimized conformer: 97.18860316078708 kcal/mol)

>  <smiles>  (6) 
O=C(N=c1[nH]cc(Cc2cccs2)s1)c1ccc(=O)[nH]c1O

>  <score_type>  (6) 
oracle

>  <origin>  (6) 
adg

>  <m_score__min__energy>  (6) 
-13.550000000000001

>  <m_primary>  (6) 
energy

$$$$
6:0
     RDKit          3D

 45 47  0  0  0  0  0  0  0  0999 V2000
   56.6570   28.6730   42.7100 O   0  0  0  0  0  0  0  0  0  0  0  0
   56.6190   29.2610   43.8250 C   0  0  0  0  0  0  0  0  0  0  0  0
   55.9950   28.6300   44.9480 N   0  0  0  0  0  0  0  0  0  0  0  0
   56.6920   27.7970   45.9250 C   0  0  2  0  0  0  0  0  0  0  0  0
   58.1600   27.6240   45.5030 C   0  0  0  0  0  0  0  0  0  0  0  0
   59.0650   28.5530   46.2750 C   0  0  0  0  0  0  0  0  0  0  0  0
   60.1500   29.1760   45.6380 C   0  0  0  0  0  0  0  0  0  0  0  0
   61.0200   29.9930   46.3680 C   0  0  0  0  0  0  0  0  0  0  0  0
   60.8170   30.1860   47.7380 C   0  0  0  0  0  0  0  0  0  0  0  0
   59.7460   29.5620   48.3810 C   0  0  0  0  0  0  0  0  0  0  0  0
   58.8720   28.7470   47.6540 C   0  0  0  0  0  0  0  0  0  0  0  0
   56.0240   26.4570   46.0380 C   0  0  0  0  0  0  0  0  0  0  0  0
   54.7710   26.3600   45.9620 O   0  0  0  0  0  0  0  0  0  0  0  0
   56.7930   25.3090   46.1900 O   0  0  0  0  0  0  0  0  0  0  0  0
   57.2070   30.6100   43.9790 C   0  0  0  0  0  0  0  0  0  0  0  0
   57.4310   31.4300   42.8600 C   0  0  0  0  0  0  0  0  0  0  0  0
   57.9600   32.7130   43.0210 C   0  0  0  0  0  0  0  0  0  0  0  0
   58.2690   33.1920   44.2960 C   0  0  0  0  0  0  0  0  0  0  0  0
   58.0650   32.3860   45.4250 C   0  0  0  0  0  0  0  0  0  0  0  0
   58.3460   32.9140   46.7340 N   0  0  0  0  0  0  0  0  0  0  0  0
   59.6030   33.5040   47.1010 C   0  0  0  0  0  0  0  0  0  0  0  0
   60.3240   34.0490   46.2210 O   0  0  0  0  0  0  0  0  0  0  0  0
   60.0500   33.5090   48.5060 C   0  0  0  0  0  0  0  0  0  0  0  0
   59.2990   33.0750   49.5830 C   0  0  0  0  0  0  0  0  0  0  0  0
   60.0750   33.2880   50.7050 C   0  0  0  0  0  0  0  0  0  0  0  0
   61.2600   33.8440   50.2660 C   0  0  0  0  0  0  0  0  0  0  0  0
   61.2400   33.9780   48.9280 N   0  0  0  0  0  0  0  0  0  0  0  0
   57.5210   31.1000   45.2590 C   0  0  0  0  0  0  0  0  0  0  0  0
   56.6546   28.2893   46.9080 H   0  0  0  0  0  0  0  0  0  0  0  0
   58.4673   26.5849   45.6924 H   0  0  0  0  0  0  0  0  0  0  0  0
   58.2448   27.8658   44.4333 H   0  0  0  0  0  0  0  0  0  0  0  0
   60.3165   29.0213   44.5617 H   0  0  0  0  0  0  0  0  0  0  0  0
   61.8650   30.4843   45.8635 H   0  0  0  0  0  0  0  0  0  0  0  0
   61.5016   30.8299   48.3096 H   0  0  0  0  0  0  0  0  0  0  0  0
   59.5896   29.7114   49.4595 H   0  0  0  0  0  0  0  0  0  0  0  0
   58.0300   28.2557   48.1635 H   0  0  0  0  0  0  0  0  0  0  0  0
   57.1887   31.0600   41.8528 H   0  0  0  0  0  0  0  0  0  0  0  0
   58.1338   33.3484   42.1401 H   0  0  0  0  0  0  0  0  0  0  0  0
   58.6748   34.2075   44.4152 H   0  0  0  0  0  0  0  0  0  0  0  0
   57.5750   32.9160   47.4390 H   0  0  0  0  0  0  0  0  0  0  0  0
   58.2865   32.6461   49.5520 H   0  0  0  0  0  0  0  0  0  0  0  0
   59.8022   33.0593   51.7458 H   0  0  0  0  0  0  0  0  0  0  0  0
   62.0984   34.1350   50.9160 H   0  0  0  0  0  0  0  0  0  0  0  0
   62.0020   34.3900   48.3450 H   0  0  0  0  0  0  0  0  0  0  0  0
   57.3388   30.4694   46.1417 H   0  0  0  0  0  0  0  0  0  0  0  0
  1  2  2  0
  2  3  1  0
  3  4  1  0
  4  5  1  0
  5  6  1  0
  6  7  2  0
  7  8  1  0
  8  9  2  0
  9 10  1  0
 10 11  2  0
  4 12  1  0
 12 13  2  0
 12 14  1  0
  2 15  1  0
 15 16  2  0
 16 17  1  0
 17 18  2  0
 18 19  1  0
 19 20  1  0
 20 21  1  0
 21 22  2  0
 21 23  1  0
 23 24  2  0
 24 25  1  0
 25 26  2  0
 26 27  1  0
 19 28  2  0
 11  6  1  0
 28 15  1  0
 27 23  1  0
  4 29  1  1
  5 30  1  0
  5 31  1  0
  7 32  1  0
  8 33  1  0
  9 34  1  0
 10 35  1  0
 11 36  1  0
 16 37  1  0
 17 38  1  0
 18 39  1  0
 20 40  1  0
 24 41  1  0
 25 42  1  0
 26 43  1  0
 27 44  1  0
 28 45  1  0
M  CHG  2   3  -1  14  -1
M  END
>  <UniqueID>  (7) 
6

>  <SMILES>  (7) 
O=C([N-][C@H](Cc1ccccc1)C(=O)[O-])c1cccc(NC(=O)c2ccc[nH]2)c1

>  <Energy>  (7) 
70.53254806388479

>  <Genealogy>  (7) 
O=C([N-]C(Cc1ccccc1)C(=O)[O-])c1cccc(NC(=O)c2ccc[nH]2)c1 (protonated)
O=C([N-][C@H](Cc1ccccc1)C(=O)[O-])c1cccc(NC(=O)c2ccc[nH]2)c1 (chirality)
O=C([N-][C@H](Cc1ccccc1)C(=O)[O-])c1cccc(NC(=O)c2ccc[nH]2)c1 (3D coordinates assigned)
O=C([N-][C@H](Cc1ccccc1)C(=O)[O-])c1cccc(NC(=O)c2ccc[nH]2)c1 (optimized conformer: 70.53254806388479 kcal/mol)

>  <smiles>  (7) 
O=C(NC(Cc1ccccc1)C(=O)O)c1cccc(NC(=O)c2ccc[nH]2)c1

>  <score_type>  (7) 
oracle

>  <origin>  (7) 
adg

>  <m_score__min__energy>  (7) 
-12.77

>  <m_primary>  (7) 
energy

$$$$
7:0
     RDKit          3D

 50 53  0  0  0  0  0  0  0  0999 V2000
   57.7310   28.0560   43.4240 O   0  0  0  0  0  0  0  0  0  0  0  0
   57.4220   27.8970   44.6370 C   0  0  0  0  0  0  0  0  0  0  0  0
   58.2340   26.9870   45.5040 C   0  0  0  0  0  0  0  0  0  0  0  0
   58.9500   27.7690   46.5720 C   0  0  0  0  0  0  0  0  0  0  0  0
   59.2750   27.1620   47.7940 C   0  0  0  0  0  0  0  0  0  0  0  0
   59.9030   27.8970   48.8030 C   0  0  0  0  0  0  0  0  0  0  0  0
   60.1950   29.2580   48.6080 C   0  0  0  0  0  0  0  0  0  0  0  0
   60.8250   30.0440   49.6280 N   0  0  0  0  0  0  0  0  0  0  0  0
   60.4270   31.3610   50.0290 C   0  0  0  0  0  0  0  0  0  0  0  0
   60.3640   31.6310   51.2580 O   0  0  0  0  0  0  0  0  0  0  0  0
   60.2230   32.4040   49.0570 N   0  0  0  0  0  0  0  0  0  0  0  0
   58.8430   32.8930   48.8980 C   0  0  0  0  0  0  0  0  0  0  0  0
   58.5480   33.3000   47.4610 C   0  0  0  0  0  0  0  0  0  0  0  0
   59.5470   34.7590   47.0810 S   0  0  0  0  0  0  0  0  0  0  0  0
   61.1010   33.8790   47.2330 C   0  0  0  0  0  0  0  0  0  0  0  0
   62.1060   34.2210   46.3810 N   0  0  0  0  0  0  0  0  0  0  0  0
   63.3480   33.6830   46.4720 C   0  0  0  0  0  0  0  0  0  0  0  0
   63.6330   32.7630   47.4770 C   0  0  0  0  0  0  0  0  0  0  0  0
   62.6230   32.3790   48.3620 C   0  0  0  0  0  0  0  0  0  0  0  0
   61.3190   32.9020   48.2360 C   0  0  0  0  0  0  0  0  0  0  0  0
   59.8920   29.8570   47.3820 C   0  0  0  0  0  0  0  0  0  0  0  0
   59.2600   29.1240   46.3740 C   0  0  0  0  0  0  0  0  0  0  0  0
   56.2790   28.5590   45.1870 N   0  0  0  0  0  0  0  0  0  0  0  0
   55.5320   29.5980   44.4860 C   0  0  0  0  0  0  0  0  0  0  0  0
   56.4590   30.6620   43.9620 C   0  0  0  0  0  0  0  0  0  0  0  0
   57.1310   31.5220   44.8460 C   0  0  0  0  0  0  0  0  0  0  0  0
   57.9800   32.5170   44.3520 C   0  0  0  0  0  0  0  0  0  0  0  0
   58.1630   32.6600   42.9730 C   0  0  0  0  0  0  0  0  0  0  0  0
   57.4980   31.8080   42.0870 C   0  0  0  0  0  0  0  0  0  0  0  0
   56.6460   30.8140   42.5770 C   0  0  0  0  0  0  0  0  0  0  0  0
   57.5679   26.2521   45.9798 H   0  0  0  0  0  0  0  0  0  0  0  0
   58.9811   26.4762   44.8787 H   0  0  0  0  0  0  0  0  0  0  0  0
   59.0342   26.1014   47.9590 H   0  0  0  0  0  0  0  0  0  0  0  0
   60.1695   27.4092   49.7522 H   0  0  0  0  0  0  0  0  0  0  0  0
   58.1463   32.0940   49.1917 H   0  0  0  0  0  0  0  0  0  0  0  0
   58.7197   33.7804   49.5362 H   0  0  0  0  0  0  0  0  0  0  0  0
   58.8111   32.4786   46.7783 H   0  0  0  0  0  0  0  0  0  0  0  0
   57.4783   33.5251   47.3381 H   0  0  0  0  0  0  0  0  0  0  0  0
   64.1283   33.9732   45.7530 H   0  0  0  0  0  0  0  0  0  0  0  0
   64.6447   32.3421   47.5733 H   0  0  0  0  0  0  0  0  0  0  0  0
   62.8467   31.6616   49.1653 H   0  0  0  0  0  0  0  0  0  0  0  0
   60.1526   30.9117   47.2096 H   0  0  0  0  0  0  0  0  0  0  0  0
   59.0043   29.6107   45.4213 H   0  0  0  0  0  0  0  0  0  0  0  0
   54.9894   29.1454   43.6429 H   0  0  0  0  0  0  0  0  0  0  0  0
   54.8264   30.0614   45.1912 H   0  0  0  0  0  0  0  0  0  0  0  0
   56.9888   31.4123   45.9312 H   0  0  0  0  0  0  0  0  0  0  0  0
   58.5043   33.1878   45.0485 H   0  0  0  0  0  0  0  0  0  0  0  0
   58.8307   33.4435   42.5854 H   0  0  0  0  0  0  0  0  0  0  0  0
   57.6452   31.9197   41.0026 H   0  0  0  0  0  0  0  0  0  0  0  0
   56.1201   30.1485   41.8765 H   0  0  0  0  0  0  0  0  0  0  0  0
  1  2  2  0
  2  3  1  0
  3  4  1  0
  4  5  2  0
  5  6  1  0
  6  7  2  0
  7  8  1  0
  8  9  1  0
  9 10  2  0
  9 11  1  0
 11 12  1  0
 12 13  1  0
 13 14  1  0
 14 15  1  0
 15 16  2  0
 16 17  1  0
 17 18  2  0
 18 19  1  0
 19 20  2  0
  7 21  1  0
 21 22  2  0
  2 23  1  0
 23 24  1  0
 24 25  1  0
 25 26  2  0
 26 27  1  0
 27 28  2  0
 28 29  1  0
 29 30  2  0
 22  4  1  0
 30 25  1  0
 20 11  1  0
 20 15  1  0
  3 31  1  0
  3 32  1  0
  5 33  1  0
  6 34  1  0
 12 35  1  0
 12 36  1  0
 13 37  1  0
 13 38  1  0
 17 39  1  0
 18 40  1  0
 19 41  1  0
 21 42  1  0
 22 43  1  0
 24 44  1  0
 24 45  1  0
 26 46  1  0
 27 47  1  0
 28 48  1  0
 29 49  1  0
 30 50  1  0
M  CHG  2   8  -1  23  -1
M  END
>  <UniqueID>  (8) 
7

>  <SMILES>  (8) 
O=C(Cc1ccc([N-]C(=O)N2CCSc3ncccc32)cc1)[N-]Cc1ccccc1

>  <Energy>  (8) 
66.66817613730693

>  <Genealogy>  (8) 
O=C(Cc1ccc([N-]C(=O)N2CCSc3ncccc32)cc1)[N-]Cc1ccccc1 (protonated)
O=C(Cc1ccc([N-]C(=O)N2CCSc3ncccc32)cc1)[N-]Cc1ccccc1 (3D coordinates assigned)
O=C(Cc1ccc([N-]C(=O)N2CCSc3ncccc32)cc1)[N-]Cc1ccccc1 (nonaromatic ring conformer: 66.66817613730693 kcal/mol)

>  <smiles>  (8) 
O=C(Cc1ccc(NC(=O)N2CCSc3ncccc32)cc1)NCc1ccccc1

>  <score_type>  (8) 
oracle

>  <origin>  (8) 
adg

>  <m_score__min__energy>  (8) 
-12.029999999999999

>  <m_primary>  (8) 
energy

$$$$
8:0
     RDKit          3D

 30 32  0  0  0  0  0  0  0  0999 V2000
   61.9867   32.0516   50.1142 H   0  0  0  0  0  0  0  0  0  0  0  0
   62.1120   32.4710   49.1050 C   0  0  0  0  0  0  0  0  0  0  0  0
   61.0700   33.0960   48.4950 N   0  0  0  0  0  0  0  0  0  0  0  0
   61.1870   33.6290   47.2480 C   0  0  0  0  0  0  0  0  0  0  0  0
   59.7830   34.4470   46.4970 S   0  0  0  0  0  0  0  0  0  0  0  0
   58.9360   32.9000   46.1990 C   0  0  0  0  0  0  0  0  0  0  0  0
   59.5780   31.3730   46.4960 S   0  0  0  0  0  0  0  0  0  0  0  0
   58.1800   30.6030   45.9660 C   0  0  0  0  0  0  0  0  0  0  0  0
   58.0410   29.3110   45.9480 N   0  0  0  0  0  0  0  0  0  0  0  0
   57.0150   28.5790   45.2590 C   0  0  0  0  0  0  0  0  0  0  0  0
   55.8320   29.0110   45.2000 O   0  0  0  0  0  0  0  0  0  0  0  0
   57.3690   27.3070   44.5600 C   0  0  0  0  0  0  0  0  0  0  0  0
   56.7729   27.2187   43.6398 H   0  0  0  0  0  0  0  0  0  0  0  0
   58.4402   27.3176   44.3102 H   0  0  0  0  0  0  0  0  0  0  0  0
   57.0830   26.1390   45.4500 C   0  0  0  0  0  0  0  0  0  0  0  0
   57.9830   25.1910   45.7660 N   0  0  0  0  0  0  0  0  0  0  0  0
   57.3090   24.3980   46.6260 C   0  0  0  0  0  0  0  0  0  0  0  0
   57.8230   23.3750   47.1500 O   0  0  0  0  0  0  0  0  0  0  0  0
   56.0420   24.7870   46.8860 N   0  0  0  0  0  0  0  0  0  0  0  0
   55.9170   25.8950   46.1370 C   0  0  0  0  0  0  0  0  0  0  0  0
   54.7670   26.6710   46.0880 O   0  0  0  0  0  0  0  0  0  0  0  0
   57.2290   31.4780   45.5650 N   0  0  0  0  0  0  0  0  0  0  0  0
   57.6510   32.7630   45.6940 C   0  0  0  0  0  0  0  0  0  0  0  0
   57.0247   33.6249   45.4203 H   0  0  0  0  0  0  0  0  0  0  0  0
   62.4020   33.5360   46.5600 C   0  0  0  0  0  0  0  0  0  0  0  0
   62.5036   33.9606   45.5503 H   0  0  0  0  0  0  0  0  0  0  0  0
   63.4840   32.8980   47.1700 C   0  0  0  0  0  0  0  0  0  0  0  0
   64.4460   32.8187   46.6425 H   0  0  0  0  0  0  0  0  0  0  0  0
   63.3420   32.3610   48.4510 C   0  0  0  0  0  0  0  0  0  0  0  0
   64.1888   31.8570   48.9399 H   0  0  0  0  0  0  0  0  0  0  0  0
  1  2  1  0
  2  3  2  0
  3  4  1  0
  4  5  1  0
  5  6  1  0
  6  7  1  0
  7  8  1  0
  8  9  2  0
  9 10  1  0
 10 11  2  0
 10 12  1  0
 12 13  1  0
 12 14  1  0
 12 15  1  0
 15 16  1  0
 16 17  1  0
 17 18  2  0
 17 19  1  0
 19 20  1  0
 20 21  1  0
  8 22  1  0
 22 23  1  0
 23 24  1  0
  4 25  2  0
 25 26  1  0
 25 27  1  0
 27 28  1  0
 27 29  2  0
 29 30  1  0
 29  2  1  0
 23  6  2  0
 20 15  2  0
M  CHG  4  16  -1  19  -1  21  -1  22  -1
M  END
>  <UniqueID>  (9) 
8

>  <SMILES>  (9) 
O=C(Cc1[n-]c(=O)[n-]c1[O-])/N=c1\[n-]cc(Sc2ccccn2)s1

>  <Energy>  (9) 
88.57993214729758

>  <Genealogy>  (9) 
O=C(Cc1[n-]c(=O)[n-]c1[O-])N=c1[n-]cc(Sc2ccccn2)s1 (protonated)
O=C(Cc1[n-]c(=O)[n-]c1[O-])/N=c1\[n-]cc(Sc2ccccn2)s1 (cis-trans isomerization)
O=C(Cc1[n-]c(=O)[n-]c1[O-])/N=c1\[n-]cc(Sc2ccccn2)s1 (3D coordinates assigned)
O=C(Cc1[n-]c(=O)[n-]c1[O-])/N=c1\[n-]cc(Sc2ccccn2)s1 (optimized conformer: 88.57993214729758 kcal/mol)

>  <smiles>  (9) 
O=C(Cc1[nH]c(=O)[nH]c1O)N=c1[nH]cc(Sc2ccccn2)s1

>  <score_type>  (9) 
oracle

>  <origin>  (9) 
adg

>  <m_score__min__energy>  (9) 
-17.920000000000002

>  <m_primary>  (9) 
energy

$$$$
9:0
     RDKit          3D

 67 71  0  0  0  0  0  0  0  0999 V2000
   62.1180   32.1250   47.8770 O   0  0  0  0  0  0  0  0  0  0  0  0
   60.8730   32.0350   47.9860 C   0  0  0  0  0  0  0  0  0  0  0  0
   60.2460   30.7650   48.3240 C   0  0  0  0  0  0  0  0  0  0  0  0
   59.7320   30.5100   49.5730 C   0  0  0  0  0  0  0  0  0  0  0  0
   59.1390   29.2900   49.8240 C   0  0  0  0  0  0  0  0  0  0  0  0
   59.0860   28.3630   48.7900 C   0  0  0  0  0  0  0  0  0  0  0  0
   59.5780   28.5650   47.5430 C   0  0  0  0  0  0  0  0  0  0  0  0
   59.5720   27.6390   46.4060 C   0  0  0  0  0  0  0  0  0  0  0  0
   58.2910   26.9190   46.2380 C   0  0  0  0  0  0  0  0  0  0  0  0
   57.1780   27.7160   46.1680 N   0  0  0  0  0  0  0  0  0  0  0  0
   55.9880   27.1920   45.9830 N   0  0  0  0  0  0  0  0  0  0  0  0
   55.7650   25.8820   45.8520 C   0  0  0  0  0  0  0  0  0  0  0  0
   54.5920   25.4420   45.6780 O   0  0  0  0  0  0  0  0  0  0  0  0
   56.8680   25.0190   45.9170 C   0  0  0  0  0  0  0  0  0  0  0  0
   58.1360   25.5680   46.1130 C   0  0  0  0  0  0  0  0  0  0  0  0
   59.2530   24.6240   46.2110 C   0  0  0  0  0  0  0  0  0  0  0  0
   59.0510   23.4780   45.2170 C   0  0  0  0  0  0  0  0  0  0  0  0
   57.7930   22.7360   45.5870 C   0  0  0  0  0  0  0  0  0  0  0  0
   56.5910   23.5930   45.7660 C   0  0  0  0  0  0  0  0  0  0  0  0
   60.1800   29.8200   47.3110 C   0  0  0  0  0  0  0  0  0  0  0  0
   60.0810   33.1960   47.7750 N   0  0  0  0  0  0  0  0  0  0  0  0
   58.6170   33.1780   47.8850 C   0  0  0  0  0  0  0  0  0  0  0  0
   58.0830   34.2540   46.9710 C   0  0  0  0  0  0  0  0  0  0  0  0
   58.8470   34.3920   45.7430 N   0  0  0  0  0  0  0  0  0  0  0  0
   58.7840   33.1250   45.0440 C   0  0  0  0  0  0  0  0  0  0  0  0
   57.4140   32.5310   44.9610 C   0  0  0  0  0  0  0  0  0  0  0  0
   57.3860   31.1850   44.3830 C   0  0  0  0  0  0  0  0  0  0  0  0
   56.3280   30.6620   43.6610 C   0  0  0  0  0  0  0  0  0  0  0  0
   56.4010   29.3670   43.1520 C   0  0  0  0  0  0  0  0  0  0  0  0
   57.5000   28.5660   43.3330 C   0  0  0  0  0  0  0  0  0  0  0  0
   57.5400   27.2760   42.8090 O   0  0  0  0  0  0  0  0  0  0  0  0
   58.5710   29.0860   44.0590 C   0  0  0  0  0  0  0  0  0  0  0  0
   58.4790   30.3610   44.5530 C   0  0  0  0  0  0  0  0  0  0  0  0
   60.2030   34.8240   46.0090 C   0  0  0  0  0  0  0  0  0  0  0  0
   60.6550   34.4900   47.4280 C   0  0  0  0  0  0  0  0  0  0  0  0
   59.7929   31.2713   50.3647 H   0  0  0  0  0  0  0  0  0  0  0  0
   58.7201   29.0576   50.8142 H   0  0  0  0  0  0  0  0  0  0  0  0
   58.6096   27.3937   48.9988 H   0  0  0  0  0  0  0  0  0  0  0  0
   59.7719   28.2125   45.4889 H   0  0  0  0  0  0  0  0  0  0  0  0
   60.3455   26.8817   46.6015 H   0  0  0  0  0  0  0  0  0  0  0  0
   55.1490   27.8410   45.9360 H   0  0  0  0  0  0  0  0  0  0  0  0
   60.1936   25.1458   45.9807 H   0  0  0  0  0  0  0  0  0  0  0  0
   59.2960   24.2164   47.2318 H   0  0  0  0  0  0  0  0  0  0  0  0
   58.9562   23.8832   44.1987 H   0  0  0  0  0  0  0  0  0  0  0  0
   59.9131   22.7956   45.2504 H   0  0  0  0  0  0  0  0  0  0  0  0
   57.5785   22.0084   44.7904 H   0  0  0  0  0  0  0  0  0  0  0  0
   57.9865   22.2678   46.5634 H   0  0  0  0  0  0  0  0  0  0  0  0
   55.9442   23.4621   44.8859 H   0  0  0  0  0  0  0  0  0  0  0  0
   56.1195   23.2697   46.7057 H   0  0  0  0  0  0  0  0  0  0  0  0
   60.5995   30.0502   46.3206 H   0  0  0  0  0  0  0  0  0  0  0  0
   58.2287   32.1960   47.5769 H   0  0  0  0  0  0  0  0  0  0  0  0
   58.3030   33.3592   48.9236 H   0  0  0  0  0  0  0  0  0  0  0  0
   57.0433   34.0071   46.7102 H   0  0  0  0  0  0  0  0  0  0  0  0
   58.1573   35.2091   47.5116 H   0  0  0  0  0  0  0  0  0  0  0  0
   59.1547   33.2787   44.0198 H   0  0  0  0  0  0  0  0  0  0  0  0
   59.3976   32.4178   45.6214 H   0  0  0  0  0  0  0  0  0  0  0  0
   56.9959   32.4806   45.9772 H   0  0  0  0  0  0  0  0  0  0  0  0
   56.8248   33.1778   44.2943 H   0  0  0  0  0  0  0  0  0  0  0  0
   55.4275   31.2697   43.4885 H   0  0  0  0  0  0  0  0  0  0  0  0
   55.5457   28.9722   42.5840 H   0  0  0  0  0  0  0  0  0  0  0  0
   56.6490   26.8320   42.6190 H   0  0  0  0  0  0  0  0  0  0  0  0
   59.4745   28.4829   44.2323 H   0  0  0  0  0  0  0  0  0  0  0  0
   59.3339   30.7535   45.1232 H   0  0  0  0  0  0  0  0  0  0  0  0
   60.8779   34.3260   45.2974 H   0  0  0  0  0  0  0  0  0  0  0  0
   60.2333   35.9179   45.8973 H   0  0  0  0  0  0  0  0  0  0  0  0
   61.7529   34.4378   47.4704 H   0  0  0  0  0  0  0  0  0  0  0  0
   60.3218   35.2647   48.1343 H   0  0  0  0  0  0  0  0  0  0  0  0
  1  2  2  0
  2  3  1  0
  3  4  2  0
  4  5  1  0
  5  6  2  0
  6  7  1  0
  7  8  1  0
  8  9  1  0
  9 10  2  0
 10 11  1  0
 11 12  1  0
 12 13  2  0
 12 14  1  0
 14 15  2  0
 15 16  1  0
 16 17  1  0
 17 18  1  0
 18 19  1  0
  7 20  2  0
  2 21  1  0
 21 22  1  0
 22 23  1  0
 23 24  1  0
 24 25  1  0
 25 26  1  0
 26 27  1  0
 27 28  2  0
 28 29  1  0
 29 30  2  0
 30 31  1  0
 30 32  1  0
 32 33  2  0
 24 34  1  0
 34 35  1  0
 20  3  1  0
 35 21  1  0
 15  9  1  0
 33 27  1  0
 19 14  1  0
  4 36  1  0
  5 37  1  0
  6 38  1  0
  8 39  1  0
  8 40  1  0
 11 41  1  0
 16 42  1  0
 16 43  1  0
 17 44  1  0
 17 45  1  0
 18 46  1  0
 18 47  1  0
 19 48  1  0
 19 49  1  0
 20 50  1  0
 22 51  1  0
 22 52  1  0
 23 53  1  0
 23 54  1  0
 25 55  1  0
 25 56  1  0
 26 57  1  0
 26 58  1  0
 28 59  1  0
 29 60  1  0
 31 61  1  0
 32 62  1  0
 33 63  1  0
 34 64  1  0
 34 65  1  0
 35 66  1  0
 35 67  1  0
M  END
>  <smiles>  (10) 
O=C(c1cccc(Cc2n[nH]c(=O)c3c2CCCC3)c1)N1CCN(CCc2ccc(O)cc2)CC1

>  <score_type>  (10) 
oracle

>  <origin>  (10) 
adg

>  <m_score__min__energy>  (10) 
-10.960000000000001

>  <m_primary>  (10) 
energy

$$$$
10:0
     RDKit          3D

 44 46  0  0  0  0  0  0  0  0999 V2000
   66.3330   32.3680   50.0560 C   0  0  0  0  0  0  0  0  0  0  0  0
   65.0420   33.0680   50.0230 N   0  0  0  0  0  0  0  0  0  0  0  0
   64.2730   33.0150   48.8920 C   0  0  0  0  0  0  0  0  0  0  0  0
   63.0360   33.6820   48.8270 C   0  0  0  0  0  0  0  0  0  0  0  0
   62.2000   33.6330   47.6030 C   0  0  0  0  0  0  0  0  0  0  0  0
   62.6830   33.1520   46.5400 O   0  0  0  0  0  0  0  0  0  0  0  0
   60.8660   34.1690   47.5980 N   0  0  0  0  0  0  0  0  0  0  0  0
   59.8570   33.7890   46.6460 C   0  0  0  0  0  0  0  0  0  0  0  0
   59.4030   34.7310   45.7120 C   0  0  0  0  0  0  0  0  0  0  0  0
   58.4170   34.3880   44.7850 C   0  0  0  0  0  0  0  0  0  0  0  0
   57.8600   33.1080   44.7950 C   0  0  0  0  0  0  0  0  0  0  0  0
   58.2700   32.1630   45.7460 C   0  0  0  0  0  0  0  0  0  0  0  0
   57.6810   30.8500   45.7370 N   0  0  0  0  0  0  0  0  0  0  0  0
   58.4260   29.6400   45.5150 C   0  0  0  0  0  0  0  0  0  0  0  0
   59.8300   29.6880   45.5220 C   0  0  0  0  0  0  0  0  0  0  0  0
   60.5810   28.5190   45.3940 C   0  0  0  0  0  0  0  0  0  0  0  0
   59.9410   27.2890   45.2720 C   0  0  0  0  0  0  0  0  0  0  0  0
   58.5470   27.2200   45.2690 C   0  0  0  0  0  0  0  0  0  0  0  0
   57.7680   28.3880   45.3860 C   0  0  0  0  0  0  0  0  0  0  0  0
   56.2880   28.2750   45.3260 C   0  0  0  0  0  0  0  0  0  0  0  0
   55.4990   29.3900   44.9150 N   0  0  0  0  0  0  0  0  0  0  0  0
   55.7090   27.2080   45.6630 O   0  0  0  0  0  0  0  0  0  0  0  0
   59.2770   32.5080   46.6650 C   0  0  0  0  0  0  0  0  0  0  0  0
   62.6180   34.4210   49.9420 C   0  0  0  0  0  0  0  0  0  0  0  0
   63.4110   34.4720   51.0850 C   0  0  0  0  0  0  0  0  0  0  0  0
   64.6280   33.7880   51.1130 C   0  0  0  0  0  0  0  0  0  0  0  0
   65.3400   33.8460   52.1530 O   0  0  0  0  0  0  0  0  0  0  0  0
   66.6348   32.2044   51.1011 H   0  0  0  0  0  0  0  0  0  0  0  0
   66.2374   31.3982   49.5458 H   0  0  0  0  0  0  0  0  0  0  0  0
   67.0936   32.9773   49.5458 H   0  0  0  0  0  0  0  0  0  0  0  0
   64.6271   32.4429   48.0217 H   0  0  0  0  0  0  0  0  0  0  0  0
   60.6500   34.9530   48.2550 H   0  0  0  0  0  0  0  0  0  0  0  0
   59.8262   35.7463   45.7096 H   0  0  0  0  0  0  0  0  0  0  0  0
   58.0783   35.1281   44.0450 H   0  0  0  0  0  0  0  0  0  0  0  0
   57.0946   32.8392   44.0521 H   0  0  0  0  0  0  0  0  0  0  0  0
   56.6630   30.7600   45.9590 H   0  0  0  0  0  0  0  0  0  0  0  0
   60.3418   30.6557   45.6293 H   0  0  0  0  0  0  0  0  0  0  0  0
   61.6798   28.5695   45.3895 H   0  0  0  0  0  0  0  0  0  0  0  0
   60.5357   26.3685   45.1777 H   0  0  0  0  0  0  0  0  0  0  0  0
   58.0511   26.2427   45.1742 H   0  0  0  0  0  0  0  0  0  0  0  0
   54.4560   29.3330   44.8970 H   0  0  0  0  0  0  0  0  0  0  0  0
   59.6144   31.7685   47.4061 H   0  0  0  0  0  0  0  0  0  0  0  0
   61.6607   34.9622   49.9139 H   0  0  0  0  0  0  0  0  0  0  0  0
   63.0805   35.0483   51.9618 H   0  0  0  0  0  0  0  0  0  0  0  0
  1  2  1  0
  2  3  1  0
  3  4  2  0
  4  5  1  0
  5  6  2  0
  5  7  1  0
  7  8  1  0
  8  9  2  0
  9 10  1  0
 10 11  2  0
 11 12  1  0
 12 13  1  0
 13 14  1  0
 14 15  2  0
 15 16  1  0
 16 17  2  0
 17 18  1  0
 18 19  2  0
 19 20  1  0
 20 21  1  0
 20 22  2  0
 12 23  2  0
  4 24  1  0
 24 25  2  0
 25 26  1  0
 26 27  2  0
 26  2  1  0
 23  8  1  0
 19 14  1  0
  1 28  1  0
  1 29  1  0
  1 30  1  0
  3 31  1  0
  7 32  1  0
  9 33  1  0
 10 34  1  0
 11 35  1  0
 13 36  1  0
 15 37  1  0
 16 38  1  0
 17 39  1  0
 18 40  1  0
 21 41  1  0
 23 42  1  0
 24 43  1  0
 25 44  1  0
M  CHG  1  21  -1
M  END
>  <UniqueID>  (11) 
9

>  <SMILES>  (11) 
Cn1cc(C(=O)Nc2cccc(Nc3ccccc3C([NH-])=O)c2)ccc1=O

>  <Energy>  (11) 
63.023943242487995

>  <Genealogy>  (11) 
Cn1cc(C(=O)Nc2cccc(Nc3ccccc3C([NH-])=O)c2)ccc1=O (protonated)
Cn1cc(C(=O)Nc2cccc(Nc3ccccc3C([NH-])=O)c2)ccc1=O (3D coordinates assigned)
Cn1cc(C(=O)Nc2cccc(Nc3ccccc3C([NH-])=O)c2)ccc1=O (optimized conformer: 63.023943242487995 kcal/mol)

>  <smiles>  (11) 
Cn1cc(C(=O)Nc2cccc(Nc3ccccc3C(N)=O)c2)ccc1=O

>  <score_type>  (11) 
oracle

>  <origin>  (11) 
adg

>  <m_score__min__energy>  (11) 
-11.890000000000001

>  <m_primary>  (11) 
energy

$$$$
11:0
     RDKit          3D

 65 69  0  0  0  0  0  0  0  0999 V2000
   54.1907   29.2695   44.1880 H   0  0  0  0  0  0  0  0  0  0  0  0
   55.2610   29.4010   44.4050 C   0  0  0  0  0  0  0  0  0  0  0  0
   55.8900   28.5400   45.2440 N   0  0  0  0  0  0  0  0  0  0  0  0
   57.2090   28.6660   45.5420 C   0  0  0  0  0  0  0  0  0  0  0  0
   57.8110   27.7510   46.4130 C   0  0  0  0  0  0  0  0  0  0  0  0
   57.2149   26.9365   46.8504 H   0  0  0  0  0  0  0  0  0  0  0  0
   59.1680   27.8690   46.7290 C   0  0  0  0  0  0  0  0  0  0  0  0
   59.9170   26.7180   47.8200 Cl  0  0  0  0  0  0  0  0  0  0  0  0
   59.9280   28.9020   46.1740 C   0  0  0  0  0  0  0  0  0  0  0  0
   60.9952   28.9920   46.4249 H   0  0  0  0  0  0  0  0  0  0  0  0
   59.3390   29.8210   45.3020 C   0  0  0  0  0  0  0  0  0  0  0  0
   59.9451   30.6311   44.8702 H   0  0  0  0  0  0  0  0  0  0  0  0
   57.9710   29.7160   44.9720 C   0  0  0  0  0  0  0  0  0  0  0  0
   57.3390   30.6200   44.0860 C   0  0  0  0  0  0  0  0  0  0  0  0
   58.0390   31.5820   43.5420 N   0  0  0  0  0  0  0  0  0  0  0  0
   58.4840   32.8300   44.1650 C   0  0  0  0  0  0  0  0  0  0  0  0
   58.2132   33.6754   43.5154 H   0  0  0  0  0  0  0  0  0  0  0  0
   59.5748   32.7902   44.3010 H   0  0  0  0  0  0  0  0  0  0  0  0
   57.8220   33.0130   45.5310 C   0  0  0  0  0  0  0  0  0  0  0  0
   58.2204   32.2659   46.2332 H   0  0  0  0  0  0  0  0  0  0  0  0
   56.7346   32.8817   45.4290 H   0  0  0  0  0  0  0  0  0  0  0  0
   58.1010   34.3520   46.0380 N   0  0  0  0  0  0  0  0  0  0  0  0
   59.4160   34.9130   46.1330 C   0  0  0  0  0  0  0  0  0  0  0  0
   59.6920   35.9380   45.4560 O   0  0  0  0  0  0  0  0  0  0  0  0
   60.4480   34.3300   47.0090 C   0  0  0  0  0  0  0  0  0  0  0  0
   61.5450   33.6650   46.4480 C   0  0  0  0  0  0  0  0  0  0  0  0
   61.6301   33.5747   45.3550 H   0  0  0  0  0  0  0  0  0  0  0  0
   62.5330   33.1150   47.2710 C   0  0  0  0  0  0  0  0  0  0  0  0
   63.3954   32.6023   46.8200 H   0  0  0  0  0  0  0  0  0  0  0  0
   62.4330   33.2120   48.6710 C   0  0  0  0  0  0  0  0  0  0  0  0
   63.4570   32.6540   49.5220 N   0  0  0  0  0  0  0  0  0  0  0  0
   64.8530   33.0980   49.4050 C   0  0  0  0  0  0  0  0  0  0  0  0
   65.0597   33.3813   48.3624 H   0  0  0  0  0  0  0  0  0  0  0  0
   65.0146   33.9638   50.0640 H   0  0  0  0  0  0  0  0  0  0  0  0
   65.7980   31.9620   49.8210 C   0  0  0  0  0  0  0  0  0  0  0  0
   65.6894   31.1359   49.1028 H   0  0  0  0  0  0  0  0  0  0  0  0
   66.8190   32.3712   49.8276 H   0  0  0  0  0  0  0  0  0  0  0  0
   65.5200   31.4400   51.1900 N   0  0  0  0  0  0  0  0  0  0  0  0
   65.5970   30.3960   51.1160 H   0  0  0  0  0  0  0  0  0  0  0  0
   66.5570   31.8250   52.1850 C   0  0  0  0  0  0  0  0  0  0  0  0
   66.0676   31.9432   53.1630 H   0  0  0  0  0  0  0  0  0  0  0  0
   67.3119   31.0249   52.1755 H   0  0  0  0  0  0  0  0  0  0  0  0
   67.2910   33.1150   51.8630 C   0  0  0  0  0  0  0  0  0  0  0  0
   68.5370   33.0930   51.2100 C   0  0  0  0  0  0  0  0  0  0  0  0
   68.9889   32.1306   50.9280 H   0  0  0  0  0  0  0  0  0  0  0  0
   69.2050   34.2860   50.9170 C   0  0  0  0  0  0  0  0  0  0  0  0
   70.1699   34.2597   50.3895 H   0  0  0  0  0  0  0  0  0  0  0  0
   68.6490   35.5110   51.2930 C   0  0  0  0  0  0  0  0  0  0  0  0
   69.1714   36.4492   51.0546 H   0  0  0  0  0  0  0  0  0  0  0  0
   67.4290   35.5430   51.9720 C   0  0  0  0  0  0  0  0  0  0  0  0
   66.9963   36.5070   52.2776 H   0  0  0  0  0  0  0  0  0  0  0  0
   66.7570   34.3540   52.2640 C   0  0  0  0  0  0  0  0  0  0  0  0
   65.8034   34.3861   52.8114 H   0  0  0  0  0  0  0  0  0  0  0  0
   64.1400   31.7000   51.6820 C   0  0  0  0  0  0  0  0  0  0  0  0
   63.8781   30.9348   52.4276 H   0  0  0  0  0  0  0  0  0  0  0  0
   64.1195   32.7072   52.1237 H   0  0  0  0  0  0  0  0  0  0  0  0
   63.1120   31.6580   50.5470 C   0  0  0  0  0  0  0  0  0  0  0  0
   63.1089   30.6553   50.0947 H   0  0  0  0  0  0  0  0  0  0  0  0
   62.1153   31.8862   50.9526 H   0  0  0  0  0  0  0  0  0  0  0  0
   61.3160   33.8590   49.2290 C   0  0  0  0  0  0  0  0  0  0  0  0
   61.2200   33.9348   50.3222 H   0  0  0  0  0  0  0  0  0  0  0  0
   60.3260   34.4070   48.4070 C   0  0  0  0  0  0  0  0  0  0  0  0
   59.2370   34.9850   48.9750 F   0  0  0  0  0  0  0  0  0  0  0  0
   55.9640   30.4520   43.8160 C   0  0  0  0  0  0  0  0  0  0  0  0
   55.4467   31.1498   43.1411 H   0  0  0  0  0  0  0  0  0  0  0  0
  1  2  1  0
  2  3  1  0
  3  4  1  0
  4  5  2  0
  5  6  1  0
  5  7  1  0
  7  8  1  0
  7  9  2  0
  9 10  1  0
  9 11  1  0
 11 12  1  0
 11 13  2  0
 13 14  1  0
 14 15  2  0
 15 16  1  0
 16 17  1  0
 16 18  1  0
 16 19  1  0
 19 20  1  0
 19 21  1  0
 19 22  1  0
 22 23  1  0
 23 24  2  0
 23 25  1  0
 25 26  2  0
 26 27  1  0
 26 28  1  0
 28 29  1  0
 28 30  2  0
 30 31  1  0
 31 32  1  0
 32 33  1  0
 32 34  1  0
 32 35  1  0
 35 36  1  0
 35 37  1  0
 35 38  1  0
 38 39  1  0
 38 40  1  0
 40 41  1  0
 40 42  1  0
 40 43  1  0
 43 44  2  0
 44 45  1  0
 44 46  1  0
 46 47  1  0
 46 48  2  0
 48 49  1  0
 48 50  1  0
 50 51  1  0
 50 52  2  0
 52 53  1  0
 38 54  1  0
 54 55  1  0
 54 56  1  0
 54 57  1  0
 57 58  1  0
 57 59  1  0
 30 60  1  0
 60 61  1  0
 60 62  2  0
 62 63  1  0
 14 64  1  0
 64 65  1  0
 64  2  2  0
 13  4  1  0
 62 25  1  0
 57 31  1  0
 52 43  1  0
M  CHG  3   3  -1  22  -1  38   1
M  END
>  <UniqueID>  (12) 
10

>  <SMILES>  (12) 
O=C([N-]CC/N=c1\cc[n-]c2cc(Cl)ccc12)c1ccc(N2CC[NH+](Cc3ccccc3)CC2)cc1F

>  <Energy>  (12) 
94.15206469721672

>  <Genealogy>  (12) 
O=C([N-]CCN=c1cc[n-]c2cc(Cl)ccc12)c1ccc(N2CC[NH+](Cc3ccccc3)CC2)cc1F (protonated)
O=C([N-]CC/N=c1\cc[n-]c2cc(Cl)ccc12)c1ccc(N2CC[NH+](Cc3ccccc3)CC2)cc1F (cis-trans isomerization)
O=C([N-]CC/N=c1\cc[n-]c2cc(Cl)ccc12)c1ccc(N2CC[NH+](Cc3ccccc3)CC2)cc1F (3D coordinates assigned)
O=C([N-]CC/N=c1\cc[n-]c2cc(Cl)ccc12)c1ccc(N2CC[NH+](Cc3ccccc3)CC2)cc1F (nonaromatic ring conformer: 94.15206469721672 kcal/mol)

>  <smiles>  (12) 
O=C(NCCN=c1cc[nH]c2cc(Cl)ccc12)c1ccc(N2CCN(Cc3ccccc3)CC2)cc1F

>  <score_type>  (12) 
oracle

>  <origin>  (12) 
adg

>  <m_score__min__energy>  (12) 
-11.08

>  <m_primary>  (12) 
energy

$$$$
12:0
     RDKit          3D

 42 44  0  0  0  0  0  0  0  0999 V2000
   57.7280   32.3380   41.6870 C   0  0  0  0  0  0  0  0  0  0  0  0
   57.7240   31.8730   43.1130 C   0  0  0  0  0  0  0  0  0  0  0  0
   57.0140   30.7210   43.4770 C   0  0  0  0  0  0  0  0  0  0  0  0
   57.0500   30.2460   44.7930 C   0  0  0  0  0  0  0  0  0  0  0  0
   56.2770   29.0820   45.1270 N   0  0  0  0  0  0  0  0  0  0  0  0
   56.7250   27.9590   45.6090 C   0  0  0  0  0  0  0  0  0  0  0  0
   58.0570   27.8240   45.8420 N   0  0  0  0  0  0  0  0  0  0  0  0
   58.5740   26.6790   46.3650 C   0  0  0  0  0  0  0  0  0  0  0  0
   60.0500   26.5600   46.6070 C   0  0  0  0  0  0  0  0  0  0  0  0
   60.7110   27.5870   45.9570 F   0  0  0  0  0  0  0  0  0  0  0  0
   60.5260   25.3500   46.1330 F   0  0  0  0  0  0  0  0  0  0  0  0
   60.3070   26.6410   47.9640 F   0  0  0  0  0  0  0  0  0  0  0  0
   57.7170   25.6190   46.6800 C   0  0  0  0  0  0  0  0  0  0  0  0
   56.3510   25.7740   46.4460 C   0  0  0  0  0  0  0  0  0  0  0  0
   55.8830   26.9360   45.9220 N   0  0  0  0  0  0  0  0  0  0  0  0
   57.7740   30.9630   45.7630 C   0  0  0  0  0  0  0  0  0  0  0  0
   58.5110   32.1060   45.4110 C   0  0  0  0  0  0  0  0  0  0  0  0
   59.3000   32.8360   46.4350 C   0  0  0  0  0  0  0  0  0  0  0  0
   58.6560   33.5270   47.4780 C   0  0  0  0  0  0  0  0  0  0  0  0
   59.4030   34.2050   48.4440 C   0  0  0  0  0  0  0  0  0  0  0  0
   60.7980   34.2070   48.3800 C   0  0  0  0  0  0  0  0  0  0  0  0
   61.4550   33.5320   47.3450 C   0  0  0  0  0  0  0  0  0  0  0  0
   63.2140   33.5220   47.2690 S   0  0  0  0  0  0  0  0  0  0  0  0
   63.7740   31.8910   47.1600 N   0  0  0  0  0  0  0  0  0  0  0  0
   63.7820   34.1690   48.5030 O   0  0  0  0  0  0  0  0  0  0  0  0
   63.6750   34.2940   46.0650 O   0  0  0  0  0  0  0  0  0  0  0  0
   60.7070   32.8450   46.3780 C   0  0  0  0  0  0  0  0  0  0  0  0
   58.4890   32.5470   44.0760 C   0  0  0  0  0  0  0  0  0  0  0  0
   57.7375   33.4376   41.6599 H   0  0  0  0  0  0  0  0  0  0  0  0
   58.6228   31.9510   41.1776 H   0  0  0  0  0  0  0  0  0  0  0  0
   56.8266   31.9664   41.1776 H   0  0  0  0  0  0  0  0  0  0  0  0
   56.4223   30.1845   42.7206 H   0  0  0  0  0  0  0  0  0  0  0  0
   58.1121   24.6836   47.1031 H   0  0  0  0  0  0  0  0  0  0  0  0
   55.6544   24.9570   46.6853 H   0  0  0  0  0  0  0  0  0  0  0  0
   57.7629   30.6246   46.8096 H   0  0  0  0  0  0  0  0  0  0  0  0
   57.5574   33.5332   47.5329 H   0  0  0  0  0  0  0  0  0  0  0  0
   58.8908   34.7391   49.2578 H   0  0  0  0  0  0  0  0  0  0  0  0
   61.3817   34.7403   49.1448 H   0  0  0  0  0  0  0  0  0  0  0  0
   64.5170   31.8710   46.4250 H   0  0  0  0  0  0  0  0  0  0  0  0
   64.2420   31.6670   48.0670 H   0  0  0  0  0  0  0  0  0  0  0  0
   61.2236   32.3088   45.5683 H   0  0  0  0  0  0  0  0  0  0  0  0
   59.0776   33.4293   43.7841 H   0  0  0  0  0  0  0  0  0  0  0  0
  1  2  1  0
  2  3  2  0
  3  4  1  0
  4  5  1  0
  5  6  2  3
  6  7  1  0
  7  8  2  0
  8  9  1  0
  9 10  1  0
  9 11  1  0
  9 12  1  0
  8 13  1  0
 13 14  2  0
 14 15  1  0
  4 16  2  0
 16 17  1  0
 17 18  1  0
 18 19  2  0
 19 20  1  0
 20 21  2  0
 21 22  1  0
 22 23  1  0
 23 24  1  0
 23 25  2  0
 23 26  2  0
 22 27  2  0
 17 28  2  0
 28  2  1  0
 15  6  1  0
 27 18  1  0
  1 29  1  0
  1 30  1  0
  1 31  1  0
  3 32  1  0
 13 33  1  0
 14 34  1  0
 16 35  1  0
 19 36  1  0
 20 37  1  0
 21 38  1  0
 24 39  1  0
 24 40  1  0
 27 41  1  0
 28 42  1  0
M  CHG  1  15  -1
M  END
>  <UniqueID>  (13) 
11

>  <SMILES>  (13) 
Cc1cc(N=c2nc(C(F)(F)F)cc[n-]2)cc(-c2cccc(S(N)(=O)=O)c2)c1

>  <Energy>  (13) 
53.98329476169328

>  <Genealogy>  (13) 
Cc1cc(N=c2nc(C(F)(F)F)cc[n-]2)cc(-c2cccc(S(N)(=O)=O)c2)c1 (protonated)
Cc1cc(N=c2nc(C(F)(F)F)cc[n-]2)cc(-c2cccc(S(N)(=O)=O)c2)c1 (3D coordinates assigned)
Cc1cc(N=c2nc(C(F)(F)F)cc[n-]2)cc(-c2cccc(S(N)(=O)=O)c2)c1 (optimized conformer: 53.98329476169328 kcal/mol)

>  <smiles>  (13) 
Cc1cc(N=c2nc(C(F)(F)F)cc[nH]2)cc(-c2cccc(S(N)(=O)=O)c2)c1

>  <score_type>  (13) 
oracle

>  <origin>  (13) 
adg

>  <m_score__min__energy>  (13) 
-11.1

>  <m_primary>  (13) 
energy

$$$$
13:0
     RDKit          3D

 51 54  0  0  0  0  0  0  0  0999 V2000
   51.6840   33.2260   48.7600 H   0  0  0  0  0  0  0  0  0  0  0  0
   51.0140   32.7210   49.3810 N   0  0  0  0  0  0  0  0  0  0  0  0
   51.3980   32.2000   50.5000 C   0  0  0  0  0  0  0  0  0  0  0  0
   51.1520   32.7710   51.6980 N   0  0  0  0  0  0  0  0  0  0  0  0
   51.7130   31.9180   52.5720 C   0  0  0  0  0  0  0  0  0  0  0  0
   51.7274   32.0435   53.6647 H   0  0  0  0  0  0  0  0  0  0  0  0
   52.2680   30.8600   51.8820 C   0  0  0  0  0  0  0  0  0  0  0  0
   53.0230   29.7310   52.4740 C   0  0  0  0  0  0  0  0  0  0  0  0
   52.3120   28.5760   52.8470 C   0  0  0  0  0  0  0  0  0  0  0  0
   51.2348   28.5083   52.6345 H   0  0  0  0  0  0  0  0  0  0  0  0
   52.9570   27.5160   53.4830 C   0  0  0  0  0  0  0  0  0  0  0  0
   52.3893   26.6160   53.7618 H   0  0  0  0  0  0  0  0  0  0  0  0
   54.3180   27.5940   53.7660 C   0  0  0  0  0  0  0  0  0  0  0  0
   54.8198   26.7636   54.2843 H   0  0  0  0  0  0  0  0  0  0  0  0
   55.0460   28.7240   53.3930 C   0  0  0  0  0  0  0  0  0  0  0  0
   56.1170   28.7852   53.6365 H   0  0  0  0  0  0  0  0  0  0  0  0
   54.4260   29.7880   52.7080 C   0  0  0  0  0  0  0  0  0  0  0  0
   55.2770   30.9660   52.2680 C   0  0  0  0  0  0  0  0  0  0  0  0
   55.1293   31.1306   51.1905 H   0  0  0  0  0  0  0  0  0  0  0  0
   54.9676   31.8494   52.8458 H   0  0  0  0  0  0  0  0  0  0  0  0
   56.7160   30.7240   52.5250 N   0  0  0  0  0  0  0  0  0  0  0  0
   57.4930   30.4540   51.2970 C   0  0  0  0  0  0  0  0  0  0  0  0
   58.4624   30.0207   51.5841 H   0  0  0  0  0  0  0  0  0  0  0  0
   56.9007   29.7634   50.6787 H   0  0  0  0  0  0  0  0  0  0  0  0
   57.7510   31.7200   50.4550 C   0  0  0  0  0  0  0  0  0  0  0  0
   58.4698   31.4703   49.6606 H   0  0  0  0  0  0  0  0  0  0  0  0
   56.7812   32.0447   50.0500 H   0  0  0  0  0  0  0  0  0  0  0  0
   58.2960   32.8480   51.2440 N   0  0  0  0  0  0  0  0  0  0  0  0
   58.1520   33.7030   50.6560 H   0  0  0  0  0  0  0  0  0  0  0  0
   59.7260   32.7130   51.4760 C   0  0  0  0  0  0  0  0  0  0  0  0
   60.1690   31.7720   52.1180 O   0  0  0  0  0  0  0  0  0  0  0  0
   60.6960   33.7130   50.9040 C   0  0  0  0  0  0  0  0  0  0  0  0
   60.5145   34.6982   51.3583 H   0  0  0  0  0  0  0  0  0  0  0  0
   61.7235   33.3865   51.1222 H   0  0  0  0  0  0  0  0  0  0  0  0
   60.5140   33.8090   49.4220 C   0  0  0  0  0  0  0  0  0  0  0  0
   59.2890   33.9990   48.8600 N   0  0  0  0  0  0  0  0  0  0  0  0
   59.3630   34.0930   47.5170 C   0  0  0  0  0  0  0  0  0  0  0  0
   58.1700   34.2270   46.6340 C   0  0  0  0  0  0  0  0  0  0  0  0
   57.2658   34.3286   47.2522 H   0  0  0  0  0  0  0  0  0  0  0  0
   58.2820   35.1182   45.9990 H   0  0  0  0  0  0  0  0  0  0  0  0
   58.0815   33.3331   45.9990 H   0  0  0  0  0  0  0  0  0  0  0  0
   60.9450   33.9250   46.9730 S   0  0  0  0  0  0  0  0  0  0  0  0
   61.5760   33.7490   48.5220 C   0  0  0  0  0  0  0  0  0  0  0  0
   62.6368   33.6112   48.7786 H   0  0  0  0  0  0  0  0  0  0  0  0
   57.5510   33.0830   52.4980 C   0  0  0  0  0  0  0  0  0  0  0  0
   58.1144   33.8019   53.1110 H   0  0  0  0  0  0  0  0  0  0  0  0
   56.5576   33.4674   52.2235 H   0  0  0  0  0  0  0  0  0  0  0  0
   57.3370   31.7990   53.3200 C   0  0  0  0  0  0  0  0  0  0  0  0
   58.3121   31.4483   53.6889 H   0  0  0  0  0  0  0  0  0  0  0  0
   56.6570   32.0399   54.1504 H   0  0  0  0  0  0  0  0  0  0  0  0
   52.0820   31.0410   50.5620 N   0  0  0  0  0  0  0  0  0  0  0  0
  1  2  1  0
  2  3  2  0
  3  4  1  0
  4  5  1  0
  5  6  1  0
  5  7  2  0
  7  8  1  0
  8  9  2  0
  9 10  1  0
  9 11  1  0
 11 12  1  0
 11 13  2  0
 13 14  1  0
 13 15  1  0
 15 16  1  0
 15 17  2  0
 17 18  1  0
 18 19  1  0
 18 20  1  0
 18 21  1  0
 21 22  1  0
 22 23  1  0
 22 24  1  0
 22 25  1  0
 25 26  1  0
 25 27  1  0
 25 28  1  0
 28 29  1  0
 28 30  1  0
 30 31  2  0
 30 32  1  0
 32 33  1  0
 32 34  1  0
 32 35  1  0
 35 36  1  0
 36 37  2  0
 37 38  1  0
 38 39  1  0
 38 40  1  0
 38 41  1  0
 37 42  1  0
 42 43  1  0
 43 44  1  0
 28 45  1  0
 45 46  1  0
 45 47  1  0
 45 48  1  0
 48 49  1  0
 48 50  1  0
  7 51  1  0
 51  3  1  0
 17  8  1  0
 48 21  1  0
 43 35  2  0
M  CHG  3   4  -1  28   1  51  -1
M  END
>  <UniqueID>  (14) 
12

>  <SMILES>  (14) 
[H]/N=c1\[n-]cc(-c2ccccc2CN2CC[NH+](C(=O)Cc3csc(C)n3)CC2)[n-]1

>  <Energy>  (14) 
122.30563443486719

>  <Genealogy>  (14) 
Cc1nc(CC(=O)[NH+]2CCN(Cc3ccccc3-c3c[n-]c(=N)[n-]3)CC2)cs1 (protonated)
[H]/N=c1\[n-]cc(-c2ccccc2CN2CC[NH+](C(=O)Cc3csc(C)n3)CC2)[n-]1 (cis-trans isomerization)
[H]/N=c1\[n-]cc(-c2ccccc2CN2CC[NH+](C(=O)Cc3csc(C)n3)CC2)[n-]1 (3D coordinates assigned)
[H]/N=c1\[n-]cc(-c2ccccc2CN2CC[NH+](C(=O)Cc3csc(C)n3)CC2)[n-]1 (nonaromatic ring conformer: 122.30563443486719 kcal/mol)

>  <smiles>  (14) 
Cc1nc(CC(=O)N2CCN(Cc3ccccc3-c3c[nH]c(=N)[nH]3)CC2)cs1

>  <score_type>  (14) 
oracle

>  <origin>  (14) 
adg

>  <m_score__min__energy>  (14) 
-11.83

>  <m_primary>  (14) 
energy

$$$$
14:0
     RDKit          3D

 13 13  0  0  0  0  0  0  0  0999 V2000
   51.4190   32.7420   49.9770 O   0  0  0  0  0  0  0  0  0  0  0  0
   51.3890   32.3210   51.1650 C   0  0  0  0  0  0  0  0  0  0  0  0
   50.3630   32.7390   52.0030 O   0  0  0  0  0  0  0  0  0  0  0  0
   52.4290   31.3940   51.6620 C   0  0  0  0  0  0  0  0  0  0  0  0
   52.2240   30.6450   52.8300 C   0  0  0  0  0  0  0  0  0  0  0  0
   53.2240   29.7800   53.2730 C   0  0  0  0  0  0  0  0  0  0  0  0
   53.0550   29.1000   54.3210 O   0  0  0  0  0  0  0  0  0  0  0  0
   54.4090   29.6790   52.5410 C   0  0  0  0  0  0  0  0  0  0  0  0
   55.3320   28.9080   52.9120 O   0  0  0  0  0  0  0  0  0  0  0  0
   54.5620   30.4240   51.4160 N   0  0  0  0  0  0  0  0  0  0  0  0
   53.6090   31.2540   50.9870 N   0  0  0  0  0  0  0  0  0  0  0  0
   51.2828   30.7391   53.3915 H   0  0  0  0  0  0  0  0  0  0  0  0
   53.7850   31.8000   50.1150 H   0  0  0  0  0  0  0  0  0  0  0  0
  1  2  2  0
  2  3  1  0
  2  4  1  0
  4  5  2  0
  5  6  1  0
  6  7  2  0
  6  8  1  0
  8  9  2  0
  8 10  1  0
 10 11  1  0
 11  4  1  0
  5 12  1  0
 11 13  1  0
M  CHG  2   3  -1  10  -1
M  END
>  <UniqueID>  (15) 
13

>  <SMILES>  (15) 
O=C([O-])c1cc(=O)c(=O)[n-][nH]1

>  <Energy>  (15) 
13.595295070644555

>  <Genealogy>  (15) 
O=C([O-])c1cc(=O)c(=O)[n-][nH]1 (protonated)
O=C([O-])c1cc(=O)c(=O)[n-][nH]1 (3D coordinates assigned)
O=C([O-])c1cc(=O)c(=O)[n-][nH]1 (optimized conformer: 13.595295070644555 kcal/mol)

>  <smiles>  (15) 
O=C(O)c1cc(=O)c(=O)[nH][nH]1

>  <score_type>  (15) 
oracle

>  <origin>  (15) 
adg

>  <m_score__min__energy>  (15) 
-9.3399999999999999

>  <m_primary>  (15) 
energy

$$$$
15:0
     RDKit          3D

 50 53  0  0  0  0  0  0  0  0999 V2000
   54.3350   28.9710   51.9990 O   0  0  0  0  0  0  0  0  0  0  0  0
   54.0020   30.1410   51.6660 C   0  0  0  0  0  0  0  0  0  0  0  0
   52.7160   30.3580   50.9320 C   0  0  0  0  0  0  0  0  0  0  0  0
   51.8480   31.3110   51.6920 C   0  0  0  0  0  0  0  0  0  0  0  0
   51.6320   31.2400   53.0170 N   0  0  0  0  0  0  0  0  0  0  0  0
   50.7590   32.2460   53.2430 C   0  0  0  0  0  0  0  0  0  0  0  0
   50.3120   32.5110   54.3900 O   0  0  0  0  0  0  0  0  0  0  0  0
   50.3970   32.9430   52.1430 N   0  0  0  0  0  0  0  0  0  0  0  0
   51.0930   32.3340   51.1690 C   0  0  0  0  0  0  0  0  0  0  0  0
   51.0340   32.7030   49.8300 O   0  0  0  0  0  0  0  0  0  0  0  0
   54.8670   31.2500   51.9500 N   0  0  0  0  0  0  0  0  0  0  0  0
   56.1160   31.0960   52.6910 C   0  0  0  0  0  0  0  0  0  0  0  0
   57.2580   31.7300   51.9420 C   0  0  0  0  0  0  0  0  0  0  0  0
   57.7590   32.9820   52.3300 C   0  0  0  0  0  0  0  0  0  0  0  0
   58.8120   33.5670   51.6260 C   0  0  0  0  0  0  0  0  0  0  0  0
   59.3770   32.9080   50.5310 C   0  0  0  0  0  0  0  0  0  0  0  0
   58.8990   31.6470   50.1400 C   0  0  0  0  0  0  0  0  0  0  0  0
   59.5120   30.9290   48.9630 C   0  0  0  0  0  0  0  0  0  0  0  0
   60.7460   31.6090   48.5060 N   0  0  0  0  0  0  0  0  0  0  0  0
   60.7260   32.4470   47.4090 C   0  0  0  0  0  0  0  0  0  0  0  0
   59.4890   32.7090   46.6420 C   0  0  0  0  0  0  0  0  0  0  0  0
   58.8960   33.9810   46.6850 C   0  0  0  0  0  0  0  0  0  0  0  0
   57.7140   34.2290   45.9790 C   0  0  0  0  0  0  0  0  0  0  0  0
   57.1250   33.2120   45.2200 C   0  0  0  0  0  0  0  0  0  0  0  0
   57.7210   31.9480   45.1590 C   0  0  0  0  0  0  0  0  0  0  0  0
   58.9030   31.6970   45.8640 C   0  0  0  0  0  0  0  0  0  0  0  0
   61.8920   33.1150   47.0130 C   0  0  0  0  0  0  0  0  0  0  0  0
   63.0610   32.9090   47.7320 C   0  0  0  0  0  0  0  0  0  0  0  0
   64.1250   33.4890   47.3930 O   0  0  0  0  0  0  0  0  0  0  0  0
   63.0530   32.0820   48.8030 N   0  0  0  0  0  0  0  0  0  0  0  0
   61.9230   31.4400   49.1980 C   0  0  0  0  0  0  0  0  0  0  0  0
   61.9760   30.6950   50.2150 O   0  0  0  0  0  0  0  0  0  0  0  0
   57.8330   31.0670   50.8470 C   0  0  0  0  0  0  0  0  0  0  0  0
   52.9303   30.7747   49.9368 H   0  0  0  0  0  0  0  0  0  0  0  0
   52.1923   29.3962   50.8286 H   0  0  0  0  0  0  0  0  0  0  0  0
   54.5910   32.2070   51.6320 H   0  0  0  0  0  0  0  0  0  0  0  0
   56.0153   31.5798   53.6738 H   0  0  0  0  0  0  0  0  0  0  0  0
   56.3251   30.0232   52.8147 H   0  0  0  0  0  0  0  0  0  0  0  0
   57.3198   33.5043   53.1927 H   0  0  0  0  0  0  0  0  0  0  0  0
   59.1985   34.5498   51.9338 H   0  0  0  0  0  0  0  0  0  0  0  0
   60.1996   33.3791   49.9730 H   0  0  0  0  0  0  0  0  0  0  0  0
   59.7585   29.8988   49.2595 H   0  0  0  0  0  0  0  0  0  0  0  0
   58.7861   30.9308   48.1365 H   0  0  0  0  0  0  0  0  0  0  0  0
   59.3618   34.7841   47.2750 H   0  0  0  0  0  0  0  0  0  0  0  0
   57.2474   35.2243   46.0207 H   0  0  0  0  0  0  0  0  0  0  0  0
   56.1921   33.4066   44.6706 H   0  0  0  0  0  0  0  0  0  0  0  0
   57.2602   31.1512   44.5566 H   0  0  0  0  0  0  0  0  0  0  0  0
   59.3746   30.7047   45.8089 H   0  0  0  0  0  0  0  0  0  0  0  0
   61.8811   33.7920   46.1460 H   0  0  0  0  0  0  0  0  0  0  0  0
   57.4455   30.0845   50.5397 H   0  0  0  0  0  0  0  0  0  0  0  0
  1  2  2  0
  2  3  1  0
  3  4  1  0
  4  5  1  0
  5  6  1  0
  6  7  2  0
  6  8  1  0
  8  9  1  0
  9 10  1  0
  2 11  1  0
 11 12  1  0
 12 13  1  0
 13 14  2  0
 14 15  1  0
 15 16  2  0
 16 17  1  0
 17 18  1  0
 18 19  1  0
 19 20  1  0
 20 21  1  0
 21 22  2  0
 22 23  1  0
 23 24  2  0
 24 25  1  0
 25 26  2  0
 20 27  2  0
 27 28  1  0
 28 29  2  0
 28 30  1  0
 30 31  1  0
 31 32  2  0
 17 33  2  0
  9  4  2  0
 33 13  1  0
 31 19  1  0
 26 21  1  0
  3 34  1  0
  3 35  1  0
 11 36  1  0
 12 37  1  0
 12 38  1  0
 14 39  1  0
 15 40  1  0
 16 41  1  0
 18 42  1  0
 18 43  1  0
 22 44  1  0
 23 45  1  0
 24 46  1  0
 25 47  1  0
 26 48  1  0
 27 49  1  0
 33 50  1  0
M  CHG  4   5  -1   8  -1  10  -1  30  -1
M  END
>  <UniqueID>  (16) 
14

>  <SMILES>  (16) 
O=C(Cc1[n-]c(=O)[n-]c1[O-])NCc1cccc(Cn2c(-c3ccccc3)cc(=O)[n-]c2=O)c1

>  <Energy>  (16) 
89.19199050930537

>  <Genealogy>  (16) 
O=C(Cc1[n-]c(=O)[n-]c1[O-])NCc1cccc(Cn2c(-c3ccccc3)cc(=O)[n-]c2=O)c1 (protonated)
O=C(Cc1[n-]c(=O)[n-]c1[O-])NCc1cccc(Cn2c(-c3ccccc3)cc(=O)[n-]c2=O)c1 (3D coordinates assigned)
O=C(Cc1[n-]c(=O)[n-]c1[O-])NCc1cccc(Cn2c(-c3ccccc3)cc(=O)[n-]c2=O)c1 (optimized conformer: 89.19199050930537 kcal/mol)

>  <smiles>  (16) 
O=C(Cc1[nH]c(=O)[nH]c1O)NCc1cccc(Cn2c(-c3ccccc3)cc(=O)[nH]c2=O)c1

>  <score_type>  (16) 
oracle

>  <origin>  (16) 
adg

>  <m_score__min__energy>  (16) 
-20.07

>  <m_primary>  (16) 
energy

$$$$
16:0
     RDKit          3D

 69 73  0  0  0  0  0  0  0  0999 V2000
   58.4680   31.4840   47.3740 C   0  0  0  0  0  0  0  0  0  0  0  0
   58.4930   32.3590   46.3550 C   0  0  0  0  0  0  0  0  0  0  0  0
   58.2850   32.0840   44.9910 C   0  0  0  0  0  0  0  0  0  0  0  0
   57.9160   30.9520   44.3590 C   0  0  0  0  0  0  0  0  0  0  0  0
   57.9400   29.6130   44.9520 C   0  0  0  0  0  0  0  0  0  0  0  0
   59.0620   28.9950   45.3740 N   0  0  0  0  0  0  0  0  0  0  0  0
   58.6040   27.8180   45.8590 C   0  0  0  0  0  0  0  0  0  0  0  0
   59.3640   26.9580   46.3790 O   0  0  0  0  0  0  0  0  0  0  0  0
   57.2650   27.6610   45.7480 N   0  0  0  0  0  0  0  0  0  0  0  0
   56.4620   26.5640   46.2970 C   0  0  0  0  0  0  0  0  0  0  0  0
   56.4440   25.4030   45.3310 C   0  0  0  0  0  0  0  0  0  0  0  0
   57.3230   25.4010   44.2340 C   0  0  0  0  0  0  0  0  0  0  0  0
   57.3610   24.3160   43.3580 C   0  0  0  0  0  0  0  0  0  0  0  0
   56.5360   23.2150   43.5750 C   0  0  0  0  0  0  0  0  0  0  0  0
   55.6640   23.1950   44.6650 C   0  0  0  0  0  0  0  0  0  0  0  0
   55.6080   24.2870   45.5530 C   0  0  0  0  0  0  0  0  0  0  0  0
   54.7410   24.2930   46.6600 O   0  0  0  0  0  0  0  0  0  0  0  0
   54.4700   23.1670   47.4840 C   0  0  0  0  0  0  0  0  0  0  0  0
   56.8490   28.8000   45.1610 C   0  0  0  0  0  0  0  0  0  0  0  0
   55.5360   29.1080   44.8010 O   0  0  0  0  0  0  0  0  0  0  0  0
   58.5500   33.2620   44.3170 C   0  0  0  0  0  0  0  0  0  0  0  0
   58.8590   34.2130   45.2660 C   0  0  0  0  0  0  0  0  0  0  0  0
   59.2690   35.6190   44.9450 C   0  0  0  0  0  0  0  0  0  0  0  0
   58.8360   33.6680   46.5050 N   0  0  0  0  0  0  0  0  0  0  0  0
   59.2030   34.3520   47.7570 C   0  0  0  0  0  0  0  0  0  0  0  0
   60.5690   33.9210   48.2320 C   0  0  0  0  0  0  0  0  0  0  0  0
   61.5560   33.5440   47.3070 C   0  0  0  0  0  0  0  0  0  0  0  0
   62.8090   33.1110   47.7470 C   0  0  0  0  0  0  0  0  0  0  0  0
   63.1040   33.0570   49.1190 C   0  0  0  0  0  0  0  0  0  0  0  0
   64.4190   32.5750   49.5980 C   0  0  0  0  0  0  0  0  0  0  0  0
   65.4660   33.0310   49.0630 O   0  0  0  0  0  0  0  0  0  0  0  0
   64.5380   31.6100   50.6590 N   0  0  0  0  0  0  0  0  0  0  0  0
   63.6070   30.5080   50.8620 C   0  0  0  0  0  0  0  0  0  0  0  0
   64.3240   29.5280   51.7830 C   0  0  0  0  0  0  0  0  0  0  0  0
   65.4880   30.3040   52.3900 C   0  0  0  0  0  0  0  0  0  0  0  0
   65.7560   31.4560   51.4350 C   0  0  0  0  0  0  0  0  0  0  0  0
   62.1030   33.3990   50.0430 C   0  0  0  0  0  0  0  0  0  0  0  0
   60.8460   33.8270   49.6030 C   0  0  0  0  0  0  0  0  0  0  0  0
   58.6482   31.8316   48.4020 H   0  0  0  0  0  0  0  0  0  0  0  0
   58.2673   30.4199   47.1804 H   0  0  0  0  0  0  0  0  0  0  0  0
   57.5705   31.0407   43.3184 H   0  0  0  0  0  0  0  0  0  0  0  0
   56.8979   26.2362   47.2523 H   0  0  0  0  0  0  0  0  0  0  0  0
   55.4323   26.9158   46.4578 H   0  0  0  0  0  0  0  0  0  0  0  0
   57.9863   26.2621   44.0649 H   0  0  0  0  0  0  0  0  0  0  0  0
   58.0431   24.3300   42.4951 H   0  0  0  0  0  0  0  0  0  0  0  0
   56.5716   22.3587   42.8855 H   0  0  0  0  0  0  0  0  0  0  0  0
   55.0168   22.3213   44.8314 H   0  0  0  0  0  0  0  0  0  0  0  0
   54.5408   23.4611   48.5416 H   0  0  0  0  0  0  0  0  0  0  0  0
   53.4565   22.7944   47.2740 H   0  0  0  0  0  0  0  0  0  0  0  0
   55.2030   22.3741   47.2740 H   0  0  0  0  0  0  0  0  0  0  0  0
   54.7530   28.9620   45.4240 H   0  0  0  0  0  0  0  0  0  0  0  0
   58.5199   33.4121   43.2277 H   0  0  0  0  0  0  0  0  0  0  0  0
   59.4314   36.1760   45.8795 H   0  0  0  0  0  0  0  0  0  0  0  0
   60.2004   35.6048   44.3600 H   0  0  0  0  0  0  0  0  0  0  0  0
   58.4760   36.1077   44.3600 H   0  0  0  0  0  0  0  0  0  0  0  0
   59.2091   35.4383   47.5843 H   0  0  0  0  0  0  0  0  0  0  0  0
   58.4653   34.0870   48.5288 H   0  0  0  0  0  0  0  0  0  0  0  0
   61.3411   33.5900   46.2292 H   0  0  0  0  0  0  0  0  0  0  0  0
   63.5709   32.8099   47.0129 H   0  0  0  0  0  0  0  0  0  0  0  0
   62.6810   30.8698   51.3329 H   0  0  0  0  0  0  0  0  0  0  0  0
   63.3216   30.0365   49.9100 H   0  0  0  0  0  0  0  0  0  0  0  0
   63.6439   29.1773   52.5732 H   0  0  0  0  0  0  0  0  0  0  0  0
   64.6714   28.6388   51.2364 H   0  0  0  0  0  0  0  0  0  0  0  0
   65.2170   30.6859   53.3853 H   0  0  0  0  0  0  0  0  0  0  0  0
   66.3765   29.6685   52.5194 H   0  0  0  0  0  0  0  0  0  0  0  0
   65.9734   32.3771   51.9956 H   0  0  0  0  0  0  0  0  0  0  0  0
   66.6265   31.2583   50.7922 H   0  0  0  0  0  0  0  0  0  0  0  0
   62.3091   33.3297   51.1213 H   0  0  0  0  0  0  0  0  0  0  0  0
   60.0705   34.0913   50.3370 H   0  0  0  0  0  0  0  0  0  0  0  0
  1  2  2  0
  2  3  1  0
  3  4  2  3
  4  5  1  0
  5  6  1  0
  6  7  1  0
  7  8  2  0
  7  9  1  0
  9 10  1  0
 10 11  1  0
 11 12  2  0
 12 13  1  0
 13 14  2  0
 14 15  1  0
 15 16  2  0
 16 17  1  0
 17 18  1  0
  9 19  1  0
 19 20  1  0
  3 21  1  0
 21 22  2  0
 22 23  1  0
 22 24  1  0
 24 25  1  0
 25 26  1  0
 26 27  2  0
 27 28  1  0
 28 29  2  0
 29 30  1  0
 30 31  2  0
 30 32  1  0
 32 33  1  0
 33 34  1  0
 34 35  1  0
 35 36  1  0
 29 37  1  0
 37 38  2  0
 24  2  1  0
 38 26  1  0
 19  5  2  0
 36 32  1  0
 16 11  1  0
  1 39  1  0
  1 40  1  0
  4 41  1  0
 10 42  1  0
 10 43  1  0
 12 44  1  0
 13 45  1  0
 14 46  1  0
 15 47  1  0
 18 48  1  0
 18 49  1  0
 18 50  1  0
 20 51  1  0
 21 52  1  0
 23 53  1  0
 23 54  1  0
 23 55  1  0
 25 56  1  0
 25 57  1  0
 27 58  1  0
 28 59  1  0
 33 60  1  0
 33 61  1  0
 34 62  1  0
 34 63  1  0
 35 64  1  0
 35 65  1  0
 36 66  1  0
 36 67  1  0
 37 68  1  0
 38 69  1  0
M  CHG  1   6  -1
M  END
>  <UniqueID>  (17) 
15

>  <SMILES>  (17) 
C=c1c(=Cc2[n-]c(=O)n(Cc3ccccc3OC)c2O)cc(C)n1Cc1ccc(C(=O)N2CCCC2)cc1

>  <Energy>  (17) 
144.25499818974743

>  <Genealogy>  (17) 
C=c1c(=Cc2[n-]c(=O)n(Cc3ccccc3OC)c2O)cc(C)n1Cc1ccc(C(=O)N2CCCC2)cc1 (protonated)
C=c1c(=Cc2[n-]c(=O)n(Cc3ccccc3OC)c2O)cc(C)n1Cc1ccc(C(=O)N2CCCC2)cc1 (3D coordinates assigned)
C=c1c(=Cc2[n-]c(=O)n(Cc3ccccc3OC)c2O)cc(C)n1Cc1ccc(C(=O)N2CCCC2)cc1 (nonaromatic ring conformer: 144.25499818974743 kcal/mol)

>  <smiles>  (17) 
C=c1c(=Cc2[nH]c(=O)n(Cc3ccccc3OC)c2O)cc(C)n1Cc1ccc(C(=O)N2CCCC2)cc1

>  <score_type>  (17) 
oracle

>  <origin>  (17) 
adg

>  <m_score__min__energy>  (17) 
-12.24

>  <m_primary>  (17) 
energy

$$$$
17:0
     RDKit          3D

 61 64  0  0  0  0  0  0  0  0999 V2000
   58.2960   27.8930   47.8120 C   0  0  0  0  0  0  0  0  0  0  0  0
   58.3240   27.8730   46.3010 C   0  0  0  0  0  0  0  0  0  0  0  0
   58.1420   26.6470   45.6170 C   0  0  0  0  0  0  0  0  0  0  0  0
   57.9780   25.4260   46.3600 N   0  0  0  0  0  0  0  0  0  0  0  0
   56.9490   24.4450   46.1430 C   0  0  0  0  0  0  0  0  0  0  0  0
   55.9000   24.5000   46.8390 O   0  0  0  0  0  0  0  0  0  0  0  0
   57.1160   23.3400   45.1690 C   0  0  0  0  0  0  0  0  0  0  0  0
   56.4770   23.3730   43.9170 C   0  0  0  0  0  0  0  0  0  0  0  0
   56.6330   22.3180   43.0170 C   0  0  0  0  0  0  0  0  0  0  0  0
   57.4460   21.2490   43.3610 C   0  0  0  0  0  0  0  0  0  0  0  0
   58.0770   21.2310   44.5700 N   0  0  0  0  0  0  0  0  0  0  0  0
   57.9320   22.2420   45.4690 C   0  0  0  0  0  0  0  0  0  0  0  0
   58.0980   26.6330   44.2120 C   0  0  0  0  0  0  0  0  0  0  0  0
   58.2920   27.8040   43.4860 C   0  0  0  0  0  0  0  0  0  0  0  0
   58.5330   29.0070   44.1480 C   0  0  0  0  0  0  0  0  0  0  0  0
   58.5700   29.0570   45.5520 C   0  0  0  0  0  0  0  0  0  0  0  0
   58.9000   30.3530   46.1950 C   0  0  0  0  0  0  0  0  0  0  0  0
   60.1190   30.5270   46.8590 C   0  0  0  0  0  0  0  0  0  0  0  0
   60.4470   31.7710   47.4080 C   0  0  0  0  0  0  0  0  0  0  0  0
   61.7050   31.9530   48.0810 N   0  0  0  0  0  0  0  0  0  0  0  0
   62.7510   32.7420   47.4030 C   0  0  0  0  0  0  0  0  0  0  0  0
   64.0050   32.9160   48.2680 C   0  0  0  0  0  0  0  0  0  0  0  0
   64.2890   31.7390   48.9950 O   0  0  0  0  0  0  0  0  0  0  0  0
   63.2810   31.5390   49.9590 C   0  0  0  0  0  0  0  0  0  0  0  0
   61.9600   31.1580   49.2910 C   0  0  0  0  0  0  0  0  0  0  0  0
   59.5440   32.8370   47.2810 C   0  0  0  0  0  0  0  0  0  0  0  0
   59.8550   33.9670   47.7520 O   0  0  0  0  0  0  0  0  0  0  0  0
   58.3480   32.6610   46.6290 N   0  0  0  0  0  0  0  0  0  0  0  0
   57.4170   33.7860   46.4360 C   0  0  0  0  0  0  0  0  0  0  0  0
   57.6410   34.4310   45.0590 C   0  0  0  0  0  0  0  0  0  0  0  0
   59.1260   34.6780   44.7730 C   0  0  0  0  0  0  0  0  0  0  0  0
   59.6440   35.6510   45.6410 O   0  0  0  0  0  0  0  0  0  0  0  0
   58.0320   31.4470   46.0800 C   0  0  0  0  0  0  0  0  0  0  0  0
   59.1329   27.2952   48.2022 H   0  0  0  0  0  0  0  0  0  0  0  0
   58.3894   28.9300   48.1668 H   0  0  0  0  0  0  0  0  0  0  0  0
   57.3453   27.4683   48.1668 H   0  0  0  0  0  0  0  0  0  0  0  0
   55.8505   24.2354   43.6454 H   0  0  0  0  0  0  0  0  0  0  0  0
   56.1168   22.3344   42.0458 H   0  0  0  0  0  0  0  0  0  0  0  0
   57.5823   20.4141   42.6578 H   0  0  0  0  0  0  0  0  0  0  0  0
   58.6920   20.4280   44.8080 H   0  0  0  0  0  0  0  0  0  0  0  0
   58.4573   22.1968   46.4344 H   0  0  0  0  0  0  0  0  0  0  0  0
   57.9085   25.6880   43.6819 H   0  0  0  0  0  0  0  0  0  0  0  0
   58.2551   27.7805   42.3869 H   0  0  0  0  0  0  0  0  0  0  0  0
   58.6958   29.9260   43.5658 H   0  0  0  0  0  0  0  0  0  0  0  0
   60.8204   29.6845   46.9495 H   0  0  0  0  0  0  0  0  0  0  0  0
   63.0327   32.2288   46.4717 H   0  0  0  0  0  0  0  0  0  0  0  0
   62.3398   33.7426   47.2034 H   0  0  0  0  0  0  0  0  0  0  0  0
   64.8602   33.1515   47.6175 H   0  0  0  0  0  0  0  0  0  0  0  0
   63.8258   33.7330   48.9824 H   0  0  0  0  0  0  0  0  0  0  0  0
   63.5876   30.7307   50.6392 H   0  0  0  0  0  0  0  0  0  0  0  0
   63.1366   32.4753   50.5180 H   0  0  0  0  0  0  0  0  0  0  0  0
   61.9954   30.0936   49.0156 H   0  0  0  0  0  0  0  0  0  0  0  0
   61.1480   31.3575   50.0058 H   0  0  0  0  0  0  0  0  0  0  0  0
   56.3828   33.4168   46.5002 H   0  0  0  0  0  0  0  0  0  0  0  0
   57.5967   34.5385   47.2180 H   0  0  0  0  0  0  0  0  0  0  0  0
   57.2369   33.7627   44.2843 H   0  0  0  0  0  0  0  0  0  0  0  0
   57.1285   35.4043   45.0534 H   0  0  0  0  0  0  0  0  0  0  0  0
   59.6813   33.7386   44.9113 H   0  0  0  0  0  0  0  0  0  0  0  0
   59.2317   35.0356   43.7381 H   0  0  0  0  0  0  0  0  0  0  0  0
   59.5550   35.2910   46.5620 H   0  0  0  0  0  0  0  0  0  0  0  0
   57.0811   31.3286   45.5398 H   0  0  0  0  0  0  0  0  0  0  0  0
  1  2  1  0
  2  3  2  0
  3  4  1  0
  4  5  1  0
  5  6  2  0
  5  7  1  0
  7  8  2  0
  8  9  1  0
  9 10  2  0
 10 11  1  0
 11 12  2  0
  3 13  1  0
 13 14  2  0
 14 15  1  0
 15 16  2  0
 16 17  1  0
 17 18  1  0
 18 19  2  0
 19 20  1  0
 20 21  1  0
 21 22  1  0
 22 23  1  0
 23 24  1  0
 24 25  1  0
 19 26  1  0
 26 27  2  0
 26 28  1  0
 28 29  1  0
 29 30  1  0
 30 31  1  0
 31 32  1  0
 28 33  1  0
 16  2  1  0
 33 17  2  0
 12  7  1  0
 25 20  1  0
  1 34  1  0
  1 35  1  0
  1 36  1  0
  8 37  1  0
  9 38  1  0
 10 39  1  0
 11 40  1  0
 12 41  1  0
 13 42  1  0
 14 43  1  0
 15 44  1  0
 18 45  1  0
 21 46  1  0
 21 47  1  0
 22 48  1  0
 22 49  1  0
 24 50  1  0
 24 51  1  0
 25 52  1  0
 25 53  1  0
 29 54  1  0
 29 55  1  0
 30 56  1  0
 30 57  1  0
 31 58  1  0
 31 59  1  0
 32 60  1  0
 33 61  1  0
M  CHG  2   4  -1  11   1
M  END
>  <UniqueID>  (18) 
16

>  <SMILES>  (18) 
Cc1c([N-]C(=O)c2ccc[nH+]c2)cccc1-c1cc(N2CCOCC2)c(=O)n(CCCO)c1

>  <Energy>  (18) 
85.73896303006988

>  <Genealogy>  (18) 
Cc1c([N-]C(=O)c2ccc[nH+]c2)cccc1-c1cc(N2CCOCC2)c(=O)n(CCCO)c1 (protonated)
Cc1c([N-]C(=O)c2ccc[nH+]c2)cccc1-c1cc(N2CCOCC2)c(=O)n(CCCO)c1 (3D coordinates assigned)
Cc1c([N-]C(=O)c2ccc[nH+]c2)cccc1-c1cc(N2CCOCC2)c(=O)n(CCCO)c1 (nonaromatic ring conformer: 85.73896303006988 kcal/mol)

>  <smiles>  (18) 
Cc1c(NC(=O)c2cccnc2)cccc1-c1cc(N2CCOCC2)c(=O)n(CCCO)c1

>  <score_type>  (18) 
oracle

>  <origin>  (18) 
adg

>  <m_score__min__energy>  (18) 
-9.4199999999999999

>  <m_primary>  (18) 
energy

$$$$
18:0
     RDKit          3D

 65 69  0  0  0  0  0  0  0  0999 V2000
   55.4210   29.0090   44.8290 O   0  0  0  0  0  0  0  0  0  0  0  0
   56.5730   29.3430   45.2100 C   0  0  0  0  0  0  0  0  0  0  0  0
   57.2530   28.5120   46.1580 N   0  0  0  0  0  0  0  0  0  0  0  0
   57.3440   27.0820   46.0680 C   0  0  0  0  0  0  0  0  0  0  0  0
   56.1560   26.3440   45.9860 C   0  0  0  0  0  0  0  0  0  0  0  0
   56.1920   24.9520   45.8990 C   0  0  0  0  0  0  0  0  0  0  0  0
   57.4150   24.2850   45.8550 C   0  0  0  0  0  0  0  0  0  0  0  0
   58.6090   25.0100   45.8880 C   0  0  0  0  0  0  0  0  0  0  0  0
   58.5940   26.4120   46.0110 C   0  0  0  0  0  0  0  0  0  0  0  0
   59.8630   27.1710   45.9090 C   0  0  0  0  0  0  0  0  0  0  0  0
   60.9490   26.5430   46.0390 O   0  0  0  0  0  0  0  0  0  0  0  0
   59.9330   28.6410   45.5780 C   0  0  0  0  0  0  0  0  0  0  0  0
   60.4550   29.4340   46.6420 O   0  0  0  0  0  0  0  0  0  0  0  0
   59.9070   29.4670   47.9280 C   0  0  0  0  0  0  0  0  0  0  0  0
   59.1440   28.5360   48.3040 O   0  0  0  0  0  0  0  0  0  0  0  0
   60.1950   30.5980   48.8420 C   0  0  0  0  0  0  0  0  0  0  0  0
   61.3740   31.3490   48.6660 C   0  0  0  0  0  0  0  0  0  0  0  0
   61.7150   32.3730   49.5590 C   0  0  0  0  0  0  0  0  0  0  0  0
   63.2420   33.2390   49.3710 S   0  0  0  0  0  0  0  0  0  0  0  0
   62.9940   34.7180   49.4730 O   0  0  0  0  0  0  0  0  0  0  0  0
   63.8000   32.9560   48.0030 O   0  0  0  0  0  0  0  0  0  0  0  0
   64.4020   32.7710   50.5930 N   0  0  0  0  0  0  0  0  0  0  0  0
   65.3380   33.8740   50.8610 C   0  0  0  0  0  0  0  0  0  0  0  0
   66.1840   33.5410   52.0920 C   0  0  0  0  0  0  0  0  0  0  0  0
   66.7550   32.1460   52.0160 C   0  0  0  0  0  0  0  0  0  0  0  0
   67.8030   31.7820   52.8760 C   0  0  0  0  0  0  0  0  0  0  0  0
   68.3150   30.4820   52.8520 C   0  0  0  0  0  0  0  0  0  0  0  0
   67.7780   29.5340   51.9790 C   0  0  0  0  0  0  0  0  0  0  0  0
   66.7280   29.8820   51.1260 C   0  0  0  0  0  0  0  0  0  0  0  0
   66.2000   31.1810   51.1460 C   0  0  0  0  0  0  0  0  0  0  0  0
   65.1370   31.5730   50.1490 C   0  0  0  0  0  0  0  0  0  0  0  0
   60.8560   32.6750   50.6220 C   0  0  0  0  0  0  0  0  0  0  0  0
   59.6710   31.9610   50.7910 C   0  0  0  0  0  0  0  0  0  0  0  0
   59.3360   30.9250   49.9150 C   0  0  0  0  0  0  0  0  0  0  0  0
   58.1480   30.2330   50.1250 O   0  0  0  0  0  0  0  0  0  0  0  0
   57.1720   30.6020   44.7080 C   0  0  0  0  0  0  0  0  0  0  0  0
   57.1870   30.8950   43.3310 C   0  0  0  0  0  0  0  0  0  0  0  0
   57.7860   32.0700   42.8640 C   0  0  0  0  0  0  0  0  0  0  0  0
   58.3790   32.9600   43.7630 C   0  0  0  0  0  0  0  0  0  0  0  0
   58.3820   32.6720   45.1300 C   0  0  0  0  0  0  0  0  0  0  0  0
   57.7880   31.4960   45.6020 C   0  0  0  0  0  0  0  0  0  0  0  0
   55.1877   26.8659   45.9902 H   0  0  0  0  0  0  0  0  0  0  0  0
   55.2532   24.3797   45.8651 H   0  0  0  0  0  0  0  0  0  0  0  0
   57.4403   23.1870   45.7942 H   0  0  0  0  0  0  0  0  0  0  0  0
   59.5702   24.4798   45.8172 H   0  0  0  0  0  0  0  0  0  0  0  0
   60.5787   28.7702   44.6969 H   0  0  0  0  0  0  0  0  0  0  0  0
   58.9042   28.9825   45.3913 H   0  0  0  0  0  0  0  0  0  0  0  0
   62.0359   31.1282   47.8156 H   0  0  0  0  0  0  0  0  0  0  0  0
   65.9966   34.0149   49.9913 H   0  0  0  0  0  0  0  0  0  0  0  0
   64.7706   34.7980   51.0464 H   0  0  0  0  0  0  0  0  0  0  0  0
   67.0120   34.2619   52.1612 H   0  0  0  0  0  0  0  0  0  0  0  0
   65.5362   33.5986   52.9791 H   0  0  0  0  0  0  0  0  0  0  0  0
   68.2230   32.5233   53.5718 H   0  0  0  0  0  0  0  0  0  0  0  0
   69.1424   30.2052   53.5219 H   0  0  0  0  0  0  0  0  0  0  0  0
   68.1825   28.5112   51.9629 H   0  0  0  0  0  0  0  0  0  0  0  0
   66.3132   29.1333   50.4351 H   0  0  0  0  0  0  0  0  0  0  0  0
   65.6143   31.7839   49.1806 H   0  0  0  0  0  0  0  0  0  0  0  0
   64.4228   30.7414   50.0580 H   0  0  0  0  0  0  0  0  0  0  0  0
   61.1170   33.4785   51.3264 H   0  0  0  0  0  0  0  0  0  0  0  0
   58.9943   32.2149   51.6202 H   0  0  0  0  0  0  0  0  0  0  0  0
   56.7251   30.1961   42.6182 H   0  0  0  0  0  0  0  0  0  0  0  0
   57.7901   32.2935   41.7870 H   0  0  0  0  0  0  0  0  0  0  0  0
   58.8432   33.8868   43.3947 H   0  0  0  0  0  0  0  0  0  0  0  0
   58.8523   33.3712   45.8370 H   0  0  0  0  0  0  0  0  0  0  0  0
   57.8030   31.2696   46.6784 H   0  0  0  0  0  0  0  0  0  0  0  0
  1  2  2  0
  2  3  1  0
  3  4  1  0
  4  5  2  0
  5  6  1  0
  6  7  2  0
  7  8  1  0
  8  9  2  0
  9 10  1  0
 10 11  2  0
 10 12  1  0
 12 13  1  0
 13 14  1  0
 14 15  2  0
 14 16  1  0
 16 17  2  0
 17 18  1  0
 18 19  1  0
 19 20  2  0
 19 21  2  0
 19 22  1  0
 22 23  1  0
 23 24  1  0
 24 25  1  0
 25 26  2  0
 26 27  1  0
 27 28  2  0
 28 29  1  0
 29 30  2  0
 30 31  1  0
 18 32  2  0
 32 33  1  0
 33 34  2  0
 34 35  1  0
  2 36  1  0
 36 37  2  0
 37 38  1  0
 38 39  2  0
 39 40  1  0
 40 41  2  0
  9  4  1  0
 34 16  1  0
 41 36  1  0
 31 22  1  0
 30 25  1  0
  5 42  1  0
  6 43  1  0
  7 44  1  0
  8 45  1  0
 12 46  1  0
 12 47  1  0
 17 48  1  0
 23 49  1  0
 23 50  1  0
 24 51  1  0
 24 52  1  0
 26 53  1  0
 27 54  1  0
 28 55  1  0
 29 56  1  0
 31 57  1  0
 31 58  1  0
 32 59  1  0
 33 60  1  0
 37 61  1  0
 38 62  1  0
 39 63  1  0
 40 64  1  0
 41 65  1  0
M  CHG  2   3  -1  35  -1
M  END
>  <UniqueID>  (19) 
17

>  <SMILES>  (19) 
O=C([N-]c1ccccc1C(=O)COC(=O)c1cc(S(=O)(=O)N2CCc3ccccc3C2)ccc1[O-])c1ccccc1

>  <Energy>  (19) 
87.74045251976264

>  <Genealogy>  (19) 
O=C([N-]c1ccccc1C(=O)COC(=O)c1cc(S(=O)(=O)N2CCc3ccccc3C2)ccc1[O-])c1ccccc1 (protonated)
O=C([N-]c1ccccc1C(=O)COC(=O)c1cc(S(=O)(=O)N2CCc3ccccc3C2)ccc1[O-])c1ccccc1 (3D coordinates assigned)
O=C([N-]c1ccccc1C(=O)COC(=O)c1cc(S(=O)(=O)N2CCc3ccccc3C2)ccc1[O-])c1ccccc1 (nonaromatic ring conformer: 87.74045251976264 kcal/mol)

>  <smiles>  (19) 
O=C(Nc1ccccc1C(=O)COC(=O)c1cc(S(=O)(=O)N2CCc3ccccc3C2)ccc1O)c1ccccc1

>  <score_type>  (19) 
oracle

>  <origin>  (19) 
adg

>  <m_score__min__energy>  (19) 
-13.26

>  <m_primary>  (19) 
energy

$$$$
19:0
     RDKit          3D

 49 51  0  0  0  0  0  0  0  0999 V2000
   57.0470   25.0030   47.2060 C   0  0  0  0  0  0  0  0  0  0  0  0
   57.4640   26.2560   46.4900 C   0  0  0  0  0  0  0  0  0  0  0  0
   58.8200   26.6120   46.4220 C   0  0  0  0  0  0  0  0  0  0  0  0
   59.2090   27.7860   45.7750 C   0  0  0  0  0  0  0  0  0  0  0  0
   58.2510   28.6160   45.1910 C   0  0  0  0  0  0  0  0  0  0  0  0
   56.8890   28.2770   45.2420 C   0  0  0  0  0  0  0  0  0  0  0  0
   55.8670   29.2070   44.6350 C   0  0  0  0  0  0  0  0  0  0  0  0
   56.5260   30.4640   44.1280 C   0  0  0  0  0  0  0  0  0  0  0  0
   57.0730   30.4490   42.9930 O   0  0  0  0  0  0  0  0  0  0  0  0
   56.6100   31.6650   44.9080 N   0  0  0  0  0  0  0  0  0  0  0  0
   57.8310   32.3490   45.3360 C   0  0  0  0  0  0  0  0  0  0  0  0
   57.5730   33.8590   45.3440 C   0  0  0  0  0  0  0  0  0  0  0  0
   58.8270   34.6350   45.7970 C   0  0  0  0  0  0  0  0  0  0  0  0
   59.5890   33.9760   46.8920 N   0  0  0  0  0  0  0  0  0  0  0  0
   60.8830   33.4200   46.4400 C   0  0  0  0  0  0  0  0  0  0  0  0
   61.8800   33.4380   47.5680 C   0  0  0  0  0  0  0  0  0  0  0  0
   61.6170   34.1890   48.7250 C   0  0  0  0  0  0  0  0  0  0  0  0
   62.5440   34.2200   49.7710 C   0  0  0  0  0  0  0  0  0  0  0  0
   63.7390   33.5040   49.6690 C   0  0  0  0  0  0  0  0  0  0  0  0
   64.0100   32.7550   48.5210 C   0  0  0  0  0  0  0  0  0  0  0  0
   63.0860   32.7220   47.4720 C   0  0  0  0  0  0  0  0  0  0  0  0
   58.7900   32.9840   47.6400 C   0  0  0  0  0  0  0  0  0  0  0  0
   58.2710   31.8510   46.7340 C   0  0  0  0  0  0  0  0  0  0  0  0
   56.4960   27.0970   45.9080 C   0  0  0  0  0  0  0  0  0  0  0  0
   55.1470   26.7610   45.9950 O   0  0  0  0  0  0  0  0  0  0  0  0
   57.1013   25.1662   48.2925 H   0  0  0  0  0  0  0  0  0  0  0  0
   56.0150   24.7463   46.9249 H   0  0  0  0  0  0  0  0  0  0  0  0
   57.7194   24.1790   46.9249 H   0  0  0  0  0  0  0  0  0  0  0  0
   59.5800   25.9625   46.8809 H   0  0  0  0  0  0  0  0  0  0  0  0
   60.2737   28.0578   45.7253 H   0  0  0  0  0  0  0  0  0  0  0  0
   58.5648   29.5421   44.6873 H   0  0  0  0  0  0  0  0  0  0  0  0
   55.3678   28.6979   43.7974 H   0  0  0  0  0  0  0  0  0  0  0  0
   55.1331   29.4792   45.4079 H   0  0  0  0  0  0  0  0  0  0  0  0
   58.6487   32.1252   44.6350 H   0  0  0  0  0  0  0  0  0  0  0  0
   57.2981   34.1818   44.3290 H   0  0  0  0  0  0  0  0  0  0  0  0
   56.7574   34.0701   46.0513 H   0  0  0  0  0  0  0  0  0  0  0  0
   59.4953   34.7469   44.9305 H   0  0  0  0  0  0  0  0  0  0  0  0
   58.4763   35.5999   46.1919 H   0  0  0  0  0  0  0  0  0  0  0  0
   60.7350   32.3835   46.1026 H   0  0  0  0  0  0  0  0  0  0  0  0
   61.2673   34.0337   45.6119 H   0  0  0  0  0  0  0  0  0  0  0  0
   60.6777   34.7553   48.8087 H   0  0  0  0  0  0  0  0  0  0  0  0
   62.3321   34.8090   50.6755 H   0  0  0  0  0  0  0  0  0  0  0  0
   64.4672   33.5298   50.4930 H   0  0  0  0  0  0  0  0  0  0  0  0
   64.9510   32.1908   48.4424 H   0  0  0  0  0  0  0  0  0  0  0  0
   63.3036   32.1337   46.5684 H   0  0  0  0  0  0  0  0  0  0  0  0
   59.4182   32.5462   48.4297 H   0  0  0  0  0  0  0  0  0  0  0  0
   57.9178   33.5035   48.0636 H   0  0  0  0  0  0  0  0  0  0  0  0
   59.0732   31.1094   46.6056 H   0  0  0  0  0  0  0  0  0  0  0  0
   57.3860   31.4176   47.2228 H   0  0  0  0  0  0  0  0  0  0  0  0
  1  2  1  0
  2  3  2  0
  3  4  1  0
  4  5  2  0
  5  6  1  0
  6  7  1  0
  7  8  1  0
  8  9  2  0
  8 10  1  0
 10 11  1  0
 11 12  1  0
 12 13  1  0
 13 14  1  0
 14 15  1  0
 15 16  1  0
 16 17  2  0
 17 18  1  0
 18 19  2  0
 19 20  1  0
 20 21  2  0
 14 22  1  0
 22 23  1  0
  6 24  2  0
 24 25  1  0
 24  2  1  0
 23 11  1  0
 21 16  1  0
  1 26  1  0
  1 27  1  0
  1 28  1  0
  3 29  1  0
  4 30  1  0
  5 31  1  0
  7 32  1  0
  7 33  1  0
 11 34  1  0
 12 35  1  0
 12 36  1  0
 13 37  1  0
 13 38  1  0
 15 39  1  0
 15 40  1  0
 17 41  1  0
 18 42  1  0
 19 43  1  0
 20 44  1  0
 21 45  1  0
 22 46  1  0
 22 47  1  0
 23 48  1  0
 23 49  1  0
M  CHG  2  10  -1  25  -1
M  END
>  <UniqueID>  (20) 
18

>  <SMILES>  (20) 
Cc1cccc(CC(=O)[N-]C2CCN(Cc3ccccc3)CC2)c1[O-]

>  <Energy>  (20) 
57.41643056635745

>  <Genealogy>  (20) 
Cc1cccc(CC(=O)[N-]C2CCN(Cc3ccccc3)CC2)c1[O-] (protonated)
Cc1cccc(CC(=O)[N-]C2CCN(Cc3ccccc3)CC2)c1[O-] (3D coordinates assigned)
Cc1cccc(CC(=O)[N-]C2CCN(Cc3ccccc3)CC2)c1[O-] (nonaromatic ring conformer: 57.41643056635745 kcal/mol)

>  <smiles>  (20) 
Cc1cccc(CC(=O)NC2CCN(Cc3ccccc3)CC2)c1O

>  <score_type>  (20) 
oracle

>  <origin>  (20) 
adg

>  <m_score__min__energy>  (20) 
-13.91

>  <m_primary>  (20) 
energy

$$$$
20:0
     RDKit          3D

 48 51  0  0  0  0  0  0  0  0999 V2000
   59.6680   29.0680   46.5470 C   0  0  0  0  0  0  0  0  0  0  0  0
   58.6190   29.0930   45.7090 C   0  0  0  0  0  0  0  0  0  0  0  0
   57.8950   27.9910   45.2240 C   0  0  0  0  0  0  0  0  0  0  0  0
   58.1480   26.6690   45.2860 C   0  0  0  0  0  0  0  0  0  0  0  0
   57.3820   25.6840   46.0640 C   0  0  0  0  0  0  0  0  0  0  0  0
   57.9430   24.6520   46.7160 N   0  0  0  0  0  0  0  0  0  0  0  0
   56.9070   24.1020   47.3850 C   0  0  0  0  0  0  0  0  0  0  0  0
   57.0330   23.0830   48.1110 O   0  0  0  0  0  0  0  0  0  0  0  0
   55.7270   24.7390   47.2240 N   0  0  0  0  0  0  0  0  0  0  0  0
   56.0470   25.7480   46.3980 C   0  0  0  0  0  0  0  0  0  0  0  0
   55.1450   26.7190   45.9810 O   0  0  0  0  0  0  0  0  0  0  0  0
   56.7710   28.5090   44.6030 C   0  0  0  0  0  0  0  0  0  0  0  0
   56.8780   29.8830   44.6630 C   0  0  0  0  0  0  0  0  0  0  0  0
   55.8740   30.8390   44.0900 C   0  0  0  0  0  0  0  0  0  0  0  0
   57.9960   30.2400   45.3340 N   0  0  0  0  0  0  0  0  0  0  0  0
   58.4130   31.5880   45.6150 C   0  0  0  0  0  0  0  0  0  0  0  0
   58.2220   32.5950   44.6620 C   0  0  0  0  0  0  0  0  0  0  0  0
   58.6240   33.9040   44.9310 C   0  0  0  0  0  0  0  0  0  0  0  0
   59.2260   34.2300   46.1580 C   0  0  0  0  0  0  0  0  0  0  0  0
   59.6840   35.6480   46.3840 C   0  0  0  0  0  0  0  0  0  0  0  0
   59.3860   33.2230   47.1410 C   0  0  0  0  0  0  0  0  0  0  0  0
   59.9580   33.5010   48.4760 C   0  0  0  0  0  0  0  0  0  0  0  0
   59.3060   34.2300   49.2770 O   0  0  0  0  0  0  0  0  0  0  0  0
   61.2640   32.9940   48.8360 N   0  0  0  0  0  0  0  0  0  0  0  0
   62.2290   34.0480   49.1800 C   0  0  0  0  0  0  0  0  0  0  0  0
   63.1200   33.7220   47.9930 C   0  0  0  0  0  0  0  0  0  0  0  0
   62.0980   32.6420   47.6780 C   0  0  0  0  0  0  0  0  0  0  0  0
   58.9970   31.9050   46.8480 C   0  0  0  0  0  0  0  0  0  0  0  0
   60.1502   30.0082   46.8528 H   0  0  0  0  0  0  0  0  0  0  0  0
   60.0451   28.1073   46.9276 H   0  0  0  0  0  0  0  0  0  0  0  0
   59.0024   26.2937   44.7036 H   0  0  0  0  0  0  0  0  0  0  0  0
   55.9500   27.9348   44.1488 H   0  0  0  0  0  0  0  0  0  0  0  0
   55.3417   31.3458   44.9084 H   0  0  0  0  0  0  0  0  0  0  0  0
   56.3914   31.5865   43.4707 H   0  0  0  0  0  0  0  0  0  0  0  0
   55.1527   30.2856   43.4707 H   0  0  0  0  0  0  0  0  0  0  0  0
   57.7530   32.3536   43.6967 H   0  0  0  0  0  0  0  0  0  0  0  0
   58.4681   34.6880   44.1753 H   0  0  0  0  0  0  0  0  0  0  0  0
   59.7476   35.8450   47.4643 H   0  0  0  0  0  0  0  0  0  0  0  0
   60.6740   35.7909   45.9263 H   0  0  0  0  0  0  0  0  0  0  0  0
   58.9646   36.3430   45.9263 H   0  0  0  0  0  0  0  0  0  0  0  0
   61.2430   32.2200   49.5410 H   0  0  0  0  0  0  0  0  0  0  0  0
   61.8028   35.0614   49.1426 H   0  0  0  0  0  0  0  0  0  0  0  0
   62.6688   34.0580   50.1882 H   0  0  0  0  0  0  0  0  0  0  0  0
   63.2039   34.5191   47.2396 H   0  0  0  0  0  0  0  0  0  0  0  0
   64.1954   33.5141   48.0940 H   0  0  0  0  0  0  0  0  0  0  0  0
   61.5909   32.7868   46.7126 H   0  0  0  0  0  0  0  0  0  0  0  0
   62.4400   31.6026   47.5651 H   0  0  0  0  0  0  0  0  0  0  0  0
   59.1529   31.1131   47.5954 H   0  0  0  0  0  0  0  0  0  0  0  0
  1  2  2  0
  2  3  1  0
  3  4  2  3
  4  5  1  0
  5  6  1  0
  6  7  1  0
  7  8  2  0
  7  9  1  0
  9 10  1  0
 10 11  1  0
  3 12  1  0
 12 13  2  0
 13 14  1  0
 13 15  1  0
 15 16  1  0
 16 17  2  0
 17 18  1  0
 18 19  2  0
 19 20  1  0
 19 21  1  0
 21 22  1  0
 22 23  2  0
 22 24  1  0
 24 25  1  0
 25 26  1  0
 26 27  1  0
 21 28  2  0
 15  2  1  0
 28 16  1  0
 10  5  2  0
 27 24  1  0
  1 29  1  0
  1 30  1  0
  4 31  1  0
 12 32  1  0
 14 33  1  0
 14 34  1  0
 14 35  1  0
 17 36  1  0
 18 37  1  0
 20 38  1  0
 20 39  1  0
 20 40  1  0
 24 41  1  0
 25 42  1  0
 25 43  1  0
 26 44  1  0
 26 45  1  0
 27 46  1  0
 27 47  1  0
 28 48  1  0
M  CHG  4   6  -1   9  -1  11  -1  24   1
M  END
>  <UniqueID>  (21) 
19

>  <SMILES>  (21) 
C=c1c(=Cc2[n-]c(=O)[n-]c2[O-])cc(C)n1-c1ccc(C)c(C(=O)[NH+]2CCC2)c1

>  <Energy>  (21) 
205.9853757021666

>  <Genealogy>  (21) 
C=c1c(=Cc2[n-]c(=O)[n-]c2[O-])cc(C)n1-c1ccc(C)c(C(=O)[NH+]2CCC2)c1 (protonated)
C=c1c(=Cc2[n-]c(=O)[n-]c2[O-])cc(C)n1-c1ccc(C)c(C(=O)[NH+]2CCC2)c1 (3D coordinates assigned)
C=c1c(=Cc2[n-]c(=O)[n-]c2[O-])cc(C)n1-c1ccc(C)c(C(=O)[NH+]2CCC2)c1 (nonaromatic ring conformer: 205.9853757021666 kcal/mol)

>  <smiles>  (21) 
C=c1c(=Cc2[nH]c(=O)[nH]c2O)cc(C)n1-c1ccc(C)c(C(=O)N2CCC2)c1

>  <score_type>  (21) 
oracle

>  <origin>  (21) 
adg

>  <m_score__min__energy>  (21) 
-15.029999999999999

>  <m_primary>  (21) 
energy

$$$$
21:0
     RDKit          3D

 51 53  0  0  0  0  0  0  0  0999 V2000
   58.0370   25.2020   47.5320 C   0  0  0  0  0  0  0  0  0  0  0  0
   56.8380   25.0810   46.9470 C   0  0  0  0  0  0  0  0  0  0  0  0
   56.0050   23.8530   47.2010 C   0  0  0  0  0  0  0  0  0  0  0  0
   56.2900   26.1670   46.1010 C   0  0  0  0  0  0  0  0  0  0  0  0
   55.0440   26.3370   46.0150 O   0  0  0  0  0  0  0  0  0  0  0  0
   57.1900   27.0030   45.3590 N   0  0  0  0  0  0  0  0  0  0  0  0
   57.8820   28.1640   45.8410 C   0  0  0  0  0  0  0  0  0  0  0  0
   59.3090   28.1590   46.7280 S   0  0  0  0  0  0  0  0  0  0  0  0
   59.4330   29.8270   46.8760 C   0  0  0  0  0  0  0  0  0  0  0  0
   60.5870   30.5050   47.4970 C   0  0  0  0  0  0  0  0  0  0  0  0
   61.6000   30.7020   46.7690 O   0  0  0  0  0  0  0  0  0  0  0  0
   60.6190   30.9310   48.8900 N   0  0  0  0  0  0  0  0  0  0  0  0
   59.5180   31.9080   49.1410 C   0  0  0  0  0  0  0  0  0  0  0  0
   58.9840   31.8680   50.5780 C   0  0  0  0  0  0  0  0  0  0  0  0
   58.5330   30.5060   50.8950 N   0  0  0  0  0  0  0  0  0  0  0  0
   57.4240   30.2850   51.7930 C   0  0  0  0  0  0  0  0  0  0  0  0
   57.4900   29.2860   52.7810 C   0  0  0  0  0  0  0  0  0  0  0  0
   56.4240   29.0880   53.6650 C   0  0  0  0  0  0  0  0  0  0  0  0
   55.2790   29.8830   53.5710 C   0  0  0  0  0  0  0  0  0  0  0  0
   55.1940   30.8710   52.5870 C   0  0  0  0  0  0  0  0  0  0  0  0
   56.2590   31.0720   51.7010 C   0  0  0  0  0  0  0  0  0  0  0  0
   59.2690   29.3690   50.3270 C   0  0  0  0  0  0  0  0  0  0  0  0
   60.6670   29.8150   49.8780 C   0  0  0  0  0  0  0  0  0  0  0  0
   58.3680   30.4280   46.1920 C   0  0  0  0  0  0  0  0  0  0  0  0
   58.2150   31.9200   46.0600 C   0  0  0  0  0  0  0  0  0  0  0  0
   57.4780   29.4840   45.6120 C   0  0  0  0  0  0  0  0  0  0  0  0
   56.2580   29.8290   44.8350 C   0  0  0  0  0  0  0  0  0  0  0  0
   56.2080   30.8760   44.1380 O   0  0  0  0  0  0  0  0  0  0  0  0
   55.1450   28.9960   44.8650 O   0  0  0  0  0  0  0  0  0  0  0  0
   58.6499   26.0971   47.3500 H   0  0  0  0  0  0  0  0  0  0  0  0
   58.4086   24.4063   48.1944 H   0  0  0  0  0  0  0  0  0  0  0  0
   55.9003   23.6987   48.2851 H   0  0  0  0  0  0  0  0  0  0  0  0
   55.0097   23.9857   46.7518 H   0  0  0  0  0  0  0  0  0  0  0  0
   56.4963   22.9773   46.7518 H   0  0  0  0  0  0  0  0  0  0  0  0
   61.5220   31.4520   49.0030 H   0  0  0  0  0  0  0  0  0  0  0  0
   59.8972   32.9204   48.9380 H   0  0  0  0  0  0  0  0  0  0  0  0
   58.6844   31.6354   48.4771 H   0  0  0  0  0  0  0  0  0  0  0  0
   59.7834   32.1610   51.2745 H   0  0  0  0  0  0  0  0  0  0  0  0
   58.1393   32.5659   50.6749 H   0  0  0  0  0  0  0  0  0  0  0  0
   58.3876   28.6550   52.8592 H   0  0  0  0  0  0  0  0  0  0  0  0
   56.4874   28.3052   54.4352 H   0  0  0  0  0  0  0  0  0  0  0  0
   54.4447   29.7310   54.2716 H   0  0  0  0  0  0  0  0  0  0  0  0
   54.2892   31.4917   52.5083 H   0  0  0  0  0  0  0  0  0  0  0  0
   56.1857   31.8503   50.9271 H   0  0  0  0  0  0  0  0  0  0  0  0
   59.3659   28.5815   51.0889 H   0  0  0  0  0  0  0  0  0  0  0  0
   58.7181   28.9830   49.4566 H   0  0  0  0  0  0  0  0  0  0  0  0
   61.2315   30.1492   50.7610 H   0  0  0  0  0  0  0  0  0  0  0  0
   61.1518   28.9565   49.3901 H   0  0  0  0  0  0  0  0  0  0  0  0
   58.1685   32.3738   47.0610 H   0  0  0  0  0  0  0  0  0  0  0  0
   59.0758   32.3297   45.5113 H   0  0  0  0  0  0  0  0  0  0  0  0
   57.2889   32.1465   45.5113 H   0  0  0  0  0  0  0  0  0  0  0  0
  1  2  2  0
  2  3  1  0
  2  4  1  0
  4  5  2  0
  4  6  1  0
  6  7  1  0
  7  8  1  0
  8  9  1  0
  9 10  1  0
 10 11  2  0
 10 12  1  0
 12 13  1  0
 13 14  1  0
 14 15  1  0
 15 16  1  0
 16 17  2  0
 17 18  1  0
 18 19  2  0
 19 20  1  0
 20 21  2  0
 15 22  1  0
 22 23  1  0
  9 24  2  0
 24 25  1  0
 24 26  1  0
 26 27  1  0
 27 28  2  0
 27 29  1  0
 26  7  2  0
 23 12  1  0
 21 16  1  0
  1 30  1  0
  1 31  1  0
  3 32  1  0
  3 33  1  0
  3 34  1  0
 12 35  1  0
 13 36  1  0
 13 37  1  0
 14 38  1  0
 14 39  1  0
 17 40  1  0
 18 41  1  0
 19 42  1  0
 20 43  1  0
 21 44  1  0
 22 45  1  0
 22 46  1  0
 23 47  1  0
 23 48  1  0
 25 49  1  0
 25 50  1  0
 25 51  1  0
M  CHG  3   6  -1  12   1  29  -1
M  END
>  <UniqueID>  (22) 
20

>  <SMILES>  (22) 
C=C(C)C(=O)[N-]c1sc(C(=O)[NH+]2CCN(c3ccccc3)CC2)c(C)c1C(=O)[O-]

>  <Energy>  (22) 
103.33275053302405

>  <Genealogy>  (22) 
C=C(C)C(=O)[N-]c1sc(C(=O)[NH+]2CCN(c3ccccc3)CC2)c(C)c1C(=O)[O-] (protonated)
C=C(C)C(=O)[N-]c1sc(C(=O)[NH+]2CCN(c3ccccc3)CC2)c(C)c1C(=O)[O-] (3D coordinates assigned)
C=C(C)C(=O)[N-]c1sc(C(=O)[NH+]2CCN(c3ccccc3)CC2)c(C)c1C(=O)[O-] (nonaromatic ring conformer: 103.33275053302405 kcal/mol)

>  <smiles>  (22) 
C=C(C)C(=O)Nc1sc(C(=O)N2CCN(c3ccccc3)CC2)c(C)c1C(=O)O

>  <score_type>  (22) 
oracle

>  <origin>  (22) 
adg

>  <m_score__min__energy>  (22) 
-10.869999999999999

>  <m_primary>  (22) 
energy

$$$$
22:0
     RDKit          3D

 55 59  0  0  0  0  0  0  0  0999 V2000
   50.0620   32.3420   49.6620 H   0  0  0  0  0  0  0  0  0  0  0  0
   51.0160   32.3200   50.0850 N   0  0  0  0  0  0  0  0  0  0  0  0
   51.1860   32.2070   51.4960 C   0  0  0  0  0  0  0  0  0  0  0  0
   50.3200   32.7110   52.2600 O   0  0  0  0  0  0  0  0  0  0  0  0
   52.3630   31.5070   52.0600 C   0  0  0  0  0  0  0  0  0  0  0  0
   52.3680   31.0740   53.3980 C   0  0  0  0  0  0  0  0  0  0  0  0
   51.4907   31.2591   54.0352 H   0  0  0  0  0  0  0  0  0  0  0  0
   53.4800   30.4100   53.9240 C   0  0  0  0  0  0  0  0  0  0  0  0
   53.4678   30.0649   54.9684 H   0  0  0  0  0  0  0  0  0  0  0  0
   54.6140   30.1810   53.1250 C   0  0  0  0  0  0  0  0  0  0  0  0
   55.7670   29.4880   53.6270 N   0  0  0  0  0  0  0  0  0  0  0  0
   57.1310   29.7110   53.2380 C   0  0  0  0  0  0  0  0  0  0  0  0
   57.6590   28.9190   52.4130 O   0  0  0  0  0  0  0  0  0  0  0  0
   57.9000   30.8900   53.7120 C   0  0  0  0  0  0  0  0  0  0  0  0
   58.4960   30.8600   54.9850 C   0  0  0  0  0  0  0  0  0  0  0  0
   58.4124   29.9547   55.6042 H   0  0  0  0  0  0  0  0  0  0  0  0
   59.1930   31.9680   55.4710 C   0  0  0  0  0  0  0  0  0  0  0  0
   59.6637   31.9284   56.4644 H   0  0  0  0  0  0  0  0  0  0  0  0
   59.2930   33.1240   54.6990 C   0  0  0  0  0  0  0  0  0  0  0  0
   59.8404   33.9968   55.0845 H   0  0  0  0  0  0  0  0  0  0  0  0
   58.6990   33.1750   53.4370 C   0  0  0  0  0  0  0  0  0  0  0  0
   58.7837   34.0891   52.8311 H   0  0  0  0  0  0  0  0  0  0  0  0
   57.9940   32.0690   52.9340 C   0  0  0  0  0  0  0  0  0  0  0  0
   57.4570   32.1130   51.6020 N   0  0  0  0  0  0  0  0  0  0  0  0
   56.4880   32.4820   51.4750 H   0  0  0  0  0  0  0  0  0  0  0  0
   58.2070   31.7460   50.4270 C   0  0  0  0  0  0  0  0  0  0  0  0
   58.2370   30.3870   50.0230 C   0  0  0  0  0  0  0  0  0  0  0  0
   57.7195   29.6293   50.6297 H   0  0  0  0  0  0  0  0  0  0  0  0
   58.9200   29.9940   48.8560 C   0  0  0  0  0  0  0  0  0  0  0  0
   58.9528   28.9405   48.5412 H   0  0  0  0  0  0  0  0  0  0  0  0
   59.5520   30.9890   48.1160 C   0  0  0  0  0  0  0  0  0  0  0  0
   60.2670   30.9700   46.9410 C   0  0  0  0  0  0  0  0  0  0  0  0
   60.6280   29.7710   46.1580 C   0  0  0  0  0  0  0  0  0  0  0  0
   61.6279   29.3424   46.3208 H   0  0  0  0  0  0  0  0  0  0  0  0
   59.8330   29.1620   45.2630 C   0  0  0  0  0  0  0  0  0  0  0  0
   60.2303   28.2699   44.7567 H   0  0  0  0  0  0  0  0  0  0  0  0
   58.4670   29.5960   44.9050 C   0  0  0  0  0  0  0  0  0  0  0  0
   57.3320   28.9100   45.3680 C   0  0  0  0  0  0  0  0  0  0  0  0
   57.4492   28.0437   46.0357 H   0  0  0  0  0  0  0  0  0  0  0  0
   56.0880   29.3140   44.9930 N   0  0  0  0  0  0  0  0  0  0  0  0
   55.9030   30.3660   44.1520 C   0  0  0  0  0  0  0  0  0  0  0  0
   54.8843   30.6787   43.8791 H   0  0  0  0  0  0  0  0  0  0  0  0
   57.0030   31.0490   43.6350 C   0  0  0  0  0  0  0  0  0  0  0  0
   56.8585   31.8900   42.9409 H   0  0  0  0  0  0  0  0  0  0  0  0
   58.2900   30.6550   44.0070 C   0  0  0  0  0  0  0  0  0  0  0  0
   59.1655   31.1774   43.5939 H   0  0  0  0  0  0  0  0  0  0  0  0
   60.6580   32.2370   46.6630 N   0  0  0  0  0  0  0  0  0  0  0  0
   60.1950   33.0540   47.6050 N   0  0  0  0  0  0  0  0  0  0  0  0
   59.5240   32.3000   48.4900 C   0  0  0  0  0  0  0  0  0  0  0  0
   58.8590   32.7250   49.6370 C   0  0  0  0  0  0  0  0  0  0  0  0
   58.8404   33.7875   49.9210 H   0  0  0  0  0  0  0  0  0  0  0  0
   54.6000   30.5860   51.7870 C   0  0  0  0  0  0  0  0  0  0  0  0
   55.4685   30.3781   51.1448 H   0  0  0  0  0  0  0  0  0  0  0  0
   53.4910   31.2530   51.2590 C   0  0  0  0  0  0  0  0  0  0  0  0
   53.5004   31.5817   50.2093 H   0  0  0  0  0  0  0  0  0  0  0  0
  1  2  1  0
  2  3  1  0
  3  4  2  0
  3  5  1  0
  5  6  2  0
  6  7  1  0
  6  8  1  0
  8  9  1  0
  8 10  2  0
 10 11  1  0
 11 12  1  0
 12 13  2  0
 12 14  1  0
 14 15  2  0
 15 16  1  0
 15 17  1  0
 17 18  1  0
 17 19  2  0
 19 20  1  0
 19 21  1  0
 21 22  1  0
 21 23  2  0
 23 24  1  0
 24 25  1  0
 24 26  1  0
 26 27  1  0
 27 28  1  0
 27 29  2  0
 29 30  1  0
 29 31  1  0
 31 32  2  0
 32 33  1  0
 33 34  1  0
 33 35  2  0
 35 36  1  0
 35 37  1  0
 37 38  2  0
 38 39  1  0
 38 40  1  0
 40 41  2  0
 41 42  1  0
 41 43  1  0
 43 44  1  0
 43 45  2  0
 45 46  1  0
 32 47  1  0
 47 48  1  0
 48 49  2  0
 49 50  1  0
 50 51  1  0
 10 52  1  0
 52 53  1  0
 52 54  2  0
 54 55  1  0
 54  5  1  0
 23 14  1  0
 50 26  2  0
 49 31  1  0
 45 37  1  0
M  CHG  3   2  -1  11  -1  47  -1
M  END
>  <UniqueID>  (23) 
21

>  <SMILES>  (23) 
[NH-]C(=O)c1ccc([N-]C(=O)c2ccccc2Nc2ccc3c(/C=C\c4cccnc4)[n-]nc3c2)cc1

>  <Energy>  (23) 
122.91449516997048

>  <Genealogy>  (23) 
[NH-]C(=O)c1ccc([N-]C(=O)c2ccccc2Nc2ccc3c(C=Cc4cccnc4)[n-]nc3c2)cc1 (protonated)
[NH-]C(=O)c1ccc([N-]C(=O)c2ccccc2Nc2ccc3c(/C=C\c4cccnc4)[n-]nc3c2)cc1 (cis-trans isomerization)
[NH-]C(=O)c1ccc([N-]C(=O)c2ccccc2Nc2ccc3c(/C=C\c4cccnc4)[n-]nc3c2)cc1 (3D coordinates assigned)
[NH-]C(=O)c1ccc([N-]C(=O)c2ccccc2Nc2ccc3c(/C=C\c4cccnc4)[n-]nc3c2)cc1 (optimized conformer: 122.91449516997048 kcal/mol)

>  <smiles>  (23) 
NC(=O)c1ccc(NC(=O)c2ccccc2Nc2ccc3c(C=Cc4cccnc4)[nH]nc3c2)cc1

>  <score_type>  (23) 
oracle

>  <origin>  (23) 
adg

>  <m_score__min__energy>  (23) 
-15.550000000000001

>  <m_primary>  (23) 
energy

$$$$
23:0
     RDKit          3D

 34 36  0  0  0  0  0  0  0  0999 V2000
   56.0460   28.3680   45.2340 N   0  0  0  0  0  0  0  0  0  0  0  0
   56.6180   29.8270   44.5080 S   0  0  0  0  0  0  0  0  0  0  0  0
   55.5180   30.8530   44.5050 O   0  0  0  0  0  0  0  0  0  0  0  0
   57.0240   29.5530   43.0870 O   0  0  0  0  0  0  0  0  0  0  0  0
   57.9970   30.4350   45.4170 C   0  0  0  0  0  0  0  0  0  0  0  0
   58.0210   31.7670   45.8520 C   0  0  0  0  0  0  0  0  0  0  0  0
   59.1100   32.2490   46.5850 C   0  0  0  0  0  0  0  0  0  0  0  0
   60.1890   31.4030   46.8930 C   0  0  0  0  0  0  0  0  0  0  0  0
   61.3040   31.8910   47.6590 N   0  0  0  0  0  0  0  0  0  0  0  0
   61.9250   31.0950   48.6860 C   0  0  0  0  0  0  0  0  0  0  0  0
   61.4100   29.9870   49.0020 O   0  0  0  0  0  0  0  0  0  0  0  0
   63.1340   31.5710   49.4230 C   0  0  0  0  0  0  0  0  0  0  0  0
   63.4970   30.9200   50.6200 C   0  0  0  0  0  0  0  0  0  0  0  0
   64.6100   31.3340   51.3530 C   0  0  0  0  0  0  0  0  0  0  0  0
   65.3860   32.3990   50.9040 C   0  0  0  0  0  0  0  0  0  0  0  0
   65.0530   33.0560   49.7190 C   0  0  0  0  0  0  0  0  0  0  0  0
   63.9250   32.6660   48.9740 C   0  0  0  0  0  0  0  0  0  0  0  0
   63.6730   33.3660   47.6630 C   0  0  0  0  0  0  0  0  0  0  0  0
   61.9370   33.4650   47.3400 S   0  0  0  0  0  0  0  0  0  0  0  0
   61.2890   34.4770   48.2430 O   0  0  0  0  0  0  0  0  0  0  0  0
   61.7150   33.8410   45.9020 O   0  0  0  0  0  0  0  0  0  0  0  0
   60.1530   30.0650   46.4680 C   0  0  0  0  0  0  0  0  0  0  0  0
   59.0640   29.5850   45.7340 C   0  0  0  0  0  0  0  0  0  0  0  0
   55.1580   28.6030   45.7320 H   0  0  0  0  0  0  0  0  0  0  0  0
   57.1802   32.4358   45.6160 H   0  0  0  0  0  0  0  0  0  0  0  0
   59.1221   33.2959   46.9223 H   0  0  0  0  0  0  0  0  0  0  0  0
   62.8942   30.0737   50.9812 H   0  0  0  0  0  0  0  0  0  0  0  0
   64.8747   30.8177   52.2875 H   0  0  0  0  0  0  0  0  0  0  0  0
   66.2627   32.7229   51.4841 H   0  0  0  0  0  0  0  0  0  0  0  0
   65.6790   33.8877   49.3635 H   0  0  0  0  0  0  0  0  0  0  0  0
   64.0916   34.3822   47.7085 H   0  0  0  0  0  0  0  0  0  0  0  0
   64.1540   32.7946   46.8554 H   0  0  0  0  0  0  0  0  0  0  0  0
   60.9865   29.3906   46.7140 H   0  0  0  0  0  0  0  0  0  0  0  0
   59.0452   28.5357   45.4043 H   0  0  0  0  0  0  0  0  0  0  0  0
  1  2  1  0
  2  3  2  0
  2  4  2  0
  2  5  1  0
  5  6  2  0
  6  7  1  0
  7  8  2  0
  8  9  1  0
  9 10  1  0
 10 11  2  0
 10 12  1  0
 12 13  2  0
 13 14  1  0
 14 15  2  0
 15 16  1  0
 16 17  2  0
 17 18  1  0
 18 19  1  0
 19 20  2  0
 19 21  2  0
  8 22  1  0
 22 23  2  0
 23  5  1  0
 19  9  1  0
 17 12  1  0
  1 24  1  0
  6 25  1  0
  7 26  1  0
 13 27  1  0
 14 28  1  0
 15 29  1  0
 16 30  1  0
 18 31  1  0
 18 32  1  0
 22 33  1  0
 23 34  1  0
M  CHG  1   1  -1
M  END
>  <UniqueID>  (24) 
22

>  <SMILES>  (24) 
[NH-]S(=O)(=O)c1ccc(N2C(=O)c3ccccc3CS2(=O)=O)cc1

>  <Energy>  (24) 
44.91156667219487

>  <Genealogy>  (24) 
[NH-]S(=O)(=O)c1ccc(N2C(=O)c3ccccc3CS2(=O)=O)cc1 (protonated)
[NH-]S(=O)(=O)c1ccc(N2C(=O)c3ccccc3CS2(=O)=O)cc1 (3D coordinates assigned)
[NH-]S(=O)(=O)c1ccc(N2C(=O)c3ccccc3CS2(=O)=O)cc1 (nonaromatic ring conformer: 44.91156667219487 kcal/mol)

>  <smiles>  (24) 
NS(=O)(=O)c1ccc(N2C(=O)c3ccccc3CS2(=O)=O)cc1

>  <score_type>  (24) 
oracle

>  <origin>  (24) 
adg

>  <m_score__min__energy>  (24) 
-11.140000000000001

>  <m_primary>  (24) 
energy

$$$$
24:0
     RDKit          3D

 28 30  0  0  0  0  0  0  0  0999 V2000
   60.1440   27.0650   46.7440 C   0  0  0  0  0  0  0  0  0  0  0  0
   59.3490   27.8740   46.0340 C   0  0  0  0  0  0  0  0  0  0  0  0
   59.8440   28.8730   45.2730 N   0  0  0  0  0  0  0  0  0  0  0  0
   58.7900   29.4710   44.7000 C   0  0  0  0  0  0  0  0  0  0  0  0
   58.8370   30.5830   43.8590 C   0  0  0  0  0  0  0  0  0  0  0  0
   57.6260   31.1290   43.4140 C   0  0  0  0  0  0  0  0  0  0  0  0
   56.4020   30.5860   43.8480 C   0  0  0  0  0  0  0  0  0  0  0  0
   56.3750   29.4800   44.7150 C   0  0  0  0  0  0  0  0  0  0  0  0
   55.1560   29.0620   45.2270 O   0  0  0  0  0  0  0  0  0  0  0  0
   57.6000   28.8850   45.0830 C   0  0  0  0  0  0  0  0  0  0  0  0
   57.9460   27.8100   45.9230 C   0  0  0  0  0  0  0  0  0  0  0  0
   57.1610   26.8660   46.4880 C   0  0  0  0  0  0  0  0  0  0  0  0
   56.7190   25.6170   45.8350 C   0  0  0  0  0  0  0  0  0  0  0  0
   55.3520   25.3740   45.6300 C   0  0  0  0  0  0  0  0  0  0  0  0
   54.4040   26.3310   45.9760 O   0  0  0  0  0  0  0  0  0  0  0  0
   54.9470   24.2020   45.0790 N   0  0  0  0  0  0  0  0  0  0  0  0
   55.8430   23.2410   44.7360 C   0  0  0  0  0  0  0  0  0  0  0  0
   55.4430   22.1650   44.2220 O   0  0  0  0  0  0  0  0  0  0  0  0
   57.1680   23.4370   44.9560 N   0  0  0  0  0  0  0  0  0  0  0  0
   57.6250   24.5920   45.5050 C   0  0  0  0  0  0  0  0  0  0  0  0
   58.8600   24.7280   45.7190 O   0  0  0  0  0  0  0  0  0  0  0  0
   59.7067   26.2606   47.3537 H   0  0  0  0  0  0  0  0  0  0  0  0
   61.2348   27.2043   46.7179 H   0  0  0  0  0  0  0  0  0  0  0  0
   60.8480   29.1410   45.1580 H   0  0  0  0  0  0  0  0  0  0  0  0
   59.7993   31.0195   43.5534 H   0  0  0  0  0  0  0  0  0  0  0  0
   57.6317   31.9849   42.7231 H   0  0  0  0  0  0  0  0  0  0  0  0
   55.4567   31.0319   43.5050 H   0  0  0  0  0  0  0  0  0  0  0  0
   56.8232   27.0425   47.5199 H   0  0  0  0  0  0  0  0  0  0  0  0
  1  2  2  0
  2  3  1  0
  3  4  1  0
  4  5  2  0
  5  6  1  0
  6  7  2  0
  7  8  1  0
  8  9  1  0
  8 10  2  0
 10 11  1  0
 11 12  2  3
 12 13  1  0
 13 14  2  0
 14 15  1  0
 14 16  1  0
 16 17  1  0
 17 18  2  0
 17 19  1  0
 19 20  1  0
 20 21  2  0
 11  2  1  0
 20 13  1  0
 10  4  1  0
  1 22  1  0
  1 23  1  0
  3 24  1  0
  5 25  1  0
  6 26  1  0
  7 27  1  0
 12 28  1  0
M  CHG  4   9  -1  15  -1  16  -1  19  -1
M  END
>  <UniqueID>  (25) 
23

>  <SMILES>  (25) 
C=c1[nH]c2cccc([O-])c2c1=Cc1c([O-])[n-]c(=O)[n-]c1=O

>  <Energy>  (25) 
84.25771083212476

>  <Genealogy>  (25) 
C=c1[nH]c2cccc([O-])c2c1=Cc1c([O-])[n-]c(=O)[n-]c1=O (protonated)
C=c1[nH]c2cccc([O-])c2c1=Cc1c([O-])[n-]c(=O)[n-]c1=O (3D coordinates assigned)
C=c1[nH]c2cccc([O-])c2c1=Cc1c([O-])[n-]c(=O)[n-]c1=O (optimized conformer: 84.25771083212476 kcal/mol)

>  <smiles>  (25) 
C=c1[nH]c2cccc(O)c2c1=Cc1c(O)[nH]c(=O)[nH]c1=O

>  <score_type>  (25) 
oracle

>  <origin>  (25) 
adg

>  <m_score__min__energy>  (25) 
-17.309999999999999

>  <m_primary>  (25) 
energy

$$$$
25:0
     RDKit          3D

 63 65  0  0  0  0  0  0  0  0999 V2000
   60.5970   35.2374   46.2152 H   0  0  0  0  0  0  0  0  0  0  0  0
   60.3280   34.3520   46.8100 C   0  0  0  0  0  0  0  0  0  0  0  0
   59.0640   33.8960   46.6980 C   0  0  0  0  0  0  0  0  0  0  0  0
   58.3530   34.2190   45.4830 C   0  0  0  0  0  0  0  0  0  0  0  0
   57.7810   34.4760   44.5110 N   0  0  0  0  0  0  0  0  0  0  0  0
   58.3770   33.0710   47.7340 C   0  0  0  0  0  0  0  0  0  0  0  0
   57.1230   33.0880   47.8450 O   0  0  0  0  0  0  0  0  0  0  0  0
   59.1220   32.2320   48.6250 N   0  0  0  0  0  0  0  0  0  0  0  0
   59.5360   30.8860   48.3440 C   0  0  0  0  0  0  0  0  0  0  0  0
   60.0320   30.0980   49.3890 C   0  0  0  0  0  0  0  0  0  0  0  0
   60.0947   30.5130   50.4058 H   0  0  0  0  0  0  0  0  0  0  0  0
   60.4480   28.7860   49.1460 C   0  0  0  0  0  0  0  0  0  0  0  0
   60.8272   28.1681   49.9733 H   0  0  0  0  0  0  0  0  0  0  0  0
   60.3830   28.2580   47.8540 C   0  0  0  0  0  0  0  0  0  0  0  0
   60.7043   27.2225   47.6680 H   0  0  0  0  0  0  0  0  0  0  0  0
   59.9100   29.0430   46.7950 C   0  0  0  0  0  0  0  0  0  0  0  0
   59.8670   28.3700   45.1660 S   0  0  0  0  0  0  0  0  0  0  0  0
   59.6110   26.8890   45.2250 O   0  0  0  0  0  0  0  0  0  0  0  0
   61.2010   28.6060   44.5150 O   0  0  0  0  0  0  0  0  0  0  0  0
   58.6090   29.1480   44.2360 N   0  0  0  0  0  0  0  0  0  0  0  0
   58.6410   28.7360   43.2740 H   0  0  0  0  0  0  0  0  0  0  0  0
   58.8690   30.6070   44.1520 C   0  0  0  0  0  0  0  0  0  0  0  0
   59.2153   30.9578   45.1354 H   0  0  0  0  0  0  0  0  0  0  0  0
   59.6264   30.7600   43.3691 H   0  0  0  0  0  0  0  0  0  0  0  0
   57.6200   31.4250   43.7500 C   0  0  0  0  0  0  0  0  0  0  0  0
   57.1722   31.8594   44.6559 H   0  0  0  0  0  0  0  0  0  0  0  0
   57.9374   32.2115   43.0496 H   0  0  0  0  0  0  0  0  0  0  0  0
   56.5740   30.5570   43.0480 C   0  0  0  0  0  0  0  0  0  0  0  0
   55.6916   31.1727   42.8193 H   0  0  0  0  0  0  0  0  0  0  0  0
   57.0167   30.1561   42.1243 H   0  0  0  0  0  0  0  0  0  0  0  0
   56.1460   29.3770   43.9350 C   0  0  0  0  0  0  0  0  0  0  0  0
   55.3123   29.7014   44.5751 H   0  0  0  0  0  0  0  0  0  0  0  0
   55.8499   28.5512   43.2714 H   0  0  0  0  0  0  0  0  0  0  0  0
   57.2920   28.8660   44.8360 C   0  0  0  0  0  0  0  0  0  0  0  0
   57.2291   29.3653   45.8141 H   0  0  0  0  0  0  0  0  0  0  0  0
   57.1869   27.7768   44.9487 H   0  0  0  0  0  0  0  0  0  0  0  0
   59.4920   30.3600   47.0410 C   0  0  0  0  0  0  0  0  0  0  0  0
   59.1284   30.9833   46.2108 H   0  0  0  0  0  0  0  0  0  0  0  0
   61.3830   33.7660   47.6620 C   0  0  0  0  0  0  0  0  0  0  0  0
   62.2860   32.8500   47.1090 C   0  0  0  0  0  0  0  0  0  0  0  0
   62.1673   32.5295   46.0634 H   0  0  0  0  0  0  0  0  0  0  0  0
   63.3370   32.3400   47.8760 C   0  0  0  0  0  0  0  0  0  0  0  0
   64.0289   31.6095   47.4314 H   0  0  0  0  0  0  0  0  0  0  0  0
   63.5220   32.7500   49.2130 C   0  0  0  0  0  0  0  0  0  0  0  0
   64.6180   32.2260   50.0090 N   0  0  0  0  0  0  0  0  0  0  0  0
   65.9910   32.7250   49.8250 C   0  0  0  0  0  0  0  0  0  0  0  0
   66.0303   33.3400   48.9139 H   0  0  0  0  0  0  0  0  0  0  0  0
   66.6671   31.8616   49.7392 H   0  0  0  0  0  0  0  0  0  0  0  0
   66.4350   33.5710   51.0170 C   0  0  0  0  0  0  0  0  0  0  0  0
   66.1655   33.0575   51.9517 H   0  0  0  0  0  0  0  0  0  0  0  0
   67.5249   33.7149   50.9788 H   0  0  0  0  0  0  0  0  0  0  0  0
   65.9343   34.5497   50.9788 H   0  0  0  0  0  0  0  0  0  0  0  0
   64.3840   31.1820   51.0210 C   0  0  0  0  0  0  0  0  0  0  0  0
   65.1475   30.3978   50.9113 H   0  0  0  0  0  0  0  0  0  0  0  0
   64.4432   31.6427   52.0181 H   0  0  0  0  0  0  0  0  0  0  0  0
   63.0000   30.5570   50.8570 C   0  0  0  0  0  0  0  0  0  0  0  0
   62.5663   30.3611   51.8487 H   0  0  0  0  0  0  0  0  0  0  0  0
   62.3489   31.2484   50.3021 H   0  0  0  0  0  0  0  0  0  0  0  0
   63.0881   29.6113   50.3021 H   0  0  0  0  0  0  0  0  0  0  0  0
   62.6210   33.6910   49.7520 C   0  0  0  0  0  0  0  0  0  0  0  0
   62.7445   34.0266   50.7922 H   0  0  0  0  0  0  0  0  0  0  0  0
   61.5730   34.2030   48.9820 C   0  0  0  0  0  0  0  0  0  0  0  0
   60.8932   34.9527   49.4131 H   0  0  0  0  0  0  0  0  0  0  0  0
  1  2  1  0
  2  3  2  0
  3  4  1  0
  4  5  3  0
  3  6  1  0
  6  7  2  0
  6  8  1  0
  8  9  1  0
  9 10  2  0
 10 11  1  0
 10 12  1  0
 12 13  1  0
 12 14  2  0
 14 15  1  0
 14 16  1  0
 16 17  1  0
 17 18  2  0
 17 19  2  0
 17 20  1  0
 20 21  1  0
 20 22  1  0
 22 23  1  0
 22 24  1  0
 22 25  1  0
 25 26  1  0
 25 27  1  0
 25 28  1  0
 28 29  1  0
 28 30  1  0
 28 31  1  0
 31 32  1  0
 31 33  1  0
 31 34  1  0
 34 35  1  0
 34 36  1  0
 16 37  2  0
 37 38  1  0
  2 39  1  0
 39 40  2  0
 40 41  1  0
 40 42  1  0
 42 43  1  0
 42 44  2  0
 44 45  1  0
 45 46  1  0
 46 47  1  0
 46 48  1  0
 46 49  1  0
 49 50  1  0
 49 51  1  0
 49 52  1  0
 45 53  1  0
 53 54  1  0
 53 55  1  0
 53 56  1  0
 56 57  1  0
 56 58  1  0
 56 59  1  0
 44 60  1  0
 60 61  1  0
 60 62  2  0
 62 63  1  0
 37  9  1  0
 62 39  1  0
 34 20  1  0
M  CHG  2   8  -1  20   1
M  END
>  <UniqueID>  (26) 
24

>  <SMILES>  (26) 
CCN(CC)c1ccc(/C=C(/C#N)C(=O)[N-]c2cccc(S(=O)(=O)[NH+]3CCCCC3)c2)cc1

>  <Energy>  (26) 
81.49854661823596

>  <Genealogy>  (26) 
CCN(CC)c1ccc(C=C(C#N)C(=O)[N-]c2cccc(S(=O)(=O)[NH+]3CCCCC3)c2)cc1 (protonated)
CCN(CC)c1ccc(/C=C(/C#N)C(=O)[N-]c2cccc(S(=O)(=O)[NH+]3CCCCC3)c2)cc1 (cis-trans isomerization)
CCN(CC)c1ccc(/C=C(/C#N)C(=O)[N-]c2cccc(S(=O)(=O)[NH+]3CCCCC3)c2)cc1 (3D coordinates assigned)
CCN(CC)c1ccc(/C=C(/C#N)C(=O)[N-]c2cccc(S(=O)(=O)[NH+]3CCCCC3)c2)cc1 (nonaromatic ring conformer: 81.49854661823596 kcal/mol)

>  <smiles>  (26) 
CCN(CC)c1ccc(C=C(C#N)C(=O)Nc2cccc(S(=O)(=O)N3CCCCC3)c2)cc1

>  <score_type>  (26) 
oracle

>  <origin>  (26) 
adg

>  <m_score__min__energy>  (26) 
-10.220000000000001

>  <m_primary>  (26) 
energy

$$$$
26:0
     RDKit          3D

 51 54  0  0  0  0  0  0  0  0999 V2000
   62.2710   33.9010   48.5220 C   0  0  0  0  0  0  0  0  0  0  0  0
   61.0170   33.8330   47.7110 C   0  0  0  0  0  0  0  0  0  0  0  0
   61.0210   34.2210   46.3670 C   0  0  0  0  0  0  0  0  0  0  0  0
   59.8450   34.1270   45.6230 C   0  0  0  0  0  0  0  0  0  0  0  0
   58.6660   33.6480   46.2180 C   0  0  0  0  0  0  0  0  0  0  0  0
   57.4180   33.5450   45.4200 C   0  0  0  0  0  0  0  0  0  0  0  0
   56.8850   34.5910   44.9620 O   0  0  0  0  0  0  0  0  0  0  0  0
   56.7580   32.2900   45.2050 N   0  0  0  0  0  0  0  0  0  0  0  0
   57.3870   31.0010   45.1800 C   0  0  0  0  0  0  0  0  0  0  0  0
   57.0450   30.0350   44.2210 C   0  0  0  0  0  0  0  0  0  0  0  0
   57.6520   28.7790   44.2400 C   0  0  0  0  0  0  0  0  0  0  0  0
   58.6210   28.4720   45.2060 C   0  0  0  0  0  0  0  0  0  0  0  0
   58.9720   29.4350   46.1800 C   0  0  0  0  0  0  0  0  0  0  0  0
   58.3230   30.6840   46.1710 C   0  0  0  0  0  0  0  0  0  0  0  0
   59.9750   29.1160   47.1730 N   0  0  0  0  0  0  0  0  0  0  0  0
   60.6580   30.1340   47.9300 C   0  0  0  0  0  0  0  0  0  0  0  0
   61.8050   30.5120   47.5560 O   0  0  0  0  0  0  0  0  0  0  0  0
   59.9840   30.8130   49.0190 N   0  0  0  0  0  0  0  0  0  0  0  0
   58.9570   29.9610   49.6420 C   0  0  0  0  0  0  0  0  0  0  0  0
   59.5800   29.2960   50.8650 C   0  0  0  0  0  0  0  0  0  0  0  0
   60.9020   30.0080   51.0970 C   0  0  0  0  0  0  0  0  0  0  0  0
   60.9350   31.1450   50.0880 C   0  0  0  0  0  0  0  0  0  0  0  0
   60.3410   27.7140   47.3960 C   0  0  0  0  0  0  0  0  0  0  0  0
   60.4950   27.0030   46.0540 C   0  0  0  0  0  0  0  0  0  0  0  0
   59.1890   27.0730   45.2580 C   0  0  0  0  0  0  0  0  0  0  0  0
   58.7130   33.2520   47.5700 C   0  0  0  0  0  0  0  0  0  0  0  0
   57.6830   32.8160   48.1510 O   0  0  0  0  0  0  0  0  0  0  0  0
   59.8740   33.3530   48.2700 N   0  0  0  0  0  0  0  0  0  0  0  0
   62.0168   33.8872   49.5921 H   0  0  0  0  0  0  0  0  0  0  0  0
   62.9081   33.0361   48.2853 H   0  0  0  0  0  0  0  0  0  0  0  0
   62.8108   34.8297   48.2853 H   0  0  0  0  0  0  0  0  0  0  0  0
   61.9437   34.5970   45.9009 H   0  0  0  0  0  0  0  0  0  0  0  0
   59.8407   34.4293   44.5654 H   0  0  0  0  0  0  0  0  0  0  0  0
   56.2951   30.2692   43.4511 H   0  0  0  0  0  0  0  0  0  0  0  0
   57.3684   28.0241   43.4919 H   0  0  0  0  0  0  0  0  0  0  0  0
   58.5547   31.4212   46.9538 H   0  0  0  0  0  0  0  0  0  0  0  0
   59.5430   31.6950   48.6670 H   0  0  0  0  0  0  0  0  0  0  0  0
   58.0969   30.5749   49.9476 H   0  0  0  0  0  0  0  0  0  0  0  0
   58.6054   29.2005   48.9292 H   0  0  0  0  0  0  0  0  0  0  0  0
   58.9237   29.4126   51.7400 H   0  0  0  0  0  0  0  0  0  0  0  0
   59.7242   28.2167   50.7088 H   0  0  0  0  0  0  0  0  0  0  0  0
   60.9510   30.4028   52.1225 H   0  0  0  0  0  0  0  0  0  0  0  0
   61.7581   29.3284   50.9735 H   0  0  0  0  0  0  0  0  0  0  0  0
   60.6405   32.0870   50.5737 H   0  0  0  0  0  0  0  0  0  0  0  0
   61.9485   31.2720   49.6798 H   0  0  0  0  0  0  0  0  0  0  0  0
   61.2926   27.6675   47.9458 H   0  0  0  0  0  0  0  0  0  0  0  0
   59.5516   27.2200   47.9816 H   0  0  0  0  0  0  0  0  0  0  0  0
   61.2969   27.4874   45.4775 H   0  0  0  0  0  0  0  0  0  0  0  0
   60.7444   25.9474   46.2369 H   0  0  0  0  0  0  0  0  0  0  0  0
   59.3828   26.7319   44.2303 H   0  0  0  0  0  0  0  0  0  0  0  0
   58.4530   26.4306   45.7636 H   0  0  0  0  0  0  0  0  0  0  0  0
  1  2  1  0
  2  3  2  0
  3  4  1  0
  4  5  2  0
  5  6  1  0
  6  7  2  0
  6  8  1  0
  8  9  1  0
  9 10  2  0
 10 11  1  0
 11 12  2  0
 12 13  1  0
 13 14  2  0
 13 15  1  0
 15 16  1  0
 16 17  2  0
 16 18  1  0
 18 19  1  0
 19 20  1  0
 20 21  1  0
 21 22  1  0
 15 23  1  0
 23 24  1  0
 24 25  1  0
  5 26  1  0
 26 27  2  0
 26 28  1  0
 28  2  1  0
 14  9  1  0
 22 18  1  0
 25 12  1  0
  1 29  1  0
  1 30  1  0
  1 31  1  0
  3 32  1  0
  4 33  1  0
 10 34  1  0
 11 35  1  0
 14 36  1  0
 18 37  1  0
 19 38  1  0
 19 39  1  0
 20 40  1  0
 20 41  1  0
 21 42  1  0
 21 43  1  0
 22 44  1  0
 22 45  1  0
 23 46  1  0
 23 47  1  0
 24 48  1  0
 24 49  1  0
 25 50  1  0
 25 51  1  0
M  CHG  3   8  -1  18   1  28  -1
M  END
>  <UniqueID>  (27) 
25

>  <SMILES>  (27) 
Cc1ccc(C(=O)[N-]c2ccc3c(c2)N(C(=O)[NH+]2CCCC2)CCC3)c(=O)[n-]1

>  <Energy>  (27) 
71.24556119198111

>  <Genealogy>  (27) 
Cc1ccc(C(=O)[N-]c2ccc3c(c2)N(C(=O)[NH+]2CCCC2)CCC3)c(=O)[n-]1 (protonated)
Cc1ccc(C(=O)[N-]c2ccc3c(c2)N(C(=O)[NH+]2CCCC2)CCC3)c(=O)[n-]1 (3D coordinates assigned)
Cc1ccc(C(=O)[N-]c2ccc3c(c2)N(C(=O)[NH+]2CCCC2)CCC3)c(=O)[n-]1 (nonaromatic ring conformer: 71.24556119198111 kcal/mol)

>  <smiles>  (27) 
Cc1ccc(C(=O)Nc2ccc3c(c2)N(C(=O)N2CCCC2)CCC3)c(=O)[nH]1

>  <score_type>  (27) 
oracle

>  <origin>  (27) 
adg

>  <m_score__min__energy>  (27) 
-11.18

>  <m_primary>  (27) 
energy

$$$$
27:0
     RDKit          3D

 59 62  0  0  0  0  0  0  0  0999 V2000
   58.8720   33.1580   51.4430 C   0  0  0  0  0  0  0  0  0  0  0  0
   59.3060   33.3260   50.0220 C   0  0  0  0  0  0  0  0  0  0  0  0
   58.6510   32.6450   48.9890 C   0  0  0  0  0  0  0  0  0  0  0  0
   59.0470   32.8390   47.7030 N   0  0  0  0  0  0  0  0  0  0  0  0
   60.0630   33.6910   47.3950 C   0  0  0  0  0  0  0  0  0  0  0  0
   60.4880   33.8580   45.9700 C   0  0  0  0  0  0  0  0  0  0  0  0
   59.3970   34.4590   45.2090 N   0  0  0  0  0  0  0  0  0  0  0  0
   58.0610   33.9430   45.1420 C   0  0  0  0  0  0  0  0  0  0  0  0
   57.1350   34.5890   45.7010 O   0  0  0  0  0  0  0  0  0  0  0  0
   57.7280   32.7110   44.3990 C   0  0  0  0  0  0  0  0  0  0  0  0
   57.7600   32.7150   42.9960 C   0  0  0  0  0  0  0  0  0  0  0  0
   57.4420   31.5600   42.2800 C   0  0  0  0  0  0  0  0  0  0  0  0
   57.0860   30.3920   42.9570 C   0  0  0  0  0  0  0  0  0  0  0  0
   57.0440   30.3670   44.3620 C   0  0  0  0  0  0  0  0  0  0  0  0
   56.6760   29.1270   45.0870 C   0  0  0  0  0  0  0  0  0  0  0  0
   55.5260   28.6360   44.9350 O   0  0  0  0  0  0  0  0  0  0  0  0
   57.6040   28.4450   45.9420 N   0  0  0  0  0  0  0  0  0  0  0  0
   58.6790   29.0570   46.6720 C   0  0  0  0  0  0  0  0  0  0  0  0
   59.7240   29.6610   45.9650 C   0  0  0  0  0  0  0  0  0  0  0  0
   60.7920   30.2550   46.6460 C   0  0  0  0  0  0  0  0  0  0  0  0
   60.8330   30.2490   48.0520 C   0  0  0  0  0  0  0  0  0  0  0  0
   61.9230   30.8790   48.7610 N   0  0  0  0  0  0  0  0  0  0  0  0
   62.2190   30.5150   50.1500 C   0  0  0  0  0  0  0  0  0  0  0  0
   62.7660   31.7390   50.8900 C   0  0  0  0  0  0  0  0  0  0  0  0
   63.9890   32.2910   50.2570 N   0  0  0  0  0  0  0  0  0  0  0  0
   64.1030   33.7380   50.5180 C   0  0  0  0  0  0  0  0  0  0  0  0
   64.1300   31.9910   48.8100 C   0  0  0  0  0  0  0  0  0  0  0  0
   62.7790   31.8660   48.0870 C   0  0  0  0  0  0  0  0  0  0  0  0
   59.7940   29.6160   48.7590 C   0  0  0  0  0  0  0  0  0  0  0  0
   58.7320   29.0170   48.0770 C   0  0  0  0  0  0  0  0  0  0  0  0
   57.3400   31.5420   45.0750 C   0  0  0  0  0  0  0  0  0  0  0  0
   60.7250   34.3630   48.4310 C   0  0  0  0  0  0  0  0  0  0  0  0
   60.3240   34.1730   49.7150 N   0  0  0  0  0  0  0  0  0  0  0  0
   59.6847   33.4726   52.1142 H   0  0  0  0  0  0  0  0  0  0  0  0
   57.9818   33.7765   51.6301 H   0  0  0  0  0  0  0  0  0  0  0  0
   58.6302   32.1013   51.6301 H   0  0  0  0  0  0  0  0  0  0  0  0
   57.8223   31.9582   49.2161 H   0  0  0  0  0  0  0  0  0  0  0  0
   61.3717   34.5115   45.9242 H   0  0  0  0  0  0  0  0  0  0  0  0
   60.7385   32.8759   45.5425 H   0  0  0  0  0  0  0  0  0  0  0  0
   58.0372   33.6334   42.4577 H   0  0  0  0  0  0  0  0  0  0  0  0
   57.4719   31.5699   41.1804 H   0  0  0  0  0  0  0  0  0  0  0  0
   56.8366   29.4849   42.3870 H   0  0  0  0  0  0  0  0  0  0  0  0
   59.7059   29.6690   44.8652 H   0  0  0  0  0  0  0  0  0  0  0  0
   61.6054   30.7301   46.0779 H   0  0  0  0  0  0  0  0  0  0  0  0
   61.2986   30.1689   50.6430 H   0  0  0  0  0  0  0  0  0  0  0  0
   62.9679   29.7095   50.1676 H   0  0  0  0  0  0  0  0  0  0  0  0
   61.9914   32.5199   50.8993 H   0  0  0  0  0  0  0  0  0  0  0  0
   63.0338   31.4198   51.9080 H   0  0  0  0  0  0  0  0  0  0  0  0
   64.1169   33.9148   51.6036 H   0  0  0  0  0  0  0  0  0  0  0  0
   65.0339   34.1187   50.0725 H   0  0  0  0  0  0  0  0  0  0  0  0
   63.2432   34.2598   50.0725 H   0  0  0  0  0  0  0  0  0  0  0  0
   64.7059   32.8011   48.3387 H   0  0  0  0  0  0  0  0  0  0  0  0
   64.6399   31.0201   48.7239 H   0  0  0  0  0  0  0  0  0  0  0  0
   62.2752   32.8438   48.0898 H   0  0  0  0  0  0  0  0  0  0  0  0
   62.9582   31.5344   47.0536 H   0  0  0  0  0  0  0  0  0  0  0  0
   59.8182   29.5926   49.8585 H   0  0  0  0  0  0  0  0  0  0  0  0
   57.9340   28.5120   48.6411 H   0  0  0  0  0  0  0  0  0  0  0  0
   57.2671   31.5461   46.1726 H   0  0  0  0  0  0  0  0  0  0  0  0
   61.5630   35.0392   48.2064 H   0  0  0  0  0  0  0  0  0  0  0  0
  1  2  1  0
  2  3  2  0
  3  4  1  0
  4  5  2  0
  5  6  1  0
  6  7  1  0
  7  8  1  0
  8  9  2  0
  8 10  1  0
 10 11  2  0
 11 12  1  0
 12 13  2  0
 13 14  1  0
 14 15  1  0
 15 16  2  0
 15 17  1  0
 17 18  1  0
 18 19  2  0
 19 20  1  0
 20 21  2  0
 21 22  1  0
 22 23  1  0
 23 24  1  0
 24 25  1  0
 25 26  1  0
 25 27  1  0
 27 28  1  0
 21 29  1  0
 29 30  2  0
 14 31  2  0
  5 32  1  0
 32 33  2  0
 33  2  1  0
 31 10  1  0
 30 18  1  0
 28 22  1  0
  1 34  1  0
  1 35  1  0
  1 36  1  0
  3 37  1  0
  6 38  1  0
  6 39  1  0
 11 40  1  0
 12 41  1  0
 13 42  1  0
 19 43  1  0
 20 44  1  0
 23 45  1  0
 23 46  1  0
 24 47  1  0
 24 48  1  0
 26 49  1  0
 26 50  1  0
 26 51  1  0
 27 52  1  0
 27 53  1  0
 28 54  1  0
 28 55  1  0
 29 56  1  0
 30 57  1  0
 31 58  1  0
 32 59  1  0
M  CHG  2   7  -1  17  -1
M  END
>  <UniqueID>  (28) 
26

>  <SMILES>  (28) 
Cc1cnc(C[N-]C(=O)c2cccc(C(=O)[N-]c3ccc(N4CCN(C)CC4)cc3)c2)cn1

>  <Energy>  (28) 
82.26488726525778

>  <Genealogy>  (28) 
Cc1cnc(C[N-]C(=O)c2cccc(C(=O)[N-]c3ccc(N4CCN(C)CC4)cc3)c2)cn1 (protonated)
Cc1cnc(C[N-]C(=O)c2cccc(C(=O)[N-]c3ccc(N4CCN(C)CC4)cc3)c2)cn1 (3D coordinates assigned)
Cc1cnc(C[N-]C(=O)c2cccc(C(=O)[N-]c3ccc(N4CCN(C)CC4)cc3)c2)cn1 (nonaromatic ring conformer: 82.26488726525778 kcal/mol)

>  <smiles>  (28) 
Cc1cnc(CNC(=O)c2cccc(C(=O)Nc3ccc(N4CCN(C)CC4)cc3)c2)cn1

>  <score_type>  (28) 
oracle

>  <origin>  (28) 
adg

>  <m_score__min__energy>  (28) 
-13.369999999999999

>  <m_primary>  (28) 
energy

$$$$
28:0
     RDKit          3D

 41 44  0  0  0  0  0  0  0  0999 V2000
   58.3550   30.5220   43.7640 O   0  0  0  0  0  0  0  0  0  0  0  0
   57.8190   31.1090   44.7430 C   0  0  0  0  0  0  0  0  0  0  0  0
   57.4360   32.5510   44.6190 C   0  0  0  0  0  0  0  0  0  0  0  0
   58.2330   33.3820   45.5860 C   0  0  0  0  0  0  0  0  0  0  0  0
   58.1830   33.1060   46.9630 C   0  0  0  0  0  0  0  0  0  0  0  0
   58.9070   33.8920   47.8650 C   0  0  0  0  0  0  0  0  0  0  0  0
   59.6740   34.9640   47.4010 C   0  0  0  0  0  0  0  0  0  0  0  0
   59.7130   35.2570   46.0350 C   0  0  0  0  0  0  0  0  0  0  0  0
   58.9920   34.4730   45.1290 C   0  0  0  0  0  0  0  0  0  0  0  0
   57.6090   30.4090   45.9770 N   0  0  0  0  0  0  0  0  0  0  0  0
   57.9780   29.0580   46.1240 N   0  0  0  0  0  0  0  0  0  0  0  0
   59.2000   28.7130   46.6520 C   0  0  0  0  0  0  0  0  0  0  0  0
   60.1190   29.7180   47.2290 C   0  0  0  0  0  0  0  0  0  0  0  0
   60.2730   29.9370   48.6100 C   0  0  0  0  0  0  0  0  0  0  0  0
   61.2310   30.8910   48.9170 C   0  0  0  0  0  0  0  0  0  0  0  0
   61.8900   31.4520   47.4780 S   0  0  0  0  0  0  0  0  0  0  0  0
   60.9750   30.4890   46.4500 C   0  0  0  0  0  0  0  0  0  0  0  0
   59.5820   27.4090   46.6810 N   0  0  0  0  0  0  0  0  0  0  0  0
   58.7710   26.4200   46.2350 C   0  0  0  0  0  0  0  0  0  0  0  0
   59.1970   25.0880   46.2870 C   0  0  0  0  0  0  0  0  0  0  0  0
   58.3540   24.0660   45.8400 C   0  0  0  0  0  0  0  0  0  0  0  0
   57.0840   24.3710   45.3430 C   0  0  0  0  0  0  0  0  0  0  0  0
   56.6500   25.7000   45.2880 C   0  0  0  0  0  0  0  0  0  0  0  0
   57.4940   26.7350   45.7350 C   0  0  0  0  0  0  0  0  0  0  0  0
   57.1160   28.0870   45.6900 C   0  0  0  0  0  0  0  0  0  0  0  0
   55.9860   28.4130   45.2300 O   0  0  0  0  0  0  0  0  0  0  0  0
   57.6366   32.8939   43.5932 H   0  0  0  0  0  0  0  0  0  0  0  0
   56.3655   32.6602   44.8474 H   0  0  0  0  0  0  0  0  0  0  0  0
   57.5724   32.2690   47.3325 H   0  0  0  0  0  0  0  0  0  0  0  0
   58.8727   33.6662   48.9410 H   0  0  0  0  0  0  0  0  0  0  0  0
   60.2474   35.5777   48.1113 H   0  0  0  0  0  0  0  0  0  0  0  0
   60.3117   36.1055   45.6721 H   0  0  0  0  0  0  0  0  0  0  0  0
   59.0190   34.7109   44.0554 H   0  0  0  0  0  0  0  0  0  0  0  0
   57.0210   30.8570   46.7160 H   0  0  0  0  0  0  0  0  0  0  0  0
   59.6890   29.4023   49.3736 H   0  0  0  0  0  0  0  0  0  0  0  0
   61.5108   31.2228   49.9277 H   0  0  0  0  0  0  0  0  0  0  0  0
   61.0413   30.4713   45.3521 H   0  0  0  0  0  0  0  0  0  0  0  0
   60.1954   24.8450   46.6797 H   0  0  0  0  0  0  0  0  0  0  0  0
   58.6912   23.0197   45.8796 H   0  0  0  0  0  0  0  0  0  0  0  0
   56.4234   23.5637   44.9939 H   0  0  0  0  0  0  0  0  0  0  0  0
   55.6499   25.9364   44.8957 H   0  0  0  0  0  0  0  0  0  0  0  0
  1  2  2  0
  2  3  1  0
  3  4  1  0
  4  5  2  0
  5  6  1  0
  6  7  2  0
  7  8  1  0
  8  9  2  0
  2 10  1  0
 10 11  1  0
 11 12  1  0
 12 13  1  0
 13 14  1  0
 14 15  2  0
 15 16  1  0
 16 17  1  0
 12 18  2  0
 18 19  1  0
 19 20  2  0
 20 21  1  0
 21 22  2  0
 22 23  1  0
 23 24  2  0
 24 25  1  0
 25 26  2  0
  9  4  1  0
 25 11  1  0
 17 13  2  0
 24 19  1  0
  3 27  1  0
  3 28  1  0
  5 29  1  0
  6 30  1  0
  7 31  1  0
  8 32  1  0
  9 33  1  0
 10 34  1  0
 14 35  1  0
 15 36  1  0
 17 37  1  0
 20 38  1  0
 21 39  1  0
 22 40  1  0
 23 41  1  0
M  END
>  <UniqueID>  (29) 
27

>  <SMILES>  (29) 
O=C(Cc1ccccc1)Nn1c(-c2ccsc2)nc2ccccc2c1=O

>  <Energy>  (29) 
81.52814253918629

>  <Genealogy>  (29) 
O=C(Cc1ccccc1)Nn1c(-c2ccsc2)nc2ccccc2c1=O (3D coordinates assigned)
O=C(Cc1ccccc1)Nn1c(-c2ccsc2)nc2ccccc2c1=O (optimized conformer: 81.52814253918629 kcal/mol)

>  <smiles>  (29) 
O=C(Cc1ccccc1)Nn1c(-c2ccsc2)nc2ccccc2c1=O

>  <score_type>  (29) 
oracle

>  <origin>  (29) 
adg

>  <m_score__min__energy>  (29) 
-8.4600000000000009

>  <m_primary>  (29) 
energy

$$$$
29:0
     RDKit          3D

 42 44  0  0  0  0  0  0  0  0999 V2000
   55.4820   25.8680   47.1410 H   0  0  0  0  0  0  0  0  0  0  0  0
   55.1550   25.4150   46.2980 O   0  0  0  0  0  0  0  0  0  0  0  0
   55.9390   24.5290   45.5580 C   0  0  0  0  0  0  0  0  0  0  0  0
   55.3440   23.8640   44.4780 C   0  0  0  0  0  0  0  0  0  0  0  0
   54.2692   23.9926   44.2824 H   0  0  0  0  0  0  0  0  0  0  0  0
   56.1060   23.0390   43.6480 C   0  0  0  0  0  0  0  0  0  0  0  0
   55.6303   22.5183   42.8038 H   0  0  0  0  0  0  0  0  0  0  0  0
   57.4700   22.8750   43.8890 C   0  0  0  0  0  0  0  0  0  0  0  0
   58.0733   22.2411   43.2225 H   0  0  0  0  0  0  0  0  0  0  0  0
   58.0710   23.5150   44.9760 C   0  0  0  0  0  0  0  0  0  0  0  0
   59.1488   23.3883   45.1558 H   0  0  0  0  0  0  0  0  0  0  0  0
   57.3130   24.3160   45.8380 C   0  0  0  0  0  0  0  0  0  0  0  0
   57.9690   24.9090   46.9670 N   0  0  0  0  0  0  0  0  0  0  0  0
   58.6330   26.0240   46.9130 C   0  0  0  0  0  0  0  0  0  0  0  0
   59.5023   26.1696   47.5712 H   0  0  0  0  0  0  0  0  0  0  0  0
   58.2380   27.0990   45.9810 C   0  0  0  0  0  0  0  0  0  0  0  0
   59.1630   27.6830   45.1000 C   0  0  0  0  0  0  0  0  0  0  0  0
   60.2076   27.3383   45.0972 H   0  0  0  0  0  0  0  0  0  0  0  0
   58.7650   28.6990   44.2270 C   0  0  0  0  0  0  0  0  0  0  0  0
   59.5008   29.1576   43.5500 H   0  0  0  0  0  0  0  0  0  0  0  0
   57.4310   29.1380   44.2090 C   0  0  0  0  0  0  0  0  0  0  0  0
   57.0070   30.2420   43.3160 C   0  0  0  0  0  0  0  0  0  0  0  0
   56.3346   29.9933   42.4817 H   0  0  0  0  0  0  0  0  0  0  0  0
   57.3840   31.5250   43.4510 C   0  0  0  0  0  0  0  0  0  0  0  0
   58.0560   32.3420   42.0460 Cl  0  0  0  0  0  0  0  0  0  0  0  0
   57.3720   32.2470   44.7450 C   0  0  0  0  0  0  0  0  0  0  0  0
   56.2670   32.5970   45.2430 O   0  0  0  0  0  0  0  0  0  0  0  0
   58.6280   32.5420   45.4760 C   0  0  0  0  0  0  0  0  0  0  0  0
   59.3200   31.5140   46.1470 C   0  0  0  0  0  0  0  0  0  0  0  0
   58.9163   30.4908   46.1424 H   0  0  0  0  0  0  0  0  0  0  0  0
   60.5150   31.7850   46.8180 C   0  0  0  0  0  0  0  0  0  0  0  0
   61.0456   30.9764   47.3420 H   0  0  0  0  0  0  0  0  0  0  0  0
   61.0370   33.0790   46.8250 C   0  0  0  0  0  0  0  0  0  0  0  0
   62.1960   33.3380   47.4790 F   0  0  0  0  0  0  0  0  0  0  0  0
   60.3660   34.1060   46.1570 C   0  0  0  0  0  0  0  0  0  0  0  0
   60.7799   35.1252   46.1623 H   0  0  0  0  0  0  0  0  0  0  0  0
   59.1690   33.8430   45.4810 C   0  0  0  0  0  0  0  0  0  0  0  0
   58.5310   34.8670   44.8570 F   0  0  0  0  0  0  0  0  0  0  0  0
   56.5110   28.5740   45.1090 C   0  0  0  0  0  0  0  0  0  0  0  0
   55.1910   29.0100   45.1360 O   0  0  0  0  0  0  0  0  0  0  0  0
   56.9120   27.5560   45.9800 C   0  0  0  0  0  0  0  0  0  0  0  0
   56.1810   27.1098   46.6704 H   0  0  0  0  0  0  0  0  0  0  0  0
  1  2  1  0
  2  3  1  0
  3  4  2  0
  4  5  1  0
  4  6  1  0
  6  7  1  0
  6  8  2  0
  8  9  1  0
  8 10  1  0
 10 11  1  0
 10 12  2  0
 12 13  1  0
 13 14  2  0
 14 15  1  0
 14 16  1  0
 16 17  2  0
 17 18  1  0
 17 19  1  0
 19 20  1  0
 19 21  2  0
 21 22  1  0
 22 23  1  0
 22 24  2  3
 24 25  1  0
 24 26  1  0
 26 27  2  0
 26 28  1  0
 28 29  2  0
 29 30  1  0
 29 31  1  0
 31 32  1  0
 31 33  2  0
 33 34  1  0
 33 35  1  0
 35 36  1  0
 35 37  2  0
 37 38  1  0
 21 39  1  0
 39 40  1  0
 39 41  2  0
 41 42  1  0
 12  3  1  0
 41 16  1  0
 37 28  1  0
M  CHG  1  40  -1
M  END
>  <UniqueID>  (30) 
28

>  <SMILES>  (30) 
O=C(C(Cl)=Cc1ccc(/C=N/c2ccccc2O)cc1[O-])c1ccc(F)cc1F

>  <Energy>  (30) 
65.2035991830174

>  <Genealogy>  (30) 
O=C(C(Cl)=Cc1ccc(C=Nc2ccccc2O)cc1[O-])c1ccc(F)cc1F (protonated)
O=C(C(Cl)=Cc1ccc(/C=N/c2ccccc2O)cc1[O-])c1ccc(F)cc1F (cis-trans isomerization)
O=C(C(Cl)=Cc1ccc(/C=N/c2ccccc2O)cc1[O-])c1ccc(F)cc1F (3D coordinates assigned)
O=C(C(Cl)=Cc1ccc(/C=N/c2ccccc2O)cc1[O-])c1ccc(F)cc1F (optimized conformer: 65.2035991830174 kcal/mol)

>  <smiles>  (30) 
O=C(C(Cl)=Cc1ccc(C=Nc2ccccc2O)cc1O)c1ccc(F)cc1F

>  <score_type>  (30) 
oracle

>  <origin>  (30) 
adg

>  <m_score__min__energy>  (30) 
-13.23

>  <m_primary>  (30) 
energy

$$$$
30:0
     RDKit          3D

 42 43  0  0  0  0  0  0  0  0999 V2000
   61.6220   33.8600   46.4050 C   0  0  0  0  0  0  0  0  0  0  0  0
   60.5930   32.8590   46.9420 C   0  0  0  0  0  0  0  0  0  0  0  0
   59.5650   33.5810   47.8180 C   0  0  0  0  0  0  0  0  0  0  0  0
   61.4020   31.5360   47.8590 S   0  0  0  0  0  0  0  0  0  0  0  0
   62.6930   31.1460   47.1940 O   0  0  0  0  0  0  0  0  0  0  0  0
   61.7090   32.0040   49.2540 O   0  0  0  0  0  0  0  0  0  0  0  0
   60.3750   30.1440   47.9720 N   0  0  0  0  0  0  0  0  0  0  0  0
   59.8980   29.4860   46.7980 C   0  0  0  0  0  0  0  0  0  0  0  0
   60.7640   29.2210   45.7290 C   0  0  0  0  0  0  0  0  0  0  0  0
   60.2850   28.5990   44.5740 C   0  0  0  0  0  0  0  0  0  0  0  0
   58.9370   28.2410   44.4770 C   0  0  0  0  0  0  0  0  0  0  0  0
   58.0610   28.5000   45.5420 C   0  0  0  0  0  0  0  0  0  0  0  0
   56.6400   28.1160   45.4600 C   0  0  0  0  0  0  0  0  0  0  0  0
   56.3090   26.9350   45.7450 O   0  0  0  0  0  0  0  0  0  0  0  0
   55.6270   29.0310   45.0220 N   0  0  0  0  0  0  0  0  0  0  0  0
   55.5910   29.7130   43.7290 C   0  0  0  0  0  0  0  0  0  0  0  0
   56.6040   30.8280   43.6780 C   0  0  0  0  0  0  0  0  0  0  0  0
   56.9970   31.4900   44.8540 C   0  0  0  0  0  0  0  0  0  0  0  0
   57.9380   32.5210   44.8010 C   0  0  0  0  0  0  0  0  0  0  0  0
   58.4950   32.8990   43.5760 C   0  0  0  0  0  0  0  0  0  0  0  0
   58.1060   32.2500   42.4010 C   0  0  0  0  0  0  0  0  0  0  0  0
   57.1610   31.2200   42.4500 C   0  0  0  0  0  0  0  0  0  0  0  0
   58.5430   29.1450   46.6920 C   0  0  0  0  0  0  0  0  0  0  0  0
   62.1286   34.3528   47.2479 H   0  0  0  0  0  0  0  0  0  0  0  0
   62.3642   33.3290   45.7909 H   0  0  0  0  0  0  0  0  0  0  0  0
   61.1117   34.6166   45.7909 H   0  0  0  0  0  0  0  0  0  0  0  0
   60.0686   32.4035   46.0890 H   0  0  0  0  0  0  0  0  0  0  0  0
   59.8043   33.4129   48.8784 H   0  0  0  0  0  0  0  0  0  0  0  0
   59.5924   34.6593   47.6024 H   0  0  0  0  0  0  0  0  0  0  0  0
   58.5599   33.1894   47.6024 H   0  0  0  0  0  0  0  0  0  0  0  0
   60.4380   29.5860   48.8520 H   0  0  0  0  0  0  0  0  0  0  0  0
   61.8247   29.5038   45.7997 H   0  0  0  0  0  0  0  0  0  0  0  0
   60.9698   28.3903   43.7388 H   0  0  0  0  0  0  0  0  0  0  0  0
   58.5624   27.7553   43.5639 H   0  0  0  0  0  0  0  0  0  0  0  0
   55.8145   28.9873   42.9332 H   0  0  0  0  0  0  0  0  0  0  0  0
   54.5886   30.1434   43.5876 H   0  0  0  0  0  0  0  0  0  0  0  0
   56.5617   31.1949   45.8202 H   0  0  0  0  0  0  0  0  0  0  0  0
   58.2411   33.0361   45.7245 H   0  0  0  0  0  0  0  0  0  0  0  0
   59.2398   33.7076   43.5368 H   0  0  0  0  0  0  0  0  0  0  0  0
   58.5433   32.5494   41.4371 H   0  0  0  0  0  0  0  0  0  0  0  0
   56.8528   30.7149   41.5227 H   0  0  0  0  0  0  0  0  0  0  0  0
   57.8530   29.3841   47.5146 H   0  0  0  0  0  0  0  0  0  0  0  0
  1  2  1  0
  2  3  1  0
  2  4  1  0
  4  5  2  0
  4  6  2  0
  4  7  1  0
  7  8  1  0
  8  9  2  0
  9 10  1  0
 10 11  2  0
 11 12  1  0
 12 13  1  0
 13 14  2  0
 13 15  1  0
 15 16  1  0
 16 17  1  0
 17 18  2  0
 18 19  1  0
 19 20  2  0
 20 21  1  0
 21 22  2  0
 12 23  2  0
 23  8  1  0
 22 17  1  0
  1 24  1  0
  1 25  1  0
  1 26  1  0
  2 27  1  0
  3 28  1  0
  3 29  1  0
  3 30  1  0
  7 31  1  0
  9 32  1  0
 10 33  1  0
 11 34  1  0
 16 35  1  0
 16 36  1  0
 18 37  1  0
 19 38  1  0
 20 39  1  0
 21 40  1  0
 22 41  1  0
 23 42  1  0
M  CHG  1  15  -1
M  END
>  <UniqueID>  (31) 
29

>  <SMILES>  (31) 
CC(C)S(=O)(=O)Nc1cccc(C(=O)[N-]Cc2ccccc2)c1

>  <Energy>  (31) 
42.63252414657223

>  <Genealogy>  (31) 
CC(C)S(=O)(=O)Nc1cccc(C(=O)[N-]Cc2ccccc2)c1 (protonated)
CC(C)S(=O)(=O)Nc1cccc(C(=O)[N-]Cc2ccccc2)c1 (3D coordinates assigned)
CC(C)S(=O)(=O)Nc1cccc(C(=O)[N-]Cc2ccccc2)c1 (optimized conformer: 42.63252414657223 kcal/mol)

>  <smiles>  (31) 
CC(C)S(=O)(=O)Nc1cccc(C(=O)NCc2ccccc2)c1

>  <score_type>  (31) 
oracle

>  <origin>  (31) 
adg

>  <m_score__min__energy>  (31) 
-10.58

>  <m_primary>  (31) 
energy

$$$$
31:0
     RDKit          3D

 56 58  0  0  0  0  0  0  0  0999 V2000
   59.9720   34.1900   47.4040 C   0  0  0  0  0  0  0  0  0  0  0  0
   59.9140   32.7260   47.2760 N   0  0  0  0  0  0  0  0  0  0  0  0
   61.2250   32.1300   47.5690 C   0  0  0  0  0  0  0  0  0  0  0  0
   61.2060   30.6720   47.1150 C   0  0  0  0  0  0  0  0  0  0  0  0
   59.9620   30.0050   47.5280 N   0  0  0  0  0  0  0  0  0  0  0  0
   59.7860   28.6060   47.2240 C   0  0  0  0  0  0  0  0  0  0  0  0
   60.2640   28.0700   46.0140 C   0  0  0  0  0  0  0  0  0  0  0  0
   60.0760   26.7180   45.7140 C   0  0  0  0  0  0  0  0  0  0  0  0
   59.3990   25.8800   46.6120 C   0  0  0  0  0  0  0  0  0  0  0  0
   59.2070   24.4520   46.2850 C   0  0  0  0  0  0  0  0  0  0  0  0
   60.0050   23.8940   45.4880 O   0  0  0  0  0  0  0  0  0  0  0  0
   58.1140   23.6890   46.8150 N   0  0  0  0  0  0  0  0  0  0  0  0
   56.7540   24.1930   46.9870 C   0  0  0  0  0  0  0  0  0  0  0  0
   56.1310   24.5110   45.6240 C   0  0  0  0  0  0  0  0  0  0  0  0
   55.1090   25.6250   45.6700 C   0  0  0  0  0  0  0  0  0  0  0  0
   53.8770   25.3620   45.6240 O   0  0  0  0  0  0  0  0  0  0  0  0
   55.5150   26.9950   45.7300 N   0  0  0  0  0  0  0  0  0  0  0  0
   56.9020   27.4350   45.8400 C   0  0  0  0  0  0  0  0  0  0  0  0
   57.3710   28.0270   44.5090 C   0  0  0  0  0  0  0  0  0  0  0  0
   57.3480   29.4990   44.5520 N   0  0  0  0  0  0  0  0  0  0  0  0
   58.5270   30.1900   44.4950 C   0  0  0  0  0  0  0  0  0  0  0  0
   58.5340   31.5840   44.5030 C   0  0  0  0  0  0  0  0  0  0  0  0
   57.3150   32.2550   44.5640 C   0  0  0  0  0  0  0  0  0  0  0  0
   57.2820   33.5130   44.5710 O   0  0  0  0  0  0  0  0  0  0  0  0
   56.1580   31.5460   44.6140 N   0  0  0  0  0  0  0  0  0  0  0  0
   56.1610   30.1880   44.6050 C   0  0  0  0  0  0  0  0  0  0  0  0
   55.0600   29.5730   44.6430 O   0  0  0  0  0  0  0  0  0  0  0  0
   58.9490   26.4040   47.8340 C   0  0  0  0  0  0  0  0  0  0  0  0
   59.1340   27.7560   48.1340 C   0  0  0  0  0  0  0  0  0  0  0  0
   59.0490   30.6680   48.4740 C   0  0  0  0  0  0  0  0  0  0  0  0
   58.8570   32.1680   48.1510 C   0  0  0  0  0  0  0  0  0  0  0  0
   59.9829   34.4648   48.4691 H   0  0  0  0  0  0  0  0  0  0  0  0
   60.8857   34.5645   46.9193 H   0  0  0  0  0  0  0  0  0  0  0  0
   59.0908   34.6356   46.9193 H   0  0  0  0  0  0  0  0  0  0  0  0
   62.0108   32.6771   47.0276 H   0  0  0  0  0  0  0  0  0  0  0  0
   61.4324   32.1865   48.6478 H   0  0  0  0  0  0  0  0  0  0  0  0
   61.2859   30.6361   46.0185 H   0  0  0  0  0  0  0  0  0  0  0  0
   62.0541   30.1497   47.5818 H   0  0  0  0  0  0  0  0  0  0  0  0
   60.7896   28.7199   45.2989 H   0  0  0  0  0  0  0  0  0  0  0  0
   60.4611   26.3089   44.7683 H   0  0  0  0  0  0  0  0  0  0  0  0
   56.1456   23.4306   47.4956 H   0  0  0  0  0  0  0  0  0  0  0  0
   56.7856   25.1122   47.5903 H   0  0  0  0  0  0  0  0  0  0  0  0
   56.9356   24.8056   44.9342 H   0  0  0  0  0  0  0  0  0  0  0  0
   55.6048   23.6044   45.2906 H   0  0  0  0  0  0  0  0  0  0  0  0
   56.9801   28.2001   46.6265 H   0  0  0  0  0  0  0  0  0  0  0  0
   57.5352   26.5722   46.0943 H   0  0  0  0  0  0  0  0  0  0  0  0
   58.3978   27.6885   44.3060 H   0  0  0  0  0  0  0  0  0  0  0  0
   56.6907   27.6877   43.7140 H   0  0  0  0  0  0  0  0  0  0  0  0
   59.4785   29.6406   44.4424 H   0  0  0  0  0  0  0  0  0  0  0  0
   59.4813   32.1417   44.4620 H   0  0  0  0  0  0  0  0  0  0  0  0
   58.4478   25.7464   48.5596 H   0  0  0  0  0  0  0  0  0  0  0  0
   58.7666   28.1583   49.0896 H   0  0  0  0  0  0  0  0  0  0  0  0
   58.0700   30.1685   48.4297 H   0  0  0  0  0  0  0  0  0  0  0  0
   59.4928   30.5941   49.4778 H   0  0  0  0  0  0  0  0  0  0  0  0
   57.8868   32.2941   47.6482 H   0  0  0  0  0  0  0  0  0  0  0  0
   58.9074   32.7126   49.1054 H   0  0  0  0  0  0  0  0  0  0  0  0
  1  2  1  0
  2  3  1  0
  3  4  1  0
  4  5  1  0
  5  6  1  0
  6  7  2  0
  7  8  1  0
  8  9  2  0
  9 10  1  0
 10 11  2  0
 10 12  1  0
 12 13  1  0
 13 14  1  0
 14 15  1  0
 15 16  2  0
 15 17  1  0
 17 18  1  0
 18 19  1  0
 19 20  1  0
 20 21  1  0
 21 22  2  0
 22 23  1  0
 23 24  2  0
 23 25  1  0
 25 26  1  0
 26 27  2  0
  9 28  1  0
 28 29  2  0
  5 30  1  0
 30 31  1  0
 31  2  1  0
 29  6  1  0
 26 20  1  0
  1 32  1  0
  1 33  1  0
  1 34  1  0
  3 35  1  0
  3 36  1  0
  4 37  1  0
  4 38  1  0
  7 39  1  0
  8 40  1  0
 13 41  1  0
 13 42  1  0
 14 43  1  0
 14 44  1  0
 18 45  1  0
 18 46  1  0
 19 47  1  0
 19 48  1  0
 21 49  1  0
 22 50  1  0
 28 51  1  0
 29 52  1  0
 30 53  1  0
 30 54  1  0
 31 55  1  0
 31 56  1  0
M  CHG  3  12  -1  17  -1  25  -1
M  END
>  <UniqueID>  (32) 
30

>  <SMILES>  (32) 
CN1CCN(c2ccc(C(=O)[N-]CCC(=O)[N-]CCn3ccc(=O)[n-]c3=O)cc2)CC1

>  <Energy>  (32) 
66.42668230892505

>  <Genealogy>  (32) 
CN1CCN(c2ccc(C(=O)[N-]CCC(=O)[N-]CCn3ccc(=O)[n-]c3=O)cc2)CC1 (protonated)
CN1CCN(c2ccc(C(=O)[N-]CCC(=O)[N-]CCn3ccc(=O)[n-]c3=O)cc2)CC1 (3D coordinates assigned)
CN1CCN(c2ccc(C(=O)[N-]CCC(=O)[N-]CCn3ccc(=O)[n-]c3=O)cc2)CC1 (nonaromatic ring conformer: 66.42668230892505 kcal/mol)

>  <smiles>  (32) 
CN1CCN(c2ccc(C(=O)NCCC(=O)NCCn3ccc(=O)[nH]c3=O)cc2)CC1

>  <score_type>  (32) 
oracle

>  <origin>  (32) 
adg

>  <m_score__min__energy>  (32) 
-13.83

>  <m_primary>  (32) 
energy

$$$$
32:0
     RDKit          3D

 48 51  0  0  0  0  0  0  0  0999 V2000
   55.1730   29.7970   43.7750 C   0  0  0  0  0  0  0  0  0  0  0  0
   56.1840   29.3290   44.5210 C   0  0  0  0  0  0  0  0  0  0  0  0
   55.9300   28.2130   45.2460 N   0  0  0  0  0  0  0  0  0  0  0  0
   56.9000   27.5150   45.8790 C   0  0  0  0  0  0  0  0  0  0  0  0
   56.5770   26.4940   46.5440 O   0  0  0  0  0  0  0  0  0  0  0  0
   58.2080   27.9010   45.7730 N   0  0  0  0  0  0  0  0  0  0  0  0
   59.2790   27.0820   46.3830 C   0  0  0  0  0  0  0  0  0  0  0  0
   59.7190   27.6840   47.6920 C   0  0  0  0  0  0  0  0  0  0  0  0
   59.4460   29.0320   47.9800 C   0  0  0  0  0  0  0  0  0  0  0  0
   59.8290   29.5840   49.2060 C   0  0  0  0  0  0  0  0  0  0  0  0
   60.4850   28.7950   50.1550 C   0  0  0  0  0  0  0  0  0  0  0  0
   60.7570   27.4520   49.8790 C   0  0  0  0  0  0  0  0  0  0  0  0
   60.3750   26.8970   48.6550 C   0  0  0  0  0  0  0  0  0  0  0  0
   58.5270   29.0420   45.0780 C   0  0  0  0  0  0  0  0  0  0  0  0
   59.7380   29.3970   44.9930 O   0  0  0  0  0  0  0  0  0  0  0  0
   57.5140   29.8480   44.4930 C   0  0  0  0  0  0  0  0  0  0  0  0
   57.8620   31.0580   43.9700 C   0  0  0  0  0  0  0  0  0  0  0  0
   58.2610   32.2610   44.7330 C   0  0  0  0  0  0  0  0  0  0  0  0
   57.5490   33.4630   44.6110 C   0  0  0  0  0  0  0  0  0  0  0  0
   57.9120   34.5720   45.3730 C   0  0  0  0  0  0  0  0  0  0  0  0
   58.9730   34.5030   46.2830 C   0  0  0  0  0  0  0  0  0  0  0  0
   59.2720   35.6600   47.0010 O   0  0  0  0  0  0  0  0  0  0  0  0
   59.6830   33.2840   46.4370 C   0  0  0  0  0  0  0  0  0  0  0  0
   60.7790   33.1240   47.3540 N   0  0  0  0  0  0  0  0  0  0  0  0
   61.0860   33.1550   48.7990 C   0  0  0  0  0  0  0  0  0  0  0  0
   62.5420   32.8640   48.6660 C   0  0  0  0  0  0  0  0  0  0  0  0
   62.2210   32.8350   47.2120 C   0  0  0  0  0  0  0  0  0  0  0  0
   59.3040   32.1730   45.6630 C   0  0  0  0  0  0  0  0  0  0  0  0
   55.3134   30.7000   43.1627 H   0  0  0  0  0  0  0  0  0  0  0  0
   54.2031   29.2780   43.7753 H   0  0  0  0  0  0  0  0  0  0  0  0
   58.9005   26.0646   46.5609 H   0  0  0  0  0  0  0  0  0  0  0  0
   60.1388   27.0508   45.6976 H   0  0  0  0  0  0  0  0  0  0  0  0
   58.9282   29.6562   47.2369 H   0  0  0  0  0  0  0  0  0  0  0  0
   59.6138   30.6405   49.4240 H   0  0  0  0  0  0  0  0  0  0  0  0
   60.7871   29.2308   51.1188 H   0  0  0  0  0  0  0  0  0  0  0  0
   61.2725   26.8312   50.6265 H   0  0  0  0  0  0  0  0  0  0  0  0
   60.5886   25.8388   48.4436 H   0  0  0  0  0  0  0  0  0  0  0  0
   57.8444   31.1486   42.8739 H   0  0  0  0  0  0  0  0  0  0  0  0
   56.7021   33.5307   43.9123 H   0  0  0  0  0  0  0  0  0  0  0  0
   57.3569   35.5146   45.2576 H   0  0  0  0  0  0  0  0  0  0  0  0
   58.5920   36.2180   47.4900 H   0  0  0  0  0  0  0  0  0  0  0  0
   60.8905   34.1380   49.2523 H   0  0  0  0  0  0  0  0  0  0  0  0
   60.5014   32.4851   49.4468 H   0  0  0  0  0  0  0  0  0  0  0  0
   63.2188   33.6694   48.9872 H   0  0  0  0  0  0  0  0  0  0  0  0
   63.0582   32.0516   49.1985 H   0  0  0  0  0  0  0  0  0  0  0  0
   62.7545   33.6125   46.6454 H   0  0  0  0  0  0  0  0  0  0  0  0
   62.4935   31.9230   46.6606 H   0  0  0  0  0  0  0  0  0  0  0  0
   59.8359   31.2186   45.7903 H   0  0  0  0  0  0  0  0  0  0  0  0
  1  2  2  0
  2  3  1  0
  3  4  1  0
  4  5  2  0
  4  6  1  0
  6  7  1  0
  7  8  1  0
  8  9  2  0
  9 10  1  0
 10 11  2  0
 11 12  1  0
 12 13  2  0
  6 14  1  0
 14 15  2  0
 14 16  1  0
 16 17  2  3
 17 18  1  0
 18 19  2  0
 19 20  1  0
 20 21  2  0
 21 22  1  0
 21 23  1  0
 23 24  1  0
 24 25  1  0
 25 26  1  0
 26 27  1  0
 23 28  2  0
 16  2  1  0
 28 18  1  0
 13  8  1  0
 27 24  1  0
  1 29  1  0
  1 30  1  0
  7 31  1  0
  7 32  1  0
  9 33  1  0
 10 34  1  0
 11 35  1  0
 12 36  1  0
 13 37  1  0
 17 38  1  0
 19 39  1  0
 20 40  1  0
 22 41  1  0
 25 42  1  0
 25 43  1  0
 26 44  1  0
 26 45  1  0
 27 46  1  0
 27 47  1  0
 28 48  1  0
M  CHG  1   3  -1
M  END
>  <UniqueID>  (33) 
31

>  <SMILES>  (33) 
C=c1[n-]c(=O)n(Cc2ccccc2)c(=O)c1=Cc1ccc(O)c(N2CCC2)c1

>  <Energy>  (33) 
124.79585515885299

>  <Genealogy>  (33) 
C=c1[n-]c(=O)n(Cc2ccccc2)c(=O)c1=Cc1ccc(O)c(N2CCC2)c1 (protonated)
C=c1[n-]c(=O)n(Cc2ccccc2)c(=O)c1=Cc1ccc(O)c(N2CCC2)c1 (3D coordinates assigned)
C=c1[n-]c(=O)n(Cc2ccccc2)c(=O)c1=Cc1ccc(O)c(N2CCC2)c1 (nonaromatic ring conformer: 124.79585515885299 kcal/mol)

>  <smiles>  (33) 
C=c1[nH]c(=O)n(Cc2ccccc2)c(=O)c1=Cc1ccc(O)c(N2CCC2)c1

>  <score_type>  (33) 
oracle

>  <origin>  (33) 
adg

>  <m_score__min__energy>  (33) 
-10.07

>  <m_primary>  (33) 
energy

$$$$
33:0
     RDKit          3D

 30 32  0  0  0  0  0  0  0  0999 V2000
   60.5110   34.2390   48.1920 C   0  0  0  0  0  0  0  0  0  0  0  0
   59.2660   34.4810   47.7760 C   0  0  0  0  0  0  0  0  0  0  0  0
   58.8930   34.4040   46.3210 C   0  0  0  0  0  0  0  0  0  0  0  0
   59.4690   33.2130   45.6930 N   0  0  0  0  0  0  0  0  0  0  0  0
   59.1960   31.9540   45.9160 C   0  0  0  0  0  0  0  0  0  0  0  0
   60.0870   31.0240   46.6360 C   0  0  0  0  0  0  0  0  0  0  0  0
   61.1680   31.4190   47.1500 O   0  0  0  0  0  0  0  0  0  0  0  0
   59.6870   29.6100   46.7660 C   0  0  0  0  0  0  0  0  0  0  0  0
   60.5430   28.7060   47.4210 C   0  0  0  0  0  0  0  0  0  0  0  0
   60.1910   27.3680   47.5620 C   0  0  0  0  0  0  0  0  0  0  0  0
   58.9810   26.9070   47.0550 C   0  0  0  0  0  0  0  0  0  0  0  0
   58.1060   27.7880   46.3970 C   0  0  0  0  0  0  0  0  0  0  0  0
   56.8840   27.3390   45.8840 C   0  0  0  0  0  0  0  0  0  0  0  0
   56.5380   26.1310   45.9990 O   0  0  0  0  0  0  0  0  0  0  0  0
   56.0600   28.2090   45.2560 N   0  0  0  0  0  0  0  0  0  0  0  0
   56.3840   29.5200   45.1050 C   0  0  0  0  0  0  0  0  0  0  0  0
   55.5650   30.2710   44.5060 O   0  0  0  0  0  0  0  0  0  0  0  0
   57.5780   30.0120   45.5910 N   0  0  0  0  0  0  0  0  0  0  0  0
   58.4470   29.1560   46.2400 C   0  0  0  0  0  0  0  0  0  0  0  0
   57.9210   31.4180   45.4190 C   0  0  0  0  0  0  0  0  0  0  0  0
   57.1320   32.2110   44.8330 O   0  0  0  0  0  0  0  0  0  0  0  0
   60.7553   34.3027   49.2626 H   0  0  0  0  0  0  0  0  0  0  0  0
   61.2927   33.9759   47.4642 H   0  0  0  0  0  0  0  0  0  0  0  0
   58.4944   34.7430   48.5149 H   0  0  0  0  0  0  0  0  0  0  0  0
   57.7973   34.3630   46.2324 H   0  0  0  0  0  0  0  0  0  0  0  0
   59.2882   35.2947   45.8107 H   0  0  0  0  0  0  0  0  0  0  0  0
   61.5018   29.0615   47.8263 H   0  0  0  0  0  0  0  0  0  0  0  0
   60.8713   26.6728   48.0757 H   0  0  0  0  0  0  0  0  0  0  0  0
   58.7075   25.8477   47.1695 H   0  0  0  0  0  0  0  0  0  0  0  0
   55.1490   27.8620   44.8760 H   0  0  0  0  0  0  0  0  0  0  0  0
  1  2  2  0
  2  3  1  0
  3  4  1  0
  4  5  2  3
  5  6  1  0
  6  7  2  0
  6  8  1  0
  8  9  1  0
  9 10  2  0
 10 11  1  0
 11 12  2  0
 12 13  1  0
 13 14  2  0
 13 15  1  0
 15 16  1  0
 16 17  2  0
 16 18  1  0
 18 19  1  0
 18 20  1  0
 20 21  2  0
 20  5  1  0
 19  8  2  0
 19 12  1  0
  1 22  1  0
  1 23  1  0
  2 24  1  0
  3 25  1  0
  3 26  1  0
  9 27  1  0
 10 28  1  0
 11 29  1  0
 15 30  1  0
M  END
>  <UniqueID>  (34) 
32

>  <SMILES>  (34) 
C=CCN=C1C(=O)c2cccc3c(=O)[nH]c(=O)n(c23)C1=O

>  <Energy>  (34) 
45.96505306362536

>  <Genealogy>  (34) 
C=CCN=C1C(=O)c2cccc3c(=O)[nH]c(=O)n(c23)C1=O (3D coordinates assigned)
C=CCN=C1C(=O)c2cccc3c(=O)[nH]c(=O)n(c23)C1=O (nonaromatic ring conformer: 45.96505306362536 kcal/mol)

>  <smiles>  (34) 
C=CCN=C1C(=O)c2cccc3c(=O)[nH]c(=O)n(c23)C1=O

>  <score_type>  (34) 
oracle

>  <origin>  (34) 
adg

>  <m_score__min__energy>  (34) 
-7.0199999999999996

>  <m_primary>  (34) 
energy

$$$$
34:0
     RDKit          3D

 49 52  0  0  0  0  0  0  0  0999 V2000
   55.4052   31.4442   43.9548 H   0  0  0  0  0  0  0  0  0  0  0  0
   55.8590   30.5300   44.3650 C   0  0  0  0  0  0  0  0  0  0  0  0
   55.1910   29.4210   44.7270 N   0  0  0  0  0  0  0  0  0  0  0  0
   56.1610   28.5890   45.1600 C   0  0  0  0  0  0  0  0  0  0  0  0
   55.8970   27.4020   45.6190 N   0  0  0  0  0  0  0  0  0  0  0  0
   56.7250   26.6520   46.5240 C   0  0  0  0  0  0  0  0  0  0  0  0
   56.2850   25.5630   46.9770 O   0  0  0  0  0  0  0  0  0  0  0  0
   58.0940   27.0890   46.8910 C   0  0  0  0  0  0  0  0  0  0  0  0
   59.2200   26.4000   46.4090 C   0  0  0  0  0  0  0  0  0  0  0  0
   59.0886   25.5302   45.7486 H   0  0  0  0  0  0  0  0  0  0  0  0
   60.5050   26.8150   46.7650 C   0  0  0  0  0  0  0  0  0  0  0  0
   61.3821   26.2795   46.3725 H   0  0  0  0  0  0  0  0  0  0  0  0
   60.6810   27.9080   47.6180 C   0  0  0  0  0  0  0  0  0  0  0  0
   61.6967   28.2358   47.8843 H   0  0  0  0  0  0  0  0  0  0  0  0
   59.5690   28.5900   48.1370 C   0  0  0  0  0  0  0  0  0  0  0  0
   59.7620   29.7580   49.0320 C   0  0  0  0  0  0  0  0  0  0  0  0
   60.1660   30.8490   48.5460 O   0  0  0  0  0  0  0  0  0  0  0  0
   59.4390   29.7100   50.4300 N   0  0  0  0  0  0  0  0  0  0  0  0
   58.5340   30.4270   51.0280 C   0  0  0  0  0  0  0  0  0  0  0  0
   57.4040   29.8550   51.5390 N   0  0  0  0  0  0  0  0  0  0  0  0
   56.4530   30.5870   52.1770 C   0  0  0  0  0  0  0  0  0  0  0  0
   55.5532   30.0936   52.5731 H   0  0  0  0  0  0  0  0  0  0  0  0
   56.6180   31.9670   52.3300 C   0  0  0  0  0  0  0  0  0  0  0  0
   55.8498   32.5657   52.8412 H   0  0  0  0  0  0  0  0  0  0  0  0
   57.7680   32.5760   51.8270 C   0  0  0  0  0  0  0  0  0  0  0  0
   57.9130   33.6603   51.9419 H   0  0  0  0  0  0  0  0  0  0  0  0
   58.7350   31.8050   51.1770 C   0  0  0  0  0  0  0  0  0  0  0  0
   59.6479   32.2770   50.7850 H   0  0  0  0  0  0  0  0  0  0  0  0
   58.2770   28.1780   47.7610 C   0  0  0  0  0  0  0  0  0  0  0  0
   57.4000   28.7143   48.1524 H   0  0  0  0  0  0  0  0  0  0  0  0
   57.4070   29.1130   45.1110 N   0  0  0  0  0  0  0  0  0  0  0  0
   57.2040   30.3360   44.5910 C   0  0  0  0  0  0  0  0  0  0  0  0
   58.2880   31.3420   44.3720 C   0  0  0  0  0  0  0  0  0  0  0  0
   58.2516   31.6952   43.3309 H   0  0  0  0  0  0  0  0  0  0  0  0
   59.2617   30.8717   44.5740 H   0  0  0  0  0  0  0  0  0  0  0  0
   58.1050   32.5040   45.2950 C   0  0  0  0  0  0  0  0  0  0  0  0
   56.9890   32.6870   45.8470 O   0  0  0  0  0  0  0  0  0  0  0  0
   59.1730   33.4460   45.4600 N   0  0  0  0  0  0  0  0  0  0  0  0
   59.9720   33.6490   46.6350 C   0  0  0  0  0  0  0  0  0  0  0  0
   61.3530   33.4280   46.5520 C   0  0  0  0  0  0  0  0  0  0  0  0
   61.8003   33.1224   45.5947 H   0  0  0  0  0  0  0  0  0  0  0  0
   62.1670   33.5930   47.6770 C   0  0  0  0  0  0  0  0  0  0  0  0
   63.2518   33.4283   47.5989 H   0  0  0  0  0  0  0  0  0  0  0  0
   61.6040   33.9670   48.9010 C   0  0  0  0  0  0  0  0  0  0  0  0
   62.6240   34.1800   50.3110 Cl  0  0  0  0  0  0  0  0  0  0  0  0
   60.2240   34.1660   48.9990 C   0  0  0  0  0  0  0  0  0  0  0  0
   59.7784   34.4532   49.9628 H   0  0  0  0  0  0  0  0  0  0  0  0
   59.4080   34.0010   47.8750 C   0  0  0  0  0  0  0  0  0  0  0  0
   58.3211   34.1470   47.9608 H   0  0  0  0  0  0  0  0  0  0  0  0
  1  2  1  0
  2  3  1  0
  3  4  1  0
  4  5  2  0
  5  6  1  0
  6  7  2  0
  6  8  1  0
  8  9  2  0
  9 10  1  0
  9 11  1  0
 11 12  1  0
 11 13  2  0
 13 14  1  0
 13 15  1  0
 15 16  1  0
 16 17  2  0
 16 18  1  0
 18 19  2  3
 19 20  1  0
 20 21  1  0
 21 22  1  0
 21 23  2  0
 23 24  1  0
 23 25  1  0
 25 26  1  0
 25 27  2  0
 27 28  1  0
 15 29  2  0
 29 30  1  0
  4 31  1  0
 31 32  1  0
 32 33  1  0
 33 34  1  0
 33 35  1  0
 33 36  1  0
 36 37  2  0
 36 38  1  0
 38 39  1  0
 39 40  2  0
 40 41  1  0
 40 42  1  0
 42 43  1  0
 42 44  2  0
 44 45  1  0
 44 46  1  0
 46 47  1  0
 46 48  2  0
 48 49  1  0
 32  2  2  0
 48 39  1  0
 29  8  1  0
 27 19  1  0
M  CHG  4   3  -1  20  -1  31  -1  38  -1
M  END
>  <UniqueID>  (35) 
33

>  <SMILES>  (35) 
O=C(Cc1c[n-]/c(=N/C(=O)c2cccc(C(=O)N=c3cccc[n-]3)c2)[n-]1)[N-]c1ccc(Cl)cc1

>  <Energy>  (35) 
98.30042799718305

>  <Genealogy>  (35) 
O=C(Cc1c[n-]c(=NC(=O)c2cccc(C(=O)N=c3cccc[n-]3)c2)[n-]1)[N-]c1ccc(Cl)cc1 (protonated)
O=C(Cc1c[n-]/c(=N/C(=O)c2cccc(C(=O)N=c3cccc[n-]3)c2)[n-]1)[N-]c1ccc(Cl)cc1 (cis-trans isomerization)
O=C(Cc1c[n-]/c(=N/C(=O)c2cccc(C(=O)N=c3cccc[n-]3)c2)[n-]1)[N-]c1ccc(Cl)cc1 (3D coordinates assigned)
O=C(Cc1c[n-]/c(=N/C(=O)c2cccc(C(=O)N=c3cccc[n-]3)c2)[n-]1)[N-]c1ccc(Cl)cc1 (optimized conformer: 98.30042799718305 kcal/mol)

>  <smiles>  (35) 
O=C(Cc1c[nH]c(=NC(=O)c2cccc(C(=O)N=c3cccc[nH]3)c2)[nH]1)Nc1ccc(Cl)cc1

>  <score_type>  (35) 
oracle

>  <origin>  (35) 
adg

>  <m_score__min__energy>  (35) 
-14.91

>  <m_primary>  (35) 
energy

$$$$
35:0
     RDKit          3D

 47 49  0  0  0  0  0  0  0  0999 V2000
   63.1430   33.5010   46.7830 C   0  0  0  0  0  0  0  0  0  0  0  0
   61.9680   34.0120   46.1610 O   0  0  0  0  0  0  0  0  0  0  0  0
   60.6620   33.7120   46.5720 C   0  0  0  0  0  0  0  0  0  0  0  0
   59.5480   33.8730   45.7260 C   0  0  0  0  0  0  0  0  0  0  0  0
   58.2670   33.5500   46.1820 C   0  0  0  0  0  0  0  0  0  0  0  0
   58.0820   33.0750   47.4820 C   0  0  0  0  0  0  0  0  0  0  0  0
   59.1810   32.9310   48.3470 C   0  0  0  0  0  0  0  0  0  0  0  0
   59.0240   32.4210   49.6820 N   0  0  0  0  0  0  0  0  0  0  0  0
   59.2000   33.2040   50.8720 C   0  0  0  0  0  0  0  0  0  0  0  0
   59.6740   34.3700   50.8060 O   0  0  0  0  0  0  0  0  0  0  0  0
   58.8180   32.6450   52.1350 N   0  0  0  0  0  0  0  0  0  0  0  0
   57.8590   31.6000   52.3550 C   0  0  0  0  0  0  0  0  0  0  0  0
   56.5320   31.8720   52.7350 C   0  0  0  0  0  0  0  0  0  0  0  0
   55.6350   30.8240   52.9630 C   0  0  0  0  0  0  0  0  0  0  0  0
   56.0510   29.4920   52.8220 C   0  0  0  0  0  0  0  0  0  0  0  0
   55.0940   28.3630   53.1040 C   0  0  0  0  0  0  0  0  0  0  0  0
   53.7440   28.8860   53.6140 C   0  0  0  0  0  0  0  0  0  0  0  0
   52.8340   29.1860   52.5060 N   0  0  0  0  0  0  0  0  0  0  0  0
   52.0900   30.4080   52.3600 C   0  0  0  0  0  0  0  0  0  0  0  0
   51.3690   30.9770   53.4240 C   0  0  0  0  0  0  0  0  0  0  0  0
   50.6740   32.1660   53.2010 C   0  0  0  0  0  0  0  0  0  0  0  0
   50.0210   32.7030   54.1340 O   0  0  0  0  0  0  0  0  0  0  0  0
   50.6990   32.7460   51.9730 N   0  0  0  0  0  0  0  0  0  0  0  0
   51.3930   32.1840   50.9510 C   0  0  0  0  0  0  0  0  0  0  0  0
   51.4020   32.7340   49.8200 O   0  0  0  0  0  0  0  0  0  0  0  0
   52.0770   31.0270   51.1500 N   0  0  0  0  0  0  0  0  0  0  0  0
   57.3840   29.2210   52.4760 C   0  0  0  0  0  0  0  0  0  0  0  0
   58.2800   30.2690   52.2500 C   0  0  0  0  0  0  0  0  0  0  0  0
   60.4680   33.2350   47.8740 C   0  0  0  0  0  0  0  0  0  0  0  0
   63.0302   33.5501   47.8761 H   0  0  0  0  0  0  0  0  0  0  0  0
   63.2950   32.4555   46.4766 H   0  0  0  0  0  0  0  0  0  0  0  0
   64.0113   34.1028   46.4766 H   0  0  0  0  0  0  0  0  0  0  0  0
   59.6863   34.2540   44.7034 H   0  0  0  0  0  0  0  0  0  0  0  0
   57.4012   33.6704   45.5143 H   0  0  0  0  0  0  0  0  0  0  0  0
   57.0723   32.8124   47.8307 H   0  0  0  0  0  0  0  0  0  0  0  0
   58.8630   31.3960   49.8040 H   0  0  0  0  0  0  0  0  0  0  0  0
   56.1987   32.9136   52.8532 H   0  0  0  0  0  0  0  0  0  0  0  0
   54.5977   31.0453   53.2545 H   0  0  0  0  0  0  0  0  0  0  0  0
   54.9300   27.7932   52.1775 H   0  0  0  0  0  0  0  0  0  0  0  0
   55.5338   27.7234   53.8834 H   0  0  0  0  0  0  0  0  0  0  0  0
   53.2842   28.1218   54.2579 H   0  0  0  0  0  0  0  0  0  0  0  0
   53.9225   29.8143   54.1765 H   0  0  0  0  0  0  0  0  0  0  0  0
   52.7390   28.4660   51.7550 H   0  0  0  0  0  0  0  0  0  0  0  0
   51.3530   30.4946   54.4125 H   0  0  0  0  0  0  0  0  0  0  0  0
   57.7247   28.1793   52.3824 H   0  0  0  0  0  0  0  0  0  0  0  0
   59.3248   30.0464   51.9874 H   0  0  0  0  0  0  0  0  0  0  0  0
   61.3357   33.0964   48.5357 H   0  0  0  0  0  0  0  0  0  0  0  0
  1  2  1  0
  2  3  1  0
  3  4  2  0
  4  5  1  0
  5  6  2  0
  6  7  1  0
  7  8  1  0
  8  9  1  0
  9 10  2  0
  9 11  1  0
 11 12  1  0
 12 13  2  0
 13 14  1  0
 14 15  2  0
 15 16  1  0
 16 17  1  0
 17 18  1  0
 18 19  1  0
 19 20  2  0
 20 21  1  0
 21 22  2  0
 21 23  1  0
 23 24  1  0
 24 25  2  0
 24 26  1  0
 15 27  1  0
 27 28  2  0
  7 29  2  0
 29  3  1  0
 28 12  1  0
 26 19  1  0
  1 30  1  0
  1 31  1  0
  1 32  1  0
  4 33  1  0
  5 34  1  0
  6 35  1  0
  8 36  1  0
 13 37  1  0
 14 38  1  0
 16 39  1  0
 16 40  1  0
 17 41  1  0
 17 42  1  0
 18 43  1  0
 20 44  1  0
 27 45  1  0
 28 46  1  0
 29 47  1  0
M  CHG  3  11  -1  23  -1  26  -1
M  END
>  <UniqueID>  (36) 
34

>  <SMILES>  (36) 
COc1cccc(NC(=O)[N-]c2ccc(CCNc3cc(=O)[n-]c(=O)[n-]3)cc2)c1

>  <Energy>  (36) 
53.297077797578126

>  <Genealogy>  (36) 
COc1cccc(NC(=O)[N-]c2ccc(CCNc3cc(=O)[n-]c(=O)[n-]3)cc2)c1 (protonated)
COc1cccc(NC(=O)[N-]c2ccc(CCNc3cc(=O)[n-]c(=O)[n-]3)cc2)c1 (3D coordinates assigned)
COc1cccc(NC(=O)[N-]c2ccc(CCNc3cc(=O)[n-]c(=O)[n-]3)cc2)c1 (optimized conformer: 53.297077797578126 kcal/mol)

>  <smiles>  (36) 
COc1cccc(NC(=O)Nc2ccc(CCNc3cc(=O)[nH]c(=O)[nH]3)cc2)c1

>  <score_type>  (36) 
oracle

>  <origin>  (36) 
adg

>  <m_score__min__energy>  (36) 
-14.699999999999999

>  <m_primary>  (36) 
energy

$$$$
36:0
     RDKit          3D

 61 64  0  0  0  0  0  0  0  0999 V2000
   69.0180   35.7590   51.3740 C   0  0  0  0  0  0  0  0  0  0  0  0
   68.6390   34.6000   50.5000 C   0  0  0  0  0  0  0  0  0  0  0  0
   69.3060   34.4000   49.4500 O   0  0  0  0  0  0  0  0  0  0  0  0
   67.4980   33.7050   50.8320 C   0  0  0  0  0  0  0  0  0  0  0  0
   66.3750   34.2170   51.5090 C   0  0  0  0  0  0  0  0  0  0  0  0
   65.2970   33.3880   51.8310 C   0  0  0  0  0  0  0  0  0  0  0  0
   65.3180   32.0280   51.4880 C   0  0  0  0  0  0  0  0  0  0  0  0
   64.2010   31.1760   51.8110 N   0  0  0  0  0  0  0  0  0  0  0  0
   64.3510   29.7150   51.7510 C   0  0  0  0  0  0  0  0  0  0  0  0
   62.9820   29.0280   51.7420 C   0  0  0  0  0  0  0  0  0  0  0  0
   62.0580   29.8100   50.9010 N   0  0  0  0  0  0  0  0  0  0  0  0
   60.8510   29.0620   50.4830 C   0  0  0  0  0  0  0  0  0  0  0  0
   59.5300   29.8320   50.6880 C   0  0  0  0  0  0  0  0  0  0  0  0
   59.1070   30.5070   49.4110 C   0  0  0  0  0  0  0  0  0  0  0  0
   58.4300   31.5240   49.4650 O   0  0  0  0  0  0  0  0  0  0  0  0
   59.4770   29.9310   48.0690 C   0  0  0  0  0  0  0  0  0  0  0  0
   58.5210   28.8130   47.6320 C   0  0  0  0  0  0  0  0  0  0  0  0
   57.8050   29.1520   46.3500 C   0  0  0  0  0  0  0  0  0  0  0  0
   56.9290   28.3510   45.6020 C   0  0  0  0  0  0  0  0  0  0  0  0
   56.4970   26.9730   45.9060 C   0  0  0  0  0  0  0  0  0  0  0  0
   57.3350   26.0500   46.0790 O   0  0  0  0  0  0  0  0  0  0  0  0
   55.1420   26.6800   45.9940 O   0  0  0  0  0  0  0  0  0  0  0  0
   56.5120   29.0160   44.4970 N   0  0  0  0  0  0  0  0  0  0  0  0
   57.1200   30.2130   44.5260 C   0  0  0  0  0  0  0  0  0  0  0  0
   57.0050   31.2390   43.5880 C   0  0  0  0  0  0  0  0  0  0  0  0
   57.7450   32.4150   43.8050 C   0  0  0  0  0  0  0  0  0  0  0  0
   58.5710   32.5420   44.9450 C   0  0  0  0  0  0  0  0  0  0  0  0
   59.5040   34.0040   45.1900 Cl  0  0  0  0  0  0  0  0  0  0  0  0
   58.6590   31.4910   45.8790 C   0  0  0  0  0  0  0  0  0  0  0  0
   57.9180   30.3330   45.6350 C   0  0  0  0  0  0  0  0  0  0  0  0
   61.7410   31.1380   51.4760 C   0  0  0  0  0  0  0  0  0  0  0  0
   62.9230   31.7500   52.2560 C   0  0  0  0  0  0  0  0  0  0  0  0
   66.4300   31.5130   50.8040 C   0  0  0  0  0  0  0  0  0  0  0  0
   67.5110   32.3410   50.4840 C   0  0  0  0  0  0  0  0  0  0  0  0
   68.9228   35.4680   52.4305 H   0  0  0  0  0  0  0  0  0  0  0  0
   70.0582   36.0502   51.1661 H   0  0  0  0  0  0  0  0  0  0  0  0
   68.3509   36.6085   51.1661 H   0  0  0  0  0  0  0  0  0  0  0  0
   66.3457   35.2808   51.7875 H   0  0  0  0  0  0  0  0  0  0  0  0
   64.4257   33.8050   52.3572 H   0  0  0  0  0  0  0  0  0  0  0  0
   64.8958   29.4457   50.8341 H   0  0  0  0  0  0  0  0  0  0  0  0
   64.9076   29.3808   52.6390 H   0  0  0  0  0  0  0  0  0  0  0  0
   63.0821   28.0117   51.3333 H   0  0  0  0  0  0  0  0  0  0  0  0
   62.5898   28.9676   52.7679 H   0  0  0  0  0  0  0  0  0  0  0  0
   60.9475   28.8201   49.4143 H   0  0  0  0  0  0  0  0  0  0  0  0
   60.7975   28.1658   51.1185 H   0  0  0  0  0  0  0  0  0  0  0  0
   58.7457   29.1273   51.0015 H   0  0  0  0  0  0  0  0  0  0  0  0
   59.6830   30.5994   51.4611 H   0  0  0  0  0  0  0  0  0  0  0  0
   59.4478   30.7349   47.3187 H   0  0  0  0  0  0  0  0  0  0  0  0
   60.4846   29.4981   48.1546 H   0  0  0  0  0  0  0  0  0  0  0  0
   59.0994   27.8894   47.4823 H   0  0  0  0  0  0  0  0  0  0  0  0
   57.7645   28.6852   48.4203 H   0  0  0  0  0  0  0  0  0  0  0  0
   55.8580   28.6690   43.7610 H   0  0  0  0  0  0  0  0  0  0  0  0
   56.3560   31.1316   42.7064 H   0  0  0  0  0  0  0  0  0  0  0  0
   57.6806   33.2419   43.0825 H   0  0  0  0  0  0  0  0  0  0  0  0
   59.2926   31.5800   46.7738 H   0  0  0  0  0  0  0  0  0  0  0  0
   61.4700   31.8200   50.6566 H   0  0  0  0  0  0  0  0  0  0  0  0
   60.9114   31.0020   52.1854 H   0  0  0  0  0  0  0  0  0  0  0  0
   62.9395   32.8372   52.0895 H   0  0  0  0  0  0  0  0  0  0  0  0
   62.7913   31.5259   53.3249 H   0  0  0  0  0  0  0  0  0  0  0  0
   66.4516   30.4511   50.5176 H   0  0  0  0  0  0  0  0  0  0  0  0
   68.3799   31.9222   49.9552 H   0  0  0  0  0  0  0  0  0  0  0  0
  1  2  1  0
  2  3  2  0
  2  4  1  0
  4  5  2  0
  5  6  1  0
  6  7  2  0
  7  8  1  0
  8  9  1  0
  9 10  1  0
 10 11  1  0
 11 12  1  0
 12 13  1  0
 13 14  1  0
 14 15  2  0
 14 16  1  0
 16 17  1  0
 17 18  1  0
 18 19  2  0
 19 20  1  0
 20 21  2  0
 20 22  1  0
 19 23  1  0
 23 24  1  0
 24 25  2  0
 25 26  1  0
 26 27  2  0
 27 28  1  0
 27 29  1  0
 29 30  2  0
 11 31  1  0
 31 32  1  0
  7 33  1  0
 33 34  2  0
 34  4  1  0
 32  8  1  0
 30 18  1  0
 30 24  1  0
  1 35  1  0
  1 36  1  0
  1 37  1  0
  5 38  1  0
  6 39  1  0
  9 40  1  0
  9 41  1  0
 10 42  1  0
 10 43  1  0
 12 44  1  0
 12 45  1  0
 13 46  1  0
 13 47  1  0
 16 48  1  0
 16 49  1  0
 17 50  1  0
 17 51  1  0
 23 52  1  0
 25 53  1  0
 26 54  1  0
 29 55  1  0
 31 56  1  0
 31 57  1  0
 32 58  1  0
 32 59  1  0
 33 60  1  0
 34 61  1  0
M  CHG  1  22  -1
M  END
>  <UniqueID>  (37) 
35

>  <SMILES>  (37) 
CC(=O)c1ccc(N2CCN(CCC(=O)CCc3c(C(=O)[O-])[nH]c4ccc(Cl)cc34)CC2)cc1

>  <Energy>  (37) 
102.95402334672764

>  <Genealogy>  (37) 
CC(=O)c1ccc(N2CCN(CCC(=O)CCc3c(C(=O)[O-])[nH]c4ccc(Cl)cc34)CC2)cc1 (protonated)
CC(=O)c1ccc(N2CCN(CCC(=O)CCc3c(C(=O)[O-])[nH]c4ccc(Cl)cc34)CC2)cc1 (3D coordinates assigned)
CC(=O)c1ccc(N2CCN(CCC(=O)CCc3c(C(=O)[O-])[nH]c4ccc(Cl)cc34)CC2)cc1 (nonaromatic ring conformer: 102.95402334672764 kcal/mol)

>  <smiles>  (37) 
CC(=O)c1ccc(N2CCN(CCC(=O)CCc3c(C(=O)O)[nH]c4ccc(Cl)cc34)CC2)cc1

>  <score_type>  (37) 
oracle

>  <origin>  (37) 
adg

>  <m_score__min__energy>  (37) 
-13.09

>  <m_primary>  (37) 
energy

$$$$
37:0
     RDKit          3D

 58 61  0  0  0  0  0  0  0  0999 V2000
   54.9900   22.1820   49.0810 C   0  0  0  0  0  0  0  0  0  0  0  0
   55.0510   22.5630   47.6590 N   0  0  0  0  0  0  0  0  0  0  0  0
   53.9100   22.5950   46.8990 C   0  0  0  0  0  0  0  0  0  0  0  0
   52.7920   22.2860   47.3980 O   0  0  0  0  0  0  0  0  0  0  0  0
   53.9730   22.9720   45.5600 C   0  0  0  0  0  0  0  0  0  0  0  0
   52.8280   22.9910   44.7700 O   0  0  0  0  0  0  0  0  0  0  0  0
   55.2000   23.3340   45.0210 C   0  0  0  0  0  0  0  0  0  0  0  0
   56.3220   23.3390   45.7950 N   0  0  0  0  0  0  0  0  0  0  0  0
   57.6080   23.7230   45.1870 C   0  0  0  0  0  0  0  0  0  0  0  0
   58.0010   25.1100   45.6240 C   0  0  0  0  0  0  0  0  0  0  0  0
   57.1230   26.1890   45.4460 C   0  0  0  0  0  0  0  0  0  0  0  0
   57.4840   27.4710   45.8650 C   0  0  0  0  0  0  0  0  0  0  0  0
   58.7240   27.6920   46.4940 C   0  0  0  0  0  0  0  0  0  0  0  0
   59.1340   29.0070   46.9020 N   0  0  0  0  0  0  0  0  0  0  0  0
   59.1910   29.4380   48.2760 C   0  0  0  0  0  0  0  0  0  0  0  0
   59.1180   28.5860   49.2040 O   0  0  0  0  0  0  0  0  0  0  0  0
   59.3380   30.8700   48.6300 C   0  0  0  0  0  0  0  0  0  0  0  0
   59.7830   31.2700   49.9020 C   0  0  0  0  0  0  0  0  0  0  0  0
   59.9230   32.6240   50.2080 C   0  0  0  0  0  0  0  0  0  0  0  0
   59.6180   33.5970   49.2550 C   0  0  0  0  0  0  0  0  0  0  0  0
   59.1570   33.2260   47.9800 C   0  0  0  0  0  0  0  0  0  0  0  0
   58.8330   34.2570   46.9660 C   0  0  0  0  0  0  0  0  0  0  0  0
   59.5450   35.2920   46.8730 O   0  0  0  0  0  0  0  0  0  0  0  0
   57.7410   34.0510   46.0580 N   0  0  0  0  0  0  0  0  0  0  0  0
   57.7140   33.1680   44.9260 C   0  0  0  0  0  0  0  0  0  0  0  0
   58.4330   33.4420   43.7500 C   0  0  0  0  0  0  0  0  0  0  0  0
   58.3480   32.5760   42.6580 C   0  0  0  0  0  0  0  0  0  0  0  0
   57.5370   31.4400   42.7210 C   0  0  0  0  0  0  0  0  0  0  0  0
   56.7940   31.1610   43.8820 C   0  0  0  0  0  0  0  0  0  0  0  0
   55.9190   29.9650   43.9450 C   0  0  0  0  0  0  0  0  0  0  0  0
   55.4190   29.4990   45.1960 N   0  0  0  0  0  0  0  0  0  0  0  0
   55.6070   29.3480   42.8910 O   0  0  0  0  0  0  0  0  0  0  0  0
   56.8860   32.0390   44.9780 C   0  0  0  0  0  0  0  0  0  0  0  0
   59.0150   31.8580   47.6800 C   0  0  0  0  0  0  0  0  0  0  0  0
   59.6040   26.6130   46.6610 C   0  0  0  0  0  0  0  0  0  0  0  0
   59.2420   25.3300   46.2390 C   0  0  0  0  0  0  0  0  0  0  0  0
   56.2490   22.9540   47.1120 C   0  0  0  0  0  0  0  0  0  0  0  0
   57.2940   22.9640   47.8260 O   0  0  0  0  0  0  0  0  0  0  0  0
   55.1330   23.0755   49.7065 H   0  0  0  0  0  0  0  0  0  0  0  0
   54.0089   21.7350   49.2991 H   0  0  0  0  0  0  0  0  0  0  0  0
   55.7826   21.4510   49.2991 H   0  0  0  0  0  0  0  0  0  0  0  0
   55.2674   23.6191   43.9607 H   0  0  0  0  0  0  0  0  0  0  0  0
   58.3847   23.0102   45.5009 H   0  0  0  0  0  0  0  0  0  0  0  0
   57.5036   23.7096   44.0920 H   0  0  0  0  0  0  0  0  0  0  0  0
   56.1436   26.0242   44.9732 H   0  0  0  0  0  0  0  0  0  0  0  0
   56.7955   28.3134   45.7027 H   0  0  0  0  0  0  0  0  0  0  0  0
   59.4250   29.6650   46.1480 H   0  0  0  0  0  0  0  0  0  0  0  0
   60.0224   30.5106   50.6610 H   0  0  0  0  0  0  0  0  0  0  0  0
   60.2755   32.9261   51.2052 H   0  0  0  0  0  0  0  0  0  0  0  0
   59.7392   34.6617   49.5034 H   0  0  0  0  0  0  0  0  0  0  0  0
   59.0642   34.3408   43.6897 H   0  0  0  0  0  0  0  0  0  0  0  0
   58.9220   32.7890   41.7442 H   0  0  0  0  0  0  0  0  0  0  0  0
   57.4794   30.7603   41.8580 H   0  0  0  0  0  0  0  0  0  0  0  0
   54.3960   29.3410   45.3400 H   0  0  0  0  0  0  0  0  0  0  0  0
   56.3005   31.8363   45.8869 H   0  0  0  0  0  0  0  0  0  0  0  0
   58.6462   31.5563   46.6886 H   0  0  0  0  0  0  0  0  0  0  0  0
   60.5865   26.7772   47.1275 H   0  0  0  0  0  0  0  0  0  0  0  0
   59.9344   24.4887   46.3902 H   0  0  0  0  0  0  0  0  0  0  0  0
  1  2  1  0
  2  3  1  0
  3  4  2  0
  3  5  1  0
  5  6  1  0
  5  7  2  0
  7  8  1  0
  8  9  1  0
  9 10  1  0
 10 11  2  0
 11 12  1  0
 12 13  2  0
 13 14  1  0
 14 15  1  0
 15 16  2  0
 15 17  1  0
 17 18  2  0
 18 19  1  0
 19 20  2  0
 20 21  1  0
 21 22  1  0
 22 23  2  0
 22 24  1  0
 24 25  1  0
 25 26  2  0
 26 27  1  0
 27 28  2  0
 28 29  1  0
 29 30  1  0
 30 31  1  0
 30 32  2  0
 29 33  2  0
 21 34  2  0
 13 35  1  0
 35 36  2  0
  8 37  1  0
 37 38  2  0
 37  2  1  0
 36 10  1  0
 34 17  1  0
 33 25  1  0
  1 39  1  0
  1 40  1  0
  1 41  1  0
  7 42  1  0
  9 43  1  0
  9 44  1  0
 11 45  1  0
 12 46  1  0
 14 47  1  0
 18 48  1  0
 19 49  1  0
 20 50  1  0
 26 51  1  0
 27 52  1  0
 28 53  1  0
 31 54  1  0
 33 55  1  0
 34 56  1  0
 35 57  1  0
 36 58  1  0
M  CHG  3   6  -1  24  -1  31  -1
M  END
>  <UniqueID>  (38) 
36

>  <SMILES>  (38) 
Cn1c(=O)c([O-])cn(Cc2ccc(NC(=O)c3cccc(C(=O)[N-]c4cccc(C([NH-])=O)c4)c3)cc2)c1=O

>  <Energy>  (38) 
80.17744892000802

>  <Genealogy>  (38) 
Cn1c(=O)c([O-])cn(Cc2ccc(NC(=O)c3cccc(C(=O)[N-]c4cccc(C([NH-])=O)c4)c3)cc2)c1=O (protonated)
Cn1c(=O)c([O-])cn(Cc2ccc(NC(=O)c3cccc(C(=O)[N-]c4cccc(C([NH-])=O)c4)c3)cc2)c1=O (3D coordinates assigned)
Cn1c(=O)c([O-])cn(Cc2ccc(NC(=O)c3cccc(C(=O)[N-]c4cccc(C([NH-])=O)c4)c3)cc2)c1=O (optimized conformer: 80.17744892000802 kcal/mol)

>  <smiles>  (38) 
Cn1c(=O)c(O)cn(Cc2ccc(NC(=O)c3cccc(C(=O)Nc4cccc(C(N)=O)c4)c3)cc2)c1=O

>  <score_type>  (38) 
oracle

>  <origin>  (38) 
adg

>  <m_score__min__energy>  (38) 
-15.710000000000001

>  <m_primary>  (38) 
energy

$$$$
38:0
     RDKit          3D

 45 47  0  0  0  0  0  0  0  0999 V2000
   56.6650   29.1200   52.7980 O   0  0  0  0  0  0  0  0  0  0  0  0
   55.7140   29.7890   52.3060 C   0  0  0  0  0  0  0  0  0  0  0  0
   54.3640   29.1600   52.1600 C   0  0  0  0  0  0  0  0  0  0  0  0
   53.3130   30.2350   52.1230 C   0  0  0  0  0  0  0  0  0  0  0  0
   52.9470   30.8300   50.9040 C   0  0  0  0  0  0  0  0  0  0  0  0
   51.9310   31.7890   50.8660 C   0  0  0  0  0  0  0  0  0  0  0  0
   51.2660   32.1540   52.0390 C   0  0  0  0  0  0  0  0  0  0  0  0
   50.2570   33.1080   51.9970 O   0  0  0  0  0  0  0  0  0  0  0  0
   51.6140   31.5570   53.2520 C   0  0  0  0  0  0  0  0  0  0  0  0
   52.6310   30.5970   53.2960 C   0  0  0  0  0  0  0  0  0  0  0  0
   55.9070   31.1620   51.9440 N   0  0  0  0  0  0  0  0  0  0  0  0
   57.0540   31.9410   52.4030 C   0  0  0  0  0  0  0  0  0  0  0  0
   57.7540   32.6040   51.2130 C   0  0  0  0  0  0  0  0  0  0  0  0
   58.2980   31.5820   50.2520 C   0  0  0  0  0  0  0  0  0  0  0  0
   58.5250   30.2980   50.5830 N   0  0  0  0  0  0  0  0  0  0  0  0
   59.0470   29.7700   49.4580 C   0  0  0  0  0  0  0  0  0  0  0  0
   59.3850   28.5630   49.3660 O   0  0  0  0  0  0  0  0  0  0  0  0
   59.1850   30.6410   48.4390 N   0  0  0  0  0  0  0  0  0  0  0  0
   58.7220   31.7950   48.9510 C   0  0  0  0  0  0  0  0  0  0  0  0
   58.6900   33.0760   48.1750 C   0  0  0  0  0  0  0  0  0  0  0  0
   59.6770   34.3590   49.0190 S   0  0  0  0  0  0  0  0  0  0  0  0
   61.2660   33.7310   48.4640 C   0  0  0  0  0  0  0  0  0  0  0  0
   61.6480   33.8810   47.1230 C   0  0  0  0  0  0  0  0  0  0  0  0
   62.8870   33.3980   46.6900 C   0  0  0  0  0  0  0  0  0  0  0  0
   63.7420   32.7590   47.5920 C   0  0  0  0  0  0  0  0  0  0  0  0
   63.3720   32.6220   48.9350 C   0  0  0  0  0  0  0  0  0  0  0  0
   62.1380   33.1130   49.3730 C   0  0  0  0  0  0  0  0  0  0  0  0
   54.3285   28.5799   51.2261 H   0  0  0  0  0  0  0  0  0  0  0  0
   54.1760   28.4918   53.0133 H   0  0  0  0  0  0  0  0  0  0  0  0
   53.4619   30.5400   49.9762 H   0  0  0  0  0  0  0  0  0  0  0  0
   51.6543   32.2575   49.9100 H   0  0  0  0  0  0  0  0  0  0  0  0
   51.0877   31.8418   54.1750 H   0  0  0  0  0  0  0  0  0  0  0  0
   52.8973   30.1242   54.2528 H   0  0  0  0  0  0  0  0  0  0  0  0
   55.1760   31.6440   51.3730 H   0  0  0  0  0  0  0  0  0  0  0  0
   56.7094   32.7183   53.1009 H   0  0  0  0  0  0  0  0  0  0  0  0
   57.7641   31.2701   52.9086 H   0  0  0  0  0  0  0  0  0  0  0  0
   57.0313   33.2426   50.6840 H   0  0  0  0  0  0  0  0  0  0  0  0
   58.5961   33.1989   51.5964 H   0  0  0  0  0  0  0  0  0  0  0  0
   59.1050   32.9018   47.1713 H   0  0  0  0  0  0  0  0  0  0  0  0
   57.6481   33.4206   48.0997 H   0  0  0  0  0  0  0  0  0  0  0  0
   60.9728   34.3788   46.4114 H   0  0  0  0  0  0  0  0  0  0  0  0
   63.1886   33.5211   45.6393 H   0  0  0  0  0  0  0  0  0  0  0  0
   64.7080   32.3628   47.2458 H   0  0  0  0  0  0  0  0  0  0  0  0
   64.0515   32.1284   49.6454 H   0  0  0  0  0  0  0  0  0  0  0  0
   61.8510   33.0147   50.4303 H   0  0  0  0  0  0  0  0  0  0  0  0
  1  2  2  0
  2  3  1  0
  3  4  1  0
  4  5  2  0
  5  6  1  0
  6  7  2  0
  7  8  1  0
  7  9  1  0
  9 10  2  0
  2 11  1  0
 11 12  1  0
 12 13  1  0
 13 14  1  0
 14 15  1  0
 15 16  1  0
 16 17  2  0
 16 18  1  0
 18 19  1  0
 19 20  1  0
 20 21  1  0
 21 22  1  0
 22 23  2  0
 23 24  1  0
 24 25  2  0
 25 26  1  0
 26 27  2  0
 10  4  1  0
 19 14  2  0
 27 22  1  0
  3 28  1  0
  3 29  1  0
  5 30  1  0
  6 31  1  0
  9 32  1  0
 10 33  1  0
 11 34  1  0
 12 35  1  0
 12 36  1  0
 13 37  1  0
 13 38  1  0
 20 39  1  0
 20 40  1  0
 23 41  1  0
 24 42  1  0
 25 43  1  0
 26 44  1  0
 27 45  1  0
M  CHG  3   8  -1  15  -1  18  -1
M  END
>  <UniqueID>  (39) 
37

>  <SMILES>  (39) 
O=C(Cc1ccc([O-])cc1)NCCc1[n-]c(=O)[n-]c1CSc1ccccc1

>  <Energy>  (39) 
59.74640007401064

>  <Genealogy>  (39) 
O=C(Cc1ccc([O-])cc1)NCCc1[n-]c(=O)[n-]c1CSc1ccccc1 (protonated)
O=C(Cc1ccc([O-])cc1)NCCc1[n-]c(=O)[n-]c1CSc1ccccc1 (3D coordinates assigned)
O=C(Cc1ccc([O-])cc1)NCCc1[n-]c(=O)[n-]c1CSc1ccccc1 (optimized conformer: 59.74640007401064 kcal/mol)

>  <smiles>  (39) 
O=C(Cc1ccc(O)cc1)NCCc1[nH]c(=O)[nH]c1CSc1ccccc1

>  <score_type>  (39) 
oracle

>  <origin>  (39) 
adg

>  <m_score__min__energy>  (39) 
-14.07

>  <m_primary>  (39) 
energy

$$$$
39:0
     RDKit          3D

 60 63  0  0  1  0  0  0  0  0999 V2000
   59.9990   34.7120   49.1650 O   0  0  0  0  0  0  0  0  0  0  0  0
   59.2790   33.8020   48.6250 C   0  0  0  0  0  0  0  0  0  0  0  0
   58.8630   32.7590   49.4890 N   0  0  0  0  0  0  0  0  0  0  0  0
   59.3040   32.8530   50.8800 C   0  0  0  0  0  0  0  0  0  0  0  0
   58.5970   31.9200   51.7720 C   0  0  0  0  0  0  0  0  0  0  0  0
   58.0730   32.4390   52.9630 C   0  0  0  0  0  0  0  0  0  0  0  0
   57.4120   31.5980   53.8390 C   0  0  0  0  0  0  0  0  0  0  0  0
   57.2780   30.2720   53.5330 C   0  0  0  0  0  0  0  0  0  0  0  0
   57.8050   29.7870   52.3480 C   0  0  0  0  0  0  0  0  0  0  0  0
   58.4740   30.5900   51.4420 C   0  0  0  0  0  0  0  0  0  0  0  0
   58.9890   30.0020   50.2180 C   0  0  0  0  0  0  0  0  0  0  0  0
   59.9520   29.1680   50.2820 O   0  0  0  0  0  0  0  0  0  0  0  0
   58.5140   30.2720   48.9520 O   0  0  0  0  0  0  0  0  0  0  0  0
   58.9260   33.8610   47.2110 C   0  0  0  0  0  0  0  0  0  0  0  0
   59.2860   34.9000   46.3800 C   0  0  0  0  0  0  0  0  0  0  0  0
   58.9040   34.8710   45.0550 C   0  0  0  0  0  0  0  0  0  0  0  0
   58.1710   33.8460   44.4970 C   0  0  0  0  0  0  0  0  0  0  0  0
   57.8130   32.8080   45.3330 C   0  0  0  0  0  0  0  0  0  0  0  0
   57.0540   31.6830   44.9020 N   0  0  0  0  0  0  0  0  0  0  0  0
   57.4530   30.4790   44.8850 C   0  0  0  0  0  0  0  0  0  0  0  0
   57.1460   29.7080   43.7840 C   0  0  0  0  0  0  0  0  0  0  0  0
   57.5960   28.3990   43.7990 C   0  0  0  0  0  0  0  0  0  0  0  0
   58.2910   27.9690   44.8660 N   0  0  0  0  0  0  0  0  0  0  0  0
   58.5730   28.7480   45.9280 C   0  0  0  0  0  0  0  0  0  0  0  0
   59.2390   28.2310   46.8820 N   0  0  0  0  0  0  0  0  0  0  0  0
   60.4290   28.8620   47.3570 C   0  0  0  0  0  0  0  0  0  0  0  0
   60.8430   30.0130   46.4370 C   0  0  0  0  0  0  0  0  0  0  0  0
   61.4940   31.0710   47.2600 C   0  0  0  0  0  0  0  0  0  0  0  0
   61.7790   30.7730   48.5940 C   0  0  0  0  0  0  0  0  0  0  0  0
   62.3800   31.6770   49.4390 C   0  0  0  0  0  0  0  0  0  0  0  0
   62.7100   32.9230   48.9420 C   0  0  0  0  0  0  0  0  0  0  0  0
   62.4310   33.2210   47.6260 C   0  0  0  0  0  0  0  0  0  0  0  0
   61.8240   32.3140   46.7650 C   0  0  0  0  0  0  0  0  0  0  0  0
   58.1500   30.0250   45.9410 N   0  0  0  0  0  0  0  0  0  0  0  0
   58.1940   32.8270   46.6750 C   0  0  0  0  0  0  0  0  0  0  0  0
   58.2840   31.9960   49.1280 H   0  0  0  0  0  0  0  0  0  0  0  0
   60.3804   32.6305   50.9222 H   0  0  0  0  0  0  0  0  0  0  0  0
   59.0814   33.8727   51.2274 H   0  0  0  0  0  0  0  0  0  0  0  0
   58.1866   33.5073   53.1994 H   0  0  0  0  0  0  0  0  0  0  0  0
   56.9960   31.9936   54.7773 H   0  0  0  0  0  0  0  0  0  0  0  0
   56.7547   29.5948   54.2240 H   0  0  0  0  0  0  0  0  0  0  0  0
   57.6866   28.7180   52.1174 H   0  0  0  0  0  0  0  0  0  0  0  0
   58.3160   29.4750   48.3350 H   0  0  0  0  0  0  0  0  0  0  0  0
   59.8727   35.7448   46.7700 H   0  0  0  0  0  0  0  0  0  0  0  0
   59.2002   35.7108   44.4092 H   0  0  0  0  0  0  0  0  0  0  0  0
   57.8847   33.8548   43.4350 H   0  0  0  0  0  0  0  0  0  0  0  0
   56.5727   30.1125   42.9368 H   0  0  0  0  0  0  0  0  0  0  0  0
   57.3890   27.7246   42.9550 H   0  0  0  0  0  0  0  0  0  0  0  0
   58.6130   26.9600   44.8270 H   0  0  0  0  0  0  0  0  0  0  0  0
   60.2484   29.2564   48.3679 H   0  0  0  0  0  0  0  0  0  0  0  0
   61.2385   28.1173   47.3734 H   0  0  0  0  0  0  0  0  0  0  0  0
   61.5507   29.6453   45.6794 H   0  0  0  0  0  0  0  0  0  0  0  0
   59.9581   30.4242   45.9292 H   0  0  0  0  0  0  0  0  0  0  0  0
   61.5133   29.7792   48.9835 H   0  0  0  0  0  0  0  0  0  0  0  0
   62.5928   31.4139   50.4857 H   0  0  0  0  0  0  0  0  0  0  0  0
   63.1909   33.6700   49.5906 H   0  0  0  0  0  0  0  0  0  0  0  0
   62.6992   34.2161   47.2414 H   0  0  0  0  0  0  0  0  0  0  0  0
   61.6132   32.5808   45.7189 H   0  0  0  0  0  0  0  0  0  0  0  0
   58.3580   30.6370   46.7470 H   0  0  0  0  0  0  0  0  0  0  0  0
   57.9000   31.9893   47.3245 H   0  0  0  0  0  0  0  0  0  0  0  0
  1  2  2  0
  2  3  1  0
  3  4  1  0
  4  5  1  0
  5  6  2  0
  6  7  1  0
  7  8  2  0
  8  9  1  0
  9 10  2  0
 10 11  1  0
 11 12  2  0
 11 13  1  0
  2 14  1  0
 14 15  2  0
 15 16  1  0
 16 17  2  0
 17 18  1  0
 18 19  1  0
 19 20  2  0
 20 21  1  0
 21 22  2  0
 22 23  1  0
 23 24  1  0
 24 25  2  0
 25 26  1  0
 26 27  1  0
 27 28  1  0
 28 29  2  0
 29 30  1  0
 30 31  2  0
 31 32  1  0
 32 33  2  0
 24 34  1  0
 18 35  2  0
 10  5  1  0
 35 14  1  0
 34 20  1  0
 33 28  1  0
  3 36  1  0
  4 37  1  0
  4 38  1  0
  6 39  1  0
  7 40  1  0
  8 41  1  0
  9 42  1  0
 13 43  1  0
 15 44  1  0
 16 45  1  0
 17 46  1  0
 21 47  1  0
 22 48  1  0
 23 49  1  0
 26 50  1  0
 26 51  1  0
 27 52  1  0
 27 53  1  0
 29 54  1  0
 30 55  1  0
 31 56  1  0
 32 57  1  0
 33 58  1  0
 34 59  1  0
 35 60  1  0
M  END
>  <smiles>  (40) 
O=C(NCc1ccccc1C(=O)O)c1cccc(N=c2cc[nH]c(=NCCc3ccccc3)[nH]2)c1

>  <score_type>  (40) 
oracle

>  <origin>  (40) 
adg

>  <m_score__min__energy>  (40) 
-10.49

>  <m_primary>  (40) 
energy

$$$$
40:0
     RDKit          3D

 50 53  0  0  0  0  0  0  0  0999 V2000
   57.9570   29.8780   50.6220 O   0  0  0  0  0  0  0  0  0  0  0  0
   58.6330   30.8830   50.9700 C   0  0  0  0  0  0  0  0  0  0  0  0
   59.0990   30.9940   52.3960 C   0  0  0  0  0  0  0  0  0  0  0  0
   58.5350   29.8660   53.2690 C   0  0  0  0  0  0  0  0  0  0  0  0
   57.0530   29.6910   53.1090 C   0  0  0  0  0  0  0  0  0  0  0  0
   56.4290   28.4980   53.1490 N   0  0  0  0  0  0  0  0  0  0  0  0
   55.1420   28.7470   52.9600 N   0  0  0  0  0  0  0  0  0  0  0  0
   55.0300   30.0820   52.8080 C   0  0  0  0  0  0  0  0  0  0  0  0
   53.7580   30.7980   52.5970 C   0  0  0  0  0  0  0  0  0  0  0  0
   53.4460   31.3500   51.3420 C   0  0  0  0  0  0  0  0  0  0  0  0
   52.2330   32.0190   51.1470 C   0  0  0  0  0  0  0  0  0  0  0  0
   51.3210   32.1380   52.2010 C   0  0  0  0  0  0  0  0  0  0  0  0
   50.1150   32.7990   52.0040 O   0  0  0  0  0  0  0  0  0  0  0  0
   51.6230   31.5910   53.4510 C   0  0  0  0  0  0  0  0  0  0  0  0
   52.8370   30.9240   53.6510 C   0  0  0  0  0  0  0  0  0  0  0  0
   56.2020   30.6650   52.8890 O   0  0  0  0  0  0  0  0  0  0  0  0
   59.0180   31.8790   50.0080 N   0  0  0  0  0  0  0  0  0  0  0  0
   58.6390   31.8530   48.6220 C   0  0  0  0  0  0  0  0  0  0  0  0
   58.8510   30.6870   47.8740 C   0  0  0  0  0  0  0  0  0  0  0  0
   58.5080   30.6410   46.5200 C   0  0  0  0  0  0  0  0  0  0  0  0
   57.9580   31.7660   45.8860 C   0  0  0  0  0  0  0  0  0  0  0  0
   57.6130   31.7150   44.4870 N   0  0  0  0  0  0  0  0  0  0  0  0
   58.0730   32.7670   43.5750 C   0  0  0  0  0  0  0  0  0  0  0  0
   58.1740   32.2140   42.1490 C   0  0  0  0  0  0  0  0  0  0  0  0
   56.9630   31.5900   41.7670 O   0  0  0  0  0  0  0  0  0  0  0  0
   56.7390   30.4500   42.5740 C   0  0  0  0  0  0  0  0  0  0  0  0
   56.5140   30.8530   44.0360 C   0  0  0  0  0  0  0  0  0  0  0  0
   57.7750   32.9450   46.6280 C   0  0  0  0  0  0  0  0  0  0  0  0
   58.1170   32.9900   47.9830 C   0  0  0  0  0  0  0  0  0  0  0  0
   60.1977   30.9446   52.4164 H   0  0  0  0  0  0  0  0  0  0  0  0
   58.7387   31.9516   52.7999 H   0  0  0  0  0  0  0  0  0  0  0  0
   59.0319   28.9248   52.9911 H   0  0  0  0  0  0  0  0  0  0  0  0
   58.7250   30.1338   54.3189 H   0  0  0  0  0  0  0  0  0  0  0  0
   54.1590   31.2554   50.5097 H   0  0  0  0  0  0  0  0  0  0  0  0
   51.9961   32.4519   50.1639 H   0  0  0  0  0  0  0  0  0  0  0  0
   50.9052   31.6849   54.2792 H   0  0  0  0  0  0  0  0  0  0  0  0
   53.0712   30.4967   54.6372 H   0  0  0  0  0  0  0  0  0  0  0  0
   59.7200   32.5950   50.3020 H   0  0  0  0  0  0  0  0  0  0  0  0
   59.2906   29.8014   48.3562 H   0  0  0  0  0  0  0  0  0  0  0  0
   58.6703   29.7162   45.9469 H   0  0  0  0  0  0  0  0  0  0  0  0
   57.3581   33.6029   43.5922 H   0  0  0  0  0  0  0  0  0  0  0  0
   59.0640   33.1184   43.8981 H   0  0  0  0  0  0  0  0  0  0  0  0
   58.3885   33.0406   41.4556 H   0  0  0  0  0  0  0  0  0  0  0  0
   58.9817   31.4681   42.1156 H   0  0  0  0  0  0  0  0  0  0  0  0
   55.8500   29.9168   42.2061 H   0  0  0  0  0  0  0  0  0  0  0  0
   57.6250   29.8004   42.5199 H   0  0  0  0  0  0  0  0  0  0  0  0
   55.5626   31.3983   44.1226 H   0  0  0  0  0  0  0  0  0  0  0  0
   56.4802   29.9489   44.6617 H   0  0  0  0  0  0  0  0  0  0  0  0
   57.3598   33.8389   46.1395 H   0  0  0  0  0  0  0  0  0  0  0  0
   57.9765   33.9209   48.5519 H   0  0  0  0  0  0  0  0  0  0  0  0
  1  2  2  0
  2  3  1  0
  3  4  1  0
  4  5  1  0
  5  6  2  0
  6  7  1  0
  7  8  2  0
  8  9  1  0
  9 10  2  0
 10 11  1  0
 11 12  2  0
 12 13  1  0
 12 14  1  0
 14 15  2  0
  8 16  1  0
  2 17  1  0
 17 18  1  0
 18 19  2  0
 19 20  1  0
 20 21  2  0
 21 22  1  0
 22 23  1  0
 23 24  1  0
 24 25  1  0
 25 26  1  0
 26 27  1  0
 21 28  1  0
 28 29  2  0
 16  5  1  0
 29 18  1  0
 15  9  1  0
 27 22  1  0
  3 30  1  0
  3 31  1  0
  4 32  1  0
  4 33  1  0
 10 34  1  0
 11 35  1  0
 14 36  1  0
 15 37  1  0
 17 38  1  0
 19 39  1  0
 20 40  1  0
 23 41  1  0
 23 42  1  0
 24 43  1  0
 24 44  1  0
 26 45  1  0
 26 46  1  0
 27 47  1  0
 27 48  1  0
 28 49  1  0
 29 50  1  0
M  CHG  1  13  -1
M  END
>  <UniqueID>  (41) 
38

>  <SMILES>  (41) 
O=C(CCc1nnc(-c2ccc([O-])cc2)o1)Nc1ccc(N2CCOCC2)cc1

>  <Energy>  (41) 
91.90996561538195

>  <Genealogy>  (41) 
O=C(CCc1nnc(-c2ccc([O-])cc2)o1)Nc1ccc(N2CCOCC2)cc1 (protonated)
O=C(CCc1nnc(-c2ccc([O-])cc2)o1)Nc1ccc(N2CCOCC2)cc1 (3D coordinates assigned)
O=C(CCc1nnc(-c2ccc([O-])cc2)o1)Nc1ccc(N2CCOCC2)cc1 (nonaromatic ring conformer: 91.90996561538195 kcal/mol)

>  <smiles>  (41) 
O=C(CCc1nnc(-c2ccc(O)cc2)o1)Nc1ccc(N2CCOCC2)cc1

>  <score_type>  (41) 
oracle

>  <origin>  (41) 
adg

>  <m_score__min__energy>  (41) 
-11.83

>  <m_primary>  (41) 
energy

$$$$
41:0
     RDKit          3D

 38 40  0  0  0  0  0  0  0  0999 V2000
   56.6400   23.4780   43.3720 C   0  0  0  0  0  0  0  0  0  0  0  0
   56.2360   22.8600   44.6780 C   0  0  0  0  0  0  0  0  0  0  0  0
   55.9830   21.4840   44.8030 C   0  0  0  0  0  0  0  0  0  0  0  0
   55.5790   21.1010   46.0740 C   0  0  0  0  0  0  0  0  0  0  0  0
   55.5460   22.4680   47.0490 S   0  0  0  0  0  0  0  0  0  0  0  0
   56.0620   23.5590   45.8770 C   0  0  0  0  0  0  0  0  0  0  0  0
   56.2380   25.0040   46.1200 C   0  0  0  0  0  0  0  0  0  0  0  0
   55.2410   25.7670   46.0130 O   0  0  0  0  0  0  0  0  0  0  0  0
   57.5120   25.5760   46.4430 N   0  0  0  0  0  0  0  0  0  0  0  0
   58.0490   26.6050   45.8550 C   0  0  0  0  0  0  0  0  0  0  0  0
   57.3290   27.4750   45.1150 N   0  0  0  0  0  0  0  0  0  0  0  0
   58.0930   28.4860   44.6170 C   0  0  0  0  0  0  0  0  0  0  0  0
   57.5080   29.6000   43.8040 C   0  0  0  0  0  0  0  0  0  0  0  0
   56.3090   30.1620   44.4970 C   0  0  0  0  0  0  0  0  0  0  0  0
   55.3850   29.3880   44.8670 O   0  0  0  0  0  0  0  0  0  0  0  0
   56.2760   31.5560   44.8250 N   0  0  0  0  0  0  0  0  0  0  0  0
   57.3840   32.3590   45.2590 C   0  0  0  0  0  0  0  0  0  0  0  0
   57.5090   33.7160   44.9070 C   0  0  0  0  0  0  0  0  0  0  0  0
   58.6160   34.4540   45.3350 C   0  0  0  0  0  0  0  0  0  0  0  0
   59.6120   33.8450   46.1040 C   0  0  0  0  0  0  0  0  0  0  0  0
   59.5060   32.4920   46.4380 C   0  0  0  0  0  0  0  0  0  0  0  0
   60.8740   31.6540   47.4750 Br  0  0  0  0  0  0  0  0  0  0  0  0
   58.3990   31.7510   46.0090 C   0  0  0  0  0  0  0  0  0  0  0  0
   59.4370   28.4400   44.9840 C   0  0  0  0  0  0  0  0  0  0  0  0
   59.6680   27.0770   45.9480 S   0  0  0  0  0  0  0  0  0  0  0  0
   57.2327   24.3847   43.5632 H   0  0  0  0  0  0  0  0  0  0  0  0
   57.2435   22.7598   42.7976 H   0  0  0  0  0  0  0  0  0  0  0  0
   55.7400   23.7427   42.7976 H   0  0  0  0  0  0  0  0  0  0  0  0
   56.0949   20.7749   43.9695 H   0  0  0  0  0  0  0  0  0  0  0  0
   55.3242   20.0782   46.3887 H   0  0  0  0  0  0  0  0  0  0  0  0
   56.3010   27.3830   44.9480 H   0  0  0  0  0  0  0  0  0  0  0  0
   58.2603   30.3924   43.6769 H   0  0  0  0  0  0  0  0  0  0  0  0
   57.2074   29.2104   42.8202 H   0  0  0  0  0  0  0  0  0  0  0  0
   56.7332   34.1971   44.2933 H   0  0  0  0  0  0  0  0  0  0  0  0
   58.7038   35.5170   45.0660 H   0  0  0  0  0  0  0  0  0  0  0  0
   60.4784   34.4302   46.4459 H   0  0  0  0  0  0  0  0  0  0  0  0
   58.3254   30.6832   46.2626 H   0  0  0  0  0  0  0  0  0  0  0  0
   60.2112   29.1661   44.6951 H   0  0  0  0  0  0  0  0  0  0  0  0
  1  2  1  0
  2  3  1  0
  3  4  2  0
  4  5  1  0
  5  6  1  0
  6  7  1  0
  7  8  2  0
  7  9  1  0
  9 10  2  3
 10 11  1  0
 11 12  1  0
 12 13  1  0
 13 14  1  0
 14 15  2  0
 14 16  1  0
 16 17  1  0
 17 18  2  0
 18 19  1  0
 19 20  2  0
 20 21  1  0
 21 22  1  0
 21 23  2  0
 12 24  2  0
 24 25  1  0
  6  2  2  0
 25 10  1  0
 23 17  1  0
  1 26  1  0
  1 27  1  0
  1 28  1  0
  3 29  1  0
  4 30  1  0
 11 31  1  0
 13 32  1  0
 13 33  1  0
 18 34  1  0
 19 35  1  0
 20 36  1  0
 23 37  1  0
 24 38  1  0
M  CHG  1  16  -1
M  END
>  <UniqueID>  (42) 
39

>  <SMILES>  (42) 
Cc1ccsc1C(=O)N=c1[nH]c(CC(=O)[N-]c2cccc(Br)c2)cs1

>  <Energy>  (42) 
103.9607691895269

>  <Genealogy>  (42) 
Cc1ccsc1C(=O)N=c1[nH]c(CC(=O)[N-]c2cccc(Br)c2)cs1 (protonated)
Cc1ccsc1C(=O)N=c1[nH]c(CC(=O)[N-]c2cccc(Br)c2)cs1 (3D coordinates assigned)
Cc1ccsc1C(=O)N=c1[nH]c(CC(=O)[N-]c2cccc(Br)c2)cs1 (optimized conformer: 103.9607691895269 kcal/mol)

>  <smiles>  (42) 
Cc1ccsc1C(=O)N=c1[nH]c(CC(=O)Nc2cccc(Br)c2)cs1

>  <score_type>  (42) 
oracle

>  <origin>  (42) 
adg

>  <m_score__min__energy>  (42) 
-10.98

>  <m_primary>  (42) 
energy

$$$$
42:0
     RDKit          3D

 58 62  0  0  0  0  0  0  0  0999 V2000
   62.6220   30.7560   50.4820 C   0  0  0  0  0  0  0  0  0  0  0  0
   61.4270   30.2080   49.7520 C   0  0  0  0  0  0  0  0  0  0  0  0
   61.4950   30.0290   48.3980 N   0  0  0  0  0  0  0  0  0  0  0  0
   60.4350   29.5620   47.6790 C   0  0  0  0  0  0  0  0  0  0  0  0
   60.5130   29.4550   46.2830 C   0  0  0  0  0  0  0  0  0  0  0  0
   59.4090   29.0230   45.5490 C   0  0  0  0  0  0  0  0  0  0  0  0
   58.2150   28.6650   46.1980 C   0  0  0  0  0  0  0  0  0  0  0  0
   57.0250   28.2930   45.4070 C   0  0  0  0  0  0  0  0  0  0  0  0
   56.7370   27.0780   45.2470 O   0  0  0  0  0  0  0  0  0  0  0  0
   56.2020   29.2950   44.7940 N   0  0  0  0  0  0  0  0  0  0  0  0
   56.7170   30.4610   44.1310 C   0  0  0  0  0  0  0  0  0  0  0  0
   56.7640   30.4940   42.7330 C   0  0  0  0  0  0  0  0  0  0  0  0
   57.3160   31.5970   42.0730 C   0  0  0  0  0  0  0  0  0  0  0  0
   57.8100   32.6790   42.8050 C   0  0  0  0  0  0  0  0  0  0  0  0
   57.7340   32.6710   44.2040 C   0  0  0  0  0  0  0  0  0  0  0  0
   58.2630   33.7970   44.9880 C   0  0  0  0  0  0  0  0  0  0  0  0
   58.1890   34.9560   44.4940 O   0  0  0  0  0  0  0  0  0  0  0  0
   58.8070   33.6060   46.3130 N   0  0  0  0  0  0  0  0  0  0  0  0
   58.9530   32.2600   46.8880 C   0  0  0  0  0  0  0  0  0  0  0  0
   58.8700   32.3230   48.4150 C   0  0  0  0  0  0  0  0  0  0  0  0
   59.7580   33.2950   48.9310 O   0  0  0  0  0  0  0  0  0  0  0  0
   59.3470   34.5780   48.5060 C   0  0  0  0  0  0  0  0  0  0  0  0
   59.4930   34.7160   46.9900 C   0  0  0  0  0  0  0  0  0  0  0  0
   57.1750   31.5690   44.8630 C   0  0  0  0  0  0  0  0  0  0  0  0
   58.1420   28.7340   47.5970 C   0  0  0  0  0  0  0  0  0  0  0  0
   59.2390   29.2050   48.3370 C   0  0  0  0  0  0  0  0  0  0  0  0
   59.1560   29.3650   49.7220 C   0  0  0  0  0  0  0  0  0  0  0  0
   60.2310   29.9050   50.4350 C   0  0  0  0  0  0  0  0  0  0  0  0
   60.0420   30.1760   52.2060 S   0  0  0  0  0  0  0  0  0  0  0  0
   58.2750   30.4800   52.0890 C   0  0  0  0  0  0  0  0  0  0  0  0
   57.3510   29.5060   52.0030 N   0  0  0  0  0  0  0  0  0  0  0  0
   56.1850   30.1390   51.9560 N   0  0  0  0  0  0  0  0  0  0  0  0
   56.3760   31.4490   52.0170 N   0  0  0  0  0  0  0  0  0  0  0  0
   57.6730   31.6820   52.1130 N   0  0  0  0  0  0  0  0  0  0  0  0
   58.2670   33.0090   52.1750 C   0  0  0  0  0  0  0  0  0  0  0  0
   62.4557   30.6798   51.5667 H   0  0  0  0  0  0  0  0  0  0  0  0
   63.5166   30.1782   50.2067 H   0  0  0  0  0  0  0  0  0  0  0  0
   62.7678   31.8110   50.2067 H   0  0  0  0  0  0  0  0  0  0  0  0
   62.3780   30.2840   47.8960 H   0  0  0  0  0  0  0  0  0  0  0  0
   61.4486   29.7128   45.7651 H   0  0  0  0  0  0  0  0  0  0  0  0
   59.4732   28.9619   44.4526 H   0  0  0  0  0  0  0  0  0  0  0  0
   56.3656   29.6499   42.1510 H   0  0  0  0  0  0  0  0  0  0  0  0
   57.3611   31.6122   40.9740 H   0  0  0  0  0  0  0  0  0  0  0  0
   58.2586   33.5372   42.2833 H   0  0  0  0  0  0  0  0  0  0  0  0
   58.1486   31.6135   46.5072 H   0  0  0  0  0  0  0  0  0  0  0  0
   59.9329   31.8519   46.5994 H   0  0  0  0  0  0  0  0  0  0  0  0
   57.8423   32.5825   48.7090 H   0  0  0  0  0  0  0  0  0  0  0  0
   59.1508   31.3404   48.8221 H   0  0  0  0  0  0  0  0  0  0  0  0
   58.2933   34.7301   48.7829 H   0  0  0  0  0  0  0  0  0  0  0  0
   59.9816   35.3329   48.9933 H   0  0  0  0  0  0  0  0  0  0  0  0
   59.0489   35.6692   46.6671 H   0  0  0  0  0  0  0  0  0  0  0  0
   60.5610   34.6926   46.7277 H   0  0  0  0  0  0  0  0  0  0  0  0
   57.0941   31.5711   45.9600 H   0  0  0  0  0  0  0  0  0  0  0  0
   57.2244   28.4188   48.1153 H   0  0  0  0  0  0  0  0  0  0  0  0
   58.2412   29.0650   50.2542 H   0  0  0  0  0  0  0  0  0  0  0  0
   58.3986   33.3030   53.2268 H   0  0  0  0  0  0  0  0  0  0  0  0
   59.2455   32.9966   51.6725 H   0  0  0  0  0  0  0  0  0  0  0  0
   57.6059   33.7305   51.6725 H   0  0  0  0  0  0  0  0  0  0  0  0
  1  2  1  0
  2  3  2  0
  3  4  1  0
  4  5  2  0
  5  6  1  0
  6  7  2  0
  7  8  1  0
  8  9  2  0
  8 10  1  0
 10 11  1  0
 11 12  2  0
 12 13  1  0
 13 14  2  0
 14 15  1  0
 15 16  1  0
 16 17  2  0
 16 18  1  0
 18 19  1  0
 19 20  1  0
 20 21  1  0
 21 22  1  0
 22 23  1  0
 15 24  2  0
  7 25  1  0
 25 26  2  0
 26 27  1  0
 27 28  2  0
 28 29  1  0
 29 30  1  0
 30 31  2  0
 31 32  1  0
 32 33  2  0
 33 34  1  0
 34 35  1  0
 28  2  1  0
 34 30  1  0
 26  4  1  0
 24 11  1  0
 23 18  1  0
  1 36  1  0
  1 37  1  0
  1 38  1  0
  3 39  1  0
  5 40  1  0
  6 41  1  0
 12 42  1  0
 13 43  1  0
 14 44  1  0
 19 45  1  0
 19 46  1  0
 20 47  1  0
 20 48  1  0
 22 49  1  0
 22 50  1  0
 23 51  1  0
 23 52  1  0
 24 53  1  0
 25 54  1  0
 27 55  1  0
 35 56  1  0
 35 57  1  0
 35 58  1  0
M  CHG  2   3   1  10  -1
M  END
>  <UniqueID>  (43) 
40

>  <SMILES>  (43) 
Cc1[nH+]c2ccc(C(=O)[N-]c3cccc(C(=O)N4CCOCC4)c3)cc2cc1Sc1nnnn1C

>  <Energy>  (43) 
114.4869000562889

>  <Genealogy>  (43) 
Cc1[nH+]c2ccc(C(=O)[N-]c3cccc(C(=O)N4CCOCC4)c3)cc2cc1Sc1nnnn1C (protonated)
Cc1[nH+]c2ccc(C(=O)[N-]c3cccc(C(=O)N4CCOCC4)c3)cc2cc1Sc1nnnn1C (3D coordinates assigned)
Cc1[nH+]c2ccc(C(=O)[N-]c3cccc(C(=O)N4CCOCC4)c3)cc2cc1Sc1nnnn1C (nonaromatic ring conformer: 114.4869000562889 kcal/mol)

>  <smiles>  (43) 
Cc1nc2ccc(C(=O)Nc3cccc(C(=O)N4CCOCC4)c3)cc2cc1Sc1nnnn1C

>  <score_type>  (43) 
oracle

>  <origin>  (43) 
adg

>  <m_score__min__energy>  (43) 
-11.109999999999999

>  <m_primary>  (43) 
energy

$$$$
43:0
     RDKit          3D

 58 61  0  0  0  0  0  0  0  0999 V2000
   56.2250   23.9930   43.3730 C   0  0  0  0  0  0  0  0  0  0  0  0
   56.2630   22.5170   43.7990 C   0  0  1  0  0  0  0  0  0  0  0  0
   57.6400   21.8940   43.4270 C   0  0  0  0  0  0  0  0  0  0  0  0
   58.5730   21.8400   44.6360 C   0  0  0  0  0  0  0  0  0  0  0  0
   57.9580   20.9990   45.7650 C   0  0  0  0  0  0  0  0  0  0  0  0
   56.4200   21.0920   45.8020 C   0  0  0  0  0  0  0  0  0  0  0  0
   55.9720   22.3880   45.2590 N   0  0  0  0  0  0  0  0  0  0  0  0
   54.5800   22.7220   45.6580 C   0  0  0  0  0  0  0  0  0  0  0  0
   54.2670   22.4670   47.1440 C   0  0  0  0  0  0  0  0  0  0  0  0
   55.0410   23.3580   48.0060 N   0  0  0  0  0  0  0  0  0  0  0  0
   56.4340   23.6400   47.8170 C   0  0  0  0  0  0  0  0  0  0  0  0
   57.3090   22.8480   48.2740 O   0  0  0  0  0  0  0  0  0  0  0  0
   56.8500   24.8410   47.0540 C   0  0  0  0  0  0  0  0  0  0  0  0
   58.1970   25.2420   47.0250 C   0  0  0  0  0  0  0  0  0  0  0  0
   58.5720   26.4220   46.3740 C   0  0  0  0  0  0  0  0  0  0  0  0
   57.6140   27.2250   45.7450 C   0  0  0  0  0  0  0  0  0  0  0  0
   58.0470   28.4530   45.1430 N   0  0  0  0  0  0  0  0  0  0  0  0
   57.3400   29.7000   45.0810 C   0  0  0  0  0  0  0  0  0  0  0  0
   56.1050   29.7290   44.8280 O   0  0  0  0  0  0  0  0  0  0  0  0
   58.0310   30.9190   45.3860 N   0  0  0  0  0  0  0  0  0  0  0  0
   59.3620   30.9510   45.9870 C   0  0  0  0  0  0  0  0  0  0  0  0
   59.5120   32.3710   46.3850 C   0  0  0  0  0  0  0  0  0  0  0  0
   60.5770   32.9560   47.0680 C   0  0  0  0  0  0  0  0  0  0  0  0
   60.4890   34.3170   47.4080 C   0  0  0  0  0  0  0  0  0  0  0  0
   59.3490   35.0640   47.0530 C   0  0  0  0  0  0  0  0  0  0  0  0
   58.2900   34.4550   46.3550 C   0  0  0  0  0  0  0  0  0  0  0  0
   58.3970   33.0990   46.0330 C   0  0  0  0  0  0  0  0  0  0  0  0
   57.3930   32.2370   45.3690 C   0  0  0  0  0  0  0  0  0  0  0  0
   56.2770   26.7940   45.7110 C   0  0  0  0  0  0  0  0  0  0  0  0
   55.8980   25.6220   46.3720 C   0  0  0  0  0  0  0  0  0  0  0  0
   56.2085   24.6326   44.2678 H   0  0  0  0  0  0  0  0  0  0  0  0
   57.1175   24.2246   42.7731 H   0  0  0  0  0  0  0  0  0  0  0  0
   55.3218   24.1784   42.7731 H   0  0  0  0  0  0  0  0  0  0  0  0
   55.4827   21.9611   43.2585 H   0  0  0  0  0  0  0  0  0  0  0  0
   57.4808   20.8722   43.0520 H   0  0  0  0  0  0  0  0  0  0  0  0
   58.1081   22.5244   42.6566 H   0  0  0  0  0  0  0  0  0  0  0  0
   59.5302   21.3909   44.3326 H   0  0  0  0  0  0  0  0  0  0  0  0
   58.7296   22.8642   45.0055 H   0  0  0  0  0  0  0  0  0  0  0  0
   58.2440   19.9472   45.6169 H   0  0  0  0  0  0  0  0  0  0  0  0
   58.3389   21.3921   46.7191 H   0  0  0  0  0  0  0  0  0  0  0  0
   55.9927   20.2782   45.1977 H   0  0  0  0  0  0  0  0  0  0  0  0
   56.0814   21.0049   46.8450 H   0  0  0  0  0  0  0  0  0  0  0  0
   54.4080   23.7880   45.4479 H   0  0  0  0  0  0  0  0  0  0  0  0
   53.9195   22.0596   45.0793 H   0  0  0  0  0  0  0  0  0  0  0  0
   53.1949   22.6392   47.3198 H   0  0  0  0  0  0  0  0  0  0  0  0
   54.5366   21.4279   47.3842 H   0  0  0  0  0  0  0  0  0  0  0  0
   58.9616   24.6235   47.5177 H   0  0  0  0  0  0  0  0  0  0  0  0
   59.6303   26.7216   46.3564 H   0  0  0  0  0  0  0  0  0  0  0  0
   59.4171   30.2868   46.8621 H   0  0  0  0  0  0  0  0  0  0  0  0
   60.1541   30.6047   45.3068 H   0  0  0  0  0  0  0  0  0  0  0  0
   61.4662   32.3659   47.3349 H   0  0  0  0  0  0  0  0  0  0  0  0
   61.3132   34.8003   47.9531 H   0  0  0  0  0  0  0  0  0  0  0  0
   59.2863   36.1286   47.3227 H   0  0  0  0  0  0  0  0  0  0  0  0
   57.3985   35.0326   46.0693 H   0  0  0  0  0  0  0  0  0  0  0  0
   56.4473   32.2262   45.9307 H   0  0  0  0  0  0  0  0  0  0  0  0
   57.1283   32.5785   44.3574 H   0  0  0  0  0  0  0  0  0  0  0  0
   55.5258   27.3810   45.1622 H   0  0  0  0  0  0  0  0  0  0  0  0
   54.8443   25.3066   46.3590 H   0  0  0  0  0  0  0  0  0  0  0  0
  1  2  1  0
  2  3  1  0
  3  4  1  0
  4  5  1  0
  5  6  1  0
  6  7  1  0
  7  8  1  0
  8  9  1  0
  9 10  1  0
 10 11  1  0
 11 12  2  0
 11 13  1  0
 13 14  2  0
 14 15  1  0
 15 16  2  0
 16 17  1  0
 17 18  1  0
 18 19  2  0
 18 20  1  0
 20 21  1  0
 21 22  1  0
 22 23  2  0
 23 24  1  0
 24 25  2  0
 25 26  1  0
 26 27  2  0
 27 28  1  0
 16 29  1  0
 29 30  2  0
  7  2  1  0
 30 13  1  0
 28 20  1  0
 27 22  1  0
  1 31  1  0
  1 32  1  0
  1 33  1  0
  2 34  1  6
  3 35  1  0
  3 36  1  0
  4 37  1  0
  4 38  1  0
  5 39  1  0
  5 40  1  0
  6 41  1  0
  6 42  1  0
  8 43  1  0
  8 44  1  0
  9 45  1  0
  9 46  1  0
 14 47  1  0
 15 48  1  0
 21 49  1  0
 21 50  1  0
 23 51  1  0
 24 52  1  0
 25 53  1  0
 26 54  1  0
 28 55  1  0
 28 56  1  0
 29 57  1  0
 30 58  1  0
M  CHG  2  10  -1  17  -1
M  END
>  <UniqueID>  (44) 
41

>  <SMILES>  (44) 
C[C@H]1CCCCN1CC[N-]C(=O)c1ccc([N-]C(=O)N2Cc3ccccc3C2)cc1

>  <Energy>  (44) 
81.79652102356494

>  <Genealogy>  (44) 
CC1CCCCN1CC[N-]C(=O)c1ccc([N-]C(=O)N2Cc3ccccc3C2)cc1 (protonated)
C[C@H]1CCCCN1CC[N-]C(=O)c1ccc([N-]C(=O)N2Cc3ccccc3C2)cc1 (chirality)
C[C@H]1CCCCN1CC[N-]C(=O)c1ccc([N-]C(=O)N2Cc3ccccc3C2)cc1 (3D coordinates assigned)
C[C@H]1CCCCN1CC[N-]C(=O)c1ccc([N-]C(=O)N2Cc3ccccc3C2)cc1 (nonaromatic ring conformer: 81.79652102356494 kcal/mol)

>  <smiles>  (44) 
CC1CCCCN1CCNC(=O)c1ccc(NC(=O)N2Cc3ccccc3C2)cc1

>  <score_type>  (44) 
oracle

>  <origin>  (44) 
adg

>  <m_score__min__energy>  (44) 
-12.210000000000001

>  <m_primary>  (44) 
energy

$$$$
44:0
     RDKit          3D

 49 52  0  0  0  0  0  0  0  0999 V2000
   58.1530   30.3080   44.5820 C   0  0  0  0  0  0  0  0  0  0  0  0
   58.5520   29.7680   45.7440 C   0  0  0  0  0  0  0  0  0  0  0  0
   58.3000   28.4650   46.2040 C   0  0  0  0  0  0  0  0  0  0  0  0
   57.7930   27.3870   45.5750 C   0  0  0  0  0  0  0  0  0  0  0  0
   57.2150   26.2050   46.2310 C   0  0  0  0  0  0  0  0  0  0  0  0
   57.9420   25.1500   46.6380 N   0  0  0  0  0  0  0  0  0  0  0  0
   57.0080   24.2680   47.0550 C   0  0  0  0  0  0  0  0  0  0  0  0
   57.3040   23.1400   47.5290 O   0  0  0  0  0  0  0  0  0  0  0  0
   55.7310   24.6830   46.9110 N   0  0  0  0  0  0  0  0  0  0  0  0
   55.8790   25.9050   46.3740 C   0  0  0  0  0  0  0  0  0  0  0  0
   54.8150   26.7160   45.9940 O   0  0  0  0  0  0  0  0  0  0  0  0
   58.6900   28.4410   47.5340 C   0  0  0  0  0  0  0  0  0  0  0  0
   59.2190   29.6810   47.8190 C   0  0  0  0  0  0  0  0  0  0  0  0
   59.7720   30.0830   49.1530 C   0  0  0  0  0  0  0  0  0  0  0  0
   59.1370   30.4890   46.7370 N   0  0  0  0  0  0  0  0  0  0  0  0
   59.5500   31.8660   46.6840 C   0  0  0  0  0  0  0  0  0  0  0  0
   58.5930   32.8820   46.5640 C   0  0  0  0  0  0  0  0  0  0  0  0
   58.9920   34.2190   46.5070 C   0  0  0  0  0  0  0  0  0  0  0  0
   60.3480   34.5520   46.5680 C   0  0  0  0  0  0  0  0  0  0  0  0
   61.3230   33.5450   46.6870 C   0  0  0  0  0  0  0  0  0  0  0  0
   62.7620   33.8920   46.7480 C   0  0  0  0  0  0  0  0  0  0  0  0
   63.4510   33.9200   45.6920 O   0  0  0  0  0  0  0  0  0  0  0  0
   63.3780   34.1950   48.0030 N   0  0  0  0  0  0  0  0  0  0  0  0
   63.4510   33.0570   49.3040 S   0  0  0  0  0  0  0  0  0  0  0  0
   63.7640   31.6930   48.7560 O   0  0  0  0  0  0  0  0  0  0  0  0
   64.5440   33.4510   50.2580 O   0  0  0  0  0  0  0  0  0  0  0  0
   61.8950   33.0070   50.1280 C   0  0  0  0  0  0  0  0  0  0  0  0
   61.6670   32.0930   51.1670 C   0  0  0  0  0  0  0  0  0  0  0  0
   60.4360   32.0740   51.8290 C   0  0  0  0  0  0  0  0  0  0  0  0
   59.4260   32.9710   51.4580 C   0  0  0  0  0  0  0  0  0  0  0  0
   57.8840   32.9500   52.2930 Cl  0  0  0  0  0  0  0  0  0  0  0  0
   59.6520   33.8870   50.4260 C   0  0  0  0  0  0  0  0  0  0  0  0
   60.8840   33.9070   49.7630 C   0  0  0  0  0  0  0  0  0  0  0  0
   60.9110   32.2010   46.7470 C   0  0  0  0  0  0  0  0  0  0  0  0
   58.4182   31.3475   44.3388 H   0  0  0  0  0  0  0  0  0  0  0  0
   57.5608   29.7111   43.8728 H   0  0  0  0  0  0  0  0  0  0  0  0
   57.8132   27.3915   44.4752 H   0  0  0  0  0  0  0  0  0  0  0  0
   58.5953   27.5938   48.2292 H   0  0  0  0  0  0  0  0  0  0  0  0
   59.1607   29.6386   49.9523 H   0  0  0  0  0  0  0  0  0  0  0  0
   60.8086   29.7262   49.2428 H   0  0  0  0  0  0  0  0  0  0  0  0
   59.7524   31.1792   49.2428 H   0  0  0  0  0  0  0  0  0  0  0  0
   57.5244   32.6259   46.5145 H   0  0  0  0  0  0  0  0  0  0  0  0
   58.2364   35.0129   46.4138 H   0  0  0  0  0  0  0  0  0  0  0  0
   60.6545   35.6074   46.5227 H   0  0  0  0  0  0  0  0  0  0  0  0
   62.4592   31.3890   51.4618 H   0  0  0  0  0  0  0  0  0  0  0  0
   60.2602   31.3541   52.6419 H   0  0  0  0  0  0  0  0  0  0  0  0
   58.8601   34.5929   50.1350 H   0  0  0  0  0  0  0  0  0  0  0  0
   61.0597   34.6307   48.9534 H   0  0  0  0  0  0  0  0  0  0  0  0
   61.6637   31.4047   46.8443 H   0  0  0  0  0  0  0  0  0  0  0  0
  1  2  2  0
  2  3  1  0
  3  4  2  3
  4  5  1  0
  5  6  1  0
  6  7  1  0
  7  8  2  0
  7  9  1  0
  9 10  1  0
 10 11  1  0
  3 12  1  0
 12 13  2  0
 13 14  1  0
 13 15  1  0
 15 16  1  0
 16 17  2  0
 17 18  1  0
 18 19  2  0
 19 20  1  0
 20 21  1  0
 21 22  2  0
 21 23  1  0
 23 24  1  0
 24 25  2  0
 24 26  2  0
 24 27  1  0
 27 28  2  0
 28 29  1  0
 29 30  2  0
 30 31  1  0
 30 32  1  0
 32 33  2  0
 20 34  2  0
 15  2  1  0
 34 16  1  0
 10  5  2  0
 33 27  1  0
  1 35  1  0
  1 36  1  0
  4 37  1  0
 12 38  1  0
 14 39  1  0
 14 40  1  0
 14 41  1  0
 17 42  1  0
 18 43  1  0
 19 44  1  0
 28 45  1  0
 29 46  1  0
 32 47  1  0
 33 48  1  0
 34 49  1  0
M  CHG  4   6  -1   9  -1  11  -1  23  -1
M  END
>  <UniqueID>  (45) 
42

>  <SMILES>  (45) 
C=c1c(=Cc2[n-]c(=O)[n-]c2[O-])cc(C)n1-c1cccc(C(=O)[N-]S(=O)(=O)c2ccc(Cl)cc2)c1

>  <Energy>  (45) 
131.81622066116608

>  <Genealogy>  (45) 
C=c1c(=Cc2[n-]c(=O)[n-]c2[O-])cc(C)n1-c1cccc(C(=O)[N-]S(=O)(=O)c2ccc(Cl)cc2)c1 (protonated)
C=c1c(=Cc2[n-]c(=O)[n-]c2[O-])cc(C)n1-c1cccc(C(=O)[N-]S(=O)(=O)c2ccc(Cl)cc2)c1 (3D coordinates assigned)
C=c1c(=Cc2[n-]c(=O)[n-]c2[O-])cc(C)n1-c1cccc(C(=O)[N-]S(=O)(=O)c2ccc(Cl)cc2)c1 (optimized conformer: 131.81622066116608 kcal/mol)

>  <smiles>  (45) 
C=c1c(=Cc2[nH]c(=O)[nH]c2O)cc(C)n1-c1cccc(C(=O)NS(=O)(=O)c2ccc(Cl)cc2)c1

>  <score_type>  (45) 
oracle

>  <origin>  (45) 
adg

>  <m_score__min__energy>  (45) 
-18.98

>  <m_primary>  (45) 
energy

$$$$
45:0
     RDKit          3D

 45 47  0  0  0  0  0  0  0  0999 V2000
   55.5800   30.6560   44.5340 O   0  0  0  0  0  0  0  0  0  0  0  0
   56.6250   30.0060   44.2640 C   0  0  0  0  0  0  0  0  0  0  0  0
   56.6820   28.6200   44.6220 N   0  0  0  0  0  0  0  0  0  0  0  0
   57.9730   27.8870   45.5160 S   0  0  0  0  0  0  0  0  0  0  0  0
   58.8350   27.0910   44.5760 O   0  0  0  0  0  0  0  0  0  0  0  0
   57.3960   26.9590   46.5490 O   0  0  0  0  0  0  0  0  0  0  0  0
   58.9560   29.1370   46.2690 C   0  0  0  0  0  0  0  0  0  0  0  0
   60.2110   29.4750   45.7470 C   0  0  0  0  0  0  0  0  0  0  0  0
   60.9940   30.4490   46.3730 C   0  0  0  0  0  0  0  0  0  0  0  0
   60.5310   31.1060   47.5260 C   0  0  0  0  0  0  0  0  0  0  0  0
   61.3420   32.1060   48.1740 N   0  0  0  0  0  0  0  0  0  0  0  0
   61.1580   32.5440   49.5560 C   0  0  0  0  0  0  0  0  0  0  0  0
   62.3860   33.3830   49.9780 C   0  0  0  0  0  0  0  0  0  0  0  0
   63.0660   33.9940   48.7460 C   0  0  0  0  0  0  0  0  0  0  0  0
   62.6520   32.9160   47.4180 S   0  0  0  0  0  0  0  0  0  0  0  0
   63.7720   31.9650   47.1040 O   0  0  0  0  0  0  0  0  0  0  0  0
   62.2280   33.6940   46.2050 O   0  0  0  0  0  0  0  0  0  0  0  0
   59.2670   30.7700   48.0360 C   0  0  0  0  0  0  0  0  0  0  0  0
   58.4880   29.7920   47.4130 C   0  0  0  0  0  0  0  0  0  0  0  0
   57.7270   30.6590   43.6110 N   0  0  0  0  0  0  0  0  0  0  0  0
   57.7120   32.0840   43.2870 C   0  0  0  0  0  0  0  0  0  0  0  0
   58.0910   32.8960   44.4960 C   0  0  0  0  0  0  0  0  0  0  0  0
   59.0920   33.8780   44.4120 C   0  0  0  0  0  0  0  0  0  0  0  0
   59.4180   34.6480   45.5340 C   0  0  0  0  0  0  0  0  0  0  0  0
   58.7460   34.4450   46.7430 C   0  0  0  0  0  0  0  0  0  0  0  0
   57.7470   33.4720   46.8320 C   0  0  0  0  0  0  0  0  0  0  0  0
   57.4160   32.7000   45.7130 C   0  0  0  0  0  0  0  0  0  0  0  0
   60.5816   28.9723   44.8415 H   0  0  0  0  0  0  0  0  0  0  0  0
   61.9811   30.7035   45.9597 H   0  0  0  0  0  0  0  0  0  0  0  0
   60.2475   33.1565   49.6320 H   0  0  0  0  0  0  0  0  0  0  0  0
   61.0569   31.6697   50.2158 H   0  0  0  0  0  0  0  0  0  0  0  0
   62.0595   34.1907   50.6496 H   0  0  0  0  0  0  0  0  0  0  0  0
   63.1043   32.7290   50.4941 H   0  0  0  0  0  0  0  0  0  0  0  0
   62.6830   35.0074   48.5554 H   0  0  0  0  0  0  0  0  0  0  0  0
   64.1539   34.0889   48.8782 H   0  0  0  0  0  0  0  0  0  0  0  0
   58.8870   31.2808   48.9331 H   0  0  0  0  0  0  0  0  0  0  0  0
   57.5007   29.5354   47.8245 H   0  0  0  0  0  0  0  0  0  0  0  0
   58.5890   30.1220   43.3710 H   0  0  0  0  0  0  0  0  0  0  0  0
   58.4307   32.2802   42.4777 H   0  0  0  0  0  0  0  0  0  0  0  0
   56.6989   32.3686   42.9668 H   0  0  0  0  0  0  0  0  0  0  0  0
   59.6210   34.0421   43.4616 H   0  0  0  0  0  0  0  0  0  0  0  0
   60.2042   35.4142   45.4646 H   0  0  0  0  0  0  0  0  0  0  0  0
   59.0036   35.0511   47.6241 H   0  0  0  0  0  0  0  0  0  0  0  0
   57.2196   33.3126   47.7841 H   0  0  0  0  0  0  0  0  0  0  0  0
   56.6259   31.9382   45.7860 H   0  0  0  0  0  0  0  0  0  0  0  0
  1  2  2  0
  2  3  1  0
  3  4  1  0
  4  5  2  0
  4  6  2  0
  4  7  1  0
  7  8  2  0
  8  9  1  0
  9 10  2  0
 10 11  1  0
 11 12  1  0
 12 13  1  0
 13 14  1  0
 14 15  1  0
 15 16  2  0
 15 17  2  0
 10 18  1  0
 18 19  2  0
  2 20  1  0
 20 21  1  0
 21 22  1  0
 22 23  2  0
 23 24  1  0
 24 25  2  0
 25 26  1  0
 26 27  2  0
 19  7  1  0
 27 22  1  0
 15 11  1  0
  8 28  1  0
  9 29  1  0
 12 30  1  0
 12 31  1  0
 13 32  1  0
 13 33  1  0
 14 34  1  0
 14 35  1  0
 18 36  1  0
 19 37  1  0
 20 38  1  0
 21 39  1  0
 21 40  1  0
 23 41  1  0
 24 42  1  0
 25 43  1  0
 26 44  1  0
 27 45  1  0
M  CHG  1   3  -1
M  END
>  <UniqueID>  (46) 
43

>  <SMILES>  (46) 
O=C([N-]S(=O)(=O)c1ccc(N2CCCS2(=O)=O)cc1)NCc1ccccc1

>  <Energy>  (46) 
55.31005549593412

>  <Genealogy>  (46) 
O=C([N-]S(=O)(=O)c1ccc(N2CCCS2(=O)=O)cc1)NCc1ccccc1 (protonated)
O=C([N-]S(=O)(=O)c1ccc(N2CCCS2(=O)=O)cc1)NCc1ccccc1 (3D coordinates assigned)
O=C([N-]S(=O)(=O)c1ccc(N2CCCS2(=O)=O)cc1)NCc1ccccc1 (nonaromatic ring conformer: 55.31005549593412 kcal/mol)

>  <smiles>  (46) 
O=C(NCc1ccccc1)NS(=O)(=O)c1ccc(N2CCCS2(=O)=O)cc1

>  <score_type>  (46) 
oracle

>  <origin>  (46) 
adg

>  <m_score__min__energy>  (46) 
-10.33

>  <m_primary>  (46) 
energy

$$$$
46:0
     RDKit          3D

 47 49  0  0  0  0  0  0  0  0999 V2000
   57.7340   27.0860   44.2880 C   0  0  0  0  0  0  0  0  0  0  0  0
   58.2320   27.9650   45.4000 C   0  0  0  0  0  0  0  0  0  0  0  0
   59.2970   27.6200   46.2480 C   0  0  0  0  0  0  0  0  0  0  0  0
   60.0160   26.3360   46.3080 C   0  0  0  0  0  0  0  0  0  0  0  0
   61.2690   26.3330   46.4000 O   0  0  0  0  0  0  0  0  0  0  0  0
   59.2860   25.1050   46.2940 N   0  0  0  0  0  0  0  0  0  0  0  0
   58.1100   24.8220   47.1070 C   0  0  0  0  0  0  0  0  0  0  0  0
   56.8290   24.7880   46.2550 C   0  0  0  0  0  0  0  0  0  0  0  0
   56.8920   23.7440   45.1680 C   0  0  0  0  0  0  0  0  0  0  0  0
   57.7620   22.6430   45.2770 C   0  0  0  0  0  0  0  0  0  0  0  0
   57.8240   21.6920   44.2560 C   0  0  0  0  0  0  0  0  0  0  0  0
   57.0120   21.8250   43.1250 C   0  0  0  0  0  0  0  0  0  0  0  0
   56.1380   22.9070   43.0170 C   0  0  0  0  0  0  0  0  0  0  0  0
   56.0770   23.8620   44.0360 C   0  0  0  0  0  0  0  0  0  0  0  0
   59.6400   28.9240   47.2540 S   0  0  0  0  0  0  0  0  0  0  0  0
   58.4180   29.9190   46.6720 C   0  0  0  0  0  0  0  0  0  0  0  0
   58.1720   31.2660   47.0860 N   0  0  0  0  0  0  0  0  0  0  0  0
   58.9670   32.0330   47.9950 C   0  0  0  0  0  0  0  0  0  0  0  0
   58.4590   32.4950   49.0520 O   0  0  0  0  0  0  0  0  0  0  0  0
   60.3620   32.3740   47.6390 C   0  0  0  0  0  0  0  0  0  0  0  0
   61.4110   31.5590   48.1120 C   0  0  0  0  0  0  0  0  0  0  0  0
   62.7450   31.8900   47.8500 C   0  0  0  0  0  0  0  0  0  0  0  0
   63.0450   33.0250   47.0970 C   0  0  0  0  0  0  0  0  0  0  0  0
   62.0140   33.8270   46.5960 C   0  0  0  0  0  0  0  0  0  0  0  0
   60.6760   33.5090   46.8610 C   0  0  0  0  0  0  0  0  0  0  0  0
   59.4310   34.5340   46.1500 Cl  0  0  0  0  0  0  0  0  0  0  0  0
   57.7190   29.2610   45.6580 C   0  0  0  0  0  0  0  0  0  0  0  0
   56.5580   29.8590   44.9640 C   0  0  0  0  0  0  0  0  0  0  0  0
   55.3330   29.1370   44.8500 N   0  0  0  0  0  0  0  0  0  0  0  0
   56.6450   31.0030   44.4460 O   0  0  0  0  0  0  0  0  0  0  0  0
   57.2341   26.2036   44.7140 H   0  0  0  0  0  0  0  0  0  0  0  0
   57.0202   27.6481   43.6679 H   0  0  0  0  0  0  0  0  0  0  0  0
   58.5831   26.7627   43.6679 H   0  0  0  0  0  0  0  0  0  0  0  0
   58.2401   23.8451   47.5956 H   0  0  0  0  0  0  0  0  0  0  0  0
   58.0062   25.6231   47.8536 H   0  0  0  0  0  0  0  0  0  0  0  0
   55.9741   24.5652   46.9104 H   0  0  0  0  0  0  0  0  0  0  0  0
   56.7198   25.7703   45.7722 H   0  0  0  0  0  0  0  0  0  0  0  0
   58.3953   22.5311   46.1694 H   0  0  0  0  0  0  0  0  0  0  0  0
   58.5119   20.8379   44.3414 H   0  0  0  0  0  0  0  0  0  0  0  0
   57.0625   21.0764   42.3206 H   0  0  0  0  0  0  0  0  0  0  0  0
   55.4964   23.0087   42.1293 H   0  0  0  0  0  0  0  0  0  0  0  0
   55.3841   24.7117   43.9477 H   0  0  0  0  0  0  0  0  0  0  0  0
   61.1783   30.6542   48.6926 H   0  0  0  0  0  0  0  0  0  0  0  0
   63.5561   31.2559   48.2374 H   0  0  0  0  0  0  0  0  0  0  0  0
   64.0937   33.2899   46.8968 H   0  0  0  0  0  0  0  0  0  0  0  0
   62.2557   34.7128   45.9902 H   0  0  0  0  0  0  0  0  0  0  0  0
   54.5330   29.3440   45.4790 H   0  0  0  0  0  0  0  0  0  0  0  0
  1  2  1  0
  2  3  2  0
  3  4  1  0
  4  5  2  0
  4  6  1  0
  6  7  1  0
  7  8  1  0
  8  9  1  0
  9 10  2  0
 10 11  1  0
 11 12  2  0
 12 13  1  0
 13 14  2  0
  3 15  1  0
 15 16  1  0
 16 17  1  0
 17 18  1  0
 18 19  2  0
 18 20  1  0
 20 21  2  0
 21 22  1  0
 22 23  2  0
 23 24  1  0
 24 25  2  0
 25 26  1  0
 16 27  2  0
 27 28  1  0
 28 29  1  0
 28 30  2  0
 27  2  1  0
 14  9  1  0
 25 20  1  0
  1 31  1  0
  1 32  1  0
  1 33  1  0
  7 34  1  0
  7 35  1  0
  8 36  1  0
  8 37  1  0
 10 38  1  0
 11 39  1  0
 12 40  1  0
 13 41  1  0
 14 42  1  0
 21 43  1  0
 22 44  1  0
 23 45  1  0
 24 46  1  0
 29 47  1  0
M  CHG  3   6  -1  17  -1  29  -1
M  END
>  <UniqueID>  (47) 
44

>  <SMILES>  (47) 
Cc1c(C(=O)[N-]CCc2ccccc2)sc([N-]C(=O)c2ccccc2Cl)c1C([NH-])=O

>  <Energy>  (47) 
86.70927212293836

>  <Genealogy>  (47) 
Cc1c(C(=O)[N-]CCc2ccccc2)sc([N-]C(=O)c2ccccc2Cl)c1C([NH-])=O (protonated)
Cc1c(C(=O)[N-]CCc2ccccc2)sc([N-]C(=O)c2ccccc2Cl)c1C([NH-])=O (3D coordinates assigned)
Cc1c(C(=O)[N-]CCc2ccccc2)sc([N-]C(=O)c2ccccc2Cl)c1C([NH-])=O (optimized conformer: 86.70927212293836 kcal/mol)

>  <smiles>  (47) 
Cc1c(C(=O)NCCc2ccccc2)sc(NC(=O)c2ccccc2Cl)c1C(N)=O

>  <score_type>  (47) 
oracle

>  <origin>  (47) 
adg

>  <m_score__min__energy>  (47) 
-14.69

>  <m_primary>  (47) 
energy

$$$$
47:0
     RDKit          3D

 51 54  0  0  0  0  0  0  0  0999 V2000
   52.5370   24.3802   45.8274 H   0  0  0  0  0  0  0  0  0  0  0  0
   53.6050   24.4120   45.5660 C   0  0  0  0  0  0  0  0  0  0  0  0
   54.3740   25.4490   45.9870 N   0  0  0  0  0  0  0  0  0  0  0  0
   55.7010   25.5370   45.6990 C   0  0  0  0  0  0  0  0  0  0  0  0
   56.3560   26.5740   46.1420 N   0  0  0  0  0  0  0  0  0  0  0  0
   57.7080   26.6560   46.6240 C   0  0  0  0  0  0  0  0  0  0  0  0
   58.2950   25.6420   47.0900 O   0  0  0  0  0  0  0  0  0  0  0  0
   58.3810   27.9630   46.6610 C   0  0  0  0  0  0  0  0  0  0  0  0
   57.8290   29.1650   46.2210 C   0  0  0  0  0  0  0  0  0  0  0  0
   56.8311   29.3254   45.7869 H   0  0  0  0  0  0  0  0  0  0  0  0
   58.8070   30.1080   46.4490 C   0  0  0  0  0  0  0  0  0  0  0  0
   58.8170   31.4740   46.1970 C   0  0  0  0  0  0  0  0  0  0  0  0
   57.9425   31.9691   45.7496 H   0  0  0  0  0  0  0  0  0  0  0  0
   59.9760   32.2150   46.5280 C   0  0  0  0  0  0  0  0  0  0  0  0
   60.0310   33.6250   46.2350 N   0  0  0  0  0  0  0  0  0  0  0  0
   60.6690   34.2470   46.7750 H   0  0  0  0  0  0  0  0  0  0  0  0
   58.9910   34.4010   45.0830 S   0  0  0  0  0  0  0  0  0  0  0  0
   59.3560   35.8520   44.9510 O   0  0  0  0  0  0  0  0  0  0  0  0
   59.1630   33.7390   43.7460 O   0  0  0  0  0  0  0  0  0  0  0  0
   57.2930   34.2450   45.5960 C   0  0  0  0  0  0  0  0  0  0  0  0
   57.2409   34.2402   46.6948 H   0  0  0  0  0  0  0  0  0  0  0  0
   56.7124   35.0936   45.2051 H   0  0  0  0  0  0  0  0  0  0  0  0
   56.8768   33.3048   45.2051 H   0  0  0  0  0  0  0  0  0  0  0  0
   61.1000   31.5470   47.1190 C   0  0  0  0  0  0  0  0  0  0  0  0
   62.3540   32.3080   47.4970 C   0  0  0  0  0  0  0  0  0  0  0  0
   62.6610   33.2160   46.5010 F   0  0  0  0  0  0  0  0  0  0  0  0
   62.1580   32.9810   48.6900 F   0  0  0  0  0  0  0  0  0  0  0  0
   63.4370   31.4600   47.6620 F   0  0  0  0  0  0  0  0  0  0  0  0
   61.0420   30.1480   47.3410 C   0  0  0  0  0  0  0  0  0  0  0  0
   61.8988   29.6121   47.7753 H   0  0  0  0  0  0  0  0  0  0  0  0
   59.8790   29.4680   46.9980 C   0  0  0  0  0  0  0  0  0  0  0  0
   59.6350   28.1530   47.1360 N   0  0  0  0  0  0  0  0  0  0  0  0
   60.2810   27.4320   47.5270 H   0  0  0  0  0  0  0  0  0  0  0  0
   56.2940   24.5290   44.9090 C   0  0  0  0  0  0  0  0  0  0  0  0
   57.3598   24.5931   44.6447 H   0  0  0  0  0  0  0  0  0  0  0  0
   55.5260   23.4480   44.4620 C   0  0  0  0  0  0  0  0  0  0  0  0
   56.1530   22.4650   43.6790 O   0  0  0  0  0  0  0  0  0  0  0  0
   56.9970   21.4260   44.1800 C   0  0  2  0  0  0  0  0  0  0  0  0
   56.7302   20.5156   43.6232 H   0  0  0  0  0  0  0  0  0  0  0  0
   56.8310   21.3170   45.6830 C   0  0  0  0  0  0  0  0  0  0  0  0
   56.9884   20.2741   45.9954 H   0  0  0  0  0  0  0  0  0  0  0  0
   55.8160   21.6330   45.9656 H   0  0  0  0  0  0  0  0  0  0  0  0
   57.7770   22.1460   46.3170 O   0  0  0  0  0  0  0  0  0  0  0  0
   58.7460   22.5020   45.3570 C   0  0  0  0  0  0  0  0  0  0  0  0
   59.7423   22.2024   45.7141 H   0  0  0  0  0  0  0  0  0  0  0  0
   58.7226   23.5906   45.2009 H   0  0  0  0  0  0  0  0  0  0  0  0
   58.4470   21.7990   44.0470 C   0  0  0  0  0  0  0  0  0  0  0  0
   59.0751   20.9039   43.9275 H   0  0  0  0  0  0  0  0  0  0  0  0
   58.6523   22.4241   43.1655 H   0  0  0  0  0  0  0  0  0  0  0  0
   54.1640   23.3880   44.8040 C   0  0  0  0  0  0  0  0  0  0  0  0
   53.5453   22.5408   44.4733 H   0  0  0  0  0  0  0  0  0  0  0  0
  1  2  1  0
  2  3  1  0
  3  4  1  0
  4  5  2  0
  5  6  1  0
  6  7  2  0
  6  8  1  0
  8  9  2  0
  9 10  1  0
  9 11  1  0
 11 12  2  0
 12 13  1  0
 12 14  1  0
 14 15  1  0
 15 16  1  0
 15 17  1  0
 17 18  2  0
 17 19  2  0
 17 20  1  0
 20 21  1  0
 20 22  1  0
 20 23  1  0
 14 24  2  0
 24 25  1  0
 25 26  1  0
 25 27  1  0
 25 28  1  0
 24 29  1  0
 29 30  1  0
 29 31  2  0
 31 32  1  0
 32 33  1  0
  4 34  1  0
 34 35  1  0
 34 36  2  0
 36 37  1  0
 37 38  1  0
 38 39  1  6
 38 40  1  0
 40 41  1  0
 40 42  1  0
 40 43  1  0
 43 44  1  0
 44 45  1  0
 44 46  1  0
 44 47  1  0
 47 48  1  0
 47 49  1  0
 36 50  1  0
 50 51  1  0
 50  2  2  0
 32  8  1  0
 47 38  1  0
 31 11  1  0
M  CHG  1   3  -1
M  END
>  <UniqueID>  (48) 
45

>  <SMILES>  (48) 
CS(=O)(=O)Nc1cc2cc(C(=O)/N=c3\cc(O[C@H]4CCOC4)cc[n-]3)[nH]c2cc1C(F)(F)F

>  <Energy>  (48) 
96.78370978496714

>  <Genealogy>  (48) 
CS(=O)(=O)Nc1cc2cc(C(=O)N=c3cc(OC4CCOC4)cc[n-]3)[nH]c2cc1C(F)(F)F (protonated)
CS(=O)(=O)Nc1cc2cc(C(=O)N=c3cc(O[C@H]4CCOC4)cc[n-]3)[nH]c2cc1C(F)(F)F (chirality)
CS(=O)(=O)Nc1cc2cc(C(=O)/N=c3\cc(O[C@H]4CCOC4)cc[n-]3)[nH]c2cc1C(F)(F)F (cis-trans isomerization)
CS(=O)(=O)Nc1cc2cc(C(=O)/N=c3\cc(O[C@H]4CCOC4)cc[n-]3)[nH]c2cc1C(F)(F)F (3D coordinates assigned)
CS(=O)(=O)Nc1cc2cc(C(=O)/N=c3\cc(O[C@H]4CCOC4)cc[n-]3)[nH]c2cc1C(F)(F)F (nonaromatic ring conformer: 96.78370978496714 kcal/mol)

>  <smiles>  (48) 
CS(=O)(=O)Nc1cc2cc(C(=O)N=c3cc(OC4CCOC4)cc[nH]3)[nH]c2cc1C(F)(F)F

>  <score_type>  (48) 
oracle

>  <origin>  (48) 
adg

>  <m_score__min__energy>  (48) 
-10.19

>  <m_primary>  (48) 
energy

$$$$
48:0
     RDKit          3D

 45 47  0  0  0  0  0  0  0  0999 V2000
   55.8510   27.0800   45.9370 N   0  0  0  0  0  0  0  0  0  0  0  0
   56.7820   28.0880   45.5480 C   0  0  0  0  0  0  0  0  0  0  0  0
   57.9660   28.2800   46.2680 C   0  0  0  0  0  0  0  0  0  0  0  0
   58.8460   29.2780   45.8470 C   0  0  0  0  0  0  0  0  0  0  0  0
   59.9210   29.4770   46.4700 O   0  0  0  0  0  0  0  0  0  0  0  0
   58.5420   30.0370   44.7640 N   0  0  0  0  0  0  0  0  0  0  0  0
   57.3850   29.8430   44.0780 C   0  0  0  0  0  0  0  0  0  0  0  0
   57.0070   30.8610   42.6550 S   0  0  0  0  0  0  0  0  0  0  0  0
   57.8910   32.3300   43.2810 C   0  0  0  0  0  0  0  0  0  0  0  0
   57.2840   32.8030   44.5640 C   0  0  0  0  0  0  0  0  0  0  0  0
   56.3040   32.1810   45.0540 O   0  0  0  0  0  0  0  0  0  0  0  0
   57.8800   33.9040   45.2600 N   0  0  0  0  0  0  0  0  0  0  0  0
   58.6160   33.8390   46.4900 C   0  0  0  0  0  0  0  0  0  0  0  0
   58.2850   32.8460   47.4190 C   0  0  0  0  0  0  0  0  0  0  0  0
   58.9880   32.7350   48.6210 C   0  0  0  0  0  0  0  0  0  0  0  0
   60.0440   33.6140   48.9060 C   0  0  0  0  0  0  0  0  0  0  0  0
   60.8270   33.4840   50.1880 C   0  0  0  0  0  0  0  0  0  0  0  0
   62.1390   32.8470   49.9440 N   0  0  0  0  0  0  0  0  0  0  0  0
   63.1090   33.8080   49.3660 C   0  0  0  0  0  0  0  0  0  0  0  0
   64.2260   33.0750   48.6080 C   0  0  0  0  0  0  0  0  0  0  0  0
   63.7610   32.2920   47.5150 O   0  0  0  0  0  0  0  0  0  0  0  0
   62.4170   31.8510   47.6610 C   0  0  0  0  0  0  0  0  0  0  0  0
   62.0040   31.6170   49.1250 C   0  0  0  0  0  0  0  0  0  0  0  0
   60.3990   34.5900   47.9640 C   0  0  0  0  0  0  0  0  0  0  0  0
   59.6940   34.7020   46.7610 C   0  0  0  0  0  0  0  0  0  0  0  0
   56.5170   28.8730   44.4690 N   0  0  0  0  0  0  0  0  0  0  0  0
   55.4990   26.3900   45.2370 H   0  0  0  0  0  0  0  0  0  0  0  0
   55.5090   27.0160   46.9220 H   0  0  0  0  0  0  0  0  0  0  0  0
   58.1980   27.6587   47.1456 H   0  0  0  0  0  0  0  0  0  0  0  0
   58.9458   32.0705   43.4542 H   0  0  0  0  0  0  0  0  0  0  0  0
   57.8145   33.1345   42.5348 H   0  0  0  0  0  0  0  0  0  0  0  0
   57.4642   32.1469   47.2008 H   0  0  0  0  0  0  0  0  0  0  0  0
   58.7127   31.9556   49.3468 H   0  0  0  0  0  0  0  0  0  0  0  0
   60.9868   34.4850   50.6153 H   0  0  0  0  0  0  0  0  0  0  0  0
   60.2556   32.8544   50.8859 H   0  0  0  0  0  0  0  0  0  0  0  0
   62.5813   34.4770   48.6703 H   0  0  0  0  0  0  0  0  0  0  0  0
   63.5621   34.3842   50.1862 H   0  0  0  0  0  0  0  0  0  0  0  0
   64.9325   33.8245   48.2218 H   0  0  0  0  0  0  0  0  0  0  0  0
   64.6954   32.3818   49.3215 H   0  0  0  0  0  0  0  0  0  0  0  0
   61.7515   32.6129   47.2289 H   0  0  0  0  0  0  0  0  0  0  0  0
   62.3354   30.8841   47.1430 H   0  0  0  0  0  0  0  0  0  0  0  0
   60.9549   31.2873   49.1497 H   0  0  0  0  0  0  0  0  0  0  0  0
   62.6716   30.8520   49.5482 H   0  0  0  0  0  0  0  0  0  0  0  0
   61.2368   35.2717   48.1722 H   0  0  0  0  0  0  0  0  0  0  0  0
   59.9830   35.4666   46.0249 H   0  0  0  0  0  0  0  0  0  0  0  0
  1  2  1  0
  2  3  2  0
  3  4  1  0
  4  5  2  0
  4  6  1  0
  6  7  2  0
  7  8  1  0
  8  9  1  0
  9 10  1  0
 10 11  2  0
 10 12  1  0
 12 13  1  0
 13 14  2  0
 14 15  1  0
 15 16  2  0
 16 17  1  0
 17 18  1  0
 18 19  1  0
 19 20  1  0
 20 21  1  0
 21 22  1  0
 22 23  1  0
 16 24  1  0
 24 25  2  0
  7 26  1  0
 26  2  1  0
 25 13  1  0
 23 18  1  0
  1 27  1  0
  1 28  1  0
  3 29  1  0
  9 30  1  0
  9 31  1  0
 14 32  1  0
 15 33  1  0
 17 34  1  0
 17 35  1  0
 19 36  1  0
 19 37  1  0
 20 38  1  0
 20 39  1  0
 22 40  1  0
 22 41  1  0
 23 42  1  0
 23 43  1  0
 24 44  1  0
 25 45  1  0
M  CHG  2  12  -1  26  -1
M  END
>  <UniqueID>  (49) 
46

>  <SMILES>  (49) 
Nc1cc(=O)nc(SCC(=O)[N-]c2ccc(CN3CCOCC3)cc2)[n-]1

>  <Energy>  (49) 
58.598937857882426

>  <Genealogy>  (49) 
Nc1cc(=O)nc(SCC(=O)[N-]c2ccc(CN3CCOCC3)cc2)[n-]1 (protonated)
Nc1cc(=O)nc(SCC(=O)[N-]c2ccc(CN3CCOCC3)cc2)[n-]1 (3D coordinates assigned)
Nc1cc(=O)nc(SCC(=O)[N-]c2ccc(CN3CCOCC3)cc2)[n-]1 (nonaromatic ring conformer: 58.598937857882426 kcal/mol)

>  <smiles>  (49) 
Nc1cc(=O)nc(SCC(=O)Nc2ccc(CN3CCOCC3)cc2)[nH]1

>  <score_type>  (49) 
oracle

>  <origin>  (49) 
adg

>  <m_score__min__energy>  (49) 
-11.84

>  <m_primary>  (49) 
energy

$$$$
49:0
     RDKit          3D

 54 57  0  0  0  0  0  0  0  0999 V2000
   59.1100   32.2040   45.3450 C   0  0  0  0  0  0  0  0  0  0  0  0
   59.1400   31.4100   46.4290 C   0  0  0  0  0  0  0  0  0  0  0  0
   58.6400   30.0980   46.5210 C   0  0  0  0  0  0  0  0  0  0  0  0
   58.1610   29.2590   45.5810 C   0  0  0  0  0  0  0  0  0  0  0  0
   57.4430   27.9950   45.8380 C   0  0  0  0  0  0  0  0  0  0  0  0
   56.0630   27.8790   45.5990 C   0  0  0  0  0  0  0  0  0  0  0  0
   55.3270   28.9690   45.1460 O   0  0  0  0  0  0  0  0  0  0  0  0
   55.4370   26.6920   45.8050 N   0  0  0  0  0  0  0  0  0  0  0  0
   56.1260   25.6000   46.2240 C   0  0  0  0  0  0  0  0  0  0  0  0
   55.5250   24.5110   46.4110 O   0  0  0  0  0  0  0  0  0  0  0  0
   57.4650   25.6800   46.4340 N   0  0  0  0  0  0  0  0  0  0  0  0
   58.1370   26.8450   46.2440 C   0  0  0  0  0  0  0  0  0  0  0  0
   59.3800   26.8820   46.4430 O   0  0  0  0  0  0  0  0  0  0  0  0
   58.7290   29.7430   47.8540 C   0  0  0  0  0  0  0  0  0  0  0  0
   59.3220   30.7970   48.5130 C   0  0  0  0  0  0  0  0  0  0  0  0
   59.5750   30.8290   49.9910 C   0  0  0  0  0  0  0  0  0  0  0  0
   59.5780   31.8140   47.6550 N   0  0  0  0  0  0  0  0  0  0  0  0
   60.1520   33.1160   48.0360 C   0  0  0  0  0  0  0  0  0  0  0  0
   61.5430   32.9470   48.5920 C   0  0  0  0  0  0  0  0  0  0  0  0
   61.8400   33.3320   49.9050 C   0  0  0  0  0  0  0  0  0  0  0  0
   63.1330   33.1800   50.4040 C   0  0  0  0  0  0  0  0  0  0  0  0
   64.1300   32.6250   49.5900 C   0  0  0  0  0  0  0  0  0  0  0  0
   65.5120   32.4710   50.0940 C   0  0  0  0  0  0  0  0  0  0  0  0
   66.4450   33.0870   49.5110 O   0  0  0  0  0  0  0  0  0  0  0  0
   65.8150   31.6190   51.2160 N   0  0  0  0  0  0  0  0  0  0  0  0
   66.9060   31.9610   52.1340 C   0  0  0  0  0  0  0  0  0  0  0  0
   67.9700   30.8450   52.1540 C   0  0  0  0  0  0  0  0  0  0  0  0
   67.4360   29.5020   51.8470 N   0  0  0  0  0  0  0  0  0  0  0  0
   66.0170   29.3610   52.1990 C   0  0  0  0  0  0  0  0  0  0  0  0
   65.1590   30.3110   51.3510 C   0  0  0  0  0  0  0  0  0  0  0  0
   63.8270   32.2690   48.3070 N   0  0  0  0  0  0  0  0  0  0  0  0
   62.5710   32.4100   47.8030 C   0  0  0  0  0  0  0  0  0  0  0  0
   59.5349   33.2174   45.3936 H   0  0  0  0  0  0  0  0  0  0  0  0
   58.6605   31.8404   44.4092 H   0  0  0  0  0  0  0  0  0  0  0  0
   58.3191   29.5411   44.5296 H   0  0  0  0  0  0  0  0  0  0  0  0
   58.3904   28.7978   48.3033 H   0  0  0  0  0  0  0  0  0  0  0  0
   58.6229   30.7086   50.5287 H   0  0  0  0  0  0  0  0  0  0  0  0
   60.2565   30.0099   50.2642 H   0  0  0  0  0  0  0  0  0  0  0  0
   60.0311   31.7920   50.2642 H   0  0  0  0  0  0  0  0  0  0  0  0
   60.1949   33.7645   47.1486 H   0  0  0  0  0  0  0  0  0  0  0  0
   59.5156   33.5681   48.8110 H   0  0  0  0  0  0  0  0  0  0  0  0
   61.0514   33.7554   50.5444 H   0  0  0  0  0  0  0  0  0  0  0  0
   63.3695   33.4941   51.4313 H   0  0  0  0  0  0  0  0  0  0  0  0
   67.3740   32.9005   51.8049 H   0  0  0  0  0  0  0  0  0  0  0  0
   66.4935   32.0752   53.1473 H   0  0  0  0  0  0  0  0  0  0  0  0
   68.7418   31.0892   51.4093 H   0  0  0  0  0  0  0  0  0  0  0  0
   68.3690   30.8031   53.1782 H   0  0  0  0  0  0  0  0  0  0  0  0
   67.5410   29.3230   50.8200 H   0  0  0  0  0  0  0  0  0  0  0  0
   65.6992   28.3240   52.0154 H   0  0  0  0  0  0  0  0  0  0  0  0
   65.8858   29.6137   53.2615 H   0  0  0  0  0  0  0  0  0  0  0  0
   65.0154   29.8738   50.3519 H   0  0  0  0  0  0  0  0  0  0  0  0
   64.1879   30.4510   51.8483 H   0  0  0  0  0  0  0  0  0  0  0  0
   64.5660   31.8640   47.6900 H   0  0  0  0  0  0  0  0  0  0  0  0
   62.3601   32.1005   46.7687 H   0  0  0  0  0  0  0  0  0  0  0  0
  1  2  2  0
  2  3  1  0
  3  4  2  3
  4  5  1  0
  5  6  2  0
  6  7  1  0
  6  8  1  0
  8  9  1  0
  9 10  2  0
  9 11  1  0
 11 12  1  0
 12 13  2  0
  3 14  1  0
 14 15  2  0
 15 16  1  0
 15 17  1  0
 17 18  1  0
 18 19  1  0
 19 20  2  0
 20 21  1  0
 21 22  2  0
 22 23  1  0
 23 24  2  0
 23 25  1  0
 25 26  1  0
 26 27  1  0
 27 28  1  0
 28 29  1  0
 29 30  1  0
 22 31  1  0
 31 32  2  0
 17  2  1  0
 32 19  1  0
 12  5  1  0
 30 25  1  0
  1 33  1  0
  1 34  1  0
  4 35  1  0
 14 36  1  0
 16 37  1  0
 16 38  1  0
 16 39  1  0
 18 40  1  0
 18 41  1  0
 20 42  1  0
 21 43  1  0
 26 44  1  0
 26 45  1  0
 27 46  1  0
 27 47  1  0
 28 48  1  0
 29 49  1  0
 29 50  1  0
 30 51  1  0
 30 52  1  0
 31 53  1  0
 32 54  1  0
M  CHG  4   7  -1   8  -1  11  -1  31   1
M  END
>  <UniqueID>  (50) 
47

>  <SMILES>  (50) 
C=c1c(=Cc2c([O-])[n-]c(=O)[n-]c2=O)cc(C)n1Cc1ccc(C(=O)N2CCNCC2)[nH+]c1

>  <Energy>  (50) 
109.94050918202423

>  <Genealogy>  (50) 
C=c1c(=Cc2c([O-])[n-]c(=O)[n-]c2=O)cc(C)n1Cc1ccc(C(=O)N2CCNCC2)[nH+]c1 (protonated)
C=c1c(=Cc2c([O-])[n-]c(=O)[n-]c2=O)cc(C)n1Cc1ccc(C(=O)N2CCNCC2)[nH+]c1 (3D coordinates assigned)
C=c1c(=Cc2c([O-])[n-]c(=O)[n-]c2=O)cc(C)n1Cc1ccc(C(=O)N2CCNCC2)[nH+]c1 (nonaromatic ring conformer: 109.94050918202423 kcal/mol)

>  <smiles>  (50) 
C=c1c(=Cc2c(O)[nH]c(=O)[nH]c2=O)cc(C)n1Cc1ccc(C(=O)N2CCNCC2)nc1

>  <score_type>  (50) 
oracle

>  <origin>  (50) 
adg

>  <m_score__min__energy>  (50) 
-14.869999999999999

>  <m_primary>  (50) 
energy

$$$$
50:0
     RDKit          3D

 56 59  0  0  0  0  0  0  0  0999 V2000
   59.1866   35.8056   44.1844 H   0  0  0  0  0  0  0  0  0  0  0  0
   58.9650   34.9930   44.8920 C   0  0  0  0  0  0  0  0  0  0  0  0
   57.9720   34.0570   44.5910 C   0  0  0  0  0  0  0  0  0  0  0  0
   57.4209   34.1264   43.6415 H   0  0  0  0  0  0  0  0  0  0  0  0
   57.6780   33.0310   45.4970 C   0  0  0  0  0  0  0  0  0  0  0  0
   56.6550   32.0820   45.2050 N   0  0  0  0  0  0  0  0  0  0  0  0
   56.9220   30.8040   44.0710 S   0  0  0  0  0  0  0  0  0  0  0  0
   55.6010   30.3680   43.5010 O   0  0  0  0  0  0  0  0  0  0  0  0
   57.7980   31.2770   42.9450 O   0  0  0  0  0  0  0  0  0  0  0  0
   57.6940   29.4690   44.9170 C   0  0  0  0  0  0  0  0  0  0  0  0
   57.8930   28.2390   44.2750 C   0  0  0  0  0  0  0  0  0  0  0  0
   57.6279   28.1254   43.2135 H   0  0  0  0  0  0  0  0  0  0  0  0
   58.4270   27.1570   44.9790 C   0  0  0  0  0  0  0  0  0  0  0  0
   58.5868   26.1965   44.4672 H   0  0  0  0  0  0  0  0  0  0  0  0
   58.7610   27.2890   46.3370 C   0  0  0  0  0  0  0  0  0  0  0  0
   59.2610   26.1020   47.1200 C   0  0  0  0  0  0  0  0  0  0  0  0
   59.7123   26.4538   48.0594 H   0  0  0  0  0  0  0  0  0  0  0  0
   60.0072   25.5682   46.5132 H   0  0  0  0  0  0  0  0  0  0  0  0
   58.1640   25.1840   47.4290 N   0  0  0  0  0  0  0  0  0  0  0  0
   57.2410   24.8120   46.5910 C   0  0  0  0  0  0  0  0  0  0  0  0
   57.4340   23.7500   45.7590 N   0  0  0  0  0  0  0  0  0  0  0  0
   56.4860   23.3750   44.8610 C   0  0  0  0  0  0  0  0  0  0  0  0
   56.7380   22.2140   43.9520 C   0  0  0  0  0  0  0  0  0  0  0  0
   56.9334   21.3136   44.5528 H   0  0  0  0  0  0  0  0  0  0  0  0
   55.8552   22.0468   43.3174 H   0  0  0  0  0  0  0  0  0  0  0  0
   57.6106   22.4279   43.3174 H   0  0  0  0  0  0  0  0  0  0  0  0
   55.2840   24.0850   44.7880 C   0  0  0  0  0  0  0  0  0  0  0  0
   54.5047   23.8000   44.0658 H   0  0  0  0  0  0  0  0  0  0  0  0
   55.0960   25.1640   45.6530 C   0  0  0  0  0  0  0  0  0  0  0  0
   54.0260   25.8250   45.6190 O   0  0  0  0  0  0  0  0  0  0  0  0
   56.0730   25.5040   46.5350 N   0  0  0  0  0  0  0  0  0  0  0  0
   58.5720   28.5250   46.9740 C   0  0  0  0  0  0  0  0  0  0  0  0
   58.8444   28.6427   48.0332 H   0  0  0  0  0  0  0  0  0  0  0  0
   58.0390   29.6070   46.2680 C   0  0  0  0  0  0  0  0  0  0  0  0
   57.8896   30.5715   46.7753 H   0  0  0  0  0  0  0  0  0  0  0  0
   58.3890   32.9350   46.6980 C   0  0  0  0  0  0  0  0  0  0  0  0
   58.1484   32.1354   47.4141 H   0  0  0  0  0  0  0  0  0  0  0  0
   59.4090   33.8550   46.9940 C   0  0  0  0  0  0  0  0  0  0  0  0
   60.1860   33.7390   48.2460 C   0  0  0  0  0  0  0  0  0  0  0  0
   59.7330   34.2740   49.2950 O   0  0  0  0  0  0  0  0  0  0  0  0
   61.4480   33.0420   48.2880 N   0  0  0  0  0  0  0  0  0  0  0  0
   61.9300   32.4140   49.5220 C   0  0  0  0  0  0  0  0  0  0  0  0
   61.2662   32.6836   50.3567 H   0  0  0  0  0  0  0  0  0  0  0  0
   61.9362   31.3203   49.4048 H   0  0  0  0  0  0  0  0  0  0  0  0
   63.3500   32.9120   49.8130 C   0  0  0  0  0  0  0  0  0  0  0  0
   63.3148   33.9873   50.0421 H   0  0  0  0  0  0  0  0  0  0  0  0
   63.7513   32.3499   50.6692 H   0  0  0  0  0  0  0  0  0  0  0  0
   64.1970   32.7030   48.6970 O   0  0  0  0  0  0  0  0  0  0  0  0
   63.7500   33.4710   47.5940 C   0  0  0  0  0  0  0  0  0  0  0  0
   63.7066   34.5303   47.8873 H   0  0  0  0  0  0  0  0  0  0  0  0
   64.4542   33.3301   46.7608 H   0  0  0  0  0  0  0  0  0  0  0  0
   62.3580   33.0200   47.1380 C   0  0  0  0  0  0  0  0  0  0  0  0
   61.9857   33.7027   46.3600 H   0  0  0  0  0  0  0  0  0  0  0  0
   62.4136   32.0009   46.7277 H   0  0  0  0  0  0  0  0  0  0  0  0
   59.6770   34.8980   46.0910 C   0  0  0  0  0  0  0  0  0  0  0  0
   60.4506   35.6430   46.3289 H   0  0  0  0  0  0  0  0  0  0  0  0
  1  2  1  0
  2  3  2  0
  3  4  1  0
  3  5  1  0
  5  6  1  0
  6  7  1  0
  7  8  2  0
  7  9  2  0
  7 10  1  0
 10 11  2  0
 11 12  1  0
 11 13  1  0
 13 14  1  0
 13 15  2  0
 15 16  1  0
 16 17  1  0
 16 18  1  0
 16 19  1  0
 19 20  2  0
 20 21  1  0
 21 22  1  0
 22 23  1  0
 23 24  1  0
 23 25  1  0
 23 26  1  0
 22 27  2  0
 27 28  1  0
 27 29  1  0
 29 30  2  0
 29 31  1  0
 15 32  1  0
 32 33  1  0
 32 34  2  0
 34 35  1  0
  5 36  2  0
 36 37  1  0
 36 38  1  0
 38 39  1  0
 39 40  2  0
 39 41  1  0
 41 42  1  0
 42 43  1  0
 42 44  1  0
 42 45  1  0
 45 46  1  0
 45 47  1  0
 45 48  1  0
 48 49  1  0
 49 50  1  0
 49 51  1  0
 49 52  1  0
 52 53  1  0
 52 54  1  0
 38 55  2  0
 55 56  1  0
 55  2  1  0
 34 10  1  0
 52 41  1  0
 31 20  1  0
M  CHG  3   6  -1  21  -1  31  -1
M  END
>  <UniqueID>  (51) 
48

>  <SMILES>  (51) 
Cc1cc(=O)[n-]/c(=N/Cc2ccc(S(=O)(=O)[N-]c3cccc(C(=O)N4CCOCC4)c3)cc2)[n-]1

>  <Energy>  (51) 
68.368658081748

>  <Genealogy>  (51) 
Cc1cc(=O)[n-]c(=NCc2ccc(S(=O)(=O)[N-]c3cccc(C(=O)N4CCOCC4)c3)cc2)[n-]1 (protonated)
Cc1cc(=O)[n-]/c(=N/Cc2ccc(S(=O)(=O)[N-]c3cccc(C(=O)N4CCOCC4)c3)cc2)[n-]1 (cis-trans isomerization)
Cc1cc(=O)[n-]/c(=N/Cc2ccc(S(=O)(=O)[N-]c3cccc(C(=O)N4CCOCC4)c3)cc2)[n-]1 (3D coordinates assigned)
Cc1cc(=O)[n-]/c(=N/Cc2ccc(S(=O)(=O)[N-]c3cccc(C(=O)N4CCOCC4)c3)cc2)[n-]1 (nonaromatic ring conformer: 68.368658081748 kcal/mol)

>  <smiles>  (51) 
Cc1cc(=O)[nH]c(=NCc2ccc(S(=O)(=O)Nc3cccc(C(=O)N4CCOCC4)c3)cc2)[nH]1

>  <score_type>  (51) 
oracle

>  <origin>  (51) 
adg

>  <m_score__min__energy>  (51) 
-14.99

>  <m_primary>  (51) 
energy

$$$$
51:0
     RDKit          3D

 62 65  0  0  0  0  0  0  0  0999 V2000
   54.7780   26.3380   46.0190 O   0  0  0  0  0  0  0  0  0  0  0  0
   55.9320   25.8410   45.9310 C   0  0  0  0  0  0  0  0  0  0  0  0
   57.1230   26.7380   45.7020 C   0  0  0  0  0  0  0  0  0  0  0  0
   57.6180   27.3050   46.9590 N   0  0  0  0  0  0  0  0  0  0  0  0
   58.6170   28.3460   47.0490 C   0  0  0  0  0  0  0  0  0  0  0  0
   59.5070   28.4080   48.1410 C   0  0  0  0  0  0  0  0  0  0  0  0
   60.4610   29.4220   48.2260 C   0  0  0  0  0  0  0  0  0  0  0  0
   60.5620   30.3820   47.2160 C   0  0  0  0  0  0  0  0  0  0  0  0
   61.7710   31.6580   47.3450 S   0  0  0  0  0  0  0  0  0  0  0  0
   63.0690   31.1410   46.7920 O   0  0  0  0  0  0  0  0  0  0  0  0
   61.3440   32.8480   46.5330 O   0  0  0  0  0  0  0  0  0  0  0  0
   61.9600   32.0950   49.0310 N   0  0  0  0  0  0  0  0  0  0  0  0
   61.4100   33.4380   49.3190 C   0  0  0  0  0  0  0  0  0  0  0  0
   62.4940   34.5300   49.3620 C   0  0  0  0  0  0  0  0  0  0  0  0
   63.5410   34.2170   48.4710 O   0  0  0  0  0  0  0  0  0  0  0  0
   64.2630   33.0910   48.9400 C   0  0  0  0  0  0  0  0  0  0  0  0
   63.3590   31.9550   49.4750 C   0  0  0  0  0  0  0  0  0  0  0  0
   59.6900   30.3300   46.1220 C   0  0  0  0  0  0  0  0  0  0  0  0
   58.7020   29.3310   46.0400 C   0  0  0  0  0  0  0  0  0  0  0  0
   57.8160   29.2590   44.9100 N   0  0  0  0  0  0  0  0  0  0  0  0
   56.8160   30.2140   44.5360 C   0  0  0  0  0  0  0  0  0  0  0  0
   55.5990   30.0170   44.8020 O   0  0  0  0  0  0  0  0  0  0  0  0
   57.2070   31.4010   43.7170 C   0  0  0  0  0  0  0  0  0  0  0  0
   57.7670   32.4760   44.6050 C   0  0  0  0  0  0  0  0  0  0  0  0
   58.6250   33.4570   44.0780 C   0  0  0  0  0  0  0  0  0  0  0  0
   59.1180   34.4760   44.9000 C   0  0  0  0  0  0  0  0  0  0  0  0
   58.7510   34.5300   46.2480 C   0  0  0  0  0  0  0  0  0  0  0  0
   57.8850   33.5670   46.7760 C   0  0  0  0  0  0  0  0  0  0  0  0
   57.3900   32.5450   45.9580 C   0  0  0  0  0  0  0  0  0  0  0  0
   56.0970   24.4410   46.1870 N   0  0  0  0  0  0  0  0  0  0  0  0
   56.4690   23.4520   45.2210 C   0  0  0  0  0  0  0  0  0  0  0  0
   57.4590   22.4960   45.5040 C   0  0  0  0  0  0  0  0  0  0  0  0
   57.8340   21.5640   44.5310 C   0  0  0  0  0  0  0  0  0  0  0  0
   57.2390   21.5940   43.2660 C   0  0  0  0  0  0  0  0  0  0  0  0
   57.6070   20.6920   42.3220 F   0  0  0  0  0  0  0  0  0  0  0  0
   56.2770   22.5640   42.9700 C   0  0  0  0  0  0  0  0  0  0  0  0
   55.9020   23.4970   43.9410 C   0  0  0  0  0  0  0  0  0  0  0  0
   57.9271   26.1517   45.2332 H   0  0  0  0  0  0  0  0  0  0  0  0
   56.8106   27.5664   45.0492 H   0  0  0  0  0  0  0  0  0  0  0  0
   57.2150   26.9050   47.8370 H   0  0  0  0  0  0  0  0  0  0  0  0
   59.4483   27.6484   48.9345 H   0  0  0  0  0  0  0  0  0  0  0  0
   61.1372   29.4660   49.0925 H   0  0  0  0  0  0  0  0  0  0  0  0
   60.6827   33.6955   48.5349 H   0  0  0  0  0  0  0  0  0  0  0  0
   60.9411   33.3976   50.3132 H   0  0  0  0  0  0  0  0  0  0  0  0
   62.0492   35.4941   49.0745 H   0  0  0  0  0  0  0  0  0  0  0  0
   62.8996   34.5909   50.3827 H   0  0  0  0  0  0  0  0  0  0  0  0
   64.8660   32.6941   48.1100 H   0  0  0  0  0  0  0  0  0  0  0  0
   64.8835   33.4330   49.7814 H   0  0  0  0  0  0  0  0  0  0  0  0
   63.7499   30.9924   49.1136 H   0  0  0  0  0  0  0  0  0  0  0  0
   63.3694   32.0068   50.5737 H   0  0  0  0  0  0  0  0  0  0  0  0
   59.7778   31.0768   45.3191 H   0  0  0  0  0  0  0  0  0  0  0  0
   57.9691   31.1017   42.9824 H   0  0  0  0  0  0  0  0  0  0  0  0
   56.3190   31.7889   43.1964 H   0  0  0  0  0  0  0  0  0  0  0  0
   58.9096   33.4233   43.0160 H   0  0  0  0  0  0  0  0  0  0  0  0
   59.7958   35.2364   44.4849 H   0  0  0  0  0  0  0  0  0  0  0  0
   59.1433   35.3298   46.8933 H   0  0  0  0  0  0  0  0  0  0  0  0
   57.5926   33.6129   47.8354 H   0  0  0  0  0  0  0  0  0  0  0  0
   56.7037   31.7931   46.3748 H   0  0  0  0  0  0  0  0  0  0  0  0
   57.9402   22.4806   46.4930 H   0  0  0  0  0  0  0  0  0  0  0  0
   58.5978   20.8066   44.7611 H   0  0  0  0  0  0  0  0  0  0  0  0
   55.8148   22.5931   41.9723 H   0  0  0  0  0  0  0  0  0  0  0  0
   55.1581   24.2702   43.6987 H   0  0  0  0  0  0  0  0  0  0  0  0
  1  2  2  0
  2  3  1  0
  3  4  1  0
  4  5  1  0
  5  6  2  0
  6  7  1  0
  7  8  2  0
  8  9  1  0
  9 10  2  0
  9 11  2  0
  9 12  1  0
 12 13  1  0
 13 14  1  0
 14 15  1  0
 15 16  1  0
 16 17  1  0
  8 18  1  0
 18 19  2  0
 19 20  1  0
 20 21  1  0
 21 22  2  0
 21 23  1  0
 23 24  1  0
 24 25  2  0
 25 26  1  0
 26 27  2  0
 27 28  1  0
 28 29  2  0
  2 30  1  0
 30 31  1  0
 31 32  2  0
 32 33  1  0
 33 34  2  0
 34 35  1  0
 34 36  1  0
 36 37  2  0
 19  5  1  0
 29 24  1  0
 37 31  1  0
 17 12  1  0
  3 38  1  0
  3 39  1  0
  4 40  1  0
  6 41  1  0
  7 42  1  0
 13 43  1  0
 13 44  1  0
 14 45  1  0
 14 46  1  0
 16 47  1  0
 16 48  1  0
 17 49  1  0
 17 50  1  0
 18 51  1  0
 23 52  1  0
 23 53  1  0
 25 54  1  0
 26 55  1  0
 27 56  1  0
 28 57  1  0
 29 58  1  0
 32 59  1  0
 33 60  1  0
 36 61  1  0
 37 62  1  0
M  CHG  2  20  -1  30  -1
M  END
>  <UniqueID>  (52) 
49

>  <SMILES>  (52) 
O=C(CNc1ccc(S(=O)(=O)N2CCOCC2)cc1[N-]C(=O)Cc1ccccc1)[N-]c1ccc(F)cc1

>  <Energy>  (52) 
83.96261509891195

>  <Genealogy>  (52) 
O=C(CNc1ccc(S(=O)(=O)N2CCOCC2)cc1[N-]C(=O)Cc1ccccc1)[N-]c1ccc(F)cc1 (protonated)
O=C(CNc1ccc(S(=O)(=O)N2CCOCC2)cc1[N-]C(=O)Cc1ccccc1)[N-]c1ccc(F)cc1 (3D coordinates assigned)
O=C(CNc1ccc(S(=O)(=O)N2CCOCC2)cc1[N-]C(=O)Cc1ccccc1)[N-]c1ccc(F)cc1 (nonaromatic ring conformer: 83.96261509891195 kcal/mol)

>  <smiles>  (52) 
O=C(CNc1ccc(S(=O)(=O)N2CCOCC2)cc1NC(=O)Cc1ccccc1)Nc1ccc(F)cc1

>  <score_type>  (52) 
oracle

>  <origin>  (52) 
adg

>  <m_score__min__energy>  (52) 
-13.17

>  <m_primary>  (52) 
energy

$$$$
52:0
     RDKit          3D

 45 48  0  0  0  0  0  0  0  0999 V2000
   60.3220   27.9830   46.5180 C   0  0  0  0  0  0  0  0  0  0  0  0
   59.2860   28.8040   46.2880 C   0  0  0  0  0  0  0  0  0  0  0  0
   58.1010   28.5430   45.5790 C   0  0  0  0  0  0  0  0  0  0  0  0
   57.6500   27.4050   45.0160 C   0  0  0  0  0  0  0  0  0  0  0  0
   57.4030   26.1330   45.7180 C   0  0  0  0  0  0  0  0  0  0  0  0
   56.1260   25.8320   46.2100 C   0  0  0  0  0  0  0  0  0  0  0  0
   55.0640   26.7070   45.9970 O   0  0  0  0  0  0  0  0  0  0  0  0
   55.9200   24.6750   46.8940 N   0  0  0  0  0  0  0  0  0  0  0  0
   56.9360   23.8050   47.1240 C   0  0  0  0  0  0  0  0  0  0  0  0
   56.7190   22.7380   47.7560 O   0  0  0  0  0  0  0  0  0  0  0  0
   58.1870   24.0870   46.6790 N   0  0  0  0  0  0  0  0  0  0  0  0
   58.4450   25.2290   45.9910 C   0  0  0  0  0  0  0  0  0  0  0  0
   59.6220   25.4680   45.6080 O   0  0  0  0  0  0  0  0  0  0  0  0
   57.3640   29.6740   45.5260 N   0  0  0  0  0  0  0  0  0  0  0  0
   58.0820   30.5800   46.2140 C   0  0  0  0  0  0  0  0  0  0  0  0
   57.7060   31.7720   46.3720 O   0  0  0  0  0  0  0  0  0  0  0  0
   59.2450   30.0970   46.6930 N   0  0  0  0  0  0  0  0  0  0  0  0
   60.2390   30.8500   47.4100 C   0  0  0  0  0  0  0  0  0  0  0  0
   61.0210   31.7990   46.7360 C   0  0  0  0  0  0  0  0  0  0  0  0
   62.0030   32.5210   47.4220 C   0  0  0  0  0  0  0  0  0  0  0  0
   62.2270   32.2930   48.7910 C   0  0  0  0  0  0  0  0  0  0  0  0
   63.2310   33.0460   49.4960 N   0  0  0  0  0  0  0  0  0  0  0  0
   64.6460   32.6740   49.3690 C   0  0  0  0  0  0  0  0  0  0  0  0
   65.4870   33.4150   50.4090 C   0  0  0  0  0  0  0  0  0  0  0  0
   64.7700   33.4940   51.6210 O   0  0  0  0  0  0  0  0  0  0  0  0
   63.7190   34.4390   51.5050 C   0  0  0  0  0  0  0  0  0  0  0  0
   62.8660   34.2680   50.2250 C   0  0  0  0  0  0  0  0  0  0  0  0
   61.4460   31.3370   49.4610 C   0  0  0  0  0  0  0  0  0  0  0  0
   60.4660   30.6160   48.7740 C   0  0  0  0  0  0  0  0  0  0  0  0
   61.1873   28.3382   47.0969 H   0  0  0  0  0  0  0  0  0  0  0  0
   60.3061   26.9547   46.1277 H   0  0  0  0  0  0  0  0  0  0  0  0
   57.4480   27.4274   43.9349 H   0  0  0  0  0  0  0  0  0  0  0  0
   55.1300   27.4490   45.3100 H   0  0  0  0  0  0  0  0  0  0  0  0
   60.8613   31.9765   45.6622 H   0  0  0  0  0  0  0  0  0  0  0  0
   62.6035   33.2716   46.8872 H   0  0  0  0  0  0  0  0  0  0  0  0
   64.7511   31.5900   49.5234 H   0  0  0  0  0  0  0  0  0  0  0  0
   64.9984   32.9484   48.3637 H   0  0  0  0  0  0  0  0  0  0  0  0
   66.4288   32.8712   50.5745 H   0  0  0  0  0  0  0  0  0  0  0  0
   65.7093   34.4296   50.0467 H   0  0  0  0  0  0  0  0  0  0  0  0
   63.0590   34.3332   52.3786 H   0  0  0  0  0  0  0  0  0  0  0  0
   64.1860   35.4334   51.4492 H   0  0  0  0  0  0  0  0  0  0  0  0
   61.8043   34.2125   50.5074 H   0  0  0  0  0  0  0  0  0  0  0  0
   63.0511   35.1308   49.5683 H   0  0  0  0  0  0  0  0  0  0  0  0
   61.6070   31.1547   50.5338 H   0  0  0  0  0  0  0  0  0  0  0  0
   59.8691   29.8605   49.3060 H   0  0  0  0  0  0  0  0  0  0  0  0
  1  2  2  0
  2  3  1  0
  3  4  2  3
  4  5  1  0
  5  6  2  0
  6  7  1  0
  6  8  1  0
  8  9  1  0
  9 10  2  0
  9 11  1  0
 11 12  1  0
 12 13  2  0
  3 14  1  0
 14 15  1  0
 15 16  2  0
 15 17  1  0
 17 18  1  0
 18 19  2  0
 19 20  1  0
 20 21  2  0
 21 22  1  0
 22 23  1  0
 23 24  1  0
 24 25  1  0
 25 26  1  0
 26 27  1  0
 21 28  1  0
 28 29  2  0
 17  2  1  0
 29 18  1  0
 12  5  1  0
 27 22  1  0
  1 30  1  0
  1 31  1  0
  4 32  1  0
  7 33  1  0
 19 34  1  0
 20 35  1  0
 23 36  1  0
 23 37  1  0
 24 38  1  0
 24 39  1  0
 26 40  1  0
 26 41  1  0
 27 42  1  0
 27 43  1  0
 28 44  1  0
 29 45  1  0
M  CHG  3   8  -1  11  -1  14  -1
M  END
>  <UniqueID>  (53) 
50

>  <SMILES>  (53) 
C=c1c(=Cc2c(O)[n-]c(=O)[n-]c2=O)[n-]c(=O)n1-c1ccc(N2CCOCC2)cc1

>  <Energy>  (53) 
113.39486508297239

>  <Genealogy>  (53) 
C=c1c(=Cc2c(O)[n-]c(=O)[n-]c2=O)[n-]c(=O)n1-c1ccc(N2CCOCC2)cc1 (protonated)
C=c1c(=Cc2c(O)[n-]c(=O)[n-]c2=O)[n-]c(=O)n1-c1ccc(N2CCOCC2)cc1 (3D coordinates assigned)
C=c1c(=Cc2c(O)[n-]c(=O)[n-]c2=O)[n-]c(=O)n1-c1ccc(N2CCOCC2)cc1 (nonaromatic ring conformer: 113.39486508297239 kcal/mol)

>  <smiles>  (53) 
C=c1c(=Cc2c(O)[nH]c(=O)[nH]c2=O)[nH]c(=O)n1-c1ccc(N2CCOCC2)cc1

>  <score_type>  (53) 
oracle

>  <origin>  (53) 
adg

>  <m_score__min__energy>  (53) 
-13.779999999999999

>  <m_primary>  (53) 
energy

$$$$
53:0
     RDKit          3D

 74 77  0  0  0  0  0  0  0  0999 V2000
   59.7158   31.6414   50.7536 H   0  0  0  0  0  0  0  0  0  0  0  0
   59.8640   30.6160   50.3840 C   0  0  0  0  0  0  0  0  0  0  0  0
   59.2250   30.2060   49.2610 N   0  0  0  0  0  0  0  0  0  0  0  0
   59.3530   28.9450   48.7670 C   0  0  0  0  0  0  0  0  0  0  0  0
   58.6610   28.5790   47.5080 C   0  0  0  0  0  0  0  0  0  0  0  0
   57.8280   27.5020   47.4770 N   0  0  0  0  0  0  0  0  0  0  0  0
   57.1860   27.1040   46.3460 C   0  0  0  0  0  0  0  0  0  0  0  0
   56.3050   25.9170   46.3860 C   0  0  0  0  0  0  0  0  0  0  0  0
   55.1100   26.0010   45.9960 O   0  0  0  0  0  0  0  0  0  0  0  0
   56.7940   24.6610   46.8610 N   0  0  0  0  0  0  0  0  0  0  0  0
   56.1680   23.8260   46.8720 H   0  0  0  0  0  0  0  0  0  0  0  0
   57.7740   24.5510   47.2010 H   0  0  0  0  0  0  0  0  0  0  0  0
   57.3850   27.8190   45.1540 C   0  0  0  0  0  0  0  0  0  0  0  0
   56.8664   27.5099   44.2345 H   0  0  0  0  0  0  0  0  0  0  0  0
   58.2430   28.9250   45.1350 C   0  0  0  0  0  0  0  0  0  0  0  0
   58.4390   29.5480   44.0050 N   0  0  0  0  0  0  0  0  0  0  0  0
   57.8440   30.8220   43.5910 C   0  0  0  0  0  0  0  0  0  0  0  0
   58.6091   31.6104   43.6459 H   0  0  0  0  0  0  0  0  0  0  0  0
   57.4717   30.7153   42.5614 H   0  0  0  0  0  0  0  0  0  0  0  0
   56.6870   31.1960   44.4820 C   0  0  0  0  0  0  0  0  0  0  0  0
   55.7400   30.3760   44.6180 O   0  0  0  0  0  0  0  0  0  0  0  0
   56.6430   32.4100   45.2510 N   0  0  0  0  0  0  0  0  0  0  0  0
   57.7280   33.2350   45.7910 C   0  0  0  0  0  0  0  0  0  0  0  0
   57.2607   34.0977   46.2884 H   0  0  0  0  0  0  0  0  0  0  0  0
   58.5280   32.5070   46.8780 C   0  0  0  0  0  0  0  0  0  0  0  0
   58.1756   32.8277   47.8694 H   0  0  0  0  0  0  0  0  0  0  0  0
   58.3867   31.4213   46.7721 H   0  0  0  0  0  0  0  0  0  0  0  0
   59.5956   32.7498   46.7721 H   0  0  0  0  0  0  0  0  0  0  0  0
   58.6180   33.8010   44.6780 C   0  0  0  0  0  0  0  0  0  0  0  0
   59.4660   34.3403   45.1252 H   0  0  0  0  0  0  0  0  0  0  0  0
   58.9952   32.9765   44.0552 H   0  0  0  0  0  0  0  0  0  0  0  0
   58.0312   34.4922   44.0552 H   0  0  0  0  0  0  0  0  0  0  0  0
   58.8760   29.3140   46.3310 C   0  0  0  0  0  0  0  0  0  0  0  0
   59.5380   30.1924   46.3433 H   0  0  0  0  0  0  0  0  0  0  0  0
   60.1670   28.0240   49.4460 C   0  0  0  0  0  0  0  0  0  0  0  0
   60.2584   26.9926   49.0748 H   0  0  0  0  0  0  0  0  0  0  0  0
   60.8650   28.4200   50.6000 C   0  0  0  0  0  0  0  0  0  0  0  0
   61.7730   27.4350   51.2870 C   0  0  0  0  0  0  0  0  0  0  0  0
   61.6734   27.5431   52.3771 H   0  0  0  0  0  0  0  0  0  0  0  0
   61.4941   26.4124   50.9929 H   0  0  0  0  0  0  0  0  0  0  0  0
   62.8149   27.6299   50.9929 H   0  0  0  0  0  0  0  0  0  0  0  0
   60.7120   29.7420   51.0770 C   0  0  0  0  0  0  0  0  0  0  0  0
   61.4210   30.2430   52.2770 C   0  0  0  0  0  0  0  0  0  0  0  0
   60.8330   30.2460   53.3920 O   0  0  0  0  0  0  0  0  0  0  0  0
   62.7700   30.7400   52.1780 N   0  0  0  0  0  0  0  0  0  0  0  0
   63.7290   30.0780   51.2790 C   0  0  0  0  0  0  0  0  0  0  0  0
   63.7368   29.0001   51.4983 H   0  0  0  0  0  0  0  0  0  0  0  0
   63.4134   30.2687   50.2426 H   0  0  0  0  0  0  0  0  0  0  0  0
   65.1510   30.6310   51.4540 C   0  0  0  0  0  0  0  0  0  0  0  0
   65.5525   30.2708   52.4127 H   0  0  0  0  0  0  0  0  0  0  0  0
   65.7503   30.2782   50.6017 H   0  0  0  0  0  0  0  0  0  0  0  0
   65.1990   32.1800   51.4480 C   0  0  0  0  0  0  0  0  0  0  0  0
   66.1271   32.4448   51.9758 H   0  0  0  0  0  0  0  0  0  0  0  0
   65.2650   32.7350   50.0370 C   0  0  0  0  0  0  0  0  0  0  0  0
   66.3820   33.0740   49.5560 O   0  0  0  0  0  0  0  0  0  0  0  0
   64.0930   32.8150   49.2060 N   0  0  0  0  0  0  0  0  0  0  0  0
   64.1320   33.3300   47.8480 C   0  0  0  0  0  0  0  0  0  0  0  0
   64.5615   34.3426   47.8342 H   0  0  0  0  0  0  0  0  0  0  0  0
   64.7582   32.7044   47.1949 H   0  0  0  0  0  0  0  0  0  0  0  0
   62.6840   33.3610   47.3760 C   0  0  0  0  0  0  0  0  0  0  0  0
   62.2915   34.3880   47.4111 H   0  0  0  0  0  0  0  0  0  0  0  0
   62.5893   33.0134   46.3367 H   0  0  0  0  0  0  0  0  0  0  0  0
   61.9130   32.4640   48.3410 C   0  0  0  0  0  0  0  0  0  0  0  0
   60.9337   32.9069   48.5750 H   0  0  0  0  0  0  0  0  0  0  0  0
   61.7260   31.4710   47.9063 H   0  0  0  0  0  0  0  0  0  0  0  0
   62.7660   32.3710   49.5990 C   0  0  0  0  0  0  0  0  0  0  0  0
   62.3607   33.0231   50.3867 H   0  0  0  0  0  0  0  0  0  0  0  0
   62.7827   31.3486   50.0044 H   0  0  0  0  0  0  0  0  0  0  0  0
   64.0290   32.8370   52.2330 C   0  0  0  0  0  0  0  0  0  0  0  0
   64.4457   33.5907   52.9174 H   0  0  0  0  0  0  0  0  0  0  0  0
   63.3478   33.2847   51.4944 H   0  0  0  0  0  0  0  0  0  0  0  0
   63.2180   31.8300   53.0520 C   0  0  0  0  0  0  0  0  0  0  0  0
   63.8463   31.4206   53.8568 H   0  0  0  0  0  0  0  0  0  0  0  0
   62.3434   32.3325   53.4908 H   0  0  0  0  0  0  0  0  0  0  0  0
  1  2  1  0
  2  3  2  0
  3  4  1  0
  4  5  1  0
  5  6  1  0
  6  7  1  0
  7  8  1  0
  8  9  2  0
  8 10  1  0
 10 11  1  0
 10 12  1  0
  7 13  2  0
 13 14  1  0
 13 15  1  0
 15 16  2  0
 16 17  1  0
 17 18  1  0
 17 19  1  0
 17 20  1  0
 20 21  2  0
 20 22  1  0
 22 23  1  0
 23 24  1  0
 23 25  1  0
 25 26  1  0
 25 27  1  0
 25 28  1  0
 23 29  1  0
 29 30  1  0
 29 31  1  0
 29 32  1  0
 15 33  1  0
 33 34  1  0
  4 35  2  0
 35 36  1  0
 35 37  1  0
 37 38  1  0
 38 39  1  0
 38 40  1  0
 38 41  1  0
 37 42  2  0
 42 43  1  0
 43 44  2  0
 43 45  1  0
 45 46  1  0
 46 47  1  0
 46 48  1  0
 46 49  1  0
 49 50  1  0
 49 51  1  0
 49 52  1  0
 52 53  1  0
 52 54  1  0
 54 55  2  0
 54 56  1  0
 56 57  1  0
 57 58  1  0
 57 59  1  0
 57 60  1  0
 60 61  1  0
 60 62  1  0
 60 63  1  0
 63 64  1  0
 63 65  1  0
 63 66  1  0
 66 67  1  0
 66 68  1  0
 52 69  1  0
 69 70  1  0
 69 71  1  0
 69 72  1  0
 72 73  1  0
 72 74  1  0
 42  2  1  0
 72 45  1  0
 33  5  2  0
 66 56  1  0
M  CHG  2   6  -1  22  -1
M  END
>  <UniqueID>  (54) 
51

>  <SMILES>  (54) 
Cc1cc(-c2c/c(=N\CC(=O)[N-]C(C)C)cc(C(N)=O)[n-]2)ncc1C(=O)N1CCC(C(=O)N2CCCC2)CC1

>  <Energy>  (54) 
84.29087470907044

>  <Genealogy>  (54) 
Cc1cc(-c2cc(=NCC(=O)[N-]C(C)C)cc(C(N)=O)[n-]2)ncc1C(=O)N1CCC(C(=O)N2CCCC2)CC1 (protonated)
Cc1cc(-c2c/c(=N\CC(=O)[N-]C(C)C)cc(C(N)=O)[n-]2)ncc1C(=O)N1CCC(C(=O)N2CCCC2)CC1 (cis-trans isomerization)
Cc1cc(-c2c/c(=N\CC(=O)[N-]C(C)C)cc(C(N)=O)[n-]2)ncc1C(=O)N1CCC(C(=O)N2CCCC2)CC1 (3D coordinates assigned)
Cc1cc(-c2c/c(=N\CC(=O)[N-]C(C)C)cc(C(N)=O)[n-]2)ncc1C(=O)N1CCC(C(=O)N2CCCC2)CC1 (nonaromatic ring conformer: 84.29087470907044 kcal/mol)

>  <smiles>  (54) 
Cc1cc(-c2cc(=NCC(=O)NC(C)C)cc(C(N)=O)[nH]2)ncc1C(=O)N1CCC(C(=O)N2CCCC2)CC1

>  <score_type>  (54) 
oracle

>  <origin>  (54) 
adg

>  <m_score__min__energy>  (54) 
-13.460000000000001

>  <m_primary>  (54) 
energy

$$$$
54:0
     RDKit          3D

 40 42  0  0  0  0  0  0  0  0999 V2000
   54.4130   26.7120   46.7670 H   0  0  0  0  0  0  0  0  0  0  0  0
   55.0380   26.2260   46.0860 N   0  0  0  0  0  0  0  0  0  0  0  0
   56.2960   26.0620   46.3380 C   0  0  0  0  0  0  0  0  0  0  0  0
   56.6063   25.2742   47.0402 H   0  0  0  0  0  0  0  0  0  0  0  0
   57.3240   26.9100   45.7030 C   0  0  0  0  0  0  0  0  0  0  0  0
   57.7530   26.6730   44.3880 C   0  0  0  0  0  0  0  0  0  0  0  0
   57.3194   25.8438   43.8098 H   0  0  0  0  0  0  0  0  0  0  0  0
   58.7290   27.4880   43.8130 C   0  0  0  0  0  0  0  0  0  0  0  0
   59.0602   27.2990   42.7812 H   0  0  0  0  0  0  0  0  0  0  0  0
   59.2880   28.5420   44.5390 C   0  0  0  0  0  0  0  0  0  0  0  0
   60.0583   29.1751   44.0743 H   0  0  0  0  0  0  0  0  0  0  0  0
   58.8760   28.8020   45.8580 C   0  0  0  0  0  0  0  0  0  0  0  0
   59.4540   29.9200   46.6570 C   0  0  0  0  0  0  0  0  0  0  0  0
   60.7080   30.0090   46.7660 O   0  0  0  0  0  0  0  0  0  0  0  0
   58.6120   30.9650   47.3500 C   0  0  0  0  0  0  0  0  0  0  0  0
   57.5507   30.7632   47.1427 H   0  0  0  0  0  0  0  0  0  0  0  0
   58.8186   30.9128   48.4292 H   0  0  0  0  0  0  0  0  0  0  0  0
   58.9490   32.3600   46.8710 C   0  0  0  0  0  0  0  0  0  0  0  0
   60.0710   33.0250   47.3960 C   0  0  0  0  0  0  0  0  0  0  0  0
   60.7049   32.5202   48.1399 H   0  0  0  0  0  0  0  0  0  0  0  0
   60.3880   34.3200   46.9820 C   0  0  0  0  0  0  0  0  0  0  0  0
   61.2762   34.8245   47.3901 H   0  0  0  0  0  0  0  0  0  0  0  0
   59.5820   34.9750   46.0530 C   0  0  0  0  0  0  0  0  0  0  0  0
   59.8386   35.9926   45.7233 H   0  0  0  0  0  0  0  0  0  0  0  0
   58.4500   34.3410   45.5410 C   0  0  0  0  0  0  0  0  0  0  0  0
   57.8006   34.8737   44.8307 H   0  0  0  0  0  0  0  0  0  0  0  0
   58.1320   33.0250   45.9260 C   0  0  0  0  0  0  0  0  0  0  0  0
   56.9160   32.4070   45.4720 N   0  0  0  0  0  0  0  0  0  0  0  0
   56.8090   31.5230   44.5220 C   0  0  0  0  0  0  0  0  0  0  0  0
   57.6410   31.6230   42.9440 S   0  0  0  0  0  0  0  0  0  0  0  0
   56.5640   30.2670   42.3640 C   0  0  0  0  0  0  0  0  0  0  0  0
   57.1236   29.6224   41.6703 H   0  0  0  0  0  0  0  0  0  0  0  0
   55.6893   30.6836   41.8431 H   0  0  0  0  0  0  0  0  0  0  0  0
   56.1040   29.4440   43.5730 C   0  0  0  0  0  0  0  0  0  0  0  0
   56.8086   28.6194   43.7559 H   0  0  0  0  0  0  0  0  0  0  0  0
   55.1090   29.0117   43.3911 H   0  0  0  0  0  0  0  0  0  0  0  0
   56.0730   30.3310   44.7180 N   0  0  0  0  0  0  0  0  0  0  0  0
   55.6690   30.0550   45.6420 H   0  0  0  0  0  0  0  0  0  0  0  0
   57.8860   27.9740   46.4270 C   0  0  0  0  0  0  0  0  0  0  0  0
   57.5481   28.1651   47.4562 H   0  0  0  0  0  0  0  0  0  0  0  0
  1  2  1  0
  2  3  2  0
  3  4  1  0
  3  5  1  0
  5  6  2  0
  6  7  1  0
  6  8  1  0
  8  9  1  0
  8 10  2  0
 10 11  1  0
 10 12  1  0
 12 13  1  0
 13 14  2  0
 13 15  1  0
 15 16  1  0
 15 17  1  0
 15 18  1  0
 18 19  2  0
 19 20  1  0
 19 21  1  0
 21 22  1  0
 21 23  2  0
 23 24  1  0
 23 25  1  0
 25 26  1  0
 25 27  2  0
 27 28  1  0
 28 29  2  3
 29 30  1  0
 30 31  1  0
 31 32  1  0
 31 33  1  0
 31 34  1  0
 34 35  1  0
 34 36  1  0
 34 37  1  0
 37 38  1  0
 12 39  2  0
 39 40  1  0
 39  5  1  0
 27 18  1  0
 37 29  1  0
M  END
>  <UniqueID>  (55) 
52

>  <SMILES>  (55) 
[H]/N=C/c1cccc(C(=O)Cc2ccccc2N=C2NCCS2)c1

>  <Energy>  (55) 
55.664356624893074

>  <Genealogy>  (55) 
[H]/N=C/c1cccc(C(=O)Cc2ccccc2N=C2NCCS2)c1 (cis-trans isomerization)
[H]/N=C/c1cccc(C(=O)Cc2ccccc2N=C2NCCS2)c1 (3D coordinates assigned)
[H]/N=C/c1cccc(C(=O)Cc2ccccc2N=C2NCCS2)c1 (nonaromatic ring conformer: 55.664356624893074 kcal/mol)

>  <smiles>  (55) 
N=Cc1cccc(C(=O)Cc2ccccc2N=C2NCCS2)c1

>  <score_type>  (55) 
oracle

>  <origin>  (55) 
adg

>  <m_score__min__energy>  (55) 
-8.75

>  <m_primary>  (55) 
energy

$$$$
55:0
     RDKit          3D

 52 55  0  0  0  0  0  0  0  0999 V2000
   60.3240   34.5010   49.1760 O   0  0  0  0  0  0  0  0  0  0  0  0
   60.6220   34.2340   47.9790 C   0  0  0  0  0  0  0  0  0  0  0  0
   62.0560   33.8670   47.6210 C   0  0  0  0  0  0  0  0  0  0  0  0
   62.9900   33.8370   48.8480 C   0  0  0  0  0  0  0  0  0  0  0  0
   62.7150   32.6280   49.7700 C   0  0  0  0  0  0  0  0  0  0  0  0
   62.3830   31.3700   49.0490 N   0  0  0  0  0  0  0  0  0  0  0  0
   60.9730   30.9620   49.2430 C   0  0  0  0  0  0  0  0  0  0  0  0
   60.3870   30.4140   47.9760 C   0  0  0  0  0  0  0  0  0  0  0  0
   59.3680   30.9790   47.2370 C   0  0  0  0  0  0  0  0  0  0  0  0
   59.1670   30.0730   46.2040 C   0  0  0  0  0  0  0  0  0  0  0  0
   58.1860   30.1680   45.1000 C   0  0  0  0  0  0  0  0  0  0  0  0
   57.0340   29.3600   45.0730 C   0  0  0  0  0  0  0  0  0  0  0  0
   56.1210   29.4680   44.0190 C   0  0  0  0  0  0  0  0  0  0  0  0
   56.3460   30.3780   42.9860 C   0  0  0  0  0  0  0  0  0  0  0  0
   57.4860   31.1860   43.0010 C   0  0  0  0  0  0  0  0  0  0  0  0
   57.7680   32.3310   41.7030 Cl  0  0  0  0  0  0  0  0  0  0  0  0
   58.4030   31.0820   44.0550 C   0  0  0  0  0  0  0  0  0  0  0  0
   60.0090   29.0720   46.3560 O   0  0  0  0  0  0  0  0  0  0  0  0
   60.7480   29.2510   47.4100 N   0  0  0  0  0  0  0  0  0  0  0  0
   62.7980   31.3880   47.6300 C   0  0  0  0  0  0  0  0  0  0  0  0
   62.1320   32.5270   46.8360 C   0  0  0  0  0  0  0  0  0  0  0  0
   59.5890   34.2810   46.9730 N   0  0  0  0  0  0  0  0  0  0  0  0
   58.1880   34.1240   47.3770 C   0  0  0  0  0  0  0  0  0  0  0  0
   57.3760   33.5400   46.2170 C   0  0  0  0  0  0  0  0  0  0  0  0
   57.5620   34.3040   45.0410 O   0  0  0  0  0  0  0  0  0  0  0  0
   58.9070   34.2050   44.6170 C   0  0  0  0  0  0  0  0  0  0  0  0
   59.8510   34.8420   45.6420 C   0  0  0  0  0  0  0  0  0  0  0  0
   62.4163   34.6702   46.9614 H   0  0  0  0  0  0  0  0  0  0  0  0
   64.0314   33.7841   48.4977 H   0  0  0  0  0  0  0  0  0  0  0  0
   62.8061   34.7514   49.4312 H   0  0  0  0  0  0  0  0  0  0  0  0
   63.6129   32.4487   50.3797 H   0  0  0  0  0  0  0  0  0  0  0  0
   61.8325   32.8870   50.3734 H   0  0  0  0  0  0  0  0  0  0  0  0
   60.9277   30.1880   50.0233 H   0  0  0  0  0  0  0  0  0  0  0  0
   60.3923   31.8476   49.5405 H   0  0  0  0  0  0  0  0  0  0  0  0
   58.8388   31.9253   47.4226 H   0  0  0  0  0  0  0  0  0  0  0  0
   56.8508   28.6403   45.8845 H   0  0  0  0  0  0  0  0  0  0  0  0
   55.2227   28.8333   44.0046 H   0  0  0  0  0  0  0  0  0  0  0  0
   55.6254   30.4596   42.1589 H   0  0  0  0  0  0  0  0  0  0  0  0
   59.2989   31.7201   44.0646 H   0  0  0  0  0  0  0  0  0  0  0  0
   61.4820   28.5880   47.7460 H   0  0  0  0  0  0  0  0  0  0  0  0
   63.8895   31.5164   47.5831 H   0  0  0  0  0  0  0  0  0  0  0  0
   62.4833   30.4361   47.1773 H   0  0  0  0  0  0  0  0  0  0  0  0
   62.7107   32.6948   45.9157 H   0  0  0  0  0  0  0  0  0  0  0  0
   61.0981   32.2148   46.6271 H   0  0  0  0  0  0  0  0  0  0  0  0
   58.1309   33.4454   48.2408 H   0  0  0  0  0  0  0  0  0  0  0  0
   57.7763   35.1069   47.6500 H   0  0  0  0  0  0  0  0  0  0  0  0
   57.7035   32.5064   46.0315 H   0  0  0  0  0  0  0  0  0  0  0  0
   56.3097   33.5603   46.4866 H   0  0  0  0  0  0  0  0  0  0  0  0
   59.1695   33.1436   44.4963 H   0  0  0  0  0  0  0  0  0  0  0  0
   59.0145   34.7382   43.6609 H   0  0  0  0  0  0  0  0  0  0  0  0
   60.8931   34.6353   45.3570 H   0  0  0  0  0  0  0  0  0  0  0  0
   59.6826   35.9288   45.6656 H   0  0  0  0  0  0  0  0  0  0  0  0
  1  2  2  0
  2  3  1  0
  3  4  1  0
  4  5  1  0
  5  6  1  0
  6  7  1  0
  7  8  1  0
  8  9  1  0
  9 10  2  0
 10 11  1  0
 11 12  2  0
 12 13  1  0
 13 14  2  0
 14 15  1  0
 15 16  1  0
 15 17  2  0
 10 18  1  0
 18 19  1  0
  6 20  1  0
 20 21  1  0
  2 22  1  0
 22 23  1  0
 23 24  1  0
 24 25  1  0
 25 26  1  0
 26 27  1  0
 21  3  1  0
 27 22  1  0
 19  8  2  0
 17 11  1  0
  3 28  1  0
  4 29  1  0
  4 30  1  0
  5 31  1  0
  5 32  1  0
  7 33  1  0
  7 34  1  0
  9 35  1  0
 12 36  1  0
 13 37  1  0
 14 38  1  0
 17 39  1  0
 19 40  1  0
 20 41  1  0
 20 42  1  0
 21 43  1  0
 21 44  1  0
 23 45  1  0
 23 46  1  0
 24 47  1  0
 24 48  1  0
 26 49  1  0
 26 50  1  0
 27 51  1  0
 27 52  1  0
M  CHG  1  19   1
M  END
>  <UniqueID>  (56) 
53

>  <SMILES>  (56) 
O=C(C1CCN(Cc2cc(-c3cccc(Cl)c3)o[nH+]2)CC1)N1CCOCC1

>  <Energy>  (56) 
99.42891569194752

>  <Genealogy>  (56) 
O=C(C1CCN(Cc2cc(-c3cccc(Cl)c3)o[nH+]2)CC1)N1CCOCC1 (protonated)
O=C(C1CCN(Cc2cc(-c3cccc(Cl)c3)o[nH+]2)CC1)N1CCOCC1 (3D coordinates assigned)
O=C(C1CCN(Cc2cc(-c3cccc(Cl)c3)o[nH+]2)CC1)N1CCOCC1 (nonaromatic ring conformer: 99.42891569194752 kcal/mol)

>  <smiles>  (56) 
O=C(C1CCN(Cc2cc(-c3cccc(Cl)c3)on2)CC1)N1CCOCC1

>  <score_type>  (56) 
oracle

>  <origin>  (56) 
adg

>  <m_score__min__energy>  (56) 
-7.3399999999999999

>  <m_primary>  (56) 
energy

$$$$
56:0
     RDKit          3D

 32 32  0  0  0  0  0  0  0  0999 V2000
   54.1400   25.6980   46.3770 H   0  0  0  0  0  0  0  0  0  0  0  0
   54.7600   26.3330   45.8890 O   0  0  0  0  0  0  0  0  0  0  0  0
   56.1030   26.4580   46.2430 C   0  0  0  0  0  0  0  0  0  0  0  0
   56.8500   27.5560   45.7990 C   0  0  0  0  0  0  0  0  0  0  0  0
   56.3754   28.3131   45.1575 H   0  0  0  0  0  0  0  0  0  0  0  0
   58.1960   27.7010   46.1630 C   0  0  0  0  0  0  0  0  0  0  0  0
   58.9240   28.8890   45.6730 C   0  0  0  0  0  0  0  0  0  0  0  0
   59.9119   28.7532   45.2088 H   0  0  0  0  0  0  0  0  0  0  0  0
   58.4220   30.1240   45.7750 C   0  0  0  0  0  0  0  0  0  0  0  0
   57.9769   30.4453   46.7283 H   0  0  0  0  0  0  0  0  0  0  0  0
   58.4510   31.0840   44.6190 C   0  0  0  0  0  0  0  0  0  0  0  0
   59.0131   31.9809   44.9182 H   0  0  0  0  0  0  0  0  0  0  0  0
   58.9300   30.5739   43.7702 H   0  0  0  0  0  0  0  0  0  0  0  0
   57.0440   31.5080   44.1780 C   0  0  0  0  0  0  0  0  0  0  0  0
   56.5956   32.1305   44.9663 H   0  0  0  0  0  0  0  0  0  0  0  0
   57.1339   32.0695   43.2364 H   0  0  0  0  0  0  0  0  0  0  0  0
   56.1560   30.3170   43.9320 C   0  0  0  0  0  0  0  0  0  0  0  0
   55.3110   30.0110   44.7590 O   0  0  0  0  0  0  0  0  0  0  0  0
   56.2650   29.5210   42.6660 C   0  0  0  0  0  0  0  0  0  0  0  0
   56.4105   28.4588   42.9121 H   0  0  0  0  0  0  0  0  0  0  0  0
   55.3424   29.6383   42.0786 H   0  0  0  0  0  0  0  0  0  0  0  0
   57.1221   29.8820   42.0786 H   0  0  0  0  0  0  0  0  0  0  0  0
   58.8090   26.7010   46.9510 C   0  0  0  0  0  0  0  0  0  0  0  0
   60.6830   26.7180   47.3680 Br  0  0  0  0  0  0  0  0  0  0  0  0
   58.0580   25.6050   47.3920 C   0  0  0  0  0  0  0  0  0  0  0  0
   58.5348   24.8345   48.0157 H   0  0  0  0  0  0  0  0  0  0  0  0
   56.6990   25.4780   47.0460 C   0  0  0  0  0  0  0  0  0  0  0  0
   55.9160   24.3960   47.4740 O   0  0  0  0  0  0  0  0  0  0  0  0
   55.9020   23.1150   46.8510 C   0  0  0  0  0  0  0  0  0  0  0  0
   55.8934   22.3318   47.6233 H   0  0  0  0  0  0  0  0  0  0  0  0
   55.0028   23.0219   46.2243 H   0  0  0  0  0  0  0  0  0  0  0  0
   56.7990   23.0022   46.2243 H   0  0  0  0  0  0  0  0  0  0  0  0
  1  2  1  0
  2  3  1  0
  3  4  2  0
  4  5  1  0
  4  6  1  0
  6  7  1  0
  7  8  1  0
  7  9  2  0
  9 10  1  0
  9 11  1  0
 11 12  1  0
 11 13  1  0
 11 14  1  0
 14 15  1  0
 14 16  1  0
 14 17  1  0
 17 18  2  0
 17 19  1  0
 19 20  1  0
 19 21  1  0
 19 22  1  0
  6 23  2  0
 23 24  1  0
 23 25  1  0
 25 26  1  0
 25 27  2  0
 27 28  1  0
 28 29  1  0
 29 30  1  0
 29 31  1  0
 29 32  1  0
 27  3  1  0
M  END
>  <UniqueID>  (57) 
54

>  <SMILES>  (57) 
COc1cc(Br)c(/C=C/CCC(C)=O)cc1O

>  <Energy>  (57) 
28.134187731597823

>  <Genealogy>  (57) 
COc1cc(Br)c(/C=C/CCC(C)=O)cc1O (cis-trans isomerization)
COc1cc(Br)c(/C=C/CCC(C)=O)cc1O (3D coordinates assigned)
COc1cc(Br)c(/C=C/CCC(C)=O)cc1O (optimized conformer: 28.134187731597823 kcal/mol)

>  <smiles>  (57) 
COc1cc(Br)c(C=CCCC(C)=O)cc1O

>  <score_type>  (57) 
oracle

>  <origin>  (57) 
adg

>  <m_score__min__energy>  (57) 
-7.1100000000000003

>  <m_primary>  (57) 
energy

$$$$
57:0
     RDKit          3D

 59 63  0  0  0  0  0  0  0  0999 V2000
   56.4330   24.1480   44.7200 C   0  0  0  0  0  0  0  0  0  0  0  0
   57.4190   24.6500   45.8120 C   0  0  0  0  0  0  0  0  0  0  0  0
   56.9150   24.2090   47.2000 C   0  0  0  0  0  0  0  0  0  0  0  0
   58.7720   23.9410   45.5060 C   0  0  0  0  0  0  0  0  0  0  0  0
   59.8180   24.4470   46.3700 N   0  0  0  0  0  0  0  0  0  0  0  0
   59.8940   25.8450   46.5900 C   0  0  0  0  0  0  0  0  0  0  0  0
   60.7890   26.2980   47.3540 O   0  0  0  0  0  0  0  0  0  0  0  0
   58.8220   26.7150   46.0360 C   0  0  0  0  0  0  0  0  0  0  0  0
   59.0270   28.1100   45.8530 C   0  0  0  0  0  0  0  0  0  0  0  0
   60.3160   28.6680   45.8160 C   0  0  0  0  0  0  0  0  0  0  0  0
   60.4830   30.0430   45.7210 C   0  0  0  0  0  0  0  0  0  0  0  0
   59.4070   30.8770   45.6800 N   0  0  0  0  0  0  0  0  0  0  0  0
   59.6460   32.3310   45.6910 C   0  0  0  0  0  0  0  0  0  0  0  0
   60.3610   32.7300   46.9550 C   0  0  0  0  0  0  0  0  0  0  0  0
   61.4450   33.6190   46.9020 C   0  0  0  0  0  0  0  0  0  0  0  0
   62.1420   33.9530   48.0670 C   0  0  0  0  0  0  0  0  0  0  0  0
   61.7770   33.3880   49.2980 C   0  0  0  0  0  0  0  0  0  0  0  0
   62.5200   33.7500   50.5210 C   0  0  0  0  0  0  0  0  0  0  0  0
   61.8730   34.1620   51.5220 O   0  0  0  0  0  0  0  0  0  0  0  0
   63.9560   33.6720   50.5860 N   0  0  0  0  0  0  0  0  0  0  0  0
   64.7490   34.1820   51.6970 C   0  0  0  0  0  0  0  0  0  0  0  0
   66.1880   33.7870   51.3900 C   0  0  0  0  0  0  0  0  0  0  0  0
   66.1020   32.6860   50.3340 C   0  0  0  0  0  0  0  0  0  0  0  0
   67.1190   32.8120   49.4010 F   0  0  0  0  0  0  0  0  0  0  0  0
   66.1900   31.4430   50.9440 F   0  0  0  0  0  0  0  0  0  0  0  0
   64.7350   32.8470   49.6770 C   0  0  0  0  0  0  0  0  0  0  0  0
   60.6810   32.5150   49.3550 C   0  0  0  0  0  0  0  0  0  0  0  0
   59.9840   32.1790   48.1900 C   0  0  0  0  0  0  0  0  0  0  0  0
   58.1320   30.3690   45.6780 C   0  0  0  0  0  0  0  0  0  0  0  0
   57.1560   31.1660   45.7240 O   0  0  0  0  0  0  0  0  0  0  0  0
   57.9140   28.9620   45.6710 C   0  0  0  0  0  0  0  0  0  0  0  0
   56.6350   28.3720   45.5410 C   0  0  0  0  0  0  0  0  0  0  0  0
   55.4760   29.1060   45.2560 O   0  0  0  0  0  0  0  0  0  0  0  0
   56.4920   26.9840   45.6500 C   0  0  0  0  0  0  0  0  0  0  0  0
   55.3220   26.5170   45.6180 O   0  0  0  0  0  0  0  0  0  0  0  0
   57.5820   26.1500   45.7940 N   0  0  0  0  0  0  0  0  0  0  0  0
   55.5512   23.6991   45.2006 H   0  0  0  0  0  0  0  0  0  0  0  0
   56.1175   24.9952   44.0934 H   0  0  0  0  0  0  0  0  0  0  0  0
   56.9325   23.3945   44.0934 H   0  0  0  0  0  0  0  0  0  0  0  0
   57.4980   24.7192   47.9809 H   0  0  0  0  0  0  0  0  0  0  0  0
   55.8522   24.4725   47.3049 H   0  0  0  0  0  0  0  0  0  0  0  0
   57.0350   23.1206   47.3049 H   0  0  0  0  0  0  0  0  0  0  0  0
   58.6588   22.8592   45.6703 H   0  0  0  0  0  0  0  0  0  0  0  0
   59.0484   24.1395   44.4600 H   0  0  0  0  0  0  0  0  0  0  0  0
   61.1976   28.0118   45.8626 H   0  0  0  0  0  0  0  0  0  0  0  0
   61.4981   30.4646   45.6783 H   0  0  0  0  0  0  0  0  0  0  0  0
   60.2631   32.6046   44.8225 H   0  0  0  0  0  0  0  0  0  0  0  0
   58.6796   32.8544   45.6443 H   0  0  0  0  0  0  0  0  0  0  0  0
   61.7481   34.0555   45.9389 H   0  0  0  0  0  0  0  0  0  0  0  0
   62.9811   34.6626   48.0181 H   0  0  0  0  0  0  0  0  0  0  0  0
   64.6572   35.2761   51.7636 H   0  0  0  0  0  0  0  0  0  0  0  0
   64.4112   33.7712   52.6599 H   0  0  0  0  0  0  0  0  0  0  0  0
   66.7468   34.6500   50.9988 H   0  0  0  0  0  0  0  0  0  0  0  0
   66.7141   33.4419   52.2923 H   0  0  0  0  0  0  0  0  0  0  0  0
   64.8351   33.3423   48.6999 H   0  0  0  0  0  0  0  0  0  0  0  0
   64.2536   31.8743   49.4981 H   0  0  0  0  0  0  0  0  0  0  0  0
   60.3679   32.0923   50.3211 H   0  0  0  0  0  0  0  0  0  0  0  0
   59.1364   31.4797   48.2416 H   0  0  0  0  0  0  0  0  0  0  0  0
   55.3040   30.0460   45.5820 H   0  0  0  0  0  0  0  0  0  0  0  0
  1  2  1  0
  2  3  1  0
  2  4  1  0
  4  5  1  0
  5  6  1  0
  6  7  2  0
  6  8  1  0
  8  9  2  0
  9 10  1  0
 10 11  2  0
 11 12  1  0
 12 13  1  0
 13 14  1  0
 14 15  2  0
 15 16  1  0
 16 17  2  0
 17 18  1  0
 18 19  2  0
 18 20  1  0
 20 21  1  0
 21 22  1  0
 22 23  1  0
 23 24  1  0
 23 25  1  0
 23 26  1  0
 17 27  1  0
 27 28  2  0
 12 29  1  0
 29 30  2  0
 29 31  1  0
 31 32  2  0
 32 33  1  0
 32 34  1  0
 34 35  2  0
 34 36  1  0
 36  2  1  0
 36  8  1  0
 31  9  1  0
 28 14  1  0
 26 20  1  0
  1 37  1  0
  1 38  1  0
  1 39  1  0
  3 40  1  0
  3 41  1  0
  3 42  1  0
  4 43  1  0
  4 44  1  0
 10 45  1  0
 11 46  1  0
 13 47  1  0
 13 48  1  0
 15 49  1  0
 16 50  1  0
 21 51  1  0
 21 52  1  0
 22 53  1  0
 22 54  1  0
 26 55  1  0
 26 56  1  0
 27 57  1  0
 28 58  1  0
 33 59  1  0
M  CHG  1   5  -1
M  END
>  <UniqueID>  (58) 
55

>  <SMILES>  (58) 
CC1(C)C[N-]C(=O)c2c3ccn(Cc4ccc(C(=O)N5CCC(F)(F)C5)cc4)c(=O)c3c(O)c(=O)n21

>  <Energy>  (58) 
101.61124472116221

>  <Genealogy>  (58) 
CC1(C)C[N-]C(=O)c2c3ccn(Cc4ccc(C(=O)N5CCC(F)(F)C5)cc4)c(=O)c3c(O)c(=O)n21 (protonated)
CC1(C)C[N-]C(=O)c2c3ccn(Cc4ccc(C(=O)N5CCC(F)(F)C5)cc4)c(=O)c3c(O)c(=O)n21 (3D coordinates assigned)
CC1(C)C[N-]C(=O)c2c3ccn(Cc4ccc(C(=O)N5CCC(F)(F)C5)cc4)c(=O)c3c(O)c(=O)n21 (nonaromatic ring conformer: 101.61124472116221 kcal/mol)

>  <smiles>  (58) 
CC1(C)CNC(=O)c2c3ccn(Cc4ccc(C(=O)N5CCC(F)(F)C5)cc4)c(=O)c3c(O)c(=O)n21

>  <score_type>  (58) 
oracle

>  <origin>  (58) 
adg

>  <m_score__min__energy>  (58) 
-10.289999999999999

>  <m_primary>  (58) 
energy

$$$$
58:0
     RDKit          3D

 48 50  0  0  0  0  0  0  0  0999 V2000
   56.7190   27.3300   45.7710 O   0  0  0  0  0  0  0  0  0  0  0  0
   57.5520   28.0740   45.1860 C   0  0  0  0  0  0  0  0  0  0  0  0
   57.4050   28.2930   43.7750 N   0  0  0  0  0  0  0  0  0  0  0  0
   56.7950   29.4680   43.1540 C   0  0  0  0  0  0  0  0  0  0  0  0
   56.4720   30.5060   44.1920 C   0  0  0  0  0  0  0  0  0  0  0  0
   55.4130   30.3800   44.8680 O   0  0  0  0  0  0  0  0  0  0  0  0
   57.3510   31.6190   44.4430 N   0  0  0  0  0  0  0  0  0  0  0  0
   57.9130   32.3940   43.3210 C   0  0  0  0  0  0  0  0  0  0  0  0
   58.8890   33.4690   43.8200 C   0  0  0  0  0  0  0  0  0  0  0  0
   58.2550   34.3660   44.9160 C   0  0  0  0  0  0  0  0  0  0  0  0
   59.3090   35.2410   45.6410 C   0  0  0  0  0  0  0  0  0  0  0  0
   60.0890   34.5220   46.7230 C   0  0  0  0  0  0  0  0  0  0  0  0
   59.6550   34.5430   48.0610 C   0  0  0  0  0  0  0  0  0  0  0  0
   60.3900   33.8870   49.0520 C   0  0  0  0  0  0  0  0  0  0  0  0
   61.5680   33.2160   48.7200 C   0  0  0  0  0  0  0  0  0  0  0  0
   62.0120   33.1930   47.3960 C   0  0  0  0  0  0  0  0  0  0  0  0
   61.2810   33.8460   46.4020 C   0  0  0  0  0  0  0  0  0  0  0  0
   57.3410   33.5830   45.8990 C   0  0  0  0  0  0  0  0  0  0  0  0
   57.5690   32.0750   45.8230 C   0  0  0  0  0  0  0  0  0  0  0  0
   58.6140   28.7240   45.9860 C   0  0  0  0  0  0  0  0  0  0  0  0
   59.7180   29.3050   45.3370 C   0  0  0  0  0  0  0  0  0  0  0  0
   60.7240   29.9320   46.0820 C   0  0  0  0  0  0  0  0  0  0  0  0
   60.6300   29.9930   47.4770 C   0  0  0  0  0  0  0  0  0  0  0  0
   59.5290   29.4330   48.1290 C   0  0  0  0  0  0  0  0  0  0  0  0
   58.5200   28.8080   47.3880 C   0  0  0  0  0  0  0  0  0  0  0  0
   57.4959   29.8949   42.4215 H   0  0  0  0  0  0  0  0  0  0  0  0
   55.8633   29.1626   42.6553 H   0  0  0  0  0  0  0  0  0  0  0  0
   58.4477   31.7102   42.6453 H   0  0  0  0  0  0  0  0  0  0  0  0
   57.0860   32.8929   42.7946 H   0  0  0  0  0  0  0  0  0  0  0  0
   59.7791   32.9748   44.2366 H   0  0  0  0  0  0  0  0  0  0  0  0
   59.1531   34.1107   42.9665 H   0  0  0  0  0  0  0  0  0  0  0  0
   57.5842   35.0595   44.3878 H   0  0  0  0  0  0  0  0  0  0  0  0
   60.0236   35.6099   44.8905 H   0  0  0  0  0  0  0  0  0  0  0  0
   58.7535   36.0481   46.1411 H   0  0  0  0  0  0  0  0  0  0  0  0
   58.7322   35.0786   48.3285 H   0  0  0  0  0  0  0  0  0  0  0  0
   60.0399   33.8994   50.0947 H   0  0  0  0  0  0  0  0  0  0  0  0
   62.1477   32.7044   49.5025 H   0  0  0  0  0  0  0  0  0  0  0  0
   62.9385   32.6599   47.1362 H   0  0  0  0  0  0  0  0  0  0  0  0
   61.6387   33.8321   45.3619 H   0  0  0  0  0  0  0  0  0  0  0  0
   57.5514   33.9217   46.9242 H   0  0  0  0  0  0  0  0  0  0  0  0
   56.2960   33.7807   45.6181 H   0  0  0  0  0  0  0  0  0  0  0  0
   58.6003   31.8436   46.1277 H   0  0  0  0  0  0  0  0  0  0  0  0
   56.8659   31.5620   46.4957 H   0  0  0  0  0  0  0  0  0  0  0  0
   59.7914   29.2667   44.2401 H   0  0  0  0  0  0  0  0  0  0  0  0
   61.5897   30.3774   45.5700 H   0  0  0  0  0  0  0  0  0  0  0  0
   61.4238   30.4823   48.0604 H   0  0  0  0  0  0  0  0  0  0  0  0
   59.4551   29.4833   49.2254 H   0  0  0  0  0  0  0  0  0  0  0  0
   57.6481   28.3797   47.9041 H   0  0  0  0  0  0  0  0  0  0  0  0
  1  2  2  0
  2  3  1  0
  3  4  1  0
  4  5  1  0
  5  6  2  0
  5  7  1  0
  7  8  1  0
  8  9  1  0
  9 10  1  0
 10 11  1  0
 11 12  1  0
 12 13  2  0
 13 14  1  0
 14 15  2  0
 15 16  1  0
 16 17  2  0
 10 18  1  0
 18 19  1  0
  2 20  1  0
 20 21  2  0
 21 22  1  0
 22 23  2  0
 23 24  1  0
 24 25  2  0
 19  7  1  0
 25 20  1  0
 17 12  1  0
  4 26  1  0
  4 27  1  0
  8 28  1  0
  8 29  1  0
  9 30  1  0
  9 31  1  0
 10 32  1  0
 11 33  1  0
 11 34  1  0
 13 35  1  0
 14 36  1  0
 15 37  1  0
 16 38  1  0
 17 39  1  0
 18 40  1  0
 18 41  1  0
 19 42  1  0
 19 43  1  0
 21 44  1  0
 22 45  1  0
 23 46  1  0
 24 47  1  0
 25 48  1  0
M  CHG  1   3  -1
M  END
>  <UniqueID>  (59) 
56

>  <SMILES>  (59) 
O=C([N-]CC(=O)N1CCC(Cc2ccccc2)CC1)c1ccccc1

>  <Energy>  (59) 
53.3747329192829

>  <Genealogy>  (59) 
O=C([N-]CC(=O)N1CCC(Cc2ccccc2)CC1)c1ccccc1 (protonated)
O=C([N-]CC(=O)N1CCC(Cc2ccccc2)CC1)c1ccccc1 (3D coordinates assigned)
O=C([N-]CC(=O)N1CCC(Cc2ccccc2)CC1)c1ccccc1 (nonaromatic ring conformer: 53.3747329192829 kcal/mol)

>  <smiles>  (59) 
O=C(NCC(=O)N1CCC(Cc2ccccc2)CC1)c1ccccc1

>  <score_type>  (59) 
oracle

>  <origin>  (59) 
adg

>  <m_score__min__energy>  (59) 
-10.58

>  <m_primary>  (59) 
energy

$$$$
59:0
     RDKit          3D

 49 51  0  0  0  0  0  0  0  0999 V2000
   54.5610   29.4910   43.3760 O   0  0  0  0  0  0  0  0  0  0  0  0
   55.5820   29.7080   44.0840 C   0  0  0  0  0  0  0  0  0  0  0  0
   56.5200   30.8130   43.7220 C   0  0  0  0  0  0  0  0  0  0  0  0
   57.3420   31.1600   44.8780 N   0  0  0  0  0  0  0  0  0  0  0  0
   58.0220   32.4230   44.9950 C   0  0  0  0  0  0  0  0  0  0  0  0
   58.0880   33.1850   43.9910 O   0  0  0  0  0  0  0  0  0  0  0  0
   58.6530   32.8520   46.2730 C   0  0  0  0  0  0  0  0  0  0  0  0
   59.3660   34.0600   46.3690 C   0  0  0  0  0  0  0  0  0  0  0  0
   59.9560   34.4400   47.5730 C   0  0  0  0  0  0  0  0  0  0  0  0
   59.8770   33.6160   48.7000 C   0  0  0  0  0  0  0  0  0  0  0  0
   60.6300   34.2030   50.1790 Cl  0  0  0  0  0  0  0  0  0  0  0  0
   59.1970   32.3800   48.6170 C   0  0  0  0  0  0  0  0  0  0  0  0
   59.0840   31.2430   49.9760 S   0  0  0  0  0  0  0  0  0  0  0  0
   58.3160   31.9100   51.0830 O   0  0  0  0  0  0  0  0  0  0  0  0
   58.3380   29.9960   49.5910 O   0  0  0  0  0  0  0  0  0  0  0  0
   60.6520   30.8020   50.5890 N   0  0  0  0  0  0  0  0  0  0  0  0
   61.5200   30.2820   49.5310 C   0  0  0  0  0  0  0  0  0  0  0  0
   62.3910   31.3810   48.9810 C   0  0  0  0  0  0  0  0  0  0  0  0
   63.2910   32.0580   49.8280 C   0  0  0  0  0  0  0  0  0  0  0  0
   64.1370   33.0460   49.3150 C   0  0  0  0  0  0  0  0  0  0  0  0
   64.0940   33.3680   47.9560 C   0  0  0  0  0  0  0  0  0  0  0  0
   63.2010   32.7040   47.1060 C   0  0  0  0  0  0  0  0  0  0  0  0
   62.3600   31.7040   47.6120 C   0  0  0  0  0  0  0  0  0  0  0  0
   58.5800   32.0210   47.4070 C   0  0  0  0  0  0  0  0  0  0  0  0
   55.8410   28.9110   45.2440 N   0  0  0  0  0  0  0  0  0  0  0  0
   56.7960   27.8090   45.2570 C   0  0  0  0  0  0  0  0  0  0  0  0
   58.1770   28.3200   45.5290 C   0  0  0  0  0  0  0  0  0  0  0  0
   59.2230   28.3280   44.6280 C   0  0  0  0  0  0  0  0  0  0  0  0
   60.2780   28.9100   45.2950 C   0  0  0  0  0  0  0  0  0  0  0  0
   59.8090   29.2260   46.5570 C   0  0  0  0  0  0  0  0  0  0  0  0
   58.5520   28.8640   46.6630 O   0  0  0  0  0  0  0  0  0  0  0  0
   57.1694   30.4856   42.8967 H   0  0  0  0  0  0  0  0  0  0  0  0
   55.9409   31.6944   43.4093 H   0  0  0  0  0  0  0  0  0  0  0  0
   57.5270   30.4020   45.5730 H   0  0  0  0  0  0  0  0  0  0  0  0
   59.4589   34.7103   45.4867 H   0  0  0  0  0  0  0  0  0  0  0  0
   60.4901   35.3994   47.6376 H   0  0  0  0  0  0  0  0  0  0  0  0
   62.1575   29.4860   49.9433 H   0  0  0  0  0  0  0  0  0  0  0  0
   60.8942   29.8819   48.7196 H   0  0  0  0  0  0  0  0  0  0  0  0
   63.3282   31.8078   50.8985 H   0  0  0  0  0  0  0  0  0  0  0  0
   64.8372   33.5703   49.9820 H   0  0  0  0  0  0  0  0  0  0  0  0
   64.7621   34.1437   47.5536 H   0  0  0  0  0  0  0  0  0  0  0  0
   63.1597   32.9680   46.0389 H   0  0  0  0  0  0  0  0  0  0  0  0
   61.6742   31.1704   46.9375 H   0  0  0  0  0  0  0  0  0  0  0  0
   58.0286   31.0712   47.3444 H   0  0  0  0  0  0  0  0  0  0  0  0
   56.5129   27.0930   46.0426 H   0  0  0  0  0  0  0  0  0  0  0  0
   56.7849   27.3148   44.2743 H   0  0  0  0  0  0  0  0  0  0  0  0
   59.2154   27.9494   43.5952 H   0  0  0  0  0  0  0  0  0  0  0  0
   61.2902   29.0878   44.9028 H   0  0  0  0  0  0  0  0  0  0  0  0
   60.3993   29.7072   47.3507 H   0  0  0  0  0  0  0  0  0  0  0  0
  1  2  2  0
  2  3  1  0
  3  4  1  0
  4  5  1  0
  5  6  2  0
  5  7  1  0
  7  8  2  0
  8  9  1  0
  9 10  2  0
 10 11  1  0
 10 12  1  0
 12 13  1  0
 13 14  2  0
 13 15  2  0
 13 16  1  0
 16 17  1  0
 17 18  1  0
 18 19  2  0
 19 20  1  0
 20 21  2  0
 21 22  1  0
 22 23  2  0
 12 24  2  0
  2 25  1  0
 25 26  1  0
 26 27  1  0
 27 28  2  0
 28 29  1  0
 29 30  2  0
 30 31  1  0
 24  7  1  0
 31 27  1  0
 23 18  1  0
  3 32  1  0
  3 33  1  0
  4 34  1  0
  8 35  1  0
  9 36  1  0
 17 37  1  0
 17 38  1  0
 19 39  1  0
 20 40  1  0
 21 41  1  0
 22 42  1  0
 23 43  1  0
 24 44  1  0
 26 45  1  0
 26 46  1  0
 28 47  1  0
 29 48  1  0
 30 49  1  0
M  CHG  2  16  -1  25  -1
M  END
>  <UniqueID>  (60) 
57

>  <SMILES>  (60) 
O=C(CNC(=O)c1ccc(Cl)c(S(=O)(=O)[N-]Cc2ccccc2)c1)[N-]Cc1ccco1

>  <Energy>  (60) 
73.0030427985178

>  <Genealogy>  (60) 
O=C(CNC(=O)c1ccc(Cl)c(S(=O)(=O)[N-]Cc2ccccc2)c1)[N-]Cc1ccco1 (protonated)
O=C(CNC(=O)c1ccc(Cl)c(S(=O)(=O)[N-]Cc2ccccc2)c1)[N-]Cc1ccco1 (3D coordinates assigned)
O=C(CNC(=O)c1ccc(Cl)c(S(=O)(=O)[N-]Cc2ccccc2)c1)[N-]Cc1ccco1 (optimized conformer: 73.0030427985178 kcal/mol)

>  <smiles>  (60) 
O=C(CNC(=O)c1ccc(Cl)c(S(=O)(=O)NCc2ccccc2)c1)NCc1ccco1

>  <score_type>  (60) 
oracle

>  <origin>  (60) 
adg

>  <m_score__min__energy>  (60) 
-12.109999999999999

>  <m_primary>  (60) 
energy

$$$$
60:0
     RDKit          3D

 47 50  0  0  0  0  0  0  0  0999 V2000
   59.7560   33.8470   50.9250 C   0  0  0  0  0  0  0  0  0  0  0  0
   60.3160   33.3360   49.6280 C   0  0  0  0  0  0  0  0  0  0  0  0
   59.5200   32.5600   48.7720 C   0  0  0  0  0  0  0  0  0  0  0  0
   60.0340   32.0660   47.5610 C   0  0  0  0  0  0  0  0  0  0  0  0
   59.1760   31.2550   46.6640 C   0  0  0  0  0  0  0  0  0  0  0  0
   58.4910   30.2640   47.1600 N   0  0  0  0  0  0  0  0  0  0  0  0
   57.6520   29.3440   46.3800 C   0  0  2  0  0  0  0  0  0  0  0  0
   58.3860   28.0390   46.2000 C   0  0  0  0  0  0  0  0  0  0  0  0
   59.4050   28.0020   45.4580 O   0  0  0  0  0  0  0  0  0  0  0  0
   57.9070   26.8150   46.7710 N   0  0  0  0  0  0  0  0  0  0  0  0
   57.3630   25.7060   46.0420 C   0  0  0  0  0  0  0  0  0  0  0  0
   58.1890   24.6080   45.7670 C   0  0  0  0  0  0  0  0  0  0  0  0
   57.6870   23.5050   45.0700 C   0  0  0  0  0  0  0  0  0  0  0  0
   56.3510   23.4850   44.6600 C   0  0  0  0  0  0  0  0  0  0  0  0
   55.5120   24.5620   44.9580 C   0  0  0  0  0  0  0  0  0  0  0  0
   56.0070   25.6660   45.6600 C   0  0  0  0  0  0  0  0  0  0  0  0
   55.1440   26.7040   45.9930 O   0  0  0  0  0  0  0  0  0  0  0  0
   57.2830   29.9080   45.0270 C   0  0  0  0  0  0  0  0  0  0  0  0
   56.2490   29.3320   44.2710 C   0  0  0  0  0  0  0  0  0  0  0  0
   55.9670   29.8050   42.9870 C   0  0  0  0  0  0  0  0  0  0  0  0
   56.7220   30.8500   42.4450 C   0  0  0  0  0  0  0  0  0  0  0  0
   57.7560   31.4270   43.1890 C   0  0  0  0  0  0  0  0  0  0  0  0
   58.0360   30.9600   44.4810 C   0  0  0  0  0  0  0  0  0  0  0  0
   59.0660   31.5660   45.2660 N   0  0  0  0  0  0  0  0  0  0  0  0
   61.3610   32.3690   47.2090 C   0  0  0  0  0  0  0  0  0  0  0  0
   62.1730   33.1330   48.0620 C   0  0  0  0  0  0  0  0  0  0  0  0
   63.5850   33.4610   47.6680 C   0  0  0  0  0  0  0  0  0  0  0  0
   61.6450   33.6190   49.2720 C   0  0  0  0  0  0  0  0  0  0  0  0
   62.4420   34.3870   50.1180 O   0  0  0  0  0  0  0  0  0  0  0  0
   60.2807   33.3682   51.7649 H   0  0  0  0  0  0  0  0  0  0  0  0
   59.8940   34.9369   50.9799 H   0  0  0  0  0  0  0  0  0  0  0  0
   58.6832   33.6100   50.9799 H   0  0  0  0  0  0  0  0  0  0  0  0
   58.4803   32.3354   49.0524 H   0  0  0  0  0  0  0  0  0  0  0  0
   56.7157   29.1899   46.9365 H   0  0  0  0  0  0  0  0  0  0  0  0
   59.2370   24.6140   46.1010 H   0  0  0  0  0  0  0  0  0  0  0  0
   58.3440   22.6522   44.8441 H   0  0  0  0  0  0  0  0  0  0  0  0
   55.9598   22.6212   44.1025 H   0  0  0  0  0  0  0  0  0  0  0  0
   54.4593   24.5416   44.6396 H   0  0  0  0  0  0  0  0  0  0  0  0
   55.6585   28.5047   44.6917 H   0  0  0  0  0  0  0  0  0  0  0  0
   55.1510   29.3554   42.4023 H   0  0  0  0  0  0  0  0  0  0  0  0
   56.5022   31.2186   41.4322 H   0  0  0  0  0  0  0  0  0  0  0  0
   58.3500   32.2477   42.7604 H   0  0  0  0  0  0  0  0  0  0  0  0
   59.7090   32.2620   44.8240 H   0  0  0  0  0  0  0  0  0  0  0  0
   61.7675   32.0033   46.2545 H   0  0  0  0  0  0  0  0  0  0  0  0
   64.1946   33.6026   48.5726 H   0  0  0  0  0  0  0  0  0  0  0  0
   64.0004   32.6354   47.0714 H   0  0  0  0  0  0  0  0  0  0  0  0
   63.5940   34.3851   47.0714 H   0  0  0  0  0  0  0  0  0  0  0  0
  1  2  1  0
  2  3  2  0
  3  4  1  0
  4  5  1  0
  5  6  2  0
  6  7  1  0
  7  8  1  0
  8  9  2  0
  8 10  1  0
 10 11  1  0
 11 12  2  0
 12 13  1  0
 13 14  2  0
 14 15  1  0
 15 16  2  0
 16 17  1  0
  7 18  1  0
 18 19  2  0
 19 20  1  0
 20 21  2  0
 21 22  1  0
 22 23  2  0
 23 24  1  0
  4 25  2  0
 25 26  1  0
 26 27  1  0
 26 28  2  0
 28 29  1  0
 28  2  1  0
 24  5  1  0
 16 11  1  0
 23 18  1  0
  1 30  1  0
  1 31  1  0
  1 32  1  0
  3 33  1  0
  7 34  1  1
 12 35  1  0
 13 36  1  0
 14 37  1  0
 15 38  1  0
 19 39  1  0
 20 40  1  0
 21 41  1  0
 22 42  1  0
 24 43  1  0
 25 44  1  0
 27 45  1  0
 27 46  1  0
 27 47  1  0
M  CHG  3  10  -1  17  -1  29  -1
M  END
>  <UniqueID>  (61) 
58

>  <SMILES>  (61) 
Cc1cc(C2=N[C@H](C(=O)[N-]c3ccccc3[O-])c3ccccc3N2)cc(C)c1[O-]

>  <Energy>  (61) 
63.12663457707879

>  <Genealogy>  (61) 
Cc1cc(C2=NC(C(=O)[N-]c3ccccc3[O-])c3ccccc3N2)cc(C)c1[O-] (protonated)
Cc1cc(C2=N[C@H](C(=O)[N-]c3ccccc3[O-])c3ccccc3N2)cc(C)c1[O-] (chirality)
Cc1cc(C2=N[C@H](C(=O)[N-]c3ccccc3[O-])c3ccccc3N2)cc(C)c1[O-] (3D coordinates assigned)
Cc1cc(C2=N[C@H](C(=O)[N-]c3ccccc3[O-])c3ccccc3N2)cc(C)c1[O-] (nonaromatic ring conformer: 63.12663457707879 kcal/mol)

>  <smiles>  (61) 
Cc1cc(C2=NC(C(=O)Nc3ccccc3O)c3ccccc3N2)cc(C)c1O

>  <score_type>  (61) 
oracle

>  <origin>  (61) 
adg

>  <m_score__min__energy>  (61) 
-13.68

>  <m_primary>  (61) 
energy

$$$$
61:0
     RDKit          3D

 67 71  0  0  0  0  0  0  0  0999 V2000
   57.7670   32.9140   42.9260 O   0  0  0  0  0  0  0  0  0  0  0  0
   57.7480   32.7760   44.1780 C   0  0  0  0  0  0  0  0  0  0  0  0
   57.9960   33.9280   44.9930 N   0  0  0  0  0  0  0  0  0  0  0  0
   59.2840   34.3270   45.5470 C   0  0  0  0  0  0  0  0  0  0  0  0
   59.6460   33.3970   46.6670 C   0  0  0  0  0  0  0  0  0  0  0  0
   60.8910   32.7540   46.6840 C   0  0  0  0  0  0  0  0  0  0  0  0
   61.2350   31.9550   47.7270 N   0  0  0  0  0  0  0  0  0  0  0  0
   60.4020   31.7440   48.7840 C   0  0  0  0  0  0  0  0  0  0  0  0
   60.8350   30.8950   49.8580 N   0  0  0  0  0  0  0  0  0  0  0  0
   62.0110   31.2650   50.6430 C   0  0  0  0  0  0  0  0  0  0  0  0
   61.9040   30.6160   52.0270 C   0  0  0  0  0  0  0  0  0  0  0  0
   61.8110   29.1290   51.9790 N   0  0  0  0  0  0  0  0  0  0  0  0
   61.0860   28.5400   53.1500 C   0  0  0  0  0  0  0  0  0  0  0  0
   59.7110   27.9020   52.7690 C   0  0  0  0  0  0  0  0  0  0  0  0
   58.6060   28.9630   52.7160 C   0  0  0  0  0  0  0  0  0  0  0  0
   58.3810   29.6300   54.0280 N   0  0  0  0  0  0  0  0  0  0  0  0
   57.1270   29.1880   54.6720 C   0  0  0  0  0  0  0  0  0  0  0  0
   55.9440   29.4700   53.7790 C   0  0  0  0  0  0  0  0  0  0  0  0
   55.8800   30.6640   53.0390 C   0  0  0  0  0  0  0  0  0  0  0  0
   54.7770   30.9290   52.2220 C   0  0  0  0  0  0  0  0  0  0  0  0
   53.7300   30.0070   52.1360 C   0  0  0  0  0  0  0  0  0  0  0  0
   52.3460   30.3440   51.1120 Cl  0  0  0  0  0  0  0  0  0  0  0  0
   53.7870   28.8160   52.8670 C   0  0  0  0  0  0  0  0  0  0  0  0
   54.8870   28.5450   53.6860 C   0  0  0  0  0  0  0  0  0  0  0  0
   54.9230   27.3850   54.3890 F   0  0  0  0  0  0  0  0  0  0  0  0
   59.5150   29.4900   54.9720 C   0  0  0  0  0  0  0  0  0  0  0  0
   60.8630   29.6230   54.2530 C   0  0  0  0  0  0  0  0  0  0  0  0
   61.2990   28.6180   50.6720 C   0  0  0  0  0  0  0  0  0  0  0  0
   60.2710   29.5520   50.0170 C   0  0  0  0  0  0  0  0  0  0  0  0
   59.1520   32.3890   48.8210 C   0  0  0  0  0  0  0  0  0  0  0  0
   58.0760   32.2580   50.2050 Cl  0  0  0  0  0  0  0  0  0  0  0  0
   58.7830   33.2180   47.7570 C   0  0  0  0  0  0  0  0  0  0  0  0
   57.5070   31.4290   44.7310 C   0  0  0  0  0  0  0  0  0  0  0  0
   58.3280   30.7350   45.6070 C   0  0  0  0  0  0  0  0  0  0  0  0
   57.6750   29.5590   45.9010 C   0  0  0  0  0  0  0  0  0  0  0  0
   56.4920   29.6050   45.2010 C   0  0  0  0  0  0  0  0  0  0  0  0
   55.5250   28.6070   45.2220 O   0  0  0  0  0  0  0  0  0  0  0  0
   56.3710   30.7420   44.4910 N   0  0  0  0  0  0  0  0  0  0  0  0
   60.0538   34.2765   44.7629 H   0  0  0  0  0  0  0  0  0  0  0  0
   59.2208   35.3574   45.9267 H   0  0  0  0  0  0  0  0  0  0  0  0
   61.5927   32.8970   45.8490 H   0  0  0  0  0  0  0  0  0  0  0  0
   62.9205   30.9090   50.1369 H   0  0  0  0  0  0  0  0  0  0  0  0
   62.0631   32.3589   50.7458 H   0  0  0  0  0  0  0  0  0  0  0  0
   62.7950   30.8908   52.6106 H   0  0  0  0  0  0  0  0  0  0  0  0
   60.9752   30.9844   52.4870 H   0  0  0  0  0  0  0  0  0  0  0  0
   61.7277   27.7316   53.5304 H   0  0  0  0  0  0  0  0  0  0  0  0
   59.7979   27.4242   51.7820 H   0  0  0  0  0  0  0  0  0  0  0  0
   59.4459   27.1595   53.5361 H   0  0  0  0  0  0  0  0  0  0  0  0
   58.8884   29.7275   51.9773 H   0  0  0  0  0  0  0  0  0  0  0  0
   57.6712   28.4531   52.4398 H   0  0  0  0  0  0  0  0  0  0  0  0
   57.1826   28.1070   54.8679 H   0  0  0  0  0  0  0  0  0  0  0  0
   56.9990   29.7393   55.6152 H   0  0  0  0  0  0  0  0  0  0  0  0
   56.7015   31.3927   53.1033 H   0  0  0  0  0  0  0  0  0  0  0  0
   54.7330   31.8649   51.6457 H   0  0  0  0  0  0  0  0  0  0  0  0
   52.9635   28.0901   52.7972 H   0  0  0  0  0  0  0  0  0  0  0  0
   59.4402   30.2743   55.7397 H   0  0  0  0  0  0  0  0  0  0  0  0
   59.4637   28.4903   55.4280 H   0  0  0  0  0  0  0  0  0  0  0  0
   60.9106   30.6158   53.7818 H   0  0  0  0  0  0  0  0  0  0  0  0
   61.6499   29.4840   55.0090 H   0  0  0  0  0  0  0  0  0  0  0  0
   62.1503   28.4991   49.9856 H   0  0  0  0  0  0  0  0  0  0  0  0
   60.7916   27.6625   50.8712 H   0  0  0  0  0  0  0  0  0  0  0  0
   59.9966   29.1541   49.0289 H   0  0  0  0  0  0  0  0  0  0  0  0
   59.3800   29.6111   50.6594 H   0  0  0  0  0  0  0  0  0  0  0  0
   57.8107   33.7322   47.7755 H   0  0  0  0  0  0  0  0  0  0  0  0
   59.3065   31.0595   45.9907 H   0  0  0  0  0  0  0  0  0  0  0  0
   58.0265   28.7506   46.5590 H   0  0  0  0  0  0  0  0  0  0  0  0
   54.7590   28.6160   44.5600 H   0  0  0  0  0  0  0  0  0  0  0  0
  1  2  2  0
  2  3  1  0
  3  4  1  0
  4  5  1  0
  5  6  2  0
  6  7  1  0
  7  8  2  0
  8  9  1  0
  9 10  1  0
 10 11  1  0
 11 12  1  0
 12 13  1  0
 13 14  1  0
 14 15  1  0
 15 16  1  0
 16 17  1  0
 17 18  1  0
 18 19  2  0
 19 20  1  0
 20 21  2  0
 21 22  1  0
 21 23  1  0
 23 24  2  0
 24 25  1  0
 16 26  1  0
 26 27  1  0
 12 28  1  0
 28 29  1  0
  8 30  1  0
 30 31  1  0
 30 32  2  0
  2 33  1  0
 33 34  2  0
 34 35  1  0
 35 36  2  0
 36 37  1  0
 36 38  1  0
 32  5  1  0
 38 33  1  0
 29  9  1  0
 27 13  1  0
 24 18  1  0
  4 39  1  0
  4 40  1  0
  6 41  1  0
 10 42  1  0
 10 43  1  0
 11 44  1  0
 11 45  1  0
 13 46  1  0
 14 47  1  0
 14 48  1  0
 15 49  1  0
 15 50  1  0
 17 51  1  0
 17 52  1  0
 19 53  1  0
 20 54  1  0
 23 55  1  0
 26 56  1  0
 26 57  1  0
 27 58  1  0
 27 59  1  0
 28 60  1  0
 28 61  1  0
 29 62  1  0
 29 63  1  0
 32 64  1  0
 34 65  1  0
 35 66  1  0
 37 67  1  0
M  CHG  2   3  -1  38  -1
M  END
>  <UniqueID>  (62) 
59

>  <SMILES>  (62) 
O=C([N-]Cc1cnc(N2CCN(C3CCN(Cc4ccc(Cl)cc4F)CC3)CC2)c(Cl)c1)c1ccc(O)[n-]1

>  <Energy>  (62) 
127.12788242005347

>  <Genealogy>  (62) 
O=C([N-]Cc1cnc(N2CCN(C3CCN(Cc4ccc(Cl)cc4F)CC3)CC2)c(Cl)c1)c1ccc(O)[n-]1 (protonated)
O=C([N-]Cc1cnc(N2CCN(C3CCN(Cc4ccc(Cl)cc4F)CC3)CC2)c(Cl)c1)c1ccc(O)[n-]1 (3D coordinates assigned)
O=C([N-]Cc1cnc(N2CCN(C3CCN(Cc4ccc(Cl)cc4F)CC3)CC2)c(Cl)c1)c1ccc(O)[n-]1 (nonaromatic ring conformer: 127.12788242005347 kcal/mol)

>  <smiles>  (62) 
O=C(NCc1cnc(N2CCN(C3CCN(Cc4ccc(Cl)cc4F)CC3)CC2)c(Cl)c1)c1ccc(O)[nH]1

>  <score_type>  (62) 
oracle

>  <origin>  (62) 
adg

>  <m_score__min__energy>  (62) 
-15.15

>  <m_primary>  (62) 
energy

$$$$
62:0
     RDKit          3D

 46 48  0  0  0  0  0  0  0  0999 V2000
   60.7600   30.4810   46.6990 C   0  0  0  0  0  0  0  0  0  0  0  0
   59.2110   30.2940   47.6330 S   0  0  0  0  0  0  0  0  0  0  0  0
   58.1640   30.3740   46.1710 C   0  0  0  0  0  0  0  0  0  0  0  0
   57.6910   29.1820   45.6060 C   0  0  0  0  0  0  0  0  0  0  0  0
   56.9220   29.2130   44.4400 C   0  0  0  0  0  0  0  0  0  0  0  0
   56.6280   30.4320   43.8260 C   0  0  0  0  0  0  0  0  0  0  0  0
   57.1000   31.6260   44.3780 C   0  0  0  0  0  0  0  0  0  0  0  0
   57.8710   31.6060   45.5520 C   0  0  0  0  0  0  0  0  0  0  0  0
   58.3380   32.8330   46.1260 N   0  0  0  0  0  0  0  0  0  0  0  0
   59.0210   33.8270   45.3490 C   0  0  0  0  0  0  0  0  0  0  0  0
   58.9190   33.8400   44.0920 O   0  0  0  0  0  0  0  0  0  0  0  0
   59.9040   34.8300   46.0320 C   0  0  0  0  0  0  0  0  0  0  0  0
   60.8550   34.1370   46.9150 N   0  0  0  0  0  0  0  0  0  0  0  0
   62.1080   33.8480   46.4550 C   0  0  0  0  0  0  0  0  0  0  0  0
   63.0590   33.2930   47.3080 C   0  0  0  0  0  0  0  0  0  0  0  0
   62.7450   33.0300   48.6090 N   0  0  0  0  0  0  0  0  0  0  0  0
   63.7630   32.4930   49.4770 C   0  0  0  0  0  0  0  0  0  0  0  0
   63.5060   31.3550   50.2590 C   0  0  0  0  0  0  0  0  0  0  0  0
   64.4940   30.8430   51.1050 C   0  0  0  0  0  0  0  0  0  0  0  0
   65.7480   31.4570   51.1720 C   0  0  0  0  0  0  0  0  0  0  0  0
   66.0270   32.5820   50.3800 C   0  0  0  0  0  0  0  0  0  0  0  0
   67.3580   33.2650   50.4780 C   0  0  0  0  0  0  0  0  0  0  0  0
   65.0260   33.1040   49.5450 C   0  0  0  0  0  0  0  0  0  0  0  0
   61.4870   33.3030   49.0770 C   0  0  0  0  0  0  0  0  0  0  0  0
   61.1880   33.0790   50.2840 O   0  0  0  0  0  0  0  0  0  0  0  0
   60.5290   33.8620   48.2180 C   0  0  0  0  0  0  0  0  0  0  0  0
   59.3740   34.1250   48.6590 O   0  0  0  0  0  0  0  0  0  0  0  0
   61.6012   30.5825   47.4005 H   0  0  0  0  0  0  0  0  0  0  0  0
   60.9156   29.5951   46.0658 H   0  0  0  0  0  0  0  0  0  0  0  0
   60.7003   31.3785   46.0658 H   0  0  0  0  0  0  0  0  0  0  0  0
   57.9260   28.2187   46.0822 H   0  0  0  0  0  0  0  0  0  0  0  0
   56.5473   28.2749   44.0047 H   0  0  0  0  0  0  0  0  0  0  0  0
   56.0242   30.4526   42.9068 H   0  0  0  0  0  0  0  0  0  0  0  0
   56.8670   32.5846   43.8915 H   0  0  0  0  0  0  0  0  0  0  0  0
   58.3920   32.8970   47.1660 H   0  0  0  0  0  0  0  0  0  0  0  0
   60.4595   35.4029   45.2749 H   0  0  0  0  0  0  0  0  0  0  0  0
   59.2830   35.5122   46.6311 H   0  0  0  0  0  0  0  0  0  0  0  0
   62.3673   34.0545   45.4061 H   0  0  0  0  0  0  0  0  0  0  0  0
   64.0671   33.0659   46.9310 H   0  0  0  0  0  0  0  0  0  0  0  0
   62.5229   30.8645   50.2055 H   0  0  0  0  0  0  0  0  0  0  0  0
   64.2842   29.9550   51.7194 H   0  0  0  0  0  0  0  0  0  0  0  0
   66.5187   31.0574   51.8475 H   0  0  0  0  0  0  0  0  0  0  0  0
   67.6232   33.4011   51.5368 H   0  0  0  0  0  0  0  0  0  0  0  0
   68.1237   32.6484   49.9845 H   0  0  0  0  0  0  0  0  0  0  0  0
   67.3036   34.2466   49.9845 H   0  0  0  0  0  0  0  0  0  0  0  0
   65.2326   33.9986   48.9392 H   0  0  0  0  0  0  0  0  0  0  0  0
  1  2  1  0
  2  3  1  0
  3  4  2  0
  4  5  1  0
  5  6  2  0
  6  7  1  0
  7  8  2  0
  8  9  1  0
  9 10  1  0
 10 11  2  0
 10 12  1  0
 12 13  1  0
 13 14  1  0
 14 15  2  0
 15 16  1  0
 16 17  1  0
 17 18  2  0
 18 19  1  0
 19 20  2  0
 20 21  1  0
 21 22  1  0
 21 23  2  0
 16 24  1  0
 24 25  2  0
 24 26  1  0
 26 27  2  0
  8  3  1  0
 26 13  1  0
 23 17  1  0
  1 28  1  0
  1 29  1  0
  1 30  1  0
  4 31  1  0
  5 32  1  0
  6 33  1  0
  7 34  1  0
  9 35  1  0
 12 36  1  0
 12 37  1  0
 14 38  1  0
 15 39  1  0
 18 40  1  0
 19 41  1  0
 20 42  1  0
 22 43  1  0
 22 44  1  0
 22 45  1  0
 23 46  1  0
M  END
>  <UniqueID>  (63) 
60

>  <SMILES>  (63) 
CSc1ccccc1NC(=O)Cn1ccn(-c2cccc(C)c2)c(=O)c1=O

>  <Energy>  (63) 
57.460827666959624

>  <Genealogy>  (63) 
CSc1ccccc1NC(=O)Cn1ccn(-c2cccc(C)c2)c(=O)c1=O (3D coordinates assigned)
CSc1ccccc1NC(=O)Cn1ccn(-c2cccc(C)c2)c(=O)c1=O (optimized conformer: 57.460827666959624 kcal/mol)

>  <smiles>  (63) 
CSc1ccccc1NC(=O)Cn1ccn(-c2cccc(C)c2)c(=O)c1=O

>  <score_type>  (63) 
oracle

>  <origin>  (63) 
adg

>  <m_score__min__energy>  (63) 
-7.6500000000000004

>  <m_primary>  (63) 
energy

$$$$
63:0
     RDKit          3D

 34 36  0  0  0  0  0  0  0  0999 V2000
   58.3516   33.0519   47.0663 H   0  0  0  0  0  0  0  0  0  0  0  0
   59.3590   33.4830   47.1630 C   0  0  0  0  0  0  0  0  0  0  0  0
   59.8812   33.8655   46.2736 H   0  0  0  0  0  0  0  0  0  0  0  0
   59.9490   33.5420   48.3620 C   0  0  0  0  0  0  0  0  0  0  0  0
   61.1920   34.0790   48.4510 N   0  0  0  0  0  0  0  0  0  0  0  0
   61.8360   34.1820   49.6370 C   0  0  0  0  0  0  0  0  0  0  0  0
   62.9840   34.6980   49.6780 O   0  0  0  0  0  0  0  0  0  0  0  0
   61.2500   33.7300   50.7760 N   0  0  0  0  0  0  0  0  0  0  0  0
   61.7840   33.8190   51.6720 H   0  0  0  0  0  0  0  0  0  0  0  0
   60.0130   33.1430   50.7640 C   0  0  0  0  0  0  0  0  0  0  0  0
   59.5120   32.6900   51.9390 C   0  0  0  0  0  0  0  0  0  0  0  0
   60.0411   32.9949   52.8539 H   0  0  0  0  0  0  0  0  0  0  0  0
   58.3280   31.8290   52.1120 C   0  0  0  0  0  0  0  0  0  0  0  0
   56.7330   32.3560   52.2130 S   0  0  0  0  0  0  0  0  0  0  0  0
   56.0180   30.8280   52.1450 C   0  0  0  0  0  0  0  0  0  0  0  0
   54.5590   30.5550   52.2010 C   0  0  0  0  0  0  0  0  0  0  0  0
   54.0680   29.3540   52.7460 C   0  0  0  0  0  0  0  0  0  0  0  0
   54.7719   28.6039   53.1357 H   0  0  0  0  0  0  0  0  0  0  0  0
   52.6960   29.1070   52.7960 C   0  0  0  0  0  0  0  0  0  0  0  0
   52.3254   28.1634   53.2230 H   0  0  0  0  0  0  0  0  0  0  0  0
   51.7920   30.0490   52.3080 C   0  0  0  0  0  0  0  0  0  0  0  0
   50.7121   29.8441   52.3513 H   0  0  0  0  0  0  0  0  0  0  0  0
   52.2520   31.2590   51.7610 C   0  0  0  0  0  0  0  0  0  0  0  0
   51.2980   32.2630   51.2420 C   0  0  0  0  0  0  0  0  0  0  0  0
   51.4130   32.7090   50.0690 O   0  0  0  0  0  0  0  0  0  0  0  0
   50.2590   32.7290   52.0400 O   0  0  0  0  0  0  0  0  0  0  0  0
   53.6370   31.5040   51.7130 C   0  0  0  0  0  0  0  0  0  0  0  0
   54.0058   32.4495   51.2887 H   0  0  0  0  0  0  0  0  0  0  0  0
   57.0400   29.8880   51.9980 C   0  0  0  0  0  0  0  0  0  0  0  0
   56.8554   28.8064   51.9201 H   0  0  0  0  0  0  0  0  0  0  0  0
   58.3230   30.4510   51.9590 C   0  0  0  0  0  0  0  0  0  0  0  0
   59.2381   29.8566   51.8203 H   0  0  0  0  0  0  0  0  0  0  0  0
   59.3120   33.0740   49.5300 C   0  0  0  0  0  0  0  0  0  0  0  0
   58.1230   32.6530   49.4710 O   0  0  0  0  0  0  0  0  0  0  0  0
  1  2  1  0
  2  3  1  0
  2  4  2  0
  4  5  1  0
  5  6  1  0
  6  7  2  0
  6  8  1  0
  8  9  1  0
  8 10  1  0
 10 11  2  0
 11 12  1  0
 11 13  1  0
 13 14  1  0
 14 15  1  0
 15 16  1  0
 16 17  2  0
 17 18  1  0
 17 19  1  0
 19 20  1  0
 19 21  2  0
 21 22  1  0
 21 23  1  0
 23 24  1  0
 24 25  2  0
 24 26  1  0
 23 27  2  0
 27 28  1  0
 15 29  2  0
 29 30  1  0
 29 31  1  0
 31 32  1  0
 10 33  1  0
 33 34  2  0
 33  4  1  0
 31 13  2  0
 27 16  1  0
M  CHG  2   5  -1  26  -1
M  END
>  <UniqueID>  (64) 
61

>  <SMILES>  (64) 
C=c1[n-]c(=O)[nH]/c(=C/c2ccc(-c3cccc(C(=O)[O-])c3)s2)c1=O

>  <Energy>  (64) 
81.3445113378891

>  <Genealogy>  (64) 
C=c1[n-]c(=O)[nH]c(=Cc2ccc(-c3cccc(C(=O)[O-])c3)s2)c1=O (protonated)
C=c1[n-]c(=O)[nH]/c(=C/c2ccc(-c3cccc(C(=O)[O-])c3)s2)c1=O (cis-trans isomerization)
C=c1[n-]c(=O)[nH]/c(=C/c2ccc(-c3cccc(C(=O)[O-])c3)s2)c1=O (3D coordinates assigned)
C=c1[n-]c(=O)[nH]/c(=C/c2ccc(-c3cccc(C(=O)[O-])c3)s2)c1=O (optimized conformer: 81.3445113378891 kcal/mol)

>  <smiles>  (64) 
C=c1[nH]c(=O)[nH]c(=Cc2ccc(-c3cccc(C(=O)O)c3)s2)c1=O

>  <score_type>  (64) 
oracle

>  <origin>  (64) 
adg

>  <m_score__min__energy>  (64) 
-11.93

>  <m_primary>  (64) 
energy

$$$$
64:0
     RDKit          3D

 43 46  0  0  0  0  0  0  0  0999 V2000
   57.7180   22.5850   48.0700 H   0  0  0  0  0  0  0  0  0  0  0  0
   57.3180   21.8030   47.5660 O   0  0  0  0  0  0  0  0  0  0  0  0
   57.1250   21.8040   46.1820 C   0  0  0  0  0  0  0  0  0  0  0  0
   56.6140   20.6460   45.5840 C   0  0  0  0  0  0  0  0  0  0  0  0
   56.3718   19.7721   46.2066 H   0  0  0  0  0  0  0  0  0  0  0  0
   56.4090   20.5910   44.2030 C   0  0  0  0  0  0  0  0  0  0  0  0
   56.0168   19.6729   43.7411 H   0  0  0  0  0  0  0  0  0  0  0  0
   56.7020   21.7010   43.4100 C   0  0  0  0  0  0  0  0  0  0  0  0
   56.5340   21.6596   42.3237 H   0  0  0  0  0  0  0  0  0  0  0  0
   57.2080   22.8640   43.9930 C   0  0  0  0  0  0  0  0  0  0  0  0
   57.4266   23.7392   43.3635 H   0  0  0  0  0  0  0  0  0  0  0  0
   57.4410   22.9260   45.3810 C   0  0  0  0  0  0  0  0  0  0  0  0
   57.9430   24.1810   45.9930 C   0  0  0  0  0  0  0  0  0  0  0  0
   58.6275   24.0918   46.8495 H   0  0  0  0  0  0  0  0  0  0  0  0
   57.6230   25.4190   45.5780 C   0  0  0  0  0  0  0  0  0  0  0  0
   58.6110   26.1580   44.8620 N   0  0  0  0  0  0  0  0  0  0  0  0
   58.8480   27.5590   44.9770 C   0  0  0  0  0  0  0  0  0  0  0  0
   59.9360   27.9420   45.4850 O   0  0  0  0  0  0  0  0  0  0  0  0
   57.7960   28.5590   44.6800 C   0  0  0  0  0  0  0  0  0  0  0  0
   58.1460   29.6520   43.8620 C   0  0  0  0  0  0  0  0  0  0  0  0
   59.1701   29.7245   43.4671 H   0  0  0  0  0  0  0  0  0  0  0  0
   57.2130   30.6490   43.5420 C   0  0  0  0  0  0  0  0  0  0  0  0
   57.6080   31.7990   42.6920 C   0  0  0  0  0  0  0  0  0  0  0  0
   57.4200   31.7450   41.4460 O   0  0  0  0  0  0  0  0  0  0  0  0
   58.1300   33.0130   43.2560 N   0  0  0  0  0  0  0  0  0  0  0  0
   58.2680   33.2960   44.5220 C   0  0  0  0  0  0  0  0  0  0  0  0
   59.5030   33.6490   44.9760 N   0  0  0  0  0  0  0  0  0  0  0  0
   59.7410   33.9480   46.2800 C   0  0  0  0  0  0  0  0  0  0  0  0
   60.7536   34.2312   46.6030 H   0  0  0  0  0  0  0  0  0  0  0  0
   58.7010   33.8960   47.2100 C   0  0  0  0  0  0  0  0  0  0  0  0
   58.8849   34.1478   48.2649 H   0  0  0  0  0  0  0  0  0  0  0  0
   57.4260   33.5210   46.7860 C   0  0  0  0  0  0  0  0  0  0  0  0
   56.5985   33.4695   47.5089 H   0  0  0  0  0  0  0  0  0  0  0  0
   57.2010   33.2110   45.4430 C   0  0  0  0  0  0  0  0  0  0  0  0
   56.2004   32.9030   45.1053 H   0  0  0  0  0  0  0  0  0  0  0  0
   55.9020   30.5330   44.0210 C   0  0  0  0  0  0  0  0  0  0  0  0
   55.1586   31.3060   43.7763 H   0  0  0  0  0  0  0  0  0  0  0  0
   55.5360   29.4410   44.8070 C   0  0  0  0  0  0  0  0  0  0  0  0
   54.4967   29.3493   45.1555 H   0  0  0  0  0  0  0  0  0  0  0  0
   56.4700   28.4590   45.1600 C   0  0  0  0  0  0  0  0  0  0  0  0
   55.9800   27.3260   45.8870 N   0  0  0  0  0  0  0  0  0  0  0  0
   56.2480   25.9450   45.6490 C   0  0  0  0  0  0  0  0  0  0  0  0
   55.2750   25.1570   45.5160 O   0  0  0  0  0  0  0  0  0  0  0  0
  1  2  1  0
  2  3  1  0
  3  4  2  0
  4  5  1  0
  4  6  1  0
  6  7  1  0
  6  8  2  0
  8  9  1  0
  8 10  1  0
 10 11  1  0
 10 12  2  0
 12 13  1  0
 13 14  1  0
 13 15  2  3
 15 16  1  0
 16 17  1  0
 17 18  2  0
 17 19  1  0
 19 20  2  0
 20 21  1  0
 20 22  1  0
 22 23  1  0
 23 24  2  0
 23 25  1  0
 25 26  2  0
 26 27  1  0
 27 28  1  0
 28 29  1  0
 28 30  2  0
 30 31  1  0
 30 32  1  0
 32 33  1  0
 32 34  2  0
 34 35  1  0
 22 36  2  0
 36 37  1  0
 36 38  1  0
 38 39  1  0
 38 40  2  0
 40 41  1  0
 41 42  1  0
 42 43  2  0
 12  3  1  0
 42 15  1  0
 40 19  1  0
 34 26  1  0
M  CHG  3  16  -1  27  -1  41  -1
M  END
>  <UniqueID>  (65) 
62

>  <SMILES>  (65) 
O=C1[N-]c2ccc(C(=O)/N=c3\cccc[n-]3)cc2C(=O)[N-]C1=Cc1ccccc1O

>  <Energy>  (65) 
85.9256222725173

>  <Genealogy>  (65) 
O=C1[N-]c2ccc(C(=O)N=c3cccc[n-]3)cc2C(=O)[N-]C1=Cc1ccccc1O (protonated)
O=C1[N-]c2ccc(C(=O)/N=c3\cccc[n-]3)cc2C(=O)[N-]C1=Cc1ccccc1O (cis-trans isomerization)
O=C1[N-]c2ccc(C(=O)/N=c3\cccc[n-]3)cc2C(=O)[N-]C1=Cc1ccccc1O (3D coordinates assigned)
O=C1[N-]c2ccc(C(=O)/N=c3\cccc[n-]3)cc2C(=O)[N-]C1=Cc1ccccc1O (nonaromatic ring conformer: 85.9256222725173 kcal/mol)

>  <smiles>  (65) 
O=C1Nc2ccc(C(=O)N=c3cccc[nH]3)cc2C(=O)NC1=Cc1ccccc1O

>  <score_type>  (65) 
oracle

>  <origin>  (65) 
adg

>  <m_score__min__energy>  (65) 
-12.92

>  <m_primary>  (65) 
energy

$$$$
65:0
     RDKit          3D

 35 36  0  0  0  0  0  0  0  0999 V2000
   59.9950   34.5660   47.2520 C   0  0  0  0  0  0  0  0  0  0  0  0
   59.0110   33.7290   46.4890 C   0  0  0  0  0  0  0  0  0  0  0  0
   58.3620   34.2400   45.3550 C   0  0  0  0  0  0  0  0  0  0  0  0
   57.4270   33.4610   44.6720 C   0  0  0  0  0  0  0  0  0  0  0  0
   57.1410   32.1580   45.1300 C   0  0  0  0  0  0  0  0  0  0  0  0
   56.2680   31.3780   44.5510 N   0  0  0  0  0  0  0  0  0  0  0  0
   56.2170   29.9430   44.5580 C   0  0  0  0  0  0  0  0  0  0  0  0
   55.1570   29.3340   44.8700 O   0  0  0  0  0  0  0  0  0  0  0  0
   57.4200   29.1550   44.1270 C   0  0  0  0  0  0  0  0  0  0  0  0
   57.3910   27.7310   44.7010 C   0  0  0  0  0  0  0  0  0  0  0  0
   57.9390   27.6790   46.0960 C   0  0  0  0  0  0  0  0  0  0  0  0
   58.6480   28.6340   46.5200 O   0  0  0  0  0  0  0  0  0  0  0  0
   57.5220   26.6180   46.9720 N   0  0  0  0  0  0  0  0  0  0  0  0
   56.8780   25.5130   46.7100 C   0  0  0  0  0  0  0  0  0  0  0  0
   57.5280   24.3410   46.9500 N   0  0  0  0  0  0  0  0  0  0  0  0
   56.9720   23.1260   46.6970 C   0  0  0  0  0  0  0  0  0  0  0  0
   55.6820   23.0450   46.1710 C   0  0  0  0  0  0  0  0  0  0  0  0
   54.9640   24.2200   45.9310 C   0  0  0  0  0  0  0  0  0  0  0  0
   55.5430   25.4630   46.2110 C   0  0  0  0  0  0  0  0  0  0  0  0
   54.7700   26.5990   46.0150 O   0  0  0  0  0  0  0  0  0  0  0  0
   57.7560   31.7070   46.2580 N   0  0  0  0  0  0  0  0  0  0  0  0
   58.6740   32.4480   46.9360 C   0  0  0  0  0  0  0  0  0  0  0  0
   59.8337   34.4288   48.3314 H   0  0  0  0  0  0  0  0  0  0  0  0
   61.0183   34.2573   46.9920 H   0  0  0  0  0  0  0  0  0  0  0  0
   59.8544   35.6255   46.9920 H   0  0  0  0  0  0  0  0  0  0  0  0
   58.5906   35.2569   45.0035 H   0  0  0  0  0  0  0  0  0  0  0  0
   56.9168   33.8602   43.7830 H   0  0  0  0  0  0  0  0  0  0  0  0
   57.4360   29.0980   43.0286 H   0  0  0  0  0  0  0  0  0  0  0  0
   58.3201   29.6625   44.5043 H   0  0  0  0  0  0  0  0  0  0  0  0
   56.3506   27.3740   44.7141 H   0  0  0  0  0  0  0  0  0  0  0  0
   58.0211   27.0935   44.0633 H   0  0  0  0  0  0  0  0  0  0  0  0
   57.5391   22.2071   46.9070 H   0  0  0  0  0  0  0  0  0  0  0  0
   55.2343   22.0655   45.9473 H   0  0  0  0  0  0  0  0  0  0  0  0
   53.9441   24.1677   45.5222 H   0  0  0  0  0  0  0  0  0  0  0  0
   59.1521   32.0381   47.8379 H   0  0  0  0  0  0  0  0  0  0  0  0
  1  2  1  0
  2  3  1  0
  3  4  2  0
  4  5  1  0
  5  6  2  3
  6  7  1  0
  7  8  2  0
  7  9  1  0
  9 10  1  0
 10 11  1  0
 11 12  2  0
 11 13  1  0
 13 14  2  3
 14 15  1  0
 15 16  1  0
 16 17  2  0
 17 18  1  0
 18 19  2  0
 19 20  1  0
  5 21  1  0
 21 22  1  0
 22  2  2  0
 19 14  1  0
  1 23  1  0
  1 24  1  0
  1 25  1  0
  3 26  1  0
  4 27  1  0
  9 28  1  0
  9 29  1  0
 10 30  1  0
 10 31  1  0
 16 32  1  0
 17 33  1  0
 18 34  1  0
 22 35  1  0
M  CHG  3  15  -1  20  -1  21  -1
M  END
>  <UniqueID>  (66) 
63

>  <SMILES>  (66) 
Cc1ccc(=NC(=O)CCC(=O)N=c2[n-]cccc2[O-])[n-]c1

>  <Energy>  (66) 
49.85947525370354

>  <Genealogy>  (66) 
Cc1ccc(=NC(=O)CCC(=O)N=c2[n-]cccc2[O-])[n-]c1 (protonated)
Cc1ccc(=NC(=O)CCC(=O)N=c2[n-]cccc2[O-])[n-]c1 (3D coordinates assigned)
Cc1ccc(=NC(=O)CCC(=O)N=c2[n-]cccc2[O-])[n-]c1 (optimized conformer: 49.85947525370354 kcal/mol)

>  <smiles>  (66) 
Cc1ccc(=NC(=O)CCC(=O)N=c2[nH]cccc2O)[nH]c1

>  <score_type>  (66) 
oracle

>  <origin>  (66) 
adg

>  <m_score__min__energy>  (66) 
-14.35

>  <m_primary>  (66) 
energy

$$$$
66:0
     RDKit          3D

 48 51  0  0  0  0  0  0  0  0999 V2000
   56.9461   31.1238   41.4153 H   0  0  0  0  0  0  0  0  0  0  0  0
   56.9920   30.9970   42.5070 C   0  0  0  0  0  0  0  0  0  0  0  0
   56.5200   29.8600   43.0790 N   0  0  0  0  0  0  0  0  0  0  0  0
   56.5580   29.6830   44.4290 C   0  0  0  0  0  0  0  0  0  0  0  0
   56.1300   28.5850   44.9800 N   0  0  0  0  0  0  0  0  0  0  0  0
   56.9250   27.5720   45.6210 C   0  0  0  0  0  0  0  0  0  0  0  0
   58.3150   27.7100   45.7860 C   0  0  0  0  0  0  0  0  0  0  0  0
   58.8202   28.6243   45.4412 H   0  0  0  0  0  0  0  0  0  0  0  0
   59.0550   26.6900   46.3860 C   0  0  0  0  0  0  0  0  0  0  0  0
   60.1383   26.8125   46.5324 H   0  0  0  0  0  0  0  0  0  0  0  0
   58.4260   25.5150   46.8010 C   0  0  0  0  0  0  0  0  0  0  0  0
   59.0145   24.7217   47.2852 H   0  0  0  0  0  0  0  0  0  0  0  0
   57.0450   25.3390   46.6040 C   0  0  0  0  0  0  0  0  0  0  0  0
   56.3610   24.0930   47.0300 C   0  0  0  0  0  0  0  0  0  0  0  0
   55.1090   24.0010   46.9020 O   0  0  0  0  0  0  0  0  0  0  0  0
   57.0990   22.9870   47.5710 N   0  0  0  0  0  0  0  0  0  0  0  0
   58.1430   22.9790   47.5330 H   0  0  0  0  0  0  0  0  0  0  0  0
   56.4260   21.8170   48.1230 C   0  0  0  0  0  0  0  0  0  0  0  0
   56.4525   21.8631   49.2217 H   0  0  0  0  0  0  0  0  0  0  0  0
   55.3804   21.8005   47.7818 H   0  0  0  0  0  0  0  0  0  0  0  0
   56.9374   20.9048   47.7818 H   0  0  0  0  0  0  0  0  0  0  0  0
   56.3050   26.3780   46.0110 C   0  0  0  0  0  0  0  0  0  0  0  0
   55.2241   26.2510   45.8513 H   0  0  0  0  0  0  0  0  0  0  0  0
   57.0950   30.6520   45.2170 N   0  0  0  0  0  0  0  0  0  0  0  0
   57.5800   31.8060   44.6860 C   0  0  0  0  0  0  0  0  0  0  0  0
   58.1320   32.8040   45.5410 N   0  0  0  0  0  0  0  0  0  0  0  0
   58.2700   34.2710   45.5660 C   0  0  0  0  0  0  0  0  0  0  0  0
   58.8722   34.6555   44.7296 H   0  0  0  0  0  0  0  0  0  0  0  0
   57.3482   34.8635   45.4694 H   0  0  0  0  0  0  0  0  0  0  0  0
   58.9900   34.3380   46.8750 C   0  0  0  0  0  0  0  0  0  0  0  0
   58.6765   34.9765   47.7141 H   0  0  0  0  0  0  0  0  0  0  0  0
   60.3530   34.7380   46.7400 O   0  0  0  0  0  0  0  0  0  0  0  0
   61.4140   34.1920   47.4760 C   0  0  0  0  0  0  0  0  0  0  0  0
   62.4950   33.6410   46.7760 C   0  0  0  0  0  0  0  0  0  0  0  0
   62.4925   33.6454   45.6760 H   0  0  0  0  0  0  0  0  0  0  0  0
   63.5780   33.0850   47.4660 C   0  0  0  0  0  0  0  0  0  0  0  0
   64.4216   32.6529   46.9078 H   0  0  0  0  0  0  0  0  0  0  0  0
   63.5890   33.0780   48.8630 C   0  0  0  0  0  0  0  0  0  0  0  0
   64.9470   32.3820   49.7280 Cl  0  0  0  0  0  0  0  0  0  0  0  0
   62.5150   33.6260   49.5720 C   0  0  0  0  0  0  0  0  0  0  0  0
   62.5229   33.6205   50.6720 H   0  0  0  0  0  0  0  0  0  0  0  0
   61.4310   34.1810   48.8840 C   0  0  0  0  0  0  0  0  0  0  0  0
   60.5882   34.6107   49.4452 H   0  0  0  0  0  0  0  0  0  0  0  0
   58.8390   32.8520   46.8340 C   0  0  0  0  0  0  0  0  0  0  0  0
   59.8055   32.3273   46.8095 H   0  0  0  0  0  0  0  0  0  0  0  0
   58.3460   32.3740   47.6933 H   0  0  0  0  0  0  0  0  0  0  0  0
   57.5350   32.0040   43.3040 C   0  0  0  0  0  0  0  0  0  0  0  0
   57.9187   32.9321   42.8552 H   0  0  0  0  0  0  0  0  0  0  0  0
  1  2  1  0
  2  3  1  0
  3  4  1  0
  4  5  2  0
  5  6  1  0
  6  7  2  0
  7  8  1  0
  7  9  1  0
  9 10  1  0
  9 11  2  0
 11 12  1  0
 11 13  1  0
 13 14  1  0
 14 15  2  0
 14 16  1  0
 16 17  1  0
 16 18  1  0
 18 19  1  0
 18 20  1  0
 18 21  1  0
 13 22  2  0
 22 23  1  0
  4 24  1  0
 24 25  2  0
 25 26  1  0
 26 27  1  0
 27 28  1  0
 27 29  1  0
 27 30  1  0
 30 31  1  0
 30 32  1  0
 32 33  1  0
 33 34  2  0
 34 35  1  0
 34 36  1  0
 36 37  1  0
 36 38  2  0
 38 39  1  0
 38 40  1  0
 40 41  1  0
 40 42  2  0
 42 43  1  0
 30 44  1  0
 44 45  1  0
 44 46  1  0
 25 47  1  0
 47 48  1  0
 47  2  2  0
 22  6  1  0
 44 26  1  0
 42 33  1  0
M  CHG  1   3  -1
M  END
>  <UniqueID>  (67) 
64

>  <SMILES>  (67) 
CNC(=O)c1cccc(/N=c2/nc(N3CC(Oc4ccc(Cl)cc4)C3)cc[n-]2)c1

>  <Energy>  (67) 
102.26627426100728

>  <Genealogy>  (67) 
CNC(=O)c1cccc(N=c2nc(N3CC(Oc4ccc(Cl)cc4)C3)cc[n-]2)c1 (protonated)
CNC(=O)c1cccc(/N=c2/nc(N3CC(Oc4ccc(Cl)cc4)C3)cc[n-]2)c1 (cis-trans isomerization)
CNC(=O)c1cccc(/N=c2/nc(N3CC(Oc4ccc(Cl)cc4)C3)cc[n-]2)c1 (3D coordinates assigned)
CNC(=O)c1cccc(/N=c2/nc(N3CC(Oc4ccc(Cl)cc4)C3)cc[n-]2)c1 (nonaromatic ring conformer: 102.26627426100728 kcal/mol)

>  <smiles>  (67) 
CNC(=O)c1cccc(N=c2nc(N3CC(Oc4ccc(Cl)cc4)C3)cc[nH]2)c1

>  <score_type>  (67) 
oracle

>  <origin>  (67) 
adg

>  <m_score__min__energy>  (67) 
-11.039999999999999

>  <m_primary>  (67) 
energy

$$$$
67:0
     RDKit          3D

 62 66  0  0  0  0  0  0  0  0999 V2000
   66.8720   26.7040   50.8940 C   0  0  0  0  0  0  0  0  0  0  0  0
   66.3230   27.6270   51.8260 O   0  0  0  0  0  0  0  0  0  0  0  0
   66.1120   28.9900   51.5620 C   0  0  0  0  0  0  0  0  0  0  0  0
   67.2070   29.7720   51.1700 C   0  0  0  0  0  0  0  0  0  0  0  0
   67.0490   31.1330   50.8960 C   0  0  0  0  0  0  0  0  0  0  0  0
   65.7900   31.7310   51.0070 C   0  0  0  0  0  0  0  0  0  0  0  0
   65.6190   33.4500   50.6660 S   0  0  0  0  0  0  0  0  0  0  0  0
   66.9640   34.0970   50.4780 O   0  0  0  0  0  0  0  0  0  0  0  0
   64.9230   34.1120   51.8200 O   0  0  0  0  0  0  0  0  0  0  0  0
   64.6790   33.6490   49.2500 O   0  0  0  0  0  0  0  0  0  0  0  0
   63.5640   32.8680   48.9130 C   0  0  0  0  0  0  0  0  0  0  0  0
   63.5750   31.9410   47.8550 C   0  0  0  0  0  0  0  0  0  0  0  0
   62.4270   31.2030   47.5500 C   0  0  0  0  0  0  0  0  0  0  0  0
   61.2540   31.3670   48.3040 C   0  0  0  0  0  0  0  0  0  0  0  0
   60.0370   30.5860   47.9860 C   0  0  0  0  0  0  0  0  0  0  0  0
   59.0240   30.6760   48.7310 O   0  0  0  0  0  0  0  0  0  0  0  0
   59.9890   29.7630   46.8070 N   0  0  0  0  0  0  0  0  0  0  0  0
   59.0210   28.7160   46.6180 C   0  0  0  0  0  0  0  0  0  0  0  0
   57.8990   28.9330   45.8030 C   0  0  0  0  0  0  0  0  0  0  0  0
   56.9170   27.9510   45.6680 C   0  0  0  0  0  0  0  0  0  0  0  0
   57.0330   26.7310   46.3460 C   0  0  0  0  0  0  0  0  0  0  0  0
   55.9760   25.7000   46.2260 C   0  0  0  0  0  0  0  0  0  0  0  0
   56.0940   24.4550   46.7610 N   0  0  0  0  0  0  0  0  0  0  0  0
   54.9270   23.8820   46.4360 C   0  0  0  0  0  0  0  0  0  0  0  0
   54.4970   22.5920   46.7390 C   0  0  0  0  0  0  0  0  0  0  0  0
   53.2100   22.1970   46.3010 C   0  0  0  0  0  0  0  0  0  0  0  0
   52.7040   20.8360   46.5970 C   0  0  0  0  0  0  0  0  0  0  0  0
   52.4870   19.8990   45.5450 N   0  0  0  0  0  0  0  0  0  0  0  0
   52.4590   20.4930   47.7830 O   0  0  0  0  0  0  0  0  0  0  0  0
   52.4100   23.1220   45.5770 C   0  0  0  0  0  0  0  0  0  0  0  0
   52.8840   24.4160   45.2920 C   0  0  0  0  0  0  0  0  0  0  0  0
   54.1550   24.7560   45.7430 C   0  0  0  0  0  0  0  0  0  0  0  0
   54.7950   25.9230   45.5920 N   0  0  0  0  0  0  0  0  0  0  0  0
   58.1590   26.5040   47.1560 C   0  0  0  0  0  0  0  0  0  0  0  0
   59.1550   27.4850   47.2970 C   0  0  0  0  0  0  0  0  0  0  0  0
   60.3520   27.2050   48.1710 C   0  0  0  0  0  0  0  0  0  0  0  0
   61.2520   32.2760   49.3760 C   0  0  0  0  0  0  0  0  0  0  0  0
   62.3960   33.0240   49.6680 C   0  0  0  0  0  0  0  0  0  0  0  0
   64.6870   30.9570   51.3970 C   0  0  0  0  0  0  0  0  0  0  0  0
   64.8450   29.5940   51.6760 C   0  0  0  0  0  0  0  0  0  0  0  0
   67.3611   25.8818   51.4369 H   0  0  0  0  0  0  0  0  0  0  0  0
   66.0679   26.2990   50.2620 H   0  0  0  0  0  0  0  0  0  0  0  0
   67.6117   27.2172   50.2620 H   0  0  0  0  0  0  0  0  0  0  0  0
   68.2008   29.3097   51.0771 H   0  0  0  0  0  0  0  0  0  0  0  0
   67.9176   31.7357   50.5921 H   0  0  0  0  0  0  0  0  0  0  0  0
   64.4916   31.7958   47.2644 H   0  0  0  0  0  0  0  0  0  0  0  0
   62.4431   30.4889   46.7134 H   0  0  0  0  0  0  0  0  0  0  0  0
   60.6610   29.9680   46.0340 H   0  0  0  0  0  0  0  0  0  0  0  0
   57.7928   29.8868   45.2654 H   0  0  0  0  0  0  0  0  0  0  0  0
   56.0448   28.1365   45.0239 H   0  0  0  0  0  0  0  0  0  0  0  0
   55.1395   21.8997   47.3028 H   0  0  0  0  0  0  0  0  0  0  0  0
   53.2800   19.5620   44.9520 H   0  0  0  0  0  0  0  0  0  0  0  0
   51.4081   22.8228   45.2353 H   0  0  0  0  0  0  0  0  0  0  0  0
   52.2693   25.1352   44.7308 H   0  0  0  0  0  0  0  0  0  0  0  0
   58.2618   25.5459   47.6865 H   0  0  0  0  0  0  0  0  0  0  0  0
   60.0578   27.2738   49.2287 H   0  0  0  0  0  0  0  0  0  0  0  0
   60.7310   26.1940   47.9608 H   0  0  0  0  0  0  0  0  0  0  0  0
   61.1401   27.9430   47.9608 H   0  0  0  0  0  0  0  0  0  0  0  0
   60.3462   32.3993   49.9878 H   0  0  0  0  0  0  0  0  0  0  0  0
   62.3781   33.7431   50.5002 H   0  0  0  0  0  0  0  0  0  0  0  0
   63.6942   31.4226   51.4840 H   0  0  0  0  0  0  0  0  0  0  0  0
   63.9769   28.9933   51.9851 H   0  0  0  0  0  0  0  0  0  0  0  0
  1  2  1  0
  2  3  1  0
  3  4  2  0
  4  5  1  0
  5  6  2  0
  6  7  1  0
  7  8  2  0
  7  9  2  0
  7 10  1  0
 10 11  1  0
 11 12  2  0
 12 13  1  0
 13 14  2  0
 14 15  1  0
 15 16  2  0
 15 17  1  0
 17 18  1  0
 18 19  2  0
 19 20  1  0
 20 21  2  0
 21 22  1  0
 22 23  2  0
 23 24  1  0
 24 25  2  0
 25 26  1  0
 26 27  1  0
 27 28  1  0
 27 29  2  0
 26 30  2  0
 30 31  1  0
 31 32  2  0
 32 33  1  0
 21 34  1  0
 34 35  2  0
 35 36  1  0
 14 37  1  0
 37 38  2  0
  6 39  1  0
 39 40  2  0
 40  3  1  0
 38 11  1  0
 35 18  1  0
 33 22  1  0
 32 24  1  0
  1 41  1  0
  1 42  1  0
  1 43  1  0
  4 44  1  0
  5 45  1  0
 12 46  1  0
 13 47  1  0
 17 48  1  0
 19 49  1  0
 20 50  1  0
 25 51  1  0
 28 52  1  0
 30 53  1  0
 31 54  1  0
 34 55  1  0
 36 56  1  0
 36 57  1  0
 36 58  1  0
 37 59  1  0
 38 60  1  0
 39 61  1  0
 40 62  1  0
M  CHG  2  28  -1  33  -1
M  END
>  <UniqueID>  (68) 
65

>  <SMILES>  (68) 
COc1ccc(S(=O)(=O)Oc2ccc(C(=O)Nc3ccc(-c4nc5cc(C([NH-])=O)ccc5[n-]4)cc3C)cc2)cc1

>  <Energy>  (68) 
110.64424819096068

>  <Genealogy>  (68) 
COc1ccc(S(=O)(=O)Oc2ccc(C(=O)Nc3ccc(-c4nc5cc(C([NH-])=O)ccc5[n-]4)cc3C)cc2)cc1 (protonated)
COc1ccc(S(=O)(=O)Oc2ccc(C(=O)Nc3ccc(-c4nc5cc(C([NH-])=O)ccc5[n-]4)cc3C)cc2)cc1 (3D coordinates assigned)
COc1ccc(S(=O)(=O)Oc2ccc(C(=O)Nc3ccc(-c4nc5cc(C([NH-])=O)ccc5[n-]4)cc3C)cc2)cc1 (optimized conformer: 110.64424819096068 kcal/mol)

>  <smiles>  (68) 
COc1ccc(S(=O)(=O)Oc2ccc(C(=O)Nc3ccc(-c4nc5cc(C(N)=O)ccc5[nH]4)cc3C)cc2)cc1

>  <score_type>  (68) 
oracle

>  <origin>  (68) 
adg

>  <m_score__min__energy>  (68) 
-11.210000000000001

>  <m_primary>  (68) 
energy

$$$$
68:0
     RDKit          3D

 38 40  0  0  1  0  0  0  0  0999 V2000
   59.6740   27.3450   47.4860 C   0  0  0  0  0  0  0  0  0  0  0  0
   58.7030   27.8530   46.7630 C   0  0  0  0  0  0  0  0  0  0  0  0
   58.4620   29.2380   46.7570 C   0  0  0  0  0  0  0  0  0  0  0  0
   59.5210   30.2660   47.7660 S   0  0  0  0  0  0  0  0  0  0  0  0
   60.3670   31.5210   46.7890 C   0  0  0  0  0  0  0  0  0  0  0  0
   59.3710   32.4680   46.2390 C   0  0  0  0  0  0  0  0  0  0  0  0
   58.7030   32.1720   45.0680 C   0  0  0  0  0  0  0  0  0  0  0  0
   57.7620   33.0580   44.5380 C   0  0  0  0  0  0  0  0  0  0  0  0
   57.5000   34.2500   45.2020 C   0  0  0  0  0  0  0  0  0  0  0  0
   58.1750   34.5340   46.3720 C   0  0  0  0  0  0  0  0  0  0  0  0
   59.1180   33.6490   46.9070 C   0  0  0  0  0  0  0  0  0  0  0  0
   59.7690   33.9670   48.0730 F   0  0  0  0  0  0  0  0  0  0  0  0
   57.4640   29.7490   46.0110 N   0  0  0  0  0  0  0  0  0  0  0  0
   56.6550   28.9960   45.2450 C   0  0  0  0  0  0  0  0  0  0  0  0
   55.7360   29.4770   44.5590 O   0  0  0  0  0  0  0  0  0  0  0  0
   56.8640   27.6680   45.2330 N   0  0  0  0  0  0  0  0  0  0  0  0
   57.8540   27.1150   45.9670 C   0  0  0  0  0  0  0  0  0  0  0  0
   57.9880   25.8110   45.8960 C   0  0  0  0  0  0  0  0  0  0  0  0
   56.9530   24.9940   45.2750 C   0  0  0  0  0  0  0  0  0  0  0  0
   57.2040   23.8920   44.5200 N   0  0  0  0  0  0  0  0  0  0  0  0
   56.0270   23.3740   44.0990 C   0  0  0  0  0  0  0  0  0  0  0  0
   55.8550   22.3390   43.3700 O   0  0  0  0  0  0  0  0  0  0  0  0
   55.0420   24.1690   44.6020 N   0  0  0  0  0  0  0  0  0  0  0  0
   55.6010   25.1580   45.3180 C   0  0  0  0  0  0  0  0  0  0  0  0
   54.9060   26.1780   45.9930 O   0  0  0  0  0  0  0  0  0  0  0  0
   59.8526   26.2596   47.4823 H   0  0  0  0  0  0  0  0  0  0  0  0
   60.3090   28.0048   48.0955 H   0  0  0  0  0  0  0  0  0  0  0  0
   61.0782   32.0657   47.4274 H   0  0  0  0  0  0  0  0  0  0  0  0
   60.9119   31.0395   45.9637 H   0  0  0  0  0  0  0  0  0  0  0  0
   58.9141   31.2271   44.5459 H   0  0  0  0  0  0  0  0  0  0  0  0
   57.2338   32.8144   43.6044 H   0  0  0  0  0  0  0  0  0  0  0  0
   56.7624   34.9599   44.7995 H   0  0  0  0  0  0  0  0  0  0  0  0
   57.9668   35.4783   46.8964 H   0  0  0  0  0  0  0  0  0  0  0  0
   56.2410   27.0780   44.6420 H   0  0  0  0  0  0  0  0  0  0  0  0
   58.8880   25.3314   46.3082 H   0  0  0  0  0  0  0  0  0  0  0  0
   58.1660   23.5090   44.3040 H   0  0  0  0  0  0  0  0  0  0  0  0
   54.0140   23.9860   44.4210 H   0  0  0  0  0  0  0  0  0  0  0  0
   55.1320   26.3500   46.9730 H   0  0  0  0  0  0  0  0  0  0  0  0
  1  2  2  0
  2  3  1  0
  3  4  1  0
  4  5  1  0
  5  6  1  0
  6  7  2  0
  7  8  1  0
  8  9  2  0
  9 10  1  0
 10 11  2  0
 11 12  1  0
  3 13  2  0
 13 14  1  0
 14 15  2  0
 14 16  1  0
 16 17  1  0
 17 18  2  0
 18 19  1  0
 19 20  1  0
 20 21  1  0
 21 22  2  0
 21 23  1  0
 23 24  1  0
 24 25  1  0
 17  2  1  0
 24 19  2  0
 11  6  1  0
  1 26  1  0
  1 27  1  0
  5 28  1  0
  5 29  1  0
  7 30  1  0
  8 31  1  0
  9 32  1  0
 10 33  1  0
 16 34  1  0
 18 35  1  0
 20 36  1  0
 23 37  1  0
 25 38  1  0
M  END
>  <smiles>  (69) 
C=c1c(SCc2ccccc2F)nc(=O)[nH]c1=Cc1[nH]c(=O)[nH]c1O

>  <score_type>  (69) 
oracle

>  <origin>  (69) 
adg

>  <m_score__min__energy>  (69) 
-9.8000000000000007

>  <m_primary>  (69) 
energy

$$$$
69:0
     RDKit          3D

 41 43  0  0  0  0  0  0  0  0999 V2000
   58.1100   32.6710   42.9770 C   0  0  0  0  0  0  0  0  0  0  0  0
   58.3090   33.0230   44.4300 C   0  0  0  0  0  0  0  0  0  0  0  0
   58.8310   34.2850   44.7590 C   0  0  0  0  0  0  0  0  0  0  0  0
   58.9850   34.6640   46.0940 C   0  0  0  0  0  0  0  0  0  0  0  0
   58.6280   33.7870   47.1160 C   0  0  0  0  0  0  0  0  0  0  0  0
   58.1270   32.5210   46.8090 C   0  0  0  0  0  0  0  0  0  0  0  0
   57.9620   32.1210   45.4700 C   0  0  0  0  0  0  0  0  0  0  0  0
   57.4200   30.7670   45.1920 C   0  0  0  0  0  0  0  0  0  0  0  0
   56.2140   30.6340   44.8570 O   0  0  0  0  0  0  0  0  0  0  0  0
   58.2560   29.6030   45.2160 N   0  0  0  0  0  0  0  0  0  0  0  0
   57.9100   28.3300   45.7850 C   0  0  0  0  0  0  0  0  0  0  0  0
   58.8640   27.6450   46.5450 C   0  0  0  0  0  0  0  0  0  0  0  0
   58.5460   26.4210   47.1330 C   0  0  0  0  0  0  0  0  0  0  0  0
   57.2810   25.8590   46.9450 C   0  0  0  0  0  0  0  0  0  0  0  0
   56.3320   26.5020   46.1410 C   0  0  0  0  0  0  0  0  0  0  0  0
   55.0340   25.9100   45.9930 N   0  0  0  0  0  0  0  0  0  0  0  0
   54.7560   24.5200   45.7840 C   0  0  0  0  0  0  0  0  0  0  0  0
   54.5690   23.7450   46.7590 O   0  0  0  0  0  0  0  0  0  0  0  0
   54.6950   23.9860   44.3910 C   0  0  0  0  0  0  0  0  0  0  0  0
   55.8740   23.1720   44.1290 N   0  0  0  0  0  0  0  0  0  0  0  0
   57.0570   23.2640   44.7640 C   0  0  0  0  0  0  0  0  0  0  0  0
   57.8840   22.2740   44.2790 C   0  0  0  0  0  0  0  0  0  0  0  0
   57.1190   21.6010   43.3450 C   0  0  0  0  0  0  0  0  0  0  0  0
   55.8950   22.1600   43.2760 N   0  0  0  0  0  0  0  0  0  0  0  0
   56.6510   27.7450   45.5650 C   0  0  0  0  0  0  0  0  0  0  0  0
   57.5699   31.7157   42.9018 H   0  0  0  0  0  0  0  0  0  0  0  0
   57.5256   33.4623   42.4847 H   0  0  0  0  0  0  0  0  0  0  0  0
   59.0893   32.5783   42.4847 H   0  0  0  0  0  0  0  0  0  0  0  0
   59.1210   34.9807   43.9578 H   0  0  0  0  0  0  0  0  0  0  0  0
   59.3891   35.6572   46.3394 H   0  0  0  0  0  0  0  0  0  0  0  0
   58.7412   34.0928   48.1666 H   0  0  0  0  0  0  0  0  0  0  0  0
   57.8586   31.8295   47.6213 H   0  0  0  0  0  0  0  0  0  0  0  0
   59.8683   28.0732   46.6793 H   0  0  0  0  0  0  0  0  0  0  0  0
   59.2934   25.8967   47.7465 H   0  0  0  0  0  0  0  0  0  0  0  0
   57.0288   24.9053   47.4317 H   0  0  0  0  0  0  0  0  0  0  0  0
   53.7912   23.3700   44.2741 H   0  0  0  0  0  0  0  0  0  0  0  0
   54.6634   24.8239   43.6791 H   0  0  0  0  0  0  0  0  0  0  0  0
   57.3186   24.0019   45.5367 H   0  0  0  0  0  0  0  0  0  0  0  0
   58.9238   22.0654   44.5709 H   0  0  0  0  0  0  0  0  0  0  0  0
   57.4577   20.7406   42.7492 H   0  0  0  0  0  0  0  0  0  0  0  0
   55.9101   28.2628   44.9381 H   0  0  0  0  0  0  0  0  0  0  0  0
  1  2  1  0
  2  3  2  0
  3  4  1  0
  4  5  2  0
  5  6  1  0
  6  7  2  0
  7  8  1  0
  8  9  2  0
  8 10  1  0
 10 11  1  0
 11 12  2  0
 12 13  1  0
 13 14  2  0
 14 15  1  0
 15 16  1  0
 16 17  1  0
 17 18  2  0
 17 19  1  0
 19 20  1  0
 20 21  1  0
 21 22  2  0
 22 23  1  0
 23 24  2  0
 15 25  2  0
  7  2  1  0
 25 11  1  0
 24 20  1  0
  1 26  1  0
  1 27  1  0
  1 28  1  0
  3 29  1  0
  4 30  1  0
  5 31  1  0
  6 32  1  0
 12 33  1  0
 13 34  1  0
 14 35  1  0
 19 36  1  0
 19 37  1  0
 21 38  1  0
 22 39  1  0
 23 40  1  0
 25 41  1  0
M  CHG  2  10  -1  16  -1
M  END
>  <UniqueID>  (70) 
66

>  <SMILES>  (70) 
Cc1ccccc1C(=O)[N-]c1cccc([N-]C(=O)Cn2cccn2)c1

>  <Energy>  (70) 
79.76845456467619

>  <Genealogy>  (70) 
Cc1ccccc1C(=O)[N-]c1cccc([N-]C(=O)Cn2cccn2)c1 (protonated)
Cc1ccccc1C(=O)[N-]c1cccc([N-]C(=O)Cn2cccn2)c1 (3D coordinates assigned)
Cc1ccccc1C(=O)[N-]c1cccc([N-]C(=O)Cn2cccn2)c1 (optimized conformer: 79.76845456467619 kcal/mol)

>  <smiles>  (70) 
Cc1ccccc1C(=O)Nc1cccc(NC(=O)Cn2cccn2)c1

>  <score_type>  (70) 
oracle

>  <origin>  (70) 
adg

>  <m_score__min__energy>  (70) 
-11.949999999999999

>  <m_primary>  (70) 
energy

$$$$
70:0
     RDKit          3D

 44 46  0  0  0  0  0  0  0  0999 V2000
   61.9420   33.5990   50.7900 N   0  0  0  0  0  0  0  0  0  0  0  0
   60.8240   33.6180   49.4730 S   0  0  0  0  0  0  0  0  0  0  0  0
   61.2910   34.5950   48.4310 O   0  0  0  0  0  0  0  0  0  0  0  0
   59.4760   34.0530   49.9780 O   0  0  0  0  0  0  0  0  0  0  0  0
   60.7240   32.0060   48.7650 C   0  0  0  0  0  0  0  0  0  0  0  0
   60.1030   30.9620   49.4630 C   0  0  0  0  0  0  0  0  0  0  0  0
   60.0370   29.6820   48.9050 C   0  0  0  0  0  0  0  0  0  0  0  0
   60.5860   29.4320   47.6370 C   0  0  0  0  0  0  0  0  0  0  0  0
   60.5560   28.0450   47.0580 C   0  0  0  0  0  0  0  0  0  0  0  0
   59.1560   27.6810   46.6790 C   0  0  0  0  0  0  0  0  0  0  0  0
   58.6610   26.4590   46.9970 N   0  0  0  0  0  0  0  0  0  0  0  0
   57.3800   26.1230   46.7020 C   0  0  0  0  0  0  0  0  0  0  0  0
   56.9560   24.9760   47.0070 O   0  0  0  0  0  0  0  0  0  0  0  0
   56.5390   27.0500   46.0670 C   0  0  0  0  0  0  0  0  0  0  0  0
   55.2180   26.7190   45.7590 O   0  0  0  0  0  0  0  0  0  0  0  0
   57.0630   28.3220   45.7540 C   0  0  0  0  0  0  0  0  0  0  0  0
   56.2650   29.3790   45.0920 C   0  0  0  0  0  0  0  0  0  0  0  0
   55.2080   29.0620   44.4810 O   0  0  0  0  0  0  0  0  0  0  0  0
   56.6750   30.7480   45.1310 N   0  0  0  0  0  0  0  0  0  0  0  0
   57.8130   31.2580   44.3780 C   0  0  0  0  0  0  0  0  0  0  0  0
   58.3020   32.5250   45.0160 C   0  0  0  0  0  0  0  0  0  0  0  0
   58.8280   33.5600   44.2250 C   0  0  0  0  0  0  0  0  0  0  0  0
   59.2440   34.7570   44.8160 C   0  0  0  0  0  0  0  0  0  0  0  0
   59.1250   34.9350   46.1980 C   0  0  0  0  0  0  0  0  0  0  0  0
   59.5260   36.0970   46.7700 F   0  0  0  0  0  0  0  0  0  0  0  0
   58.5880   33.9150   46.9900 C   0  0  0  0  0  0  0  0  0  0  0  0
   58.1710   32.7170   46.4020 C   0  0  0  0  0  0  0  0  0  0  0  0
   58.3560   28.5980   46.0740 N   0  0  0  0  0  0  0  0  0  0  0  0
   61.2210   30.4750   46.9460 C   0  0  0  0  0  0  0  0  0  0  0  0
   61.2880   31.7560   47.5050 C   0  0  0  0  0  0  0  0  0  0  0  0
   61.9110   32.7480   46.8180 F   0  0  0  0  0  0  0  0  0  0  0  0
   62.3280   34.5670   50.8750 H   0  0  0  0  0  0  0  0  0  0  0  0
   59.6654   31.1503   50.4545 H   0  0  0  0  0  0  0  0  0  0  0  0
   59.5525   28.8665   49.4620 H   0  0  0  0  0  0  0  0  0  0  0  0
   61.1967   28.0090   46.1645 H   0  0  0  0  0  0  0  0  0  0  0  0
   60.9246   27.3312   47.8094 H   0  0  0  0  0  0  0  0  0  0  0  0
   54.7430   27.0870   44.9440 H   0  0  0  0  0  0  0  0  0  0  0  0
   58.6199   30.5103   44.3801 H   0  0  0  0  0  0  0  0  0  0  0  0
   57.5074   31.4616   43.3411 H   0  0  0  0  0  0  0  0  0  0  0  0
   58.9129   33.4282   43.1362 H   0  0  0  0  0  0  0  0  0  0  0  0
   59.6654   35.5597   44.1931 H   0  0  0  0  0  0  0  0  0  0  0  0
   58.4936   34.0555   48.0769 H   0  0  0  0  0  0  0  0  0  0  0  0
   57.7387   31.9215   47.0268 H   0  0  0  0  0  0  0  0  0  0  0  0
   61.6686   30.2846   45.9594 H   0  0  0  0  0  0  0  0  0  0  0  0
  1  2  1  0
  2  3  2  0
  2  4  2  0
  2  5  1  0
  5  6  2  0
  6  7  1  0
  7  8  2  0
  8  9  1  0
  9 10  1  0
 10 11  2  0
 11 12  1  0
 12 13  2  0
 12 14  1  0
 14 15  1  0
 14 16  2  0
 16 17  1  0
 17 18  2  0
 17 19  1  0
 19 20  1  0
 20 21  1  0
 21 22  2  0
 22 23  1  0
 23 24  2  0
 24 25  1  0
 24 26  1  0
 26 27  2  0
 16 28  1  0
  8 29  1  0
 29 30  2  0
 30 31  1  0
 30  5  1  0
 28 10  1  0
 27 21  1  0
  1 32  1  0
  6 33  1  0
  7 34  1  0
  9 35  1  0
  9 36  1  0
 15 37  1  0
 20 38  1  0
 20 39  1  0
 22 40  1  0
 23 41  1  0
 26 42  1  0
 27 43  1  0
 29 44  1  0
M  CHG  3   1  -1  19  -1  28  -1
M  END
>  <UniqueID>  (71) 
67

>  <SMILES>  (71) 
[NH-]S(=O)(=O)c1ccc(Cc2nc(=O)c(O)c(C(=O)[N-]Cc3ccc(F)cc3)[n-]2)cc1F

>  <Energy>  (71) 
44.96800242415558

>  <Genealogy>  (71) 
[NH-]S(=O)(=O)c1ccc(Cc2nc(=O)c(O)c(C(=O)[N-]Cc3ccc(F)cc3)[n-]2)cc1F (protonated)
[NH-]S(=O)(=O)c1ccc(Cc2nc(=O)c(O)c(C(=O)[N-]Cc3ccc(F)cc3)[n-]2)cc1F (3D coordinates assigned)
[NH-]S(=O)(=O)c1ccc(Cc2nc(=O)c(O)c(C(=O)[N-]Cc3ccc(F)cc3)[n-]2)cc1F (optimized conformer: 44.96800242415558 kcal/mol)

>  <smiles>  (71) 
NS(=O)(=O)c1ccc(Cc2nc(=O)c(O)c(C(=O)NCc3ccc(F)cc3)[nH]2)cc1F

>  <score_type>  (71) 
oracle

>  <origin>  (71) 
adg

>  <m_score__min__energy>  (71) 
-12.43

>  <m_primary>  (71) 
energy

$$$$
71:0
     RDKit          3D

 52 55  0  0  0  0  0  0  0  0999 V2000
   58.1140   26.7600   47.4210 C   0  0  0  0  0  0  0  0  0  0  0  0
   58.1520   26.5530   45.9640 N   0  0  0  0  0  0  0  0  0  0  0  0
   59.2780   27.2830   45.3250 C   0  0  0  0  0  0  0  0  0  0  0  0
   59.1270   28.8220   45.3840 C   0  0  0  0  0  0  0  0  0  0  0  0
   57.7110   29.2090   45.0970 C   0  0  0  0  0  0  0  0  0  0  0  0
   57.1230   30.4410   44.8710 C   0  0  0  0  0  0  0  0  0  0  0  0
   57.8100   31.7480   44.7570 C   0  0  0  0  0  0  0  0  0  0  0  0
   58.1680   32.1430   43.6140 O   0  0  0  0  0  0  0  0  0  0  0  0
   58.0730   32.5820   45.9080 N   0  0  0  0  0  0  0  0  0  0  0  0
   58.2140   34.0330   45.7320 C   0  0  0  0  0  0  0  0  0  0  0  0
   59.6340   34.4320   46.1180 C   0  0  0  0  0  0  0  0  0  0  0  0
   59.9040   34.1340   47.6110 C   0  0  0  0  0  0  0  0  0  0  0  0
   61.3840   33.8900   47.8580 C   0  0  0  0  0  0  0  0  0  0  0  0
   62.2440   33.5140   46.8090 C   0  0  0  0  0  0  0  0  0  0  0  0
   63.6020   33.2950   47.0540 C   0  0  0  0  0  0  0  0  0  0  0  0
   64.1220   33.4620   48.3400 C   0  0  0  0  0  0  0  0  0  0  0  0
   63.2860   33.8650   49.3910 C   0  0  0  0  0  0  0  0  0  0  0  0
   63.8380   34.0220   50.7870 C   0  0  0  0  0  0  0  0  0  0  0  0
   62.8670   33.5820   51.7860 N   0  0  0  0  0  0  0  0  0  0  0  0
   61.9200   34.0710   49.1470 C   0  0  0  0  0  0  0  0  0  0  0  0
   59.0050   33.0100   48.2050 C   0  0  0  0  0  0  0  0  0  0  0  0
   58.4980   31.9730   47.1820 C   0  0  0  0  0  0  0  0  0  0  0  0
   55.7920   30.2570   44.7260 N   0  0  0  0  0  0  0  0  0  0  0  0
   55.5120   28.9690   44.8810 N   0  0  0  0  0  0  0  0  0  0  0  0
   56.6690   28.3290   45.1280 C   0  0  0  0  0  0  0  0  0  0  0  0
   56.8450   26.8560   45.3280 C   0  0  0  0  0  0  0  0  0  0  0  0
   58.2899   25.8020   47.9322 H   0  0  0  0  0  0  0  0  0  0  0  0
   58.8952   27.4785   47.7098 H   0  0  0  0  0  0  0  0  0  0  0  0
   57.1285   27.1542   47.7098 H   0  0  0  0  0  0  0  0  0  0  0  0
   60.2100   27.0044   45.8387 H   0  0  0  0  0  0  0  0  0  0  0  0
   59.2870   26.9988   44.2624 H   0  0  0  0  0  0  0  0  0  0  0  0
   59.4054   29.1770   46.3872 H   0  0  0  0  0  0  0  0  0  0  0  0
   59.7856   29.2784   44.6304 H   0  0  0  0  0  0  0  0  0  0  0  0
   58.0265   34.2992   44.6813 H   0  0  0  0  0  0  0  0  0  0  0  0
   57.4883   34.5618   46.3674 H   0  0  0  0  0  0  0  0  0  0  0  0
   60.3475   33.8644   45.5026 H   0  0  0  0  0  0  0  0  0  0  0  0
   59.7543   35.5121   45.9477 H   0  0  0  0  0  0  0  0  0  0  0  0
   59.6132   35.0391   48.1643 H   0  0  0  0  0  0  0  0  0  0  0  0
   61.8449   33.3920   45.7912 H   0  0  0  0  0  0  0  0  0  0  0  0
   64.2647   32.9897   46.2308 H   0  0  0  0  0  0  0  0  0  0  0  0
   65.1898   33.2769   48.5284 H   0  0  0  0  0  0  0  0  0  0  0  0
   64.7519   33.4173   50.8827 H   0  0  0  0  0  0  0  0  0  0  0  0
   64.0603   35.0855   50.9586 H   0  0  0  0  0  0  0  0  0  0  0  0
   62.0000   34.1560   51.6890 H   0  0  0  0  0  0  0  0  0  0  0  0
   62.6110   32.5860   51.5900 H   0  0  0  0  0  0  0  0  0  0  0  0
   61.2603   34.3774   49.9722 H   0  0  0  0  0  0  0  0  0  0  0  0
   59.5866   32.4771   48.9717 H   0  0  0  0  0  0  0  0  0  0  0  0
   58.1108   33.5103   48.6051 H   0  0  0  0  0  0  0  0  0  0  0  0
   59.3085   31.2584   46.9760 H   0  0  0  0  0  0  0  0  0  0  0  0
   57.6182   31.4799   47.6211 H   0  0  0  0  0  0  0  0  0  0  0  0
   56.0366   26.4824   45.9737 H   0  0  0  0  0  0  0  0  0  0  0  0
   56.8140   26.3647   44.3443 H   0  0  0  0  0  0  0  0  0  0  0  0
  1  2  1  0
  2  3  1  0
  3  4  1  0
  4  5  1  0
  5  6  1  0
  6  7  1  0
  7  8  2  0
  7  9  1  0
  9 10  1  0
 10 11  1  0
 11 12  1  0
 12 13  1  0
 13 14  2  0
 14 15  1  0
 15 16  2  0
 16 17  1  0
 17 18  1  0
 18 19  1  0
 17 20  2  0
 12 21  1  0
 21 22  1  0
  6 23  2  0
 23 24  1  0
 24 25  1  0
 25 26  1  0
 26  2  1  0
 25  5  2  0
 22  9  1  0
 20 13  1  0
  1 27  1  0
  1 28  1  0
  1 29  1  0
  3 30  1  0
  3 31  1  0
  4 32  1  0
  4 33  1  0
 10 34  1  0
 10 35  1  0
 11 36  1  0
 11 37  1  0
 12 38  1  0
 14 39  1  0
 15 40  1  0
 16 41  1  0
 18 42  1  0
 18 43  1  0
 19 44  1  0
 19 45  1  0
 20 46  1  0
 21 47  1  0
 21 48  1  0
 22 49  1  0
 22 50  1  0
 26 51  1  0
 26 52  1  0
M  CHG  1  24  -1
M  END
>  <UniqueID>  (72) 
68

>  <SMILES>  (72) 
CN1CCc2c(C(=O)N3CCC(c4cccc(CN)c4)CC3)n[n-]c2C1

>  <Energy>  (72) 
98.3053678458108

>  <Genealogy>  (72) 
CN1CCc2c(C(=O)N3CCC(c4cccc(CN)c4)CC3)n[n-]c2C1 (protonated)
CN1CCc2c(C(=O)N3CCC(c4cccc(CN)c4)CC3)n[n-]c2C1 (3D coordinates assigned)
CN1CCc2c(C(=O)N3CCC(c4cccc(CN)c4)CC3)n[n-]c2C1 (nonaromatic ring conformer: 98.3053678458108 kcal/mol)

>  <smiles>  (72) 
CN1CCc2c(C(=O)N3CCC(c4cccc(CN)c4)CC3)n[nH]c2C1

>  <score_type>  (72) 
oracle

>  <origin>  (72) 
adg

>  <m_score__min__energy>  (72) 
-11.42

>  <m_primary>  (72) 
energy

$$$$
72:0
     RDKit          3D

 55 57  0  0  0  0  0  0  0  0999 V2000
   56.6470   30.0320   42.9290 O   0  0  0  0  0  0  0  0  0  0  0  0
   57.0480   30.3130   44.3490 S   0  0  0  0  0  0  0  0  0  0  0  0
   56.2500   29.4130   45.2460 O   0  0  0  0  0  0  0  0  0  0  0  0
   58.7840   30.0080   44.4900 C   0  0  0  0  0  0  0  0  0  0  0  0
   59.3390   28.8330   44.8040 C   0  0  0  0  0  0  0  0  0  0  0  0
   58.7140   27.5270   44.5460 C   0  0  0  0  0  0  0  0  0  0  0  0
   58.4030   26.6740   45.6160 C   0  0  0  0  0  0  0  0  0  0  0  0
   57.7840   25.4440   45.3730 C   0  0  0  0  0  0  0  0  0  0  0  0
   57.4700   25.0630   44.0660 C   0  0  0  0  0  0  0  0  0  0  0  0
   56.6390   23.3740   43.7370 Br  0  0  0  0  0  0  0  0  0  0  0  0
   57.7670   25.9180   42.9980 C   0  0  0  0  0  0  0  0  0  0  0  0
   58.3710   27.1550   43.2390 C   0  0  0  0  0  0  0  0  0  0  0  0
   56.6780   31.9720   44.7090 N   0  0  0  0  0  0  0  0  0  0  0  0
   57.9130   32.7390   44.8560 C   0  0  0  0  0  0  0  0  0  0  0  0
   57.9770   33.4100   46.2340 C   0  0  0  0  0  0  0  0  0  0  0  0
   59.3390   33.3610   46.8150 N   0  0  0  0  0  0  0  0  0  0  0  0
   60.2830   34.1920   46.0470 C   0  0  0  0  0  0  0  0  0  0  0  0
   61.7150   33.8430   46.4580 C   0  0  0  0  0  0  0  0  0  0  0  0
   61.8920   33.7020   47.9930 C   0  0  0  0  0  0  0  0  0  0  0  0
   62.4010   32.3070   48.4400 C   0  0  0  0  0  0  0  0  0  0  0  0
   61.3290   31.2670   48.6720 C   0  0  0  0  0  0  0  0  0  0  0  0
   60.7050   30.6320   47.5820 C   0  0  0  0  0  0  0  0  0  0  0  0
   59.6770   29.7070   47.7950 C   0  0  0  0  0  0  0  0  0  0  0  0
   59.2400   29.4310   49.0940 C   0  0  0  0  0  0  0  0  0  0  0  0
   59.8330   30.0790   50.1830 C   0  0  0  0  0  0  0  0  0  0  0  0
   60.8750   30.9890   49.9760 C   0  0  0  0  0  0  0  0  0  0  0  0
   60.6740   34.2070   48.8010 C   0  0  0  0  0  0  0  0  0  0  0  0
   59.2940   33.8100   48.2250 C   0  0  0  0  0  0  0  0  0  0  0  0
   59.4624   30.8537   44.3043 H   0  0  0  0  0  0  0  0  0  0  0  0
   60.3274   28.8437   45.2867 H   0  0  0  0  0  0  0  0  0  0  0  0
   58.6463   26.9731   46.6462 H   0  0  0  0  0  0  0  0  0  0  0  0
   57.5438   24.7750   46.2125 H   0  0  0  0  0  0  0  0  0  0  0  0
   57.5248   25.6159   41.9684 H   0  0  0  0  0  0  0  0  0  0  0  0
   58.5775   27.8377   42.4016 H   0  0  0  0  0  0  0  0  0  0  0  0
   56.2000   31.9640   45.6370 H   0  0  0  0  0  0  0  0  0  0  0  0
   58.7731   32.0625   44.7440 H   0  0  0  0  0  0  0  0  0  0  0  0
   57.9370   33.5203   44.0820 H   0  0  0  0  0  0  0  0  0  0  0  0
   57.6731   34.4621   46.1307 H   0  0  0  0  0  0  0  0  0  0  0  0
   57.3012   32.8638   46.9085 H   0  0  0  0  0  0  0  0  0  0  0  0
   60.1519   33.9988   44.9721 H   0  0  0  0  0  0  0  0  0  0  0  0
   60.0895   35.2551   46.2530 H   0  0  0  0  0  0  0  0  0  0  0  0
   61.9922   32.8894   45.9849 H   0  0  0  0  0  0  0  0  0  0  0  0
   62.3609   34.6702   46.1286 H   0  0  0  0  0  0  0  0  0  0  0  0
   62.7110   34.3906   48.2480 H   0  0  0  0  0  0  0  0  0  0  0  0
   63.0783   31.9276   47.6607 H   0  0  0  0  0  0  0  0  0  0  0  0
   62.8882   32.4611   49.4141 H   0  0  0  0  0  0  0  0  0  0  0  0
   61.0274   30.8643   46.5563 H   0  0  0  0  0  0  0  0  0  0  0  0
   59.2119   29.1961   46.9390 H   0  0  0  0  0  0  0  0  0  0  0  0
   58.4305   28.7049   49.2598 H   0  0  0  0  0  0  0  0  0  0  0  0
   59.4792   29.8725   51.2039 H   0  0  0  0  0  0  0  0  0  0  0  0
   61.3424   31.4903   50.8364 H   0  0  0  0  0  0  0  0  0  0  0  0
   60.7481   33.7991   49.8199 H   0  0  0  0  0  0  0  0  0  0  0  0
   60.7165   35.3056   48.7648 H   0  0  0  0  0  0  0  0  0  0  0  0
   58.8861   32.9915   48.8362 H   0  0  0  0  0  0  0  0  0  0  0  0
   58.6650   34.7120   48.2529 H   0  0  0  0  0  0  0  0  0  0  0  0
  1  2  2  0
  2  3  2  0
  2  4  1  0
  4  5  2  3
  5  6  1  0
  6  7  2  0
  7  8  1  0
  8  9  2  0
  9 10  1  0
  9 11  1  0
 11 12  2  0
  2 13  1  0
 13 14  1  0
 14 15  1  0
 15 16  1  0
 16 17  1  0
 17 18  1  0
 18 19  1  0
 19 20  1  0
 20 21  1  0
 21 22  2  0
 22 23  1  0
 23 24  2  0
 24 25  1  0
 25 26  2  0
 19 27  1  0
 27 28  1  0
 12  6  1  0
 28 16  1  0
 26 21  1  0
  4 29  1  0
  5 30  1  0
  7 31  1  0
  8 32  1  0
 11 33  1  0
 12 34  1  0
 13 35  1  0
 14 36  1  0
 14 37  1  0
 15 38  1  0
 15 39  1  0
 17 40  1  0
 17 41  1  0
 18 42  1  0
 18 43  1  0
 19 44  1  0
 20 45  1  0
 20 46  1  0
 22 47  1  0
 23 48  1  0
 24 49  1  0
 25 50  1  0
 26 51  1  0
 27 52  1  0
 27 53  1  0
 28 54  1  0
 28 55  1  0
M  END
>  <UniqueID>  (73) 
69

>  <SMILES>  (73) 
O=S(=O)(C=Cc1ccc(Br)cc1)NCCN1CCC(Cc2ccccc2)CC1

>  <Energy>  (73) 
67.41209288911328

>  <Genealogy>  (73) 
O=S(=O)(C=Cc1ccc(Br)cc1)NCCN1CCC(Cc2ccccc2)CC1 (3D coordinates assigned)
O=S(=O)(C=Cc1ccc(Br)cc1)NCCN1CCC(Cc2ccccc2)CC1 (nonaromatic ring conformer: 67.41209288911328 kcal/mol)

>  <smiles>  (73) 
O=S(=O)(C=Cc1ccc(Br)cc1)NCCN1CCC(Cc2ccccc2)CC1

>  <score_type>  (73) 
oracle

>  <origin>  (73) 
adg

>  <m_score__min__energy>  (73) 
-9.7300000000000004

>  <m_primary>  (73) 
energy

$$$$
73:0
     RDKit          3D

 61 65  0  0  0  0  0  0  0  0999 V2000
   60.5970   28.8890   44.9960 C   0  0  0  0  0  0  0  0  0  0  0  0
   61.0210   29.8640   46.1140 C   0  0  0  0  0  0  0  0  0  0  0  0
   60.0950   29.9370   47.2810 N   0  0  1  0  0  0  0  0  0  0  0  0
   59.5810   28.5880   47.6350 C   0  0  0  0  0  0  0  0  0  0  0  0
   60.3390   28.2010   48.8430 C   0  0  0  0  0  0  0  0  0  0  0  0
   60.3960   26.9450   49.4500 C   0  0  0  0  0  0  0  0  0  0  0  0
   61.1230   26.8100   50.6430 C   0  0  0  0  0  0  0  0  0  0  0  0
   61.7530   27.9290   51.2160 C   0  0  0  0  0  0  0  0  0  0  0  0
   61.6650   29.1860   50.5970 C   0  0  0  0  0  0  0  0  0  0  0  0
   60.9690   29.2920   49.3830 C   0  0  0  0  0  0  0  0  0  0  0  0
   60.6350   30.5160   48.5730 C   0  0  0  0  0  0  0  0  0  0  0  0
   61.8760   31.4690   48.4190 C   0  0  0  0  0  0  0  0  0  0  0  0
   61.4170   32.9100   48.1720 C   0  0  0  0  0  0  0  0  0  0  0  0
   60.7130   33.4750   49.3540 N   0  0  0  0  0  0  0  0  0  0  0  0
   59.8080   34.5780   48.9660 C   0  0  0  0  0  0  0  0  0  0  0  0
   59.4100   34.4600   47.5240 C   0  0  0  0  0  0  0  0  0  0  0  0
   59.6290   35.4170   46.5530 C   0  0  0  0  0  0  0  0  0  0  0  0
   59.1820   34.8740   45.3670 C   0  0  0  0  0  0  0  0  0  0  0  0
   58.7210   33.6000   45.6630 C   0  0  0  0  0  0  0  0  0  0  0  0
   58.1690   32.6280   44.6870 C   0  0  0  0  0  0  0  0  0  0  0  0
   58.1740   32.9170   43.3110 C   0  0  0  0  0  0  0  0  0  0  0  0
   57.6570   32.0020   42.3940 C   0  0  0  0  0  0  0  0  0  0  0  0
   57.1310   30.7860   42.8340 C   0  0  0  0  0  0  0  0  0  0  0  0
   57.1180   30.4690   44.2030 C   0  0  0  0  0  0  0  0  0  0  0  0
   56.5690   29.1730   44.6680 C   0  0  0  0  0  0  0  0  0  0  0  0
   55.1670   29.0100   44.8740 N   0  0  0  0  0  0  0  0  0  0  0  0
   57.3390   28.1980   44.8870 O   0  0  0  0  0  0  0  0  0  0  0  0
   57.6390   31.3990   45.1230 C   0  0  0  0  0  0  0  0  0  0  0  0
   58.8660   33.3550   46.9820 N   0  0  0  0  0  0  0  0  0  0  0  0
   60.0060   32.4550   50.1730 C   0  0  0  0  0  0  0  0  0  0  0  0
   59.4830   31.2860   49.3240 C   0  0  0  0  0  0  0  0  0  0  0  0
   60.1965   27.9681   45.4450 H   0  0  0  0  0  0  0  0  0  0  0  0
   59.8224   29.3600   44.3730 H   0  0  0  0  0  0  0  0  0  0  0  0
   61.4697   28.6437   44.3730 H   0  0  0  0  0  0  0  0  0  0  0  0
   62.0084   29.5494   46.4828 H   0  0  0  0  0  0  0  0  0  0  0  0
   61.0187   30.8662   45.6606 H   0  0  0  0  0  0  0  0  0  0  0  0
   59.2840   30.5030   46.9370 H   0  0  0  0  0  0  0  0  0  0  0  0
   58.5030   28.6281   47.8501 H   0  0  0  0  0  0  0  0  0  0  0  0
   59.7093   27.8661   46.8150 H   0  0  0  0  0  0  0  0  0  0  0  0
   59.8827   26.0807   49.0033 H   0  0  0  0  0  0  0  0  0  0  0  0
   61.2001   25.8270   51.1307 H   0  0  0  0  0  0  0  0  0  0  0  0
   62.3175   27.8189   52.1537 H   0  0  0  0  0  0  0  0  0  0  0  0
   62.1324   30.0704   51.0546 H   0  0  0  0  0  0  0  0  0  0  0  0
   62.4768   31.4330   49.3397 H   0  0  0  0  0  0  0  0  0  0  0  0
   62.4777   31.1347   47.5610 H   0  0  0  0  0  0  0  0  0  0  0  0
   62.2974   33.5314   47.9512 H   0  0  0  0  0  0  0  0  0  0  0  0
   60.7146   32.9051   47.3254 H   0  0  0  0  0  0  0  0  0  0  0  0
   58.9051   34.5410   49.5933 H   0  0  0  0  0  0  0  0  0  0  0  0
   60.3352   35.5328   49.1087 H   0  0  0  0  0  0  0  0  0  0  0  0
   60.0717   36.4136   46.6969 H   0  0  0  0  0  0  0  0  0  0  0  0
   59.1896   35.3571   44.3788 H   0  0  0  0  0  0  0  0  0  0  0  0
   58.5887   33.8717   42.9551 H   0  0  0  0  0  0  0  0  0  0  0  0
   57.6638   32.2394   41.3200 H   0  0  0  0  0  0  0  0  0  0  0  0
   56.7239   30.0710   42.1040 H   0  0  0  0  0  0  0  0  0  0  0  0
   54.7090   29.3550   45.7460 H   0  0  0  0  0  0  0  0  0  0  0  0
   57.6317   31.1619   46.1971 H   0  0  0  0  0  0  0  0  0  0  0  0
   58.6060   32.4850   47.4970 H   0  0  0  0  0  0  0  0  0  0  0  0
   60.7037   32.0606   50.9265 H   0  0  0  0  0  0  0  0  0  0  0  0
   59.1399   32.9428   50.6440 H   0  0  0  0  0  0  0  0  0  0  0  0
   58.9591   30.5788   49.9838 H   0  0  0  0  0  0  0  0  0  0  0  0
   58.8109   31.7047   48.5605 H   0  0  0  0  0  0  0  0  0  0  0  0
  1  2  1  0
  2  3  1  0
  3  4  1  0
  4  5  1  0
  5  6  2  0
  6  7  1  0
  7  8  2  0
  8  9  1  0
  9 10  2  0
 10 11  1  0
 11 12  1  0
 12 13  1  0
 13 14  1  0
 14 15  1  0
 15 16  1  0
 16 17  2  0
 17 18  1  0
 18 19  2  0
 19 20  1  0
 20 21  2  0
 21 22  1  0
 22 23  2  0
 23 24  1  0
 24 25  1  0
 25 26  1  0
 25 27  2  0
 24 28  2  0
 19 29  1  0
 14 30  1  0
 30 31  1  0
 11  3  1  0
 29 16  1  0
 10  5  1  0
 31 11  1  0
 28 20  1  0
  1 32  1  0
  1 33  1  0
  1 34  1  0
  2 35  1  0
  2 36  1  0
  3 37  1  6
  4 38  1  0
  4 39  1  0
  6 40  1  0
  7 41  1  0
  8 42  1  0
  9 43  1  0
 12 44  1  0
 12 45  1  0
 13 46  1  0
 13 47  1  0
 15 48  1  0
 15 49  1  0
 17 50  1  0
 18 51  1  0
 21 52  1  0
 22 53  1  0
 23 54  1  0
 26 55  1  0
 28 56  1  0
 29 57  1  0
 30 58  1  0
 30 59  1  0
 31 60  1  0
 31 61  1  0
M  CHG  2   3   1  26  -1
M  END
>  <UniqueID>  (74) 
70

>  <SMILES>  (74) 
CC[N@H+]1Cc2ccccc2C12CCN(Cc1ccc(-c3cccc(C([NH-])=O)c3)[nH]1)CC2

>  <Energy>  (74) 
131.95040476388957

>  <Genealogy>  (74) 
CC[NH+]1Cc2ccccc2C12CCN(Cc1ccc(-c3cccc(C([NH-])=O)c3)[nH]1)CC2 (protonated)
CC[N@H+]1Cc2ccccc2C12CCN(Cc1ccc(-c3cccc(C([NH-])=O)c3)[nH]1)CC2 (chirality)
CC[N@H+]1Cc2ccccc2C12CCN(Cc1ccc(-c3cccc(C([NH-])=O)c3)[nH]1)CC2 (3D coordinates assigned)
CC[N@H+]1Cc2ccccc2C12CCN(Cc1ccc(-c3cccc(C([NH-])=O)c3)[nH]1)CC2 (nonaromatic ring conformer: 131.95040476388957 kcal/mol)

>  <smiles>  (74) 
CCN1Cc2ccccc2C12CCN(Cc1ccc(-c3cccc(C(N)=O)c3)[nH]1)CC2

>  <score_type>  (74) 
oracle

>  <origin>  (74) 
adg

>  <m_score__min__energy>  (74) 
-12.75

>  <m_primary>  (74) 
energy

$$$$
74:0
     RDKit          3D

 56 59  0  0  0  0  0  0  0  0999 V2000
   57.1210   21.1070   42.6420 C   0  0  0  0  0  0  0  0  0  0  0  0
   56.9550   22.4540   43.2150 N   0  0  0  0  0  0  0  0  0  0  0  0
   55.5610   22.9460   43.0410 C   0  0  0  0  0  0  0  0  0  0  0  0
   54.9500   23.5860   44.3010 C   0  0  0  0  0  0  0  0  0  0  0  0
   55.9410   24.4110   45.0030 N   0  0  0  0  0  0  0  0  0  0  0  0
   55.5330   25.6360   45.6540 C   0  0  0  0  0  0  0  0  0  0  0  0
   54.3090   25.9330   45.7250 O   0  0  0  0  0  0  0  0  0  0  0  0
   56.5260   26.5650   46.2900 C   0  0  0  0  0  0  0  0  0  0  0  0
   56.4720   27.8630   45.6260 N   0  0  0  0  0  0  0  0  0  0  0  0
   57.4820   28.8800   45.7050 C   0  0  0  0  0  0  0  0  0  0  0  0
   58.3590   28.7930   46.6020 O   0  0  0  0  0  0  0  0  0  0  0  0
   57.4960   30.0490   44.8000 C   0  0  0  0  0  0  0  0  0  0  0  0
   57.0840   29.9340   43.4620 C   0  0  0  0  0  0  0  0  0  0  0  0
   57.1240   31.0450   42.6160 C   0  0  0  0  0  0  0  0  0  0  0  0
   57.5880   32.2740   43.0910 C   0  0  0  0  0  0  0  0  0  0  0  0
   58.0170   32.3990   44.4220 C   0  0  0  0  0  0  0  0  0  0  0  0
   58.6470   33.9280   45.0300 S   0  0  0  0  0  0  0  0  0  0  0  0
   59.7350   34.4300   44.1220 O   0  0  0  0  0  0  0  0  0  0  0  0
   57.5320   34.9360   45.0600 O   0  0  0  0  0  0  0  0  0  0  0  0
   59.2830   33.7400   46.6330 N   0  0  0  0  0  0  0  0  0  0  0  0
   58.4660   33.4820   47.8140 C   0  0  0  0  0  0  0  0  0  0  0  0
   59.4640   33.2410   48.9750 C   0  0  0  0  0  0  0  0  0  0  0  0
   60.7970   33.3880   48.3220 C   0  0  0  0  0  0  0  0  0  0  0  0
   62.0600   33.2760   48.9060 C   0  0  0  0  0  0  0  0  0  0  0  0
   63.1940   33.4530   48.0940 C   0  0  0  0  0  0  0  0  0  0  0  0
   63.0430   33.7340   46.7230 C   0  0  0  0  0  0  0  0  0  0  0  0
   61.7590   33.8410   46.1570 C   0  0  0  0  0  0  0  0  0  0  0  0
   60.6510   33.6670   46.9910 C   0  0  0  0  0  0  0  0  0  0  0  0
   57.9790   31.2820   45.2680 C   0  0  0  0  0  0  0  0  0  0  0  0
   57.3020   23.8840   45.1850 C   0  0  0  0  0  0  0  0  0  0  0  0
   57.4280   22.4720   44.6110 C   0  0  0  0  0  0  0  0  0  0  0  0
   57.2117   20.3714   43.4548 H   0  0  0  0  0  0  0  0  0  0  0  0
   56.2462   20.8621   42.0217 H   0  0  0  0  0  0  0  0  0  0  0  0
   58.0290   21.0818   42.0217 H   0  0  0  0  0  0  0  0  0  0  0  0
   55.5593   23.6978   42.2380 H   0  0  0  0  0  0  0  0  0  0  0  0
   54.9447   22.0657   42.8059 H   0  0  0  0  0  0  0  0  0  0  0  0
   54.0987   24.2177   44.0073 H   0  0  0  0  0  0  0  0  0  0  0  0
   54.6184   22.7840   44.9769 H   0  0  0  0  0  0  0  0  0  0  0  0
   56.2828   26.6879   47.3557 H   0  0  0  0  0  0  0  0  0  0  0  0
   57.5375   26.1442   46.1909 H   0  0  0  0  0  0  0  0  0  0  0  0
   56.7287   28.9659   43.0791 H   0  0  0  0  0  0  0  0  0  0  0  0
   56.7890   30.9517   41.5724 H   0  0  0  0  0  0  0  0  0  0  0  0
   57.6173   33.1457   42.4208 H   0  0  0  0  0  0  0  0  0  0  0  0
   57.8256   34.3491   48.0334 H   0  0  0  0  0  0  0  0  0  0  0  0
   57.8021   32.6176   47.6655 H   0  0  0  0  0  0  0  0  0  0  0  0
   59.3307   33.9893   49.7702 H   0  0  0  0  0  0  0  0  0  0  0  0
   59.3295   32.2632   49.4606 H   0  0  0  0  0  0  0  0  0  0  0  0
   62.1657   33.0541   49.9782 H   0  0  0  0  0  0  0  0  0  0  0  0
   64.2004   33.3718   48.5306 H   0  0  0  0  0  0  0  0  0  0  0  0
   63.9329   33.8706   46.0910 H   0  0  0  0  0  0  0  0  0  0  0  0
   61.6307   34.0560   45.0859 H   0  0  0  0  0  0  0  0  0  0  0  0
   58.3302   31.3718   46.3065 H   0  0  0  0  0  0  0  0  0  0  0  0
   58.0149   24.5455   44.6710 H   0  0  0  0  0  0  0  0  0  0  0  0
   57.5193   23.8434   46.2626 H   0  0  0  0  0  0  0  0  0  0  0  0
   58.4817   22.1579   44.6432 H   0  0  0  0  0  0  0  0  0  0  0  0
   56.8158   21.7816   45.2098 H   0  0  0  0  0  0  0  0  0  0  0  0
  1  2  1  0
  2  3  1  0
  3  4  1  0
  4  5  1  0
  5  6  1  0
  6  7  2  0
  6  8  1  0
  8  9  1  0
  9 10  1  0
 10 11  2  0
 10 12  1  0
 12 13  2  0
 13 14  1  0
 14 15  2  0
 15 16  1  0
 16 17  1  0
 17 18  2  0
 17 19  2  0
 17 20  1  0
 20 21  1  0
 21 22  1  0
 22 23  1  0
 23 24  2  0
 24 25  1  0
 25 26  2  0
 26 27  1  0
 27 28  2  0
 16 29  2  0
  5 30  1  0
 30 31  1  0
 31  2  1  0
 29 12  1  0
 28 20  1  0
 28 23  1  0
  1 32  1  0
  1 33  1  0
  1 34  1  0
  3 35  1  0
  3 36  1  0
  4 37  1  0
  4 38  1  0
  8 39  1  0
  8 40  1  0
 13 41  1  0
 14 42  1  0
 15 43  1  0
 21 44  1  0
 21 45  1  0
 22 46  1  0
 22 47  1  0
 24 48  1  0
 25 49  1  0
 26 50  1  0
 27 51  1  0
 29 52  1  0
 30 53  1  0
 30 54  1  0
 31 55  1  0
 31 56  1  0
M  CHG  1   9  -1
M  END
>  <UniqueID>  (75) 
71

>  <SMILES>  (75) 
CN1CCN(C(=O)C[N-]C(=O)c2cccc(S(=O)(=O)N3CCc4ccccc43)c2)CC1

>  <Energy>  (75) 
83.40995840814173

>  <Genealogy>  (75) 
CN1CCN(C(=O)C[N-]C(=O)c2cccc(S(=O)(=O)N3CCc4ccccc43)c2)CC1 (protonated)
CN1CCN(C(=O)C[N-]C(=O)c2cccc(S(=O)(=O)N3CCc4ccccc43)c2)CC1 (3D coordinates assigned)
CN1CCN(C(=O)C[N-]C(=O)c2cccc(S(=O)(=O)N3CCc4ccccc43)c2)CC1 (nonaromatic ring conformer: 83.40995840814173 kcal/mol)

>  <smiles>  (75) 
CN1CCN(C(=O)CNC(=O)c2cccc(S(=O)(=O)N3CCc4ccccc43)c2)CC1

>  <score_type>  (75) 
oracle

>  <origin>  (75) 
adg

>  <m_score__min__energy>  (75) 
-12.800000000000001

>  <m_primary>  (75) 
energy

$$$$
75:0
     RDKit          3D

 49 51  0  0  0  0  0  0  0  0999 V2000
   58.6058   32.4722   46.0563 H   0  0  0  0  0  0  0  0  0  0  0  0
   58.0680   31.8920   45.2920 C   0  0  0  0  0  0  0  0  0  0  0  0
   57.3940   30.7650   45.6440 N   0  0  0  0  0  0  0  0  0  0  0  0
   56.7130   30.0130   44.7350 C   0  0  0  0  0  0  0  0  0  0  0  0
   56.0820   28.9260   45.0820 N   0  0  0  0  0  0  0  0  0  0  0  0
   56.6210   27.6110   45.3200 C   0  0  0  0  0  0  0  0  0  0  0  0
   56.0640   26.8850   46.1850 O   0  0  0  0  0  0  0  0  0  0  0  0
   57.8190   27.0850   44.5780 C   0  0  0  0  0  0  0  0  0  0  0  0
   57.4847   26.3449   43.8360 H   0  0  0  0  0  0  0  0  0  0  0  0
   58.3212   27.9303   44.0847 H   0  0  0  0  0  0  0  0  0  0  0  0
   58.7690   26.4510   45.4880 N   0  0  0  0  0  0  0  0  0  0  0  0
   59.0050   26.8890   46.8340 C   0  0  0  0  0  0  0  0  0  0  0  0
   58.5950   26.1770   47.7870 O   0  0  0  0  0  0  0  0  0  0  0  0
   59.6540   28.1820   47.1260 C   0  0  0  0  0  0  0  0  0  0  0  0
   60.1520   28.9680   46.0760 C   0  0  0  0  0  0  0  0  0  0  0  0
   59.9993   28.6498   45.0342 H   0  0  0  0  0  0  0  0  0  0  0  0
   60.8410   30.1530   46.3470 C   0  0  0  0  0  0  0  0  0  0  0  0
   61.2316   30.7622   45.5185 H   0  0  0  0  0  0  0  0  0  0  0  0
   61.0360   30.5680   47.6730 C   0  0  0  0  0  0  0  0  0  0  0  0
   61.9680   32.0280   48.0220 S   0  0  0  0  0  0  0  0  0  0  0  0
   62.4120   31.9940   49.4580 O   0  0  0  0  0  0  0  0  0  0  0  0
   63.1950   32.0450   47.1550 O   0  0  0  0  0  0  0  0  0  0  0  0
   61.0480   33.4890   47.7430 N   0  0  0  0  0  0  0  0  0  0  0  0
   61.4660   34.2540   48.3260 H   0  0  0  0  0  0  0  0  0  0  0  0
   59.6370   33.3360   48.0980 C   0  0  0  0  0  0  0  0  0  0  0  0
   59.2919   32.3200   47.8558 H   0  0  0  0  0  0  0  0  0  0  0  0
   59.4780   33.4916   49.1753 H   0  0  0  0  0  0  0  0  0  0  0  0
   58.8720   34.3620   47.2740 C   0  0  0  0  0  0  0  0  0  0  0  0
   57.9318   33.9312   46.8992 H   0  0  0  0  0  0  0  0  0  0  0  0
   58.6023   35.2467   47.8694 H   0  0  0  0  0  0  0  0  0  0  0  0
   59.7950   34.7180   46.1150 C   0  0  0  0  0  0  0  0  0  0  0  0
   59.3279   34.4511   45.1555 H   0  0  0  0  0  0  0  0  0  0  0  0
   60.0074   35.7967   46.0787 H   0  0  0  0  0  0  0  0  0  0  0  0
   61.0600   33.9000   46.3370 C   0  0  0  0  0  0  0  0  0  0  0  0
   61.0606   33.0158   45.6826 H   0  0  0  0  0  0  0  0  0  0  0  0
   61.9599   34.4873   46.1019 H   0  0  0  0  0  0  0  0  0  0  0  0
   60.4900   29.8130   48.7200 C   0  0  0  0  0  0  0  0  0  0  0  0
   60.6047   30.1545   49.7594 H   0  0  0  0  0  0  0  0  0  0  0  0
   59.8010   28.6290   48.4490 C   0  0  0  0  0  0  0  0  0  0  0  0
   59.3715   28.0439   49.2756 H   0  0  0  0  0  0  0  0  0  0  0  0
   56.7110   30.4000   43.3890 C   0  0  0  0  0  0  0  0  0  0  0  0
   56.1836   29.7909   42.6401 H   0  0  0  0  0  0  0  0  0  0  0  0
   57.3840   31.5670   43.0000 C   0  0  0  0  0  0  0  0  0  0  0  0
   57.4260   31.9750   41.5570 C   0  0  0  0  0  0  0  0  0  0  0  0
   57.5384   33.0671   41.4879 H   0  0  0  0  0  0  0  0  0  0  0  0
   58.2786   31.4866   41.0625 H   0  0  0  0  0  0  0  0  0  0  0  0
   56.4918   31.6705   41.0625 H   0  0  0  0  0  0  0  0  0  0  0  0
   58.0780   32.3130   43.9620 C   0  0  0  0  0  0  0  0  0  0  0  0
   58.6254   33.2218   43.6713 H   0  0  0  0  0  0  0  0  0  0  0  0
  1  2  1  0
  2  3  1  0
  3  4  1  0
  4  5  2  0
  5  6  1  0
  6  7  2  0
  6  8  1  0
  8  9  1  0
  8 10  1  0
  8 11  1  0
 11 12  1  0
 12 13  2  0
 12 14  1  0
 14 15  2  0
 15 16  1  0
 15 17  1  0
 17 18  1  0
 17 19  2  0
 19 20  1  0
 20 21  2  0
 20 22  2  0
 20 23  1  0
 23 24  1  0
 23 25  1  0
 25 26  1  0
 25 27  1  0
 25 28  1  0
 28 29  1  0
 28 30  1  0
 28 31  1  0
 31 32  1  0
 31 33  1  0
 31 34  1  0
 34 35  1  0
 34 36  1  0
 19 37  1  0
 37 38  1  0
 37 39  2  0
 39 40  1  0
  4 41  1  0
 41 42  1  0
 41 43  2  0
 43 44  1  0
 44 45  1  0
 44 46  1  0
 44 47  1  0
 43 48  1  0
 48 49  1  0
 48  2  2  0
 39 14  1  0
 34 23  1  0
M  CHG  3   3  -1  11  -1  23   1
M  END
>  <UniqueID>  (76) 
72

>  <SMILES>  (76) 
Cc1cc[n-]/c(=N\C(=O)C[N-]C(=O)c2ccc(S(=O)(=O)[NH+]3CCCC3)cc2)c1

>  <Energy>  (76) 
57.62031745617678

>  <Genealogy>  (76) 
Cc1cc[n-]c(=NC(=O)C[N-]C(=O)c2ccc(S(=O)(=O)[NH+]3CCCC3)cc2)c1 (protonated)
Cc1cc[n-]/c(=N\C(=O)C[N-]C(=O)c2ccc(S(=O)(=O)[NH+]3CCCC3)cc2)c1 (cis-trans isomerization)
Cc1cc[n-]/c(=N\C(=O)C[N-]C(=O)c2ccc(S(=O)(=O)[NH+]3CCCC3)cc2)c1 (3D coordinates assigned)
Cc1cc[n-]/c(=N\C(=O)C[N-]C(=O)c2ccc(S(=O)(=O)[NH+]3CCCC3)cc2)c1 (nonaromatic ring conformer: 57.62031745617678 kcal/mol)

>  <smiles>  (76) 
Cc1cc[nH]c(=NC(=O)CNC(=O)c2ccc(S(=O)(=O)N3CCCC3)cc2)c1

>  <score_type>  (76) 
oracle

>  <origin>  (76) 
adg

>  <m_score__min__energy>  (76) 
-11.380000000000001

>  <m_primary>  (76) 
energy

$$$$
76:0
     RDKit          3D

 40 42  0  0  0  0  0  0  0  0999 V2000
   64.7750   32.8550   47.4500 H   0  0  0  0  0  0  0  0  0  0  0  0
   64.2900   33.6460   47.8570 O   0  0  0  0  0  0  0  0  0  0  0  0
   62.9150   33.6230   48.0780 C   0  0  0  0  0  0  0  0  0  0  0  0
   62.3470   34.3550   49.1300 C   0  0  0  0  0  0  0  0  0  0  0  0
   62.9892   34.9551   49.7915 H   0  0  0  0  0  0  0  0  0  0  0  0
   60.9660   34.3230   49.3390 C   0  0  0  0  0  0  0  0  0  0  0  0
   60.5223   34.8986   50.1647 H   0  0  0  0  0  0  0  0  0  0  0  0
   60.1470   33.5610   48.5010 C   0  0  0  0  0  0  0  0  0  0  0  0
   59.0603   33.5374   48.6698 H   0  0  0  0  0  0  0  0  0  0  0  0
   60.7070   32.8260   47.4450 C   0  0  0  0  0  0  0  0  0  0  0  0
   59.8680   32.0390   46.5830 N   0  0  0  0  0  0  0  0  0  0  0  0
   58.8310   32.4910   45.8400 C   0  0  0  0  0  0  0  0  0  0  0  0
   58.3570   33.9120   45.8030 C   0  0  0  0  0  0  0  0  0  0  0  0
   58.2329   34.2840   46.8307 H   0  0  0  0  0  0  0  0  0  0  0  0
   59.0971   34.5318   45.2756 H   0  0  0  0  0  0  0  0  0  0  0  0
   57.3931   33.9634   45.2756 H   0  0  0  0  0  0  0  0  0  0  0  0
   58.2740   31.4570   45.1120 C   0  0  0  0  0  0  0  0  0  0  0  0
   57.4249   31.5221   44.4157 H   0  0  0  0  0  0  0  0  0  0  0  0
   58.9970   30.3260   45.4340 C   0  0  0  0  0  0  0  0  0  0  0  0
   58.8160   29.0000   44.8160 C   0  0  0  0  0  0  0  0  0  0  0  0
   59.2304   28.8567   43.8072 H   0  0  0  0  0  0  0  0  0  0  0  0
   58.1800   27.9340   45.3840 C   0  0  0  0  0  0  0  0  0  0  0  0
   58.9090   26.8280   45.9330 C   0  0  0  0  0  0  0  0  0  0  0  0
   60.2490   26.7570   46.0010 C   0  0  0  0  0  0  0  0  0  0  0  0
   60.8644   27.5730   45.5942 H   0  0  0  0  0  0  0  0  0  0  0  0
   60.7307   25.8829   46.4635 H   0  0  0  0  0  0  0  0  0  0  0  0
   58.2260   25.7780   46.4590 N   0  0  0  0  0  0  0  0  0  0  0  0
   56.8770   25.7330   46.4950 C   0  0  0  0  0  0  0  0  0  0  0  0
   56.3030   24.7320   47.0020 O   0  0  0  0  0  0  0  0  0  0  0  0
   56.1490   26.7580   45.9900 N   0  0  0  0  0  0  0  0  0  0  0  0
   54.7730   26.6930   46.0280 O   0  0  0  0  0  0  0  0  0  0  0  0
   56.7550   27.8400   45.4270 C   0  0  0  0  0  0  0  0  0  0  0  0
   56.0260   28.7370   44.9230 O   0  0  0  0  0  0  0  0  0  0  0  0
   59.9810   30.7120   46.3350 C   0  0  0  0  0  0  0  0  0  0  0  0
   61.0720   29.8340   46.8770 C   0  0  0  0  0  0  0  0  0  0  0  0
   61.0468   29.8543   47.9765 H   0  0  0  0  0  0  0  0  0  0  0  0
   60.9211   28.8026   46.5258 H   0  0  0  0  0  0  0  0  0  0  0  0
   62.0473   30.2020   46.5258 H   0  0  0  0  0  0  0  0  0  0  0  0
   62.0950   32.8600   47.2390 C   0  0  0  0  0  0  0  0  0  0  0  0
   62.5403   32.2842   46.4143 H   0  0  0  0  0  0  0  0  0  0  0  0
  1  2  1  0
  2  3  1  0
  3  4  2  0
  4  5  1  0
  4  6  1  0
  6  7  1  0
  6  8  2  0
  8  9  1  0
  8 10  1  0
 10 11  1  0
 11 12  1  0
 12 13  1  0
 13 14  1  0
 13 15  1  0
 13 16  1  0
 12 17  2  0
 17 18  1  0
 17 19  1  0
 19 20  1  0
 20 21  1  0
 20 22  2  0
 22 23  1  0
 23 24  2  0
 24 25  1  0
 24 26  1  0
 23 27  1  0
 27 28  1  0
 28 29  2  0
 28 30  1  0
 30 31  1  0
 30 32  1  0
 32 33  2  0
 19 34  2  0
 34 35  1  0
 35 36  1  0
 35 37  1  0
 35 38  1  0
 10 39  2  0
 39 40  1  0
 39  3  1  0
 34 11  1  0
 32 22  1  0
M  CHG  2  27  -1  31  -1
M  END
>  <UniqueID>  (77) 
73

>  <SMILES>  (77) 
C=c1[n-]c(=O)n([O-])c(=O)/c1=C\c1cc(C)n(-c2cccc(O)c2)c1C

>  <Energy>  (77) 
95.02887833695844

>  <Genealogy>  (77) 
C=c1[n-]c(=O)n([O-])c(=O)c1=Cc1cc(C)n(-c2cccc(O)c2)c1C (protonated)
C=c1[n-]c(=O)n([O-])c(=O)/c1=C\c1cc(C)n(-c2cccc(O)c2)c1C (cis-trans isomerization)
C=c1[n-]c(=O)n([O-])c(=O)/c1=C\c1cc(C)n(-c2cccc(O)c2)c1C (3D coordinates assigned)
C=c1[n-]c(=O)n([O-])c(=O)/c1=C\c1cc(C)n(-c2cccc(O)c2)c1C (optimized conformer: 95.02887833695844 kcal/mol)

>  <smiles>  (77) 
C=c1[nH]c(=O)n(O)c(=O)c1=Cc1cc(C)n(-c2cccc(O)c2)c1C

>  <score_type>  (77) 
oracle

>  <origin>  (77) 
adg

>  <m_score__min__energy>  (77) 
-14.58

>  <m_primary>  (77) 
energy

$$$$
77:0
     RDKit          3D

 34 36  0  0  0  0  0  0  0  0999 V2000
   55.7829   22.4518   43.9300 H   0  0  0  0  0  0  0  0  0  0  0  0
   55.3640   23.0630   44.7430 C   0  0  0  0  0  0  0  0  0  0  0  0
   55.8323   23.0500   45.7382 H   0  0  0  0  0  0  0  0  0  0  0  0
   54.2880   23.8200   44.5220 C   0  0  0  0  0  0  0  0  0  0  0  0
   53.8262   23.8268   43.5237 H   0  0  0  0  0  0  0  0  0  0  0  0
   53.6970   24.6640   45.6170 C   0  0  0  0  0  0  0  0  0  0  0  0
   52.6244   24.8092   45.4210 H   0  0  0  0  0  0  0  0  0  0  0  0
   53.8450   24.1487   46.5775 H   0  0  0  0  0  0  0  0  0  0  0  0
   54.3530   25.9680   45.6800 N   0  0  0  0  0  0  0  0  0  0  0  0
   55.5820   26.1450   46.0640 C   0  0  0  0  0  0  0  0  0  0  0  0
   56.1840   25.3510   46.9650 N   0  0  0  0  0  0  0  0  0  0  0  0
   57.4020   25.8370   47.1300 N   0  0  0  0  0  0  0  0  0  0  0  0
   57.4990   26.9110   46.3230 C   0  0  0  0  0  0  0  0  0  0  0  0
   58.9660   27.9290   46.2080 S   0  0  0  0  0  0  0  0  0  0  0  0
   58.1620   29.4560   46.8130 C   0  0  0  0  0  0  0  0  0  0  0  0
   57.1921   29.1960   47.2621 H   0  0  0  0  0  0  0  0  0  0  0  0
   58.8236   29.9242   47.5567 H   0  0  0  0  0  0  0  0  0  0  0  0
   57.9350   30.4440   45.6880 C   0  0  0  0  0  0  0  0  0  0  0  0
   57.2870   29.9750   44.5370 C   0  0  0  0  0  0  0  0  0  0  0  0
   56.9498   28.9294   44.4814 H   0  0  0  0  0  0  0  0  0  0  0  0
   57.0710   30.8370   43.4630 C   0  0  0  0  0  0  0  0  0  0  0  0
   56.4840   30.4200   42.4300 O   0  0  0  0  0  0  0  0  0  0  0  0
   57.4830   32.0970   43.5180 O   0  0  0  0  0  0  0  0  0  0  0  0
   58.1110   32.6020   44.5740 C   0  0  0  0  0  0  0  0  0  0  0  0
   58.5230   33.9380   44.5430 C   0  0  0  0  0  0  0  0  0  0  0  0
   58.3153   34.5546   43.6560 H   0  0  0  0  0  0  0  0  0  0  0  0
   59.1970   34.4930   45.6330 C   0  0  0  0  0  0  0  0  0  0  0  0
   59.6100   35.8190   45.5920 O   0  0  0  0  0  0  0  0  0  0  0  0
   59.4570   33.7140   46.7610 C   0  0  0  0  0  0  0  0  0  0  0  0
   59.9896   34.1537   47.6172 H   0  0  0  0  0  0  0  0  0  0  0  0
   59.0460   32.3800   46.8110 C   0  0  0  0  0  0  0  0  0  0  0  0
   59.2514   31.7784   47.7087 H   0  0  0  0  0  0  0  0  0  0  0  0
   58.3680   31.7980   45.7160 C   0  0  0  0  0  0  0  0  0  0  0  0
   56.3720   27.1460   45.6230 N   0  0  0  0  0  0  0  0  0  0  0  0
  1  2  1  0
  2  3  1  0
  2  4  2  0
  4  5  1  0
  4  6  1  0
  6  7  1  0
  6  8  1  0
  6  9  1  0
  9 10  2  0
 10 11  1  0
 11 12  1  0
 12 13  2  0
 13 14  1  0
 14 15  1  0
 15 16  1  0
 15 17  1  0
 15 18  1  0
 18 19  2  0
 19 20  1  0
 19 21  1  0
 21 22  2  0
 21 23  1  0
 23 24  1  0
 24 25  2  0
 25 26  1  0
 25 27  1  0
 27 28  1  0
 27 29  2  0
 29 30  1  0
 29 31  1  0
 31 32  1  0
 31 33  2  0
 13 34  1  0
 34 10  1  0
 33 18  1  0
 33 24  1  0
M  CHG  3  11  -1  28  -1  34  -1
M  END
>  <UniqueID>  (78) 
74

>  <SMILES>  (78) 
C=CC/N=c1/[n-]nc(SCc2cc(=O)oc3cc([O-])ccc23)[n-]1

>  <Energy>  (78) 
67.76273466686914

>  <Genealogy>  (78) 
C=CCN=c1[n-]nc(SCc2cc(=O)oc3cc([O-])ccc23)[n-]1 (protonated)
C=CC/N=c1/[n-]nc(SCc2cc(=O)oc3cc([O-])ccc23)[n-]1 (cis-trans isomerization)
C=CC/N=c1/[n-]nc(SCc2cc(=O)oc3cc([O-])ccc23)[n-]1 (3D coordinates assigned)
C=CC/N=c1/[n-]nc(SCc2cc(=O)oc3cc([O-])ccc23)[n-]1 (optimized conformer: 67.76273466686914 kcal/mol)

>  <smiles>  (78) 
C=CCN=c1[nH]nc(SCc2cc(=O)oc3cc(O)ccc23)[nH]1

>  <score_type>  (78) 
oracle

>  <origin>  (78) 
adg

>  <m_score__min__energy>  (78) 
-11.84

>  <m_primary>  (78) 
energy

$$$$
78:0
     RDKit          3D

 48 50  0  0  0  0  0  0  0  0999 V2000
   58.8010   31.9930   53.5200 H   0  0  0  0  0  0  0  0  0  0  0  0
   58.3210   32.5260   52.8030 O   0  0  0  0  0  0  0  0  0  0  0  0
   58.9200   32.8020   51.5770 C   0  0  0  0  0  0  0  0  0  0  0  0
   58.3730   32.2720   50.4040 C   0  0  0  0  0  0  0  0  0  0  0  0
   57.4727   31.6421   50.4558 H   0  0  0  0  0  0  0  0  0  0  0  0
   58.9650   32.5390   49.1660 C   0  0  0  0  0  0  0  0  0  0  0  0
   58.5196   32.1273   48.2483 H   0  0  0  0  0  0  0  0  0  0  0  0
   60.1260   33.3300   49.0840 C   0  0  0  0  0  0  0  0  0  0  0  0
   60.7650   33.6040   47.7680 C   0  0  0  0  0  0  0  0  0  0  0  0
   59.9780   33.8210   46.6930 C   0  0  0  0  0  0  0  0  0  0  0  0
   60.0184   34.8126   46.2185 H   0  0  0  0  0  0  0  0  0  0  0  0
   59.0710   32.8200   46.1150 C   0  0  0  0  0  0  0  0  0  0  0  0
   59.4030   31.4620   46.1700 C   0  0  0  0  0  0  0  0  0  0  0  0
   60.3298   31.1451   46.6706 H   0  0  0  0  0  0  0  0  0  0  0  0
   58.5630   30.5060   45.5920 C   0  0  0  0  0  0  0  0  0  0  0  0
   58.8160   29.4382   45.6688 H   0  0  0  0  0  0  0  0  0  0  0  0
   57.3950   30.9010   44.9120 C   0  0  0  0  0  0  0  0  0  0  0  0
   56.5040   29.8980   44.2700 C   0  0  0  0  0  0  0  0  0  0  0  0
   56.2220   30.0140   43.0450 O   0  0  0  0  0  0  0  0  0  0  0  0
   55.8830   28.8380   45.0190 N   0  0  0  0  0  0  0  0  0  0  0  0
   56.4500   27.7660   45.5020 C   0  0  0  0  0  0  0  0  0  0  0  0
   55.6530   26.7610   45.9560 N   0  0  0  0  0  0  0  0  0  0  0  0
   56.1570   25.6090   46.4740 C   0  0  0  0  0  0  0  0  0  0  0  0
   55.4755   24.8222   46.8295 H   0  0  0  0  0  0  0  0  0  0  0  0
   57.5370   25.4240   46.5550 C   0  0  0  0  0  0  0  0  0  0  0  0
   57.9482   24.5017   46.9912 H   0  0  0  0  0  0  0  0  0  0  0  0
   58.3940   26.4210   46.0770 C   0  0  0  0  0  0  0  0  0  0  0  0
   59.8790   26.2370   46.1840 C   0  0  0  0  0  0  0  0  0  0  0  0
   60.1685   26.2011   47.2446 H   0  0  0  0  0  0  0  0  0  0  0  0
   60.1682   25.2962   45.6929 H   0  0  0  0  0  0  0  0  0  0  0  0
   60.3891   27.0788   45.6929 H   0  0  0  0  0  0  0  0  0  0  0  0
   57.8510   27.6020   45.5470 C   0  0  0  0  0  0  0  0  0  0  0  0
   58.5134   28.3947   45.1691 H   0  0  0  0  0  0  0  0  0  0  0  0
   57.0730   32.2710   44.8520 C   0  0  0  0  0  0  0  0  0  0  0  0
   56.1587   32.5948   44.3332 H   0  0  0  0  0  0  0  0  0  0  0  0
   57.9070   33.2220   45.4470 C   0  0  0  0  0  0  0  0  0  0  0  0
   57.6485   34.2897   45.3905 H   0  0  0  0  0  0  0  0  0  0  0  0
   62.5450   33.6060   47.6630 S   0  0  0  0  0  0  0  0  0  0  0  0
   63.1690   34.4120   48.7680 O   0  0  0  0  0  0  0  0  0  0  0  0
   62.9710   34.1830   46.3400 O   0  0  0  0  0  0  0  0  0  0  0  0
   63.1710   31.9430   47.8180 C   0  0  0  0  0  0  0  0  0  0  0  0
   63.2679   31.6855   48.8830 H   0  0  0  0  0  0  0  0  0  0  0  0
   62.4750   31.2426   47.3333 H   0  0  0  0  0  0  0  0  0  0  0  0
   64.1561   31.8754   47.3333 H   0  0  0  0  0  0  0  0  0  0  0  0
   60.6680   33.8640   50.2710 C   0  0  0  0  0  0  0  0  0  0  0  0
   61.5721   34.4889   50.2247 H   0  0  0  0  0  0  0  0  0  0  0  0
   60.0660   33.6060   51.5070 C   0  0  0  0  0  0  0  0  0  0  0  0
   60.4927   34.0349   52.4257 H   0  0  0  0  0  0  0  0  0  0  0  0
  1  2  1  0
  2  3  1  0
  3  4  2  0
  4  5  1  0
  4  6  1  0
  6  7  1  0
  6  8  2  0
  8  9  1  0
  9 10  2  0
 10 11  1  0
 10 12  1  0
 12 13  2  0
 13 14  1  0
 13 15  1  0
 15 16  1  0
 15 17  2  0
 17 18  1  0
 18 19  2  0
 18 20  1  0
 20 21  2  3
 21 22  1  0
 22 23  1  0
 23 24  1  0
 23 25  2  0
 25 26  1  0
 25 27  1  0
 27 28  1  0
 28 29  1  0
 28 30  1  0
 28 31  1  0
 27 32  2  0
 32 33  1  0
 17 34  1  0
 34 35  1  0
 34 36  2  0
 36 37  1  0
  9 38  1  0
 38 39  2  0
 38 40  2  0
 38 41  1  0
 41 42  1  0
 41 43  1  0
 41 44  1  0
  8 45  1  0
 45 46  1  0
 45 47  2  0
 47 48  1  0
 47  3  1  0
 36 12  1  0
 32 21  1  0
M  CHG  1  22  -1
M  END
>  <UniqueID>  (79) 
75

>  <SMILES>  (79) 
Cc1cc[n-]c(=NC(=O)c2ccc(/C=C(/c3ccc(O)cc3)S(C)(=O)=O)cc2)c1

>  <Energy>  (79) 
72.47562347648952

>  <Genealogy>  (79) 
Cc1cc[n-]c(=NC(=O)c2ccc(C=C(c3ccc(O)cc3)S(C)(=O)=O)cc2)c1 (protonated)
Cc1cc[n-]c(=NC(=O)c2ccc(/C=C(/c3ccc(O)cc3)S(C)(=O)=O)cc2)c1 (cis-trans isomerization)
Cc1cc[n-]c(=NC(=O)c2ccc(/C=C(/c3ccc(O)cc3)S(C)(=O)=O)cc2)c1 (3D coordinates assigned)
Cc1cc[n-]c(=NC(=O)c2ccc(/C=C(/c3ccc(O)cc3)S(C)(=O)=O)cc2)c1 (optimized conformer: 72.47562347648952 kcal/mol)

>  <smiles>  (79) 
Cc1cc[nH]c(=NC(=O)c2ccc(C=C(c3ccc(O)cc3)S(C)(=O)=O)cc2)c1

>  <score_type>  (79) 
oracle

>  <origin>  (79) 
adg

>  <m_score__min__energy>  (79) 
-10.98

>  <m_primary>  (79) 
energy

$$$$
79:0
     RDKit          3D

 54 57  0  0  0  0  0  0  0  0999 V2000
   56.7740   30.9640   42.9090 O   0  0  0  0  0  0  0  0  0  0  0  0
   56.9450   31.0140   44.1560 C   0  0  0  0  0  0  0  0  0  0  0  0
   56.3700   29.9870   44.9750 N   0  0  0  0  0  0  0  0  0  0  0  0
   57.0870   28.9150   45.6060 C   0  0  0  0  0  0  0  0  0  0  0  0
   56.7650   27.5950   45.2690 C   0  0  0  0  0  0  0  0  0  0  0  0
   57.4850   26.5310   45.8180 C   0  0  0  0  0  0  0  0  0  0  0  0
   58.5370   26.7780   46.7030 C   0  0  0  0  0  0  0  0  0  0  0  0
   58.8670   28.0930   47.0560 C   0  0  0  0  0  0  0  0  0  0  0  0
   60.2100   28.4140   48.1620 S   0  0  0  0  0  0  0  0  0  0  0  0
   60.9900   29.5840   47.6310 O   0  0  0  0  0  0  0  0  0  0  0  0
   61.1270   27.2220   48.1680 O   0  0  0  0  0  0  0  0  0  0  0  0
   59.6950   28.7960   49.7960 N   0  0  0  0  0  0  0  0  0  0  0  0
   58.5390   29.7090   49.8360 C   0  0  0  0  0  0  0  0  0  0  0  0
   58.9360   31.1740   49.5530 C   0  0  0  0  0  0  0  0  0  0  0  0
   60.3330   31.3960   49.6100 O   0  0  0  0  0  0  0  0  0  0  0  0
   60.8730   30.7920   50.7630 C   0  0  0  0  0  0  0  0  0  0  0  0
   60.8040   29.2550   50.6570 C   0  0  0  0  0  0  0  0  0  0  0  0
   58.1530   29.1590   46.4900 C   0  0  0  0  0  0  0  0  0  0  0  0
   57.6900   32.1490   44.7430 C   0  0  0  0  0  0  0  0  0  0  0  0
   57.4150   33.4660   44.3410 C   0  0  0  0  0  0  0  0  0  0  0  0
   58.1380   34.5310   44.8800 C   0  0  0  0  0  0  0  0  0  0  0  0
   59.1170   34.2980   45.8490 C   0  0  0  0  0  0  0  0  0  0  0  0
   59.3880   32.9880   46.2810 C   0  0  0  0  0  0  0  0  0  0  0  0
   60.3960   32.7230   47.2700 N   0  0  0  0  0  0  0  0  0  0  0  0
   60.9920   33.7430   48.0900 C   0  0  0  0  0  0  0  0  0  0  0  0
   60.3910   34.8410   48.2550 O   0  0  0  0  0  0  0  0  0  0  0  0
   62.2800   33.5060   48.7850 C   0  0  0  0  0  0  0  0  0  0  0  0
   63.1900   32.5390   48.3250 C   0  0  0  0  0  0  0  0  0  0  0  0
   64.4010   32.3400   48.9910 C   0  0  0  0  0  0  0  0  0  0  0  0
   64.7000   33.1130   50.1150 C   0  0  0  0  0  0  0  0  0  0  0  0
   65.7860   32.9460   50.7280 O   0  0  0  0  0  0  0  0  0  0  0  0
   63.8170   34.0510   50.5470 N   0  0  0  0  0  0  0  0  0  0  0  0
   62.6310   34.2660   49.9150 C   0  0  0  0  0  0  0  0  0  0  0  0
   58.6930   31.9170   45.6980 C   0  0  0  0  0  0  0  0  0  0  0  0
   55.9410   27.3945   44.5684 H   0  0  0  0  0  0  0  0  0  0  0  0
   57.2228   25.4962   45.5526 H   0  0  0  0  0  0  0  0  0  0  0  0
   59.1081   25.9375   47.1241 H   0  0  0  0  0  0  0  0  0  0  0  0
   57.8090   29.3881   49.0782 H   0  0  0  0  0  0  0  0  0  0  0  0
   58.1131   29.6667   50.8493 H   0  0  0  0  0  0  0  0  0  0  0  0
   58.5801   31.4444   48.5479 H   0  0  0  0  0  0  0  0  0  0  0  0
   58.4751   31.7938   50.3362 H   0  0  0  0  0  0  0  0  0  0  0  0
   61.9234   31.0995   50.8733 H   0  0  0  0  0  0  0  0  0  0  0  0
   60.2874   31.1126   51.6372 H   0  0  0  0  0  0  0  0  0  0  0  0
   61.7519   28.8876   50.2369 H   0  0  0  0  0  0  0  0  0  0  0  0
   60.6284   28.8581   51.6678 H   0  0  0  0  0  0  0  0  0  0  0  0
   58.4290   30.1942   46.7395 H   0  0  0  0  0  0  0  0  0  0  0  0
   56.6267   33.6590   43.5984 H   0  0  0  0  0  0  0  0  0  0  0  0
   57.9363   35.5577   44.5406 H   0  0  0  0  0  0  0  0  0  0  0  0
   59.6779   35.1427   46.2755 H   0  0  0  0  0  0  0  0  0  0  0  0
   60.6110   31.7250   47.4940 H   0  0  0  0  0  0  0  0  0  0  0  0
   62.9474   31.9367   47.4371 H   0  0  0  0  0  0  0  0  0  0  0  0
   65.1129   31.5814   48.6336 H   0  0  0  0  0  0  0  0  0  0  0  0
   61.9433   35.0383   50.2900 H   0  0  0  0  0  0  0  0  0  0  0  0
   58.9365   30.8854   45.9922 H   0  0  0  0  0  0  0  0  0  0  0  0
  1  2  2  0
  2  3  1  0
  3  4  1  0
  4  5  2  0
  5  6  1  0
  6  7  2  0
  7  8  1  0
  8  9  1  0
  9 10  2  0
  9 11  2  0
  9 12  1  0
 12 13  1  0
 13 14  1  0
 14 15  1  0
 15 16  1  0
 16 17  1  0
  8 18  2  0
  2 19  1  0
 19 20  2  0
 20 21  1  0
 21 22  2  0
 22 23  1  0
 23 24  1  0
 24 25  1  0
 25 26  2  0
 25 27  1  0
 27 28  1  0
 28 29  2  0
 29 30  1  0
 30 31  2  0
 30 32  1  0
 32 33  1  0
 23 34  2  0
 18  4  1  0
 34 19  1  0
 17 12  1  0
 33 27  2  0
  5 35  1  0
  6 36  1  0
  7 37  1  0
 13 38  1  0
 13 39  1  0
 14 40  1  0
 14 41  1  0
 16 42  1  0
 16 43  1  0
 17 44  1  0
 17 45  1  0
 18 46  1  0
 20 47  1  0
 21 48  1  0
 22 49  1  0
 24 50  1  0
 28 51  1  0
 29 52  1  0
 33 53  1  0
 34 54  1  0
M  CHG  2   3  -1  32  -1
M  END
>  <UniqueID>  (80) 
76

>  <SMILES>  (80) 
O=C([N-]c1cccc(S(=O)(=O)N2CCOCC2)c1)c1cccc(NC(=O)c2ccc(=O)[n-]c2)c1

>  <Energy>  (80) 
80.19565187685821

>  <Genealogy>  (80) 
O=C([N-]c1cccc(S(=O)(=O)N2CCOCC2)c1)c1cccc(NC(=O)c2ccc(=O)[n-]c2)c1 (protonated)
O=C([N-]c1cccc(S(=O)(=O)N2CCOCC2)c1)c1cccc(NC(=O)c2ccc(=O)[n-]c2)c1 (3D coordinates assigned)
O=C([N-]c1cccc(S(=O)(=O)N2CCOCC2)c1)c1cccc(NC(=O)c2ccc(=O)[n-]c2)c1 (nonaromatic ring conformer: 80.19565187685821 kcal/mol)

>  <smiles>  (80) 
O=C(Nc1cccc(C(=O)Nc2cccc(S(=O)(=O)N3CCOCC3)c2)c1)c1ccc(=O)[nH]c1

>  <score_type>  (80) 
oracle

>  <origin>  (80) 
adg

>  <m_score__min__energy>  (80) 
-13.19

>  <m_primary>  (80) 
energy

$$$$
80:0
     RDKit          3D

 38 40  0  0  0  0  0  0  0  0999 V2000
   58.8930   30.1890   46.7710 C   0  0  0  0  0  0  0  0  0  0  0  0
   58.1810   29.5830   45.8090 C   0  0  0  0  0  0  0  0  0  0  0  0
   57.8400   28.2280   45.7360 C   0  0  0  0  0  0  0  0  0  0  0  0
   58.1490   27.2680   46.6330 C   0  0  0  0  0  0  0  0  0  0  0  0
   57.4910   25.9450   46.7240 C   0  0  0  0  0  0  0  0  0  0  0  0
   58.1050   24.8040   47.0820 N   0  0  0  0  0  0  0  0  0  0  0  0
   57.1040   23.9010   47.1130 C   0  0  0  0  0  0  0  0  0  0  0  0
   57.2880   22.6940   47.4100 O   0  0  0  0  0  0  0  0  0  0  0  0
   55.8870   24.3940   46.8100 N   0  0  0  0  0  0  0  0  0  0  0  0
   56.1440   25.6900   46.5750 C   0  0  0  0  0  0  0  0  0  0  0  0
   55.1570   26.6100   46.2470 O   0  0  0  0  0  0  0  0  0  0  0  0
   57.1020   28.0790   44.5630 C   0  0  0  0  0  0  0  0  0  0  0  0
   57.0320   29.3260   43.9720 C   0  0  0  0  0  0  0  0  0  0  0  0
   56.4010   29.5900   42.6400 C   0  0  0  0  0  0  0  0  0  0  0  0
   57.6760   30.2380   44.7420 N   0  0  0  0  0  0  0  0  0  0  0  0
   57.8910   31.5810   44.4830 O   0  0  0  0  0  0  0  0  0  0  0  0
   57.1240   32.6280   45.0650 C   0  0  0  0  0  0  0  0  0  0  0  0
   58.0360   33.4800   45.8990 C   0  0  0  0  0  0  0  0  0  0  0  0
   58.1940   33.2120   47.2660 C   0  0  0  0  0  0  0  0  0  0  0  0
   59.1110   33.9400   48.0290 C   0  0  0  0  0  0  0  0  0  0  0  0
   59.8760   34.9380   47.4320 C   0  0  0  0  0  0  0  0  0  0  0  0
   59.7210   35.2170   46.0730 C   0  0  0  0  0  0  0  0  0  0  0  0
   58.8090   34.4860   45.3050 C   0  0  0  0  0  0  0  0  0  0  0  0
   59.0929   31.2690   46.7097 H   0  0  0  0  0  0  0  0  0  0  0  0
   59.2770   29.6060   47.6211 H   0  0  0  0  0  0  0  0  0  0  0  0
   58.9522   27.4856   47.3524 H   0  0  0  0  0  0  0  0  0  0  0  0
   54.2960   26.6790   46.7720 H   0  0  0  0  0  0  0  0  0  0  0  0
   56.6599   27.1470   44.1809 H   0  0  0  0  0  0  0  0  0  0  0  0
   55.3954   30.0107   42.7876 H   0  0  0  0  0  0  0  0  0  0  0  0
   57.0187   30.3052   42.0769 H   0  0  0  0  0  0  0  0  0  0  0  0
   56.3254   28.6481   42.0769 H   0  0  0  0  0  0  0  0  0  0  0  0
   56.6680   33.2388   44.2719 H   0  0  0  0  0  0  0  0  0  0  0  0
   56.3249   32.2059   45.6920 H   0  0  0  0  0  0  0  0  0  0  0  0
   57.5921   32.4234   47.7412 H   0  0  0  0  0  0  0  0  0  0  0  0
   59.2282   33.7244   49.1013 H   0  0  0  0  0  0  0  0  0  0  0  0
   60.6025   35.5067   48.0310 H   0  0  0  0  0  0  0  0  0  0  0  0
   60.3177   36.0138   45.6050 H   0  0  0  0  0  0  0  0  0  0  0  0
   58.6984   34.7015   44.2320 H   0  0  0  0  0  0  0  0  0  0  0  0
  1  2  2  0
  2  3  1  0
  3  4  2  3
  4  5  1  0
  5  6  1  0
  6  7  1  0
  7  8  2  0
  7  9  1  0
  9 10  1  0
 10 11  1  0
  3 12  1  0
 12 13  2  0
 13 14  1  0
 13 15  1  0
 15 16  1  0
 16 17  1  0
 17 18  1  0
 18 19  2  0
 19 20  1  0
 20 21  2  0
 21 22  1  0
 22 23  2  0
 15  2  1  0
 23 18  1  0
 10  5  2  0
  1 24  1  0
  1 25  1  0
  4 26  1  0
 11 27  1  0
 12 28  1  0
 14 29  1  0
 14 30  1  0
 14 31  1  0
 17 32  1  0
 17 33  1  0
 19 34  1  0
 20 35  1  0
 21 36  1  0
 22 37  1  0
 23 38  1  0
M  CHG  2   6  -1   9  -1
M  END
>  <UniqueID>  (81) 
77

>  <SMILES>  (81) 
C=c1c(=Cc2[n-]c(=O)[n-]c2O)cc(C)n1OCc1ccccc1

>  <Energy>  (81) 
104.76049439460051

>  <Genealogy>  (81) 
C=c1c(=Cc2[n-]c(=O)[n-]c2O)cc(C)n1OCc1ccccc1 (protonated)
C=c1c(=Cc2[n-]c(=O)[n-]c2O)cc(C)n1OCc1ccccc1 (3D coordinates assigned)
C=c1c(=Cc2[n-]c(=O)[n-]c2O)cc(C)n1OCc1ccccc1 (optimized conformer: 104.76049439460051 kcal/mol)

>  <smiles>  (81) 
C=c1c(=Cc2[nH]c(=O)[nH]c2O)cc(C)n1OCc1ccccc1

>  <score_type>  (81) 
oracle

>  <origin>  (81) 
adg

>  <m_score__min__energy>  (81) 
-12.91

>  <m_primary>  (81) 
energy

$$$$
81:0
     RDKit          3D

 47 50  0  0  0  0  0  0  0  0999 V2000
   59.7970   31.3880   49.8300 O   0  0  0  0  0  0  0  0  0  0  0  0
   58.6080   31.7480   49.9920 C   0  0  0  0  0  0  0  0  0  0  0  0
   57.8440   32.4500   49.0520 N   0  0  0  0  0  0  0  0  0  0  0  0
   58.2660   32.8760   47.7660 C   0  0  0  0  0  0  0  0  0  0  0  0
   58.8970   34.0970   47.6820 C   0  0  0  0  0  0  0  0  0  0  0  0
   59.2770   34.5330   46.4320 C   0  0  0  0  0  0  0  0  0  0  0  0
   59.0530   33.8070   45.2900 C   0  0  0  0  0  0  0  0  0  0  0  0
   58.4340   32.6010   45.3380 C   0  0  0  0  0  0  0  0  0  0  0  0
   58.0600   31.7280   44.2330 C   0  0  0  0  0  0  0  0  0  0  0  0
   57.6300   30.4080   44.6670 C   0  0  0  0  0  0  0  0  0  0  0  0
   56.2800   30.1940   44.7720 N   0  0  0  0  0  0  0  0  0  0  0  0
   55.7750   29.0540   45.2090 N   0  0  0  0  0  0  0  0  0  0  0  0
   56.5610   28.0290   45.5790 C   0  0  0  0  0  0  0  0  0  0  0  0
   56.0610   26.9370   46.0010 O   0  0  0  0  0  0  0  0  0  0  0  0
   57.9550   28.1860   45.4950 C   0  0  0  0  0  0  0  0  0  0  0  0
   58.5000   29.3720   45.0380 C   0  0  0  0  0  0  0  0  0  0  0  0
   59.9460   29.5520   44.8570 C   0  0  0  0  0  0  0  0  0  0  0  0
   60.7440   28.2990   45.1400 C   0  0  0  0  0  0  0  0  0  0  0  0
   60.1480   27.4140   46.1860 C   0  0  0  0  0  0  0  0  0  0  0  0
   58.7430   27.0070   45.9080 C   0  0  0  0  0  0  0  0  0  0  0  0
   58.0530   32.1720   46.6280 C   0  0  0  0  0  0  0  0  0  0  0  0
   57.9580   31.4020   51.2800 C   0  0  0  0  0  0  0  0  0  0  0  0
   58.2990   32.0290   52.4530 C   0  0  0  0  0  0  0  0  0  0  0  0
   57.6920   31.7250   53.6730 C   0  0  0  0  0  0  0  0  0  0  0  0
   56.7060   30.7510   53.6930 C   0  0  0  0  0  0  0  0  0  0  0  0
   56.3990   30.1520   52.4930 C   0  0  0  0  0  0  0  0  0  0  0  0
   57.0010   30.4660   51.3350 N   0  0  0  0  0  0  0  0  0  0  0  0
   56.8400   32.7010   49.2980 H   0  0  0  0  0  0  0  0  0  0  0  0
   59.0905   34.7019   48.5801 H   0  0  0  0  0  0  0  0  0  0  0  0
   59.7823   35.5062   46.3457 H   0  0  0  0  0  0  0  0  0  0  0  0
   59.3805   34.2091   44.3199 H   0  0  0  0  0  0  0  0  0  0  0  0
   57.2355   32.1996   43.6782 H   0  0  0  0  0  0  0  0  0  0  0  0
   58.9539   31.5915   43.6067 H   0  0  0  0  0  0  0  0  0  0  0  0
   54.7400   28.9630   45.2620 H   0  0  0  0  0  0  0  0  0  0  0  0
   60.1325   29.8574   43.8168 H   0  0  0  0  0  0  0  0  0  0  0  0
   60.2723   30.3162   45.5778 H   0  0  0  0  0  0  0  0  0  0  0  0
   60.8240   27.7232   44.2062 H   0  0  0  0  0  0  0  0  0  0  0  0
   61.7209   28.6276   45.5244 H   0  0  0  0  0  0  0  0  0  0  0  0
   60.7628   26.5049   46.2609 H   0  0  0  0  0  0  0  0  0  0  0  0
   60.1318   27.9935   47.1208 H   0  0  0  0  0  0  0  0  0  0  0  0
   58.7319   26.2591   45.1015 H   0  0  0  0  0  0  0  0  0  0  0  0
   58.3021   26.5753   46.8186 H   0  0  0  0  0  0  0  0  0  0  0  0
   57.5482   31.1986   46.7153 H   0  0  0  0  0  0  0  0  0  0  0  0
   59.0816   32.8016   52.4306 H   0  0  0  0  0  0  0  0  0  0  0  0
   57.9889   32.2455   54.5954 H   0  0  0  0  0  0  0  0  0  0  0  0
   56.1930   30.4701   54.6246 H   0  0  0  0  0  0  0  0  0  0  0  0
   55.6199   29.3756   52.4820 H   0  0  0  0  0  0  0  0  0  0  0  0
  1  2  2  0
  2  3  1  0
  3  4  1  0
  4  5  2  0
  5  6  1  0
  6  7  2  0
  7  8  1  0
  8  9  1  0
  9 10  1  0
 10 11  2  0
 11 12  1  0
 12 13  1  0
 13 14  2  0
 13 15  1  0
 15 16  2  0
 16 17  1  0
 17 18  1  0
 18 19  1  0
 19 20  1  0
  8 21  2  0
  2 22  1  0
 22 23  2  0
 23 24  1  0
 24 25  2  0
 25 26  1  0
 26 27  2  0
 21  4  1  0
 27 22  1  0
 16 10  1  0
 20 15  1  0
  3 28  1  0
  5 29  1  0
  6 30  1  0
  7 31  1  0
  9 32  1  0
  9 33  1  0
 12 34  1  0
 17 35  1  0
 17 36  1  0
 18 37  1  0
 18 38  1  0
 19 39  1  0
 19 40  1  0
 20 41  1  0
 20 42  1  0
 21 43  1  0
 23 44  1  0
 24 45  1  0
 25 46  1  0
 26 47  1  0
M  END
>  <smiles>  (82) 
O=C(Nc1cccc(Cc2n[nH]c(=O)c3c2CCCC3)c1)c1ccccn1

>  <score_type>  (82) 
oracle

>  <origin>  (82) 
adg

>  <m_score__min__energy>  (82) 
-9.9299999999999997

>  <m_primary>  (82) 
energy

$$$$
82:0
     RDKit          3D

 37 38  0  0  0  0  0  0  0  0999 V2000
   59.6350   35.0200   46.2200 C   0  0  0  0  0  0  0  0  0  0  0  0
   58.7060   34.5010   45.2910 O   0  0  0  0  0  0  0  0  0  0  0  0
   58.0790   33.3490   45.8190 C   0  0  0  0  0  0  0  0  0  0  0  0
   57.5640   32.4830   44.7130 C   0  0  0  0  0  0  0  0  0  0  0  0
   56.6100   31.5430   44.8860 N   0  0  0  0  0  0  0  0  0  0  0  0
   56.3560   30.8630   43.7350 C   0  0  0  0  0  0  0  0  0  0  0  0
   55.3820   29.7260   43.6910 C   0  0  0  0  0  0  0  0  0  0  0  0
   55.5290   28.8960   44.8810 N   0  0  0  0  0  0  0  0  0  0  0  0
   56.7590   28.2740   45.2610 C   0  0  0  0  0  0  0  0  0  0  0  0
   57.8370   28.9270   45.2540 O   0  0  0  0  0  0  0  0  0  0  0  0
   56.7770   26.8250   45.6170 C   0  0  0  0  0  0  0  0  0  0  0  0
   55.4350   26.4120   46.0080 N   0  0  0  0  0  0  0  0  0  0  0  0
   54.8090   25.1840   45.6170 C   0  0  0  0  0  0  0  0  0  0  0  0
   53.6070   24.9880   45.9360 O   0  0  0  0  0  0  0  0  0  0  0  0
   55.5380   24.1310   44.8800 C   0  0  0  0  0  0  0  0  0  0  0  0
   56.9050   23.9170   45.1090 C   0  0  0  0  0  0  0  0  0  0  0  0
   57.5900   22.9330   44.3940 C   0  0  0  0  0  0  0  0  0  0  0  0
   56.9030   22.1750   43.4430 C   0  0  0  0  0  0  0  0  0  0  0  0
   57.5040   21.2840   42.7880 O   0  0  0  0  0  0  0  0  0  0  0  0
   55.5810   22.4030   43.2180 N   0  0  0  0  0  0  0  0  0  0  0  0
   54.8880   23.3560   43.9020 C   0  0  0  0  0  0  0  0  0  0  0  0
   53.5350   23.5480   43.6330 O   0  0  0  0  0  0  0  0  0  0  0  0
   57.1260   31.2430   42.6400 C   0  0  0  0  0  0  0  0  0  0  0  0
   58.1450   32.4850   43.1360 S   0  0  0  0  0  0  0  0  0  0  0  0
   59.2807   34.8221   47.2424 H   0  0  0  0  0  0  0  0  0  0  0  0
   60.6119   34.5370   46.0705 H   0  0  0  0  0  0  0  0  0  0  0  0
   59.7358   36.1051   46.0705 H   0  0  0  0  0  0  0  0  0  0  0  0
   58.8080   32.7805   46.4151 H   0  0  0  0  0  0  0  0  0  0  0  0
   57.2346   33.6603   46.4515 H   0  0  0  0  0  0  0  0  0  0  0  0
   54.3578   30.1253   43.6498 H   0  0  0  0  0  0  0  0  0  0  0  0
   55.5809   29.1150   42.7982 H   0  0  0  0  0  0  0  0  0  0  0  0
   57.1046   26.2363   44.7474 H   0  0  0  0  0  0  0  0  0  0  0  0
   57.4736   26.6576   46.4517 H   0  0  0  0  0  0  0  0  0  0  0  0
   57.4386   24.5259   45.8537 H   0  0  0  0  0  0  0  0  0  0  0  0
   58.6601   22.7563   44.5777 H   0  0  0  0  0  0  0  0  0  0  0  0
   53.0580   24.3900   43.9340 H   0  0  0  0  0  0  0  0  0  0  0  0
   57.0768   30.8086   41.6306 H   0  0  0  0  0  0  0  0  0  0  0  0
  1  2  1  0
  2  3  1  0
  3  4  1  0
  4  5  2  0
  5  6  1  0
  6  7  1  0
  7  8  1  0
  8  9  1  0
  9 10  2  0
  9 11  1  0
 11 12  1  0
 12 13  1  0
 13 14  2  0
 13 15  1  0
 15 16  1  0
 16 17  2  0
 17 18  1  0
 18 19  2  0
 18 20  1  0
 20 21  1  0
 21 22  1  0
  6 23  2  0
 23 24  1  0
 24  4  1  0
 21 15  2  0
  1 25  1  0
  1 26  1  0
  1 27  1  0
  3 28  1  0
  3 29  1  0
  7 30  1  0
  7 31  1  0
 11 32  1  0
 11 33  1  0
 16 34  1  0
 17 35  1  0
 22 36  1  0
 23 37  1  0
M  CHG  3   8  -1  12  -1  20  -1
M  END
>  <UniqueID>  (83) 
78

>  <SMILES>  (83) 
COCc1nc(C[N-]C(=O)C[N-]C(=O)c2ccc(=O)[n-]c2O)cs1

>  <Energy>  (83) 
67.17558737174744

>  <Genealogy>  (83) 
COCc1nc(C[N-]C(=O)C[N-]C(=O)c2ccc(=O)[n-]c2O)cs1 (protonated)
COCc1nc(C[N-]C(=O)C[N-]C(=O)c2ccc(=O)[n-]c2O)cs1 (3D coordinates assigned)
COCc1nc(C[N-]C(=O)C[N-]C(=O)c2ccc(=O)[n-]c2O)cs1 (optimized conformer: 67.17558737174744 kcal/mol)

>  <smiles>  (83) 
COCc1nc(CNC(=O)CNC(=O)c2ccc(=O)[nH]c2O)cs1

>  <score_type>  (83) 
oracle

>  <origin>  (83) 
adg

>  <m_score__min__energy>  (83) 
-13.609999999999999

>  <m_primary>  (83) 
energy

$$$$
83:0
     RDKit          3D

 66 71  0  0  0  0  0  0  0  0999 V2000
   65.8980   30.2540   51.6500 C   0  0  0  0  0  0  0  0  0  0  0  0
   66.8930   30.7360   50.9010 C   0  0  0  0  0  0  0  0  0  0  0  0
   67.0830   32.2110   50.7240 C   0  0  0  0  0  0  0  0  0  0  0  0
   66.1790   32.6930   49.7290 O   0  0  0  0  0  0  0  0  0  0  0  0
   64.8130   32.9320   49.9480 C   0  0  0  0  0  0  0  0  0  0  0  0
   64.3510   34.0360   50.6880 C   0  0  0  0  0  0  0  0  0  0  0  0
   62.9800   34.2300   50.8740 C   0  0  0  0  0  0  0  0  0  0  0  0
   62.0580   33.3290   50.3340 C   0  0  0  0  0  0  0  0  0  0  0  0
   60.7320   33.5510   50.5210 F   0  0  0  0  0  0  0  0  0  0  0  0
   62.5050   32.2130   49.6050 C   0  0  0  0  0  0  0  0  0  0  0  0
   61.5160   31.2320   49.0070 C   0  0  1  0  0  0  0  0  0  0  0  0
   60.9150   30.3930   50.1000 C   0  0  0  0  0  0  0  0  0  0  0  0
   61.6030   29.5640   50.9190 N   0  0  0  0  0  0  0  0  0  0  0  0
   60.6890   29.0770   51.7810 C   0  0  0  0  0  0  0  0  0  0  0  0
   60.9190   28.2310   52.8660 C   0  0  0  0  0  0  0  0  0  0  0  0
   59.8200   27.8820   53.6720 C   0  0  0  0  0  0  0  0  0  0  0  0
   58.5320   28.3930   53.3920 C   0  0  0  0  0  0  0  0  0  0  0  0
   58.3300   29.2540   52.2990 C   0  0  0  0  0  0  0  0  0  0  0  0
   59.4340   29.5720   51.5110 C   0  0  0  0  0  0  0  0  0  0  0  0
   59.5640   30.4120   50.4270 C   0  0  0  0  0  0  0  0  0  0  0  0
   58.5370   31.2970   49.7900 C   0  0  0  0  0  0  0  0  0  0  0  0
   59.1420   32.0080   48.6080 C   0  0  0  0  0  0  0  0  0  0  0  0
   58.4750   32.8300   47.7220 C   0  0  0  0  0  0  0  0  0  0  0  0
   57.1200   33.1360   47.7480 O   0  0  0  0  0  0  0  0  0  0  0  0
   59.4040   33.3040   46.8150 C   0  0  0  0  0  0  0  0  0  0  0  0
   59.1600   34.2700   45.6930 C   0  0  0  0  0  0  0  0  0  0  0  0
   58.5800   33.5770   44.4510 C   0  0  0  0  0  0  0  0  0  0  0  0
   58.0240   32.2070   44.7520 C   0  0  0  0  0  0  0  0  0  0  0  0
   56.8590   32.0960   45.2220 O   0  0  0  0  0  0  0  0  0  0  0  0
   58.7980   31.0190   44.5360 N   0  0  0  0  0  0  0  0  0  0  0  0
   58.9600   29.9510   45.4820 C   0  0  0  0  0  0  0  0  0  0  0  0
   60.2330   29.7180   46.0230 C   0  0  0  0  0  0  0  0  0  0  0  0
   60.4340   28.6850   46.9450 C   0  0  0  0  0  0  0  0  0  0  0  0
   59.3700   27.8560   47.3100 C   0  0  0  0  0  0  0  0  0  0  0  0
   58.1020   28.0590   46.7530 C   0  0  0  0  0  0  0  0  0  0  0  0
   57.8880   29.0990   45.8370 C   0  0  0  0  0  0  0  0  0  0  0  0
   56.5800   29.2430   45.2400 C   0  0  0  0  0  0  0  0  0  0  0  0
   55.5300   29.3550   44.7600 N   0  0  0  0  0  0  0  0  0  0  0  0
   60.6110   32.7360   47.1870 C   0  0  0  0  0  0  0  0  0  0  0  0
   61.8310   32.9540   46.5540 O   0  0  0  0  0  0  0  0  0  0  0  0
   60.4550   31.9500   48.2760 N   0  0  0  0  0  0  0  0  0  0  0  0
   63.8870   32.0360   49.4030 C   0  0  0  0  0  0  0  0  0  0  0  0
   65.7750   29.1673   51.7678 H   0  0  0  0  0  0  0  0  0  0  0  0
   65.2014   30.9437   52.1491 H   0  0  0  0  0  0  0  0  0  0  0  0
   67.5844   30.0382   50.4059 H   0  0  0  0  0  0  0  0  0  0  0  0
   66.8854   32.7229   51.6774 H   0  0  0  0  0  0  0  0  0  0  0  0
   68.1171   32.4113   50.4068 H   0  0  0  0  0  0  0  0  0  0  0  0
   65.0701   34.7472   51.1206 H   0  0  0  0  0  0  0  0  0  0  0  0
   62.6239   35.0974   51.4491 H   0  0  0  0  0  0  0  0  0  0  0  0
   62.0452   30.5792   48.2972 H   0  0  0  0  0  0  0  0  0  0  0  0
   62.6320   29.3780   50.9130 H   0  0  0  0  0  0  0  0  0  0  0  0
   61.9272   27.8491   53.0844 H   0  0  0  0  0  0  0  0  0  0  0  0
   59.9642   27.2057   54.5275 H   0  0  0  0  0  0  0  0  0  0  0  0
   57.6825   28.1153   54.0333 H   0  0  0  0  0  0  0  0  0  0  0  0
   57.3339   29.6627   52.0737 H   0  0  0  0  0  0  0  0  0  0  0  0
   57.6864   30.6863   49.4531 H   0  0  0  0  0  0  0  0  0  0  0  0
   58.1909   32.0399   50.5237 H   0  0  0  0  0  0  0  0  0  0  0  0
   58.4508   35.0385   46.0343 H   0  0  0  0  0  0  0  0  0  0  0  0
   60.1260   34.7153   45.4128 H   0  0  0  0  0  0  0  0  0  0  0  0
   57.7718   34.2028   44.0446 H   0  0  0  0  0  0  0  0  0  0  0  0
   59.4002   33.4503   43.7291 H   0  0  0  0  0  0  0  0  0  0  0  0
   61.0794   30.3520   45.7202 H   0  0  0  0  0  0  0  0  0  0  0  0
   61.4304   28.5253   47.3829 H   0  0  0  0  0  0  0  0  0  0  0  0
   59.5288   27.0440   48.0349 H   0  0  0  0  0  0  0  0  0  0  0  0
   57.2686   27.3989   47.0354 H   0  0  0  0  0  0  0  0  0  0  0  0
   64.2435   31.1818   48.8087 H   0  0  0  0  0  0  0  0  0  0  0  0
  1  2  2  0
  2  3  1  0
  3  4  1  0
  4  5  1  0
  5  6  2  0
  6  7  1  0
  7  8  2  0
  8  9  1  0
  8 10  1  0
 10 11  1  0
 11 12  1  0
 12 13  1  0
 13 14  1  0
 14 15  2  0
 15 16  1  0
 16 17  2  0
 17 18  1  0
 18 19  2  0
 19 20  1  0
 20 21  1  0
 21 22  1  0
 22 23  2  0
 23 24  1  0
 23 25  1  0
 25 26  1  0
 26 27  1  0
 27 28  1  0
 28 29  2  0
 28 30  1  0
 30 31  1  0
 31 32  2  0
 32 33  1  0
 33 34  2  0
 34 35  1  0
 35 36  2  0
 36 37  1  0
 37 38  3  0
 25 39  2  0
 39 40  1  0
 39 41  1  0
 10 42  2  0
 42  5  1  0
 41 11  1  0
 20 12  2  0
 41 22  1  0
 19 14  1  0
 36 31  1  0
  1 43  1  0
  1 44  1  0
  2 45  1  0
  3 46  1  0
  3 47  1  0
  6 48  1  0
  7 49  1  0
 11 50  1  6
 13 51  1  0
 15 52  1  0
 16 53  1  0
 17 54  1  0
 18 55  1  0
 21 56  1  0
 21 57  1  0
 26 58  1  0
 26 59  1  0
 27 60  1  0
 27 61  1  0
 32 62  1  0
 33 63  1  0
 34 64  1  0
 35 65  1  0
 42 66  1  0
M  CHG  3  24  -1  30  -1  40  -1
M  END
>  <UniqueID>  (84) 
79

>  <SMILES>  (84) 
C=CCOc1ccc(F)c([C@H]2c3[nH]c4ccccc4c3Cc3c([O-])c(CCC(=O)[N-]c4ccccc4C#N)c([O-])n32)c1

>  <Energy>  (84) 
139.46629903484512

>  <Genealogy>  (84) 
C=CCOc1ccc(F)c(C2c3[nH]c4ccccc4c3Cc3c([O-])c(CCC(=O)[N-]c4ccccc4C#N)c([O-])n32)c1 (protonated)
C=CCOc1ccc(F)c([C@H]2c3[nH]c4ccccc4c3Cc3c([O-])c(CCC(=O)[N-]c4ccccc4C#N)c([O-])n32)c1 (chirality)
C=CCOc1ccc(F)c([C@H]2c3[nH]c4ccccc4c3Cc3c([O-])c(CCC(=O)[N-]c4ccccc4C#N)c([O-])n32)c1 (3D coordinates assigned)
C=CCOc1ccc(F)c([C@H]2c3[nH]c4ccccc4c3Cc3c([O-])c(CCC(=O)[N-]c4ccccc4C#N)c([O-])n32)c1 (nonaromatic ring conformer: 139.46629903484512 kcal/mol)

>  <smiles>  (84) 
C=CCOc1ccc(F)c(C2c3[nH]c4ccccc4c3Cc3c(O)c(CCC(=O)Nc4ccccc4C#N)c(O)n32)c1

>  <score_type>  (84) 
oracle

>  <origin>  (84) 
adg

>  <m_score__min__energy>  (84) 
-13.31

>  <m_primary>  (84) 
energy

$$$$
84:0
     RDKit          3D

 46 49  0  0  0  0  0  0  0  0999 V2000
   56.0700   31.8720   52.3130 C   0  0  0  0  0  0  0  0  0  0  0  0
   55.4710   30.7050   52.5920 C   0  0  0  0  0  0  0  0  0  0  0  0
   54.0970   30.4780   52.7770 C   0  0  0  0  0  0  0  0  0  0  0  0
   53.0310   31.2620   52.5230 C   0  0  0  0  0  0  0  0  0  0  0  0
   52.2930   31.3180   51.2510 C   0  0  0  0  0  0  0  0  0  0  0  0
   52.3050   30.3520   50.3140 N   0  0  0  0  0  0  0  0  0  0  0  0
   51.3910   30.7800   49.4150 C   0  0  0  0  0  0  0  0  0  0  0  0
   51.1230   30.1410   48.3650 O   0  0  0  0  0  0  0  0  0  0  0  0
   50.7810   31.9410   49.7360 N   0  0  0  0  0  0  0  0  0  0  0  0
   51.3540   32.2590   50.9070 C   0  0  0  0  0  0  0  0  0  0  0  0
   51.0200   33.3850   51.6510 O   0  0  0  0  0  0  0  0  0  0  0  0
   53.9820   29.1960   53.2900 C   0  0  0  0  0  0  0  0  0  0  0  0
   55.2540   28.6620   53.3260 C   0  0  0  0  0  0  0  0  0  0  0  0
   55.5830   27.2800   53.8010 C   0  0  0  0  0  0  0  0  0  0  0  0
   56.1560   29.5770   52.9080 N   0  0  0  0  0  0  0  0  0  0  0  0
   57.5820   29.3870   52.8480 C   0  0  0  0  0  0  0  0  0  0  0  0
   58.2200   29.3620   51.6000 C   0  0  0  0  0  0  0  0  0  0  0  0
   59.6080   29.1890   51.5130 C   0  0  0  0  0  0  0  0  0  0  0  0
   60.2940   29.2250   50.1750 C   0  0  0  0  0  0  0  0  0  0  0  0
   59.7190   30.3220   49.3340 C   0  0  0  0  0  0  0  0  0  0  0  0
   59.7800   31.9630   49.7110 S   0  0  0  0  0  0  0  0  0  0  0  0
   58.8560   32.3880   48.3720 C   0  0  0  0  0  0  0  0  0  0  0  0
   58.5370   33.5680   48.0760 O   0  0  0  0  0  0  0  0  0  0  0  0
   58.4800   31.3190   47.6380 N   0  0  0  0  0  0  0  0  0  0  0  0
   58.9540   30.1660   48.1790 C   0  0  0  0  0  0  0  0  0  0  0  0
   58.6830   28.9290   47.6110 O   0  0  0  0  0  0  0  0  0  0  0  0
   60.3590   29.0510   52.6890 C   0  0  0  0  0  0  0  0  0  0  0  0
   59.7290   29.0750   53.9360 C   0  0  0  0  0  0  0  0  0  0  0  0
   58.3340   29.2520   54.0280 C   0  0  0  0  0  0  0  0  0  0  0  0
   57.6680   29.3130   55.2620 O   0  0  0  0  0  0  0  0  0  0  0  0
   57.1720   30.5050   55.8630 C   0  0  0  0  0  0  0  0  0  0  0  0
   55.7910   30.4700   55.8600 F   0  0  0  0  0  0  0  0  0  0  0  0
   57.5960   31.6080   55.1440 F   0  0  0  0  0  0  0  0  0  0  0  0
   57.1625   31.9143   52.1916 H   0  0  0  0  0  0  0  0  0  0  0  0
   55.4689   32.7869   52.2056 H   0  0  0  0  0  0  0  0  0  0  0  0
   52.6826   31.9161   53.3359 H   0  0  0  0  0  0  0  0  0  0  0  0
   53.0538   28.6987   53.6079 H   0  0  0  0  0  0  0  0  0  0  0  0
   55.5874   27.2616   54.9008 H   0  0  0  0  0  0  0  0  0  0  0  0
   54.8279   26.5737   53.4255 H   0  0  0  0  0  0  0  0  0  0  0  0
   56.5753   26.9897   53.4255 H   0  0  0  0  0  0  0  0  0  0  0  0
   57.6263   29.4791   50.6814 H   0  0  0  0  0  0  0  0  0  0  0  0
   61.3694   29.4040   50.3217 H   0  0  0  0  0  0  0  0  0  0  0  0
   60.1422   28.2621   49.6654 H   0  0  0  0  0  0  0  0  0  0  0  0
   61.4499   28.9232   52.6296 H   0  0  0  0  0  0  0  0  0  0  0  0
   60.3260   28.9549   54.8521 H   0  0  0  0  0  0  0  0  0  0  0  0
   57.5487   30.5759   56.8941 H   0  0  0  0  0  0  0  0  0  0  0  0
  1  2  2  0
  2  3  1  0
  3  4  2  3
  4  5  1  0
  5  6  1  0
  6  7  1  0
  7  8  2  0
  7  9  1  0
  9 10  1  0
 10 11  1  0
  3 12  1  0
 12 13  2  0
 13 14  1  0
 13 15  1  0
 15 16  1  0
 16 17  2  0
 17 18  1  0
 18 19  1  0
 19 20  1  0
 20 21  1  0
 21 22  1  0
 22 23  2  0
 22 24  1  0
 24 25  1  0
 25 26  1  0
 18 27  2  0
 27 28  1  0
 28 29  2  0
 29 30  1  0
 30 31  1  0
 31 32  1  0
 31 33  1  0
 15  2  1  0
 29 16  1  0
 10  5  2  0
 25 20  2  0
  1 34  1  0
  1 35  1  0
  4 36  1  0
 12 37  1  0
 14 38  1  0
 14 39  1  0
 14 40  1  0
 17 41  1  0
 19 42  1  0
 19 43  1  0
 27 44  1  0
 28 45  1  0
 31 46  1  0
M  CHG  5   6  -1   9  -1  11  -1  24  -1  26  -1
M  END
>  <UniqueID>  (85) 
80

>  <SMILES>  (85) 
C=c1c(=Cc2[n-]c(=O)[n-]c2[O-])cc(C)n1-c1cc(Cc2sc(=O)[n-]c2[O-])ccc1OC(F)F

>  <Energy>  (85) 
153.09223768788635

>  <Genealogy>  (85) 
C=c1c(=Cc2[n-]c(=O)[n-]c2[O-])cc(C)n1-c1cc(Cc2sc(=O)[n-]c2[O-])ccc1OC(F)F (protonated)
C=c1c(=Cc2[n-]c(=O)[n-]c2[O-])cc(C)n1-c1cc(Cc2sc(=O)[n-]c2[O-])ccc1OC(F)F (3D coordinates assigned)
C=c1c(=Cc2[n-]c(=O)[n-]c2[O-])cc(C)n1-c1cc(Cc2sc(=O)[n-]c2[O-])ccc1OC(F)F (optimized conformer: 153.09223768788635 kcal/mol)

>  <smiles>  (85) 
C=c1c(=Cc2[nH]c(=O)[nH]c2O)cc(C)n1-c1cc(Cc2sc(=O)[nH]c2O)ccc1OC(F)F

>  <score_type>  (85) 
oracle

>  <origin>  (85) 
adg

>  <m_score__min__energy>  (85) 
-17.870000000000001

>  <m_primary>  (85) 
energy

$$$$
85:0
     RDKit          3D

 40 42  0  0  0  0  0  0  0  0999 V2000
   54.2990   26.7400   46.6570 H   0  0  0  0  0  0  0  0  0  0  0  0
   54.9410   26.2490   45.9940 N   0  0  0  0  0  0  0  0  0  0  0  0
   56.1290   26.6870   45.7240 C   0  0  0  0  0  0  0  0  0  0  0  0
   56.3260   28.0210   45.5500 N   0  0  0  0  0  0  0  0  0  0  0  0
   57.5480   28.5510   45.2600 C   0  0  0  0  0  0  0  0  0  0  0  0
   57.6820   30.0200   45.0870 C   0  0  0  0  0  0  0  0  0  0  0  0
   57.3300   30.6590   43.8890 C   0  0  0  0  0  0  0  0  0  0  0  0
   56.9484   30.0651   43.0454 H   0  0  0  0  0  0  0  0  0  0  0  0
   57.4600   32.0410   43.7590 C   0  0  0  0  0  0  0  0  0  0  0  0
   57.1788   32.5357   42.8176 H   0  0  0  0  0  0  0  0  0  0  0  0
   57.9530   32.8020   44.8380 C   0  0  0  0  0  0  0  0  0  0  0  0
   58.0980   34.0990   44.7870 N   0  0  0  0  0  0  0  0  0  0  0  0
   59.0350   34.9460   45.4760 C   0  0  0  0  0  0  0  0  0  0  0  0
   59.6350   35.8740   44.8730 O   0  0  0  0  0  0  0  0  0  0  0  0
   59.3240   34.7280   46.8610 N   0  0  0  0  0  0  0  0  0  0  0  0
   60.5790   34.2970   47.4080 C   0  0  0  0  0  0  0  0  0  0  0  0
   60.7960   34.4360   48.7860 C   0  0  0  0  0  0  0  0  0  0  0  0
   60.0039   34.8537   49.4248 H   0  0  0  0  0  0  0  0  0  0  0  0
   62.0130   34.0470   49.3530 C   0  0  0  0  0  0  0  0  0  0  0  0
   62.1680   34.1414   50.4379 H   0  0  0  0  0  0  0  0  0  0  0  0
   63.0340   33.5380   48.5440 C   0  0  0  0  0  0  0  0  0  0  0  0
   64.5940   33.0280   49.2740 S   0  0  0  0  0  0  0  0  0  0  0  0
   63.8700   31.6980   50.2900 C   0  0  0  0  0  0  0  0  0  0  0  0
   64.8620   30.8410   50.7290 F   0  0  0  0  0  0  0  0  0  0  0  0
   63.2080   32.2360   51.3780 F   0  0  0  0  0  0  0  0  0  0  0  0
   62.9690   30.9860   49.5220 F   0  0  0  0  0  0  0  0  0  0  0  0
   62.8320   33.4140   47.1640 C   0  0  0  0  0  0  0  0  0  0  0  0
   63.6323   33.0106   46.5262 H   0  0  0  0  0  0  0  0  0  0  0  0
   61.6150   33.8020   46.5950 C   0  0  0  0  0  0  0  0  0  0  0  0
   61.4672   33.7199   45.5081 H   0  0  0  0  0  0  0  0  0  0  0  0
   58.2590   32.1630   46.0050 N   0  0  0  0  0  0  0  0  0  0  0  0
   58.6080   32.7180   46.8200 H   0  0  0  0  0  0  0  0  0  0  0  0
   58.1390   30.8160   46.1490 C   0  0  0  0  0  0  0  0  0  0  0  0
   58.4028   30.3454   47.1076 H   0  0  0  0  0  0  0  0  0  0  0  0
   58.6560   27.6890   45.1520 C   0  0  0  0  0  0  0  0  0  0  0  0
   59.6541   28.0955   44.9318 H   0  0  0  0  0  0  0  0  0  0  0  0
   58.4800   26.3160   45.3260 C   0  0  0  0  0  0  0  0  0  0  0  0
   59.3402   25.6360   45.2385 H   0  0  0  0  0  0  0  0  0  0  0  0
   57.2130   25.8050   45.6110 C   0  0  0  0  0  0  0  0  0  0  0  0
   57.0666   24.7231   45.7454 H   0  0  0  0  0  0  0  0  0  0  0  0
  1  2  1  0
  2  3  2  0
  3  4  1  0
  4  5  1  0
  5  6  1  0
  6  7  1  0
  7  8  1  0
  7  9  2  0
  9 10  1  0
  9 11  1  0
 11 12  2  0
 12 13  1  0
 13 14  2  0
 13 15  1  0
 15 16  1  0
 16 17  2  0
 17 18  1  0
 17 19  1  0
 19 20  1  0
 19 21  2  0
 21 22  1  0
 22 23  1  0
 23 24  1  0
 23 25  1  0
 23 26  1  0
 21 27  1  0
 27 28  1  0
 27 29  2  0
 29 30  1  0
 11 31  1  0
 31 32  1  0
 31 33  1  0
 33 34  1  0
  5 35  2  0
 35 36  1  0
 35 37  1  0
 37 38  1  0
 37 39  2  0
 39 40  1  0
 39  3  1  0
 33  6  2  0
 29 16  1  0
M  CHG  2   4  -1  15  -1
M  END
>  <UniqueID>  (86) 
81

>  <SMILES>  (86) 
[H]/N=c1\cccc(-c2cc/c(=N\C(=O)[N-]c3ccc(SC(F)(F)F)cc3)[nH]c2)[n-]1

>  <Energy>  (86) 
55.36891177154959

>  <Genealogy>  (86) 
N=c1cccc(-c2ccc(=NC(=O)[N-]c3ccc(SC(F)(F)F)cc3)[nH]c2)[n-]1 (protonated)
[H]/N=c1\cccc(-c2cc/c(=N\C(=O)[N-]c3ccc(SC(F)(F)F)cc3)[nH]c2)[n-]1 (cis-trans isomerization)
[H]/N=c1\cccc(-c2cc/c(=N\C(=O)[N-]c3ccc(SC(F)(F)F)cc3)[nH]c2)[n-]1 (3D coordinates assigned)
[H]/N=c1\cccc(-c2cc/c(=N\C(=O)[N-]c3ccc(SC(F)(F)F)cc3)[nH]c2)[n-]1 (optimized conformer: 55.36891177154959 kcal/mol)

>  <smiles>  (86) 
N=c1cccc(-c2ccc(=NC(=O)Nc3ccc(SC(F)(F)F)cc3)[nH]c2)[nH]1

>  <score_type>  (86) 
oracle

>  <origin>  (86) 
adg

>  <m_score__min__energy>  (86) 
-11.42

>  <m_primary>  (86) 
energy

$$$$
86:0
     RDKit          3D

 71 75  0  0  0  0  0  0  0  0999 V2000
   66.2020   30.0890   52.5240 C   0  0  0  0  0  0  0  0  0  0  0  0
   65.8820   31.1160   51.4690 C   0  0  0  0  0  0  0  0  0  0  0  0
   66.8870   32.0140   51.0730 C   0  0  0  0  0  0  0  0  0  0  0  0
   66.6310   32.9870   50.1090 C   0  0  0  0  0  0  0  0  0  0  0  0
   65.3650   33.0850   49.5330 C   0  0  0  0  0  0  0  0  0  0  0  0
   64.3470   32.1990   49.9040 C   0  0  0  0  0  0  0  0  0  0  0  0
   63.0450   32.3540   49.3200 N   0  0  0  0  0  0  0  0  0  0  0  0
   62.2090   33.4900   49.7280 C   0  0  0  0  0  0  0  0  0  0  0  0
   60.8070   33.4120   49.1120 C   0  0  0  0  0  0  0  0  0  0  0  0
   60.8830   33.0110   47.7030 N   0  0  0  0  0  0  0  0  0  0  0  0
   59.9330   33.5460   46.7710 C   0  0  0  0  0  0  0  0  0  0  0  0
   60.1580   34.8200   46.2280 C   0  0  0  0  0  0  0  0  0  0  0  0
   59.2940   35.3440   45.2650 C   0  0  0  0  0  0  0  0  0  0  0  0
   58.1990   34.5980   44.8310 C   0  0  0  0  0  0  0  0  0  0  0  0
   57.9610   33.3280   45.3610 C   0  0  0  0  0  0  0  0  0  0  0  0
   58.8160   32.7870   46.3400 C   0  0  0  0  0  0  0  0  0  0  0  0
   58.5160   31.4490   46.9000 C   0  0  0  0  0  0  0  0  0  0  0  0
   58.5840   31.2540   48.1440 O   0  0  0  0  0  0  0  0  0  0  0  0
   58.0760   30.3960   46.0320 N   0  0  0  0  0  0  0  0  0  0  0  0
   58.3950   29.0020   46.1520 C   0  0  0  0  0  0  0  0  0  0  0  0
   59.7220   28.5470   46.2590 C   0  0  0  0  0  0  0  0  0  0  0  0
   59.9900   27.1790   46.3450 C   0  0  0  0  0  0  0  0  0  0  0  0
   58.9430   26.2540   46.3160 C   0  0  0  0  0  0  0  0  0  0  0  0
   57.6180   26.6960   46.1940 C   0  0  0  0  0  0  0  0  0  0  0  0
   56.2920   25.5320   46.1590 S   0  0  0  0  0  0  0  0  0  0  0  0
   56.2500   24.8110   47.4780 O   0  0  0  0  0  0  0  0  0  0  0  0
   54.9920   26.2690   45.9990 O   0  0  0  0  0  0  0  0  0  0  0  0
   56.4580   24.3590   44.8690 N   0  0  0  0  0  0  0  0  0  0  0  0
   57.8620   24.1460   44.4740 C   0  0  0  0  0  0  0  0  0  0  0  0
   58.6070   23.1520   45.3960 C   0  0  0  0  0  0  0  0  0  0  0  0
   57.7550   22.4830   46.3030 O   0  0  0  0  0  0  0  0  0  0  0  0
   56.6420   21.9640   45.6140 C   0  0  0  0  0  0  0  0  0  0  0  0
   55.7250   23.1040   45.1380 C   0  0  0  0  0  0  0  0  0  0  0  0
   57.3530   28.0690   46.0960 C   0  0  0  0  0  0  0  0  0  0  0  0
   61.7490   31.9010   47.2800 C   0  0  0  0  0  0  0  0  0  0  0  0
   62.5060   31.2920   48.4640 C   0  0  0  0  0  0  0  0  0  0  0  0
   64.6040   31.1810   50.8540 C   0  0  0  0  0  0  0  0  0  0  0  0
   63.5060   30.2170   51.2410 C   0  0  0  0  0  0  0  0  0  0  0  0
   66.0639   30.5324   53.5212 H   0  0  0  0  0  0  0  0  0  0  0  0
   65.5304   29.2252   52.4105 H   0  0  0  0  0  0  0  0  0  0  0  0
   67.2454   29.7596   52.4105 H   0  0  0  0  0  0  0  0  0  0  0  0
   67.8861   31.9484   51.5285 H   0  0  0  0  0  0  0  0  0  0  0  0
   67.4290   33.6790   49.8019 H   0  0  0  0  0  0  0  0  0  0  0  0
   65.1650   33.8636   48.7822 H   0  0  0  0  0  0  0  0  0  0  0  0
   62.1173   33.4897   50.8242 H   0  0  0  0  0  0  0  0  0  0  0  0
   62.6888   34.4140   49.3730 H   0  0  0  0  0  0  0  0  0  0  0  0
   60.2093   32.6733   49.6662 H   0  0  0  0  0  0  0  0  0  0  0  0
   60.3374   34.4049   49.1730 H   0  0  0  0  0  0  0  0  0  0  0  0
   61.0227   35.4110   46.5641 H   0  0  0  0  0  0  0  0  0  0  0  0
   59.4770   36.3455   44.8485 H   0  0  0  0  0  0  0  0  0  0  0  0
   57.5210   35.0107   44.0694 H   0  0  0  0  0  0  0  0  0  0  0  0
   57.0970   32.7446   45.0101 H   0  0  0  0  0  0  0  0  0  0  0  0
   60.5505   29.2705   46.2750 H   0  0  0  0  0  0  0  0  0  0  0  0
   61.0287   26.8286   46.4359 H   0  0  0  0  0  0  0  0  0  0  0  0
   59.1586   25.1778   46.3890 H   0  0  0  0  0  0  0  0  0  0  0  0
   57.8810   23.7526   43.4469 H   0  0  0  0  0  0  0  0  0  0  0  0
   58.3759   25.1154   44.5530 H   0  0  0  0  0  0  0  0  0  0  0  0
   59.1065   22.4002   44.7673 H   0  0  0  0  0  0  0  0  0  0  0  0
   59.3230   23.7361   45.9928 H   0  0  0  0  0  0  0  0  0  0  0  0
   56.9906   21.3914   44.7419 H   0  0  0  0  0  0  0  0  0  0  0  0
   56.0750   21.3109   46.2937 H   0  0  0  0  0  0  0  0  0  0  0  0
   55.2219   22.7864   44.2128 H   0  0  0  0  0  0  0  0  0  0  0  0
   55.0068   23.3084   45.9457 H   0  0  0  0  0  0  0  0  0  0  0  0
   56.3165   28.4165   45.9739 H   0  0  0  0  0  0  0  0  0  0  0  0
   61.1280   31.1214   46.8146 H   0  0  0  0  0  0  0  0  0  0  0  0
   62.4874   32.2943   46.5659 H   0  0  0  0  0  0  0  0  0  0  0  0
   61.8187   30.6654   49.0514 H   0  0  0  0  0  0  0  0  0  0  0  0
   63.3376   30.6811   48.0828 H   0  0  0  0  0  0  0  0  0  0  0  0
   63.4392   30.1583   52.3374 H   0  0  0  0  0  0  0  0  0  0  0  0
   62.5473   30.5705   50.8336 H   0  0  0  0  0  0  0  0  0  0  0  0
   63.7324   29.2206   50.8336 H   0  0  0  0  0  0  0  0  0  0  0  0
  1  2  1  0
  2  3  2  0
  3  4  1  0
  4  5  2  0
  5  6  1  0
  6  7  1  0
  7  8  1  0
  8  9  1  0
  9 10  1  0
 10 11  1  0
 11 12  2  0
 12 13  1  0
 13 14  2  0
 14 15  1  0
 15 16  2  0
 16 17  1  0
 17 18  2  0
 17 19  1  0
 19 20  1  0
 20 21  2  0
 21 22  1  0
 22 23  2  0
 23 24  1  0
 24 25  1  0
 25 26  2  0
 25 27  2  0
 25 28  1  0
 28 29  1  0
 29 30  1  0
 30 31  1  0
 31 32  1  0
 32 33  1  0
 24 34  2  0
 10 35  1  0
 35 36  1  0
  6 37  2  0
 37 38  1  0
 37  2  1  0
 36  7  1  0
 16 11  1  0
 34 20  1  0
 33 28  1  0
  1 39  1  0
  1 40  1  0
  1 41  1  0
  3 42  1  0
  4 43  1  0
  5 44  1  0
  8 45  1  0
  8 46  1  0
  9 47  1  0
  9 48  1  0
 12 49  1  0
 13 50  1  0
 14 51  1  0
 15 52  1  0
 21 53  1  0
 22 54  1  0
 23 55  1  0
 29 56  1  0
 29 57  1  0
 30 58  1  0
 30 59  1  0
 32 60  1  0
 32 61  1  0
 33 62  1  0
 33 63  1  0
 34 64  1  0
 35 65  1  0
 35 66  1  0
 36 67  1  0
 36 68  1  0
 38 69  1  0
 38 70  1  0
 38 71  1  0
M  CHG  1  19  -1
M  END
>  <UniqueID>  (87) 
82

>  <SMILES>  (87) 
Cc1cccc(N2CCN(c3ccccc3C(=O)[N-]c3cccc(S(=O)(=O)N4CCOCC4)c3)CC2)c1C

>  <Energy>  (87) 
102.63226220113407

>  <Genealogy>  (87) 
Cc1cccc(N2CCN(c3ccccc3C(=O)[N-]c3cccc(S(=O)(=O)N4CCOCC4)c3)CC2)c1C (protonated)
Cc1cccc(N2CCN(c3ccccc3C(=O)[N-]c3cccc(S(=O)(=O)N4CCOCC4)c3)CC2)c1C (3D coordinates assigned)
Cc1cccc(N2CCN(c3ccccc3C(=O)[N-]c3cccc(S(=O)(=O)N4CCOCC4)c3)CC2)c1C (nonaromatic ring conformer: 102.63226220113407 kcal/mol)

>  <smiles>  (87) 
Cc1cccc(N2CCN(c3ccccc3C(=O)Nc3cccc(S(=O)(=O)N4CCOCC4)c3)CC2)c1C

>  <score_type>  (87) 
oracle

>  <origin>  (87) 
adg

>  <m_score__min__energy>  (87) 
-12.83

>  <m_primary>  (87) 
energy

$$$$
