0:0
     RDKit          3D

 38 40  0  0  1  0  0  0  0  0999 V2000
   57.5710   33.3080   46.6270 C   0  0  0  0  0  0  0  0  0  0  0  0
   57.5970   32.0280   46.0240 O   0  0  0  0  0  0  0  0  0  0  0  0
   57.5540   31.9280   44.6410 C   0  0  0  0  0  0  0  0  0  0  0  0
   58.1150   32.8620   43.7940 C   0  0  0  0  0  0  0  0  0  0  0  0
   58.0370   32.7020   42.4090 C   0  0  0  0  0  0  0  0  0  0  0  0
   57.3860   31.5910   41.8680 C   0  0  0  0  0  0  0  0  0  0  0  0
   56.8260   30.6640   42.7180 C   0  0  0  0  0  0  0  0  0  0  0  0
   56.9070   30.8240   44.0760 C   0  0  0  0  0  0  0  0  0  0  0  0
   56.3110   29.8360   44.9430 N   0  0  0  0  0  0  0  0  0  0  0  0
   57.1540   28.9840   45.4690 C   0  0  0  0  0  0  0  0  0  0  0  0
   57.0380   27.6710   45.1700 N   0  0  0  0  0  0  0  0  0  0  0  0
   57.8910   26.7440   45.6920 C   0  0  0  0  0  0  0  0  0  0  0  0
   58.8980   27.1460   46.5470 C   0  0  0  0  0  0  0  0  0  0  0  0
   59.7490   26.2650   47.0750 F   0  0  0  0  0  0  0  0  0  0  0  0
   59.0070   28.4870   46.8460 C   0  0  0  0  0  0  0  0  0  0  0  0
   59.9510   28.8370   47.6430 N   0  0  0  0  0  0  0  0  0  0  0  0
   60.1020   30.2160   47.9790 C   0  0  0  0  0  0  0  0  0  0  0  0
   59.1710   30.7240   48.8790 C   0  0  0  0  0  0  0  0  0  0  0  0
   59.2890   32.0540   49.2240 C   0  0  0  0  0  0  0  0  0  0  0  0
   60.2870   32.8720   48.7090 C   0  0  0  0  0  0  0  0  0  0  0  0
   61.1750   32.3020   47.8230 C   0  0  0  0  0  0  0  0  0  0  0  0
   62.5620   33.4290   47.1020 Br  0  0  0  0  0  0  0  0  0  0  0  0
   61.1070   30.9830   47.4410 C   0  0  0  0  0  0  0  0  0  0  0  0
   58.1310   29.3480   46.2940 N   0  0  0  0  0  0  0  0  0  0  0  0
   57.5732   33.1978   47.7215 H   0  0  0  0  0  0  0  0  0  0  0  0
   58.4577   33.8788   46.3141 H   0  0  0  0  0  0  0  0  0  0  0  0
   56.6618   33.8423   46.3141 H   0  0  0  0  0  0  0  0  0  0  0  0
   58.6280   33.7400   44.2135 H   0  0  0  0  0  0  0  0  0  0  0  0
   58.4889   33.4520   41.7431 H   0  0  0  0  0  0  0  0  0  0  0  0
   57.3216   31.4585   40.7779 H   0  0  0  0  0  0  0  0  0  0  0  0
   56.3086   29.7866   42.3027 H   0  0  0  0  0  0  0  0  0  0  0  0
   56.2980   27.2970   44.5300 H   0  0  0  0  0  0  0  0  0  0  0  0
   57.7774   25.6809   45.4332 H   0  0  0  0  0  0  0  0  0  0  0  0
   58.3743   30.0916   49.2978 H   0  0  0  0  0  0  0  0  0  0  0  0
   58.5661   32.4832   49.9333 H   0  0  0  0  0  0  0  0  0  0  0  0
   60.3650   33.9308   48.9967 H   0  0  0  0  0  0  0  0  0  0  0  0
   61.8309   30.5573   46.7305 H   0  0  0  0  0  0  0  0  0  0  0  0
   58.2170   30.3730   46.5260 H   0  0  0  0  0  0  0  0  0  0  0  0
  1  2  1  0
  2  3  1  0
  3  4  2  0
  4  5  1  0
  5  6  2  0
  6  7  1  0
  7  8  2  0
  8  9  1  0
  9 10  2  0
 10 11  1  0
 11 12  1  0
 12 13  2  0
 13 14  1  0
 13 15  1  0
 15 16  2  0
 16 17  1  0
 17 18  2  0
 18 19  1  0
 19 20  2  0
 20 21  1  0
 21 22  1  0
 21 23  2  0
 15 24  1  0
  8  3  1  0
 24 10  1  0
 23 17  1  0
  1 25  1  0
  1 26  1  0
  1 27  1  0
  4 28  1  0
  5 29  1  0
  6 30  1  0
  7 31  1  0
 11 32  1  0
 12 33  1  0
 18 34  1  0
 19 35  1  0
 20 36  1  0
 23 37  1  0
 24 38  1  0
M  END
>  <smiles>  (1) 
COc1ccccc1N=c1[nH]cc(F)c(=Nc2cccc(Br)c2)[nH]1

>  <score_type>  (1) 
oracle

>  <origin>  (1) 
adg

>  <m_score__min__energy>  (1) 
-8.4600000000000009

>  <m_primary>  (1) 
energy

$$$$
1:0
     RDKit          3D

 26 28  0  0  0  0  0  0  0  0999 V2000
   60.5280   26.7200   47.1880 C   0  0  0  0  0  0  0  0  0  0  0  0
   59.0820   26.6850   46.8120 C   0  0  0  0  0  0  0  0  0  0  0  0
   58.2320   25.7900   47.3970 N   0  0  0  0  0  0  0  0  0  0  0  0
   56.9190   25.7790   47.1230 N   0  0  0  0  0  0  0  0  0  0  0  0
   56.3810   26.6670   46.2400 C   0  0  0  0  0  0  0  0  0  0  0  0
   55.1450   26.6600   45.9970 O   0  0  0  0  0  0  0  0  0  0  0  0
   57.2150   27.5440   45.6330 N   0  0  0  0  0  0  0  0  0  0  0  0
   57.0040   28.5610   44.7920 C   0  0  0  0  0  0  0  0  0  0  0  0
   58.1650   29.2120   44.6180 C   0  0  0  0  0  0  0  0  0  0  0  0
   59.1680   28.6470   45.3330 N   0  0  0  0  0  0  0  0  0  0  0  0
   58.5310   27.5930   45.9070 C   0  0  0  0  0  0  0  0  0  0  0  0
   57.9820   30.6210   44.1990 C   0  0  2  0  0  0  0  0  0  0  0  0
   58.4650   31.5930   45.2800 C   0  0  0  0  0  0  0  0  0  0  0  0
   56.4370   30.7040   43.9950 C   0  0  0  0  0  0  0  0  0  0  0  0
   55.8140   29.4090   44.5820 C   0  0  0  0  0  0  0  0  0  0  0  0
   60.6219   26.7223   48.2840 H   0  0  0  0  0  0  0  0  0  0  0  0
   61.0349   25.8339   46.7784 H   0  0  0  0  0  0  0  0  0  0  0  0
   60.9915   27.6296   46.7784 H   0  0  0  0  0  0  0  0  0  0  0  0
   58.5577   30.8962   43.3030 H   0  0  0  0  0  0  0  0  0  0  0  0
   58.2549   31.1703   46.2736 H   0  0  0  0  0  0  0  0  0  0  0  0
   59.5478   31.7537   45.1713 H   0  0  0  0  0  0  0  0  0  0  0  0
   57.9391   32.5530   45.1713 H   0  0  0  0  0  0  0  0  0  0  0  0
   56.0364   31.5838   44.5198 H   0  0  0  0  0  0  0  0  0  0  0  0
   56.1937   30.7989   42.9264 H   0  0  0  0  0  0  0  0  0  0  0  0
   55.2947   29.6102   45.5306 H   0  0  0  0  0  0  0  0  0  0  0  0
   55.0528   28.9507   43.9335 H   0  0  0  0  0  0  0  0  0  0  0  0
  1  2  1  0
  2  3  2  0
  3  4  1  0
  4  5  1  0
  5  6  2  0
  5  7  1  0
  7  8  1  0
  8  9  2  0
  9 10  1  0
 10 11  2  0
  9 12  1  0
 12 13  1  0
 12 14  1  0
 14 15  1  0
 11  2  1  0
 11  7  1  0
 15  8  1  0
  1 16  1  0
  1 17  1  0
  1 18  1  0
 12 19  1  6
 13 20  1  0
 13 21  1  0
 13 22  1  0
 14 23  1  0
 14 24  1  0
 15 25  1  0
 15 26  1  0
M  CHG  1   4  -1
M  END
>  <UniqueID>  (2) 
1

>  <SMILES>  (2) 
Cc1n[n-]c(=O)n2c3c(nc12)[C@H](C)CC3

>  <Energy>  (2) 
85.82268552451379

>  <Genealogy>  (2) 
Cc1n[n-]c(=O)n2c3c(nc12)C(C)CC3 (protonated)
Cc1n[n-]c(=O)n2c3c(nc12)[C@H](C)CC3 (chirality)
Cc1n[n-]c(=O)n2c3c(nc12)[C@H](C)CC3 (3D coordinates assigned)
Cc1n[n-]c(=O)n2c3c(nc12)[C@H](C)CC3 (nonaromatic ring conformer: 85.82268552451379 kcal/mol)

>  <smiles>  (2) 
Cc1n[nH]c(=O)n2c3c(nc12)C(C)CC3

>  <score_type>  (2) 
oracle

>  <origin>  (2) 
adg

>  <m_score__min__energy>  (2) 
-7.7999999999999998

>  <m_primary>  (2) 
energy

$$$$
2:0
     RDKit          3D

 53 56  0  0  0  0  0  0  0  0999 V2000
   54.5500   29.3900   52.7270 C   0  0  0  0  0  0  0  0  0  0  0  0
   55.9480   29.1690   52.5590 O   0  0  0  0  0  0  0  0  0  0  0  0
   56.8630   30.1560   52.1640 C   0  0  0  0  0  0  0  0  0  0  0  0
   56.4940   31.5040   51.9930 C   0  0  0  0  0  0  0  0  0  0  0  0
   57.4430   32.4500   51.5960 C   0  0  0  0  0  0  0  0  0  0  0  0
   58.7740   32.0670   51.3690 C   0  0  0  0  0  0  0  0  0  0  0  0
   59.7820   33.0870   50.9150 C   0  0  0  0  0  0  0  0  0  0  0  0
   59.5260   33.4640   49.5270 N   0  0  0  0  0  0  0  0  0  0  0  0
   59.2950   32.4900   48.4970 C   0  0  0  0  0  0  0  0  0  0  0  0
   59.4150   31.2610   48.7530 O   0  0  0  0  0  0  0  0  0  0  0  0
   58.9050   32.9150   47.1040 C   0  0  1  0  0  0  0  0  0  0  0  0
   59.5000   34.2960   46.7460 C   0  0  0  0  0  0  0  0  0  0  0  0
   59.6390   34.4970   45.2250 C   0  0  0  0  0  0  0  0  0  0  0  0
   58.6260   33.6420   44.4540 C   0  0  0  0  0  0  0  0  0  0  0  0
   58.8400   32.1960   44.6920 N   0  0  0  0  0  0  0  0  0  0  0  0
   57.4100   31.2890   44.2580 S   0  0  0  0  0  0  0  0  0  0  0  0
   57.2490   31.3010   42.7630 O   0  0  0  0  0  0  0  0  0  0  0  0
   56.1970   31.9410   44.8620 O   0  0  0  0  0  0  0  0  0  0  0  0
   57.5110   29.6180   44.8170 C   0  0  0  0  0  0  0  0  0  0  0  0
   58.7600   28.9460   44.8290 C   0  0  0  0  0  0  0  0  0  0  0  0
   58.8460   27.6010   45.2340 C   0  0  0  0  0  0  0  0  0  0  0  0
   57.6680   26.9660   45.6190 C   0  0  0  0  0  0  0  0  0  0  0  0
   57.5180   25.6970   46.0290 N   0  0  0  0  0  0  0  0  0  0  0  0
   56.1820   25.6340   46.2630 C   0  0  0  0  0  0  0  0  0  0  0  0
   55.6190   24.5840   46.6720 O   0  0  0  0  0  0  0  0  0  0  0  0
   55.4950   26.7790   46.0240 N   0  0  0  0  0  0  0  0  0  0  0  0
   56.4670   27.6080   45.6170 C   0  0  0  0  0  0  0  0  0  0  0  0
   56.3440   28.9390   45.2260 C   0  0  0  0  0  0  0  0  0  0  0  0
   59.3080   31.8550   46.0580 C   0  0  0  0  0  0  0  0  0  0  0  0
   59.1400   30.7230   51.5350 C   0  0  0  0  0  0  0  0  0  0  0  0
   58.1910   29.7780   51.9320 C   0  0  0  0  0  0  0  0  0  0  0  0
   54.3111   29.4278   53.8001 H   0  0  0  0  0  0  0  0  0  0  0  0
   54.2702   30.3435   52.2553 H   0  0  0  0  0  0  0  0  0  0  0  0
   53.9897   28.5693   52.2553 H   0  0  0  0  0  0  0  0  0  0  0  0
   55.4540   31.8139   52.1727 H   0  0  0  0  0  0  0  0  0  0  0  0
   57.1452   33.5003   51.4607 H   0  0  0  0  0  0  0  0  0  0  0  0
   59.7090   33.9796   51.5536 H   0  0  0  0  0  0  0  0  0  0  0  0
   60.7904   32.6540   50.9899 H   0  0  0  0  0  0  0  0  0  0  0  0
   59.4850   34.4810   49.2930 H   0  0  0  0  0  0  0  0  0  0  0  0
   57.8089   33.0065   47.0867 H   0  0  0  0  0  0  0  0  0  0  0  0
   58.8409   35.0798   47.1475 H   0  0  0  0  0  0  0  0  0  0  0  0
   60.5066   34.3527   47.1860 H   0  0  0  0  0  0  0  0  0  0  0  0
   59.4677   35.5571   44.9867 H   0  0  0  0  0  0  0  0  0  0  0  0
   60.6517   34.1890   44.9257 H   0  0  0  0  0  0  0  0  0  0  0  0
   57.6104   33.9110   44.7800 H   0  0  0  0  0  0  0  0  0  0  0  0
   58.7583   33.8371   43.3795 H   0  0  0  0  0  0  0  0  0  0  0  0
   59.6697   29.4810   44.5189 H   0  0  0  0  0  0  0  0  0  0  0  0
   59.8094   27.0702   45.2460 H   0  0  0  0  0  0  0  0  0  0  0  0
   55.3674   29.4451   45.2358 H   0  0  0  0  0  0  0  0  0  0  0  0
   58.8710   30.8884   46.3493 H   0  0  0  0  0  0  0  0  0  0  0  0
   60.4069   31.8119   46.0331 H   0  0  0  0  0  0  0  0  0  0  0  0
   60.1790   30.4119   51.3517 H   0  0  0  0  0  0  0  0  0  0  0  0
   58.4897   28.7275   52.0635 H   0  0  0  0  0  0  0  0  0  0  0  0
  1  2  1  0
  2  3  1  0
  3  4  2  0
  4  5  1  0
  5  6  2  0
  6  7  1  0
  7  8  1  0
  8  9  1  0
  9 10  2  0
  9 11  1  0
 11 12  1  0
 12 13  1  0
 13 14  1  0
 14 15  1  0
 15 16  1  0
 16 17  2  0
 16 18  2  0
 16 19  1  0
 19 20  2  0
 20 21  1  0
 21 22  2  0
 22 23  1  0
 23 24  1  0
 24 25  2  0
 24 26  1  0
 26 27  1  0
 27 28  2  0
 15 29  1  0
  6 30  1  0
 30 31  2  0
 31  3  1  0
 29 11  1  0
 28 19  1  0
 27 22  1  0
  1 32  1  0
  1 33  1  0
  1 34  1  0
  4 35  1  0
  5 36  1  0
  7 37  1  0
  7 38  1  0
  8 39  1  0
 11 40  1  1
 12 41  1  0
 12 42  1  0
 13 43  1  0
 13 44  1  0
 14 45  1  0
 14 46  1  0
 20 47  1  0
 21 48  1  0
 28 49  1  0
 29 50  1  0
 29 51  1  0
 30 52  1  0
 31 53  1  0
M  CHG  2  23  -1  26  -1
M  END
>  <UniqueID>  (3) 
2

>  <SMILES>  (3) 
COc1ccc(CNC(=O)[C@H]2CCCN(S(=O)(=O)c3ccc4[n-]c(=O)[n-]c4c3)C2)cc1

>  <Energy>  (3) 
92.0938257220521

>  <Genealogy>  (3) 
COc1ccc(CNC(=O)C2CCCN(S(=O)(=O)c3ccc4[n-]c(=O)[n-]c4c3)C2)cc1 (protonated)
COc1ccc(CNC(=O)[C@H]2CCCN(S(=O)(=O)c3ccc4[n-]c(=O)[n-]c4c3)C2)cc1 (chirality)
COc1ccc(CNC(=O)[C@H]2CCCN(S(=O)(=O)c3ccc4[n-]c(=O)[n-]c4c3)C2)cc1 (3D coordinates assigned)
COc1ccc(CNC(=O)[C@H]2CCCN(S(=O)(=O)c3ccc4[n-]c(=O)[n-]c4c3)C2)cc1 (nonaromatic ring conformer: 92.0938257220521 kcal/mol)

>  <smiles>  (3) 
COc1ccc(CNC(=O)C2CCCN(S(=O)(=O)c3ccc4[nH]c(=O)[nH]c4c3)C2)cc1

>  <score_type>  (3) 
oracle

>  <origin>  (3) 
adg

>  <m_score__min__energy>  (3) 
-12.83

>  <m_primary>  (3) 
energy

$$$$
3:0
     RDKit          3D

 35 37  0  0  0  0  0  0  0  0999 V2000
   60.0910   34.5840   48.6860 C   0  0  0  0  0  0  0  0  0  0  0  0
   59.4300   33.9800   47.5000 C   0  0  0  0  0  0  0  0  0  0  0  0
   59.7600   34.3550   46.2260 C   0  0  0  0  0  0  0  0  0  0  0  0
   59.1130   33.7600   45.1400 C   0  0  0  0  0  0  0  0  0  0  0  0
   58.1450   32.8000   45.3260 C   0  0  0  0  0  0  0  0  0  0  0  0
   57.4120   32.1150   44.2550 C   0  0  0  0  0  0  0  0  0  0  0  0
   57.1420   30.6890   44.5440 C   0  0  0  0  0  0  0  0  0  0  0  0
   55.8920   30.1430   44.5510 N   0  0  0  0  0  0  0  0  0  0  0  0
   55.9510   28.8560   44.8340 N   0  0  0  0  0  0  0  0  0  0  0  0
   57.2470   28.5480   45.0160 C   0  0  0  0  0  0  0  0  0  0  0  0
   57.8280   27.0880   45.3840 S   0  0  0  0  0  0  0  0  0  0  0  0
   57.9770   29.6810   44.8360 N   0  0  0  0  0  0  0  0  0  0  0  0
   59.3970   29.7390   44.9460 C   0  0  0  0  0  0  0  0  0  0  0  0
   59.9150   29.9280   46.3160 C   0  0  0  0  0  0  0  0  0  0  0  0
   61.0050   30.6430   46.7710 C   0  0  0  0  0  0  0  0  0  0  0  0
   61.0730   30.5120   48.1470 C   0  0  0  0  0  0  0  0  0  0  0  0
   59.9880   29.7000   48.4770 C   0  0  0  0  0  0  0  0  0  0  0  0
   59.3460   29.3880   47.3750 O   0  0  0  0  0  0  0  0  0  0  0  0
   57.8370   32.4460   46.6370 C   0  0  0  0  0  0  0  0  0  0  0  0
   58.4670   33.0240   47.7230 C   0  0  0  0  0  0  0  0  0  0  0  0
   59.6431   34.1747   49.6035 H   0  0  0  0  0  0  0  0  0  0  0  0
   61.1655   34.3492   48.6662 H   0  0  0  0  0  0  0  0  0  0  0  0
   59.9538   35.6752   48.6662 H   0  0  0  0  0  0  0  0  0  0  0  0
   60.5310   35.1213   46.0577 H   0  0  0  0  0  0  0  0  0  0  0  0
   59.3823   34.0645   44.1179 H   0  0  0  0  0  0  0  0  0  0  0  0
   56.4505   32.6286   44.1073 H   0  0  0  0  0  0  0  0  0  0  0  0
   58.0451   32.1491   43.3561 H   0  0  0  0  0  0  0  0  0  0  0  0
   55.1440   28.1920   44.9060 H   0  0  0  0  0  0  0  0  0  0  0  0
   59.8073   28.7966   44.5542 H   0  0  0  0  0  0  0  0  0  0  0  0
   59.7110   30.6260   44.3762 H   0  0  0  0  0  0  0  0  0  0  0  0
   61.7020   31.2197   46.1452 H   0  0  0  0  0  0  0  0  0  0  0  0
   61.8168   30.9505   48.8285 H   0  0  0  0  0  0  0  0  0  0  0  0
   59.7154   29.3750   49.4919 H   0  0  0  0  0  0  0  0  0  0  0  0
   57.0667   31.6810   46.8142 H   0  0  0  0  0  0  0  0  0  0  0  0
   58.2027   32.7245   48.7479 H   0  0  0  0  0  0  0  0  0  0  0  0
  1  2  1  0
  2  3  2  0
  3  4  1  0
  4  5  2  0
  5  6  1  0
  6  7  1  0
  7  8  2  0
  8  9  1  0
  9 10  1  0
 10 11  2  0
 10 12  1  0
 12 13  1  0
 13 14  1  0
 14 15  2  0
 15 16  1  0
 16 17  2  0
 17 18  1  0
  5 19  1  0
 19 20  2  0
 20  2  1  0
 12  7  1  0
 18 14  1  0
  1 21  1  0
  1 22  1  0
  1 23  1  0
  3 24  1  0
  4 25  1  0
  6 26  1  0
  6 27  1  0
  9 28  1  0
 13 29  1  0
 13 30  1  0
 15 31  1  0
 16 32  1  0
 17 33  1  0
 19 34  1  0
 20 35  1  0
M  END
>  <smiles>  (4) 
Cc1ccc(Cc2n[nH]c(=S)n2Cc2ccco2)cc1

>  <score_type>  (4) 
oracle

>  <origin>  (4) 
adg

>  <m_score__min__energy>  (4) 
-7.5800000000000001

>  <m_primary>  (4) 
energy

$$$$
4:0
     RDKit          3D

 56 58  0  0  0  0  0  0  0  0999 V2000
   57.7710   32.5020   43.4100 C   0  0  0  0  0  0  0  0  0  0  0  0
   58.1530   32.8630   44.8630 C   0  0  0  0  0  0  0  0  0  0  0  0
   59.2570   33.9460   44.8030 C   0  0  0  0  0  0  0  0  0  0  0  0
   56.9290   33.4850   45.5740 C   0  0  0  0  0  0  0  0  0  0  0  0
   58.5920   31.5840   45.6120 C   0  0  0  0  0  0  0  0  0  0  0  0
   59.3010   31.7030   46.8220 C   0  0  0  0  0  0  0  0  0  0  0  0
   59.7300   30.5770   47.5360 C   0  0  0  0  0  0  0  0  0  0  0  0
   60.5190   30.7410   48.7820 C   0  0  0  0  0  0  0  0  0  0  0  0
   61.6850   30.2670   48.8640 O   0  0  0  0  0  0  0  0  0  0  0  0
   59.9490   31.4540   49.8850 N   0  0  0  0  0  0  0  0  0  0  0  0
   60.6220   32.3420   50.7870 C   0  0  0  0  0  0  0  0  0  0  0  0
   60.4890   32.3660   52.4690 S   0  0  0  0  0  0  0  0  0  0  0  0
   61.7360   33.4820   52.6600 C   0  0  0  0  0  0  0  0  0  0  0  0
   62.2580   33.8160   51.4570 N   0  0  0  0  0  0  0  0  0  0  0  0
   63.3150   34.6850   51.3240 O   0  0  0  0  0  0  0  0  0  0  0  0
   61.6510   33.1950   50.4090 C   0  0  0  0  0  0  0  0  0  0  0  0
   62.0970   33.3470   49.0080 C   0  0  0  0  0  0  0  0  0  0  0  0
   61.2600   33.9690   48.0570 C   0  0  0  0  0  0  0  0  0  0  0  0
   59.6700   34.5900   48.4900 Cl  0  0  0  0  0  0  0  0  0  0  0  0
   61.7070   34.1480   46.7430 C   0  0  0  0  0  0  0  0  0  0  0  0
   62.9820   33.7190   46.3680 C   0  0  0  0  0  0  0  0  0  0  0  0
   63.8170   33.1070   47.3020 C   0  0  0  0  0  0  0  0  0  0  0  0
   63.3840   32.9170   48.6200 C   0  0  0  0  0  0  0  0  0  0  0  0
   64.4740   32.1180   49.7510 Cl  0  0  0  0  0  0  0  0  0  0  0  0
   59.4250   29.2990   47.0470 C   0  0  0  0  0  0  0  0  0  0  0  0
   58.7070   29.1270   45.8420 C   0  0  0  0  0  0  0  0  0  0  0  0
   58.3710   27.7340   45.2630 C   0  0  0  0  0  0  0  0  0  0  0  0
   59.3400   26.6260   45.7380 C   0  0  0  0  0  0  0  0  0  0  0  0
   58.4450   27.7920   43.7220 C   0  0  0  0  0  0  0  0  0  0  0  0
   56.9470   27.3200   45.6950 C   0  0  0  0  0  0  0  0  0  0  0  0
   58.3100   30.2840   45.1370 C   0  0  0  0  0  0  0  0  0  0  0  0
   56.9715   31.7465   43.4180 H   0  0  0  0  0  0  0  0  0  0  0  0
   57.4179   33.4040   42.8888 H   0  0  0  0  0  0  0  0  0  0  0  0
   58.6516   32.0985   42.8888 H   0  0  0  0  0  0  0  0  0  0  0  0
   59.5473   34.2307   45.8251 H   0  0  0  0  0  0  0  0  0  0  0  0
   60.1332   33.5473   44.2706 H   0  0  0  0  0  0  0  0  0  0  0  0
   58.8752   34.8297   44.2706 H   0  0  0  0  0  0  0  0  0  0  0  0
   57.0639   33.4165   46.6635 H   0  0  0  0  0  0  0  0  0  0  0  0
   56.8330   34.5412   45.2821 H   0  0  0  0  0  0  0  0  0  0  0  0
   56.0193   32.9398   45.2821 H   0  0  0  0  0  0  0  0  0  0  0  0
   59.5237   32.7053   47.2167 H   0  0  0  0  0  0  0  0  0  0  0  0
   62.0777   33.8826   53.6258 H   0  0  0  0  0  0  0  0  0  0  0  0
   61.0512   34.6287   46.0022 H   0  0  0  0  0  0  0  0  0  0  0  0
   63.3281   33.8642   45.3340 H   0  0  0  0  0  0  0  0  0  0  0  0
   64.8208   32.7718   47.0020 H   0  0  0  0  0  0  0  0  0  0  0  0
   59.7508   28.4132   47.6120 H   0  0  0  0  0  0  0  0  0  0  0  0
   59.3600   26.6031   46.8376 H   0  0  0  0  0  0  0  0  0  0  0  0
   58.9985   25.6522   45.3571 H   0  0  0  0  0  0  0  0  0  0  0  0
   60.3506   26.8347   45.3571 H   0  0  0  0  0  0  0  0  0  0  0  0
   59.2773   28.4443   43.4192 H   0  0  0  0  0  0  0  0  0  0  0  0
   58.6093   26.7796   43.3244 H   0  0  0  0  0  0  0  0  0  0  0  0
   57.5012   28.1934   43.3244 H   0  0  0  0  0  0  0  0  0  0  0  0
   56.8875   27.3027   46.7933 H   0  0  0  0  0  0  0  0  0  0  0  0
   56.2190   28.0437   45.2997 H   0  0  0  0  0  0  0  0  0  0  0  0
   56.7204   26.3188   45.2997 H   0  0  0  0  0  0  0  0  0  0  0  0
   57.7644   30.1696   44.1888 H   0  0  0  0  0  0  0  0  0  0  0  0
  1  2  1  0
  2  3  1  0
  2  4  1  0
  2  5  1  0
  5  6  2  0
  6  7  1  0
  7  8  1  0
  8  9  2  0
  8 10  1  0
 10 11  1  0
 11 12  1  0
 12 13  1  0
 13 14  2  0
 14 15  1  0
 14 16  1  0
 16 17  1  0
 17 18  2  0
 18 19  1  0
 18 20  1  0
 20 21  2  0
 21 22  1  0
 22 23  2  0
 23 24  1  0
  7 25  2  0
 25 26  1  0
 26 27  1  0
 27 28  1  0
 27 29  1  0
 27 30  1  0
 26 31  2  0
 31  5  1  0
 16 11  2  0
 23 17  1  0
  1 32  1  0
  1 33  1  0
  1 34  1  0
  3 35  1  0
  3 36  1  0
  3 37  1  0
  4 38  1  0
  4 39  1  0
  4 40  1  0
  6 41  1  0
 13 42  1  0
 20 43  1  0
 21 44  1  0
 22 45  1  0
 25 46  1  0
 28 47  1  0
 28 48  1  0
 28 49  1  0
 29 50  1  0
 29 51  1  0
 29 52  1  0
 30 53  1  0
 30 54  1  0
 30 55  1  0
 31 56  1  0
M  CHG  3  10  -1  14   1  15  -1
M  END
>  <UniqueID>  (5) 
3

>  <SMILES>  (5) 
CC(C)(C)c1cc(C(=O)[N-]c2sc[n+]([O-])c2-c2c(Cl)cccc2Cl)cc(C(C)(C)C)c1

>  <Energy>  (5) 
100.74400428399922

>  <Genealogy>  (5) 
CC(C)(C)c1cc(C(=O)[N-]c2sc[n+]([O-])c2-c2c(Cl)cccc2Cl)cc(C(C)(C)C)c1 (protonated)
CC(C)(C)c1cc(C(=O)[N-]c2sc[n+]([O-])c2-c2c(Cl)cccc2Cl)cc(C(C)(C)C)c1 (3D coordinates assigned)
CC(C)(C)c1cc(C(=O)[N-]c2sc[n+]([O-])c2-c2c(Cl)cccc2Cl)cc(C(C)(C)C)c1 (optimized conformer: 100.74400428399922 kcal/mol)

>  <smiles>  (5) 
CC(C)(C)c1cc(C(=O)Nc2sc[n+]([O-])c2-c2c(Cl)cccc2Cl)cc(C(C)(C)C)c1

>  <score_type>  (5) 
oracle

>  <origin>  (5) 
adg

>  <m_score__min__energy>  (5) 
-9.4700000000000006

>  <m_primary>  (5) 
energy

$$$$
5:0
     RDKit          3D

 69 72  0  0  0  0  0  0  0  0999 V2000
   54.2149   29.8817   43.7635 H   0  0  0  0  0  0  0  0  0  0  0  0
   55.2260   29.7620   44.1800 C   0  0  0  0  0  0  0  0  0  0  0  0
   55.5410   28.6420   44.8770 N   0  0  0  0  0  0  0  0  0  0  0  0
   56.7790   28.4550   45.3990 C   0  0  0  0  0  0  0  0  0  0  0  0
   57.0010   27.5359   45.9611 H   0  0  0  0  0  0  0  0  0  0  0  0
   57.7770   29.4230   45.2280 C   0  0  0  0  0  0  0  0  0  0  0  0
   59.3610   29.1340   45.9720 S   0  0  0  0  0  0  0  0  0  0  0  0
   59.5830   27.6520   46.0730 O   0  0  0  0  0  0  0  0  0  0  0  0
   60.4620   29.7100   45.1260 O   0  0  0  0  0  0  0  0  0  0  0  0
   59.3870   29.8170   47.5750 N   0  0  0  0  0  0  0  0  0  0  0  0
   59.0280   30.7910   47.4640 H   0  0  0  0  0  0  0  0  0  0  0  0
   60.7550   29.8490   48.1280 C   0  0  0  0  0  0  0  0  0  0  0  0
   61.3239   28.9842   47.7559 H   0  0  0  0  0  0  0  0  0  0  0  0
   60.7050   29.7410   49.6770 C   0  0  0  0  0  0  0  0  0  0  0  0
   61.5204   29.0814   50.0086 H   0  0  0  0  0  0  0  0  0  0  0  0
   59.7165   29.3407   49.9465 H   0  0  0  0  0  0  0  0  0  0  0  0
   60.8570   31.0960   50.3790 C   0  0  0  0  0  0  0  0  0  0  0  0
   60.8873   30.9376   51.4671 H   0  0  0  0  0  0  0  0  0  0  0  0
   60.0008   31.7320   50.1098 H   0  0  0  0  0  0  0  0  0  0  0  0
   62.0950   31.7650   49.9540 N   0  0  0  0  0  0  0  0  0  0  0  0
   62.6440   32.8040   50.7880 C   0  0  0  0  0  0  0  0  0  0  0  0
   61.8560   33.5300   51.4540 O   0  0  0  0  0  0  0  0  0  0  0  0
   64.1090   33.0430   50.8750 C   0  0  0  0  0  0  0  0  0  0  0  0
   64.5470   34.2240   50.8470 O   0  0  0  0  0  0  0  0  0  0  0  0
   65.0820   31.9320   51.0010 C   0  0  0  0  0  0  0  0  0  0  0  0
   64.6540   30.6810   51.4730 C   0  0  0  0  0  0  0  0  0  0  0  0
   63.5959   30.5299   51.7328 H   0  0  0  0  0  0  0  0  0  0  0  0
   65.5590   29.6260   51.6160 C   0  0  0  0  0  0  0  0  0  0  0  0
   65.2033   28.6503   51.9788 H   0  0  0  0  0  0  0  0  0  0  0  0
   66.9220   29.7970   51.3010 C   0  0  0  0  0  0  0  0  0  0  0  0
   67.8620   28.7010   51.4470 N   0  0  0  0  0  0  0  0  0  0  0  0
   67.9260   27.6350   50.4380 C   0  0  0  0  0  0  0  0  0  0  0  0
   67.9847   26.6580   50.9400 H   0  0  0  0  0  0  0  0  0  0  0  0
   67.0241   27.6706   49.8093 H   0  0  0  0  0  0  0  0  0  0  0  0
   68.8172   27.7783   49.8093 H   0  0  0  0  0  0  0  0  0  0  0  0
   68.7660   28.6410   52.6000 C   0  0  0  0  0  0  0  0  0  0  0  0
   68.1784   28.6800   53.5291 H   0  0  0  0  0  0  0  0  0  0  0  0
   69.3394   27.7028   52.5679 H   0  0  0  0  0  0  0  0  0  0  0  0
   69.4584   29.4952   52.5679 H   0  0  0  0  0  0  0  0  0  0  0  0
   67.3490   31.0610   50.8460 C   0  0  0  0  0  0  0  0  0  0  0  0
   68.4090   31.2201   50.5990 H   0  0  0  0  0  0  0  0  0  0  0  0
   66.4420   32.1140   50.7050 C   0  0  0  0  0  0  0  0  0  0  0  0
   66.7971   33.0957   50.3585 H   0  0  0  0  0  0  0  0  0  0  0  0
   62.6270   31.5230   48.6040 C   0  0  0  0  0  0  0  0  0  0  0  0
   63.3685   30.7116   48.6461 H   0  0  0  0  0  0  0  0  0  0  0  0
   63.0987   32.4454   48.2344 H   0  0  0  0  0  0  0  0  0  0  0  0
   61.4960   31.1250   47.6510 C   0  0  0  0  0  0  0  0  0  0  0  0
   61.9215   30.9367   46.6543 H   0  0  0  0  0  0  0  0  0  0  0  0
   60.7687   31.9498   47.6244 H   0  0  0  0  0  0  0  0  0  0  0  0
   57.4760   30.6080   44.5160 C   0  0  0  0  0  0  0  0  0  0  0  0
   58.4020   31.5170   44.3820 N   0  0  0  0  0  0  0  0  0  0  0  0
   58.5540   33.0710   45.1520 S   0  0  0  0  0  0  0  0  0  0  0  0
   59.4870   33.9030   44.3190 O   0  0  0  0  0  0  0  0  0  0  0  0
   57.2310   33.7820   45.2160 O   0  0  0  0  0  0  0  0  0  0  0  0
   59.2530   32.8720   46.7400 N   0  0  0  0  0  0  0  0  0  0  0  0
   58.2380   32.8220   47.7870 C   0  0  0  0  0  0  0  0  0  0  0  0
   57.4261   33.5312   47.5683 H   0  0  0  0  0  0  0  0  0  0  0  0
   57.7824   31.8237   47.8637 H   0  0  0  0  0  0  0  0  0  0  0  0
   58.9500   33.2120   49.0670 C   0  0  0  0  0  0  0  0  0  0  0  0
   58.2675   33.7472   49.7436 H   0  0  0  0  0  0  0  0  0  0  0  0
   59.3164   32.3371   49.6240 H   0  0  0  0  0  0  0  0  0  0  0  0
   60.0810   34.1230   48.6140 C   0  0  0  0  0  0  0  0  0  0  0  0
   59.8805   35.1627   48.9121 H   0  0  0  0  0  0  0  0  0  0  0  0
   61.0415   33.8396   49.0691 H   0  0  0  0  0  0  0  0  0  0  0  0
   60.1160   34.0010   47.0930 C   0  0  0  0  0  0  0  0  0  0  0  0
   59.7393   34.9250   46.6301 H   0  0  0  0  0  0  0  0  0  0  0  0
   61.1430   33.8408   46.7331 H   0  0  0  0  0  0  0  0  0  0  0  0
   56.1790   30.7630   43.9890 C   0  0  0  0  0  0  0  0  0  0  0  0
   55.9178   31.6721   43.4275 H   0  0  0  0  0  0  0  0  0  0  0  0
  1  2  1  0
  2  3  1  0
  3  4  1  0
  4  5  1  0
  4  6  2  0
  6  7  1  0
  7  8  2  0
  7  9  2  0
  7 10  1  0
 10 11  1  0
 10 12  1  0
 12 13  1  0
 12 14  1  0
 14 15  1  0
 14 16  1  0
 14 17  1  0
 17 18  1  0
 17 19  1  0
 17 20  1  0
 20 21  1  0
 21 22  2  0
 21 23  1  0
 23 24  2  0
 23 25  1  0
 25 26  2  0
 26 27  1  0
 26 28  1  0
 28 29  1  0
 28 30  2  0
 30 31  1  0
 31 32  1  0
 32 33  1  0
 32 34  1  0
 32 35  1  0
 31 36  1  0
 36 37  1  0
 36 38  1  0
 36 39  1  0
 30 40  1  0
 40 41  1  0
 40 42  2  0
 42 43  1  0
 20 44  1  0
 44 45  1  0
 44 46  1  0
 44 47  1  0
 47 48  1  0
 47 49  1  0
  6 50  1  0
 50 51  2  0
 51 52  1  0
 52 53  2  0
 52 54  2  0
 52 55  1  0
 55 56  1  0
 56 57  1  0
 56 58  1  0
 56 59  1  0
 59 60  1  0
 59 61  1  0
 59 62  1  0
 62 63  1  0
 62 64  1  0
 62 65  1  0
 65 66  1  0
 65 67  1  0
 50 68  1  0
 68 69  1  0
 68  2  2  0
 47 12  1  0
 65 55  1  0
 42 25  1  0
M  CHG  1   3  -1
M  END
>  <UniqueID>  (6) 
4

>  <SMILES>  (6) 
CN(C)c1ccc(C(=O)C(=O)N2CCC(NS(=O)(=O)c3c[n-]cc/c3=N\S(=O)(=O)N3CCCC3)CC2)cc1

>  <Energy>  (6) 
90.36318133104419

>  <Genealogy>  (6) 
CN(C)c1ccc(C(=O)C(=O)N2CCC(NS(=O)(=O)c3c[n-]ccc3=NS(=O)(=O)N3CCCC3)CC2)cc1 (protonated)
CN(C)c1ccc(C(=O)C(=O)N2CCC(NS(=O)(=O)c3c[n-]cc/c3=N\S(=O)(=O)N3CCCC3)CC2)cc1 (cis-trans isomerization)
CN(C)c1ccc(C(=O)C(=O)N2CCC(NS(=O)(=O)c3c[n-]cc/c3=N\S(=O)(=O)N3CCCC3)CC2)cc1 (3D coordinates assigned)
CN(C)c1ccc(C(=O)C(=O)N2CCC(NS(=O)(=O)c3c[n-]cc/c3=N\S(=O)(=O)N3CCCC3)CC2)cc1 (nonaromatic ring conformer: 90.36318133104419 kcal/mol)

>  <smiles>  (6) 
CN(C)c1ccc(C(=O)C(=O)N2CCC(NS(=O)(=O)c3c[nH]ccc3=NS(=O)(=O)N3CCCC3)CC2)cc1

>  <score_type>  (6) 
oracle

>  <origin>  (6) 
adg

>  <m_score__min__energy>  (6) 
-12.359999999999999

>  <m_primary>  (6) 
energy

$$$$
6:0
     RDKit          3D

 22 22  0  0  0  0  0  0  0  0999 V2000
   58.3890   27.1430   44.2450 C   0  0  0  0  0  0  0  0  0  0  0  0
   57.7980   27.4780   43.1000 C   0  0  0  0  0  0  0  0  0  0  0  0
   57.0210   28.7240   43.0050 C   0  0  0  0  0  0  0  0  0  0  0  0
   57.7190   29.8640   43.5760 N   0  0  0  0  0  0  0  0  0  0  0  0
   57.0850   30.7310   44.4980 C   0  0  0  0  0  0  0  0  0  0  0  0
   55.8920   30.4990   44.8220 O   0  0  0  0  0  0  0  0  0  0  0  0
   57.7370   31.8880   45.1000 C   0  0  0  0  0  0  0  0  0  0  0  0
   57.8050   33.0410   44.3440 C   0  0  0  0  0  0  0  0  0  0  0  0
   58.4030   34.1590   44.8520 N   0  0  0  0  0  0  0  0  0  0  0  0
   58.9290   34.1180   46.1100 C   0  0  0  0  0  0  0  0  0  0  0  0
   59.6500   35.4470   46.7370 S   0  0  0  0  0  0  0  0  0  0  0  0
   58.8540   32.9860   46.8340 N   0  0  0  0  0  0  0  0  0  0  0  0
   58.2720   31.8570   46.3720 C   0  0  0  0  0  0  0  0  0  0  0  0
   58.9691   26.2108   44.3124 H   0  0  0  0  0  0  0  0  0  0  0  0
   58.2972   27.7984   45.1236 H   0  0  0  0  0  0  0  0  0  0  0  0
   57.8908   26.8214   42.2224 H   0  0  0  0  0  0  0  0  0  0  0  0
   56.8166   28.9315   41.9443 H   0  0  0  0  0  0  0  0  0  0  0  0
   56.0925   28.5816   43.5773 H   0  0  0  0  0  0  0  0  0  0  0  0
   58.7060   30.0420   43.2970 H   0  0  0  0  0  0  0  0  0  0  0  0
   57.3769   33.0594   43.3309 H   0  0  0  0  0  0  0  0  0  0  0  0
   59.2530   32.9320   47.8090 H   0  0  0  0  0  0  0  0  0  0  0  0
   58.2264   30.9464   46.9874 H   0  0  0  0  0  0  0  0  0  0  0  0
  1  2  2  0
  2  3  1  0
  3  4  1  0
  4  5  1  0
  5  6  2  0
  5  7  1  0
  7  8  1  0
  8  9  2  0
  9 10  1  0
 10 11  2  0
 10 12  1  0
 12 13  1  0
 13  7  2  0
  1 14  1  0
  1 15  1  0
  2 16  1  0
  3 17  1  0
  3 18  1  0
  4 19  1  0
  8 20  1  0
 12 21  1  0
 13 22  1  0
M  END
>  <smiles>  (7) 
C=CCNC(=O)c1cnc(=S)[nH]c1

>  <score_type>  (7) 
oracle

>  <origin>  (7) 
adg

>  <m_score__min__energy>  (7) 
-5.0499999999999998

>  <m_primary>  (7) 
energy

$$$$
7:0
     RDKit          3D

 55 57  0  0  0  0  0  0  0  0999 V2000
   66.2570   33.8530   51.0930 C   0  0  0  0  0  0  0  0  0  0  0  0
   66.0190   33.1660   49.8590 O   0  0  0  0  0  0  0  0  0  0  0  0
   64.7500   32.8000   49.3810 C   0  0  0  0  0  0  0  0  0  0  0  0
   64.1920   33.3870   48.2300 C   0  0  0  0  0  0  0  0  0  0  0  0
   62.9290   32.9970   47.7770 C   0  0  0  0  0  0  0  0  0  0  0  0
   62.1920   32.0190   48.4740 C   0  0  0  0  0  0  0  0  0  0  0  0
   60.8540   31.6030   47.9800 C   0  0  0  0  0  0  0  0  0  0  0  0
   60.2210   32.3500   47.1810 O   0  0  0  0  0  0  0  0  0  0  0  0
   60.2610   30.3670   48.4140 N   0  0  0  0  0  0  0  0  0  0  0  0
   59.3790   29.5770   47.5980 C   0  0  0  0  0  0  0  0  0  0  0  0
   59.3660   28.1790   47.6810 C   0  0  0  0  0  0  0  0  0  0  0  0
   58.4650   27.4340   46.9170 C   0  0  0  0  0  0  0  0  0  0  0  0
   57.5600   28.0770   46.0590 C   0  0  0  0  0  0  0  0  0  0  0  0
   56.6290   27.3330   45.2590 N   0  0  0  0  0  0  0  0  0  0  0  0
   55.8860   25.8430   45.7460 S   0  0  0  0  0  0  0  0  0  0  0  0
   56.4590   24.5190   44.7030 C   0  0  0  0  0  0  0  0  0  0  0  0
   56.2900   25.5390   47.1590 O   0  0  0  0  0  0  0  0  0  0  0  0
   54.3910   25.9570   45.6740 O   0  0  0  0  0  0  0  0  0  0  0  0
   57.5470   29.4760   45.9870 C   0  0  0  0  0  0  0  0  0  0  0  0
   56.5880   30.0920   45.1650 O   0  0  0  0  0  0  0  0  0  0  0  0
   56.8840   30.9900   44.0950 C   0  0  0  0  0  0  0  0  0  0  0  0
   57.4830   32.2680   44.6260 C   0  0  0  0  0  0  0  0  0  0  0  0
   57.0410   32.7950   45.8510 C   0  0  0  0  0  0  0  0  0  0  0  0
   57.6320   33.9500   46.3730 C   0  0  0  0  0  0  0  0  0  0  0  0
   58.6550   34.5940   45.6710 C   0  0  0  0  0  0  0  0  0  0  0  0
   59.0880   34.0860   44.4430 C   0  0  0  0  0  0  0  0  0  0  0  0
   58.5040   32.9290   43.9190 C   0  0  0  0  0  0  0  0  0  0  0  0
   58.4620   30.2190   46.7570 C   0  0  0  0  0  0  0  0  0  0  0  0
   62.7580   31.4230   49.6170 C   0  0  0  0  0  0  0  0  0  0  0  0
   64.0300   31.8160   50.0790 C   0  0  0  0  0  0  0  0  0  0  0  0
   64.6120   31.2520   51.2250 O   0  0  0  0  0  0  0  0  0  0  0  0
   65.8250   30.5040   51.2270 C   0  0  0  0  0  0  0  0  0  0  0  0
   66.0254   33.1846   51.9354 H   0  0  0  0  0  0  0  0  0  0  0  0
   67.3128   34.1570   51.1457 H   0  0  0  0  0  0  0  0  0  0  0  0
   65.6155   34.7450   51.1457 H   0  0  0  0  0  0  0  0  0  0  0  0
   64.7541   34.1583   47.6831 H   0  0  0  0  0  0  0  0  0  0  0  0
   62.5075   33.4563   46.8707 H   0  0  0  0  0  0  0  0  0  0  0  0
   60.4500   30.0410   49.3910 H   0  0  0  0  0  0  0  0  0  0  0  0
   60.0697   27.6646   48.3520 H   0  0  0  0  0  0  0  0  0  0  0  0
   58.4649   26.3363   46.9884 H   0  0  0  0  0  0  0  0  0  0  0  0
   56.8183   23.6887   45.3286 H   0  0  0  0  0  0  0  0  0  0  0  0
   55.6321   24.1684   44.0679 H   0  0  0  0  0  0  0  0  0  0  0  0
   57.2806   24.8818   44.0679 H   0  0  0  0  0  0  0  0  0  0  0  0
   57.5998   30.5125   43.4097 H   0  0  0  0  0  0  0  0  0  0  0  0
   55.9509   31.2292   43.5639 H   0  0  0  0  0  0  0  0  0  0  0  0
   56.2282   32.2980   46.4008 H   0  0  0  0  0  0  0  0  0  0  0  0
   57.2911   34.3526   47.3382 H   0  0  0  0  0  0  0  0  0  0  0  0
   59.1195   35.5010   46.0852 H   0  0  0  0  0  0  0  0  0  0  0  0
   59.8889   34.5970   43.8885 H   0  0  0  0  0  0  0  0  0  0  0  0
   58.8440   32.5340   42.9503 H   0  0  0  0  0  0  0  0  0  0  0  0
   58.4564   31.3174   46.6971 H   0  0  0  0  0  0  0  0  0  0  0  0
   62.2012   30.6419   50.1554 H   0  0  0  0  0  0  0  0  0  0  0  0
   66.1359   30.3123   52.2646 H   0  0  0  0  0  0  0  0  0  0  0  0
   65.6663   29.5467   50.7090 H   0  0  0  0  0  0  0  0  0  0  0  0
   66.6091   31.0756   50.7090 H   0  0  0  0  0  0  0  0  0  0  0  0
  1  2  1  0
  2  3  1  0
  3  4  2  0
  4  5  1  0
  5  6  2  0
  6  7  1  0
  7  8  2  0
  7  9  1  0
  9 10  1  0
 10 11  2  0
 11 12  1  0
 12 13  2  0
 13 14  1  0
 14 15  1  0
 15 16  1  0
 15 17  2  0
 15 18  2  0
 13 19  1  0
 19 20  1  0
 20 21  1  0
 21 22  1  0
 22 23  2  0
 23 24  1  0
 24 25  2  0
 25 26  1  0
 26 27  2  0
 19 28  2  0
  6 29  1  0
 29 30  2  0
 30 31  1  0
 31 32  1  0
 30  3  1  0
 28 10  1  0
 27 22  1  0
  1 33  1  0
  1 34  1  0
  1 35  1  0
  4 36  1  0
  5 37  1  0
  9 38  1  0
 11 39  1  0
 12 40  1  0
 16 41  1  0
 16 42  1  0
 16 43  1  0
 21 44  1  0
 21 45  1  0
 23 46  1  0
 24 47  1  0
 25 48  1  0
 26 49  1  0
 27 50  1  0
 28 51  1  0
 29 52  1  0
 32 53  1  0
 32 54  1  0
 32 55  1  0
M  CHG  1  14  -1
M  END
>  <UniqueID>  (8) 
5

>  <SMILES>  (8) 
COc1ccc(C(=O)Nc2ccc([N-]S(C)(=O)=O)c(OCc3ccccc3)c2)cc1OC

>  <Energy>  (8) 
62.21677777929976

>  <Genealogy>  (8) 
COc1ccc(C(=O)Nc2ccc([N-]S(C)(=O)=O)c(OCc3ccccc3)c2)cc1OC (protonated)
COc1ccc(C(=O)Nc2ccc([N-]S(C)(=O)=O)c(OCc3ccccc3)c2)cc1OC (3D coordinates assigned)
COc1ccc(C(=O)Nc2ccc([N-]S(C)(=O)=O)c(OCc3ccccc3)c2)cc1OC (optimized conformer: 62.21677777929976 kcal/mol)

>  <smiles>  (8) 
COc1ccc(C(=O)Nc2ccc(NS(C)(=O)=O)c(OCc3ccccc3)c2)cc1OC

>  <score_type>  (8) 
oracle

>  <origin>  (8) 
adg

>  <m_score__min__energy>  (8) 
-10.67

>  <m_primary>  (8) 
energy

$$$$
8:0
     RDKit          3D

 41 44  0  0  0  0  0  0  0  0999 V2000
   56.1370   29.9080   43.4280 C   0  0  0  0  0  0  0  0  0  0  0  0
   56.3910   29.8300   44.8260 O   0  0  0  0  0  0  0  0  0  0  0  0
   57.6820   29.8300   45.3610 C   0  0  0  0  0  0  0  0  0  0  0  0
   58.1740   30.9890   45.9660 C   0  0  0  0  0  0  0  0  0  0  0  0
   59.4710   30.9740   46.5010 C   0  0  0  0  0  0  0  0  0  0  0  0
   60.0410   32.1420   47.1210 N   0  0  0  0  0  0  0  0  0  0  0  0
   59.9900   32.3060   48.5870 C   0  0  0  0  0  0  0  0  0  0  0  0
   60.7690   33.5870   48.9580 C   0  0  2  0  0  0  0  0  0  0  0  0
   60.0700   34.7770   48.2610 C   0  0  0  0  0  0  0  0  0  0  0  0
   60.0280   34.5450   46.7220 C   0  0  0  0  0  0  0  0  0  0  0  0
   60.7270   33.2110   46.3660 C   0  0  1  0  0  0  0  0  0  0  0  0
   62.1720   33.2850   46.9000 C   0  0  0  0  0  0  0  0  0  0  0  0
   62.1160   33.4610   48.3670 N   0  0  0  0  0  0  0  0  0  0  0  0
   63.3020   33.3380   49.1770 C   0  0  0  0  0  0  0  0  0  0  0  0
   63.2960   33.7570   50.5150 C   0  0  0  0  0  0  0  0  0  0  0  0
   64.4550   33.6280   51.2770 C   0  0  0  0  0  0  0  0  0  0  0  0
   65.5960   33.0920   50.6900 C   0  0  0  0  0  0  0  0  0  0  0  0
   65.5620   32.7090   49.3880 N   0  0  0  0  0  0  0  0  0  0  0  0
   64.4540   32.8270   48.6520 N   0  0  0  0  0  0  0  0  0  0  0  0
   60.2170   29.8410   46.3960 N   0  0  0  0  0  0  0  0  0  0  0  0
   59.7240   28.7220   45.8050 C   0  0  0  0  0  0  0  0  0  0  0  0
   58.4650   28.7200   45.2970 N   0  0  0  0  0  0  0  0  0  0  0  0
   55.0976   30.2272   43.2614 H   0  0  0  0  0  0  0  0  0  0  0  0
   56.8222   30.6371   42.9710 H   0  0  0  0  0  0  0  0  0  0  0  0
   56.2949   28.9200   42.9710 H   0  0  0  0  0  0  0  0  0  0  0  0
   57.5557   31.8971   46.0220 H   0  0  0  0  0  0  0  0  0  0  0  0
   58.9441   32.3984   48.9150 H   0  0  0  0  0  0  0  0  0  0  0  0
   60.4386   31.4323   49.0824 H   0  0  0  0  0  0  0  0  0  0  0  0
   60.8130   33.7318   50.0475 H   0  0  0  0  0  0  0  0  0  0  0  0
   59.0428   34.8703   48.6432 H   0  0  0  0  0  0  0  0  0  0  0  0
   60.6324   35.6987   48.4713 H   0  0  0  0  0  0  0  0  0  0  0  0
   58.9805   34.5073   46.3882 H   0  0  0  0  0  0  0  0  0  0  0  0
   60.5516   35.3713   46.2189 H   0  0  0  0  0  0  0  0  0  0  0  0
   60.7061   33.0250   45.2820 H   0  0  0  0  0  0  0  0  0  0  0  0
   62.7065   32.3548   46.6571 H   0  0  0  0  0  0  0  0  0  0  0  0
   62.7046   34.1288   46.4370 H   0  0  0  0  0  0  0  0  0  0  0  0
   62.3845   34.1837   50.9589 H   0  0  0  0  0  0  0  0  0  0  0  0
   64.4675   33.9462   52.3299 H   0  0  0  0  0  0  0  0  0  0  0  0
   66.5197   32.9791   51.2765 H   0  0  0  0  0  0  0  0  0  0  0  0
   64.4970   32.5400   47.6500 H   0  0  0  0  0  0  0  0  0  0  0  0
   60.3452   27.8167   45.7379 H   0  0  0  0  0  0  0  0  0  0  0  0
  1  2  1  0
  2  3  1  0
  3  4  2  0
  4  5  1  0
  5  6  1  0
  6  7  1  0
  7  8  1  0
  8  9  1  0
  9 10  1  0
 10 11  1  0
 11 12  1  0
 12 13  1  0
 13 14  1  0
 14 15  2  0
 15 16  1  0
 16 17  2  0
 17 18  1  0
 18 19  2  0
  5 20  2  0
 20 21  1  0
 21 22  2  0
 22  3  1  0
 11  6  1  0
 19 14  1  0
 13  8  1  0
  1 23  1  0
  1 24  1  0
  1 25  1  0
  4 26  1  0
  7 27  1  0
  7 28  1  0
  8 29  1  1
  9 30  1  0
  9 31  1  0
 10 32  1  0
 10 33  1  0
 11 34  1  6
 12 35  1  0
 12 36  1  0
 15 37  1  0
 16 38  1  0
 17 39  1  0
 19 40  1  0
 21 41  1  0
M  CHG  1  19   1
M  END
>  <UniqueID>  (9) 
6

>  <SMILES>  (9) 
COc1cc(N2C[C@@H]3CC[C@H]2CN3c2cccn[nH+]2)ncn1

>  <Energy>  (9) 
59.22075453210534

>  <Genealogy>  (9) 
COc1cc(N2CC3CCC2CN3c2cccn[nH+]2)ncn1 (protonated)
COc1cc(N2C[C@@H]3CC[C@H]2CN3c2cccn[nH+]2)ncn1 (chirality)
COc1cc(N2C[C@@H]3CC[C@H]2CN3c2cccn[nH+]2)ncn1 (3D coordinates assigned)
COc1cc(N2C[C@@H]3CC[C@H]2CN3c2cccn[nH+]2)ncn1 (nonaromatic ring conformer: 59.22075453210534 kcal/mol)

>  <smiles>  (9) 
COc1cc(N2CC3CCC2CN3c2cccnn2)ncn1

>  <score_type>  (9) 
oracle

>  <origin>  (9) 
adg

>  <m_score__min__energy>  (9) 
-6.0300000000000002

>  <m_primary>  (9) 
energy

$$$$
9:0
     RDKit          3D

 32 34  0  0  0  0  0  0  0  0999 V2000
   53.6350   25.9630   46.3660 H   0  0  0  0  0  0  0  0  0  0  0  0
   58.6570   31.4440   47.0670 N   0  0  0  0  0  0  0  0  0  0  0  0
   59.1100   30.3000   46.6350 C   0  0  0  0  0  0  0  0  0  0  0  0
   56.5620   26.8780   46.0870 N   0  0  0  0  0  0  0  0  0  0  0  0
   57.8260   26.8070   46.5850 C   0  0  0  0  0  0  0  0  0  0  0  0
   58.7370   27.9580   46.3780 C   0  0  0  0  0  0  0  0  0  0  0  0
   56.0390   24.7450   46.9280 N   0  0  0  0  0  0  0  0  0  0  0  0
   55.6730   25.8630   46.2490 C   0  0  0  0  0  0  0  0  0  0  0  0
   54.4820   25.9670   45.7550 N   0  0  0  0  0  0  0  0  0  0  0  0
   57.8340   32.4040   46.3310 C   0  0  0  0  0  0  0  0  0  0  0  0
   56.9024   32.5813   46.8883 H   0  0  0  0  0  0  0  0  0  0  0  0
   58.4005   33.3405   46.2210 H   0  0  0  0  0  0  0  0  0  0  0  0
   57.4970   31.8840   44.9630 C   0  0  0  0  0  0  0  0  0  0  0  0
   56.6370   30.8370   44.8320 N   0  0  0  0  0  0  0  0  0  0  0  0
   56.3030   30.3300   43.6140 C   0  0  0  0  0  0  0  0  0  0  0  0
   55.6020   29.4852   43.5434 H   0  0  0  0  0  0  0  0  0  0  0  0
   56.8500   30.8820   42.4540 C   0  0  0  0  0  0  0  0  0  0  0  0
   56.5824   30.4777   41.4666 H   0  0  0  0  0  0  0  0  0  0  0  0
   57.7390   31.9510   42.5600 C   0  0  0  0  0  0  0  0  0  0  0  0
   58.1787   32.3941   41.6543 H   0  0  0  0  0  0  0  0  0  0  0  0
   58.0700   32.4580   43.8190 C   0  0  0  0  0  0  0  0  0  0  0  0
   58.7730   33.2989   43.9120 H   0  0  0  0  0  0  0  0  0  0  0  0
   60.3640   30.1610   46.0110 C   0  0  0  0  0  0  0  0  0  0  0  0
   61.0160   31.0365   45.8754 H   0  0  0  0  0  0  0  0  0  0  0  0
   60.7620   28.9380   45.5780 N   0  0  0  0  0  0  0  0  0  0  0  0
   59.9840   27.8370   45.7410 C   0  0  0  0  0  0  0  0  0  0  0  0
   60.3273   26.8574   45.3771 H   0  0  0  0  0  0  0  0  0  0  0  0
   58.2100   25.6580   47.2990 C   0  0  0  0  0  0  0  0  0  0  0  0
   59.2200   25.5746   47.7267 H   0  0  0  0  0  0  0  0  0  0  0  0
   57.2840   24.6260   47.4540 C   0  0  0  0  0  0  0  0  0  0  0  0
   57.5636   23.7149   48.0032 H   0  0  0  0  0  0  0  0  0  0  0  0
   58.3400   29.1910   46.7950 N   0  0  0  0  0  0  0  0  0  0  0  0
  1  2  1  0
  2  3  2  0
  3  4  1  0
  4  5  2  0
  5  6  1  0
  6  7  1  0
  7  8  1  0
  8  9  2  0
  9 10  1  0
 10 11  1  0
 10 12  1  0
 10 13  1  0
 13 14  2  0
 14 15  1  0
 15 16  1  0
 15 17  2  0
 17 18  1  0
 17 19  1  0
 19 20  1  0
 19 21  2  0
 21 22  1  0
  8 23  1  0
 23 24  1  0
 23 25  2  0
 25 26  1  0
 26 27  1  0
  5 28  1  0
 28 29  1  0
 28 30  2  0
 30 31  1  0
 30 32  1  0
 32  3  1  0
 26  6  2  0
 21 13  1  0
M  CHG  2   7  -1  32  -1
M  END
>  <UniqueID>  (10) 
7

>  <SMILES>  (10) 
[H]/N=c1/nc(-c2cnc/c(=N\Cc3ccccn3)[n-]2)cc[n-]1

>  <Energy>  (10) 
42.247235838785556

>  <Genealogy>  (10) 
N=c1nc(-c2cncc(=NCc3ccccn3)[n-]2)cc[n-]1 (protonated)
[H]/N=c1/nc(-c2cnc/c(=N\Cc3ccccn3)[n-]2)cc[n-]1 (cis-trans isomerization)
[H]/N=c1/nc(-c2cnc/c(=N\Cc3ccccn3)[n-]2)cc[n-]1 (3D coordinates assigned)
[H]/N=c1/nc(-c2cnc/c(=N\Cc3ccccn3)[n-]2)cc[n-]1 (optimized conformer: 42.247235838785556 kcal/mol)

>  <smiles>  (10) 
N=c1nc(-c2cncc(=NCc3ccccn3)[nH]2)cc[nH]1

>  <score_type>  (10) 
oracle

>  <origin>  (10) 
adg

>  <m_score__min__energy>  (10) 
-10.75

>  <m_primary>  (10) 
energy

$$$$
10:0
     RDKit          3D

 44 47  0  0  0  0  0  0  0  0999 V2000
   62.0406   33.5530   49.4885 H   0  0  0  0  0  0  0  0  0  0  0  0
   61.3860   33.7680   48.6310 C   0  0  0  0  0  0  0  0  0  0  0  0
   61.8450   33.5860   47.3640 N   0  0  0  0  0  0  0  0  0  0  0  0
   61.0640   33.8380   46.2790 C   0  0  0  0  0  0  0  0  0  0  0  0
   61.4657   33.6826   45.2668 H   0  0  0  0  0  0  0  0  0  0  0  0
   59.7490   34.2950   46.4460 C   0  0  0  0  0  0  0  0  0  0  0  0
   58.8900   34.5970   45.2470 C   0  0  0  0  0  0  0  0  0  0  0  0
   59.4581   34.3783   44.3308 H   0  0  0  0  0  0  0  0  0  0  0  0
   58.6049   35.6591   45.2731 H   0  0  0  0  0  0  0  0  0  0  0  0
   57.6760   33.7820   45.2660 N   0  0  0  0  0  0  0  0  0  0  0  0
   57.6400   32.4940   45.0930 C   0  0  0  0  0  0  0  0  0  0  0  0
   57.8090   31.6410   46.1430 N   0  0  0  0  0  0  0  0  0  0  0  0
   57.7710   30.2910   45.9910 C   0  0  0  0  0  0  0  0  0  0  0  0
   57.9082   29.6371   46.8649 H   0  0  0  0  0  0  0  0  0  0  0  0
   57.5570   29.7270   44.7210 C   0  0  0  0  0  0  0  0  0  0  0  0
   57.5140   28.2530   44.5410 C   0  0  0  0  0  0  0  0  0  0  0  0
   57.1630   27.4110   45.6110 C   0  0  0  0  0  0  0  0  0  0  0  0
   56.9193   27.8476   46.5908 H   0  0  0  0  0  0  0  0  0  0  0  0
   57.1210   26.0250   45.4410 C   0  0  0  0  0  0  0  0  0  0  0  0
   56.8444   25.3801   46.2881 H   0  0  0  0  0  0  0  0  0  0  0  0
   57.4290   25.4470   44.1970 C   0  0  0  0  0  0  0  0  0  0  0  0
   57.3850   23.9740   44.0170 C   0  0  0  0  0  0  0  0  0  0  0  0
   56.5400   23.3960   43.0480 C   0  0  0  0  0  0  0  0  0  0  0  0
   55.9081   24.0407   42.4194 H   0  0  0  0  0  0  0  0  0  0  0  0
   56.5000   22.0090   42.8810 C   0  0  0  0  0  0  0  0  0  0  0  0
   55.8368   21.5666   42.1231 H   0  0  0  0  0  0  0  0  0  0  0  0
   57.3000   21.1830   43.6740 C   0  0  0  0  0  0  0  0  0  0  0  0
   57.2669   20.0917   43.5402 H   0  0  0  0  0  0  0  0  0  0  0  0
   58.1420   21.7440   44.6370 C   0  0  0  0  0  0  0  0  0  0  0  0
   58.7729   21.0932   45.2602 H   0  0  0  0  0  0  0  0  0  0  0  0
   58.1850   23.1310   44.8110 C   0  0  0  0  0  0  0  0  0  0  0  0
   58.8483   23.5659   45.5732 H   0  0  0  0  0  0  0  0  0  0  0  0
   57.7800   26.2880   43.1270 C   0  0  0  0  0  0  0  0  0  0  0  0
   58.0238   25.8511   42.1474 H   0  0  0  0  0  0  0  0  0  0  0  0
   57.8220   27.6750   43.2970 C   0  0  0  0  0  0  0  0  0  0  0  0
   58.0985   28.3199   42.4498 H   0  0  0  0  0  0  0  0  0  0  0  0
   57.3880   30.5920   43.6280 C   0  0  0  0  0  0  0  0  0  0  0  0
   57.2235   30.1782   42.6222 H   0  0  0  0  0  0  0  0  0  0  0  0
   57.4280   31.9760   43.8130 C   0  0  0  0  0  0  0  0  0  0  0  0
   57.2935   32.6533   42.9567 H   0  0  0  0  0  0  0  0  0  0  0  0
   59.2650   34.4920   47.7480 C   0  0  0  0  0  0  0  0  0  0  0  0
   58.2385   34.8553   47.9042 H   0  0  0  0  0  0  0  0  0  0  0  0
   60.0860   34.2270   48.8450 C   0  0  0  0  0  0  0  0  0  0  0  0
   59.7118   34.3785   49.8683 H   0  0  0  0  0  0  0  0  0  0  0  0
  1  2  1  0
  2  3  2  0
  3  4  1  0
  4  5  1  0
  4  6  2  0
  6  7  1  0
  7  8  1  0
  7  9  1  0
  7 10  1  0
 10 11  2  0
 11 12  1  0
 12 13  1  0
 13 14  1  0
 13 15  2  0
 15 16  1  0
 16 17  2  0
 17 18  1  0
 17 19  1  0
 19 20  1  0
 19 21  2  0
 21 22  1  0
 22 23  2  0
 23 24  1  0
 23 25  1  0
 25 26  1  0
 25 27  2  0
 27 28  1  0
 27 29  1  0
 29 30  1  0
 29 31  2  0
 31 32  1  0
 21 33  1  0
 33 34  1  0
 33 35  2  0
 35 36  1  0
 15 37  1  0
 37 38  1  0
 37 39  2  0
 39 40  1  0
  6 41  1  0
 41 42  1  0
 41 43  2  0
 43 44  1  0
 43  2  1  0
 39 11  1  0
 35 16  1  0
 31 22  1  0
M  CHG  1  12  -1
M  END
>  <UniqueID>  (11) 
8

>  <SMILES>  (11) 
c1ccc(-c2ccc(-c3cc/c(=N/Cc4cccnc4)[n-]c3)cc2)cc1

>  <Energy>  (11) 
60.2838318341951

>  <Genealogy>  (11) 
c1ccc(-c2ccc(-c3ccc(=NCc4cccnc4)[n-]c3)cc2)cc1 (protonated)
c1ccc(-c2ccc(-c3cc/c(=N/Cc4cccnc4)[n-]c3)cc2)cc1 (cis-trans isomerization)
c1ccc(-c2ccc(-c3cc/c(=N/Cc4cccnc4)[n-]c3)cc2)cc1 (3D coordinates assigned)
c1ccc(-c2ccc(-c3cc/c(=N/Cc4cccnc4)[n-]c3)cc2)cc1 (optimized conformer: 60.2838318341951 kcal/mol)

>  <smiles>  (11) 
c1ccc(-c2ccc(-c3ccc(=NCc4cccnc4)[nH]c3)cc2)cc1

>  <score_type>  (11) 
oracle

>  <origin>  (11) 
adg

>  <m_score__min__energy>  (11) 
-9.9100000000000001

>  <m_primary>  (11) 
energy

$$$$
11:0
     RDKit          3D

 43 45  0  0  0  0  0  0  0  0999 V2000
   59.3130   34.9680   47.7450 C   0  0  0  0  0  0  0  0  0  0  0  0
   58.8790   34.7310   46.2900 C   0  0  0  0  0  0  0  0  0  0  0  0
   60.0500   34.1060   45.5100 C   0  0  0  0  0  0  0  0  0  0  0  0
   57.6050   33.8370   46.2030 C   0  0  1  0  0  0  0  0  0  0  0  0
   56.6520   34.3390   45.2080 N   0  0  0  0  0  0  0  0  0  0  0  0
   57.9660   32.3950   45.8970 C   0  0  0  0  0  0  0  0  0  0  0  0
   57.6280   31.8110   44.7200 N   0  0  0  0  0  0  0  0  0  0  0  0
   58.0060   30.5310   44.8560 C   0  0  0  0  0  0  0  0  0  0  0  0
   57.8610   29.4920   43.9410 C   0  0  0  0  0  0  0  0  0  0  0  0
   58.3100   28.2130   44.3220 C   0  0  0  0  0  0  0  0  0  0  0  0
   58.1440   26.8840   43.1840 Cl  0  0  0  0  0  0  0  0  0  0  0  0
   58.8810   28.0110   45.6070 C   0  0  0  0  0  0  0  0  0  0  0  0
   59.4410   26.4220   46.1120 Cl  0  0  0  0  0  0  0  0  0  0  0  0
   59.0010   29.0880   46.5070 C   0  0  0  0  0  0  0  0  0  0  0  0
   58.5570   30.3440   46.0880 C   0  0  0  0  0  0  0  0  0  0  0  0
   58.5530   31.5140   46.7630 N   0  0  0  0  0  0  0  0  0  0  0  0
   59.0360   31.7350   48.1340 C   0  0  0  0  0  0  0  0  0  0  0  0
   60.5240   31.9840   48.1550 C   0  0  0  0  0  0  0  0  0  0  0  0
   61.0940   32.7820   49.1630 C   0  0  0  0  0  0  0  0  0  0  0  0
   62.4700   33.0280   49.1730 C   0  0  0  0  0  0  0  0  0  0  0  0
   63.2860   32.4920   48.1740 C   0  0  0  0  0  0  0  0  0  0  0  0
   62.7270   31.7100   47.1590 C   0  0  0  0  0  0  0  0  0  0  0  0
   61.3510   31.4610   47.1450 C   0  0  0  0  0  0  0  0  0  0  0  0
   58.5547   34.5539   48.4259 H   0  0  0  0  0  0  0  0  0  0  0  0
   60.2779   34.4716   47.9253 H   0  0  0  0  0  0  0  0  0  0  0  0
   59.4170   36.0481   47.9253 H   0  0  0  0  0  0  0  0  0  0  0  0
   58.6143   35.6988   45.8392 H   0  0  0  0  0  0  0  0  0  0  0  0
   60.7924   33.7097   46.2184 H   0  0  0  0  0  0  0  0  0  0  0  0
   59.6742   33.2885   44.8772 H   0  0  0  0  0  0  0  0  0  0  0  0
   60.5200   34.8732   44.8772 H   0  0  0  0  0  0  0  0  0  0  0  0
   57.1200   33.8780   47.1895 H   0  0  0  0  0  0  0  0  0  0  0  0
   55.9030   34.8720   45.7090 H   0  0  0  0  0  0  0  0  0  0  0  0
   57.1320   35.0540   44.6150 H   0  0  0  0  0  0  0  0  0  0  0  0
   57.1470   32.2480   43.9010 H   0  0  0  0  0  0  0  0  0  0  0  0
   57.4103   29.6645   42.9525 H   0  0  0  0  0  0  0  0  0  0  0  0
   59.4312   28.9441   47.5091 H   0  0  0  0  0  0  0  0  0  0  0  0
   58.5201   32.6082   48.5597 H   0  0  0  0  0  0  0  0  0  0  0  0
   58.8255   30.8328   48.7271 H   0  0  0  0  0  0  0  0  0  0  0  0
   60.4545   33.2143   49.9467 H   0  0  0  0  0  0  0  0  0  0  0  0
   62.9113   33.6452   49.9695 H   0  0  0  0  0  0  0  0  0  0  0  0
   64.3688   32.6853   48.1860 H   0  0  0  0  0  0  0  0  0  0  0  0
   63.3697   31.2904   46.3711 H   0  0  0  0  0  0  0  0  0  0  0  0
   60.9132   30.8528   46.3397 H   0  0  0  0  0  0  0  0  0  0  0  0
  1  2  1  0
  2  3  1  0
  2  4  1  0
  4  5  1  0
  4  6  1  0
  6  7  2  0
  7  8  1  0
  8  9  2  0
  9 10  1  0
 10 11  1  0
 10 12  2  0
 12 13  1  0
 12 14  1  0
 14 15  2  0
 15 16  1  0
 16 17  1  0
 17 18  1  0
 18 19  2  0
 19 20  1  0
 20 21  2  0
 21 22  1  0
 22 23  2  0
 16  6  1  0
 23 18  1  0
 15  8  1  0
  1 24  1  0
  1 25  1  0
  1 26  1  0
  2 27  1  0
  3 28  1  0
  3 29  1  0
  3 30  1  0
  4 31  1  1
  5 32  1  0
  5 33  1  0
  7 34  1  0
  9 35  1  0
 14 36  1  0
 17 37  1  0
 17 38  1  0
 19 39  1  0
 20 40  1  0
 21 41  1  0
 22 42  1  0
 23 43  1  0
M  CHG  1   7   1
M  END
>  <UniqueID>  (12) 
9

>  <SMILES>  (12) 
CC(C)[C@@H](N)c1[nH+]c2cc(Cl)c(Cl)cc2n1Cc1ccccc1

>  <Energy>  (12) 
80.2728585239013

>  <Genealogy>  (12) 
CC(C)C(N)c1[nH+]c2cc(Cl)c(Cl)cc2n1Cc1ccccc1 (protonated)
CC(C)[C@@H](N)c1[nH+]c2cc(Cl)c(Cl)cc2n1Cc1ccccc1 (chirality)
CC(C)[C@@H](N)c1[nH+]c2cc(Cl)c(Cl)cc2n1Cc1ccccc1 (3D coordinates assigned)
CC(C)[C@@H](N)c1[nH+]c2cc(Cl)c(Cl)cc2n1Cc1ccccc1 (optimized conformer: 80.2728585239013 kcal/mol)

>  <smiles>  (12) 
CC(C)C(N)c1nc2cc(Cl)c(Cl)cc2n1Cc1ccccc1

>  <score_type>  (12) 
oracle

>  <origin>  (12) 
adg

>  <m_score__min__energy>  (12) 
-6.5099999999999998

>  <m_primary>  (12) 
energy

$$$$
12:0
     RDKit          3D

 45 48  0  0  0  0  0  0  0  0999 V2000
   57.7530   32.3410   41.3970 C   0  0  0  0  0  0  0  0  0  0  0  0
   57.5970   31.7640   42.7280 N   0  0  0  0  0  0  0  0  0  0  0  0
   57.1580   30.5160   43.0140 C   0  0  0  0  0  0  0  0  0  0  0  0
   57.1600   30.3110   44.3900 C   0  0  0  0  0  0  0  0  0  0  0  0
   56.7520   29.0760   45.0800 C   0  0  0  0  0  0  0  0  0  0  0  0
   55.5240   28.8080   45.1680 O   0  0  0  0  0  0  0  0  0  0  0  0
   57.7210   28.1950   45.6810 N   0  0  0  0  0  0  0  0  0  0  0  0
   59.1560   28.3500   45.3890 C   0  0  0  0  0  0  0  0  0  0  0  0
   59.8280   29.1590   46.4620 C   0  0  0  0  0  0  0  0  0  0  0  0
   60.8430   30.0750   46.1450 C   0  0  0  0  0  0  0  0  0  0  0  0
   61.4150   30.8410   47.1620 C   0  0  0  0  0  0  0  0  0  0  0  0
   60.9730   30.6920   48.4770 C   0  0  0  0  0  0  0  0  0  0  0  0
   59.9590   29.7730   48.7560 C   0  0  0  0  0  0  0  0  0  0  0  0
   59.4130   29.0370   47.7530 N   0  0  0  0  0  0  0  0  0  0  0  0
   57.2960   27.2540   46.7240 C   0  0  0  0  0  0  0  0  0  0  0  0
   56.4680   26.1570   46.1330 C   0  0  0  0  0  0  0  0  0  0  0  0
   56.9440   25.0840   45.4070 C   0  0  0  0  0  0  0  0  0  0  0  0
   55.8280   24.3650   45.0340 C   0  0  0  0  0  0  0  0  0  0  0  0
   54.7440   25.0440   45.5540 C   0  0  0  0  0  0  0  0  0  0  0  0
   55.1580   26.1090   46.2020 O   0  0  0  0  0  0  0  0  0  0  0  0
   57.6510   31.4780   44.9470 C   0  0  0  0  0  0  0  0  0  0  0  0
   57.9470   31.8170   46.2690 C   0  0  0  0  0  0  0  0  0  0  0  0
   58.4780   33.0940   46.5180 C   0  0  0  0  0  0  0  0  0  0  0  0
   58.7190   33.9900   45.4530 C   0  0  0  0  0  0  0  0  0  0  0  0
   58.4360   33.6140   44.1270 C   0  0  0  0  0  0  0  0  0  0  0  0
   57.9020   32.3420   43.9080 C   0  0  0  0  0  0  0  0  0  0  0  0
   58.0391   33.3993   41.4874 H   0  0  0  0  0  0  0  0  0  0  0  0
   58.5358   31.7950   40.8501 H   0  0  0  0  0  0  0  0  0  0  0  0
   56.8017   32.2638   40.8501 H   0  0  0  0  0  0  0  0  0  0  0  0
   56.8451   29.7718   42.2668 H   0  0  0  0  0  0  0  0  0  0  0  0
   59.6244   27.3560   45.3385 H   0  0  0  0  0  0  0  0  0  0  0  0
   59.2685   28.8721   44.4274 H   0  0  0  0  0  0  0  0  0  0  0  0
   61.1843   30.1881   45.1054 H   0  0  0  0  0  0  0  0  0  0  0  0
   62.2129   31.5609   46.9272 H   0  0  0  0  0  0  0  0  0  0  0  0
   61.4181   31.2915   49.2848 H   0  0  0  0  0  0  0  0  0  0  0  0
   59.6022   29.6450   49.7886 H   0  0  0  0  0  0  0  0  0  0  0  0
   58.1853   26.8186   47.2031 H   0  0  0  0  0  0  0  0  0  0  0  0
   56.6920   27.7951   47.4672 H   0  0  0  0  0  0  0  0  0  0  0  0
   57.9937   24.8512   45.1746 H   0  0  0  0  0  0  0  0  0  0  0  0
   55.8058   23.4381   44.4420 H   0  0  0  0  0  0  0  0  0  0  0  0
   53.6929   24.7393   45.4425 H   0  0  0  0  0  0  0  0  0  0  0  0
   57.7700   31.1065   47.0899 H   0  0  0  0  0  0  0  0  0  0  0  0
   58.7077   33.3981   47.5499 H   0  0  0  0  0  0  0  0  0  0  0  0
   59.1307   34.9885   45.6617 H   0  0  0  0  0  0  0  0  0  0  0  0
   58.6292   34.3001   43.2892 H   0  0  0  0  0  0  0  0  0  0  0  0
  1  2  1  0
  2  3  1  0
  3  4  2  0
  4  5  1  0
  5  6  2  0
  5  7  1  0
  7  8  1  0
  8  9  1  0
  9 10  2  0
 10 11  1  0
 11 12  2  0
 12 13  1  0
 13 14  2  0
  7 15  1  0
 15 16  1  0
 16 17  2  0
 17 18  1  0
 18 19  2  0
 19 20  1  0
  4 21  1  0
 21 22  2  0
 22 23  1  0
 23 24  2  0
 24 25  1  0
 25 26  2  0
 26  2  1  0
 14  9  1  0
 20 16  1  0
 26 21  1  0
  1 27  1  0
  1 28  1  0
  1 29  1  0
  3 30  1  0
  8 31  1  0
  8 32  1  0
 10 33  1  0
 11 34  1  0
 12 35  1  0
 13 36  1  0
 15 37  1  0
 15 38  1  0
 17 39  1  0
 18 40  1  0
 19 41  1  0
 22 42  1  0
 23 43  1  0
 24 44  1  0
 25 45  1  0
M  END
>  <UniqueID>  (13) 
10

>  <SMILES>  (13) 
Cn1cc(C(=O)N(Cc2ccccn2)Cc2ccco2)c2ccccc21

>  <Energy>  (13) 
108.41487208856195

>  <Genealogy>  (13) 
Cn1cc(C(=O)N(Cc2ccccn2)Cc2ccco2)c2ccccc21 (3D coordinates assigned)
Cn1cc(C(=O)N(Cc2ccccn2)Cc2ccco2)c2ccccc21 (optimized conformer: 108.41487208856195 kcal/mol)

>  <smiles>  (13) 
Cn1cc(C(=O)N(Cc2ccccn2)Cc2ccco2)c2ccccc21

>  <score_type>  (13) 
oracle

>  <origin>  (13) 
adg

>  <m_score__min__energy>  (13) 
-8.4000000000000004

>  <m_primary>  (13) 
energy

$$$$
13:0
     RDKit          3D

 47 49  0  0  0  0  0  0  0  0999 V2000
   66.5310   31.3180   51.0610 C   0  0  0  0  0  0  0  0  0  0  0  0
   66.4680   32.6560   50.4410 N   0  0  0  0  0  0  0  0  0  0  0  0
   67.8050   33.2750   50.4670 C   0  0  0  0  0  0  0  0  0  0  0  0
   65.4930   33.5360   51.1300 C   0  0  0  0  0  0  0  0  0  0  0  0
   64.2060   33.7480   50.3140 C   0  0  0  0  0  0  0  0  0  0  0  0
   64.0150   32.6200   49.3720 N   0  0  0  0  0  0  0  0  0  0  0  0
   64.1000   33.0210   47.9550 C   0  0  0  0  0  0  0  0  0  0  0  0
   62.8870   33.8450   47.5200 C   0  0  0  0  0  0  0  0  0  0  0  0
   61.6450   33.1340   47.8430 N   0  0  0  0  0  0  0  0  0  0  0  0
   60.4790   33.3380   47.0160 C   0  0  0  0  0  0  0  0  0  0  0  0
   59.9140   32.3620   46.2730 N   0  0  0  0  0  0  0  0  0  0  0  0
   58.8240   32.7940   45.5780 C   0  0  0  0  0  0  0  0  0  0  0  0
   58.0530   31.8740   44.7000 C   0  0  0  0  0  0  0  0  0  0  0  0
   57.5720   30.6550   45.2160 C   0  0  0  0  0  0  0  0  0  0  0  0
   56.8480   29.7730   44.4070 C   0  0  0  0  0  0  0  0  0  0  0  0
   56.5970   30.0950   43.0710 C   0  0  0  0  0  0  0  0  0  0  0  0
   55.8970   29.2390   42.2880 F   0  0  0  0  0  0  0  0  0  0  0  0
   57.0720   31.2970   42.5440 C   0  0  0  0  0  0  0  0  0  0  0  0
   57.7970   32.1820   43.3480 C   0  0  0  0  0  0  0  0  0  0  0  0
   58.5130   34.1440   45.7770 C   0  0  0  0  0  0  0  0  0  0  0  0
   59.6400   34.7880   46.8440 S   0  0  0  0  0  0  0  0  0  0  0  0
   61.5030   32.5650   49.1890 C   0  0  0  0  0  0  0  0  0  0  0  0
   62.7870   31.8390   49.6310 C   0  0  0  0  0  0  0  0  0  0  0  0
   66.5262   31.4208   52.1562 H   0  0  0  0  0  0  0  0  0  0  0  0
   65.6597   30.7258   50.7444 H   0  0  0  0  0  0  0  0  0  0  0  0
   67.4540   30.8103   50.7444 H   0  0  0  0  0  0  0  0  0  0  0  0
   66.1900   32.5470   49.4370 H   0  0  0  0  0  0  0  0  0  0  0  0
   68.1211   33.4213   51.5104 H   0  0  0  0  0  0  0  0  0  0  0  0
   68.5233   32.6178   49.9550 H   0  0  0  0  0  0  0  0  0  0  0  0
   67.7686   34.2479   49.9550 H   0  0  0  0  0  0  0  0  0  0  0  0
   65.2270   33.0794   52.0947 H   0  0  0  0  0  0  0  0  0  0  0  0
   65.9683   34.5191   51.2631 H   0  0  0  0  0  0  0  0  0  0  0  0
   63.3456   33.8024   50.9972 H   0  0  0  0  0  0  0  0  0  0  0  0
   64.2883   34.6856   49.7446 H   0  0  0  0  0  0  0  0  0  0  0  0
   65.0091   33.6231   47.8100 H   0  0  0  0  0  0  0  0  0  0  0  0
   64.1272   32.1069   47.3438 H   0  0  0  0  0  0  0  0  0  0  0  0
   62.8983   34.8119   48.0445 H   0  0  0  0  0  0  0  0  0  0  0  0
   62.9349   34.0050   46.4327 H   0  0  0  0  0  0  0  0  0  0  0  0
   57.7678   30.3937   46.2664 H   0  0  0  0  0  0  0  0  0  0  0  0
   56.4760   28.8251   44.8231 H   0  0  0  0  0  0  0  0  0  0  0  0
   56.8751   31.5492   41.4916 H   0  0  0  0  0  0  0  0  0  0  0  0
   58.1703   33.1253   42.9227 H   0  0  0  0  0  0  0  0  0  0  0  0
   57.6763   34.6887   45.3152 H   0  0  0  0  0  0  0  0  0  0  0  0
   61.2882   33.3766   49.8997 H   0  0  0  0  0  0  0  0  0  0  0  0
   60.6811   31.8341   49.1707 H   0  0  0  0  0  0  0  0  0  0  0  0
   62.7213   31.6382   50.7105 H   0  0  0  0  0  0  0  0  0  0  0  0
   62.8582   30.9124   49.0425 H   0  0  0  0  0  0  0  0  0  0  0  0
  1  2  1  0
  2  3  1  0
  2  4  1  0
  4  5  1  0
  5  6  1  0
  6  7  1  0
  7  8  1  0
  8  9  1  0
  9 10  1  0
 10 11  2  0
 11 12  1  0
 12 13  1  0
 13 14  2  0
 14 15  1  0
 15 16  2  0
 16 17  1  0
 16 18  1  0
 18 19  2  0
 12 20  2  0
 20 21  1  0
  9 22  1  0
 22 23  1  0
 23  6  1  0
 21 10  1  0
 19 13  1  0
  1 24  1  0
  1 25  1  0
  1 26  1  0
  2 27  1  0
  3 28  1  0
  3 29  1  0
  3 30  1  0
  4 31  1  0
  4 32  1  0
  5 33  1  0
  5 34  1  0
  7 35  1  0
  7 36  1  0
  8 37  1  0
  8 38  1  0
 14 39  1  0
 15 40  1  0
 18 41  1  0
 19 42  1  0
 20 43  1  0
 22 44  1  0
 22 45  1  0
 23 46  1  0
 23 47  1  0
M  CHG  1   2   1
M  END
>  <UniqueID>  (14) 
11

>  <SMILES>  (14) 
C[NH+](C)CCN1CCN(c2nc(-c3ccc(F)cc3)cs2)CC1

>  <Energy>  (14) 
84.65482430621435

>  <Genealogy>  (14) 
C[NH+](C)CCN1CCN(c2nc(-c3ccc(F)cc3)cs2)CC1 (protonated)
C[NH+](C)CCN1CCN(c2nc(-c3ccc(F)cc3)cs2)CC1 (3D coordinates assigned)
C[NH+](C)CCN1CCN(c2nc(-c3ccc(F)cc3)cs2)CC1 (nonaromatic ring conformer: 84.65482430621435 kcal/mol)

>  <smiles>  (14) 
CN(C)CCN1CCN(c2nc(-c3ccc(F)cc3)cs2)CC1

>  <score_type>  (14) 
oracle

>  <origin>  (14) 
adg

>  <m_score__min__energy>  (14) 
-5.6799999999999997

>  <m_primary>  (14) 
energy

$$$$
14:0
     RDKit          3D

 36 38  0  0  0  0  0  0  0  0999 V2000
   54.4440   30.8590   44.6250 H   0  0  0  0  0  0  0  0  0  0  0  0
   55.1450   30.2530   44.1440 N   0  0  0  0  0  0  0  0  0  0  0  0
   56.1490   29.7440   44.7800 C   0  0  0  0  0  0  0  0  0  0  0  0
   56.2200   28.4030   44.9870 N   0  0  0  0  0  0  0  0  0  0  0  0
   57.2640   27.8440   45.6560 C   0  0  0  0  0  0  0  0  0  0  0  0
   57.3090   26.3740   45.8340 C   0  0  0  0  0  0  0  0  0  0  0  0
   58.5560   25.7220   45.8280 C   0  0  0  0  0  0  0  0  0  0  0  0
   59.4766   26.3074   45.6873 H   0  0  0  0  0  0  0  0  0  0  0  0
   58.6350   24.3390   45.9990 C   0  0  0  0  0  0  0  0  0  0  0  0
   59.6158   23.8409   45.9990 H   0  0  0  0  0  0  0  0  0  0  0  0
   57.4720   23.5870   46.1700 C   0  0  0  0  0  0  0  0  0  0  0  0
   57.5372   22.4982   46.3127 H   0  0  0  0  0  0  0  0  0  0  0  0
   56.2260   24.2160   46.1600 C   0  0  0  0  0  0  0  0  0  0  0  0
   55.3114   23.6194   46.2925 H   0  0  0  0  0  0  0  0  0  0  0  0
   56.1330   25.6040   45.9820 C   0  0  0  0  0  0  0  0  0  0  0  0
   54.8780   26.2100   45.9260 O   0  0  0  0  0  0  0  0  0  0  0  0
   54.7670   27.2140   45.9980 H   0  0  0  0  0  0  0  0  0  0  0  0
   58.2980   28.6690   46.1210 C   0  0  0  0  0  0  0  0  0  0  0  0
   59.1658   28.2365   46.6405 H   0  0  0  0  0  0  0  0  0  0  0  0
   58.2100   30.0560   45.9140 C   0  0  0  0  0  0  0  0  0  0  0  0
   59.2680   30.9850   46.3850 C   0  0  0  0  0  0  0  0  0  0  0  0
   59.0620   32.3780   46.4140 C   0  0  0  0  0  0  0  0  0  0  0  0
   58.0968   32.7935   46.0890 H   0  0  0  0  0  0  0  0  0  0  0  0
   60.0730   33.2360   46.8520 C   0  0  0  0  0  0  0  0  0  0  0  0
   59.8955   34.3214   46.8726 H   0  0  0  0  0  0  0  0  0  0  0  0
   61.3100   32.7280   47.2650 C   0  0  0  0  0  0  0  0  0  0  0  0
   62.2910   33.6320   47.6980 O   0  0  0  0  0  0  0  0  0  0  0  0
   63.6940   33.4190   47.5700 C   0  0  0  0  0  0  0  0  0  0  0  0
   64.1472   33.3502   48.5700 H   0  0  0  0  0  0  0  0  0  0  0  0
   63.8742   32.4832   47.0206 H   0  0  0  0  0  0  0  0  0  0  0  0
   64.1438   34.2591   47.0206 H   0  0  0  0  0  0  0  0  0  0  0  0
   61.5260   31.3390   47.2280 C   0  0  0  0  0  0  0  0  0  0  0  0
   62.4949   30.9272   47.5470 H   0  0  0  0  0  0  0  0  0  0  0  0
   60.5160   30.4790   46.7880 C   0  0  0  0  0  0  0  0  0  0  0  0
   60.6996   29.3949   46.7567 H   0  0  0  0  0  0  0  0  0  0  0  0
   57.1360   30.5530   45.2410 N   0  0  0  0  0  0  0  0  0  0  0  0
  1  2  1  0
  2  3  2  0
  3  4  1  0
  4  5  2  0
  5  6  1  0
  6  7  2  0
  7  8  1  0
  7  9  1  0
  9 10  1  0
  9 11  2  0
 11 12  1  0
 11 13  1  0
 13 14  1  0
 13 15  2  0
 15 16  1  0
 16 17  1  0
  5 18  1  0
 18 19  1  0
 18 20  2  0
 20 21  1  0
 21 22  2  0
 22 23  1  0
 22 24  1  0
 24 25  1  0
 24 26  2  0
 26 27  1  0
 27 28  1  0
 28 29  1  0
 28 30  1  0
 28 31  1  0
 26 32  1  0
 32 33  1  0
 32 34  2  0
 34 35  1  0
 20 36  1  0
 36  3  1  0
 15  6  1  0
 34 21  1  0
M  CHG  1  36  -1
M  END
>  <UniqueID>  (15) 
12

>  <SMILES>  (15) 
[H]/N=c1\nc(-c2ccccc2O)cc(-c2ccc(OC)cc2)[n-]1

>  <Energy>  (15) 
47.906028325941605

>  <Genealogy>  (15) 
COc1ccc(-c2cc(-c3ccccc3O)nc(=N)[n-]2)cc1 (protonated)
[H]/N=c1\nc(-c2ccccc2O)cc(-c2ccc(OC)cc2)[n-]1 (cis-trans isomerization)
[H]/N=c1\nc(-c2ccccc2O)cc(-c2ccc(OC)cc2)[n-]1 (3D coordinates assigned)
[H]/N=c1\nc(-c2ccccc2O)cc(-c2ccc(OC)cc2)[n-]1 (optimized conformer: 47.906028325941605 kcal/mol)

>  <smiles>  (15) 
COc1ccc(-c2cc(-c3ccccc3O)nc(=N)[nH]2)cc1

>  <score_type>  (15) 
oracle

>  <origin>  (15) 
adg

>  <m_score__min__energy>  (15) 
-10.470000000000001

>  <m_primary>  (15) 
energy

$$$$
15:0
     RDKit          3D

 39 42  0  0  0  0  0  0  0  0999 V2000
   63.3620   32.1660   47.4210 C   0  0  0  0  0  0  0  0  0  0  0  0
   62.7980   33.5760   47.2890 C   0  0  0  0  0  0  0  0  0  0  0  0
   61.3000   33.5640   47.3890 C   0  0  0  0  0  0  0  0  0  0  0  0
   60.5480   32.5700   46.7520 C   0  0  0  0  0  0  0  0  0  0  0  0
   59.1500   32.6190   46.8410 C   0  0  0  0  0  0  0  0  0  0  0  0
   58.3200   31.5800   46.1980 C   0  0  0  0  0  0  0  0  0  0  0  0
   57.5000   31.8330   45.1620 N   0  0  0  0  0  0  0  0  0  0  0  0
   57.0170   30.6200   44.8170 C   0  0  0  0  0  0  0  0  0  0  0  0
   56.0820   30.4060   43.6690 C   0  0  0  0  0  0  0  0  0  0  0  0
   56.6500   30.8260   42.3220 C   0  0  0  0  0  0  0  0  0  0  0  0
   56.5220   29.3510   42.6640 C   0  0  0  0  0  0  0  0  0  0  0  0
   57.5020   29.6080   45.5650 N   0  0  0  0  0  0  0  0  0  0  0  0
   58.3160   30.2140   46.4470 C   0  0  0  0  0  0  0  0  0  0  0  0
   59.0150   29.4790   47.5190 C   0  0  0  0  0  0  0  0  0  0  0  0
   59.1130   30.0460   48.8010 C   0  0  0  0  0  0  0  0  0  0  0  0
   59.7930   29.3700   49.8190 C   0  0  0  0  0  0  0  0  0  0  0  0
   60.3940   28.1350   49.5610 C   0  0  0  0  0  0  0  0  0  0  0  0
   60.3210   27.5760   48.2820 C   0  0  0  0  0  0  0  0  0  0  0  0
   60.9150   26.3820   48.0300 F   0  0  0  0  0  0  0  0  0  0  0  0
   59.6400   28.2470   47.2620 C   0  0  0  0  0  0  0  0  0  0  0  0
   58.5660   33.6150   47.5620 N   0  0  0  0  0  0  0  0  0  0  0  0
   59.3080   34.5700   48.1760 C   0  0  0  0  0  0  0  0  0  0  0  0
   60.6630   34.5460   48.0820 N   0  0  0  0  0  0  0  0  0  0  0  0
   63.4643   31.9102   48.4859 H   0  0  0  0  0  0  0  0  0  0  0  0
   62.6804   31.4516   46.9362 H   0  0  0  0  0  0  0  0  0  0  0  0
   64.3482   32.1187   46.9362 H   0  0  0  0  0  0  0  0  0  0  0  0
   63.2078   34.2048   48.0931 H   0  0  0  0  0  0  0  0  0  0  0  0
   63.0819   33.9780   46.3052 H   0  0  0  0  0  0  0  0  0  0  0  0
   61.0453   31.7647   46.1915 H   0  0  0  0  0  0  0  0  0  0  0  0
   55.1559   30.6030   44.2289 H   0  0  0  0  0  0  0  0  0  0  0  0
   55.9915   31.2736   41.5630 H   0  0  0  0  0  0  0  0  0  0  0  0
   57.4720   31.4796   41.9946 H   0  0  0  0  0  0  0  0  0  0  0  0
   55.7707   28.7311   42.1529 H   0  0  0  0  0  0  0  0  0  0  0  0
   57.2126   28.4951   42.6869 H   0  0  0  0  0  0  0  0  0  0  0  0
   58.6535   31.0245   49.0044 H   0  0  0  0  0  0  0  0  0  0  0  0
   59.8549   29.8112   50.8247 H   0  0  0  0  0  0  0  0  0  0  0  0
   60.9245   27.6029   50.3644 H   0  0  0  0  0  0  0  0  0  0  0  0
   59.5932   27.8088   46.2542 H   0  0  0  0  0  0  0  0  0  0  0  0
   58.8116   35.3655   48.7512 H   0  0  0  0  0  0  0  0  0  0  0  0
  1  2  1  0
  2  3  1  0
  3  4  2  0
  4  5  1  0
  5  6  1  0
  6  7  1  0
  7  8  1  0
  8  9  1  0
  9 10  1  0
 10 11  1  0
  8 12  2  0
 12 13  1  0
 13 14  1  0
 14 15  2  0
 15 16  1  0
 16 17  2  0
 17 18  1  0
 18 19  1  0
 18 20  2  0
  5 21  2  0
 21 22  1  0
 22 23  2  0
 23  3  1  0
 13  6  2  0
 20 14  1  0
 11  9  1  0
  1 24  1  0
  1 25  1  0
  1 26  1  0
  2 27  1  0
  2 28  1  0
  4 29  1  0
  9 30  1  0
 10 31  1  0
 10 32  1  0
 11 33  1  0
 11 34  1  0
 15 35  1  0
 16 36  1  0
 17 37  1  0
 20 38  1  0
 22 39  1  0
M  CHG  1   7  -1
M  END
>  <UniqueID>  (16) 
13

>  <SMILES>  (16) 
CCc1cc(-c2[n-]c(C3CC3)nc2-c2cccc(F)c2)ncn1

>  <Energy>  (16) 
336.8120858223832

>  <Genealogy>  (16) 
CCc1cc(-c2[n-]c(C3CC3)nc2-c2cccc(F)c2)ncn1 (protonated)
CCc1cc(-c2[n-]c(C3CC3)nc2-c2cccc(F)c2)ncn1 (3D coordinates assigned)
CCc1cc(-c2[n-]c(C3CC3)nc2-c2cccc(F)c2)ncn1 (nonaromatic ring conformer: 336.8120858223832 kcal/mol)

>  <smiles>  (16) 
CCc1cc(-c2[nH]c(C3CC3)nc2-c2cccc(F)c2)ncn1

>  <score_type>  (16) 
oracle

>  <origin>  (16) 
adg

>  <m_score__min__energy>  (16) 
-8.1300000000000008

>  <m_primary>  (16) 
energy

$$$$
16:0
     RDKit          3D

 39 41  0  0  0  0  0  0  0  0999 V2000
   59.7590   32.3950   49.3030 C   0  0  0  0  0  0  0  0  0  0  0  0
   60.0970   32.9590   47.9850 N   0  0  0  0  0  0  0  0  0  0  0  0
   60.5440   31.9400   47.0210 C   0  0  0  0  0  0  0  0  0  0  0  0
   59.4270   30.9700   46.6110 C   0  0  0  0  0  0  0  0  0  0  0  0
   58.0660   31.6360   46.2840 C   0  0  0  0  0  0  0  0  0  0  0  0
   57.7490   31.6520   44.7840 C   0  0  0  0  0  0  0  0  0  0  0  0
   58.3500   32.6500   43.9870 C   0  0  0  0  0  0  0  0  0  0  0  0
   58.1040   32.7230   42.6160 C   0  0  0  0  0  0  0  0  0  0  0  0
   57.2600   31.7990   42.0080 C   0  0  0  0  0  0  0  0  0  0  0  0
   57.0440   31.8550   40.6700 F   0  0  0  0  0  0  0  0  0  0  0  0
   56.6460   30.8090   42.7730 C   0  0  0  0  0  0  0  0  0  0  0  0
   56.8530   30.7410   44.1650 C   0  0  0  0  0  0  0  0  0  0  0  0
   56.2360   29.6970   44.9330 N   0  0  0  0  0  0  0  0  0  0  0  0
   56.7460   28.5350   45.2250 C   0  0  0  0  0  0  0  0  0  0  0  0
   55.9600   27.4960   45.6230 N   0  0  0  0  0  0  0  0  0  0  0  0
   56.4990   26.2950   45.9570 C   0  0  0  0  0  0  0  0  0  0  0  0
   57.8800   26.1160   45.9040 C   0  0  0  0  0  0  0  0  0  0  0  0
   58.6740   27.1910   45.5080 C   0  0  0  0  0  0  0  0  0  0  0  0
   58.0950   28.3750   45.1800 N   0  0  0  0  0  0  0  0  0  0  0  0
   57.7790   32.9830   47.0020 C   0  0  0  0  0  0  0  0  0  0  0  0
   59.0180   33.7920   47.4280 C   0  0  0  0  0  0  0  0  0  0  0  0
   60.1519   33.0506   50.0941 H   0  0  0  0  0  0  0  0  0  0  0  0
   58.6659   32.3183   49.3996 H   0  0  0  0  0  0  0  0  0  0  0  0
   60.2067   31.3949   49.3996 H   0  0  0  0  0  0  0  0  0  0  0  0
   60.9142   32.4494   46.1191 H   0  0  0  0  0  0  0  0  0  0  0  0
   61.3308   31.3472   47.5105 H   0  0  0  0  0  0  0  0  0  0  0  0
   59.7619   30.4224   45.7177 H   0  0  0  0  0  0  0  0  0  0  0  0
   59.2496   30.3211   47.4813 H   0  0  0  0  0  0  0  0  0  0  0  0
   57.3313   30.9593   46.7448 H   0  0  0  0  0  0  0  0  0  0  0  0
   59.0239   33.3827   44.4551 H   0  0  0  0  0  0  0  0  0  0  0  0
   58.5781   33.5125   42.0144 H   0  0  0  0  0  0  0  0  0  0  0  0
   55.9920   30.0719   42.2842 H   0  0  0  0  0  0  0  0  0  0  0  0
   55.8471   25.4656   46.2686 H   0  0  0  0  0  0  0  0  0  0  0  0
   58.3329   25.1491   46.1685 H   0  0  0  0  0  0  0  0  0  0  0  0
   59.7675   27.0806   45.4612 H   0  0  0  0  0  0  0  0  0  0  0  0
   57.1850   33.6092   46.3201 H   0  0  0  0  0  0  0  0  0  0  0  0
   57.2586   32.7197   47.9347 H   0  0  0  0  0  0  0  0  0  0  0  0
   59.4072   34.3235   46.5471 H   0  0  0  0  0  0  0  0  0  0  0  0
   58.6978   34.4824   48.2222 H   0  0  0  0  0  0  0  0  0  0  0  0
  1  2  1  0
  2  3  1  0
  3  4  1  0
  4  5  1  0
  5  6  1  0
  6  7  2  0
  7  8  1  0
  8  9  2  0
  9 10  1  0
  9 11  1  0
 11 12  2  0
 12 13  1  0
 13 14  2  3
 14 15  1  0
 15 16  2  0
 16 17  1  0
 17 18  2  0
 18 19  1  0
  5 20  1  0
 20 21  1  0
 21  2  1  0
 12  6  1  0
 19 14  1  0
  1 22  1  0
  1 23  1  0
  1 24  1  0
  3 25  1  0
  3 26  1  0
  4 27  1  0
  4 28  1  0
  5 29  1  0
  7 30  1  0
  8 31  1  0
 11 32  1  0
 16 33  1  0
 17 34  1  0
 18 35  1  0
 20 36  1  0
 20 37  1  0
 21 38  1  0
 21 39  1  0
M  CHG  1  19  -1
M  END
>  <UniqueID>  (17) 
14

>  <SMILES>  (17) 
CN1CCC(c2ccc(F)cc2N=c2nccc[n-]2)CC1

>  <Energy>  (17) 
60.808550439725835

>  <Genealogy>  (17) 
CN1CCC(c2ccc(F)cc2N=c2nccc[n-]2)CC1 (protonated)
CN1CCC(c2ccc(F)cc2N=c2nccc[n-]2)CC1 (3D coordinates assigned)
CN1CCC(c2ccc(F)cc2N=c2nccc[n-]2)CC1 (nonaromatic ring conformer: 60.808550439725835 kcal/mol)

>  <smiles>  (17) 
CN1CCC(c2ccc(F)cc2N=c2nccc[nH]2)CC1

>  <score_type>  (17) 
oracle

>  <origin>  (17) 
adg

>  <m_score__min__energy>  (17) 
-8.7100000000000009

>  <m_primary>  (17) 
energy

$$$$
17:0
     RDKit          3D

 42 43  0  0  0  0  0  0  0  0999 V2000
   58.7040   32.4290   48.0900 C   0  0  0  0  0  0  0  0  0  0  0  0
   58.9360   33.9020   47.7360 C   0  0  0  0  0  0  0  0  0  0  0  0
   60.0160   34.0770   46.7300 N   0  0  0  0  0  0  0  0  0  0  0  0
   61.1600   33.1560   46.9580 C   0  0  0  0  0  0  0  0  0  0  0  0
   62.5430   33.7820   46.7560 C   0  0  0  0  0  0  0  0  0  0  0  0
   59.5660   34.1210   45.3060 C   0  0  0  0  0  0  0  0  0  0  0  0
   58.0480   33.9110   45.0700 C   0  0  0  0  0  0  0  0  0  0  0  0
   57.7680   32.9610   43.8960 C   0  0  0  0  0  0  0  0  0  0  0  0
   57.5930   31.5310   44.3460 C   0  0  0  0  0  0  0  0  0  0  0  0
   58.6450   30.8350   44.8100 C   0  0  0  0  0  0  0  0  0  0  0  0
   58.4930   29.4350   45.2390 C   0  0  0  0  0  0  0  0  0  0  0  0
   59.5980   28.6750   45.6500 C   0  0  0  0  0  0  0  0  0  0  0  0
   59.4110   27.3640   46.1040 C   0  0  0  0  0  0  0  0  0  0  0  0
   58.1240   26.8170   46.1590 C   0  0  0  0  0  0  0  0  0  0  0  0
   57.0210   27.5760   45.7550 C   0  0  0  0  0  0  0  0  0  0  0  0
   57.2080   28.8810   45.2870 C   0  0  0  0  0  0  0  0  0  0  0  0
   56.1140   29.6530   44.8860 O   0  0  0  0  0  0  0  0  0  0  0  0
   56.2680   30.8370   44.0970 C   0  0  0  0  0  0  0  0  0  0  0  0
   58.6858   32.3132   49.1837 H   0  0  0  0  0  0  0  0  0  0  0  0
   57.7427   32.0980   47.6702 H   0  0  0  0  0  0  0  0  0  0  0  0
   59.5171   31.8185   47.6702 H   0  0  0  0  0  0  0  0  0  0  0  0
   58.0029   34.3193   47.3295 H   0  0  0  0  0  0  0  0  0  0  0  0
   59.2433   34.4244   48.6540 H   0  0  0  0  0  0  0  0  0  0  0  0
   60.4270   35.0230   46.9160 H   0  0  0  0  0  0  0  0  0  0  0  0
   61.1001   32.7865   47.9924 H   0  0  0  0  0  0  0  0  0  0  0  0
   61.0693   32.3596   46.2047 H   0  0  0  0  0  0  0  0  0  0  0  0
   62.9987   33.9883   47.7357 H   0  0  0  0  0  0  0  0  0  0  0  0
   63.1822   33.0855   46.1936 H   0  0  0  0  0  0  0  0  0  0  0  0
   62.4414   34.7219   46.1936 H   0  0  0  0  0  0  0  0  0  0  0  0
   59.8380   35.1051   44.8966 H   0  0  0  0  0  0  0  0  0  0  0  0
   60.0648   33.2757   44.8094 H   0  0  0  0  0  0  0  0  0  0  0  0
   57.6032   33.4870   45.9823 H   0  0  0  0  0  0  0  0  0  0  0  0
   57.6064   34.8884   44.8255 H   0  0  0  0  0  0  0  0  0  0  0  0
   56.8483   33.2873   43.3884 H   0  0  0  0  0  0  0  0  0  0  0  0
   58.6345   32.9974   43.2194 H   0  0  0  0  0  0  0  0  0  0  0  0
   59.6317   31.3174   44.8699 H   0  0  0  0  0  0  0  0  0  0  0  0
   60.6086   29.1079   45.6157 H   0  0  0  0  0  0  0  0  0  0  0  0
   60.2770   26.7628   46.4180 H   0  0  0  0  0  0  0  0  0  0  0  0
   57.9797   25.7882   46.5206 H   0  0  0  0  0  0  0  0  0  0  0  0
   56.0090   27.1479   45.8051 H   0  0  0  0  0  0  0  0  0  0  0  0
   56.2075   30.5628   43.0334 H   0  0  0  0  0  0  0  0  0  0  0  0
   55.4662   31.5347   44.3803 H   0  0  0  0  0  0  0  0  0  0  0  0
  1  2  1  0
  2  3  1  0
  3  4  1  0
  4  5  1  0
  3  6  1  0
  6  7  1  0
  7  8  1  0
  8  9  1  0
  9 10  2  0
 10 11  1  0
 11 12  2  0
 12 13  1  0
 13 14  2  0
 14 15  1  0
 15 16  2  0
 16 17  1  0
 17 18  1  0
 18  9  1  0
 16 11  1  0
  1 19  1  0
  1 20  1  0
  1 21  1  0
  2 22  1  0
  2 23  1  0
  3 24  1  0
  4 25  1  0
  4 26  1  0
  5 27  1  0
  5 28  1  0
  5 29  1  0
  6 30  1  0
  6 31  1  0
  7 32  1  0
  7 33  1  0
  8 34  1  0
  8 35  1  0
 10 36  1  0
 12 37  1  0
 13 38  1  0
 14 39  1  0
 15 40  1  0
 18 41  1  0
 18 42  1  0
M  CHG  1   3   1
M  END
>  <UniqueID>  (18) 
15

>  <SMILES>  (18) 
CC[NH+](CC)CCCC1=Cc2ccccc2OC1

>  <Energy>  (18) 
47.34106362927647

>  <Genealogy>  (18) 
CC[NH+](CC)CCCC1=Cc2ccccc2OC1 (protonated)
CC[NH+](CC)CCCC1=Cc2ccccc2OC1 (3D coordinates assigned)
CC[NH+](CC)CCCC1=Cc2ccccc2OC1 (nonaromatic ring conformer: 47.34106362927647 kcal/mol)

>  <smiles>  (18) 
CCN(CC)CCCC1=Cc2ccccc2OC1

>  <score_type>  (18) 
oracle

>  <origin>  (18) 
adg

>  <m_score__min__energy>  (18) 
-5.2400000000000002

>  <m_primary>  (18) 
energy

$$$$
18:0
     RDKit          3D

 36 38  0  0  0  0  0  0  0  0999 V2000
   60.4350   29.6380   45.2410 O   0  0  0  0  0  0  0  0  0  0  0  0
   59.3460   29.6790   45.8750 C   0  0  0  0  0  0  0  0  0  0  0  0
   59.3340   29.4650   47.2870 N   0  0  0  0  0  0  0  0  0  0  0  0
   59.2830   30.5310   48.2730 C   0  0  0  0  0  0  0  0  0  0  0  0
   60.5420   31.3380   48.1700 C   0  0  0  0  0  0  0  0  0  0  0  0
   60.6670   32.5390   48.8850 C   0  0  0  0  0  0  0  0  0  0  0  0
   61.8090   33.3230   48.7160 C   0  0  0  0  0  0  0  0  0  0  0  0
   62.8090   32.9120   47.8360 C   0  0  0  0  0  0  0  0  0  0  0  0
   62.6490   31.7180   47.1300 C   0  0  0  0  0  0  0  0  0  0  0  0
   61.5290   30.9630   47.3030 N   0  0  0  0  0  0  0  0  0  0  0  0
   58.0890   29.9790   45.1590 C   0  0  0  0  0  0  0  0  0  0  0  0
   57.2660   29.0220   44.5920 C   0  0  0  0  0  0  0  0  0  0  0  0
   56.2580   29.7050   43.9400 C   0  0  0  0  0  0  0  0  0  0  0  0
   56.4980   31.0500   44.1350 C   0  0  0  0  0  0  0  0  0  0  0  0
   57.6070   31.2160   44.8830 N   0  0  0  0  0  0  0  0  0  0  0  0
   58.1130   32.4840   45.3260 C   0  0  0  0  0  0  0  0  0  0  0  0
   58.7870   33.3250   44.4280 C   0  0  0  0  0  0  0  0  0  0  0  0
   59.3060   34.5480   44.8650 C   0  0  0  0  0  0  0  0  0  0  0  0
   59.1420   34.9440   46.1970 C   0  0  0  0  0  0  0  0  0  0  0  0
   59.6540   36.1250   46.6220 F   0  0  0  0  0  0  0  0  0  0  0  0
   58.4500   34.1210   47.0900 C   0  0  0  0  0  0  0  0  0  0  0  0
   57.9300   32.8970   46.6560 C   0  0  0  0  0  0  0  0  0  0  0  0
   58.4129   31.1751   48.0778 H   0  0  0  0  0  0  0  0  0  0  0  0
   59.1912   30.1048   49.2829 H   0  0  0  0  0  0  0  0  0  0  0  0
   59.8711   32.8599   49.5732 H   0  0  0  0  0  0  0  0  0  0  0  0
   61.9199   34.2633   49.2760 H   0  0  0  0  0  0  0  0  0  0  0  0
   63.7143   33.5217   47.6993 H   0  0  0  0  0  0  0  0  0  0  0  0
   63.4309   31.3859   46.4312 H   0  0  0  0  0  0  0  0  0  0  0  0
   61.4270   30.0840   46.7470 H   0  0  0  0  0  0  0  0  0  0  0  0
   57.3903   27.9305   44.6493 H   0  0  0  0  0  0  0  0  0  0  0  0
   55.4248   29.2624   43.3745 H   0  0  0  0  0  0  0  0  0  0  0  0
   55.8761   31.8661   43.7385 H   0  0  0  0  0  0  0  0  0  0  0  0
   58.9076   33.0218   43.3775 H   0  0  0  0  0  0  0  0  0  0  0  0
   59.8439   35.1995   44.1606 H   0  0  0  0  0  0  0  0  0  0  0  0
   58.3142   34.4361   48.1351 H   0  0  0  0  0  0  0  0  0  0  0  0
   57.3764   32.2563   47.3581 H   0  0  0  0  0  0  0  0  0  0  0  0
  1  2  2  0
  2  3  1  0
  3  4  1  0
  4  5  1  0
  5  6  2  0
  6  7  1  0
  7  8  2  0
  8  9  1  0
  9 10  2  0
  2 11  1  0
 11 12  2  0
 12 13  1  0
 13 14  2  0
 14 15  1  0
 15 16  1  0
 16 17  2  0
 17 18  1  0
 18 19  2  0
 19 20  1  0
 19 21  1  0
 21 22  2  0
 10  5  1  0
 15 11  1  0
 22 16  1  0
  4 23  1  0
  4 24  1  0
  6 25  1  0
  7 26  1  0
  8 27  1  0
  9 28  1  0
 10 29  1  0
 12 30  1  0
 13 31  1  0
 14 32  1  0
 17 33  1  0
 18 34  1  0
 21 35  1  0
 22 36  1  0
M  CHG  2   3  -1  10   1
M  END
>  <UniqueID>  (19) 
16

>  <SMILES>  (19) 
O=C([N-]Cc1cccc[nH+]1)c1cccn1-c1ccc(F)cc1

>  <Energy>  (19) 
66.271305603802

>  <Genealogy>  (19) 
O=C([N-]Cc1cccc[nH+]1)c1cccn1-c1ccc(F)cc1 (protonated)
O=C([N-]Cc1cccc[nH+]1)c1cccn1-c1ccc(F)cc1 (3D coordinates assigned)
O=C([N-]Cc1cccc[nH+]1)c1cccn1-c1ccc(F)cc1 (optimized conformer: 66.271305603802 kcal/mol)

>  <smiles>  (19) 
O=C(NCc1ccccn1)c1cccn1-c1ccc(F)cc1

>  <score_type>  (19) 
oracle

>  <origin>  (19) 
adg

>  <m_score__min__energy>  (19) 
-7.4699999999999998

>  <m_primary>  (19) 
energy

$$$$
19:0
     RDKit          3D

 53 56  0  0  0  0  0  0  0  0999 V2000
   59.2670   34.9580   48.2760 O   0  0  0  0  0  0  0  0  0  0  0  0
   59.3660   33.7080   48.4150 C   0  0  0  0  0  0  0  0  0  0  0  0
   59.3980   33.1820   49.7960 C   0  0  0  0  0  0  0  0  0  0  0  0
   59.2790   34.0780   50.8690 C   0  0  0  0  0  0  0  0  0  0  0  0
   59.3310   33.6140   52.1850 C   0  0  0  0  0  0  0  0  0  0  0  0
   59.4600   32.2490   52.4400 C   0  0  0  0  0  0  0  0  0  0  0  0
   59.5250   31.3430   51.3810 C   0  0  0  0  0  0  0  0  0  0  0  0
   59.4740   31.7950   50.0490 C   0  0  0  0  0  0  0  0  0  0  0  0
   59.4460   30.8720   48.9490 N   0  0  0  0  0  0  0  0  0  0  0  0
   60.8420   30.2210   48.1550 S   0  0  0  0  0  0  0  0  0  0  0  0
   61.1090   28.8230   48.6420 O   0  0  0  0  0  0  0  0  0  0  0  0
   60.5880   30.1680   46.6750 O   0  0  0  0  0  0  0  0  0  0  0  0
   62.2240   31.2560   48.4640 C   0  0  0  0  0  0  0  0  0  0  0  0
   62.7990   32.1370   47.5590 C   0  0  0  0  0  0  0  0  0  0  0  0
   63.9330   32.7810   48.0680 C   0  0  0  0  0  0  0  0  0  0  0  0
   64.2380   32.4030   49.3680 C   0  0  0  0  0  0  0  0  0  0  0  0
   65.7060   33.0430   50.4040 Br  0  0  0  0  0  0  0  0  0  0  0  0
   63.1130   31.2700   49.8900 S   0  0  0  0  0  0  0  0  0  0  0  0
   59.4990   32.8770   47.2260 N   0  0  0  0  0  0  0  0  0  0  0  0
   58.2250   32.2130   46.8700 C   0  0  0  0  0  0  0  0  0  0  0  0
   57.2850   33.1140   46.0510 C   0  0  0  0  0  0  0  0  0  0  0  0
   57.9420   33.6990   44.8630 N   0  0  0  0  0  0  0  0  0  0  0  0
   58.1540   32.7320   43.7630 C   0  0  0  0  0  0  0  0  0  0  0  0
   57.6930   31.3520   44.1580 C   0  0  0  0  0  0  0  0  0  0  0  0
   58.6230   30.3730   44.5430 C   0  0  0  0  0  0  0  0  0  0  0  0
   58.1910   29.0880   44.8840 C   0  0  0  0  0  0  0  0  0  0  0  0
   56.8300   28.7750   44.8490 C   0  0  0  0  0  0  0  0  0  0  0  0
   55.9000   29.7430   44.4620 C   0  0  0  0  0  0  0  0  0  0  0  0
   56.3270   31.0290   44.1180 C   0  0  0  0  0  0  0  0  0  0  0  0
   59.1780   34.4060   45.2370 C   0  0  0  0  0  0  0  0  0  0  0  0
   60.1370   33.5170   46.0510 C   0  0  0  0  0  0  0  0  0  0  0  0
   59.1440   35.1519   50.6725 H   0  0  0  0  0  0  0  0  0  0  0  0
   59.2702   34.3259   53.0214 H   0  0  0  0  0  0  0  0  0  0  0  0
   59.5106   31.8863   53.4772 H   0  0  0  0  0  0  0  0  0  0  0  0
   59.6169   30.2667   51.5887 H   0  0  0  0  0  0  0  0  0  0  0  0
   62.4047   32.3112   46.5470 H   0  0  0  0  0  0  0  0  0  0  0  0
   64.5225   33.5124   47.4956 H   0  0  0  0  0  0  0  0  0  0  0  0
   60.1510   32.1070   47.5080 H   0  0  0  0  0  0  0  0  0  0  0  0
   58.4519   31.3138   46.2784 H   0  0  0  0  0  0  0  0  0  0  0  0
   57.7086   31.9673   47.8097 H   0  0  0  0  0  0  0  0  0  0  0  0
   56.4256   32.5139   45.7173 H   0  0  0  0  0  0  0  0  0  0  0  0
   56.9749   33.9457   46.7007 H   0  0  0  0  0  0  0  0  0  0  0  0
   57.5863   33.0616   42.8803 H   0  0  0  0  0  0  0  0  0  0  0  0
   59.2297   32.6899   43.5369 H   0  0  0  0  0  0  0  0  0  0  0  0
   59.6949   30.6180   44.5764 H   0  0  0  0  0  0  0  0  0  0  0  0
   58.9234   28.3226   45.1802 H   0  0  0  0  0  0  0  0  0  0  0  0
   56.4905   27.7661   45.1262 H   0  0  0  0  0  0  0  0  0  0  0  0
   54.8294   29.4928   44.4279 H   0  0  0  0  0  0  0  0  0  0  0  0
   55.5917   31.7891   43.8155 H   0  0  0  0  0  0  0  0  0  0  0  0
   59.6905   34.7317   44.3198 H   0  0  0  0  0  0  0  0  0  0  0  0
   58.8977   35.2631   45.8669 H   0  0  0  0  0  0  0  0  0  0  0  0
   60.5228   32.7261   45.3909 H   0  0  0  0  0  0  0  0  0  0  0  0
   60.9359   34.1695   46.4331 H   0  0  0  0  0  0  0  0  0  0  0  0
  1  2  2  0
  2  3  1  0
  3  4  2  0
  4  5  1  0
  5  6  2  0
  6  7  1  0
  7  8  2  0
  8  9  1  0
  9 10  1  0
 10 11  2  0
 10 12  2  0
 10 13  1  0
 13 14  2  0
 14 15  1  0
 15 16  2  0
 16 17  1  0
 16 18  1  0
  2 19  1  0
 19 20  1  0
 20 21  1  0
 21 22  1  0
 22 23  1  0
 23 24  1  0
 24 25  2  0
 25 26  1  0
 26 27  2  0
 27 28  1  0
 28 29  2  0
 22 30  1  0
 30 31  1  0
  8  3  1  0
 18 13  1  0
 31 19  1  0
 29 24  1  0
  4 32  1  0
  5 33  1  0
  6 34  1  0
  7 35  1  0
 14 36  1  0
 15 37  1  0
 19 38  1  0
 20 39  1  0
 20 40  1  0
 21 41  1  0
 21 42  1  0
 23 43  1  0
 23 44  1  0
 25 45  1  0
 26 46  1  0
 27 47  1  0
 28 48  1  0
 29 49  1  0
 30 50  1  0
 30 51  1  0
 31 52  1  0
 31 53  1  0
M  CHG  2   9  -1  19   1
M  END
>  <UniqueID>  (20) 
17

>  <SMILES>  (20) 
O=C(c1ccccc1[N-]S(=O)(=O)c1ccc(Br)s1)[NH+]1CCN(Cc2ccccc2)CC1

>  <Energy>  (20) 
105.53086153529533

>  <Genealogy>  (20) 
O=C(c1ccccc1[N-]S(=O)(=O)c1ccc(Br)s1)[NH+]1CCN(Cc2ccccc2)CC1 (protonated)
O=C(c1ccccc1[N-]S(=O)(=O)c1ccc(Br)s1)[NH+]1CCN(Cc2ccccc2)CC1 (3D coordinates assigned)
O=C(c1ccccc1[N-]S(=O)(=O)c1ccc(Br)s1)[NH+]1CCN(Cc2ccccc2)CC1 (nonaromatic ring conformer: 105.53086153529533 kcal/mol)

>  <smiles>  (20) 
O=C(c1ccccc1NS(=O)(=O)c1ccc(Br)s1)N1CCN(Cc2ccccc2)CC1

>  <score_type>  (20) 
oracle

>  <origin>  (20) 
adg

>  <m_score__min__energy>  (20) 
-8.7400000000000002

>  <m_primary>  (20) 
energy

$$$$
20:0
     RDKit          3D

 44 48  0  0  0  0  0  0  0  0999 V2000
   52.4883   31.9051   53.6612 H   0  0  0  0  0  0  0  0  0  0  0  0
   52.7010   31.1380   52.9020 C   0  0  0  0  0  0  0  0  0  0  0  0
   51.9670   31.2090   51.6290 C   0  0  0  0  0  0  0  0  0  0  0  0
   52.1940   30.3800   50.5950 N   0  0  0  0  0  0  0  0  0  0  0  0
   51.3870   30.8640   49.6250 C   0  0  0  0  0  0  0  0  0  0  0  0
   51.3050   30.3350   48.4860 O   0  0  0  0  0  0  0  0  0  0  0  0
   50.6820   31.9630   49.9690 N   0  0  0  0  0  0  0  0  0  0  0  0
   51.0710   32.1770   51.2350 C   0  0  0  0  0  0  0  0  0  0  0  0
   50.6460   33.2570   52.0000 O   0  0  0  0  0  0  0  0  0  0  0  0
   53.6130   30.1990   53.1980 C   0  0  0  0  0  0  0  0  0  0  0  0
   53.4550   29.1770   54.1220 C   0  0  0  0  0  0  0  0  0  0  0  0
   52.5489   28.9925   54.7177 H   0  0  0  0  0  0  0  0  0  0  0  0
   54.5890   28.4430   54.1760 N   0  0  0  0  0  0  0  0  0  0  0  0
   54.7170   27.6310   54.8100 H   0  0  0  0  0  0  0  0  0  0  0  0
   55.4710   28.9640   53.3300 N   0  0  0  0  0  0  0  0  0  0  0  0
   56.7680   28.6130   53.0510 C   0  0  0  0  0  0  0  0  0  0  0  0
   57.3800   27.5750   53.5510 N   0  0  0  0  0  0  0  0  0  0  0  0
   58.6460   27.5020   54.2690 C   0  0  0  0  0  0  0  0  0  0  0  0
   58.4151   26.6313   54.9003 H   0  0  0  0  0  0  0  0  0  0  0  0
   59.2550   28.8780   54.4740 C   0  0  0  0  0  0  0  0  0  0  0  0
   58.7132   29.7748   54.1390 H   0  0  0  0  0  0  0  0  0  0  0  0
   59.6434   29.4358   55.3388 H   0  0  0  0  0  0  0  0  0  0  0  0
   59.8540   27.9260   53.4520 C   0  0  0  0  0  0  0  0  0  0  0  0
   59.7458   28.1336   52.3772 H   0  0  0  0  0  0  0  0  0  0  0  0
   60.8556   27.5092   53.2705 H   0  0  0  0  0  0  0  0  0  0  0  0
   57.4580   29.3920   52.1740 N   0  0  0  0  0  0  0  0  0  0  0  0
   56.8870   30.4870   51.5890 C   0  0  0  0  0  0  0  0  0  0  0  0
   57.5560   31.2220   50.7520 N   0  0  0  0  0  0  0  0  0  0  0  0
   59.0000   31.1340   50.5320 C   0  0  0  0  0  0  0  0  0  0  0  0
   59.3582   32.0799   50.0996 H   0  0  0  0  0  0  0  0  0  0  0  0
   59.4950   30.9451   51.4960 H   0  0  0  0  0  0  0  0  0  0  0  0
   59.3240   30.0050   49.5900 C   0  0  0  0  0  0  0  0  0  0  0  0
   58.9140   30.0520   48.2470 C   0  0  0  0  0  0  0  0  0  0  0  0
   58.3301   30.9099   47.8824 H   0  0  0  0  0  0  0  0  0  0  0  0
   59.2450   29.0130   47.3720 C   0  0  0  0  0  0  0  0  0  0  0  0
   58.9209   29.0549   46.3217 H   0  0  0  0  0  0  0  0  0  0  0  0
   59.9880   27.9200   47.8310 C   0  0  0  0  0  0  0  0  0  0  0  0
   60.4040   26.6180   46.7310 Cl  0  0  0  0  0  0  0  0  0  0  0  0
   60.4010   27.8670   49.1670 C   0  0  0  0  0  0  0  0  0  0  0  0
   60.9851   27.0076   49.5280 H   0  0  0  0  0  0  0  0  0  0  0  0
   60.0720   28.9050   50.0430 C   0  0  0  0  0  0  0  0  0  0  0  0
   60.4001   28.8608   51.0920 H   0  0  0  0  0  0  0  0  0  0  0  0
   55.6000   30.8140   51.8780 N   0  0  0  0  0  0  0  0  0  0  0  0
   54.9080   30.0280   52.7350 C   0  0  0  0  0  0  0  0  0  0  0  0
  1  2  1  0
  2  3  1  0
  3  4  1  0
  4  5  1  0
  5  6  2  0
  5  7  1  0
  7  8  1  0
  8  9  1  0
  2 10  2  0
 10 11  1  0
 11 12  1  0
 11 13  2  0
 13 14  1  0
 13 15  1  0
 15 16  1  0
 16 17  2  3
 17 18  1  0
 18 19  1  0
 18 20  1  0
 20 21  1  0
 20 22  1  0
 20 23  1  0
 23 24  1  0
 23 25  1  0
 16 26  1  0
 26 27  1  0
 27 28  2  3
 28 29  1  0
 29 30  1  0
 29 31  1  0
 29 32  1  0
 32 33  2  0
 33 34  1  0
 33 35  1  0
 35 36  1  0
 35 37  2  0
 37 38  1  0
 37 39  1  0
 39 40  1  0
 39 41  2  0
 41 42  1  0
 27 43  1  0
 43 44  2  0
  8  3  2  0
 44 10  1  0
 44 15  1  0
 23 18  1  0
 41 32  1  0
M  CHG  5   4  -1   7  -1   9  -1  13   1  26  -1
M  END
>  <UniqueID>  (21) 
18

>  <SMILES>  (21) 
O=c1[n-]c([O-])c(/C=c2/c[nH+]n3c(=NC4CC4)[n-]c(=NCc4ccc(Cl)cc4)nc23)[n-]1

>  <Energy>  (21) 
395.58864250472027

>  <Genealogy>  (21) 
O=c1[n-]c([O-])c(C=c2c[nH+]n3c(=NC4CC4)[n-]c(=NCc4ccc(Cl)cc4)nc23)[n-]1 (protonated)
O=c1[n-]c([O-])c(/C=c2/c[nH+]n3c(=NC4CC4)[n-]c(=NCc4ccc(Cl)cc4)nc23)[n-]1 (cis-trans isomerization)
O=c1[n-]c([O-])c(/C=c2/c[nH+]n3c(=NC4CC4)[n-]c(=NCc4ccc(Cl)cc4)nc23)[n-]1 (3D coordinates assigned)
O=c1[n-]c([O-])c(/C=c2/c[nH+]n3c(=NC4CC4)[n-]c(=NCc4ccc(Cl)cc4)nc23)[n-]1 (nonaromatic ring conformer: 395.58864250472027 kcal/mol)

>  <smiles>  (21) 
O=c1[nH]c(O)c(C=c2cnn3c(=NC4CC4)[nH]c(=NCc4ccc(Cl)cc4)nc23)[nH]1

>  <score_type>  (21) 
oracle

>  <origin>  (21) 
adg

>  <m_score__min__energy>  (21) 
-17.16

>  <m_primary>  (21) 
energy

$$$$
21:0
     RDKit          3D

 61 63  0  0  0  0  0  0  0  0999 V2000
   57.8200   26.2410   44.6670 C   0  0  0  0  0  0  0  0  0  0  0  0
   58.1510   27.3430   43.7120 C   0  0  0  0  0  0  0  0  0  0  0  0
   58.8010   27.0740   42.6670 O   0  0  0  0  0  0  0  0  0  0  0  0
   57.6380   28.7100   43.9260 C   0  0  0  0  0  0  0  0  0  0  0  0
   56.7060   29.2520   43.0180 C   0  0  0  0  0  0  0  0  0  0  0  0
   56.2950   30.5920   43.1220 C   0  0  0  0  0  0  0  0  0  0  0  0
   56.7940   31.4140   44.1430 C   0  0  0  0  0  0  0  0  0  0  0  0
   57.6820   30.8610   45.0750 C   0  0  0  0  0  0  0  0  0  0  0  0
   58.0910   29.5460   44.9660 C   0  0  0  0  0  0  0  0  0  0  0  0
   58.9720   29.3290   46.0120 C   0  0  0  0  0  0  0  0  0  0  0  0
   59.5900   28.0810   46.3630 N   0  0  0  0  0  0  0  0  0  0  0  0
   60.7700   27.6130   45.6380 C   0  0  0  0  0  0  0  0  0  0  0  0
   59.1540   27.3640   47.5600 C   0  0  0  0  0  0  0  0  0  0  0  0
   59.0730   30.5300   46.7140 C   0  0  0  0  0  0  0  0  0  0  0  0
   59.9540   30.7540   47.9290 C   0  0  0  0  0  0  0  0  0  0  0  0
   60.6800   32.0490   47.8960 N   0  0  0  0  0  0  0  0  0  0  0  0
   60.7920   32.6190   49.2680 C   0  0  0  0  0  0  0  0  0  0  0  0
   62.1630   32.3310   49.8980 C   0  0  0  0  0  0  0  0  0  0  0  0
   63.2550   32.9550   49.1160 N   0  0  0  0  0  0  0  0  0  0  0  0
   64.5300   32.2690   49.3800 C   0  0  0  0  0  0  0  0  0  0  0  0
   62.9730   33.0310   47.6610 C   0  0  0  0  0  0  0  0  0  0  0  0
   61.9940   31.9380   47.2050 C   0  0  0  0  0  0  0  0  0  0  0  0
   58.2690   31.4700   46.1390 N   0  0  0  0  0  0  0  0  0  0  0  0
   58.1350   33.1560   46.5990 S   0  0  0  0  0  0  0  0  0  0  0  0
   56.8340   33.7390   46.1240 O   0  0  0  0  0  0  0  0  0  0  0  0
   58.1550   33.2850   48.0960 O   0  0  0  0  0  0  0  0  0  0  0  0
   59.4740   34.0450   45.9210 N   0  0  0  0  0  0  0  0  0  0  0  0
   59.6220   35.3210   46.6330 C   0  0  0  0  0  0  0  0  0  0  0  0
   59.2220   34.2890   44.4950 C   0  0  0  0  0  0  0  0  0  0  0  0
   57.9294   26.6051   45.6992 H   0  0  0  0  0  0  0  0  0  0  0  0
   56.7834   25.9120   44.5022 H   0  0  0  0  0  0  0  0  0  0  0  0
   58.5037   25.3952   44.5022 H   0  0  0  0  0  0  0  0  0  0  0  0
   56.2953   28.6184   42.2181 H   0  0  0  0  0  0  0  0  0  0  0  0
   55.5757   30.9996   42.3964 H   0  0  0  0  0  0  0  0  0  0  0  0
   56.4946   32.4703   44.2106 H   0  0  0  0  0  0  0  0  0  0  0  0
   61.5441   27.3060   46.3567 H   0  0  0  0  0  0  0  0  0  0  0  0
   60.4958   26.7555   45.0059 H   0  0  0  0  0  0  0  0  0  0  0  0
   61.1580   28.4253   45.0059 H   0  0  0  0  0  0  0  0  0  0  0  0
   59.4859   27.9097   48.4556 H   0  0  0  0  0  0  0  0  0  0  0  0
   58.0566   27.2880   47.5626 H   0  0  0  0  0  0  0  0  0  0  0  0
   59.5914   26.3547   47.5626 H   0  0  0  0  0  0  0  0  0  0  0  0
   59.3211   30.7311   48.8284 H   0  0  0  0  0  0  0  0  0  0  0  0
   60.7108   29.9557   47.9350 H   0  0  0  0  0  0  0  0  0  0  0  0
   60.0980   32.7220   47.3460 H   0  0  0  0  0  0  0  0  0  0  0  0
   60.6474   33.7081   49.2135 H   0  0  0  0  0  0  0  0  0  0  0  0
   60.0222   32.1477   49.8967 H   0  0  0  0  0  0  0  0  0  0  0  0
   62.1792   32.7342   50.9213 H   0  0  0  0  0  0  0  0  0  0  0  0
   62.3198   31.2423   49.9068 H   0  0  0  0  0  0  0  0  0  0  0  0
   64.6838   32.1862   50.4660 H   0  0  0  0  0  0  0  0  0  0  0  0
   64.5040   31.2631   48.9356 H   0  0  0  0  0  0  0  0  0  0  0  0
   65.3551   32.8449   48.9356 H   0  0  0  0  0  0  0  0  0  0  0  0
   62.5365   34.0151   47.4351 H   0  0  0  0  0  0  0  0  0  0  0  0
   63.9212   32.8826   47.1236 H   0  0  0  0  0  0  0  0  0  0  0  0
   61.8351   32.0323   46.1206 H   0  0  0  0  0  0  0  0  0  0  0  0
   62.4313   30.9607   47.4572 H   0  0  0  0  0  0  0  0  0  0  0  0
   59.6010   35.1401   47.7178 H   0  0  0  0  0  0  0  0  0  0  0  0
   60.5801   35.7858   46.3572 H   0  0  0  0  0  0  0  0  0  0  0  0
   58.7958   35.9928   46.3572 H   0  0  0  0  0  0  0  0  0  0  0  0
   58.4356   35.0505   44.3867 H   0  0  0  0  0  0  0  0  0  0  0  0
   60.1456   34.6449   44.0151 H   0  0  0  0  0  0  0  0  0  0  0  0
   58.8961   33.3544   44.0151 H   0  0  0  0  0  0  0  0  0  0  0  0
  1  2  1  0
  2  3  2  0
  2  4  1  0
  4  5  2  0
  5  6  1  0
  6  7  2  0
  7  8  1  0
  8  9  2  0
  9 10  1  0
 10 11  1  0
 11 12  1  0
 11 13  1  0
 10 14  2  0
 14 15  1  0
 15 16  1  0
 16 17  1  0
 17 18  1  0
 18 19  1  0
 19 20  1  0
 19 21  1  0
 21 22  1  0
 14 23  1  0
 23 24  1  0
 24 25  2  0
 24 26  2  0
 24 27  1  0
 27 28  1  0
 27 29  1  0
  9  4  1  0
 22 16  1  0
 23  8  1  0
  1 30  1  0
  1 31  1  0
  1 32  1  0
  5 33  1  0
  6 34  1  0
  7 35  1  0
 12 36  1  0
 12 37  1  0
 12 38  1  0
 13 39  1  0
 13 40  1  0
 13 41  1  0
 15 42  1  0
 15 43  1  0
 16 44  1  0
 17 45  1  0
 17 46  1  0
 18 47  1  0
 18 48  1  0
 20 49  1  0
 20 50  1  0
 20 51  1  0
 21 52  1  0
 21 53  1  0
 22 54  1  0
 22 55  1  0
 28 56  1  0
 28 57  1  0
 28 58  1  0
 29 59  1  0
 29 60  1  0
 29 61  1  0
M  CHG  1  16   1
M  END
>  <UniqueID>  (22) 
19

>  <SMILES>  (22) 
CC(=O)c1cccc2c1c(N(C)C)c(C[NH+]1CCN(C)CC1)n2S(=O)(=O)N(C)C

>  <Energy>  (22) 
116.36281878507839

>  <Genealogy>  (22) 
CC(=O)c1cccc2c1c(N(C)C)c(C[NH+]1CCN(C)CC1)n2S(=O)(=O)N(C)C (protonated)
CC(=O)c1cccc2c1c(N(C)C)c(C[NH+]1CCN(C)CC1)n2S(=O)(=O)N(C)C (3D coordinates assigned)
CC(=O)c1cccc2c1c(N(C)C)c(C[NH+]1CCN(C)CC1)n2S(=O)(=O)N(C)C (nonaromatic ring conformer: 116.36281878507839 kcal/mol)

>  <smiles>  (22) 
CC(=O)c1cccc2c1c(N(C)C)c(CN1CCN(C)CC1)n2S(=O)(=O)N(C)C

>  <score_type>  (22) 
oracle

>  <origin>  (22) 
adg

>  <m_score__min__energy>  (22) 
-6.5599999999999996

>  <m_primary>  (22) 
energy

$$$$
22:0
     RDKit          3D

 58 61  0  0  0  0  0  0  0  0999 V2000
   60.2550   29.2490   52.5080 C   0  0  0  0  0  0  0  0  0  0  0  0
   60.0810   29.0450   51.0320 C   0  0  0  0  0  0  0  0  0  0  0  0
   60.7800   28.0300   50.3670 C   0  0  0  0  0  0  0  0  0  0  0  0
   60.5860   27.8100   49.0000 C   0  0  0  0  0  0  0  0  0  0  0  0
   59.6770   28.6010   48.2630 C   0  0  0  0  0  0  0  0  0  0  0  0
   59.4050   28.3750   46.7660 C   0  0  1  0  0  0  0  0  0  0  0  0
   60.2270   27.2270   46.1430 C   0  0  0  0  0  0  0  0  0  0  0  0
   57.8800   28.1440   46.5080 C   0  0  0  0  0  0  0  0  0  0  0  0
   57.4860   29.2740   45.6150 C   0  0  0  0  0  0  0  0  0  0  0  0
   56.3100   29.4670   45.2080 O   0  0  0  0  0  0  0  0  0  0  0  0
   58.5680   30.1250   45.2830 N   0  0  0  0  0  0  0  0  0  0  0  0
   58.4890   31.3720   44.5220 C   0  0  0  0  0  0  0  0  0  0  0  0
   57.4020   32.2800   45.0680 C   0  0  0  0  0  0  0  0  0  0  0  0
   56.2400   31.9540   44.8730 O   0  0  0  0  0  0  0  0  0  0  0  0
   57.6600   33.4860   45.8520 N   0  0  0  0  0  0  0  0  0  0  0  0
   57.8120   33.1690   47.2900 C   0  0  0  0  0  0  0  0  0  0  0  0
   59.1580   32.5070   47.5870 C   0  0  0  0  0  0  0  0  0  0  0  0
   60.2430   33.3580   47.0950 N   0  0  0  0  0  0  0  0  0  0  0  0
   61.5050   33.3910   47.7910 C   0  0  0  0  0  0  0  0  0  0  0  0
   61.5680   33.7630   49.1470 C   0  0  0  0  0  0  0  0  0  0  0  0
   62.7950   33.7900   49.8150 C   0  0  0  0  0  0  0  0  0  0  0  0
   63.9700   33.4490   49.1390 C   0  0  0  0  0  0  0  0  0  0  0  0
   65.1590   33.4720   49.7910 F   0  0  0  0  0  0  0  0  0  0  0  0
   63.9180   33.0830   47.7910 C   0  0  0  0  0  0  0  0  0  0  0  0
   62.6920   33.0540   47.1190 C   0  0  0  0  0  0  0  0  0  0  0  0
   60.1690   33.8330   45.7100 C   0  0  0  0  0  0  0  0  0  0  0  0
   58.7600   34.3660   45.3820 C   0  0  0  0  0  0  0  0  0  0  0  0
   59.6950   29.6330   45.9870 C   0  0  0  0  0  0  0  0  0  0  0  0
   60.8210   30.1980   45.9560 O   0  0  0  0  0  0  0  0  0  0  0  0
   58.9580   29.6020   48.9530 C   0  0  0  0  0  0  0  0  0  0  0  0
   59.1570   29.8190   50.3180 C   0  0  0  0  0  0  0  0  0  0  0  0
   59.6354   28.5225   53.0541 H   0  0  0  0  0  0  0  0  0  0  0  0
   61.3120   29.1042   52.7761 H   0  0  0  0  0  0  0  0  0  0  0  0
   59.9453   30.2699   52.7761 H   0  0  0  0  0  0  0  0  0  0  0  0
   61.4882   27.4000   50.9253 H   0  0  0  0  0  0  0  0  0  0  0  0
   61.1477   27.0118   48.4926 H   0  0  0  0  0  0  0  0  0  0  0  0
   60.6660   26.6139   46.9438 H   0  0  0  0  0  0  0  0  0  0  0  0
   59.5702   26.6016   45.5206 H   0  0  0  0  0  0  0  0  0  0  0  0
   61.0307   27.6473   45.5206 H   0  0  0  0  0  0  0  0  0  0  0  0
   57.7100   27.1769   46.0121 H   0  0  0  0  0  0  0  0  0  0  0  0
   57.2939   28.1173   47.4385 H   0  0  0  0  0  0  0  0  0  0  0  0
   59.4561   31.8924   44.5844 H   0  0  0  0  0  0  0  0  0  0  0  0
   58.2468   31.1278   43.4771 H   0  0  0  0  0  0  0  0  0  0  0  0
   56.7860   34.0600   45.7690 H   0  0  0  0  0  0  0  0  0  0  0  0
   57.7381   34.1009   47.8697 H   0  0  0  0  0  0  0  0  0  0  0  0
   57.0154   32.4643   47.5706 H   0  0  0  0  0  0  0  0  0  0  0  0
   59.2657   32.3676   48.6728 H   0  0  0  0  0  0  0  0  0  0  0  0
   59.2034   31.5298   47.0840 H   0  0  0  0  0  0  0  0  0  0  0  0
   60.6467   34.0338   49.6836 H   0  0  0  0  0  0  0  0  0  0  0  0
   62.8364   34.0803   50.8752 H   0  0  0  0  0  0  0  0  0  0  0  0
   64.8428   32.8174   47.2580 H   0  0  0  0  0  0  0  0  0  0  0  0
   62.6567   32.7657   46.0581 H   0  0  0  0  0  0  0  0  0  0  0  0
   60.9013   34.6413   45.5676 H   0  0  0  0  0  0  0  0  0  0  0  0
   60.3893   32.9899   45.0387 H   0  0  0  0  0  0  0  0  0  0  0  0
   58.6428   35.3510   45.8574 H   0  0  0  0  0  0  0  0  0  0  0  0
   58.6840   34.4148   44.2857 H   0  0  0  0  0  0  0  0  0  0  0  0
   58.2302   30.2200   48.4068 H   0  0  0  0  0  0  0  0  0  0  0  0
   58.5846   30.6027   50.8359 H   0  0  0  0  0  0  0  0  0  0  0  0
  1  2  1  0
  2  3  2  0
  3  4  1  0
  4  5  2  0
  5  6  1  0
  6  7  1  6
  6  8  1  0
  8  9  1  0
  9 10  2  0
  9 11  1  0
 11 12  1  0
 12 13  1  0
 13 14  2  0
 13 15  1  0
 15 16  1  0
 16 17  1  0
 17 18  1  0
 18 19  1  0
 19 20  2  0
 20 21  1  0
 21 22  2  0
 22 23  1  0
 22 24  1  0
 24 25  2  0
 18 26  1  0
 26 27  1  0
 11 28  1  0
 28 29  2  0
  5 30  1  0
 30 31  2  0
 31  2  1  0
 28  6  1  0
 27 15  1  0
 25 19  1  0
  1 32  1  0
  1 33  1  0
  1 34  1  0
  3 35  1  0
  4 36  1  0
  7 37  1  0
  7 38  1  0
  7 39  1  0
  8 40  1  0
  8 41  1  0
 12 42  1  0
 12 43  1  0
 15 44  1  0
 16 45  1  0
 16 46  1  0
 17 47  1  0
 17 48  1  0
 20 49  1  0
 21 50  1  0
 24 51  1  0
 25 52  1  0
 26 53  1  0
 26 54  1  0
 27 55  1  0
 27 56  1  0
 30 57  1  0
 31 58  1  0
M  CHG  1  15   1
M  END
>  <UniqueID>  (23) 
20

>  <SMILES>  (23) 
Cc1ccc([C@@]2(C)CC(=O)N(CC(=O)[NH+]3CCN(c4ccc(F)cc4)CC3)C2=O)cc1

>  <Energy>  (23) 
87.73613766279331

>  <Genealogy>  (23) 
Cc1ccc(C2(C)CC(=O)N(CC(=O)[NH+]3CCN(c4ccc(F)cc4)CC3)C2=O)cc1 (protonated)
Cc1ccc([C@@]2(C)CC(=O)N(CC(=O)[NH+]3CCN(c4ccc(F)cc4)CC3)C2=O)cc1 (chirality)
Cc1ccc([C@@]2(C)CC(=O)N(CC(=O)[NH+]3CCN(c4ccc(F)cc4)CC3)C2=O)cc1 (3D coordinates assigned)
Cc1ccc([C@@]2(C)CC(=O)N(CC(=O)[NH+]3CCN(c4ccc(F)cc4)CC3)C2=O)cc1 (nonaromatic ring conformer: 87.73613766279331 kcal/mol)

>  <smiles>  (23) 
Cc1ccc(C2(C)CC(=O)N(CC(=O)N3CCN(c4ccc(F)cc4)CC3)C2=O)cc1

>  <score_type>  (23) 
oracle

>  <origin>  (23) 
adg

>  <m_score__min__energy>  (23) 
-8.1699999999999999

>  <m_primary>  (23) 
energy

$$$$
23:0
     RDKit          3D

 53 57  0  0  0  0  0  0  0  0999 V2000
   55.8900   22.2890   42.7530 N   0  0  0  0  0  0  0  0  0  0  0  0
   56.5710   21.2280   43.4160 C   0  0  0  0  0  0  0  0  0  0  0  0
   56.1050   20.0590   43.3710 O   0  0  0  0  0  0  0  0  0  0  0  0
   57.8540   21.4960   44.1380 C   0  0  0  0  0  0  0  0  0  0  0  0
   57.6060   22.1370   45.3890 O   0  0  0  0  0  0  0  0  0  0  0  0
   57.7060   23.5170   45.6280 C   0  0  0  0  0  0  0  0  0  0  0  0
   56.5800   24.3520   45.7500 C   0  0  0  0  0  0  0  0  0  0  0  0
   56.7380   25.7200   45.9870 C   0  0  0  0  0  0  0  0  0  0  0  0
   58.0200   26.2830   46.0930 C   0  0  0  0  0  0  0  0  0  0  0  0
   58.1530   27.7320   46.3530 C   0  0  0  0  0  0  0  0  0  0  0  0
   58.4380   28.2370   47.5380 O   0  0  0  0  0  0  0  0  0  0  0  0
   58.5160   29.5390   47.5040 N   0  0  0  0  0  0  0  0  0  0  0  0
   58.2600   29.8960   46.2320 C   0  0  0  0  0  0  0  0  0  0  0  0
   58.0090   28.7910   45.4730 C   0  0  0  0  0  0  0  0  0  0  0  0
   57.7400   28.8600   43.9970 C   0  0  0  0  0  0  0  0  0  0  0  0
   57.1400   30.2330   43.6080 C   0  0  0  0  0  0  0  0  0  0  0  0
   57.7580   31.4100   44.3550 C   0  0  0  0  0  0  0  0  0  0  0  0
   57.7360   32.6910   43.7870 C   0  0  0  0  0  0  0  0  0  0  0  0
   58.2030   33.7920   44.5080 C   0  0  0  0  0  0  0  0  0  0  0  0
   58.6810   33.6350   45.8240 C   0  0  0  0  0  0  0  0  0  0  0  0
   59.1510   34.7120   46.5940 O   0  0  0  0  0  0  0  0  0  0  0  0
   59.5090   34.6450   47.9750 C   0  0  0  0  0  0  0  0  0  0  0  0
   60.9450   34.2190   48.1360 C   0  0  0  0  0  0  0  0  0  0  0  0
   61.5310   34.1890   49.4120 C   0  0  0  0  0  0  0  0  0  0  0  0
   62.8610   33.7850   49.5670 C   0  0  0  0  0  0  0  0  0  0  0  0
   63.6100   33.3980   48.4530 C   0  0  0  0  0  0  0  0  0  0  0  0
   64.8990   33.0060   48.6050 F   0  0  0  0  0  0  0  0  0  0  0  0
   63.0300   33.4130   47.1810 C   0  0  0  0  0  0  0  0  0  0  0  0
   61.7010   33.8170   47.0220 C   0  0  0  0  0  0  0  0  0  0  0  0
   58.6920   32.3590   46.3990 C   0  0  0  0  0  0  0  0  0  0  0  0
   58.2320   31.2510   45.6750 C   0  0  0  0  0  0  0  0  0  0  0  0
   59.1420   25.4440   45.9870 C   0  0  0  0  0  0  0  0  0  0  0  0
   58.9830   24.0760   45.7510 C   0  0  0  0  0  0  0  0  0  0  0  0
   56.2380   22.6640   41.8420 H   0  0  0  0  0  0  0  0  0  0  0  0
   58.3729   20.5429   44.3175 H   0  0  0  0  0  0  0  0  0  0  0  0
   58.4758   22.1591   43.5186 H   0  0  0  0  0  0  0  0  0  0  0  0
   55.5701   23.9256   45.6583 H   0  0  0  0  0  0  0  0  0  0  0  0
   55.8505   26.3614   46.0914 H   0  0  0  0  0  0  0  0  0  0  0  0
   58.6838   28.7120   43.4517 H   0  0  0  0  0  0  0  0  0  0  0  0
   57.0170   28.0736   43.7346 H   0  0  0  0  0  0  0  0  0  0  0  0
   57.2958   30.3864   42.5299 H   0  0  0  0  0  0  0  0  0  0  0  0
   56.0746   30.2052   43.8804 H   0  0  0  0  0  0  0  0  0  0  0  0
   57.3485   32.8301   42.7670 H   0  0  0  0  0  0  0  0  0  0  0  0
   58.1976   34.7897   44.0448 H   0  0  0  0  0  0  0  0  0  0  0  0
   59.3739   35.6369   48.4310 H   0  0  0  0  0  0  0  0  0  0  0  0
   58.8641   33.9044   48.4706 H   0  0  0  0  0  0  0  0  0  0  0  0
   60.9418   34.4843   50.2927 H   0  0  0  0  0  0  0  0  0  0  0  0
   63.3180   33.7720   50.5675 H   0  0  0  0  0  0  0  0  0  0  0  0
   63.6198   33.1067   46.3045 H   0  0  0  0  0  0  0  0  0  0  0  0
   61.2454   33.8201   46.0208 H   0  0  0  0  0  0  0  0  0  0  0  0
   59.0640   32.2252   47.4255 H   0  0  0  0  0  0  0  0  0  0  0  0
   60.1522   25.8668   46.0905 H   0  0  0  0  0  0  0  0  0  0  0  0
   59.8703   23.4321   45.6610 H   0  0  0  0  0  0  0  0  0  0  0  0
  1  2  1  0
  2  3  2  0
  2  4  1  0
  4  5  1  0
  5  6  1  0
  6  7  2  0
  7  8  1  0
  8  9  2  0
  9 10  1  0
 10 11  1  0
 11 12  1  0
 12 13  2  0
 13 14  1  0
 14 15  1  0
 15 16  1  0
 16 17  1  0
 17 18  2  0
 18 19  1  0
 19 20  2  0
 20 21  1  0
 21 22  1  0
 22 23  1  0
 23 24  2  0
 24 25  1  0
 25 26  2  0
 26 27  1  0
 26 28  1  0
 28 29  2  0
 20 30  1  0
 30 31  2  0
  9 32  1  0
 32 33  2  0
 33  6  1  0
 14 10  2  0
 31 17  1  0
 31 13  1  0
 29 23  1  0
  1 34  1  0
  4 35  1  0
  4 36  1  0
  7 37  1  0
  8 38  1  0
 15 39  1  0
 15 40  1  0
 16 41  1  0
 16 42  1  0
 18 43  1  0
 19 44  1  0
 22 45  1  0
 22 46  1  0
 24 47  1  0
 25 48  1  0
 28 49  1  0
 29 50  1  0
 30 51  1  0
 32 52  1  0
 33 53  1  0
M  CHG  1   1  -1
M  END
>  <UniqueID>  (24) 
21

>  <SMILES>  (24) 
[NH-]C(=O)COc1ccc(-c2onc3c2CCc2ccc(OCc4ccc(F)cc4)cc2-3)cc1

>  <Energy>  (24) 
98.23245145289486

>  <Genealogy>  (24) 
[NH-]C(=O)COc1ccc(-c2onc3c2CCc2ccc(OCc4ccc(F)cc4)cc2-3)cc1 (protonated)
[NH-]C(=O)COc1ccc(-c2onc3c2CCc2ccc(OCc4ccc(F)cc4)cc2-3)cc1 (3D coordinates assigned)
[NH-]C(=O)COc1ccc(-c2onc3c2CCc2ccc(OCc4ccc(F)cc4)cc2-3)cc1 (nonaromatic ring conformer: 98.23245145289486 kcal/mol)

>  <smiles>  (24) 
NC(=O)COc1ccc(-c2onc3c2CCc2ccc(OCc4ccc(F)cc4)cc2-3)cc1

>  <score_type>  (24) 
oracle

>  <origin>  (24) 
adg

>  <m_score__min__energy>  (24) 
-11.470000000000001

>  <m_primary>  (24) 
energy

$$$$
24:0
     RDKit          3D

 33 35  0  0  0  0  0  0  0  0999 V2000
   58.6666   35.2380   46.5820 H   0  0  0  0  0  0  0  0  0  0  0  0
   58.8260   34.1870   46.8650 C   0  0  0  0  0  0  0  0  0  0  0  0
   59.8060   33.6390   48.1190 S   0  0  0  0  0  0  0  0  0  0  0  0
   59.4710   32.0130   47.8190 C   0  0  0  0  0  0  0  0  0  0  0  0
   59.9470   30.9880   48.4640 N   0  0  0  0  0  0  0  0  0  0  0  0
   59.5070   29.6220   48.3850 C   0  0  0  0  0  0  0  0  0  0  0  0
   58.4290   29.3100   47.8110 O   0  0  0  0  0  0  0  0  0  0  0  0
   60.3740   28.5450   48.9430 C   0  0  0  0  0  0  0  0  0  0  0  0
   60.3438   28.5825   50.0419 H   0  0  0  0  0  0  0  0  0  0  0  0
   60.0093   27.5658   48.5994 H   0  0  0  0  0  0  0  0  0  0  0  0
   61.4085   28.6922   48.5994 H   0  0  0  0  0  0  0  0  0  0  0  0
   58.6250   31.8780   46.7760 N   0  0  0  0  0  0  0  0  0  0  0  0
   58.3140   30.9500   46.4090 H   0  0  0  0  0  0  0  0  0  0  0  0
   58.2510   33.0760   46.2470 C   0  0  0  0  0  0  0  0  0  0  0  0
   57.3470   33.1890   45.0820 C   0  0  0  0  0  0  0  0  0  0  0  0
   56.7870   34.2910   44.8420 O   0  0  0  0  0  0  0  0  0  0  0  0
   57.1280   32.0960   44.1780 N   0  0  0  0  0  0  0  0  0  0  0  0
   56.7600   30.8970   44.5180 C   0  0  0  0  0  0  0  0  0  0  0  0
   57.6370   29.9500   44.9010 N   0  0  0  0  0  0  0  0  0  0  0  0
   56.8120   28.9040   45.1150 C   0  0  0  0  0  0  0  0  0  0  0  0
   57.2580   27.5720   45.5680 C   0  0  0  0  0  0  0  0  0  0  0  0
   58.6250   27.2450   45.5630 C   0  0  0  0  0  0  0  0  0  0  0  0
   59.3637   27.9847   45.2207 H   0  0  0  0  0  0  0  0  0  0  0  0
   59.0500   25.9840   45.9910 C   0  0  0  0  0  0  0  0  0  0  0  0
   60.1213   25.7346   45.9839 H   0  0  0  0  0  0  0  0  0  0  0  0
   58.1170   25.0390   46.4280 C   0  0  0  0  0  0  0  0  0  0  0  0
   58.4541   24.0475   46.7645 H   0  0  0  0  0  0  0  0  0  0  0  0
   56.7560   25.3550   46.4370 C   0  0  0  0  0  0  0  0  0  0  0  0
   56.0218   24.6114   46.7805 H   0  0  0  0  0  0  0  0  0  0  0  0
   56.3260   26.6150   46.0100 C   0  0  0  0  0  0  0  0  0  0  0  0
   55.2535   26.8594   46.0196 H   0  0  0  0  0  0  0  0  0  0  0  0
   55.5610   29.2190   44.8700 O   0  0  0  0  0  0  0  0  0  0  0  0
   55.4850   30.4570   44.4890 N   0  0  0  0  0  0  0  0  0  0  0  0
  1  2  1  0
  2  3  1  0
  3  4  1  0
  4  5  2  0
  5  6  1  0
  6  7  2  0
  6  8  1  0
  8  9  1  0
  8 10  1  0
  8 11  1  0
  4 12  1  0
 12 13  1  0
 12 14  1  0
 14 15  1  0
 15 16  2  0
 15 17  1  0
 17 18  2  3
 18 19  1  0
 19 20  2  0
 20 21  1  0
 21 22  2  0
 22 23  1  0
 22 24  1  0
 24 25  1  0
 24 26  2  0
 26 27  1  0
 26 28  1  0
 28 29  1  0
 28 30  2  0
 30 31  1  0
 20 32  1  0
 32 33  1  0
 14  2  2  0
 33 18  1  0
 30 21  1  0
M  CHG  1  33  -1
M  END
>  <UniqueID>  (25) 
22

>  <SMILES>  (25) 
CC(=O)/N=c1/[nH]c(C(=O)N=c2nc(-c3ccccc3)o[n-]2)cs1

>  <Energy>  (25) 
106.6046319125979

>  <Genealogy>  (25) 
CC(=O)N=c1[nH]c(C(=O)N=c2nc(-c3ccccc3)o[n-]2)cs1 (protonated)
CC(=O)/N=c1/[nH]c(C(=O)N=c2nc(-c3ccccc3)o[n-]2)cs1 (cis-trans isomerization)
CC(=O)/N=c1/[nH]c(C(=O)N=c2nc(-c3ccccc3)o[n-]2)cs1 (3D coordinates assigned)
CC(=O)/N=c1/[nH]c(C(=O)N=c2nc(-c3ccccc3)o[n-]2)cs1 (optimized conformer: 106.6046319125979 kcal/mol)

>  <smiles>  (25) 
CC(=O)N=c1[nH]c(C(=O)N=c2nc(-c3ccccc3)o[nH]2)cs1

>  <score_type>  (25) 
oracle

>  <origin>  (25) 
adg

>  <m_score__min__energy>  (25) 
-8.6500000000000004

>  <m_primary>  (25) 
energy

$$$$
25:0
     RDKit          3D

 31 33  0  0  0  0  0  0  0  0999 V2000
   58.6850   34.3270   46.9180 C   0  0  0  0  0  0  0  0  0  0  0  0
   58.3300   33.3650   45.8240 C   0  0  0  0  0  0  0  0  0  0  0  0
   58.0720   33.8350   44.5280 C   0  0  0  0  0  0  0  0  0  0  0  0
   57.7870   32.9350   43.4990 C   0  0  0  0  0  0  0  0  0  0  0  0
   57.7590   31.5620   43.7520 C   0  0  0  0  0  0  0  0  0  0  0  0
   58.0130   31.0740   45.0470 C   0  0  0  0  0  0  0  0  0  0  0  0
   58.0250   29.6220   45.3330 C   0  0  0  0  0  0  0  0  0  0  0  0
   59.2010   29.0340   45.5460 O   0  0  0  0  0  0  0  0  0  0  0  0
   59.3310   27.7370   45.8010 C   0  0  0  0  0  0  0  0  0  0  0  0
   60.6050   27.1960   46.0080 C   0  0  0  0  0  0  0  0  0  0  0  0
   60.7550   25.8330   46.2730 C   0  0  0  0  0  0  0  0  0  0  0  0
   59.6320   25.0020   46.3350 C   0  0  0  0  0  0  0  0  0  0  0  0
   58.3530   25.5310   46.1310 C   0  0  0  0  0  0  0  0  0  0  0  0
   58.1930   26.9040   45.8640 C   0  0  0  0  0  0  0  0  0  0  0  0
   56.9310   27.4850   45.6600 C   0  0  0  0  0  0  0  0  0  0  0  0
   55.8850   26.7820   45.7160 O   0  0  0  0  0  0  0  0  0  0  0  0
   56.8390   28.8620   45.4020 C   0  0  0  0  0  0  0  0  0  0  0  0
   55.5940   29.4770   45.2450 O   0  0  0  0  0  0  0  0  0  0  0  0
   58.3210   31.9830   46.0720 C   0  0  0  0  0  0  0  0  0  0  0  0
   58.5098   33.8524   47.8948 H   0  0  0  0  0  0  0  0  0  0  0  0
   59.7454   34.6062   46.8309 H   0  0  0  0  0  0  0  0  0  0  0  0
   58.0602   35.2281   46.8309 H   0  0  0  0  0  0  0  0  0  0  0  0
   58.0942   34.9152   44.3216 H   0  0  0  0  0  0  0  0  0  0  0  0
   57.5837   33.3092   42.4848 H   0  0  0  0  0  0  0  0  0  0  0  0
   57.5374   30.8590   42.9355 H   0  0  0  0  0  0  0  0  0  0  0  0
   61.4910   27.8463   45.9618 H   0  0  0  0  0  0  0  0  0  0  0  0
   61.7586   25.4122   46.4333 H   0  0  0  0  0  0  0  0  0  0  0  0
   59.7546   23.9292   46.5448 H   0  0  0  0  0  0  0  0  0  0  0  0
   57.4721   24.8739   46.1792 H   0  0  0  0  0  0  0  0  0  0  0  0
   54.7230   28.9660   45.3310 H   0  0  0  0  0  0  0  0  0  0  0  0
   58.5575   31.6088   47.0790 H   0  0  0  0  0  0  0  0  0  0  0  0
  1  2  1  0
  2  3  2  0
  3  4  1  0
  4  5  2  0
  5  6  1  0
  6  7  1  0
  7  8  1  0
  8  9  1  0
  9 10  2  0
 10 11  1  0
 11 12  2  0
 12 13  1  0
 13 14  2  0
 14 15  1  0
 15 16  2  0
 15 17  1  0
 17 18  1  0
  6 19  2  0
 19  2  1  0
 17  7  2  0
 14  9  1  0
  1 20  1  0
  1 21  1  0
  1 22  1  0
  3 23  1  0
  4 24  1  0
  5 25  1  0
 10 26  1  0
 11 27  1  0
 12 28  1  0
 13 29  1  0
 18 30  1  0
 19 31  1  0
M  END
>  <UniqueID>  (26) 
23

>  <SMILES>  (26) 
Cc1cccc(-c2oc3ccccc3c(=O)c2O)c1

>  <Energy>  (26) 
43.91098749793102

>  <Genealogy>  (26) 
Cc1cccc(-c2oc3ccccc3c(=O)c2O)c1 (3D coordinates assigned)
Cc1cccc(-c2oc3ccccc3c(=O)c2O)c1 (optimized conformer: 43.91098749793102 kcal/mol)

>  <smiles>  (26) 
Cc1cccc(-c2oc3ccccc3c(=O)c2O)c1

>  <score_type>  (26) 
oracle

>  <origin>  (26) 
adg

>  <m_score__min__energy>  (26) 
-7.6399999999999997

>  <m_primary>  (26) 
energy

$$$$
26:0
     RDKit          3D

 48 51  0  0  0  0  0  0  0  0999 V2000
   61.2090   29.8280   50.4590 C   0  0  0  0  0  0  0  0  0  0  0  0
   61.2370   30.2060   49.0490 N   0  0  0  0  0  0  0  0  0  0  0  0
   60.5780   29.5620   48.1010 N   0  0  0  0  0  0  0  0  0  0  0  0
   60.8400   30.1450   46.9160 C   0  0  0  0  0  0  0  0  0  0  0  0
   61.7030   31.2060   47.1180 C   0  0  0  0  0  0  0  0  0  0  0  0
   61.9180   31.2270   48.4850 C   0  0  0  0  0  0  0  0  0  0  0  0
   62.7620   32.2030   49.2050 C   0  0  0  0  0  0  0  0  0  0  0  0
   64.1530   32.0190   49.2090 C   0  0  0  0  0  0  0  0  0  0  0  0
   64.9770   32.8730   49.9480 C   0  0  0  0  0  0  0  0  0  0  0  0
   66.3180   32.6790   49.9560 F   0  0  0  0  0  0  0  0  0  0  0  0
   64.4180   33.9150   50.6900 C   0  0  0  0  0  0  0  0  0  0  0  0
   63.0370   34.1210   50.6760 C   0  0  0  0  0  0  0  0  0  0  0  0
   62.2020   33.2950   49.9140 C   0  0  0  0  0  0  0  0  0  0  0  0
   60.8290   33.5810   49.8890 O   0  0  0  0  0  0  0  0  0  0  0  0
   60.0370   33.6090   48.7290 C   0  0  0  0  0  0  0  0  0  0  0  0
   60.3570   34.4430   47.6410 C   0  0  0  0  0  0  0  0  0  0  0  0
   59.5920   34.4090   46.4750 C   0  0  0  0  0  0  0  0  0  0  0  0
   58.4810   33.5660   46.3860 C   0  0  0  0  0  0  0  0  0  0  0  0
   57.5950   33.4540   44.8690 S   0  0  0  0  0  0  0  0  0  0  0  0
   58.5740   33.3950   43.7310 O   0  0  0  0  0  0  0  0  0  0  0  0
   56.7040   34.6500   44.6770 O   0  0  0  0  0  0  0  0  0  0  0  0
   56.6320   32.0100   44.8740 N   0  0  0  0  0  0  0  0  0  0  0  0
   57.1320   30.8120   44.8500 C   0  0  0  0  0  0  0  0  0  0  0  0
   58.4720   30.6290   44.4880 C   0  0  0  0  0  0  0  0  0  0  0  0
   59.0090   29.3390   44.4750 C   0  0  0  0  0  0  0  0  0  0  0  0
   58.2090   28.2490   44.8190 C   0  0  0  0  0  0  0  0  0  0  0  0
   58.7190   26.9930   44.8140 F   0  0  0  0  0  0  0  0  0  0  0  0
   56.8740   28.4660   45.1700 C   0  0  0  0  0  0  0  0  0  0  0  0
   56.3710   29.7290   45.1790 N   0  0  0  0  0  0  0  0  0  0  0  0
   58.1230   32.7710   47.4840 C   0  0  0  0  0  0  0  0  0  0  0  0
   58.8900   32.7990   48.6550 C   0  0  0  0  0  0  0  0  0  0  0  0
   58.5060   31.9710   49.7710 C   0  0  0  0  0  0  0  0  0  0  0  0
   58.1990   31.3070   50.6670 N   0  0  0  0  0  0  0  0  0  0  0  0
   61.2760   30.7319   51.0823 H   0  0  0  0  0  0  0  0  0  0  0  0
   60.2693   29.3000   50.6785 H   0  0  0  0  0  0  0  0  0  0  0  0
   62.0607   29.1673   50.6785 H   0  0  0  0  0  0  0  0  0  0  0  0
   59.9660   28.7290   48.2550 H   0  0  0  0  0  0  0  0  0  0  0  0
   60.4332   29.8283   45.9443 H   0  0  0  0  0  0  0  0  0  0  0  0
   62.1250   31.8830   46.3606 H   0  0  0  0  0  0  0  0  0  0  0  0
   64.5977   31.1981   48.6273 H   0  0  0  0  0  0  0  0  0  0  0  0
   65.0660   34.5743   51.2862 H   0  0  0  0  0  0  0  0  0  0  0  0
   62.6015   34.9390   51.2686 H   0  0  0  0  0  0  0  0  0  0  0  0
   61.2163   35.1262   47.7108 H   0  0  0  0  0  0  0  0  0  0  0  0
   59.8643   35.0483   45.6223 H   0  0  0  0  0  0  0  0  0  0  0  0
   59.0964   31.4929   44.2163 H   0  0  0  0  0  0  0  0  0  0  0  0
   60.0610   29.1831   44.1939 H   0  0  0  0  0  0  0  0  0  0  0  0
   56.2304   27.6154   45.4389 H   0  0  0  0  0  0  0  0  0  0  0  0
   57.2362   32.1228   47.4252 H   0  0  0  0  0  0  0  0  0  0  0  0
  1  2  1  0
  2  3  1  0
  3  4  2  0
  4  5  1  0
  5  6  2  0
  6  7  1  0
  7  8  2  0
  8  9  1  0
  9 10  1  0
  9 11  2  0
 11 12  1  0
 12 13  2  0
 13 14  1  0
 14 15  1  0
 15 16  2  0
 16 17  1  0
 17 18  2  0
 18 19  1  0
 19 20  2  0
 19 21  2  0
 19 22  1  0
 22 23  2  3
 23 24  1  0
 24 25  2  0
 25 26  1  0
 26 27  1  0
 26 28  2  0
 28 29  1  0
 18 30  1  0
 30 31  2  0
 31 32  1  0
 32 33  3  0
  6  2  1  0
 13  7  1  0
 31 15  1  0
 29 23  1  0
  1 34  1  0
  1 35  1  0
  1 36  1  0
  3 37  1  0
  4 38  1  0
  5 39  1  0
  8 40  1  0
 11 41  1  0
 12 42  1  0
 16 43  1  0
 17 44  1  0
 24 45  1  0
 25 46  1  0
 28 47  1  0
 30 48  1  0
M  CHG  2   3   1  29  -1
M  END
>  <UniqueID>  (27) 
24

>  <SMILES>  (27) 
Cn1[nH+]ccc1-c1cc(F)ccc1Oc1ccc(S(=O)(=O)N=c2ccc(F)c[n-]2)cc1C#N

>  <Energy>  (27) 
95.25939709228564

>  <Genealogy>  (27) 
Cn1[nH+]ccc1-c1cc(F)ccc1Oc1ccc(S(=O)(=O)N=c2ccc(F)c[n-]2)cc1C#N (protonated)
Cn1[nH+]ccc1-c1cc(F)ccc1Oc1ccc(S(=O)(=O)N=c2ccc(F)c[n-]2)cc1C#N (3D coordinates assigned)
Cn1[nH+]ccc1-c1cc(F)ccc1Oc1ccc(S(=O)(=O)N=c2ccc(F)c[n-]2)cc1C#N (optimized conformer: 95.25939709228564 kcal/mol)

>  <smiles>  (27) 
Cn1nccc1-c1cc(F)ccc1Oc1ccc(S(=O)(=O)N=c2ccc(F)c[nH]2)cc1C#N

>  <score_type>  (27) 
oracle

>  <origin>  (27) 
adg

>  <m_score__min__energy>  (27) 
-9.7799999999999994

>  <m_primary>  (27) 
energy

$$$$
27:0
     RDKit          3D

 52 54  0  0  0  0  0  0  0  0999 V2000
   56.9551   34.6015   44.6736 H   0  0  0  0  0  0  0  0  0  0  0  0
   57.6450   33.7690   44.8760 C   0  0  0  0  0  0  0  0  0  0  0  0
   57.7800   32.8350   43.9210 C   0  0  0  0  0  0  0  0  0  0  0  0
   57.9652   33.1851   42.8948 H   0  0  0  0  0  0  0  0  0  0  0  0
   57.7000   31.3730   44.1360 C   0  0  0  0  0  0  0  0  0  0  0  0
   56.4490   30.7440   44.0880 C   0  0  0  0  0  0  0  0  0  0  0  0
   55.5429   31.3422   43.9114 H   0  0  0  0  0  0  0  0  0  0  0  0
   56.3450   29.3620   44.2630 C   0  0  0  0  0  0  0  0  0  0  0  0
   55.3548   28.8834   44.2407 H   0  0  0  0  0  0  0  0  0  0  0  0
   57.4910   28.5780   44.4670 C   0  0  0  0  0  0  0  0  0  0  0  0
   57.3480   27.1570   44.6400 N   0  0  0  0  0  0  0  0  0  0  0  0
   57.1520   26.5620   43.8040 H   0  0  0  0  0  0  0  0  0  0  0  0
   57.5900   26.3330   46.1480 S   0  0  0  0  0  0  0  0  0  0  0  0
   56.2510   25.9930   46.7410 O   0  0  0  0  0  0  0  0  0  0  0  0
   58.3530   25.0620   45.9020 O   0  0  0  0  0  0  0  0  0  0  0  0
   58.5190   27.3480   47.2470 C   0  0  0  0  0  0  0  0  0  0  0  0
   58.1480   28.6770   47.4710 C   0  0  0  0  0  0  0  0  0  0  0  0
   57.2601   29.0895   46.9695 H   0  0  0  0  0  0  0  0  0  0  0  0
   58.8990   29.4830   48.3280 C   0  0  0  0  0  0  0  0  0  0  0  0
   58.5961   30.5278   48.4910 H   0  0  0  0  0  0  0  0  0  0  0  0
   60.0420   28.9800   48.9900 C   0  0  0  0  0  0  0  0  0  0  0  0
   60.8500   29.9070   49.9230 C   0  0  0  0  0  0  0  0  0  0  0  0
   61.7970   29.1340   50.8730 C   0  0  0  0  0  0  0  0  0  0  0  0
   61.5283   29.3533   51.9169 H   0  0  0  0  0  0  0  0  0  0  0  0
   61.6999   28.0539   50.6886 H   0  0  0  0  0  0  0  0  0  0  0  0
   62.8357   29.4455   50.6886 H   0  0  0  0  0  0  0  0  0  0  0  0
   61.7150   30.8640   49.0750 C   0  0  0  0  0  0  0  0  0  0  0  0
   62.3025   31.5139   49.7402 H   0  0  0  0  0  0  0  0  0  0  0  0
   62.3958   30.2777   48.4403 H   0  0  0  0  0  0  0  0  0  0  0  0
   61.0631   31.4822   48.4403 H   0  0  0  0  0  0  0  0  0  0  0  0
   59.8810   30.7310   50.7980 C   0  0  0  0  0  0  0  0  0  0  0  0
   60.0986   30.5459   51.8603 H   0  0  0  0  0  0  0  0  0  0  0  0
   60.0088   31.8013   50.5786 H   0  0  0  0  0  0  0  0  0  0  0  0
   58.8452   30.4329   50.5786 H   0  0  0  0  0  0  0  0  0  0  0  0
   60.3970   27.6310   48.7550 C   0  0  0  0  0  0  0  0  0  0  0  0
   61.2803   27.2075   49.2554 H   0  0  0  0  0  0  0  0  0  0  0  0
   59.6410   26.8290   47.8960 C   0  0  0  0  0  0  0  0  0  0  0  0
   59.9319   25.7813   47.7299 H   0  0  0  0  0  0  0  0  0  0  0  0
   58.7490   29.2090   44.4930 C   0  0  0  0  0  0  0  0  0  0  0  0
   59.6572   28.6101   44.6555 H   0  0  0  0  0  0  0  0  0  0  0  0
   58.8520   30.5900   44.3140 C   0  0  0  0  0  0  0  0  0  0  0  0
   59.8427   31.0680   44.3124 H   0  0  0  0  0  0  0  0  0  0  0  0
   58.3480   33.7710   46.1790 C   0  0  0  0  0  0  0  0  0  0  0  0
   59.4450   34.6150   46.4230 C   0  0  0  0  0  0  0  0  0  0  0  0
   59.7903   35.3135   45.6466 H   0  0  0  0  0  0  0  0  0  0  0  0
   60.0940   34.5600   47.6600 C   0  0  0  0  0  0  0  0  0  0  0  0
   60.9414   35.2304   47.8662 H   0  0  0  0  0  0  0  0  0  0  0  0
   59.6790   33.6790   48.6080 N   0  0  0  0  0  0  0  0  0  0  0  0
   58.6380   32.8330   48.3890 C   0  0  0  0  0  0  0  0  0  0  0  0
   58.3279   32.1289   49.1752 H   0  0  0  0  0  0  0  0  0  0  0  0
   57.9610   32.8560   47.1670 C   0  0  0  0  0  0  0  0  0  0  0  0
   57.1294   32.1602   46.9818 H   0  0  0  0  0  0  0  0  0  0  0  0
  1  2  1  0
  2  3  2  0
  3  4  1  0
  3  5  1  0
  5  6  2  0
  6  7  1  0
  6  8  1  0
  8  9  1  0
  8 10  2  0
 10 11  1  0
 11 12  1  0
 11 13  1  0
 13 14  2  0
 13 15  2  0
 13 16  1  0
 16 17  2  0
 17 18  1  0
 17 19  1  0
 19 20  1  0
 19 21  2  0
 21 22  1  0
 22 23  1  0
 23 24  1  0
 23 25  1  0
 23 26  1  0
 22 27  1  0
 27 28  1  0
 27 29  1  0
 27 30  1  0
 22 31  1  0
 31 32  1  0
 31 33  1  0
 31 34  1  0
 21 35  1  0
 35 36  1  0
 35 37  2  0
 37 38  1  0
 10 39  1  0
 39 40  1  0
 39 41  2  0
 41 42  1  0
  2 43  1  0
 43 44  2  0
 44 45  1  0
 44 46  1  0
 46 47  1  0
 46 48  2  0
 48 49  1  0
 49 50  1  0
 49 51  2  0
 51 52  1  0
 41  5  1  0
 51 43  1  0
 37 16  1  0
M  END
>  <UniqueID>  (28) 
25

>  <SMILES>  (28) 
CC(C)(C)c1ccc(S(=O)(=O)Nc2ccc(/C=C\c3ccncc3)cc2)cc1

>  <Energy>  (28) 
68.13152239413039

>  <Genealogy>  (28) 
CC(C)(C)c1ccc(S(=O)(=O)Nc2ccc(/C=C\c3ccncc3)cc2)cc1 (cis-trans isomerization)
CC(C)(C)c1ccc(S(=O)(=O)Nc2ccc(/C=C\c3ccncc3)cc2)cc1 (3D coordinates assigned)
CC(C)(C)c1ccc(S(=O)(=O)Nc2ccc(/C=C\c3ccncc3)cc2)cc1 (optimized conformer: 68.13152239413039 kcal/mol)

>  <smiles>  (28) 
CC(C)(C)c1ccc(S(=O)(=O)Nc2ccc(C=Cc3ccncc3)cc2)cc1

>  <score_type>  (28) 
oracle

>  <origin>  (28) 
adg

>  <m_score__min__energy>  (28) 
-9.4399999999999995

>  <m_primary>  (28) 
energy

$$$$
28:0
     RDKit          3D

 56 59  0  0  0  0  0  0  0  0999 V2000
   62.7240   30.3738   50.1666 H   0  0  0  0  0  0  0  0  0  0  0  0
   62.0960   31.0290   49.5450 C   0  0  0  0  0  0  0  0  0  0  0  0
   62.1850   32.4140   49.6820 C   0  0  0  0  0  0  0  0  0  0  0  0
   62.8756   32.8495   50.4192 H   0  0  0  0  0  0  0  0  0  0  0  0
   61.3990   33.2490   48.8850 C   0  0  0  0  0  0  0  0  0  0  0  0
   61.4769   34.3407   48.9952 H   0  0  0  0  0  0  0  0  0  0  0  0
   60.5100   32.7050   47.9440 C   0  0  0  0  0  0  0  0  0  0  0  0
   59.7730   33.5900   47.0830 N   0  0  0  0  0  0  0  0  0  0  0  0
   58.3400   33.8100   47.2000 C   0  0  0  0  0  0  0  0  0  0  0  0
   57.8063   32.8496   47.2535 H   0  0  0  0  0  0  0  0  0  0  0  0
   58.0852   34.3684   48.1128 H   0  0  0  0  0  0  0  0  0  0  0  0
   57.9430   34.5710   45.9410 C   0  0  0  0  0  0  0  0  0  0  0  0
   57.4492   33.8969   45.2256 H   0  0  0  0  0  0  0  0  0  0  0  0
   57.2340   35.3817   46.1646 H   0  0  0  0  0  0  0  0  0  0  0  0
   59.2440   35.1090   45.3530 C   0  0  0  0  0  0  0  0  0  0  0  0
   59.2179   35.0608   44.2544 H   0  0  0  0  0  0  0  0  0  0  0  0
   59.4089   36.1621   45.6245 H   0  0  0  0  0  0  0  0  0  0  0  0
   60.3430   34.2070   45.8990 C   0  0  0  0  0  0  0  0  0  0  0  0
   60.6174   33.4412   45.1586 H   0  0  0  0  0  0  0  0  0  0  0  0
   61.2608   34.7684   46.1282 H   0  0  0  0  0  0  0  0  0  0  0  0
   60.3970   31.2970   47.8240 C   0  0  0  0  0  0  0  0  0  0  0  0
   59.4400   30.6610   46.8920 C   0  0  0  0  0  0  0  0  0  0  0  0
   58.9980   31.3590   45.8170 N   0  0  0  0  0  0  0  0  0  0  0  0
   58.1230   30.8330   44.9220 C   0  0  0  0  0  0  0  0  0  0  0  0
   57.7670   31.5880   43.8000 C   0  0  0  0  0  0  0  0  0  0  0  0
   58.1196   32.6254   43.7027 H   0  0  0  0  0  0  0  0  0  0  0  0
   56.9670   31.0300   42.8050 C   0  0  0  0  0  0  0  0  0  0  0  0
   56.6633   31.6360   41.9387 H   0  0  0  0  0  0  0  0  0  0  0  0
   56.5520   29.7040   42.9080 C   0  0  0  0  0  0  0  0  0  0  0  0
   55.9561   29.2527   42.1010 H   0  0  0  0  0  0  0  0  0  0  0  0
   56.8890   28.9450   44.0310 C   0  0  0  0  0  0  0  0  0  0  0  0
   56.5849   27.8892   44.0836 H   0  0  0  0  0  0  0  0  0  0  0  0
   57.6150   29.5150   45.1000 C   0  0  0  0  0  0  0  0  0  0  0  0
   57.9780   28.8120   46.2900 C   0  0  0  0  0  0  0  0  0  0  0  0
   57.4250   27.7090   46.7250 N   0  0  0  0  0  0  0  0  0  0  0  0
   56.6830   26.6850   46.0460 C   0  0  0  0  0  0  0  0  0  0  0  0
   55.4210   26.7100   46.0480 O   0  0  0  0  0  0  0  0  0  0  0  0
   57.3880   25.4390   45.5490 C   0  0  1  0  0  0  0  0  0  0  0  0
   57.0067   24.6102   46.1636 H   0  0  0  0  0  0  0  0  0  0  0  0
   57.0490   25.0550   44.1540 N   0  0  0  0  0  0  0  0  0  0  0  0
   57.2100   23.6220   43.8420 C   0  0  0  0  0  0  0  0  0  0  0  0
   57.2745   23.0479   44.7781 H   0  0  0  0  0  0  0  0  0  0  0  0
   56.3452   23.2746   43.2576 H   0  0  0  0  0  0  0  0  0  0  0  0
   58.1303   23.4751   43.2576 H   0  0  0  0  0  0  0  0  0  0  0  0
   57.7670   25.8740   43.1620 C   0  0  0  0  0  0  0  0  0  0  0  0
   58.4061   26.6030   43.6818 H   0  0  0  0  0  0  0  0  0  0  0  0
   58.3909   25.2232   42.5317 H   0  0  0  0  0  0  0  0  0  0  0  0
   57.0402   26.4074   42.5317 H   0  0  0  0  0  0  0  0  0  0  0  0
   58.9040   25.5560   45.7580 C   0  0  0  0  0  0  0  0  0  0  0  0
   59.1254   25.5731   46.8354 H   0  0  0  0  0  0  0  0  0  0  0  0
   59.4057   24.6939   45.2942 H   0  0  0  0  0  0  0  0  0  0  0  0
   59.2675   26.4849   45.2942 H   0  0  0  0  0  0  0  0  0  0  0  0
   58.9700   29.3610   47.1110 C   0  0  0  0  0  0  0  0  0  0  0  0
   59.3845   28.7644   47.9370 H   0  0  0  0  0  0  0  0  0  0  0  0
   61.2100   30.4730   48.6190 C   0  0  0  0  0  0  0  0  0  0  0  0
   61.1487   29.3800   48.5116 H   0  0  0  0  0  0  0  0  0  0  0  0
  1  2  1  0
  2  3  2  0
  3  4  1  0
  3  5  1  0
  5  6  1  0
  5  7  2  0
  7  8  1  0
  8  9  1  0
  9 10  1  0
  9 11  1  0
  9 12  1  0
 12 13  1  0
 12 14  1  0
 12 15  1  0
 15 16  1  0
 15 17  1  0
 15 18  1  0
 18 19  1  0
 18 20  1  0
  7 21  1  0
 21 22  1  0
 22 23  1  0
 23 24  1  0
 24 25  2  0
 25 26  1  0
 25 27  1  0
 27 28  1  0
 27 29  2  0
 29 30  1  0
 29 31  1  0
 31 32  1  0
 31 33  2  0
 33 34  1  0
 34 35  2  0
 35 36  1  0
 36 37  2  0
 36 38  1  0
 38 39  1  1
 38 40  1  0
 40 41  1  0
 41 42  1  0
 41 43  1  0
 41 44  1  0
 40 45  1  0
 45 46  1  0
 45 47  1  0
 45 48  1  0
 38 49  1  0
 49 50  1  0
 49 51  1  0
 49 52  1  0
 34 53  1  0
 53 54  1  0
 21 55  2  0
 55 56  1  0
 55  2  1  0
 18  8  1  0
 53 22  2  0
 33 24  1  0
M  CHG  1  23  -1
M  END
>  <UniqueID>  (29) 
26

>  <SMILES>  (29) 
C[C@@H](C(=O)/N=c1/cc(-c2ccccc2N2CCCC2)[n-]c2ccccc12)N(C)C

>  <Energy>  (29) 
94.27876895763704

>  <Genealogy>  (29) 
CC(C(=O)N=c1cc(-c2ccccc2N2CCCC2)[n-]c2ccccc12)N(C)C (protonated)
C[C@@H](C(=O)N=c1cc(-c2ccccc2N2CCCC2)[n-]c2ccccc12)N(C)C (chirality)
C[C@@H](C(=O)/N=c1/cc(-c2ccccc2N2CCCC2)[n-]c2ccccc12)N(C)C (cis-trans isomerization)
C[C@@H](C(=O)/N=c1/cc(-c2ccccc2N2CCCC2)[n-]c2ccccc12)N(C)C (3D coordinates assigned)
C[C@@H](C(=O)/N=c1/cc(-c2ccccc2N2CCCC2)[n-]c2ccccc12)N(C)C (nonaromatic ring conformer: 94.27876895763704 kcal/mol)

>  <smiles>  (29) 
CC(C(=O)N=c1cc(-c2ccccc2N2CCCC2)[nH]c2ccccc12)N(C)C

>  <score_type>  (29) 
oracle

>  <origin>  (29) 
adg

>  <m_score__min__energy>  (29) 
-9.5700000000000003

>  <m_primary>  (29) 
energy

$$$$
29:0
     RDKit          3D

 31 32  0  0  0  0  0  0  0  0999 V2000
   59.3810   33.0860   48.1130 C   0  0  0  0  0  0  0  0  0  0  0  0
   58.8560   33.0280   46.7090 C   0  0  0  0  0  0  0  0  0  0  0  0
   59.3930   33.8620   45.7180 C   0  0  0  0  0  0  0  0  0  0  0  0
   58.8860   33.8240   44.4160 C   0  0  0  0  0  0  0  0  0  0  0  0
   57.8240   32.9720   44.1010 C   0  0  0  0  0  0  0  0  0  0  0  0
   57.2460   32.1680   45.0970 C   0  0  0  0  0  0  0  0  0  0  0  0
   56.1640   31.2800   44.8000 N   0  0  0  0  0  0  0  0  0  0  0  0
   56.2810   29.8910   44.4620 C   0  0  0  0  0  0  0  0  0  0  0  0
   55.5250   29.0620   45.0340 O   0  0  0  0  0  0  0  0  0  0  0  0
   57.2190   29.4010   43.3900 C   0  0  0  0  0  0  0  0  0  0  0  0
   58.0470   27.8480   43.8830 S   0  0  0  0  0  0  0  0  0  0  0  0
   58.8230   28.5470   45.3410 C   0  0  0  0  0  0  0  0  0  0  0  0
   59.9690   29.3410   45.2200 C   0  0  0  0  0  0  0  0  0  0  0  0
   60.5540   29.8740   46.3710 C   0  0  0  0  0  0  0  0  0  0  0  0
   59.9950   29.6050   47.6220 C   0  0  0  0  0  0  0  0  0  0  0  0
   58.8540   28.8030   47.7030 C   0  0  0  0  0  0  0  0  0  0  0  0
   58.2980   28.2940   46.5710 N   0  0  0  0  0  0  0  0  0  0  0  0
   57.7780   32.1850   46.3930 C   0  0  0  0  0  0  0  0  0  0  0  0
   58.5445   32.9936   48.8214 H   0  0  0  0  0  0  0  0  0  0  0  0
   60.0904   32.2608   48.2736 H   0  0  0  0  0  0  0  0  0  0  0  0
   59.8931   34.0462   48.2736 H   0  0  0  0  0  0  0  0  0  0  0  0
   60.2160   34.5484   45.9660 H   0  0  0  0  0  0  0  0  0  0  0  0
   59.3239   34.4661   43.6376 H   0  0  0  0  0  0  0  0  0  0  0  0
   57.4400   32.9310   43.0710 H   0  0  0  0  0  0  0  0  0  0  0  0
   56.6463   29.2235   42.4678 H   0  0  0  0  0  0  0  0  0  0  0  0
   57.9911   30.1680   43.2301 H   0  0  0  0  0  0  0  0  0  0  0  0
   60.4040   29.5430   44.2301 H   0  0  0  0  0  0  0  0  0  0  0  0
   61.4524   30.5038   46.2922 H   0  0  0  0  0  0  0  0  0  0  0  0
   60.4483   30.0202   48.5342 H   0  0  0  0  0  0  0  0  0  0  0  0
   58.4051   28.5831   48.6828 H   0  0  0  0  0  0  0  0  0  0  0  0
   57.3484   31.5336   47.1684 H   0  0  0  0  0  0  0  0  0  0  0  0
  1  2  1  0
  2  3  2  0
  3  4  1  0
  4  5  2  0
  5  6  1  0
  6  7  1  0
  7  8  1  0
  8  9  2  0
  8 10  1  0
 10 11  1  0
 11 12  1  0
 12 13  2  0
 13 14  1  0
 14 15  2  0
 15 16  1  0
 16 17  2  0
  6 18  2  0
 18  2  1  0
 17 12  1  0
  1 19  1  0
  1 20  1  0
  1 21  1  0
  3 22  1  0
  4 23  1  0
  5 24  1  0
 10 25  1  0
 10 26  1  0
 13 27  1  0
 14 28  1  0
 15 29  1  0
 16 30  1  0
 18 31  1  0
M  CHG  1   7  -1
M  END
>  <UniqueID>  (30) 
27

>  <SMILES>  (30) 
Cc1cccc([N-]C(=O)CSc2ccccn2)c1

>  <Energy>  (30) 
32.214428449896154

>  <Genealogy>  (30) 
Cc1cccc([N-]C(=O)CSc2ccccn2)c1 (protonated)
Cc1cccc([N-]C(=O)CSc2ccccn2)c1 (3D coordinates assigned)
Cc1cccc([N-]C(=O)CSc2ccccn2)c1 (optimized conformer: 32.214428449896154 kcal/mol)

>  <smiles>  (30) 
Cc1cccc(NC(=O)CSc2ccccn2)c1

>  <score_type>  (30) 
oracle

>  <origin>  (30) 
adg

>  <m_score__min__energy>  (30) 
-9.0199999999999996

>  <m_primary>  (30) 
energy

$$$$
30:0
     RDKit          3D

 43 46  0  0  0  0  0  0  0  0999 V2000
   55.8990   21.3640   43.0880 O   0  0  0  0  0  0  0  0  0  0  0  0
   56.4460   22.4870   43.6960 C   0  0  0  0  0  0  0  0  0  0  0  0
   56.5130   23.6960   42.9990 C   0  0  0  0  0  0  0  0  0  0  0  0
   57.0650   24.8280   43.6080 C   0  0  0  0  0  0  0  0  0  0  0  0
   57.5540   24.7650   44.9270 C   0  0  0  0  0  0  0  0  0  0  0  0
   58.1400   25.9700   45.5680 C   0  0  0  0  0  0  0  0  0  0  0  0
   58.6760   27.0830   44.9200 C   0  0  0  0  0  0  0  0  0  0  0  0
   59.1640   28.0760   45.7900 C   0  0  0  0  0  0  0  0  0  0  0  0
   59.9090   29.2860   45.2810 C   0  0  0  0  0  0  0  0  0  0  0  0
   59.0150   30.4990   45.2330 C   0  0  0  0  0  0  0  0  0  0  0  0
   57.8360   30.4840   44.4670 C   0  0  0  0  0  0  0  0  0  0  0  0
   56.9960   31.6000   44.4470 C   0  0  0  0  0  0  0  0  0  0  0  0
   57.3200   32.7360   45.1930 C   0  0  0  0  0  0  0  0  0  0  0  0
   58.4860   32.7580   45.9630 C   0  0  0  0  0  0  0  0  0  0  0  0
   58.8890   34.1810   46.9050 Cl  0  0  0  0  0  0  0  0  0  0  0  0
   59.3310   31.6420   45.9860 C   0  0  0  0  0  0  0  0  0  0  0  0
   59.0300   27.7280   47.1410 C   0  0  0  0  0  0  0  0  0  0  0  0
   59.4750   28.4910   48.3230 C   0  0  0  0  0  0  0  0  0  0  0  0
   60.4550   27.9540   49.1720 C   0  0  0  0  0  0  0  0  0  0  0  0
   60.8660   28.6590   50.3080 C   0  0  0  0  0  0  0  0  0  0  0  0
   60.2940   29.8970   50.6140 C   0  0  0  0  0  0  0  0  0  0  0  0
   60.7130   30.5890   51.7470 O   0  0  0  0  0  0  0  0  0  0  0  0
   59.3010   30.4280   49.7800 C   0  0  0  0  0  0  0  0  0  0  0  0
   58.8880   29.7250   48.6440 C   0  0  0  0  0  0  0  0  0  0  0  0
   58.3080   26.2120   47.2260 S   0  0  0  0  0  0  0  0  0  0  0  0
   57.4850   23.5380   45.6160 C   0  0  0  0  0  0  0  0  0  0  0  0
   56.9330   22.4090   45.0030 C   0  0  0  0  0  0  0  0  0  0  0  0
   56.1310   23.7579   41.9693 H   0  0  0  0  0  0  0  0  0  0  0  0
   57.1175   25.7755   43.0517 H   0  0  0  0  0  0  0  0  0  0  0  0
   58.7140   27.1764   43.8246 H   0  0  0  0  0  0  0  0  0  0  0  0
   60.7573   29.4923   45.9502 H   0  0  0  0  0  0  0  0  0  0  0  0
   60.2611   29.0734   44.2608 H   0  0  0  0  0  0  0  0  0  0  0  0
   57.5742   29.5904   43.8814 H   0  0  0  0  0  0  0  0  0  0  0  0
   56.0772   31.5843   43.8424 H   0  0  0  0  0  0  0  0  0  0  0  0
   56.6570   33.6135   45.1742 H   0  0  0  0  0  0  0  0  0  0  0  0
   60.2461   31.6603   46.5962 H   0  0  0  0  0  0  0  0  0  0  0  0
   60.9015   26.9751   48.9432 H   0  0  0  0  0  0  0  0  0  0  0  0
   61.6425   28.2374   50.9632 H   0  0  0  0  0  0  0  0  0  0  0  0
   60.7250   30.1500   52.6610 H   0  0  0  0  0  0  0  0  0  0  0  0
   58.8453   31.4001   50.0195 H   0  0  0  0  0  0  0  0  0  0  0  0
   58.0998   30.1408   47.9992 H   0  0  0  0  0  0  0  0  0  0  0  0
   57.8685   23.4676   46.6446 H   0  0  0  0  0  0  0  0  0  0  0  0
   56.8821   21.4568   45.5514 H   0  0  0  0  0  0  0  0  0  0  0  0
  1  2  1  0
  2  3  2  0
  3  4  1  0
  4  5  2  0
  5  6  1  0
  6  7  2  0
  7  8  1  0
  8  9  1  0
  9 10  1  0
 10 11  2  0
 11 12  1  0
 12 13  2  0
 13 14  1  0
 14 15  1  0
 14 16  2  0
  8 17  2  0
 17 18  1  0
 18 19  2  0
 19 20  1  0
 20 21  2  0
 21 22  1  0
 21 23  1  0
 23 24  2  0
 17 25  1  0
  5 26  1  0
 26 27  2  0
 27  2  1  0
 25  6  1  0
 16 10  1  0
 24 18  1  0
  3 28  1  0
  4 29  1  0
  7 30  1  0
  9 31  1  0
  9 32  1  0
 11 33  1  0
 12 34  1  0
 13 35  1  0
 16 36  1  0
 19 37  1  0
 20 38  1  0
 22 39  1  0
 23 40  1  0
 24 41  1  0
 26 42  1  0
 27 43  1  0
M  CHG  1   1  -1
M  END
>  <UniqueID>  (31) 
28

>  <SMILES>  (31) 
[O-]c1ccc(-c2cc(Cc3cccc(Cl)c3)c(-c3ccc(O)cc3)s2)cc1

>  <Energy>  (31) 
80.76683999966987

>  <Genealogy>  (31) 
[O-]c1ccc(-c2cc(Cc3cccc(Cl)c3)c(-c3ccc(O)cc3)s2)cc1 (protonated)
[O-]c1ccc(-c2cc(Cc3cccc(Cl)c3)c(-c3ccc(O)cc3)s2)cc1 (3D coordinates assigned)
[O-]c1ccc(-c2cc(Cc3cccc(Cl)c3)c(-c3ccc(O)cc3)s2)cc1 (optimized conformer: 80.76683999966987 kcal/mol)

>  <smiles>  (31) 
Oc1ccc(-c2cc(Cc3cccc(Cl)c3)c(-c3ccc(O)cc3)s2)cc1

>  <score_type>  (31) 
oracle

>  <origin>  (31) 
adg

>  <m_score__min__energy>  (31) 
-9.9199999999999999

>  <m_primary>  (31) 
energy

$$$$
31:0
     RDKit          3D

 33 35  0  0  1  0  0  0  0  0999 V2000
   60.7220   34.2030   47.5470 C   0  0  0  0  0  0  0  0  0  0  0  0
   59.9220   34.2930   46.3860 O   0  0  0  0  0  0  0  0  0  0  0  0
   59.0520   33.2950   45.9830 C   0  0  0  0  0  0  0  0  0  0  0  0
   59.3910   31.9960   46.3780 C   0  0  0  0  0  0  0  0  0  0  0  0
   58.5640   30.9530   46.0080 C   0  0  0  0  0  0  0  0  0  0  0  0
   57.4060   31.1780   45.2540 C   0  0  0  0  0  0  0  0  0  0  0  0
   56.5600   30.0840   44.8810 N   0  0  0  0  0  0  0  0  0  0  0  0
   57.0420   28.9120   44.6330 C   0  0  0  0  0  0  0  0  0  0  0  0
   56.6930   27.9180   45.4690 N   0  0  0  0  0  0  0  0  0  0  0  0
   57.1530   26.6670   45.2810 C   0  0  0  0  0  0  0  0  0  0  0  0
   56.7440   25.6260   46.2170 C   0  0  0  0  0  0  0  0  0  0  0  0
   57.6040   25.0350   47.1200 C   0  0  0  0  0  0  0  0  0  0  0  0
   56.8240   24.1160   47.8040 C   0  0  0  0  0  0  0  0  0  0  0  0
   55.5550   24.1620   47.3260 N   0  0  0  0  0  0  0  0  0  0  0  0
   55.5250   25.0790   46.3690 N   0  0  0  0  0  0  0  0  0  0  0  0
   57.9920   26.4040   44.2170 C   0  0  0  0  0  0  0  0  0  0  0  0
   58.3290   27.4620   43.3750 C   0  0  0  0  0  0  0  0  0  0  0  0
   57.8620   28.7110   43.5730 N   0  0  0  0  0  0  0  0  0  0  0  0
   57.0880   32.4690   44.8740 C   0  0  0  0  0  0  0  0  0  0  0  0
   57.9130   33.5280   45.2400 C   0  0  0  0  0  0  0  0  0  0  0  0
   60.0827   34.2749   48.4393 H   0  0  0  0  0  0  0  0  0  0  0  0
   61.2527   33.2395   47.5528 H   0  0  0  0  0  0  0  0  0  0  0  0
   61.4535   35.0245   47.5528 H   0  0  0  0  0  0  0  0  0  0  0  0
   60.2981   31.8090   46.9714 H   0  0  0  0  0  0  0  0  0  0  0  0
   58.8200   29.9271   46.3113 H   0  0  0  0  0  0  0  0  0  0  0  0
   58.6736   25.2468   47.2651 H   0  0  0  0  0  0  0  0  0  0  0  0
   57.1780   23.4537   48.6078 H   0  0  0  0  0  0  0  0  0  0  0  0
   54.7680   23.5610   47.6810 H   0  0  0  0  0  0  0  0  0  0  0  0
   58.3824   25.3911   44.0393 H   0  0  0  0  0  0  0  0  0  0  0  0
   58.9971   27.2720   42.5220 H   0  0  0  0  0  0  0  0  0  0  0  0
   58.1170   29.5070   42.9380 H   0  0  0  0  0  0  0  0  0  0  0  0
   56.1811   32.6591   44.2812 H   0  0  0  0  0  0  0  0  0  0  0  0
   57.6565   34.5536   44.9362 H   0  0  0  0  0  0  0  0  0  0  0  0
  1  2  1  0
  2  3  1  0
  3  4  2  0
  4  5  1  0
  5  6  2  0
  6  7  1  0
  7  8  2  0
  8  9  1  0
  9 10  2  0
 10 11  1  0
 11 12  1  0
 12 13  2  0
 13 14  1  0
 14 15  1  0
 10 16  1  0
 16 17  2  0
 17 18  1  0
  6 19  1  0
 19 20  2  0
 20  3  1  0
 18  8  1  0
 15 11  2  0
  1 21  1  0
  1 22  1  0
  1 23  1  0
  4 24  1  0
  5 25  1  0
 12 26  1  0
 13 27  1  0
 14 28  1  0
 16 29  1  0
 17 30  1  0
 18 31  1  0
 19 32  1  0
 20 33  1  0
M  END
>  <smiles>  (32) 
COc1ccc(N=c2nc(-c3cc[nH]n3)cc[nH]2)cc1

>  <score_type>  (32) 
oracle

>  <origin>  (32) 
adg

>  <m_score__min__energy>  (32) 
-7.0599999999999996

>  <m_primary>  (32) 
energy

$$$$
32:0
     RDKit          3D

 50 52  0  0  1  0  0  0  0  0999 V2000
   55.8610   22.7590   48.2040 C   0  0  0  0  0  0  0  0  0  0  0  0
   57.1270   23.0180   47.6730 O   0  0  0  0  0  0  0  0  0  0  0  0
   57.3670   23.9420   46.6840 C   0  0  0  0  0  0  0  0  0  0  0  0
   57.4720   23.6620   45.3480 C   0  0  0  0  0  0  0  0  0  0  0  0
   57.7160   24.6530   44.4040 C   0  0  0  0  0  0  0  0  0  0  0  0
   57.8670   25.9910   44.7890 C   0  0  0  0  0  0  0  0  0  0  0  0
   58.1910   27.1850   43.5800 S   0  0  0  0  0  0  0  0  0  0  0  0
   59.5690   27.7780   43.7250 O   0  0  0  0  0  0  0  0  0  0  0  0
   58.1930   26.4540   42.2450 O   0  0  0  0  0  0  0  0  0  0  0  0
   57.0910   28.4900   43.5450 N   0  0  0  0  0  0  0  0  0  0  0  0
   57.3140   29.7860   44.0410 C   0  0  0  0  0  0  0  0  0  0  0  0
   57.2290   30.8330   43.1190 C   0  0  0  0  0  0  0  0  0  0  0  0
   57.4410   32.1310   43.5070 C   0  0  0  0  0  0  0  0  0  0  0  0
   57.7470   32.4770   44.8020 C   0  0  0  0  0  0  0  0  0  0  0  0
   58.0270   34.1300   45.3110 S   0  0  0  0  0  0  0  0  0  0  0  0
   57.3780   34.2220   46.6950 O   0  0  0  0  0  0  0  0  0  0  0  0
   57.2630   35.1290   44.4970 O   0  0  0  0  0  0  0  0  0  0  0  0
   59.6620   34.5040   45.5670 N   0  0  0  0  0  0  0  0  0  0  0  0
   60.3760   34.1810   46.5700 C   0  0  0  0  0  0  0  0  0  0  0  0
   61.7000   33.8420   46.3570 C   0  0  0  0  0  0  0  0  0  0  0  0
   62.4340   33.4990   47.4760 C   0  0  0  0  0  0  0  0  0  0  0  0
   63.8580   33.1320   47.2590 C   0  0  0  0  0  0  0  0  0  0  0  0
   61.8470   33.5090   48.6850 N   0  0  0  0  0  0  0  0  0  0  0  0
   60.5390   33.8520   48.8400 C   0  0  0  0  0  0  0  0  0  0  0  0
   59.9690   33.8350   50.2150 C   0  0  0  0  0  0  0  0  0  0  0  0
   59.8040   34.1870   47.7790 N   0  0  0  0  0  0  0  0  0  0  0  0
   57.8290   31.4210   45.7120 C   0  0  0  0  0  0  0  0  0  0  0  0
   57.6180   30.1110   45.3380 C   0  0  0  0  0  0  0  0  0  0  0  0
   57.7570   26.2400   46.1360 C   0  0  0  0  0  0  0  0  0  0  0  0
   57.5150   25.2640   47.0740 C   0  0  0  0  0  0  0  0  0  0  0  0
   55.9149   22.7700   49.3026 H   0  0  0  0  0  0  0  0  0  0  0  0
   55.1556   23.5314   47.8637 H   0  0  0  0  0  0  0  0  0  0  0  0
   55.5157   21.7716   47.8637 H   0  0  0  0  0  0  0  0  0  0  0  0
   57.3599   22.6209   45.0111 H   0  0  0  0  0  0  0  0  0  0  0  0
   57.7915   24.3825   43.3404 H   0  0  0  0  0  0  0  0  0  0  0  0
   56.1350   28.3210   43.1060 H   0  0  0  0  0  0  0  0  0  0  0  0
   56.9889   30.6129   42.0683 H   0  0  0  0  0  0  0  0  0  0  0  0
   57.3631   32.9272   42.7520 H   0  0  0  0  0  0  0  0  0  0  0  0
   62.1445   33.8453   45.3508 H   0  0  0  0  0  0  0  0  0  0  0  0
   64.3559   33.0037   48.2315 H   0  0  0  0  0  0  0  0  0  0  0  0
   63.9118   32.1906   46.6925 H   0  0  0  0  0  0  0  0  0  0  0  0
   64.3601   33.9301   46.6925 H   0  0  0  0  0  0  0  0  0  0  0  0
   60.7861   33.8594   50.9510 H   0  0  0  0  0  0  0  0  0  0  0  0
   59.3230   34.7143   50.3550 H   0  0  0  0  0  0  0  0  0  0  0  0
   59.3766   32.9188   50.3550 H   0  0  0  0  0  0  0  0  0  0  0  0
   58.8140   34.4500   47.8710 H   0  0  0  0  0  0  0  0  0  0  0  0
   58.0700   31.6418   46.7623 H   0  0  0  0  0  0  0  0  0  0  0  0
   57.6947   29.3138   46.0920 H   0  0  0  0  0  0  0  0  0  0  0  0
   57.8687   27.2778   46.4832 H   0  0  0  0  0  0  0  0  0  0  0  0
   57.4386   25.5333   48.1378 H   0  0  0  0  0  0  0  0  0  0  0  0
  1  2  1  0
  2  3  1  0
  3  4  2  0
  4  5  1  0
  5  6  2  0
  6  7  1  0
  7  8  2  0
  7  9  2  0
  7 10  1  0
 10 11  1  0
 11 12  2  0
 12 13  1  0
 13 14  2  0
 14 15  1  0
 15 16  2  0
 15 17  2  0
 15 18  1  0
 18 19  2  0
 19 20  1  0
 20 21  2  0
 21 22  1  0
 21 23  1  0
 23 24  2  0
 24 25  1  0
 24 26  1  0
 14 27  1  0
 27 28  2  0
  6 29  1  0
 29 30  2  0
 30  3  1  0
 28 11  1  0
 26 19  1  0
  1 31  1  0
  1 32  1  0
  1 33  1  0
  4 34  1  0
  5 35  1  0
 10 36  1  0
 12 37  1  0
 13 38  1  0
 20 39  1  0
 22 40  1  0
 22 41  1  0
 22 42  1  0
 25 43  1  0
 25 44  1  0
 25 45  1  0
 26 46  1  0
 27 47  1  0
 28 48  1  0
 29 49  1  0
 30 50  1  0
M  END
>  <smiles>  (33) 
COc1ccc(S(=O)(=O)Nc2ccc(S(=O)(=O)N=c3cc(C)nc(C)[nH]3)cc2)cc1

>  <score_type>  (33) 
oracle

>  <origin>  (33) 
adg

>  <m_score__min__energy>  (33) 
-9.6199999999999992

>  <m_primary>  (33) 
energy

$$$$
33:0
     RDKit          3D

 45 47  0  0  0  0  0  0  0  0999 V2000
   59.5420   22.0290   44.8610 C   0  0  0  0  0  0  0  0  0  0  0  0
   59.3970   22.9850   45.9070 O   0  0  0  0  0  0  0  0  0  0  0  0
   59.1360   24.3480   45.7040 C   0  0  0  0  0  0  0  0  0  0  0  0
   58.0030   24.7040   44.9640 C   0  0  0  0  0  0  0  0  0  0  0  0
   57.6980   26.0480   44.7330 C   0  0  0  0  0  0  0  0  0  0  0  0
   58.5250   27.0620   45.2410 C   0  0  0  0  0  0  0  0  0  0  0  0
   58.2020   28.4880   44.9930 C   0  0  0  0  0  0  0  0  0  0  0  0
   58.6490   29.4280   45.8550 C   0  0  0  0  0  0  0  0  0  0  0  0
   58.4000   30.8940   45.7220 C   0  0  0  0  0  0  0  0  0  0  0  0
   59.1670   31.8520   46.5580 C   0  0  0  0  0  0  0  0  0  0  0  0
   58.5300   32.9430   47.1720 C   0  0  0  0  0  0  0  0  0  0  0  0
   59.2550   33.8360   47.9630 C   0  0  0  0  0  0  0  0  0  0  0  0
   60.6360   33.6550   48.1620 C   0  0  0  0  0  0  0  0  0  0  0  0
   61.3970   34.5350   48.9490 O   0  0  0  0  0  0  0  0  0  0  0  0
   62.1400   34.1490   50.1000 C   0  0  0  0  0  0  0  0  0  0  0  0
   61.2840   32.5660   47.5620 C   0  0  0  0  0  0  0  0  0  0  0  0
   62.6620   32.4090   47.7820 O   0  0  0  0  0  0  0  0  0  0  0  0
   63.6780   33.1150   47.0770 C   0  0  0  0  0  0  0  0  0  0  0  0
   60.5460   31.6670   46.7670 C   0  0  0  0  0  0  0  0  0  0  0  0
   57.4830   31.3560   44.9230 N   0  0  0  0  0  0  0  0  0  0  0  0
   56.5330   30.3170   43.9310 S   0  0  0  0  0  0  0  0  0  0  0  0
   56.2700   30.9690   42.6030 O   0  0  0  0  0  0  0  0  0  0  0  0
   55.2350   29.9920   44.6160 O   0  0  0  0  0  0  0  0  0  0  0  0
   57.5010   28.8530   43.7050 C   0  0  0  0  0  0  0  0  0  0  0  0
   59.6630   26.7050   45.9860 C   0  0  0  0  0  0  0  0  0  0  0  0
   59.9670   25.3620   46.2160 C   0  0  0  0  0  0  0  0  0  0  0  0
   59.6935   21.0300   45.2957 H   0  0  0  0  0  0  0  0  0  0  0  0
   58.6342   22.0247   44.2398 H   0  0  0  0  0  0  0  0  0  0  0  0
   60.4102   22.2941   44.2398 H   0  0  0  0  0  0  0  0  0  0  0  0
   57.3466   23.9189   44.5605 H   0  0  0  0  0  0  0  0  0  0  0  0
   56.8041   26.3130   44.1493 H   0  0  0  0  0  0  0  0  0  0  0  0
   59.2398   29.0879   46.7182 H   0  0  0  0  0  0  0  0  0  0  0  0
   57.4501   33.0951   47.0282 H   0  0  0  0  0  0  0  0  0  0  0  0
   58.7427   34.6877   48.4343 H   0  0  0  0  0  0  0  0  0  0  0  0
   61.5872   34.4362   51.0066 H   0  0  0  0  0  0  0  0  0  0  0  0
   62.2895   33.0592   50.0915 H   0  0  0  0  0  0  0  0  0  0  0  0
   63.1176   34.6532   50.0915 H   0  0  0  0  0  0  0  0  0  0  0  0
   64.3613   33.5898   47.7965 H   0  0  0  0  0  0  0  0  0  0  0  0
   64.2413   32.4127   46.4449 H   0  0  0  0  0  0  0  0  0  0  0  0
   63.2163   33.8879   46.4449 H   0  0  0  0  0  0  0  0  0  0  0  0
   61.0548   30.8089   46.3035 H   0  0  0  0  0  0  0  0  0  0  0  0
   56.8429   28.0252   43.4021 H   0  0  0  0  0  0  0  0  0  0  0  0
   58.2548   29.0374   42.9254 H   0  0  0  0  0  0  0  0  0  0  0  0
   60.3187   27.4900   46.3907 H   0  0  0  0  0  0  0  0  0  0  0  0
   60.8601   25.0951   46.8001 H   0  0  0  0  0  0  0  0  0  0  0  0
  1  2  1  0
  2  3  1  0
  3  4  2  0
  4  5  1  0
  5  6  2  0
  6  7  1  0
  7  8  2  0
  8  9  1  0
  9 10  1  0
 10 11  2  0
 11 12  1  0
 12 13  2  0
 13 14  1  0
 14 15  1  0
 13 16  1  0
 16 17  1  0
 17 18  1  0
 16 19  2  0
  9 20  2  0
 20 21  1  0
 21 22  2  0
 21 23  2  0
 21 24  1  0
  6 25  1  0
 25 26  2  0
 26  3  1  0
 24  7  1  0
 19 10  1  0
  1 27  1  0
  1 28  1  0
  1 29  1  0
  4 30  1  0
  5 31  1  0
  8 32  1  0
 11 33  1  0
 12 34  1  0
 15 35  1  0
 15 36  1  0
 15 37  1  0
 18 38  1  0
 18 39  1  0
 18 40  1  0
 19 41  1  0
 24 42  1  0
 24 43  1  0
 25 44  1  0
 26 45  1  0
M  END
>  <UniqueID>  (34) 
29

>  <SMILES>  (34) 
COc1ccc(C2=CC(c3ccc(OC)c(OC)c3)=NS(=O)(=O)C2)cc1

>  <Energy>  (34) 
56.56789495375272

>  <Genealogy>  (34) 
COc1ccc(C2=CC(c3ccc(OC)c(OC)c3)=NS(=O)(=O)C2)cc1 (3D coordinates assigned)
COc1ccc(C2=CC(c3ccc(OC)c(OC)c3)=NS(=O)(=O)C2)cc1 (nonaromatic ring conformer: 56.56789495375272 kcal/mol)

>  <smiles>  (34) 
COc1ccc(C2=CC(c3ccc(OC)c(OC)c3)=NS(=O)(=O)C2)cc1

>  <score_type>  (34) 
oracle

>  <origin>  (34) 
adg

>  <m_score__min__energy>  (34) 
-8

>  <m_primary>  (34) 
energy

$$$$
34:0
     RDKit          3D

 35 37  0  0  1  0  0  0  0  0999 V2000
   57.0450   29.0290   43.8280 C   0  0  0  0  0  0  0  0  0  0  0  0
   56.6480   30.0360   44.7290 O   0  0  0  0  0  0  0  0  0  0  0  0
   57.2710   31.2530   44.8670 C   0  0  0  0  0  0  0  0  0  0  0  0
   57.4130   32.1590   43.8520 C   0  0  0  0  0  0  0  0  0  0  0  0
   58.0400   33.3430   44.0620 C   0  0  0  0  0  0  0  0  0  0  0  0
   58.5850   33.7440   45.2890 C   0  0  0  0  0  0  0  0  0  0  0  0
   59.2750   35.0420   45.4880 C   0  0  0  0  0  0  0  0  0  0  0  0
   60.3590   35.0690   46.3450 N   0  0  0  0  0  0  0  0  0  0  0  0
   60.5600   34.5750   47.4490 C   0  0  0  0  0  0  0  0  0  0  0  0
   59.6460   34.7510   48.4280 N   0  0  0  0  0  0  0  0  0  0  0  0
   59.7490   34.2270   49.6570 C   0  0  0  0  0  0  0  0  0  0  0  0
   60.8270   33.4780   49.9310 N   0  0  0  0  0  0  0  0  0  0  0  0
   61.7550   33.2830   48.9820 C   0  0  0  0  0  0  0  0  0  0  0  0
   62.8400   32.5110   49.3240 C   0  0  0  0  0  0  0  0  0  0  0  0
   63.7880   32.3250   48.3410 C   0  0  0  0  0  0  0  0  0  0  0  0
   63.7260   32.8420   47.0860 C   0  0  0  0  0  0  0  0  0  0  0  0
   62.6040   33.6360   46.7400 C   0  0  0  0  0  0  0  0  0  0  0  0
   61.6700   33.8170   47.7060 C   0  0  0  0  0  0  0  0  0  0  0  0
   58.4310   32.8130   46.3030 C   0  0  0  0  0  0  0  0  0  0  0  0
   57.7870   31.5910   46.0960 C   0  0  0  0  0  0  0  0  0  0  0  0
   57.3917   28.1496   44.3905 H   0  0  0  0  0  0  0  0  0  0  0  0
   56.1911   28.7460   43.1949 H   0  0  0  0  0  0  0  0  0  0  0  0
   57.8622   29.4049   43.1949 H   0  0  0  0  0  0  0  0  0  0  0  0
   57.0140   31.9245   42.8541 H   0  0  0  0  0  0  0  0  0  0  0  0
   58.1266   34.0354   43.2116 H   0  0  0  0  0  0  0  0  0  0  0  0
   59.6268   35.3814   44.5026 H   0  0  0  0  0  0  0  0  0  0  0  0
   58.5238   35.6850   45.9699 H   0  0  0  0  0  0  0  0  0  0  0  0
   58.7950   35.3290   48.2470 H   0  0  0  0  0  0  0  0  0  0  0  0
   58.9740   34.4056   50.4169 H   0  0  0  0  0  0  0  0  0  0  0  0
   62.9455   32.0672   50.3249 H   0  0  0  0  0  0  0  0  0  0  0  0
   64.6642   31.7093   48.5924 H   0  0  0  0  0  0  0  0  0  0  0  0
   64.5266   32.6492   46.3567 H   0  0  0  0  0  0  0  0  0  0  0  0
   62.4967   34.0820   45.7402 H   0  0  0  0  0  0  0  0  0  0  0  0
   58.8283   33.0433   47.3026 H   0  0  0  0  0  0  0  0  0  0  0  0
   57.6906   30.8843   46.9335 H   0  0  0  0  0  0  0  0  0  0  0  0
  1  2  1  0
  2  3  1  0
  3  4  2  0
  4  5  1  0
  5  6  2  0
  6  7  1  0
  7  8  1  0
  8  9  2  0
  9 10  1  0
 10 11  1  0
 11 12  2  0
 12 13  1  0
 13 14  2  0
 14 15  1  0
 15 16  2  0
 16 17  1  0
 17 18  2  0
  6 19  1  0
 19 20  2  0
 20  3  1  0
 18  9  1  0
 18 13  1  0
  1 21  1  0
  1 22  1  0
  1 23  1  0
  4 24  1  0
  5 25  1  0
  7 26  1  0
  7 27  1  0
 10 28  1  0
 11 29  1  0
 14 30  1  0
 15 31  1  0
 16 32  1  0
 17 33  1  0
 19 34  1  0
 20 35  1  0
M  END
>  <smiles>  (35) 
COc1ccc(CN=c2[nH]cnc3ccccc23)cc1

>  <score_type>  (35) 
oracle

>  <origin>  (35) 
adg

>  <m_score__min__energy>  (35) 
-6.8600000000000003

>  <m_primary>  (35) 
energy

$$$$
35:0
     RDKit          3D

 46 49  0  0  0  0  0  0  0  0999 V2000
   65.2160   33.4710   50.5760 C   0  0  0  0  0  0  0  0  0  0  0  0
   64.6170   32.5570   49.6640 O   0  0  0  0  0  0  0  0  0  0  0  0
   63.4740   32.8330   48.8960 C   0  0  0  0  0  0  0  0  0  0  0  0
   63.5060   32.8550   47.4900 C   0  0  0  0  0  0  0  0  0  0  0  0
   62.3480   33.1280   46.7570 C   0  0  0  0  0  0  0  0  0  0  0  0
   61.1370   33.3960   47.4140 C   0  0  0  0  0  0  0  0  0  0  0  0
   59.9060   33.6800   46.6350 C   0  0  0  0  0  0  0  0  0  0  0  0
   58.8310   32.8580   46.5680 N   0  0  0  0  0  0  0  0  0  0  0  0
   57.8390   33.3470   45.7790 C   0  0  0  0  0  0  0  0  0  0  0  0
   58.1100   34.5790   45.1950 C   0  0  0  0  0  0  0  0  0  0  0  0
   59.6460   35.0520   45.6910 S   0  0  0  0  0  0  0  0  0  0  0  0
   61.1110   33.3970   48.8170 C   0  0  0  0  0  0  0  0  0  0  0  0
   62.2640   33.0860   49.5590 C   0  0  0  0  0  0  0  0  0  0  0  0
   62.2380   33.0710   50.9960 N   0  0  0  0  0  0  0  0  0  0  0  0
   61.3450   32.2990   51.8090 C   0  0  0  0  0  0  0  0  0  0  0  0
   61.7670   31.2340   52.3280 O   0  0  0  0  0  0  0  0  0  0  0  0
   59.9310   32.6890   51.9790 C   0  0  0  0  0  0  0  0  0  0  0  0
   59.4260   34.2040   52.5110 S   0  0  0  0  0  0  0  0  0  0  0  0
   57.7820   33.8680   52.5400 C   0  0  0  0  0  0  0  0  0  0  0  0
   57.6030   32.5520   52.1400 C   0  0  0  0  0  0  0  0  0  0  0  0
   58.7950   31.8910   51.8040 C   0  0  0  0  0  0  0  0  0  0  0  0
   58.8290   30.1770   51.3800 S   0  0  0  0  0  0  0  0  0  0  0  0
   57.4360   29.6270   51.2510 O   0  0  0  0  0  0  0  0  0  0  0  0
   59.5180   29.4410   52.4930 O   0  0  0  0  0  0  0  0  0  0  0  0
   59.7060   29.8970   49.9080 N   0  0  0  0  0  0  0  0  0  0  0  0
   59.2510   29.7670   48.6960 C   0  0  0  0  0  0  0  0  0  0  0  0
   58.5700   30.7220   48.1060 O   0  0  0  0  0  0  0  0  0  0  0  0
   58.2140   30.3780   46.9040 N   0  0  0  0  0  0  0  0  0  0  0  0
   58.6830   29.1320   46.6980 C   0  0  0  0  0  0  0  0  0  0  0  0
   58.5200   28.3840   45.4150 C   0  0  0  0  0  0  0  0  0  0  0  0
   59.3630   28.6940   47.8180 C   0  0  0  0  0  0  0  0  0  0  0  0
   60.1870   27.1510   47.9590 Cl  0  0  0  0  0  0  0  0  0  0  0  0
   65.0061   33.1507   51.6072 H   0  0  0  0  0  0  0  0  0  0  0  0
   66.3036   33.4920   50.4128 H   0  0  0  0  0  0  0  0  0  0  0  0
   64.8012   34.4767   50.4128 H   0  0  0  0  0  0  0  0  0  0  0  0
   64.4507   32.6556   46.9629 H   0  0  0  0  0  0  0  0  0  0  0  0
   62.3858   33.1329   45.6577 H   0  0  0  0  0  0  0  0  0  0  0  0
   58.7610   31.9290   47.0420 H   0  0  0  0  0  0  0  0  0  0  0  0
   56.8936   32.8091   45.6148 H   0  0  0  0  0  0  0  0  0  0  0  0
   57.4406   35.1429   44.5287 H   0  0  0  0  0  0  0  0  0  0  0  0
   60.1770   33.6442   49.3428 H   0  0  0  0  0  0  0  0  0  0  0  0
   56.9848   34.5697   52.8265 H   0  0  0  0  0  0  0  0  0  0  0  0
   56.6157   32.0696   52.0905 H   0  0  0  0  0  0  0  0  0  0  0  0
   58.2904   27.3303   45.6315 H   0  0  0  0  0  0  0  0  0  0  0  0
   57.6973   28.8267   44.8344 H   0  0  0  0  0  0  0  0  0  0  0  0
   59.4524   28.4443   44.8344 H   0  0  0  0  0  0  0  0  0  0  0  0
  1  2  1  0
  2  3  1  0
  3  4  2  0
  4  5  1  0
  5  6  2  0
  6  7  1  0
  7  8  2  0
  8  9  1  0
  9 10  2  0
 10 11  1  0
  6 12  1  0
 12 13  2  0
 13 14  1  0
 14 15  1  0
 15 16  2  0
 15 17  1  0
 17 18  1  0
 18 19  1  0
 19 20  2  0
 20 21  1  0
 21 22  1  0
 22 23  2  0
 22 24  2  0
 22 25  1  0
 25 26  2  3
 26 27  1  0
 27 28  1  0
 28 29  1  0
 29 30  1  0
 29 31  2  0
 31 32  1  0
 13  3  1  0
 21 17  2  0
 31 26  1  0
 11  7  1  0
  1 33  1  0
  1 34  1  0
  1 35  1  0
  4 36  1  0
  5 37  1  0
  8 38  1  0
  9 39  1  0
 10 40  1  0
 12 41  1  0
 19 42  1  0
 20 43  1  0
 30 44  1  0
 30 45  1  0
 30 46  1  0
M  CHG  3   8   1  14  -1  28  -1
M  END
>  <UniqueID>  (36) 
30

>  <SMILES>  (36) 
COc1ccc(-c2[nH+]ccs2)cc1[N-]C(=O)c1sccc1S(=O)(=O)N=c1o[n-]c(C)c1Cl

>  <Energy>  (36) 
153.33371950812565

>  <Genealogy>  (36) 
COc1ccc(-c2[nH+]ccs2)cc1[N-]C(=O)c1sccc1S(=O)(=O)N=c1o[n-]c(C)c1Cl (protonated)
COc1ccc(-c2[nH+]ccs2)cc1[N-]C(=O)c1sccc1S(=O)(=O)N=c1o[n-]c(C)c1Cl (3D coordinates assigned)
COc1ccc(-c2[nH+]ccs2)cc1[N-]C(=O)c1sccc1S(=O)(=O)N=c1o[n-]c(C)c1Cl (optimized conformer: 153.33371950812565 kcal/mol)

>  <smiles>  (36) 
COc1ccc(-c2nccs2)cc1NC(=O)c1sccc1S(=O)(=O)N=c1o[nH]c(C)c1Cl

>  <score_type>  (36) 
oracle

>  <origin>  (36) 
adg

>  <m_score__min__energy>  (36) 
-12.08

>  <m_primary>  (36) 
energy

$$$$
36:0
     RDKit          3D

 35 37  0  0  0  0  0  0  0  0999 V2000
   54.7550   28.9650   45.5210 H   0  0  0  0  0  0  0  0  0  0  0  0
   55.7260   28.9080   45.2420 O   0  0  0  0  0  0  0  0  0  0  0  0
   56.3620   30.0190   44.7360 N   0  0  0  0  0  0  0  0  0  0  0  0
   57.5450   30.3760   45.1360 C   0  0  0  0  0  0  0  0  0  0  0  0
   58.5860   29.3460   45.3290 C   0  0  0  0  0  0  0  0  0  0  0  0
   58.3930   27.8940   46.1600 S   0  0  0  0  0  0  0  0  0  0  0  0
   59.9620   27.3360   45.9360 C   0  0  0  0  0  0  0  0  0  0  0  0
   60.3659   26.3819   46.3055 H   0  0  0  0  0  0  0  0  0  0  0  0
   60.6610   28.2870   45.2040 C   0  0  0  0  0  0  0  0  0  0  0  0
   61.7165   28.1692   44.9174 H   0  0  0  0  0  0  0  0  0  0  0  0
   59.8960   29.4100   44.8650 C   0  0  0  0  0  0  0  0  0  0  0  0
   60.2919   30.2591   44.2886 H   0  0  0  0  0  0  0  0  0  0  0  0
   57.8620   31.8040   45.3700 C   0  0  0  0  0  0  0  0  0  0  0  0
   57.5880   32.7210   44.3420 C   0  0  0  0  0  0  0  0  0  0  0  0
   57.1268   32.3704   43.4069 H   0  0  0  0  0  0  0  0  0  0  0  0
   57.8960   34.0730   44.4970 C   0  0  0  0  0  0  0  0  0  0  0  0
   57.6775   34.7805   43.6836 H   0  0  0  0  0  0  0  0  0  0  0  0
   58.4790   34.5320   45.6770 C   0  0  0  0  0  0  0  0  0  0  0  0
   58.7229   35.5988   45.7889 H   0  0  0  0  0  0  0  0  0  0  0  0
   58.7560   33.6380   46.7230 C   0  0  0  0  0  0  0  0  0  0  0  0
   59.3360   34.1080   47.9120 C   0  0  0  0  0  0  0  0  0  0  0  0
   59.5753   35.1765   48.0168 H   0  0  0  0  0  0  0  0  0  0  0  0
   59.6130   33.2260   48.9680 C   0  0  0  0  0  0  0  0  0  0  0  0
   60.1840   33.7190   50.1980 N   0  0  0  0  0  0  0  0  0  0  0  0
   61.1280   33.2950   50.3530 H   0  0  0  0  0  0  0  0  0  0  0  0
   60.3010   34.7580   50.1510 H   0  0  0  0  0  0  0  0  0  0  0  0
   59.3160   33.3830   51.3270 C   0  0  0  0  0  0  0  0  0  0  0  0
   59.8447   33.5877   52.2696 H   0  0  0  0  0  0  0  0  0  0  0  0
   58.4011   33.9919   51.2801 H   0  0  0  0  0  0  0  0  0  0  0  0
   59.0496   32.3168   51.2801 H   0  0  0  0  0  0  0  0  0  0  0  0
   59.2800   31.8700   48.8340 C   0  0  0  0  0  0  0  0  0  0  0  0
   59.4751   31.1770   49.6657 H   0  0  0  0  0  0  0  0  0  0  0  0
   58.7040   31.3910   47.6570 C   0  0  0  0  0  0  0  0  0  0  0  0
   58.4513   30.3240   47.5691 H   0  0  0  0  0  0  0  0  0  0  0  0
   58.4430   32.2610   46.5800 C   0  0  0  0  0  0  0  0  0  0  0  0
  1  2  1  0
  2  3  1  0
  3  4  2  0
  4  5  1  0
  5  6  1  0
  6  7  1  0
  7  8  1  0
  7  9  2  0
  9 10  1  0
  9 11  1  0
 11 12  1  0
  4 13  1  0
 13 14  2  0
 14 15  1  0
 14 16  1  0
 16 17  1  0
 16 18  2  0
 18 19  1  0
 18 20  1  0
 20 21  2  0
 21 22  1  0
 21 23  1  0
 23 24  1  0
 24 25  1  0
 24 26  1  0
 24 27  1  0
 27 28  1  0
 27 29  1  0
 27 30  1  0
 23 31  2  0
 31 32  1  0
 31 33  1  0
 33 34  1  0
 33 35  2  0
 11  5  2  0
 35 13  1  0
 35 20  1  0
M  CHG  1  24   1
M  END
>  <UniqueID>  (37) 
31

>  <SMILES>  (37) 
C[NH2+]c1ccc2c(/C(=N\O)c3cccs3)cccc2c1

>  <Energy>  (37) 
73.36844446769395

>  <Genealogy>  (37) 
C[NH2+]c1ccc2c(C(=NO)c3cccs3)cccc2c1 (protonated)
C[NH2+]c1ccc2c(/C(=N\O)c3cccs3)cccc2c1 (cis-trans isomerization)
C[NH2+]c1ccc2c(/C(=N\O)c3cccs3)cccc2c1 (3D coordinates assigned)
C[NH2+]c1ccc2c(/C(=N\O)c3cccs3)cccc2c1 (optimized conformer: 73.36844446769395 kcal/mol)

>  <smiles>  (37) 
CNc1ccc2c(C(=NO)c3cccs3)cccc2c1

>  <score_type>  (37) 
oracle

>  <origin>  (37) 
adg

>  <m_score__min__energy>  (37) 
-7.0199999999999996

>  <m_primary>  (37) 
energy

$$$$
37:0
     RDKit          3D

 56 59  0  0  1  0  0  0  0  0999 V2000
   60.7440   30.5200   47.4990 C   0  0  0  0  0  0  0  0  0  0  0  0
   59.5990   31.4090   47.8400 C   0  0  0  0  0  0  0  0  0  0  0  0
   58.7850   31.8450   46.7540 N   0  0  0  0  0  0  0  0  0  0  0  0
   58.1440   30.8440   45.9560 C   0  0  0  0  0  0  0  0  0  0  0  0
   57.8100   29.6270   46.4840 N   0  0  0  0  0  0  0  0  0  0  0  0
   57.2110   28.7110   45.7160 C   0  0  0  0  0  0  0  0  0  0  0  0
   56.9100   27.5790   46.2460 N   0  0  0  0  0  0  0  0  0  0  0  0
   57.8070   26.4810   46.1400 C   0  0  0  0  0  0  0  0  0  0  0  0
   59.1420   26.7540   46.4300 C   0  0  0  0  0  0  0  0  0  0  0  0
   60.1180   25.7790   46.3660 C   0  0  0  0  0  0  0  0  0  0  0  0
   59.7140   24.5030   45.9980 C   0  0  0  0  0  0  0  0  0  0  0  0
   58.3950   24.2320   45.7110 C   0  0  0  0  0  0  0  0  0  0  0  0
   57.4100   25.2120   45.7750 C   0  0  0  0  0  0  0  0  0  0  0  0
   56.9370   28.9810   44.4230 N   0  0  0  0  0  0  0  0  0  0  0  0
   57.2380   30.1540   43.8380 C   0  0  0  0  0  0  0  0  0  0  0  0
   56.9730   30.3950   42.6200 N   0  0  0  0  0  0  0  0  0  0  0  0
   57.8540   31.1130   44.6130 C   0  0  0  0  0  0  0  0  0  0  0  0
   58.2230   32.4010   44.1060 N   0  0  0  0  0  0  0  0  0  0  0  0
   57.9450   32.7110   42.7170 C   0  0  0  0  0  0  0  0  0  0  0  0
   58.8670   33.3560   44.9810 C   0  0  0  0  0  0  0  0  0  0  0  0
   59.6210   34.1720   44.4180 O   0  0  0  0  0  0  0  0  0  0  0  0
   58.5640   33.2570   46.4040 C   0  0  1  0  0  0  0  0  0  0  0  0
   57.0490   33.4590   46.6010 C   0  0  0  0  0  0  0  0  0  0  0  0
   59.2350   34.1960   47.3230 C   0  0  0  0  0  0  0  0  0  0  0  0
   60.6980   34.0450   47.4360 C   0  0  0  0  0  0  0  0  0  0  0  0
   61.3040   34.0460   48.6990 C   0  0  0  0  0  0  0  0  0  0  0  0
   62.6690   33.8890   48.8470 C   0  0  0  0  0  0  0  0  0  0  0  0
   63.4940   33.7250   47.7650 C   0  0  0  0  0  0  0  0  0  0  0  0
   62.9210   33.7210   46.5180 C   0  0  0  0  0  0  0  0  0  0  0  0
   61.5510   33.8770   46.3700 C   0  0  0  0  0  0  0  0  0  0  0  0
   61.2135   30.1555   48.4246 H   0  0  0  0  0  0  0  0  0  0  0  0
   60.3813   29.6645   46.9103 H   0  0  0  0  0  0  0  0  0  0  0  0
   61.4829   31.0833   46.9103 H   0  0  0  0  0  0  0  0  0  0  0  0
   58.9525   30.8654   48.5446 H   0  0  0  0  0  0  0  0  0  0  0  0
   60.0532   32.3240   48.2481 H   0  0  0  0  0  0  0  0  0  0  0  0
   58.0510   29.4820   47.4970 H   0  0  0  0  0  0  0  0  0  0  0  0
   59.4272   27.7765   46.7185 H   0  0  0  0  0  0  0  0  0  0  0  0
   61.1698   26.0038   46.5966 H   0  0  0  0  0  0  0  0  0  0  0  0
   60.4590   23.6961   45.9347 H   0  0  0  0  0  0  0  0  0  0  0  0
   58.1115   23.2091   45.4222 H   0  0  0  0  0  0  0  0  0  0  0  0
   56.3589   24.9843   45.5442 H   0  0  0  0  0  0  0  0  0  0  0  0
   56.4640   28.2260   43.8570 H   0  0  0  0  0  0  0  0  0  0  0  0
   57.6930   30.2600   41.8730 H   0  0  0  0  0  0  0  0  0  0  0  0
   57.2115   33.5290   42.6636 H   0  0  0  0  0  0  0  0  0  0  0  0
   58.8750   33.0192   42.2169 H   0  0  0  0  0  0  0  0  0  0  0  0
   57.5377   31.8200   42.2169 H   0  0  0  0  0  0  0  0  0  0  0  0
   56.8200   33.4895   47.6765 H   0  0  0  0  0  0  0  0  0  0  0  0
   56.7415   34.4061   46.1336 H   0  0  0  0  0  0  0  0  0  0  0  0
   56.5041   32.6256   46.1336 H   0  0  0  0  0  0  0  0  0  0  0  0
   59.0267   35.2180   46.9734 H   0  0  0  0  0  0  0  0  0  0  0  0
   58.8328   33.9759   48.3229 H   0  0  0  0  0  0  0  0  0  0  0  0
   60.6783   34.1749   49.5945 H   0  0  0  0  0  0  0  0  0  0  0  0
   63.1037   33.8958   49.8574 H   0  0  0  0  0  0  0  0  0  0  0  0
   64.5796   33.6007   47.8919 H   0  0  0  0  0  0  0  0  0  0  0  0
   63.5542   33.5929   45.6277 H   0  0  0  0  0  0  0  0  0  0  0  0
   61.1275   33.8659   45.3548 H   0  0  0  0  0  0  0  0  0  0  0  0
  1  2  1  0
  2  3  1  0
  3  4  1  0
  4  5  1  0
  5  6  1  0
  6  7  2  0
  7  8  1  0
  8  9  2  0
  9 10  1  0
 10 11  2  0
 11 12  1  0
 12 13  2  0
  6 14  1  0
 14 15  1  0
 15 16  2  3
 15 17  1  0
 17 18  1  0
 18 19  1  0
 18 20  1  0
 20 21  2  0
 20 22  1  0
 22 23  1  6
 22 24  1  0
 24 25  1  0
 25 26  2  0
 26 27  1  0
 27 28  2  0
 28 29  1  0
 29 30  2  0
 22  3  1  0
 30 25  1  0
 17  4  2  0
 13  8  1  0
  1 31  1  0
  1 32  1  0
  1 33  1  0
  2 34  1  0
  2 35  1  0
  5 36  1  0
  9 37  1  0
 10 38  1  0
 11 39  1  0
 12 40  1  0
 13 41  1  0
 14 42  1  0
 16 43  1  0
 19 44  1  0
 19 45  1  0
 19 46  1  0
 23 47  1  0
 23 48  1  0
 23 49  1  0
 24 50  1  0
 24 51  1  0
 26 52  1  0
 27 53  1  0
 28 54  1  0
 29 55  1  0
 30 56  1  0
M  END
>  <smiles>  (38) 
CCN1c2[nH]c(=Nc3ccccc3)[nH]c(=N)c2N(C)C(=O)C1(C)Cc1ccccc1

>  <score_type>  (38) 
oracle

>  <origin>  (38) 
adg

>  <m_score__min__energy>  (38) 
-9.0800000000000001

>  <m_primary>  (38) 
energy

$$$$
38:0
     RDKit          3D

 43 45  0  0  0  0  0  0  0  0999 V2000
   60.5580   30.3600   48.6960 O   0  0  0  0  0  0  0  0  0  0  0  0
   61.0730   30.6310   47.5770 C   0  0  0  0  0  0  0  0  0  0  0  0
   60.8620   29.7620   46.4580 N   0  0  0  0  0  0  0  0  0  0  0  0
   59.7840   28.7750   46.3960 C   0  0  0  0  0  0  0  0  0  0  0  0
   58.4210   29.4480   46.5870 C   0  0  0  0  0  0  0  0  0  0  0  0
   57.8330   29.8900   45.2700 C   0  0  0  0  0  0  0  0  0  0  0  0
   56.6170   29.3490   44.8220 C   0  0  0  0  0  0  0  0  0  0  0  0
   56.0530   29.7830   43.6180 C   0  0  0  0  0  0  0  0  0  0  0  0
   56.6920   30.7670   42.8600 C   0  0  0  0  0  0  0  0  0  0  0  0
   57.8970   31.3190   43.3030 C   0  0  0  0  0  0  0  0  0  0  0  0
   58.4670   30.8850   44.5030 C   0  0  0  0  0  0  0  0  0  0  0  0
   61.9510   31.8090   47.4520 C   0  0  0  0  0  0  0  0  0  0  0  0
   63.2940   31.7440   47.1350 C   0  0  0  0  0  0  0  0  0  0  0  0
   63.7650   33.0410   47.1540 C   0  0  0  0  0  0  0  0  0  0  0  0
   62.6980   33.8440   47.5000 C   0  0  0  0  0  0  0  0  0  0  0  0
   61.5910   33.0950   47.6820 N   0  0  0  0  0  0  0  0  0  0  0  0
   60.3090   33.6050   48.1870 C   0  0  0  0  0  0  0  0  0  0  0  0
   59.3030   33.8000   47.0790 C   0  0  0  0  0  0  0  0  0  0  0  0
   58.0020   33.2700   47.1750 C   0  0  0  0  0  0  0  0  0  0  0  0
   57.0870   33.4560   46.1340 C   0  0  0  0  0  0  0  0  0  0  0  0
   57.4630   34.1520   44.9840 C   0  0  0  0  0  0  0  0  0  0  0  0
   58.7610   34.6560   44.8660 C   0  0  0  0  0  0  0  0  0  0  0  0
   59.6790   34.4750   45.9040 C   0  0  0  0  0  0  0  0  0  0  0  0
   61.5280   29.8160   45.6590 H   0  0  0  0  0  0  0  0  0  0  0  0
   59.8065   28.2771   45.4154 H   0  0  0  0  0  0  0  0  0  0  0  0
   59.9311   28.0400   47.2011 H   0  0  0  0  0  0  0  0  0  0  0  0
   57.7334   28.7338   47.0636 H   0  0  0  0  0  0  0  0  0  0  0  0
   58.5610   30.3378   47.2183 H   0  0  0  0  0  0  0  0  0  0  0  0
   56.1059   28.5806   45.4206 H   0  0  0  0  0  0  0  0  0  0  0  0
   55.1050   29.3489   43.2675 H   0  0  0  0  0  0  0  0  0  0  0  0
   56.2464   31.1076   41.9137 H   0  0  0  0  0  0  0  0  0  0  0  0
   58.3975   32.0960   42.7065 H   0  0  0  0  0  0  0  0  0  0  0  0
   59.4148   31.3229   44.8493 H   0  0  0  0  0  0  0  0  0  0  0  0
   63.8741   30.8365   46.9113 H   0  0  0  0  0  0  0  0  0  0  0  0
   64.7916   33.3704   46.9357 H   0  0  0  0  0  0  0  0  0  0  0  0
   62.7434   34.9374   47.6114 H   0  0  0  0  0  0  0  0  0  0  0  0
   59.9022   32.8864   48.9138 H   0  0  0  0  0  0  0  0  0  0  0  0
   60.4929   34.5831   48.6554 H   0  0  0  0  0  0  0  0  0  0  0  0
   57.7043   32.7075   48.0722 H   0  0  0  0  0  0  0  0  0  0  0  0
   56.0675   33.0524   46.2217 H   0  0  0  0  0  0  0  0  0  0  0  0
   56.7378   34.3037   44.1709 H   0  0  0  0  0  0  0  0  0  0  0  0
   59.0604   35.1956   43.9554 H   0  0  0  0  0  0  0  0  0  0  0  0
   60.7030   34.8633   45.8012 H   0  0  0  0  0  0  0  0  0  0  0  0
  1  2  2  0
  2  3  1  0
  3  4  1  0
  4  5  1  0
  5  6  1  0
  6  7  2  0
  7  8  1  0
  8  9  2  0
  9 10  1  0
 10 11  2  0
  2 12  1  0
 12 13  2  0
 13 14  1  0
 14 15  2  0
 15 16  1  0
 16 17  1  0
 17 18  1  0
 18 19  2  0
 19 20  1  0
 20 21  2  0
 21 22  1  0
 22 23  2  0
 11  6  1  0
 16 12  1  0
 23 18  1  0
  3 24  1  0
  4 25  1  0
  4 26  1  0
  5 27  1  0
  5 28  1  0
  7 29  1  0
  8 30  1  0
  9 31  1  0
 10 32  1  0
 11 33  1  0
 13 34  1  0
 14 35  1  0
 15 36  1  0
 17 37  1  0
 17 38  1  0
 19 39  1  0
 20 40  1  0
 21 41  1  0
 22 42  1  0
 23 43  1  0
M  END
>  <UniqueID>  (39) 
32

>  <SMILES>  (39) 
O=C(NCCc1ccccc1)c1cccn1Cc1ccccc1

>  <Energy>  (39) 
67.84251000516903

>  <Genealogy>  (39) 
O=C(NCCc1ccccc1)c1cccn1Cc1ccccc1 (3D coordinates assigned)
O=C(NCCc1ccccc1)c1cccn1Cc1ccccc1 (optimized conformer: 67.84251000516903 kcal/mol)

>  <smiles>  (39) 
O=C(NCCc1ccccc1)c1cccn1Cc1ccccc1

>  <score_type>  (39) 
oracle

>  <origin>  (39) 
adg

>  <m_score__min__energy>  (39) 
-7.8200000000000003

>  <m_primary>  (39) 
energy

$$$$
39:0
     RDKit          3D

 34 36  0  0  0  0  0  0  0  0999 V2000
   57.2190   22.2630   43.7820 Cl  0  0  0  0  0  0  0  0  0  0  0  0
   57.7710   23.7820   44.4660 C   0  0  0  0  0  0  0  0  0  0  0  0
   58.5960   23.7810   45.5950 C   0  0  0  0  0  0  0  0  0  0  0  0
   59.0290   24.9900   46.1460 C   0  0  0  0  0  0  0  0  0  0  0  0
   58.6420   26.2030   45.5680 C   0  0  0  0  0  0  0  0  0  0  0  0
   57.8240   26.2150   44.4240 C   0  0  0  0  0  0  0  0  0  0  0  0
   57.3990   27.4660   43.8440 N   0  0  0  0  0  0  0  0  0  0  0  0
   58.3920   28.5120   44.1230 C   0  0  0  0  0  0  0  0  0  0  0  0
   57.7190   29.8390   44.2930 C   0  0  0  0  0  0  0  0  0  0  0  0
   58.2930   31.0780   44.1210 C   0  0  0  0  0  0  0  0  0  0  0  0
   57.3500   31.9720   44.4670 N   0  0  0  0  0  0  0  0  0  0  0  0
   57.5060   33.4190   44.5340 C   0  0  0  0  0  0  0  0  0  0  0  0
   58.3370   33.7850   45.7210 C   0  0  0  0  0  0  0  0  0  0  0  0
   59.2950   34.7900   45.7630 C   0  0  0  0  0  0  0  0  0  0  0  0
   59.8500   34.9660   47.0360 C   0  0  0  0  0  0  0  0  0  0  0  0
   59.3210   34.1140   47.9980 C   0  0  0  0  0  0  0  0  0  0  0  0
   58.1590   33.1440   47.2640 S   0  0  0  0  0  0  0  0  0  0  0  0
   56.2700   31.3150   44.8590 N   0  0  0  0  0  0  0  0  0  0  0  0
   56.4670   30.0080   44.7640 N   0  0  0  0  0  0  0  0  0  0  0  0
   57.3820   24.9940   43.8840 C   0  0  0  0  0  0  0  0  0  0  0  0
   58.9043   22.8280   46.0497 H   0  0  0  0  0  0  0  0  0  0  0  0
   59.6754   24.9874   47.0360 H   0  0  0  0  0  0  0  0  0  0  0  0
   58.9789   27.1522   46.0101 H   0  0  0  0  0  0  0  0  0  0  0  0
   57.2850   27.3530   42.8090 H   0  0  0  0  0  0  0  0  0  0  0  0
   56.4710   27.7420   44.2430 H   0  0  0  0  0  0  0  0  0  0  0  0
   58.9344   28.2598   45.0462 H   0  0  0  0  0  0  0  0  0  0  0  0
   59.0929   28.5732   43.2774 H   0  0  0  0  0  0  0  0  0  0  0  0
   59.3138   31.2929   43.7721 H   0  0  0  0  0  0  0  0  0  0  0  0
   58.0004   33.7756   43.6184 H   0  0  0  0  0  0  0  0  0  0  0  0
   56.5148   33.8869   44.6268 H   0  0  0  0  0  0  0  0  0  0  0  0
   59.5874   35.3862   44.8861 H   0  0  0  0  0  0  0  0  0  0  0  0
   60.6314   35.7088   47.2543 H   0  0  0  0  0  0  0  0  0  0  0  0
   59.6123   34.0797   49.0582 H   0  0  0  0  0  0  0  0  0  0  0  0
   56.7274   24.9915   43.0000 H   0  0  0  0  0  0  0  0  0  0  0  0
  1  2  1  0
  2  3  2  0
  3  4  1  0
  4  5  2  0
  5  6  1  0
  6  7  1  0
  7  8  1  0
  8  9  1  0
  9 10  2  0
 10 11  1  0
 11 12  1  0
 12 13  1  0
 13 14  2  0
 14 15  1  0
 15 16  2  0
 16 17  1  0
 11 18  1  0
 18 19  2  0
  6 20  2  0
 20  2  1  0
 19  9  1  0
 17 13  1  0
  3 21  1  0
  4 22  1  0
  5 23  1  0
  7 24  1  0
  7 25  1  0
  8 26  1  0
  8 27  1  0
 10 28  1  0
 12 29  1  0
 12 30  1  0
 14 31  1  0
 15 32  1  0
 16 33  1  0
 20 34  1  0
M  CHG  1   7   1
M  END
>  <UniqueID>  (40) 
33

>  <SMILES>  (40) 
Clc1cccc([NH2+]Cc2cn(Cc3cccs3)nn2)c1

>  <Energy>  (40) 
93.94371108442758

>  <Genealogy>  (40) 
Clc1cccc([NH2+]Cc2cn(Cc3cccs3)nn2)c1 (protonated)
Clc1cccc([NH2+]Cc2cn(Cc3cccs3)nn2)c1 (3D coordinates assigned)
Clc1cccc([NH2+]Cc2cn(Cc3cccs3)nn2)c1 (optimized conformer: 93.94371108442758 kcal/mol)

>  <smiles>  (40) 
Clc1cccc(NCc2cn(Cc3cccs3)nn2)c1

>  <score_type>  (40) 
oracle

>  <origin>  (40) 
adg

>  <m_score__min__energy>  (40) 
-6.9000000000000004

>  <m_primary>  (40) 
energy

$$$$
40:0
     RDKit          3D

 35 37  0  0  0  0  0  0  0  0999 V2000
   56.9240   30.4620   43.9740 C   0  0  0  0  0  0  0  0  0  0  0  0
   57.0430   31.0880   45.2470 O   0  0  0  0  0  0  0  0  0  0  0  0
   57.8300   32.2210   45.5040 C   0  0  0  0  0  0  0  0  0  0  0  0
   57.4120   33.4500   44.9820 C   0  0  0  0  0  0  0  0  0  0  0  0
   58.1580   34.6080   45.2130 C   0  0  0  0  0  0  0  0  0  0  0  0
   59.3320   34.5470   45.9650 C   0  0  0  0  0  0  0  0  0  0  0  0
   59.7770   33.3230   46.4920 C   0  0  0  0  0  0  0  0  0  0  0  0
   61.0220   33.2630   47.2960 C   0  0  0  0  0  0  0  0  0  0  0  0
   62.1760   32.6700   46.7580 C   0  0  0  0  0  0  0  0  0  0  0  0
   63.3040   32.6130   47.4570 O   0  0  0  0  0  0  0  0  0  0  0  0
   63.4110   33.1010   48.6870 C   0  0  0  0  0  0  0  0  0  0  0  0
   64.6320   33.0080   49.3650 C   0  0  0  0  0  0  0  0  0  0  0  0
   64.7700   33.5140   50.6620 C   0  0  0  0  0  0  0  0  0  0  0  0
   66.0150   33.3940   51.2950 O   0  0  0  0  0  0  0  0  0  0  0  0
   67.1470   32.7450   50.7260 C   0  0  0  0  0  0  0  0  0  0  0  0
   63.6620   34.1210   51.2850 C   0  0  0  0  0  0  0  0  0  0  0  0
   62.4380   34.2180   50.6170 C   0  0  0  0  0  0  0  0  0  0  0  0
   62.3020   33.7110   49.3130 C   0  0  0  0  0  0  0  0  0  0  0  0
   61.0910   33.7850   48.6030 C   0  0  0  0  0  0  0  0  0  0  0  0
   60.0690   34.2950   49.1390 O   0  0  0  0  0  0  0  0  0  0  0  0
   59.0150   32.1620   46.2620 C   0  0  0  0  0  0  0  0  0  0  0  0
   56.7202   29.3897   44.1103 H   0  0  0  0  0  0  0  0  0  0  0  0
   56.0976   30.9240   43.4140 H   0  0  0  0  0  0  0  0  0  0  0  0
   57.8623   30.5886   43.4140 H   0  0  0  0  0  0  0  0  0  0  0  0
   56.4894   33.5046   44.3855 H   0  0  0  0  0  0  0  0  0  0  0  0
   57.8194   35.5702   44.8013 H   0  0  0  0  0  0  0  0  0  0  0  0
   59.9129   35.4634   46.1464 H   0  0  0  0  0  0  0  0  0  0  0  0
   62.1452   32.2467   45.7432 H   0  0  0  0  0  0  0  0  0  0  0  0
   65.4926   32.5318   48.8726 H   0  0  0  0  0  0  0  0  0  0  0  0
   67.7982   32.3717   51.5301 H   0  0  0  0  0  0  0  0  0  0  0  0
   66.8121   31.9017   50.1041 H   0  0  0  0  0  0  0  0  0  0  0  0
   67.7055   33.4601   50.1041 H   0  0  0  0  0  0  0  0  0  0  0  0
   63.7607   34.5216   52.3047 H   0  0  0  0  0  0  0  0  0  0  0  0
   61.5786   34.6925   51.1132 H   0  0  0  0  0  0  0  0  0  0  0  0
   59.3484   31.1999   46.6783 H   0  0  0  0  0  0  0  0  0  0  0  0
  1  2  1  0
  2  3  1  0
  3  4  2  0
  4  5  1  0
  5  6  2  0
  6  7  1  0
  7  8  1  0
  8  9  2  0
  9 10  1  0
 10 11  1  0
 11 12  2  0
 12 13  1  0
 13 14  1  0
 14 15  1  0
 13 16  2  0
 16 17  1  0
 17 18  2  0
 18 19  1  0
 19 20  2  0
  7 21  2  0
 21  3  1  0
 19  8  1  0
 18 11  1  0
  1 22  1  0
  1 23  1  0
  1 24  1  0
  4 25  1  0
  5 26  1  0
  6 27  1  0
  9 28  1  0
 12 29  1  0
 15 30  1  0
 15 31  1  0
 15 32  1  0
 16 33  1  0
 17 34  1  0
 21 35  1  0
M  END
>  <UniqueID>  (41) 
34

>  <SMILES>  (41) 
COc1cccc(-c2coc3cc(OC)ccc3c2=O)c1

>  <Energy>  (41) 
48.45329394565023

>  <Genealogy>  (41) 
COc1cccc(-c2coc3cc(OC)ccc3c2=O)c1 (3D coordinates assigned)
COc1cccc(-c2coc3cc(OC)ccc3c2=O)c1 (optimized conformer: 48.45329394565023 kcal/mol)

>  <smiles>  (41) 
COc1cccc(-c2coc3cc(OC)ccc3c2=O)c1

>  <score_type>  (41) 
oracle

>  <origin>  (41) 
adg

>  <m_score__min__energy>  (41) 
-6.4699999999999998

>  <m_primary>  (41) 
energy

$$$$
41:0
     RDKit          3D

 33 35  0  0  0  0  0  0  0  0999 V2000
   60.4680   28.4320   45.4810 C   0  0  0  0  0  0  0  0  0  0  0  0
   59.0230   28.2230   45.4500 N   0  0  0  0  0  0  0  0  0  0  0  0
   58.4560   27.0320   45.5750 N   0  0  0  0  0  0  0  0  0  0  0  0
   57.1140   27.1720   45.5340 C   0  0  0  0  0  0  0  0  0  0  0  0
   56.1770   26.0370   45.6410 C   0  0  0  0  0  0  0  0  0  0  0  0
   54.8170   26.2740   45.9940 N   0  0  0  0  0  0  0  0  0  0  0  0
   56.5610   24.8580   45.4250 O   0  0  0  0  0  0  0  0  0  0  0  0
   56.8280   28.5230   45.3700 C   0  0  0  0  0  0  0  0  0  0  0  0
   55.5430   29.1380   45.2260 N   0  0  0  0  0  0  0  0  0  0  0  0
   58.0570   29.1610   45.3050 C   0  0  0  0  0  0  0  0  0  0  0  0
   58.2800   30.6130   45.1540 C   0  0  0  0  0  0  0  0  0  0  0  0
   57.8350   31.3000   44.0140 C   0  0  0  0  0  0  0  0  0  0  0  0
   58.0570   32.6740   43.9050 C   0  0  0  0  0  0  0  0  0  0  0  0
   58.7130   33.3590   44.9340 C   0  0  0  0  0  0  0  0  0  0  0  0
   58.9500   34.7400   44.8580 C   0  0  0  0  0  0  0  0  0  0  0  0
   59.6040   35.3940   45.9070 C   0  0  0  0  0  0  0  0  0  0  0  0
   60.0230   34.6770   47.0320 C   0  0  0  0  0  0  0  0  0  0  0  0
   59.7910   33.3000   47.1170 C   0  0  0  0  0  0  0  0  0  0  0  0
   59.1380   32.6370   46.0710 C   0  0  0  0  0  0  0  0  0  0  0  0
   58.9090   31.2980   46.1490 N   0  0  0  0  0  0  0  0  0  0  0  0
   60.8090   28.4813   46.5256 H   0  0  0  0  0  0  0  0  0  0  0  0
   60.9703   27.5972   44.9704 H   0  0  0  0  0  0  0  0  0  0  0  0
   60.7131   29.3749   44.9704 H   0  0  0  0  0  0  0  0  0  0  0  0
   58.9810   26.1360   45.6940 H   0  0  0  0  0  0  0  0  0  0  0  0
   54.5600   27.0340   46.6630 H   0  0  0  0  0  0  0  0  0  0  0  0
   55.3440   30.0890   45.6020 H   0  0  0  0  0  0  0  0  0  0  0  0
   54.7620   28.6350   44.7530 H   0  0  0  0  0  0  0  0  0  0  0  0
   57.3140   30.7587   43.2105 H   0  0  0  0  0  0  0  0  0  0  0  0
   57.7167   33.2176   43.0113 H   0  0  0  0  0  0  0  0  0  0  0  0
   58.6218   35.3074   43.9746 H   0  0  0  0  0  0  0  0  0  0  0  0
   59.7895   36.4766   45.8469 H   0  0  0  0  0  0  0  0  0  0  0  0
   60.5370   35.1977   47.8534 H   0  0  0  0  0  0  0  0  0  0  0  0
   60.1210   32.7393   48.0040 H   0  0  0  0  0  0  0  0  0  0  0  0
  1  2  1  0
  2  3  1  0
  3  4  2  0
  4  5  1  0
  5  6  1  0
  5  7  2  0
  4  8  1  0
  8  9  1  0
  8 10  2  0
 10 11  1  0
 11 12  2  0
 12 13  1  0
 13 14  2  0
 14 15  1  0
 15 16  2  0
 16 17  1  0
 17 18  2  0
 18 19  1  0
 19 20  2  0
 10  2  1  0
 20 11  1  0
 19 14  1  0
  1 21  1  0
  1 22  1  0
  1 23  1  0
  3 24  1  0
  6 25  1  0
  9 26  1  0
  9 27  1  0
 12 28  1  0
 13 29  1  0
 15 30  1  0
 16 31  1  0
 17 32  1  0
 18 33  1  0
M  CHG  2   3   1   6  -1
M  END
>  <UniqueID>  (42) 
35

>  <SMILES>  (42) 
Cn1[nH+]c(C([NH-])=O)c(N)c1-c1ccc2ccccc2n1

>  <Energy>  (42) 
74.85985234440811

>  <Genealogy>  (42) 
Cn1[nH+]c(C([NH-])=O)c(N)c1-c1ccc2ccccc2n1 (protonated)
Cn1[nH+]c(C([NH-])=O)c(N)c1-c1ccc2ccccc2n1 (3D coordinates assigned)
Cn1[nH+]c(C([NH-])=O)c(N)c1-c1ccc2ccccc2n1 (optimized conformer: 74.85985234440811 kcal/mol)

>  <smiles>  (42) 
Cn1nc(C(N)=O)c(N)c1-c1ccc2ccccc2n1

>  <score_type>  (42) 
oracle

>  <origin>  (42) 
adg

>  <m_score__min__energy>  (42) 
-9.6300000000000008

>  <m_primary>  (42) 
energy

$$$$
42:0
     RDKit          3D

 29 30  0  0  0  0  0  0  0  0999 V2000
   57.7940   31.6720   45.2550 C   0  0  0  0  0  0  0  0  0  0  0  0
   57.9370   30.1860   45.1790 C   0  0  0  0  0  0  0  0  0  0  0  0
   56.9810   29.1860   44.2200 S   0  0  0  0  0  0  0  0  0  0  0  0
   57.7350   27.7510   44.6580 C   0  0  0  0  0  0  0  0  0  0  0  0
   57.4070   26.4750   44.0930 N   0  0  0  0  0  0  0  0  0  0  0  0
   56.9780   25.3540   44.8810 C   0  0  0  0  0  0  0  0  0  0  0  0
   56.5060   25.5480   46.0340 O   0  0  0  0  0  0  0  0  0  0  0  0
   57.0380   23.9750   44.3390 C   0  0  0  0  0  0  0  0  0  0  0  0
   58.1220   23.1340   44.6460 C   0  0  0  0  0  0  0  0  0  0  0  0
   58.1760   21.8390   44.1280 C   0  0  0  0  0  0  0  0  0  0  0  0
   57.1490   21.3910   43.2980 C   0  0  0  0  0  0  0  0  0  0  0  0
   56.1100   22.2150   42.9970 N   0  0  0  0  0  0  0  0  0  0  0  0
   56.0310   23.4790   43.4900 C   0  0  0  0  0  0  0  0  0  0  0  0
   58.7780   28.0320   45.5430 C   0  0  0  0  0  0  0  0  0  0  0  0
   59.7270   27.0460   46.0000 C   0  0  0  0  0  0  0  0  0  0  0  0
   60.4890   26.2560   46.3670 N   0  0  0  0  0  0  0  0  0  0  0  0
   58.8760   29.4040   45.8590 C   0  0  0  0  0  0  0  0  0  0  0  0
   59.9500   29.9820   46.7390 C   0  0  0  0  0  0  0  0  0  0  0  0
   57.7640   31.9840   46.3094 H   0  0  0  0  0  0  0  0  0  0  0  0
   58.6504   32.1488   44.7558 H   0  0  0  0  0  0  0  0  0  0  0  0
   56.8624   31.9767   44.7558 H   0  0  0  0  0  0  0  0  0  0  0  0
   57.3100   26.4200   43.0540 H   0  0  0  0  0  0  0  0  0  0  0  0
   58.9306   23.4979   45.2969 H   0  0  0  0  0  0  0  0  0  0  0  0
   59.0207   21.1781   44.3722 H   0  0  0  0  0  0  0  0  0  0  0  0
   57.1793   20.3712   42.8868 H   0  0  0  0  0  0  0  0  0  0  0  0
   55.1757   24.1176   43.2242 H   0  0  0  0  0  0  0  0  0  0  0  0
   59.6775   29.8353   47.7946 H   0  0  0  0  0  0  0  0  0  0  0  0
   60.9046   29.4758   46.5330 H   0  0  0  0  0  0  0  0  0  0  0  0
   60.0534   31.0576   46.5330 H   0  0  0  0  0  0  0  0  0  0  0  0
  1  2  1  0
  2  3  1  0
  3  4  1  0
  4  5  1  0
  5  6  1  0
  6  7  2  0
  6  8  1  0
  8  9  2  0
  9 10  1  0
 10 11  2  0
 11 12  1  0
 12 13  2  0
  4 14  2  0
 14 15  1  0
 15 16  3  0
 14 17  1  0
 17 18  1  0
 17  2  2  0
 13  8  1  0
  1 19  1  0
  1 20  1  0
  1 21  1  0
  5 22  1  0
  9 23  1  0
 10 24  1  0
 11 25  1  0
 13 26  1  0
 18 27  1  0
 18 28  1  0
 18 29  1  0
M  END
>  <UniqueID>  (43) 
36

>  <SMILES>  (43) 
Cc1sc(NC(=O)c2cccnc2)c(C#N)c1C

>  <Energy>  (43) 
60.913020262043474

>  <Genealogy>  (43) 
Cc1sc(NC(=O)c2cccnc2)c(C#N)c1C (3D coordinates assigned)
Cc1sc(NC(=O)c2cccnc2)c(C#N)c1C (optimized conformer: 60.913020262043474 kcal/mol)

>  <smiles>  (43) 
Cc1sc(NC(=O)c2cccnc2)c(C#N)c1C

>  <score_type>  (43) 
oracle

>  <origin>  (43) 
adg

>  <m_score__min__energy>  (43) 
-6.5099999999999998

>  <m_primary>  (43) 
energy

$$$$
43:0
     RDKit          3D

 33 35  0  0  0  0  0  0  0  0999 V2000
   55.7990   28.9560   45.2390 N   0  0  0  0  0  0  0  0  0  0  0  0
   57.2250   28.7760   45.1910 C   0  0  0  0  0  0  0  0  0  0  0  0
   58.0590   29.8340   44.7580 C   0  0  0  0  0  0  0  0  0  0  0  0
   57.4040   31.4100   44.2810 S   0  0  0  0  0  0  0  0  0  0  0  0
   57.6700   31.6750   42.8240 O   0  0  0  0  0  0  0  0  0  0  0  0
   55.9180   31.4040   44.5030 O   0  0  0  0  0  0  0  0  0  0  0  0
   58.1710   32.6890   45.2190 C   0  0  0  0  0  0  0  0  0  0  0  0
   58.6910   33.8270   44.5840 C   0  0  0  0  0  0  0  0  0  0  0  0
   59.2900   34.8400   45.3390 C   0  0  0  0  0  0  0  0  0  0  0  0
   59.3770   34.7190   46.7300 C   0  0  0  0  0  0  0  0  0  0  0  0
   58.8660   33.5840   47.3660 C   0  0  0  0  0  0  0  0  0  0  0  0
   58.2660   32.5710   46.6130 C   0  0  0  0  0  0  0  0  0  0  0  0
   59.4470   29.6530   44.7540 C   0  0  0  0  0  0  0  0  0  0  0  0
   59.9970   28.4820   45.1610 N   0  0  0  0  0  0  0  0  0  0  0  0
   59.2310   27.4370   45.5760 C   0  0  0  0  0  0  0  0  0  0  0  0
   59.8420   26.2380   45.9770 C   0  0  0  0  0  0  0  0  0  0  0  0
   59.0670   25.1510   46.3800 C   0  0  0  0  0  0  0  0  0  0  0  0
   57.6760   25.2460   46.3780 C   0  0  0  0  0  0  0  0  0  0  0  0
   57.0510   26.4320   45.9830 C   0  0  0  0  0  0  0  0  0  0  0  0
   57.8170   27.5530   45.5930 C   0  0  0  0  0  0  0  0  0  0  0  0
   55.3700   29.8530   45.5510 H   0  0  0  0  0  0  0  0  0  0  0  0
   55.1430   28.2260   44.8890 H   0  0  0  0  0  0  0  0  0  0  0  0
   58.6273   33.9224   43.4900 H   0  0  0  0  0  0  0  0  0  0  0  0
   59.6932   35.7329   44.8388 H   0  0  0  0  0  0  0  0  0  0  0  0
   59.8475   35.5170   47.3232 H   0  0  0  0  0  0  0  0  0  0  0  0
   58.9361   33.4881   48.4596 H   0  0  0  0  0  0  0  0  0  0  0  0
   57.8668   31.6778   47.1158 H   0  0  0  0  0  0  0  0  0  0  0  0
   60.1002   30.4712   44.4164 H   0  0  0  0  0  0  0  0  0  0  0  0
   61.0390   28.3960   45.1460 H   0  0  0  0  0  0  0  0  0  0  0  0
   60.9389   26.1557   45.9732 H   0  0  0  0  0  0  0  0  0  0  0  0
   59.5536   24.2177   46.6998 H   0  0  0  0  0  0  0  0  0  0  0  0
   57.0678   24.3837   46.6887 H   0  0  0  0  0  0  0  0  0  0  0  0
   55.9527   26.4931   45.9757 H   0  0  0  0  0  0  0  0  0  0  0  0
  1  2  1  0
  2  3  2  0
  3  4  1  0
  4  5  2  0
  4  6  2  0
  4  7  1  0
  7  8  2  0
  8  9  1  0
  9 10  2  0
 10 11  1  0
 11 12  2  0
  3 13  1  0
 13 14  2  0
 14 15  1  0
 15 16  2  0
 16 17  1  0
 17 18  2  0
 18 19  1  0
 19 20  2  0
 20  2  1  0
 12  7  1  0
 20 15  1  0
  1 21  1  0
  1 22  1  0
  8 23  1  0
  9 24  1  0
 10 25  1  0
 11 26  1  0
 12 27  1  0
 13 28  1  0
 14 29  1  0
 16 30  1  0
 17 31  1  0
 18 32  1  0
 19 33  1  0
M  CHG  1  14   1
M  END
>  <UniqueID>  (44) 
37

>  <SMILES>  (44) 
Nc1c(S(=O)(=O)c2ccccc2)c[nH+]c2ccccc12

>  <Energy>  (44) 
46.50008298435422

>  <Genealogy>  (44) 
Nc1c(S(=O)(=O)c2ccccc2)c[nH+]c2ccccc12 (protonated)
Nc1c(S(=O)(=O)c2ccccc2)c[nH+]c2ccccc12 (3D coordinates assigned)
Nc1c(S(=O)(=O)c2ccccc2)c[nH+]c2ccccc12 (optimized conformer: 46.50008298435422 kcal/mol)

>  <smiles>  (44) 
Nc1c(S(=O)(=O)c2ccccc2)cnc2ccccc12

>  <score_type>  (44) 
oracle

>  <origin>  (44) 
adg

>  <m_score__min__energy>  (44) 
-7.2400000000000002

>  <m_primary>  (44) 
energy

$$$$
44:0
     RDKit          3D

 46 48  0  0  0  0  0  0  0  0999 V2000
   63.1490   34.0130   47.1800 C   0  0  0  0  0  0  0  0  0  0  0  0
   63.9110   32.9040   47.7850 N   0  0  1  0  0  0  0  0  0  0  0  0
   63.7590   32.9410   49.2610 C   0  0  0  0  0  0  0  0  0  0  0  0
   63.1830   31.6450   49.8590 C   0  0  0  0  0  0  0  0  0  0  0  0
   61.6790   31.4960   49.5740 C   0  0  0  0  0  0  0  0  0  0  0  0
   61.2830   31.9110   48.2150 N   0  0  0  0  0  0  0  0  0  0  0  0
   59.8140   31.9780   48.0280 C   0  0  0  0  0  0  0  0  0  0  0  0
   59.4360   32.8830   46.8740 C   0  0  0  0  0  0  0  0  0  0  0  0
   59.6610   34.2660   46.9890 C   0  0  0  0  0  0  0  0  0  0  0  0
   59.2830   35.1350   45.9630 C   0  0  0  0  0  0  0  0  0  0  0  0
   58.6720   34.6360   44.8130 C   0  0  0  0  0  0  0  0  0  0  0  0
   58.4380   33.2670   44.6820 C   0  0  0  0  0  0  0  0  0  0  0  0
   58.8240   32.3780   45.6990 C   0  0  0  0  0  0  0  0  0  0  0  0
   58.5360   30.9390   45.5290 C   0  0  0  0  0  0  0  0  0  0  0  0
   57.3210   30.5300   44.9630 C   0  0  0  0  0  0  0  0  0  0  0  0
   57.0300   29.1700   44.8260 C   0  0  0  0  0  0  0  0  0  0  0  0
   57.9520   28.2060   45.2490 C   0  0  0  0  0  0  0  0  0  0  0  0
   57.5500   26.5040   45.0680 Cl  0  0  0  0  0  0  0  0  0  0  0  0
   59.1790   28.6100   45.8050 C   0  0  0  0  0  0  0  0  0  0  0  0
   60.3670   27.4320   46.3450 Cl  0  0  0  0  0  0  0  0  0  0  0  0
   59.4670   29.9730   45.9390 C   0  0  0  0  0  0  0  0  0  0  0  0
   62.0580   31.2680   47.1270 C   0  0  0  0  0  0  0  0  0  0  0  0
   63.5680   31.6110   47.1340 C   0  0  0  0  0  0  0  0  0  0  0  0
   62.7188   34.6391   47.9755 H   0  0  0  0  0  0  0  0  0  0  0  0
   63.8203   34.6220   46.5567 H   0  0  0  0  0  0  0  0  0  0  0  0
   62.3398   33.6047   46.5567 H   0  0  0  0  0  0  0  0  0  0  0  0
   64.9200   33.0910   47.5770 H   0  0  0  0  0  0  0  0  0  0  0  0
   64.7486   33.1189   49.7072 H   0  0  0  0  0  0  0  0  0  0  0  0
   63.0435   33.7447   49.4893 H   0  0  0  0  0  0  0  0  0  0  0  0
   63.7137   30.7862   49.4223 H   0  0  0  0  0  0  0  0  0  0  0  0
   63.3192   31.6850   50.9498 H   0  0  0  0  0  0  0  0  0  0  0  0
   61.4046   30.4391   49.7069 H   0  0  0  0  0  0  0  0  0  0  0  0
   61.1542   32.1607   50.2759 H   0  0  0  0  0  0  0  0  0  0  0  0
   59.4340   30.9657   47.8262 H   0  0  0  0  0  0  0  0  0  0  0  0
   59.3703   32.3904   48.9462 H   0  0  0  0  0  0  0  0  0  0  0  0
   60.1389   34.6672   47.8949 H   0  0  0  0  0  0  0  0  0  0  0  0
   59.4676   36.2149   46.0622 H   0  0  0  0  0  0  0  0  0  0  0  0
   58.3740   35.3233   44.0075 H   0  0  0  0  0  0  0  0  0  0  0  0
   57.9478   32.8809   43.7761 H   0  0  0  0  0  0  0  0  0  0  0  0
   56.5933   31.2826   44.6252 H   0  0  0  0  0  0  0  0  0  0  0  0
   56.0728   28.8562   44.3841 H   0  0  0  0  0  0  0  0  0  0  0  0
   60.4292   30.2888   46.3684 H   0  0  0  0  0  0  0  0  0  0  0  0
   61.9516   30.1776   47.2258 H   0  0  0  0  0  0  0  0  0  0  0  0
   61.6513   31.6523   46.1799 H   0  0  0  0  0  0  0  0  0  0  0  0
   64.0988   30.8082   47.6667 H   0  0  0  0  0  0  0  0  0  0  0  0
   63.8690   31.7054   46.0802 H   0  0  0  0  0  0  0  0  0  0  0  0
  1  2  1  0
  2  3  1  0
  3  4  1  0
  4  5  1  0
  5  6  1  0
  6  7  1  0
  7  8  1  0
  8  9  2  0
  9 10  1  0
 10 11  2  0
 11 12  1  0
 12 13  2  0
 13 14  1  0
 14 15  2  0
 15 16  1  0
 16 17  2  0
 17 18  1  0
 17 19  1  0
 19 20  1  0
 19 21  2  0
  6 22  1  0
 22 23  1  0
 23  2  1  0
 13  8  1  0
 21 14  1  0
  1 24  1  0
  1 25  1  0
  1 26  1  0
  2 27  1  1
  3 28  1  0
  3 29  1  0
  4 30  1  0
  4 31  1  0
  5 32  1  0
  5 33  1  0
  7 34  1  0
  7 35  1  0
  9 36  1  0
 10 37  1  0
 11 38  1  0
 12 39  1  0
 15 40  1  0
 16 41  1  0
 21 42  1  0
 22 43  1  0
 22 44  1  0
 23 45  1  0
 23 46  1  0
M  CHG  1   2   1
M  END
>  <UniqueID>  (45) 
38

>  <SMILES>  (45) 
C[N@H+]1CCCN(Cc2ccccc2-c2ccc(Cl)c(Cl)c2)CC1

>  <Energy>  (45) 
72.38488943943685

>  <Genealogy>  (45) 
C[NH+]1CCCN(Cc2ccccc2-c2ccc(Cl)c(Cl)c2)CC1 (protonated)
C[N@H+]1CCCN(Cc2ccccc2-c2ccc(Cl)c(Cl)c2)CC1 (chirality)
C[N@H+]1CCCN(Cc2ccccc2-c2ccc(Cl)c(Cl)c2)CC1 (3D coordinates assigned)
C[N@H+]1CCCN(Cc2ccccc2-c2ccc(Cl)c(Cl)c2)CC1 (nonaromatic ring conformer: 72.38488943943685 kcal/mol)

>  <smiles>  (45) 
CN1CCCN(Cc2ccccc2-c2ccc(Cl)c(Cl)c2)CC1

>  <score_type>  (45) 
oracle

>  <origin>  (45) 
adg

>  <m_score__min__energy>  (45) 
-4.7300000000000004

>  <m_primary>  (45) 
energy

$$$$
45:0
     RDKit          3D

 47 49  0  0  0  0  0  0  0  0999 V2000
   59.6950   35.5520   46.4250 C   0  0  0  0  0  0  0  0  0  0  0  0
   59.2770   34.1180   46.5700 C   0  0  0  0  0  0  0  0  0  0  0  0
   59.1470   33.4180   47.7630 C   0  0  0  0  0  0  0  0  0  0  0  0
   59.4580   33.8900   49.1550 C   0  0  0  0  0  0  0  0  0  0  0  0
   59.9120   32.7620   49.9970 N   0  0  0  0  0  0  0  0  0  0  0  0
   59.1090   32.6890   51.2330 C   0  0  0  0  0  0  0  0  0  0  0  0
   61.3470   32.9100   50.3220 C   0  0  0  0  0  0  0  0  0  0  0  0
   62.1830   32.8530   49.0690 C   0  0  0  0  0  0  0  0  0  0  0  0
   62.2170   31.6770   48.3020 C   0  0  0  0  0  0  0  0  0  0  0  0
   63.0040   31.6110   47.1480 C   0  0  0  0  0  0  0  0  0  0  0  0
   63.7620   32.7170   46.7530 C   0  0  0  0  0  0  0  0  0  0  0  0
   63.7360   33.8900   47.5130 C   0  0  0  0  0  0  0  0  0  0  0  0
   62.9500   33.9600   48.6690 C   0  0  0  0  0  0  0  0  0  0  0  0
   58.7280   32.1610   47.3770 C   0  0  0  0  0  0  0  0  0  0  0  0
   58.5200   31.1870   48.1490 O   0  0  0  0  0  0  0  0  0  0  0  0
   58.5990   32.1130   46.0360 N   0  0  0  0  0  0  0  0  0  0  0  0
   58.2150   30.9570   45.2680 C   0  0  0  0  0  0  0  0  0  0  0  0
   59.0220   29.8080   45.2680 C   0  0  0  0  0  0  0  0  0  0  0  0
   58.6560   28.6900   44.5130 C   0  0  0  0  0  0  0  0  0  0  0  0
   57.4860   28.7150   43.7480 C   0  0  0  0  0  0  0  0  0  0  0  0
   56.6830   29.8590   43.7340 C   0  0  0  0  0  0  0  0  0  0  0  0
   57.0470   30.9780   44.4890 C   0  0  0  0  0  0  0  0  0  0  0  0
   58.9140   33.3090   45.5450 N   0  0  0  0  0  0  0  0  0  0  0  0
   58.8800   33.6810   44.1280 C   0  0  0  0  0  0  0  0  0  0  0  0
   59.8252   35.9986   47.4218 H   0  0  0  0  0  0  0  0  0  0  0  0
   60.6454   35.6029   45.8735 H   0  0  0  0  0  0  0  0  0  0  0  0
   58.9208   36.1056   45.8735 H   0  0  0  0  0  0  0  0  0  0  0  0
   60.2517   34.6502   49.1102 H   0  0  0  0  0  0  0  0  0  0  0  0
   58.5461   34.3181   49.5967 H   0  0  0  0  0  0  0  0  0  0  0  0
   59.7745   32.7495   52.1067 H   0  0  0  0  0  0  0  0  0  0  0  0
   58.3956   33.5260   51.2568 H   0  0  0  0  0  0  0  0  0  0  0  0
   58.5583   31.7371   51.2568 H   0  0  0  0  0  0  0  0  0  0  0  0
   61.5071   33.8778   50.8197 H   0  0  0  0  0  0  0  0  0  0  0  0
   61.6471   32.0863   50.9865 H   0  0  0  0  0  0  0  0  0  0  0  0
   61.6223   30.8045   48.6102 H   0  0  0  0  0  0  0  0  0  0  0  0
   63.0266   30.6877   46.5504 H   0  0  0  0  0  0  0  0  0  0  0  0
   64.3791   32.6644   45.8439 H   0  0  0  0  0  0  0  0  0  0  0  0
   64.3341   34.7592   47.2021 H   0  0  0  0  0  0  0  0  0  0  0  0
   62.9328   34.8839   49.2657 H   0  0  0  0  0  0  0  0  0  0  0  0
   59.9460   29.7876   45.8645 H   0  0  0  0  0  0  0  0  0  0  0  0
   59.2887   27.7902   44.5207 H   0  0  0  0  0  0  0  0  0  0  0  0
   57.1972   27.8336   43.1566 H   0  0  0  0  0  0  0  0  0  0  0  0
   55.7646   29.8789   43.1289 H   0  0  0  0  0  0  0  0  0  0  0  0
   56.4157   31.8787   44.4727 H   0  0  0  0  0  0  0  0  0  0  0  0
   58.7802   34.7727   44.0378 H   0  0  0  0  0  0  0  0  0  0  0  0
   59.8115   33.3565   43.6413 H   0  0  0  0  0  0  0  0  0  0  0  0
   58.0227   33.1930   43.6413 H   0  0  0  0  0  0  0  0  0  0  0  0
  1  2  1  0
  2  3  2  0
  3  4  1  0
  4  5  1  0
  5  6  1  0
  5  7  1  0
  7  8  1  0
  8  9  2  0
  9 10  1  0
 10 11  2  0
 11 12  1  0
 12 13  2  0
  3 14  1  0
 14 15  2  0
 14 16  1  0
 16 17  1  0
 17 18  2  0
 18 19  1  0
 19 20  2  0
 20 21  1  0
 21 22  2  0
 16 23  1  0
 23 24  1  0
 23  2  1  0
 13  8  1  0
 22 17  1  0
  1 25  1  0
  1 26  1  0
  1 27  1  0
  4 28  1  0
  4 29  1  0
  6 30  1  0
  6 31  1  0
  6 32  1  0
  7 33  1  0
  7 34  1  0
  9 35  1  0
 10 36  1  0
 11 37  1  0
 12 38  1  0
 13 39  1  0
 18 40  1  0
 19 41  1  0
 20 42  1  0
 21 43  1  0
 22 44  1  0
 24 45  1  0
 24 46  1  0
 24 47  1  0
M  END
>  <UniqueID>  (46) 
39

>  <SMILES>  (46) 
Cc1c(CN(C)Cc2ccccc2)c(=O)n(-c2ccccc2)n1C

>  <Energy>  (46) 
88.23676196513057

>  <Genealogy>  (46) 
Cc1c(CN(C)Cc2ccccc2)c(=O)n(-c2ccccc2)n1C (3D coordinates assigned)
Cc1c(CN(C)Cc2ccccc2)c(=O)n(-c2ccccc2)n1C (optimized conformer: 88.23676196513057 kcal/mol)

>  <smiles>  (46) 
Cc1c(CN(C)Cc2ccccc2)c(=O)n(-c2ccccc2)n1C

>  <score_type>  (46) 
oracle

>  <origin>  (46) 
adg

>  <m_score__min__energy>  (46) 
-7.8899999999999997

>  <m_primary>  (46) 
energy

$$$$
46:0
     RDKit          3D

 38 41  0  0  0  0  0  0  0  0999 V2000
   56.8901   31.5693   40.7142 H   0  0  0  0  0  0  0  0  0  0  0  0
   57.1190   31.5820   41.7900 C   0  0  0  0  0  0  0  0  0  0  0  0
   56.7790   30.6050   42.6670 N   0  0  0  0  0  0  0  0  0  0  0  0
   57.2640   31.0620   43.8410 C   0  0  0  0  0  0  0  0  0  0  0  0
   57.1930   30.4220   45.0760 C   0  0  0  0  0  0  0  0  0  0  0  0
   56.5870   29.2760   45.1940 N   0  0  0  0  0  0  0  0  0  0  0  0
   57.2030   28.0100   45.4830 C   0  0  0  0  0  0  0  0  0  0  0  0
   58.5850   27.8830   45.3400 C   0  0  0  0  0  0  0  0  0  0  0  0
   59.1818   28.7381   44.9898 H   0  0  0  0  0  0  0  0  0  0  0  0
   59.2100   26.6750   45.6400 C   0  0  0  0  0  0  0  0  0  0  0  0
   60.2979   26.5694   45.5158 H   0  0  0  0  0  0  0  0  0  0  0  0
   58.4470   25.5970   46.1000 C   0  0  0  0  0  0  0  0  0  0  0  0
   59.0250   24.5100   46.3730 O   0  0  0  0  0  0  0  0  0  0  0  0
   57.0910   25.7270   46.2570 N   0  0  0  0  0  0  0  0  0  0  0  0
   56.2970   24.6060   46.7770 C   0  0  0  0  0  0  0  0  0  0  0  0
   56.3110   24.6258   47.8767 H   0  0  0  0  0  0  0  0  0  0  0  0
   55.2598   24.6955   46.4218 H   0  0  0  0  0  0  0  0  0  0  0  0
   56.7256   23.6572   46.4218 H   0  0  0  0  0  0  0  0  0  0  0  0
   56.4730   26.9170   45.9830 C   0  0  0  0  0  0  0  0  0  0  0  0
   55.3916   27.0198   46.1561 H   0  0  0  0  0  0  0  0  0  0  0  0
   57.7420   31.0610   46.1520 N   0  0  0  0  0  0  0  0  0  0  0  0
   58.3630   32.2790   46.0520 C   0  0  0  0  0  0  0  0  0  0  0  0
   58.9480   32.8990   47.2680 C   0  0  0  0  0  0  0  0  0  0  0  0
   58.6850   32.3920   48.5550 C   0  0  0  0  0  0  0  0  0  0  0  0
   58.0260   31.5203   48.6807 H   0  0  0  0  0  0  0  0  0  0  0  0
   59.2640   33.0000   49.6720 C   0  0  0  0  0  0  0  0  0  0  0  0
   59.0565   32.6075   50.6784 H   0  0  0  0  0  0  0  0  0  0  0  0
   60.0830   34.0750   49.5200 N   0  0  0  0  0  0  0  0  0  0  0  0
   60.5080   34.5170   50.3660 H   0  0  0  0  0  0  0  0  0  0  0  0
   60.3650   34.5810   48.2900 C   0  0  0  0  0  0  0  0  0  0  0  0
   61.0342   35.4489   48.1954 H   0  0  0  0  0  0  0  0  0  0  0  0
   59.8090   34.0040   47.1460 C   0  0  0  0  0  0  0  0  0  0  0  0
   60.0440   34.4129   46.1522 H   0  0  0  0  0  0  0  0  0  0  0  0
   58.4390   32.8960   44.7830 C   0  0  0  0  0  0  0  0  0  0  0  0
   58.9383   33.8672   44.6511 H   0  0  0  0  0  0  0  0  0  0  0  0
   57.8750   32.2490   43.7340 N   0  0  0  0  0  0  0  0  0  0  0  0
   57.7960   32.5980   42.4440 C   0  0  0  0  0  0  0  0  0  0  0  0
   58.1935   33.5175   41.9895 H   0  0  0  0  0  0  0  0  0  0  0  0
  1  2  1  0
  2  3  1  0
  3  4  2  0
  4  5  1  0
  5  6  2  0
  6  7  1  0
  7  8  1  0
  8  9  1  0
  8 10  2  0
 10 11  1  0
 10 12  1  0
 12 13  2  0
 12 14  1  0
 14 15  1  0
 15 16  1  0
 15 17  1  0
 15 18  1  0
 14 19  1  0
 19 20  1  0
  5 21  1  0
 21 22  1  0
 22 23  1  0
 23 24  2  0
 24 25  1  0
 24 26  1  0
 26 27  1  0
 26 28  2  0
 28 29  1  0
 28 30  1  0
 30 31  1  0
 30 32  2  0
 32 33  1  0
 22 34  2  0
 34 35  1  0
 34 36  1  0
 36 37  1  0
 37 38  1  0
 37  2  2  0
 36  4  1  0
 19  7  2  0
 32 23  1  0
M  CHG  2  21  -1  28   1
M  END
>  <UniqueID>  (47) 
40

>  <SMILES>  (47) 
Cn1cc(/N=c2\[n-]c(-c3cc[nH+]cc3)cn3ccnc23)ccc1=O

>  <Energy>  (47) 
89.8003606183403

>  <Genealogy>  (47) 
Cn1cc(N=c2[n-]c(-c3cc[nH+]cc3)cn3ccnc23)ccc1=O (protonated)
Cn1cc(/N=c2\[n-]c(-c3cc[nH+]cc3)cn3ccnc23)ccc1=O (cis-trans isomerization)
Cn1cc(/N=c2\[n-]c(-c3cc[nH+]cc3)cn3ccnc23)ccc1=O (3D coordinates assigned)
Cn1cc(/N=c2\[n-]c(-c3cc[nH+]cc3)cn3ccnc23)ccc1=O (optimized conformer: 89.8003606183403 kcal/mol)

>  <smiles>  (47) 
Cn1cc(N=c2[nH]c(-c3ccncc3)cn3ccnc23)ccc1=O

>  <score_type>  (47) 
oracle

>  <origin>  (47) 
adg

>  <m_score__min__energy>  (47) 
-7.3700000000000001

>  <m_primary>  (47) 
energy

$$$$
47:0
     RDKit          3D

 33 34  0  0  0  0  0  0  0  0999 V2000
   57.0340   26.4190   43.0290 H   0  0  0  0  0  0  0  0  0  0  0  0
   57.8660   26.8890   43.4530 N   0  0  0  0  0  0  0  0  0  0  0  0
   57.8520   28.1480   43.7570 C   0  0  0  0  0  0  0  0  0  0  0  0
   58.7440   28.6400   44.6520 N   0  0  0  0  0  0  0  0  0  0  0  0
   58.7640   29.9560   44.9970 C   0  0  0  0  0  0  0  0  0  0  0  0
   59.7680   30.3940   46.0220 C   0  0  0  0  0  0  0  0  0  0  0  0
   59.3639   30.2177   47.0298 H   0  0  0  0  0  0  0  0  0  0  0  0
   60.6973   29.8195   45.8939 H   0  0  0  0  0  0  0  0  0  0  0  0
   59.9790   31.4659   45.8939 H   0  0  0  0  0  0  0  0  0  0  0  0
   57.8340   30.8440   44.4010 C   0  0  0  0  0  0  0  0  0  0  0  0
   57.7880   32.3010   44.6910 C   0  0  0  0  0  0  0  0  0  0  0  0
   57.9490   33.1300   43.7520 O   0  0  0  0  0  0  0  0  0  0  0  0
   57.5970   32.7650   45.9960 O   0  0  0  0  0  0  0  0  0  0  0  0
   57.7540   34.1310   46.3630 C   0  0  0  0  0  0  0  0  0  0  0  0
   57.0141   34.7429   45.8262 H   0  0  0  0  0  0  0  0  0  0  0  0
   57.6014   34.2407   47.4468 H   0  0  0  0  0  0  0  0  0  0  0  0
   59.1380   34.5870   46.0020 C   0  0  0  0  0  0  0  0  0  0  0  0
   59.2820   35.3000   44.9710 O   0  0  0  0  0  0  0  0  0  0  0  0
   60.3330   34.2030   46.8020 C   0  0  0  0  0  0  0  0  0  0  0  0
   60.2690   34.2130   48.2100 C   0  0  0  0  0  0  0  0  0  0  0  0
   59.3315   34.4964   48.7108 H   0  0  0  0  0  0  0  0  0  0  0  0
   61.3860   33.8660   48.9760 C   0  0  0  0  0  0  0  0  0  0  0  0
   61.3236   33.8797   50.0741 H   0  0  0  0  0  0  0  0  0  0  0  0
   62.5810   33.5020   48.3510 C   0  0  0  0  0  0  0  0  0  0  0  0
   64.1050   33.0310   49.4000 Br  0  0  0  0  0  0  0  0  0  0  0  0
   62.6580   33.4830   46.9570 C   0  0  0  0  0  0  0  0  0  0  0  0
   63.5987   33.1966   46.4640 H   0  0  0  0  0  0  0  0  0  0  0  0
   61.5430   33.8270   46.1850 C   0  0  0  0  0  0  0  0  0  0  0  0
   61.6114   33.8038   45.0874 H   0  0  0  0  0  0  0  0  0  0  0  0
   56.9160   30.3000   43.4870 C   0  0  0  0  0  0  0  0  0  0  0  0
   56.1685   30.9528   43.0126 H   0  0  0  0  0  0  0  0  0  0  0  0
   56.9420   28.9760   43.1830 N   0  0  0  0  0  0  0  0  0  0  0  0
   56.2500   28.6000   42.4940 H   0  0  0  0  0  0  0  0  0  0  0  0
  1  2  1  0
  2  3  2  0
  3  4  1  0
  4  5  2  0
  5  6  1  0
  6  7  1  0
  6  8  1  0
  6  9  1  0
  5 10  1  0
 10 11  1  0
 11 12  2  0
 11 13  1  0
 13 14  1  0
 14 15  1  0
 14 16  1  0
 14 17  1  0
 17 18  2  0
 17 19  1  0
 19 20  2  0
 20 21  1  0
 20 22  1  0
 22 23  1  0
 22 24  2  0
 24 25  1  0
 24 26  1  0
 26 27  1  0
 26 28  2  0
 28 29  1  0
 10 30  2  0
 30 31  1  0
 30 32  1  0
 32 33  1  0
 32  3  1  0
 28 19  1  0
M  END
>  <UniqueID>  (48) 
41

>  <SMILES>  (48) 
[H]/N=c1\nc(C)c(C(=O)OCC(=O)c2ccc(Br)cc2)c[nH]1

>  <Energy>  (48) 
34.433320840587776

>  <Genealogy>  (48) 
[H]/N=c1\nc(C)c(C(=O)OCC(=O)c2ccc(Br)cc2)c[nH]1 (cis-trans isomerization)
[H]/N=c1\nc(C)c(C(=O)OCC(=O)c2ccc(Br)cc2)c[nH]1 (3D coordinates assigned)
[H]/N=c1\nc(C)c(C(=O)OCC(=O)c2ccc(Br)cc2)c[nH]1 (optimized conformer: 34.433320840587776 kcal/mol)

>  <smiles>  (48) 
Cc1nc(=N)[nH]cc1C(=O)OCC(=O)c1ccc(Br)cc1

>  <score_type>  (48) 
oracle

>  <origin>  (48) 
adg

>  <m_score__min__energy>  (48) 
-8.5

>  <m_primary>  (48) 
energy

$$$$
48:0
     RDKit          3D

 31 31  0  0  0  0  0  0  0  0999 V2000
   60.2600   28.9110   44.9220 C   0  0  0  0  0  0  0  0  0  0  0  0
   58.7750   28.8770   45.2770 C   0  0  0  0  0  0  0  0  0  0  0  0
   57.9340   28.0690   44.2700 C   0  0  0  0  0  0  0  0  0  0  0  0
   57.0140   28.9200   43.3780 C   0  0  0  0  0  0  0  0  0  0  0  0
   56.9810   30.3560   43.8130 C   0  0  0  0  0  0  0  0  0  0  0  0
   56.0160   30.7720   44.5090 O   0  0  0  0  0  0  0  0  0  0  0  0
   58.0220   31.2560   43.4090 N   0  0  0  0  0  0  0  0  0  0  0  0
   57.8480   32.7060   43.4300 C   0  0  0  0  0  0  0  0  0  0  0  0
   58.3090   33.2530   44.7530 C   0  0  0  0  0  0  0  0  0  0  0  0
   57.7680   32.7680   45.9550 C   0  0  0  0  0  0  0  0  0  0  0  0
   58.1560   33.3260   47.1770 C   0  0  0  0  0  0  0  0  0  0  0  0
   59.0810   34.3740   47.2070 C   0  0  0  0  0  0  0  0  0  0  0  0
   59.6180   34.8660   46.0140 C   0  0  0  0  0  0  0  0  0  0  0  0
   59.2330   34.3100   44.7910 C   0  0  0  0  0  0  0  0  0  0  0  0
   60.8575   28.9247   45.8455 H   0  0  0  0  0  0  0  0  0  0  0  0
   60.5166   28.0185   44.3324 H   0  0  0  0  0  0  0  0  0  0  0  0
   60.4755   29.8143   44.3324 H   0  0  0  0  0  0  0  0  0  0  0  0
   58.6628   28.4221   46.2722 H   0  0  0  0  0  0  0  0  0  0  0  0
   58.4076   29.9136   45.2558 H   0  0  0  0  0  0  0  0  0  0  0  0
   58.6219   27.5096   43.6190 H   0  0  0  0  0  0  0  0  0  0  0  0
   57.2770   27.4167   44.8640 H   0  0  0  0  0  0  0  0  0  0  0  0
   57.3796   28.8711   42.3417 H   0  0  0  0  0  0  0  0  0  0  0  0
   55.9938   28.5167   43.4593 H   0  0  0  0  0  0  0  0  0  0  0  0
   58.8920   30.8710   42.9770 H   0  0  0  0  0  0  0  0  0  0  0  0
   58.4414   33.1572   42.6211 H   0  0  0  0  0  0  0  0  0  0  0  0
   56.7844   32.9473   43.2869 H   0  0  0  0  0  0  0  0  0  0  0  0
   57.0367   31.9465   45.9350 H   0  0  0  0  0  0  0  0  0  0  0  0
   57.7329   32.9399   48.1161 H   0  0  0  0  0  0  0  0  0  0  0  0
   59.3860   34.8112   48.1692 H   0  0  0  0  0  0  0  0  0  0  0  0
   60.3444   35.6917   46.0378 H   0  0  0  0  0  0  0  0  0  0  0  0
   59.6555   34.7019   43.8541 H   0  0  0  0  0  0  0  0  0  0  0  0
  1  2  1  0
  2  3  1  0
  3  4  1  0
  4  5  1  0
  5  6  2  0
  5  7  1  0
  7  8  1  0
  8  9  1  0
  9 10  2  0
 10 11  1  0
 11 12  2  0
 12 13  1  0
 13 14  2  0
 14  9  1  0
  1 15  1  0
  1 16  1  0
  1 17  1  0
  2 18  1  0
  2 19  1  0
  3 20  1  0
  3 21  1  0
  4 22  1  0
  4 23  1  0
  7 24  1  0
  8 25  1  0
  8 26  1  0
 10 27  1  0
 11 28  1  0
 12 29  1  0
 13 30  1  0
 14 31  1  0
M  END
>  <UniqueID>  (49) 
42

>  <SMILES>  (49) 
CCCCC(=O)NCc1ccccc1

>  <Energy>  (49) 
17.8839785909207

>  <Genealogy>  (49) 
CCCCC(=O)NCc1ccccc1 (3D coordinates assigned)
CCCCC(=O)NCc1ccccc1 (optimized conformer: 17.8839785909207 kcal/mol)

>  <smiles>  (49) 
CCCCC(=O)NCc1ccccc1

>  <score_type>  (49) 
oracle

>  <origin>  (49) 
adg

>  <m_score__min__energy>  (49) 
-6.0099999999999998

>  <m_primary>  (49) 
energy

$$$$
49:0
     RDKit          3D

 35 37  0  0  0  0  0  0  0  0999 V2000
   57.7916   35.2688   45.0450 H   0  0  0  0  0  0  0  0  0  0  0  0
   58.0630   34.2200   45.2360 C   0  0  0  0  0  0  0  0  0  0  0  0
   57.4650   33.2810   44.4850 C   0  0  0  0  0  0  0  0  0  0  0  0
   56.8363   33.6273   43.6514 H   0  0  0  0  0  0  0  0  0  0  0  0
   57.5810   31.8190   44.6850 C   0  0  0  0  0  0  0  0  0  0  0  0
   56.4720   31.0310   44.6750 N   0  0  0  0  0  0  0  0  0  0  0  0
   56.5450   29.6940   44.8880 C   0  0  0  0  0  0  0  0  0  0  0  0
   55.4890   29.0050   44.8560 O   0  0  0  0  0  0  0  0  0  0  0  0
   57.7890   29.0970   45.1430 C   0  0  0  0  0  0  0  0  0  0  0  0
   57.9280   27.7160   45.3710 C   0  0  0  0  0  0  0  0  0  0  0  0
   57.0428   27.0634   45.3487 H   0  0  0  0  0  0  0  0  0  0  0  0
   59.1910   27.1720   45.6260 C   0  0  0  0  0  0  0  0  0  0  0  0
   59.2973   26.0914   45.8019 H   0  0  0  0  0  0  0  0  0  0  0  0
   60.3180   27.9970   45.6580 C   0  0  0  0  0  0  0  0  0  0  0  0
   61.3087   27.5640   45.8603 H   0  0  0  0  0  0  0  0  0  0  0  0
   60.1910   29.3700   45.4340 C   0  0  0  0  0  0  0  0  0  0  0  0
   61.0819   30.0147   45.4613 H   0  0  0  0  0  0  0  0  0  0  0  0
   58.9290   29.9300   45.1740 C   0  0  0  0  0  0  0  0  0  0  0  0
   58.7990   31.2690   44.9530 N   0  0  0  0  0  0  0  0  0  0  0  0
   59.6440   31.8850   44.9790 H   0  0  0  0  0  0  0  0  0  0  0  0
   59.0560   33.9580   46.2980 C   0  0  0  0  0  0  0  0  0  0  0  0
   58.6590   33.7240   47.6260 C   0  0  0  0  0  0  0  0  0  0  0  0
   57.5897   33.7046   47.8832 H   0  0  0  0  0  0  0  0  0  0  0  0
   59.6180   33.5160   48.6200 C   0  0  0  0  0  0  0  0  0  0  0  0
   59.3008   33.3152   49.6540 H   0  0  0  0  0  0  0  0  0  0  0  0
   60.9780   33.5620   48.3060 C   0  0  0  0  0  0  0  0  0  0  0  0
   61.7285   33.3901   49.0916 H   0  0  0  0  0  0  0  0  0  0  0  0
   61.3910   33.8280   46.9860 C   0  0  0  0  0  0  0  0  0  0  0  0
   62.7440   33.8970   46.6210 O   0  0  0  0  0  0  0  0  0  0  0  0
   63.7650   33.0630   47.1600 C   0  0  0  0  0  0  0  0  0  0  0  0
   63.7239   33.0966   48.2587 H   0  0  0  0  0  0  0  0  0  0  0  0
   63.6116   32.0286   46.8188 H   0  0  0  0  0  0  0  0  0  0  0  0
   64.7480   33.4197   46.8188 H   0  0  0  0  0  0  0  0  0  0  0  0
   60.4240   34.0340   45.9940 C   0  0  0  0  0  0  0  0  0  0  0  0
   60.7404   34.2580   44.9646 H   0  0  0  0  0  0  0  0  0  0  0  0
  1  2  1  0
  2  3  2  0
  3  4  1  0
  3  5  1  0
  5  6  2  0
  6  7  1  0
  7  8  2  0
  7  9  1  0
  9 10  2  0
 10 11  1  0
 10 12  1  0
 12 13  1  0
 12 14  2  0
 14 15  1  0
 14 16  1  0
 16 17  1  0
 16 18  2  0
 18 19  1  0
 19 20  1  0
  2 21  1  0
 21 22  2  0
 22 23  1  0
 22 24  1  0
 24 25  1  0
 24 26  2  0
 26 27  1  0
 26 28  1  0
 28 29  1  0
 29 30  1  0
 30 31  1  0
 30 32  1  0
 30 33  1  0
 28 34  2  0
 34 35  1  0
 19  5  1  0
 34 21  1  0
 18  9  1  0
M  END
>  <UniqueID>  (50) 
43

>  <SMILES>  (50) 
COc1cccc(/C=C\c2nc(=O)c3ccccc3[nH]2)c1

>  <Energy>  (50) 
49.54227309101385

>  <Genealogy>  (50) 
COc1cccc(/C=C\c2nc(=O)c3ccccc3[nH]2)c1 (cis-trans isomerization)
COc1cccc(/C=C\c2nc(=O)c3ccccc3[nH]2)c1 (3D coordinates assigned)
COc1cccc(/C=C\c2nc(=O)c3ccccc3[nH]2)c1 (optimized conformer: 49.54227309101385 kcal/mol)

>  <smiles>  (50) 
COc1cccc(C=Cc2nc(=O)c3ccccc3[nH]2)c1

>  <score_type>  (50) 
oracle

>  <origin>  (50) 
adg

>  <m_score__min__energy>  (50) 
-8.0500000000000007

>  <m_primary>  (50) 
energy

$$$$
50:0
     RDKit          3D

 41 43  0  0  0  0  0  0  0  0999 V2000
   65.2740   33.0810   49.3860 N   0  0  0  0  0  0  0  0  0  0  0  0
   64.1110   32.7200   48.6370 C   0  0  0  0  0  0  0  0  0  0  0  0
   63.3130   31.6430   49.0470 C   0  0  0  0  0  0  0  0  0  0  0  0
   62.1760   31.2890   48.3140 C   0  0  0  0  0  0  0  0  0  0  0  0
   61.8150   32.0190   47.1670 C   0  0  0  0  0  0  0  0  0  0  0  0
   60.6660   31.6580   46.3810 N   0  0  0  0  0  0  0  0  0  0  0  0
   59.9970   30.3880   46.4750 C   0  0  0  0  0  0  0  0  0  0  0  0
   60.2700   29.5980   47.4200 O   0  0  0  0  0  0  0  0  0  0  0  0
   58.9700   30.0000   45.4800 C   0  0  0  0  0  0  0  0  0  0  0  0
   58.7720   28.6420   45.1710 C   0  0  0  0  0  0  0  0  0  0  0  0
   57.8010   28.2600   44.2420 C   0  0  0  0  0  0  0  0  0  0  0  0
   57.0250   29.2270   43.6050 C   0  0  0  0  0  0  0  0  0  0  0  0
   57.2120   30.5780   43.8960 C   0  0  0  0  0  0  0  0  0  0  0  0
   58.1710   30.9780   44.8440 C   0  0  0  0  0  0  0  0  0  0  0  0
   58.3550   32.3680   45.1570 N   0  0  0  0  0  0  0  0  0  0  0  0
   57.7880   33.0610   46.2760 C   0  0  0  0  0  0  0  0  0  0  0  0
   56.5980   33.4650   46.2010 O   0  0  0  0  0  0  0  0  0  0  0  0
   58.5670   33.3340   47.5040 C   0  0  0  0  0  0  0  0  0  0  0  0
   58.3620   32.5190   48.6310 C   0  0  0  0  0  0  0  0  0  0  0  0
   59.1010   32.7290   49.7990 C   0  0  0  0  0  0  0  0  0  0  0  0
   60.0400   33.7580   49.8580 C   0  0  0  0  0  0  0  0  0  0  0  0
   60.2350   34.5910   48.7540 C   0  0  0  0  0  0  0  0  0  0  0  0
   59.5010   34.3920   47.5780 C   0  0  0  0  0  0  0  0  0  0  0  0
   59.7230   35.5380   46.2580 Cl  0  0  0  0  0  0  0  0  0  0  0  0
   62.6300   33.0800   46.7470 C   0  0  0  0  0  0  0  0  0  0  0  0
   63.7660   33.4340   47.4810 C   0  0  0  0  0  0  0  0  0  0  0  0
   66.2220   33.0490   48.9500 H   0  0  0  0  0  0  0  0  0  0  0  0
   65.1940   33.3840   50.3830 H   0  0  0  0  0  0  0  0  0  0  0  0
   63.5823   31.0740   49.9490 H   0  0  0  0  0  0  0  0  0  0  0  0
   61.5610   30.4357   48.6358 H   0  0  0  0  0  0  0  0  0  0  0  0
   60.2870   32.3810   45.7290 H   0  0  0  0  0  0  0  0  0  0  0  0
   59.3865   27.8748   45.6647 H   0  0  0  0  0  0  0  0  0  0  0  0
   57.6487   27.1949   44.0130 H   0  0  0  0  0  0  0  0  0  0  0  0
   56.2636   28.9238   42.8713 H   0  0  0  0  0  0  0  0  0  0  0  0
   56.6049   31.3366   43.3802 H   0  0  0  0  0  0  0  0  0  0  0  0
   57.6159   31.7115   48.5936 H   0  0  0  0  0  0  0  0  0  0  0  0
   58.9413   32.0810   50.6734 H   0  0  0  0  0  0  0  0  0  0  0  0
   60.6277   33.9139   50.7747 H   0  0  0  0  0  0  0  0  0  0  0  0
   60.9694   35.4081   48.8085 H   0  0  0  0  0  0  0  0  0  0  0  0
   62.3738   33.6375   45.8340 H   0  0  0  0  0  0  0  0  0  0  0  0
   64.3916   34.2761   47.1501 H   0  0  0  0  0  0  0  0  0  0  0  0
  1  2  1  0
  2  3  2  0
  3  4  1  0
  4  5  2  0
  5  6  1  0
  6  7  1  0
  7  8  2  0
  7  9  1  0
  9 10  2  0
 10 11  1  0
 11 12  2  0
 12 13  1  0
 13 14  2  0
 14 15  1  0
 15 16  1  0
 16 17  2  0
 16 18  1  0
 18 19  2  0
 19 20  1  0
 20 21  2  0
 21 22  1  0
 22 23  2  0
 23 24  1  0
  5 25  1  0
 25 26  2  0
 26  2  1  0
 14  9  1  0
 23 18  1  0
  1 27  1  0
  1 28  1  0
  3 29  1  0
  4 30  1  0
  6 31  1  0
 10 32  1  0
 11 33  1  0
 12 34  1  0
 13 35  1  0
 19 36  1  0
 20 37  1  0
 21 38  1  0
 22 39  1  0
 25 40  1  0
 26 41  1  0
M  CHG  1  15  -1
M  END
>  <UniqueID>  (51) 
44

>  <SMILES>  (51) 
Nc1ccc(NC(=O)c2ccccc2[N-]C(=O)c2ccccc2Cl)cc1

>  <Energy>  (51) 
60.58577050117514

>  <Genealogy>  (51) 
Nc1ccc(NC(=O)c2ccccc2[N-]C(=O)c2ccccc2Cl)cc1 (protonated)
Nc1ccc(NC(=O)c2ccccc2[N-]C(=O)c2ccccc2Cl)cc1 (3D coordinates assigned)
Nc1ccc(NC(=O)c2ccccc2[N-]C(=O)c2ccccc2Cl)cc1 (optimized conformer: 60.58577050117514 kcal/mol)

>  <smiles>  (51) 
Nc1ccc(NC(=O)c2ccccc2NC(=O)c2ccccc2Cl)cc1

>  <score_type>  (51) 
oracle

>  <origin>  (51) 
adg

>  <m_score__min__energy>  (51) 
-8.8300000000000001

>  <m_primary>  (51) 
energy

$$$$
51:0
     RDKit          3D

 72 76  0  0  0  0  0  0  0  0999 V2000
   66.4160   31.3130   50.4960 C   0  0  0  0  0  0  0  0  0  0  0  0
   64.9990   31.3490   50.3650 O   0  0  0  0  0  0  0  0  0  0  0  0
   64.0980   30.7870   51.2830 C   0  0  0  0  0  0  0  0  0  0  0  0
   63.1110   29.8640   50.8920 C   0  0  0  0  0  0  0  0  0  0  0  0
   62.2200   29.3250   51.8360 C   0  0  0  0  0  0  0  0  0  0  0  0
   61.2280   28.4000   51.4610 C   0  0  0  0  0  0  0  0  0  0  0  0
   61.1370   27.9830   50.1220 O   0  0  0  0  0  0  0  0  0  0  0  0
   60.2020   28.4420   49.1840 C   0  0  0  0  0  0  0  0  0  0  0  0
   59.8710   27.6090   48.1090 C   0  0  0  0  0  0  0  0  0  0  0  0
   58.9490   28.0290   47.1470 C   0  0  0  0  0  0  0  0  0  0  0  0
   58.3390   29.2830   47.2530 C   0  0  0  0  0  0  0  0  0  0  0  0
   57.4050   29.6950   46.2520 N   0  0  0  0  0  0  0  0  0  0  0  0
   57.8340   30.7210   44.9220 S   0  0  0  0  0  0  0  0  0  0  0  0
   58.9390   30.0660   44.1390 O   0  0  0  0  0  0  0  0  0  0  0  0
   56.6440   30.8820   44.0180 O   0  0  0  0  0  0  0  0  0  0  0  0
   58.3840   32.3040   45.4650 C   0  0  0  0  0  0  0  0  0  0  0  0
   58.8780   33.2330   44.5380 C   0  0  0  0  0  0  0  0  0  0  0  0
   59.2790   34.5030   44.9630 C   0  0  0  0  0  0  0  0  0  0  0  0
   59.1930   34.8490   46.3150 C   0  0  0  0  0  0  0  0  0  0  0  0
   59.5820   36.0810   46.7260 F   0  0  0  0  0  0  0  0  0  0  0  0
   58.7010   33.9250   47.2430 C   0  0  0  0  0  0  0  0  0  0  0  0
   58.2950   32.6550   46.8190 C   0  0  0  0  0  0  0  0  0  0  0  0
   58.7080   30.1430   48.2960 C   0  0  0  0  0  0  0  0  0  0  0  0
   59.6320   29.7290   49.2610 C   0  0  0  0  0  0  0  0  0  0  0  0
   60.0130   30.6020   50.2260 F   0  0  0  0  0  0  0  0  0  0  0  0
   60.3750   27.8750   52.4460 C   0  0  0  0  0  0  0  0  0  0  0  0
   60.5030   28.2970   53.7690 C   0  0  0  0  0  0  0  0  0  0  0  0
   61.4560   29.2040   54.1140 N   0  0  0  0  0  0  0  0  0  0  0  0
   62.3160   29.7210   53.1890 C   0  0  0  0  0  0  0  0  0  0  0  0
   63.3010   30.6430   53.5760 C   0  0  0  0  0  0  0  0  0  0  0  0
   64.1960   31.1740   52.6290 C   0  0  0  0  0  0  0  0  0  0  0  0
   65.1990   32.0880   52.9800 O   0  0  0  0  0  0  0  0  0  0  0  0
   65.0610   33.5080   52.9410 C   0  0  0  0  0  0  0  0  0  0  0  0
   64.9170   33.9710   51.4900 C   0  0  0  0  0  0  0  0  0  0  0  0
   63.4430   34.2780   51.1430 C   0  0  0  0  0  0  0  0  0  0  0  0
   63.0390   33.8780   49.7770 N   0  0  0  0  0  0  0  0  0  0  0  0
   64.1670   33.4750   48.9180 C   0  0  0  0  0  0  0  0  0  0  0  0
   63.7440   33.5290   47.4380 C   0  0  0  0  0  0  0  0  0  0  0  0
   62.2230   33.3640   47.2530 C   0  0  0  0  0  0  0  0  0  0  0  0
   61.6300   32.4180   48.3040 C   0  0  0  0  0  0  0  0  0  0  0  0
   61.9420   32.8870   49.7450 C   0  0  0  0  0  0  0  0  0  0  0  0
   66.6856   31.3062   51.5624 H   0  0  0  0  0  0  0  0  0  0  0  0
   66.8059   30.4047   50.0134 H   0  0  0  0  0  0  0  0  0  0  0  0
   66.8515   32.2004   50.0134 H   0  0  0  0  0  0  0  0  0  0  0  0
   63.0358   29.5612   49.8372 H   0  0  0  0  0  0  0  0  0  0  0  0
   60.3396   26.6177   48.0211 H   0  0  0  0  0  0  0  0  0  0  0  0
   58.7016   27.3699   46.3018 H   0  0  0  0  0  0  0  0  0  0  0  0
   58.9501   32.9619   43.4744 H   0  0  0  0  0  0  0  0  0  0  0  0
   59.6626   35.2309   44.2330 H   0  0  0  0  0  0  0  0  0  0  0  0
   58.6333   34.1971   48.3067 H   0  0  0  0  0  0  0  0  0  0  0  0
   57.9053   31.9308   47.5495 H   0  0  0  0  0  0  0  0  0  0  0  0
   58.2684   31.1496   48.3562 H   0  0  0  0  0  0  0  0  0  0  0  0
   59.6089   27.1337   52.1747 H   0  0  0  0  0  0  0  0  0  0  0  0
   59.8286   27.8936   54.5387 H   0  0  0  0  0  0  0  0  0  0  0  0
   61.5200   29.4950   55.1160 H   0  0  0  0  0  0  0  0  0  0  0  0
   63.3739   30.9532   54.6288 H   0  0  0  0  0  0  0  0  0  0  0  0
   64.1676   33.8046   53.5101 H   0  0  0  0  0  0  0  0  0  0  0  0
   65.9528   33.9736   53.3858 H   0  0  0  0  0  0  0  0  0  0  0  0
   65.5169   34.8812   51.3430 H   0  0  0  0  0  0  0  0  0  0  0  0
   65.2681   33.1632   50.8311 H   0  0  0  0  0  0  0  0  0  0  0  0
   62.8026   33.7446   51.8609 H   0  0  0  0  0  0  0  0  0  0  0  0
   63.3299   35.3709   51.1957 H   0  0  0  0  0  0  0  0  0  0  0  0
   65.0124   34.1597   49.0810 H   0  0  0  0  0  0  0  0  0  0  0  0
   64.4666   32.4475   49.1719 H   0  0  0  0  0  0  0  0  0  0  0  0
   64.0470   34.5002   47.0196 H   0  0  0  0  0  0  0  0  0  0  0  0
   64.2366   32.6937   46.9187 H   0  0  0  0  0  0  0  0  0  0  0  0
   61.7423   34.3490   47.3465 H   0  0  0  0  0  0  0  0  0  0  0  0
   62.0405   32.9330   46.2576 H   0  0  0  0  0  0  0  0  0  0  0  0
   60.5387   32.3786   48.1714 H   0  0  0  0  0  0  0  0  0  0  0  0
   62.0831   31.4256   48.1632 H   0  0  0  0  0  0  0  0  0  0  0  0
   61.0378   33.3434   50.1740 H   0  0  0  0  0  0  0  0  0  0  0  0
   62.2582   32.0095   50.3281 H   0  0  0  0  0  0  0  0  0  0  0  0
  1  2  1  0
  2  3  1  0
  3  4  2  0
  4  5  1  0
  5  6  2  0
  6  7  1  0
  7  8  1  0
  8  9  2  0
  9 10  1  0
 10 11  2  0
 11 12  1  0
 12 13  1  0
 13 14  2  0
 13 15  2  0
 13 16  1  0
 16 17  2  0
 17 18  1  0
 18 19  2  0
 19 20  1  0
 19 21  1  0
 21 22  2  0
 11 23  1  0
 23 24  2  0
 24 25  1  0
  6 26  1  0
 26 27  2  0
 27 28  1  0
 28 29  2  0
 29 30  1  0
 30 31  2  0
 31 32  1  0
 32 33  1  0
 33 34  1  0
 34 35  1  0
 35 36  1  0
 36 37  1  0
 37 38  1  0
 38 39  1  0
 39 40  1  0
 40 41  1  0
 31  3  1  0
 41 36  1  0
 29  5  1  0
 24  8  1  0
 22 16  1  0
  1 42  1  0
  1 43  1  0
  1 44  1  0
  4 45  1  0
  9 46  1  0
 10 47  1  0
 17 48  1  0
 18 49  1  0
 21 50  1  0
 22 51  1  0
 23 52  1  0
 26 53  1  0
 27 54  1  0
 28 55  1  0
 30 56  1  0
 33 57  1  0
 33 58  1  0
 34 59  1  0
 34 60  1  0
 35 61  1  0
 35 62  1  0
 37 63  1  0
 37 64  1  0
 38 65  1  0
 38 66  1  0
 39 67  1  0
 39 68  1  0
 40 69  1  0
 40 70  1  0
 41 71  1  0
 41 72  1  0
M  CHG  2  12  -1  28   1
M  END
>  <UniqueID>  (52) 
45

>  <SMILES>  (52) 
COc1cc2c(Oc3ccc([N-]S(=O)(=O)c4ccc(F)cc4)cc3F)cc[nH+]c2cc1OCCCN1CCCCC1

>  <Energy>  (52) 
100.77572176027468

>  <Genealogy>  (52) 
COc1cc2c(Oc3ccc([N-]S(=O)(=O)c4ccc(F)cc4)cc3F)cc[nH+]c2cc1OCCCN1CCCCC1 (protonated)
COc1cc2c(Oc3ccc([N-]S(=O)(=O)c4ccc(F)cc4)cc3F)cc[nH+]c2cc1OCCCN1CCCCC1 (3D coordinates assigned)
COc1cc2c(Oc3ccc([N-]S(=O)(=O)c4ccc(F)cc4)cc3F)cc[nH+]c2cc1OCCCN1CCCCC1 (nonaromatic ring conformer: 100.77572176027468 kcal/mol)

>  <smiles>  (52) 
COc1cc2c(Oc3ccc(NS(=O)(=O)c4ccc(F)cc4)cc3F)ccnc2cc1OCCCN1CCCCC1

>  <score_type>  (52) 
oracle

>  <origin>  (52) 
adg

>  <m_score__min__energy>  (52) 
-9.6799999999999997

>  <m_primary>  (52) 
energy

$$$$
52:0
     RDKit          3D

 71 75  0  0  0  0  0  0  0  0999 V2000
   60.7220   27.5050   45.7630 C   0  0  0  0  0  0  0  0  0  0  0  0
   59.5540   27.9910   46.6760 C   0  0  0  0  0  0  0  0  0  0  0  0
   59.9840   29.1960   47.4850 N   0  0  0  0  0  0  0  0  0  0  0  0
   60.6330   30.2870   46.6930 C   0  0  0  0  0  0  0  0  0  0  0  0
   61.4580   31.2910   47.5330 C   0  0  0  0  0  0  0  0  0  0  0  0
   60.9380   31.4710   48.9790 C   0  0  0  0  0  0  0  0  0  0  0  0
   59.7670   32.3830   49.0660 N   0  0  0  0  0  0  0  0  0  0  0  0
   59.2440   33.0420   47.8830 C   0  0  0  0  0  0  0  0  0  0  0  0
   59.8310   34.2310   47.3980 C   0  0  0  0  0  0  0  0  0  0  0  0
   59.3270   34.8680   46.2590 C   0  0  0  0  0  0  0  0  0  0  0  0
   58.2380   34.3240   45.5790 C   0  0  0  0  0  0  0  0  0  0  0  0
   57.7470   34.9450   44.4790 F   0  0  0  0  0  0  0  0  0  0  0  0
   57.6490   33.1440   46.0380 C   0  0  0  0  0  0  0  0  0  0  0  0
   58.1440   32.5070   47.1790 C   0  0  0  0  0  0  0  0  0  0  0  0
   59.1340   32.6410   50.3340 C   0  0  0  0  0  0  0  0  0  0  0  0
   58.0220   31.8920   50.7370 C   0  0  0  0  0  0  0  0  0  0  0  0
   57.4220   32.1650   51.9690 C   0  0  0  0  0  0  0  0  0  0  0  0
   57.9330   33.1730   52.7860 C   0  0  0  0  0  0  0  0  0  0  0  0
   59.0460   33.8980   52.3560 C   0  0  0  0  0  0  0  0  0  0  0  0
   59.6170   33.6230   51.1500 N   0  0  0  0  0  0  0  0  0  0  0  0
   60.6580   30.1130   49.6720 C   0  0  0  0  0  0  0  0  0  0  0  0
   60.7540   28.9130   48.7220 C   0  0  0  0  0  0  0  0  0  0  0  0
   58.3080   28.3040   45.7640 C   0  0  0  0  0  0  0  0  0  0  0  0
   57.0180   27.6060   46.2240 C   0  0  0  0  0  0  0  0  0  0  0  0
   57.2400   26.1530   46.3200 N   0  0  0  0  0  0  0  0  0  0  0  0
   56.2480   25.2320   45.8070 C   0  0  0  0  0  0  0  0  0  0  0  0
   55.0600   25.6230   45.6410 O   0  0  0  0  0  0  0  0  0  0  0  0
   56.5940   23.8430   45.4100 C   0  0  0  0  0  0  0  0  0  0  0  0
   56.6580   22.8360   46.3920 C   0  0  0  0  0  0  0  0  0  0  0  0
   57.0070   21.5280   46.0480 C   0  0  0  0  0  0  0  0  0  0  0  0
   57.2670   21.1990   44.7190 C   0  0  0  0  0  0  0  0  0  0  0  0
   57.1580   22.1710   43.7260 C   0  0  0  0  0  0  0  0  0  0  0  0
   56.8100   23.4930   44.0520 C   0  0  0  0  0  0  0  0  0  0  0  0
   56.6890   24.4600   42.9990 N   0  0  0  0  0  0  0  0  0  0  0  0
   58.4390   25.6590   47.0160 C   0  0  0  0  0  0  0  0  0  0  0  0
   59.2540   26.8010   47.6520 C   0  0  0  0  0  0  0  0  0  0  0  0
   61.5568   27.1576   46.3894 H   0  0  0  0  0  0  0  0  0  0  0  0
   60.3713   26.6781   45.1279 H   0  0  0  0  0  0  0  0  0  0  0  0
   61.0614   28.3366   45.1279 H   0  0  0  0  0  0  0  0  0  0  0  0
   61.3051   29.8227   45.9563 H   0  0  0  0  0  0  0  0  0  0  0  0
   59.8179   30.8635   46.2312 H   0  0  0  0  0  0  0  0  0  0  0  0
   62.4968   30.9324   47.5802 H   0  0  0  0  0  0  0  0  0  0  0  0
   61.3724   32.2694   47.0377 H   0  0  0  0  0  0  0  0  0  0  0  0
   61.7533   31.9599   49.5324 H   0  0  0  0  0  0  0  0  0  0  0  0
   60.6962   34.6622   47.9228 H   0  0  0  0  0  0  0  0  0  0  0  0
   59.7902   35.7987   45.8996 H   0  0  0  0  0  0  0  0  0  0  0  0
   56.7918   32.7141   45.4991 H   0  0  0  0  0  0  0  0  0  0  0  0
   57.6713   31.5787   47.5322 H   0  0  0  0  0  0  0  0  0  0  0  0
   57.6244   31.0962   50.0900 H   0  0  0  0  0  0  0  0  0  0  0  0
   56.5462   31.5845   52.2946 H   0  0  0  0  0  0  0  0  0  0  0  0
   57.4652   33.3941   53.7567 H   0  0  0  0  0  0  0  0  0  0  0  0
   59.4627   34.6928   52.9922 H   0  0  0  0  0  0  0  0  0  0  0  0
   60.4500   34.1750   50.8470 H   0  0  0  0  0  0  0  0  0  0  0  0
   61.3908   29.9768   50.4809 H   0  0  0  0  0  0  0  0  0  0  0  0
   59.6249   30.1474   50.0482 H   0  0  0  0  0  0  0  0  0  0  0  0
   61.8082   28.7333   48.4642 H   0  0  0  0  0  0  0  0  0  0  0  0
   60.3391   28.0217   49.2154 H   0  0  0  0  0  0  0  0  0  0  0  0
   58.1367   29.3906   45.7702 H   0  0  0  0  0  0  0  0  0  0  0  0
   58.5402   27.9228   44.7586 H   0  0  0  0  0  0  0  0  0  0  0  0
   56.7242   27.9958   47.2097 H   0  0  0  0  0  0  0  0  0  0  0  0
   56.2199   27.8025   45.4930 H   0  0  0  0  0  0  0  0  0  0  0  0
   56.4310   23.0817   47.4399 H   0  0  0  0  0  0  0  0  0  0  0  0
   57.0768   20.7556   46.8281 H   0  0  0  0  0  0  0  0  0  0  0  0
   57.5583   20.1720   44.4536 H   0  0  0  0  0  0  0  0  0  0  0  0
   57.3463   21.9006   42.6765 H   0  0  0  0  0  0  0  0  0  0  0  0
   56.4460   25.4550   43.1900 H   0  0  0  0  0  0  0  0  0  0  0  0
   56.7590   24.1660   42.0000 H   0  0  0  0  0  0  0  0  0  0  0  0
   58.1271   24.9625   47.8082 H   0  0  0  0  0  0  0  0  0  0  0  0
   59.0791   25.1599   46.2736 H   0  0  0  0  0  0  0  0  0  0  0  0
   58.6892   27.1922   48.5110 H   0  0  0  0  0  0  0  0  0  0  0  0
   60.2257   26.3750   47.9424 H   0  0  0  0  0  0  0  0  0  0  0  0
  1  2  1  0
  2  3  1  0
  3  4  1  0
  4  5  1  0
  5  6  1  0
  6  7  1  0
  7  8  1  0
  8  9  2  0
  9 10  1  0
 10 11  2  0
 11 12  1  0
 11 13  1  0
 13 14  2  0
  7 15  1  0
 15 16  2  0
 16 17  1  0
 17 18  2  0
 18 19  1  0
 19 20  2  0
  6 21  1  0
 21 22  1  0
  2 23  1  0
 23 24  1  0
 24 25  1  0
 25 26  1  0
 26 27  2  0
 26 28  1  0
 28 29  2  0
 29 30  1  0
 30 31  2  0
 31 32  1  0
 32 33  2  0
 33 34  1  0
 25 35  1  0
 35 36  1  0
 36  2  1  0
 22  3  1  0
 33 28  1  0
 14  8  1  0
 20 15  1  0
  1 37  1  0
  1 38  1  0
  1 39  1  0
  4 40  1  0
  4 41  1  0
  5 42  1  0
  5 43  1  0
  6 44  1  0
  9 45  1  0
 10 46  1  0
 13 47  1  0
 14 48  1  0
 16 49  1  0
 17 50  1  0
 18 51  1  0
 19 52  1  0
 20 53  1  0
 21 54  1  0
 21 55  1  0
 22 56  1  0
 22 57  1  0
 23 58  1  0
 23 59  1  0
 24 60  1  0
 24 61  1  0
 29 62  1  0
 30 63  1  0
 31 64  1  0
 32 65  1  0
 34 66  1  0
 34 67  1  0
 35 68  1  0
 35 69  1  0
 36 70  1  0
 36 71  1  0
M  CHG  1  20   1
M  END
>  <UniqueID>  (53) 
46

>  <SMILES>  (53) 
CC1(N2CCC(N(c3ccc(F)cc3)c3cccc[nH+]3)CC2)CCN(C(=O)c2ccccc2N)CC1

>  <Energy>  (53) 
120.73156150434423

>  <Genealogy>  (53) 
CC1(N2CCC(N(c3ccc(F)cc3)c3cccc[nH+]3)CC2)CCN(C(=O)c2ccccc2N)CC1 (protonated)
CC1(N2CCC(N(c3ccc(F)cc3)c3cccc[nH+]3)CC2)CCN(C(=O)c2ccccc2N)CC1 (3D coordinates assigned)
CC1(N2CCC(N(c3ccc(F)cc3)c3cccc[nH+]3)CC2)CCN(C(=O)c2ccccc2N)CC1 (nonaromatic ring conformer: 120.73156150434423 kcal/mol)

>  <smiles>  (53) 
CC1(N2CCC(N(c3ccc(F)cc3)c3ccccn3)CC2)CCN(C(=O)c2ccccc2N)CC1

>  <score_type>  (53) 
oracle

>  <origin>  (53) 
adg

>  <m_score__min__energy>  (53) 
-8.75

>  <m_primary>  (53) 
energy

$$$$
53:0
     RDKit          3D

 35 37  0  0  0  0  0  0  0  0999 V2000
   55.5320   28.9470   44.8730 O   0  0  0  0  0  0  0  0  0  0  0  0
   56.5590   29.6770   44.9010 C   0  0  0  0  0  0  0  0  0  0  0  0
   56.4230   31.0630   44.5600 N   0  0  0  0  0  0  0  0  0  0  0  0
   57.3890   32.0810   44.8420 C   0  0  0  0  0  0  0  0  0  0  0  0
   57.9310   33.0010   43.9620 C   0  0  0  0  0  0  0  0  0  0  0  0
   58.7450   33.8110   44.6640 N   0  0  0  0  0  0  0  0  0  0  0  0
   58.7140   33.4490   45.9390 N   0  0  0  0  0  0  0  0  0  0  0  0
   59.5240   34.0610   46.9880 C   0  0  0  0  0  0  0  0  0  0  0  0
   60.8000   33.2820   47.1660 C   0  0  0  0  0  0  0  0  0  0  0  0
   62.0150   33.8150   46.7040 C   0  0  0  0  0  0  0  0  0  0  0  0
   63.1990   33.0810   46.8260 C   0  0  0  0  0  0  0  0  0  0  0  0
   63.1770   31.8070   47.4000 C   0  0  0  0  0  0  0  0  0  0  0  0
   61.9700   31.2640   47.8480 C   0  0  0  0  0  0  0  0  0  0  0  0
   60.7830   31.9930   47.7290 C   0  0  0  0  0  0  0  0  0  0  0  0
   59.6200   31.4410   48.1580 F   0  0  0  0  0  0  0  0  0  0  0  0
   57.8910   32.3920   46.0870 C   0  0  0  0  0  0  0  0  0  0  0  0
   57.8490   29.1080   45.3480 C   0  0  0  0  0  0  0  0  0  0  0  0
   58.9740   29.1290   44.5090 C   0  0  0  0  0  0  0  0  0  0  0  0
   60.1740   28.5690   44.9540 C   0  0  0  0  0  0  0  0  0  0  0  0
   60.2420   27.9890   46.2220 C   0  0  0  0  0  0  0  0  0  0  0  0
   59.1020   27.9730   47.0270 C   0  0  0  0  0  0  0  0  0  0  0  0
   57.9430   28.5240   46.5760 N   0  0  0  0  0  0  0  0  0  0  0  0
   57.7321   33.0599   42.8817 H   0  0  0  0  0  0  0  0  0  0  0  0
   59.3120   34.5980   44.2780 H   0  0  0  0  0  0  0  0  0  0  0  0
   59.7646   35.0967   46.7063 H   0  0  0  0  0  0  0  0  0  0  0  0
   58.9601   34.0556   47.9324 H   0  0  0  0  0  0  0  0  0  0  0  0
   62.0350   34.8141   46.2443 H   0  0  0  0  0  0  0  0  0  0  0  0
   64.1486   33.5068   46.4698 H   0  0  0  0  0  0  0  0  0  0  0  0
   64.1095   31.2319   47.4991 H   0  0  0  0  0  0  0  0  0  0  0  0
   61.9537   30.2594   48.2959 H   0  0  0  0  0  0  0  0  0  0  0  0
   57.6620   31.8726   47.0292 H   0  0  0  0  0  0  0  0  0  0  0  0
   58.9113   29.5828   43.5089 H   0  0  0  0  0  0  0  0  0  0  0  0
   61.0633   28.5850   44.3067 H   0  0  0  0  0  0  0  0  0  0  0  0
   61.1837   27.5495   46.5827 H   0  0  0  0  0  0  0  0  0  0  0  0
   59.1408   27.5148   48.0263 H   0  0  0  0  0  0  0  0  0  0  0  0
  1  2  2  0
  2  3  1  0
  3  4  1  0
  4  5  1  0
  5  6  2  0
  6  7  1  0
  7  8  1  0
  8  9  1  0
  9 10  2  0
 10 11  1  0
 11 12  2  0
 12 13  1  0
 13 14  2  0
 14 15  1  0
  7 16  1  0
  2 17  1  0
 17 18  2  0
 18 19  1  0
 19 20  2  0
 20 21  1  0
 21 22  2  0
 16  4  2  0
 22 17  1  0
 14  9  1  0
  5 23  1  0
  6 24  1  0
  8 25  1  0
  8 26  1  0
 10 27  1  0
 11 28  1  0
 12 29  1  0
 13 30  1  0
 16 31  1  0
 18 32  1  0
 19 33  1  0
 20 34  1  0
 21 35  1  0
M  CHG  2   3  -1   6   1
M  END
>  <UniqueID>  (54) 
47

>  <SMILES>  (54) 
O=C([N-]c1c[nH+]n(Cc2ccccc2F)c1)c1ccccn1

>  <Energy>  (54) 
73.18869560847568

>  <Genealogy>  (54) 
O=C([N-]c1c[nH+]n(Cc2ccccc2F)c1)c1ccccn1 (protonated)
O=C([N-]c1c[nH+]n(Cc2ccccc2F)c1)c1ccccn1 (3D coordinates assigned)
O=C([N-]c1c[nH+]n(Cc2ccccc2F)c1)c1ccccn1 (optimized conformer: 73.18869560847568 kcal/mol)

>  <smiles>  (54) 
O=C(Nc1cnn(Cc2ccccc2F)c1)c1ccccn1

>  <score_type>  (54) 
oracle

>  <origin>  (54) 
adg

>  <m_score__min__energy>  (54) 
-7.8899999999999997

>  <m_primary>  (54) 
energy

$$$$
54:0
     RDKit          3D

 30 32  0  0  0  0  0  0  0  0999 V2000
   57.6523   21.3320   43.2906 H   0  0  0  0  0  0  0  0  0  0  0  0
   57.3620   22.2660   43.7940 C   0  0  0  0  0  0  0  0  0  0  0  0
   56.1560   22.8900   43.4670 C   0  0  0  0  0  0  0  0  0  0  0  0
   55.4969   22.4461   42.7064 H   0  0  0  0  0  0  0  0  0  0  0  0
   55.7850   24.0770   44.1040 C   0  0  0  0  0  0  0  0  0  0  0  0
   54.8344   24.5638   43.8405 H   0  0  0  0  0  0  0  0  0  0  0  0
   56.6190   24.6550   45.0810 C   0  0  0  0  0  0  0  0  0  0  0  0
   56.2280   25.9140   45.7600 C   0  0  0  0  0  0  0  0  0  0  0  0
   55.0100   26.1420   45.9950 O   0  0  0  0  0  0  0  0  0  0  0  0
   57.2400   26.8610   46.1450 N   0  0  0  0  0  0  0  0  0  0  0  0
   57.2730   28.1370   45.8930 C   0  0  0  0  0  0  0  0  0  0  0  0
   56.2730   28.7620   45.2340 N   0  0  0  0  0  0  0  0  0  0  0  0
   56.4830   30.0670   45.0750 N   0  0  0  0  0  0  0  0  0  0  0  0
   57.6590   30.5000   45.5880 C   0  0  0  0  0  0  0  0  0  0  0  0
   58.0620   31.9240   45.5960 C   0  0  0  0  0  0  0  0  0  0  0  0
   58.3140   32.5390   46.8360 C   0  0  0  0  0  0  0  0  0  0  0  0
   58.1924   31.9616   47.7644 H   0  0  0  0  0  0  0  0  0  0  0  0
   58.7170   33.8750   46.9010 C   0  0  0  0  0  0  0  0  0  0  0  0
   58.9162   34.3420   47.8768 H   0  0  0  0  0  0  0  0  0  0  0  0
   58.8670   34.6170   45.7300 C   0  0  0  0  0  0  0  0  0  0  0  0
   59.1938   35.6660   45.7821 H   0  0  0  0  0  0  0  0  0  0  0  0
   58.6030   34.0300   44.4930 C   0  0  0  0  0  0  0  0  0  0  0  0
   58.7150   34.6223   43.5728 H   0  0  0  0  0  0  0  0  0  0  0  0
   58.1960   32.6910   44.4130 C   0  0  0  0  0  0  0  0  0  0  0  0
   57.7870   32.0630   42.8200 Cl  0  0  0  0  0  0  0  0  0  0  0  0
   58.4920   29.2250   46.3190 S   0  0  0  0  0  0  0  0  0  0  0  0
   57.8330   24.0160   45.4010 C   0  0  0  0  0  0  0  0  0  0  0  0
   58.4976   24.4543   46.1601 H   0  0  0  0  0  0  0  0  0  0  0  0
   58.1990   22.8280   44.7600 C   0  0  0  0  0  0  0  0  0  0  0  0
   59.1482   22.3354   45.0174 H   0  0  0  0  0  0  0  0  0  0  0  0
  1  2  1  0
  2  3  2  0
  3  4  1  0
  3  5  1  0
  5  6  1  0
  5  7  2  0
  7  8  1  0
  8  9  2  0
  8 10  1  0
 10 11  2  0
 11 12  1  0
 12 13  1  0
 13 14  2  0
 14 15  1  0
 15 16  2  0
 16 17  1  0
 16 18  1  0
 18 19  1  0
 18 20  2  0
 20 21  1  0
 20 22  1  0
 22 23  1  0
 22 24  2  0
 24 25  1  0
 14 26  1  0
  7 27  1  0
 27 28  1  0
 27 29  2  0
 29 30  1  0
 29  2  1  0
 26 11  1  0
 24 15  1  0
M  CHG  1  12  -1
M  END
>  <UniqueID>  (55) 
48

>  <SMILES>  (55) 
O=C(/N=c1/[n-]nc(-c2ccccc2Cl)s1)c1ccccc1

>  <Energy>  (55) 
77.73478054175368

>  <Genealogy>  (55) 
O=C(N=c1[n-]nc(-c2ccccc2Cl)s1)c1ccccc1 (protonated)
O=C(/N=c1/[n-]nc(-c2ccccc2Cl)s1)c1ccccc1 (cis-trans isomerization)
O=C(/N=c1/[n-]nc(-c2ccccc2Cl)s1)c1ccccc1 (3D coordinates assigned)
O=C(/N=c1/[n-]nc(-c2ccccc2Cl)s1)c1ccccc1 (optimized conformer: 77.73478054175368 kcal/mol)

>  <smiles>  (55) 
O=C(N=c1[nH]nc(-c2ccccc2Cl)s1)c1ccccc1

>  <score_type>  (55) 
oracle

>  <origin>  (55) 
adg

>  <m_score__min__energy>  (55) 
-10.4

>  <m_primary>  (55) 
energy

$$$$
55:0
     RDKit          3D

 50 52  0  0  1  0  0  0  0  0999 V2000
   55.2860   25.3600   45.6430 C   0  0  0  0  0  0  0  0  0  0  0  0
   55.6850   26.6740   45.9360 O   0  0  0  0  0  0  0  0  0  0  0  0
   56.9980   27.0200   46.2140 C   0  0  0  0  0  0  0  0  0  0  0  0
   57.7690   26.3860   47.1650 C   0  0  0  0  0  0  0  0  0  0  0  0
   59.0780   26.7430   47.4310 C   0  0  0  0  0  0  0  0  0  0  0  0
   59.6110   27.7820   46.6980 C   0  0  0  0  0  0  0  0  0  0  0  0
   58.8690   28.4480   45.7290 C   0  0  0  0  0  0  0  0  0  0  0  0
   57.5740   28.0530   45.5070 C   0  0  0  0  0  0  0  0  0  0  0  0
   56.7690   28.7690   44.4630 C   0  0  0  0  0  0  0  0  0  0  0  0
   58.4120   33.9850   46.3030 N   0  0  0  0  0  0  0  0  0  0  0  0
   58.0850   33.1590   45.3900 C   0  0  0  0  0  0  0  0  0  0  0  0
   57.4310   31.4510   43.3730 C   0  0  0  0  0  0  0  0  0  0  0  0
   58.1420   32.6080   43.1410 C   0  0  0  0  0  0  0  0  0  0  0  0
   58.4760   33.4660   44.1220 N   0  0  0  0  0  0  0  0  0  0  0  0
   57.0470   31.1610   44.6670 C   0  0  0  0  0  0  0  0  0  0  0  0
   56.3910   30.0910   44.8680 N   0  0  0  0  0  0  0  0  0  0  0  0
   59.7890   34.2830   46.5400 C   0  0  0  0  0  0  0  0  0  0  0  0
   60.3860   33.3560   47.6100 C   0  0  0  0  0  0  0  0  0  0  0  0
   61.2450   32.3860   46.8870 C   0  0  0  0  0  0  0  0  0  0  0  0
   62.7030   32.4280   47.1300 C   0  0  0  0  0  0  0  0  0  0  0  0
   63.1980   33.7020   47.7640 C   0  0  0  0  0  0  0  0  0  0  0  0
   62.4000   33.8080   49.0650 C   0  0  0  0  0  0  0  0  0  0  0  0
   61.0100   34.2120   48.6380 C   0  0  0  0  0  0  0  0  0  0  0  0
   57.3860   32.0330   45.6600 N   0  0  0  0  0  0  0  0  0  0  0  0
   55.1189   24.8098   46.5808 H   0  0  0  0  0  0  0  0  0  0  0  0
   54.3538   25.3814   45.0594 H   0  0  0  0  0  0  0  0  0  0  0  0
   56.0726   24.8594   45.0594 H   0  0  0  0  0  0  0  0  0  0  0  0
   57.3229   25.5594   47.7376 H   0  0  0  0  0  0  0  0  0  0  0  0
   59.6700   26.2195   48.1962 H   0  0  0  0  0  0  0  0  0  0  0  0
   60.6498   28.0919   46.8846 H   0  0  0  0  0  0  0  0  0  0  0  0
   59.3109   29.2741   45.1526 H   0  0  0  0  0  0  0  0  0  0  0  0
   57.3686   28.8403   43.5435 H   0  0  0  0  0  0  0  0  0  0  0  0
   55.8455   28.1934   44.3020 H   0  0  0  0  0  0  0  0  0  0  0  0
   57.1749   30.7731   42.5454 H   0  0  0  0  0  0  0  0  0  0  0  0
   58.4495   32.8400   42.1106 H   0  0  0  0  0  0  0  0  0  0  0  0
   59.0120   34.3390   43.9420 H   0  0  0  0  0  0  0  0  0  0  0  0
   60.3496   34.1551   45.6022 H   0  0  0  0  0  0  0  0  0  0  0  0
   59.8623   35.3199   46.8997 H   0  0  0  0  0  0  0  0  0  0  0  0
   59.6726   32.7399   48.1770 H   0  0  0  0  0  0  0  0  0  0  0  0
   60.8980   31.3779   47.1577 H   0  0  0  0  0  0  0  0  0  0  0  0
   61.1369   32.6625   45.8278 H   0  0  0  0  0  0  0  0  0  0  0  0
   62.9642   31.5907   47.7938 H   0  0  0  0  0  0  0  0  0  0  0  0
   63.1849   32.3638   46.1433 H   0  0  0  0  0  0  0  0  0  0  0  0
   64.2765   33.6411   47.9716 H   0  0  0  0  0  0  0  0  0  0  0  0
   63.0608   34.5779   47.1128 H   0  0  0  0  0  0  0  0  0  0  0  0
   62.3784   32.8392   49.5855 H   0  0  0  0  0  0  0  0  0  0  0  0
   62.8442   34.5313   49.7647 H   0  0  0  0  0  0  0  0  0  0  0  0
   60.3644   34.1972   49.5285 H   0  0  0  0  0  0  0  0  0  0  0  0
   61.1124   35.2070   48.1803 H   0  0  0  0  0  0  0  0  0  0  0  0
   57.0950   31.8100   46.6310 H   0  0  0  0  0  0  0  0  0  0  0  0
  1  2  1  0
  2  3  1  0
  3  4  2  0
  4  5  1  0
  5  6  2  0
  6  7  1  0
  7  8  2  0
  8  9  1  0
  9 10  1  0
 10 11  2  0
 11 12  1  0
 12 13  2  0
 13 14  1  0
 14 15  1  0
 15 16  2  0
 16 17  1  0
 17 18  1  0
 18 19  1  0
 19 20  1  0
 20 21  1  0
 21 22  1  0
 22 23  1  0
 15 24  1  0
  8  3  1  0
 24 11  1  0
 23 18  1  0
  1 25  1  0
  1 26  1  0
  1 27  1  0
  4 28  1  0
  5 29  1  0
  6 30  1  0
  7 31  1  0
  9 32  1  0
  9 33  1  0
 12 34  1  0
 13 35  1  0
 14 36  1  0
 17 37  1  0
 17 38  1  0
 18 39  1  0
 19 40  1  0
 19 41  1  0
 20 42  1  0
 20 43  1  0
 21 44  1  0
 21 45  1  0
 22 46  1  0
 22 47  1  0
 23 48  1  0
 23 49  1  0
 24 50  1  0
M  END
>  <smiles>  (56) 
COc1ccccc1CN=c1cc[nH]c(=NCC2CCCCC2)[nH]1

>  <score_type>  (56) 
oracle

>  <origin>  (56) 
adg

>  <m_score__min__energy>  (56) 
-8.6600000000000001

>  <m_primary>  (56) 
energy

$$$$
56:0
     RDKit          3D

 50 53  0  0  0  0  0  0  0  0999 V2000
   58.1925   32.2872   49.3289 H   0  0  0  0  0  0  0  0  0  0  0  0
   58.9730   31.9060   48.6540 C   0  0  0  0  0  0  0  0  0  0  0  0
   59.0190   30.5810   48.3480 N   0  0  0  0  0  0  0  0  0  0  0  0
   59.9700   30.0740   47.5170 C   0  0  0  0  0  0  0  0  0  0  0  0
   59.9800   28.3230   47.1460 S   0  0  0  0  0  0  0  0  0  0  0  0
   58.3630   28.3920   46.3870 C   0  0  0  0  0  0  0  0  0  0  0  0
   57.5140   27.3400   46.5040 N   0  0  0  0  0  0  0  0  0  0  0  0
   56.2820   27.3900   45.9390 C   0  0  0  0  0  0  0  0  0  0  0  0
   55.4980   26.3550   46.0160 N   0  0  0  0  0  0  0  0  0  0  0  0
   55.8270   25.0190   45.5980 C   0  0  0  0  0  0  0  0  0  0  0  0
   57.1720   24.6790   45.4190 C   0  0  0  0  0  0  0  0  0  0  0  0
   57.9556   25.4237   45.6226 H   0  0  0  0  0  0  0  0  0  0  0  0
   57.5270   23.3990   44.9830 C   0  0  0  0  0  0  0  0  0  0  0  0
   58.5870   23.1492   44.8282 H   0  0  0  0  0  0  0  0  0  0  0  0
   56.5390   22.4290   44.7410 C   0  0  0  0  0  0  0  0  0  0  0  0
   56.9330   21.0540   44.2340 C   0  0  0  0  0  0  0  0  0  0  0  0
   57.9394   20.8292   44.6169 H   0  0  0  0  0  0  0  0  0  0  0  0
   55.9820   19.9740   44.7640 C   0  0  0  0  0  0  0  0  0  0  0  0
   55.9915   19.9848   45.8639 H   0  0  0  0  0  0  0  0  0  0  0  0
   54.9621   20.1748   44.4041 H   0  0  0  0  0  0  0  0  0  0  0  0
   56.3102   18.9877   44.4041 H   0  0  0  0  0  0  0  0  0  0  0  0
   56.9950   21.0320   42.7020 C   0  0  0  0  0  0  0  0  0  0  0  0
   57.9863   20.6802   42.3802 H   0  0  0  0  0  0  0  0  0  0  0  0
   56.2212   20.3536   42.3134 H   0  0  0  0  0  0  0  0  0  0  0  0
   56.8219   22.0464   42.3134 H   0  0  0  0  0  0  0  0  0  0  0  0
   55.1900   22.7600   44.9670 C   0  0  0  0  0  0  0  0  0  0  0  0
   54.4074   22.0046   44.8031 H   0  0  0  0  0  0  0  0  0  0  0  0
   54.8380   24.0410   45.3980 C   0  0  0  0  0  0  0  0  0  0  0  0
   53.7814   24.2855   45.5818 H   0  0  0  0  0  0  0  0  0  0  0  0
   55.9090   28.5010   45.2490 N   0  0  0  0  0  0  0  0  0  0  0  0
   56.7560   29.5560   45.1240 C   0  0  0  0  0  0  0  0  0  0  0  0
   56.4070   30.6160   44.4570 N   0  0  0  0  0  0  0  0  0  0  0  0
   57.3250   31.4490   43.6780 C   0  0  0  0  0  0  0  0  0  0  0  0
   58.2060   30.8510   43.4019 H   0  0  0  0  0  0  0  0  0  0  0  0
   56.7987   31.8011   42.7786 H   0  0  0  0  0  0  0  0  0  0  0  0
   57.7720   32.6440   44.4660 C   0  0  0  0  0  0  0  0  0  0  0  0
   58.7840   33.4130   44.1340 O   0  0  0  0  0  0  0  0  0  0  0  0
   58.8990   34.3610   45.0350 C   0  0  0  0  0  0  0  0  0  0  0  0
   59.6568   35.1582   45.0214 H   0  0  0  0  0  0  0  0  0  0  0  0
   57.9260   34.2070   46.0020 C   0  0  0  0  0  0  0  0  0  0  0  0
   57.7628   34.8448   46.8832 H   0  0  0  0  0  0  0  0  0  0  0  0
   57.2000   33.0920   45.6400 C   0  0  0  0  0  0  0  0  0  0  0  0
   56.3450   32.6520   46.1742 H   0  0  0  0  0  0  0  0  0  0  0  0
   57.9860   29.4970   45.6930 N   0  0  0  0  0  0  0  0  0  0  0  0
   60.9340   30.9200   46.9580 C   0  0  0  0  0  0  0  0  0  0  0  0
   61.7082   30.5160   46.2891 H   0  0  0  0  0  0  0  0  0  0  0  0
   60.9020   32.2830   47.2590 C   0  0  0  0  0  0  0  0  0  0  0  0
   61.6516   32.9612   46.8253 H   0  0  0  0  0  0  0  0  0  0  0  0
   59.9160   32.7830   48.1120 C   0  0  0  0  0  0  0  0  0  0  0  0
   59.8821   33.8554   48.3545 H   0  0  0  0  0  0  0  0  0  0  0  0
  1  2  1  0
  2  3  2  0
  3  4  1  0
  4  5  1  0
  5  6  1  0
  6  7  2  0
  7  8  1  0
  8  9  2  0
  9 10  1  0
 10 11  2  0
 11 12  1  0
 11 13  1  0
 13 14  1  0
 13 15  2  0
 15 16  1  0
 16 17  1  0
 16 18  1  0
 18 19  1  0
 18 20  1  0
 18 21  1  0
 16 22  1  0
 22 23  1  0
 22 24  1  0
 22 25  1  0
 15 26  1  0
 26 27  1  0
 26 28  2  0
 28 29  1  0
  8 30  1  0
 30 31  1  0
 31 32  2  0
 32 33  1  0
 33 34  1  0
 33 35  1  0
 33 36  1  0
 36 37  1  0
 37 38  1  0
 38 39  1  0
 38 40  2  0
 40 41  1  0
 40 42  1  0
 42 43  1  0
 31 44  1  0
  4 45  2  0
 45 46  1  0
 45 47  1  0
 47 48  1  0
 47 49  2  0
 49 50  1  0
 49  2  1  0
 44  6  1  0
 28 10  1  0
 42 36  2  0
M  CHG  2  30  -1  44  -1
M  END
>  <UniqueID>  (57) 
49

>  <SMILES>  (57) 
CC(C)c1ccc(/N=c2/nc(Sc3ccccn3)[n-]/c(=N/Cc3ccco3)[n-]2)cc1

>  <Energy>  (57) 
75.69873843874329

>  <Genealogy>  (57) 
CC(C)c1ccc(N=c2nc(Sc3ccccn3)[n-]c(=NCc3ccco3)[n-]2)cc1 (protonated)
CC(C)c1ccc(/N=c2/nc(Sc3ccccn3)[n-]/c(=N/Cc3ccco3)[n-]2)cc1 (cis-trans isomerization)
CC(C)c1ccc(/N=c2/nc(Sc3ccccn3)[n-]/c(=N/Cc3ccco3)[n-]2)cc1 (3D coordinates assigned)
CC(C)c1ccc(/N=c2/nc(Sc3ccccn3)[n-]/c(=N/Cc3ccco3)[n-]2)cc1 (optimized conformer: 75.69873843874329 kcal/mol)

>  <smiles>  (57) 
CC(C)c1ccc(N=c2nc(Sc3ccccn3)[nH]c(=NCc3ccco3)[nH]2)cc1

>  <score_type>  (57) 
oracle

>  <origin>  (57) 
adg

>  <m_score__min__energy>  (57) 
-12.15

>  <m_primary>  (57) 
energy

$$$$
57:0
     RDKit          3D

 26 28  0  0  0  0  0  0  0  0999 V2000
   61.2960   33.0290   47.4670 H   0  0  0  0  0  0  0  0  0  0  0  0
   60.3910   33.2500   47.9410 N   0  0  0  0  0  0  0  0  0  0  0  0
   59.2510   33.1620   47.3270 C   0  0  0  0  0  0  0  0  0  0  0  0
   58.7020   31.8480   46.9690 C   0  0  0  0  0  0  0  0  0  0  0  0
   58.6481   31.1089   47.7819 H   0  0  0  0  0  0  0  0  0  0  0  0
   58.2520   31.4340   45.7540 C   0  0  0  0  0  0  0  0  0  0  0  0
   57.9460   32.2760   44.6030 C   0  0  0  0  0  0  0  0  0  0  0  0
   57.3750   31.6660   43.4450 C   0  0  0  0  0  0  0  0  0  0  0  0
   57.1190   32.3001   42.5834 H   0  0  0  0  0  0  0  0  0  0  0  0
   57.1300   30.2940   43.3670 C   0  0  0  0  0  0  0  0  0  0  0  0
   56.6976   29.8477   42.4594 H   0  0  0  0  0  0  0  0  0  0  0  0
   57.4450   29.5140   44.4590 C   0  0  0  0  0  0  0  0  0  0  0  0
   57.9760   30.0480   45.6050 C   0  0  0  0  0  0  0  0  0  0  0  0
   58.1610   28.9700   46.4680 C   0  0  0  0  0  0  0  0  0  0  0  0
   58.5736   29.0034   47.4872 H   0  0  0  0  0  0  0  0  0  0  0  0
   57.7210   27.8470   45.7850 C   0  0  0  0  0  0  0  0  0  0  0  0
   57.7283   26.8240   46.1891 H   0  0  0  0  0  0  0  0  0  0  0  0
   57.2830   28.1850   44.5560 N   0  0  0  0  0  0  0  0  0  0  0  0
   56.9010   27.5380   43.8310 H   0  0  0  0  0  0  0  0  0  0  0  0
   58.0930   33.6250   44.5130 C   0  0  0  0  0  0  0  0  0  0  0  0
   57.6672   34.0929   43.6132 H   0  0  0  0  0  0  0  0  0  0  0  0
   58.7440   34.5370   45.4570 C   0  0  0  0  0  0  0  0  0  0  0  0
   59.5280   35.4210   45.0160 O   0  0  0  0  0  0  0  0  0  0  0  0
   58.5540   34.3980   46.9140 C   0  0  0  0  0  0  0  0  0  0  0  0
   58.9842   35.2659   47.4351 H   0  0  0  0  0  0  0  0  0  0  0  0
   57.4845   34.3474   47.1664 H   0  0  0  0  0  0  0  0  0  0  0  0
  1  2  1  0
  2  3  2  0
  3  4  1  0
  4  5  1  0
  4  6  2  0
  6  7  1  0
  7  8  1  0
  8  9  1  0
  8 10  2  0
 10 11  1  0
 10 12  1  0
 12 13  2  0
 13 14  1  0
 14 15  1  0
 14 16  2  0
 16 17  1  0
 16 18  1  0
 18 19  1  0
  7 20  2  0
 20 21  1  0
 20 22  1  0
 22 23  2  0
 22 24  1  0
 24 25  1  0
 24 26  1  0
 24  3  1  0
 13  6  1  0
 18 12  1  0
M  END
>  <UniqueID>  (58) 
50

>  <SMILES>  (58) 
[H]/N=C1\C=c2c(ccc3[nH]ccc23)=CC(=O)C1

>  <Energy>  (58) 
83.52680001798532

>  <Genealogy>  (58) 
[H]/N=C1\C=c2c(ccc3[nH]ccc23)=CC(=O)C1 (cis-trans isomerization)
[H]/N=C1\C=c2c(ccc3[nH]ccc23)=CC(=O)C1 (3D coordinates assigned)
[H]/N=C1\C=c2c(ccc3[nH]ccc23)=CC(=O)C1 (nonaromatic ring conformer: 83.52680001798532 kcal/mol)

>  <smiles>  (58) 
N=C1C=c2c(ccc3[nH]ccc23)=CC(=O)C1

>  <score_type>  (58) 
oracle

>  <origin>  (58) 
adg

>  <m_score__min__energy>  (58) 
-5.3399999999999999

>  <m_primary>  (58) 
energy

$$$$
58:0
     RDKit          3D

 44 46  0  0  0  0  0  0  0  0999 V2000
   58.5580   32.3710   45.4310 C   0  0  0  0  0  0  0  0  0  0  0  0
   59.4860   31.6880   46.3400 N   0  0  0  0  0  0  0  0  0  0  0  0
   59.8710   32.3570   47.5950 C   0  0  0  0  0  0  0  0  0  0  0  0
   61.3460   32.6980   47.6490 C   0  0  0  0  0  0  0  0  0  0  0  0
   61.9400   33.5910   46.7350 C   0  0  0  0  0  0  0  0  0  0  0  0
   63.3140   33.8460   46.7870 C   0  0  0  0  0  0  0  0  0  0  0  0
   64.1100   33.2070   47.7410 C   0  0  0  0  0  0  0  0  0  0  0  0
   63.5350   32.3070   48.6410 C   0  0  0  0  0  0  0  0  0  0  0  0
   62.1620   32.0490   48.5920 C   0  0  0  0  0  0  0  0  0  0  0  0
   59.7460   30.2810   46.1270 C   0  0  0  0  0  0  0  0  0  0  0  0
   60.9340   29.8930   45.9510 O   0  0  0  0  0  0  0  0  0  0  0  0
   58.6670   29.2660   46.1040 C   0  0  0  0  0  0  0  0  0  0  0  0
   57.5820   29.4200   45.2240 C   0  0  0  0  0  0  0  0  0  0  0  0
   56.5650   28.4630   45.1760 C   0  0  0  0  0  0  0  0  0  0  0  0
   56.6290   27.3190   45.9910 C   0  0  0  0  0  0  0  0  0  0  0  0
   55.5950   26.3240   45.9910 N   0  0  0  0  0  0  0  0  0  0  0  0
   55.7540   24.9240   46.2590 C   0  0  0  0  0  0  0  0  0  0  0  0
   55.5530   24.4740   47.4210 O   0  0  0  0  0  0  0  0  0  0  0  0
   56.1000   23.9930   45.1600 C   0  0  0  0  0  0  0  0  0  0  0  0
   57.3580   23.3680   45.1140 C   0  0  0  0  0  0  0  0  0  0  0  0
   57.6710   22.4940   44.0710 C   0  0  0  0  0  0  0  0  0  0  0  0
   56.7250   22.2510   43.0750 C   0  0  0  0  0  0  0  0  0  0  0  0
   55.5120   22.8600   43.1260 N   0  0  0  0  0  0  0  0  0  0  0  0
   55.1800   23.7160   44.1320 C   0  0  0  0  0  0  0  0  0  0  0  0
   57.7050   27.1680   46.8710 C   0  0  0  0  0  0  0  0  0  0  0  0
   58.7230   28.1240   46.9190 C   0  0  0  0  0  0  0  0  0  0  0  0
   57.8088   32.9224   46.0181 H   0  0  0  0  0  0  0  0  0  0  0  0
   59.1172   33.0746   44.7968 H   0  0  0  0  0  0  0  0  0  0  0  0
   58.0524   31.6279   44.7968 H   0  0  0  0  0  0  0  0  0  0  0  0
   59.2914   33.2871   47.6898 H   0  0  0  0  0  0  0  0  0  0  0  0
   59.6614   31.6602   48.4200 H   0  0  0  0  0  0  0  0  0  0  0  0
   61.3194   34.0903   45.9763 H   0  0  0  0  0  0  0  0  0  0  0  0
   63.7689   34.5509   46.0755 H   0  0  0  0  0  0  0  0  0  0  0  0
   65.1898   33.4128   47.7833 H   0  0  0  0  0  0  0  0  0  0  0  0
   64.1630   31.8008   49.3889 H   0  0  0  0  0  0  0  0  0  0  0  0
   61.7163   31.3321   49.2973 H   0  0  0  0  0  0  0  0  0  0  0  0
   57.5330   30.3013   44.5675 H   0  0  0  0  0  0  0  0  0  0  0  0
   55.7107   28.6052   44.4978 H   0  0  0  0  0  0  0  0  0  0  0  0
   58.0986   23.5681   45.9024 H   0  0  0  0  0  0  0  0  0  0  0  0
   58.6541   22.0018   44.0351 H   0  0  0  0  0  0  0  0  0  0  0  0
   56.9616   21.5657   42.2477 H   0  0  0  0  0  0  0  0  0  0  0  0
   54.1887   24.1927   44.1409 H   0  0  0  0  0  0  0  0  0  0  0  0
   57.7505   26.2892   47.5311 H   0  0  0  0  0  0  0  0  0  0  0  0
   59.5746   27.9808   47.6004 H   0  0  0  0  0  0  0  0  0  0  0  0
  1  2  1  0
  2  3  1  0
  3  4  1  0
  4  5  2  0
  5  6  1  0
  6  7  2  0
  7  8  1  0
  8  9  2  0
  2 10  1  0
 10 11  2  0
 10 12  1  0
 12 13  2  0
 13 14  1  0
 14 15  2  0
 15 16  1  0
 16 17  1  0
 17 18  2  0
 17 19  1  0
 19 20  2  0
 20 21  1  0
 21 22  2  0
 22 23  1  0
 23 24  2  0
 15 25  1  0
 25 26  2  0
  9  4  1  0
 26 12  1  0
 24 19  1  0
  1 27  1  0
  1 28  1  0
  1 29  1  0
  3 30  1  0
  3 31  1  0
  5 32  1  0
  6 33  1  0
  7 34  1  0
  8 35  1  0
  9 36  1  0
 13 37  1  0
 14 38  1  0
 20 39  1  0
 21 40  1  0
 22 41  1  0
 24 42  1  0
 25 43  1  0
 26 44  1  0
M  CHG  1  16  -1
M  END
>  <UniqueID>  (59) 
51

>  <SMILES>  (59) 
CN(Cc1ccccc1)C(=O)c1ccc([N-]C(=O)c2cccnc2)cc1

>  <Energy>  (59) 
57.23604738219151

>  <Genealogy>  (59) 
CN(Cc1ccccc1)C(=O)c1ccc([N-]C(=O)c2cccnc2)cc1 (protonated)
CN(Cc1ccccc1)C(=O)c1ccc([N-]C(=O)c2cccnc2)cc1 (3D coordinates assigned)
CN(Cc1ccccc1)C(=O)c1ccc([N-]C(=O)c2cccnc2)cc1 (optimized conformer: 57.23604738219151 kcal/mol)

>  <smiles>  (59) 
CN(Cc1ccccc1)C(=O)c1ccc(NC(=O)c2cccnc2)cc1

>  <score_type>  (59) 
oracle

>  <origin>  (59) 
adg

>  <m_score__min__energy>  (59) 
-10.380000000000001

>  <m_primary>  (59) 
energy

$$$$
59:0
     RDKit          3D

 36 38  0  0  0  0  0  0  0  0999 V2000
   57.4350   27.8820   54.7150 C   0  0  0  0  0  0  0  0  0  0  0  0
   56.4290   27.8180   53.7100 O   0  0  0  0  0  0  0  0  0  0  0  0
   55.8440   28.9370   53.0950 C   0  0  0  0  0  0  0  0  0  0  0  0
   54.4640   29.2020   53.1930 C   0  0  0  0  0  0  0  0  0  0  0  0
   53.9140   30.3560   52.6140 C   0  0  0  0  0  0  0  0  0  0  0  0
   52.4340   30.6120   52.6880 C   0  0  0  0  0  0  0  0  0  0  0  0
   51.8900   30.8800   51.3190 C   0  0  0  0  0  0  0  0  0  0  0  0
   51.8860   29.7770   50.0450 S   0  0  0  0  0  0  0  0  0  0  0  0
   51.0510   30.8280   49.0330 C   0  0  0  0  0  0  0  0  0  0  0  0
   50.7270   30.5600   47.8460 O   0  0  0  0  0  0  0  0  0  0  0  0
   50.7540   32.0010   49.6290 N   0  0  0  0  0  0  0  0  0  0  0  0
   51.2160   32.0270   50.9070 C   0  0  0  0  0  0  0  0  0  0  0  0
   51.0170   33.1280   51.7310 O   0  0  0  0  0  0  0  0  0  0  0  0
   54.7490   31.2440   51.9230 C   0  0  0  0  0  0  0  0  0  0  0  0
   56.1160   30.9860   51.8160 C   0  0  0  0  0  0  0  0  0  0  0  0
   56.6670   29.8280   52.3750 C   0  0  0  0  0  0  0  0  0  0  0  0
   58.0440   29.6090   52.2330 O   0  0  0  0  0  0  0  0  0  0  0  0
   58.8480   30.1650   51.2270 C   0  0  0  0  0  0  0  0  0  0  0  0
   59.3620   31.4730   51.3200 C   0  0  0  0  0  0  0  0  0  0  0  0
   60.1670   31.9870   50.2980 C   0  0  0  0  0  0  0  0  0  0  0  0
   60.4740   31.2000   49.1850 C   0  0  0  0  0  0  0  0  0  0  0  0
   59.9820   29.8950   49.0960 C   0  0  0  0  0  0  0  0  0  0  0  0
   59.1760   29.3790   50.1160 C   0  0  0  0  0  0  0  0  0  0  0  0
   56.9634   27.8520   55.7083 H   0  0  0  0  0  0  0  0  0  0  0  0
   58.1165   27.0254   54.6067 H   0  0  0  0  0  0  0  0  0  0  0  0
   58.0025   28.8181   54.6067 H   0  0  0  0  0  0  0  0  0  0  0  0
   53.8109   28.4974   53.7287 H   0  0  0  0  0  0  0  0  0  0  0  0
   51.9328   29.7297   53.1125 H   0  0  0  0  0  0  0  0  0  0  0  0
   52.2514   31.4890   53.3264 H   0  0  0  0  0  0  0  0  0  0  0  0
   54.3249   32.1486   51.4628 H   0  0  0  0  0  0  0  0  0  0  0  0
   56.7659   31.6991   51.2877 H   0  0  0  0  0  0  0  0  0  0  0  0
   59.1297   32.0922   52.1990 H   0  0  0  0  0  0  0  0  0  0  0  0
   60.5589   33.0122   50.3706 H   0  0  0  0  0  0  0  0  0  0  0  0
   61.1025   31.6074   48.3794 H   0  0  0  0  0  0  0  0  0  0  0  0
   60.2289   29.2730   48.2229 H   0  0  0  0  0  0  0  0  0  0  0  0
   58.7973   28.3487   50.0447 H   0  0  0  0  0  0  0  0  0  0  0  0
  1  2  1  0
  2  3  1  0
  3  4  2  0
  4  5  1  0
  5  6  1  0
  6  7  1  0
  7  8  1  0
  8  9  1  0
  9 10  2  0
  9 11  1  0
 11 12  1  0
 12 13  1  0
  5 14  2  0
 14 15  1  0
 15 16  2  0
 16 17  1  0
 17 18  1  0
 18 19  2  0
 19 20  1  0
 20 21  2  0
 21 22  1  0
 22 23  2  0
 16  3  1  0
 23 18  1  0
 12  7  2  0
  1 24  1  0
  1 25  1  0
  1 26  1  0
  4 27  1  0
  6 28  1  0
  6 29  1  0
 14 30  1  0
 15 31  1  0
 19 32  1  0
 20 33  1  0
 21 34  1  0
 22 35  1  0
 23 36  1  0
M  CHG  2  11  -1  13  -1
M  END
>  <UniqueID>  (60) 
52

>  <SMILES>  (60) 
COc1cc(Cc2sc(=O)[n-]c2[O-])ccc1Oc1ccccc1

>  <Energy>  (60) 
74.3196587244532

>  <Genealogy>  (60) 
COc1cc(Cc2sc(=O)[n-]c2[O-])ccc1Oc1ccccc1 (protonated)
COc1cc(Cc2sc(=O)[n-]c2[O-])ccc1Oc1ccccc1 (3D coordinates assigned)
COc1cc(Cc2sc(=O)[n-]c2[O-])ccc1Oc1ccccc1 (optimized conformer: 74.3196587244532 kcal/mol)

>  <smiles>  (60) 
COc1cc(Cc2sc(=O)[nH]c2O)ccc1Oc1ccccc1

>  <score_type>  (60) 
oracle

>  <origin>  (60) 
adg

>  <m_score__min__energy>  (60) 
-13.470000000000001

>  <m_primary>  (60) 
energy

$$$$
60:0
     RDKit          3D

 40 42  0  0  1  0  0  0  0  0999 V2000
   62.6580   33.6530   47.9530 C   0  0  0  0  0  0  0  0  0  0  0  0
   61.3030   33.3550   48.4000 N   0  0  0  0  0  0  0  0  0  0  0  0
   60.6550   34.2230   49.3530 C   0  0  0  0  0  0  0  0  0  0  0  0
   60.6240   32.2110   47.8960 C   0  0  0  0  0  0  0  0  0  0  0  0
   61.0200   31.5490   46.7570 C   0  0  0  0  0  0  0  0  0  0  0  0
   60.3540   30.4320   46.2680 C   0  0  0  0  0  0  0  0  0  0  0  0
   59.2450   29.9420   46.9300 C   0  0  0  0  0  0  0  0  0  0  0  0
   58.5310   28.7720   46.4350 C   0  0  0  0  0  0  0  0  0  0  0  0
   59.0240   27.5380   46.8090 C   0  0  0  0  0  0  0  0  0  0  0  0
   58.3520   26.4470   46.3420 N   0  0  0  0  0  0  0  0  0  0  0  0
   57.2670   26.5870   45.5600 C   0  0  0  0  0  0  0  0  0  0  0  0
   56.8180   27.7860   45.2190 N   0  0  0  0  0  0  0  0  0  0  0  0
   57.4060   28.9110   45.6250 C   0  0  0  0  0  0  0  0  0  0  0  0
   56.9800   30.0030   45.3030 N   0  0  0  0  0  0  0  0  0  0  0  0
   57.3090   31.0200   44.4800 C   0  0  0  0  0  0  0  0  0  0  0  0
   57.7840   32.3660   44.8960 C   0  0  0  0  0  0  0  0  0  0  0  0
   57.5320   32.9320   46.0800 C   0  0  0  0  0  0  0  0  0  0  0  0
   57.9810   34.1840   46.3540 C   0  0  0  0  0  0  0  0  0  0  0  0
   58.8610   34.7220   44.8700 S   0  0  0  0  0  0  0  0  0  0  0  0
   58.5210   33.1330   43.9860 C   0  0  0  0  0  0  0  0  0  0  0  0
   58.8520   30.6110   48.0720 C   0  0  0  0  0  0  0  0  0  0  0  0
   59.5130   31.7210   48.5600 C   0  0  0  0  0  0  0  0  0  0  0  0
   63.3095   33.7963   48.8277 H   0  0  0  0  0  0  0  0  0  0  0  0
   63.0365   32.8166   47.3470 H   0  0  0  0  0  0  0  0  0  0  0  0
   62.6506   34.5710   47.3470 H   0  0  0  0  0  0  0  0  0  0  0  0
   60.9001   33.8947   50.3738 H   0  0  0  0  0  0  0  0  0  0  0  0
   61.0051   35.2554   49.2059 H   0  0  0  0  0  0  0  0  0  0  0  0
   59.5657   34.1808   49.2059 H   0  0  0  0  0  0  0  0  0  0  0  0
   61.9002   31.9192   46.2109 H   0  0  0  0  0  0  0  0  0  0  0  0
   60.7103   29.9372   45.3525 H   0  0  0  0  0  0  0  0  0  0  0  0
   59.9124   27.4398   47.4502 H   0  0  0  0  0  0  0  0  0  0  0  0
   56.7431   25.6904   45.1971 H   0  0  0  0  0  0  0  0  0  0  0  0
   55.9910   27.8630   44.6240 H   0  0  0  0  0  0  0  0  0  0  0  0
   58.1048   30.6212   43.8338 H   0  0  0  0  0  0  0  0  0  0  0  0
   56.3102   31.2839   44.1020 H   0  0  0  0  0  0  0  0  0  0  0  0
   56.9569   32.3799   46.8379 H   0  0  0  0  0  0  0  0  0  0  0  0
   57.8387   34.7522   47.2851 H   0  0  0  0  0  0  0  0  0  0  0  0
   58.8302   32.8523   42.9683 H   0  0  0  0  0  0  0  0  0  0  0  0
   57.9713   30.2427   48.6186 H   0  0  0  0  0  0  0  0  0  0  0  0
   59.1567   32.2153   49.4758 H   0  0  0  0  0  0  0  0  0  0  0  0
  1  2  1  0
  2  3  1  0
  2  4  1  0
  4  5  2  0
  5  6  1  0
  6  7  2  0
  7  8  1  0
  8  9  2  0
  9 10  1  0
 10 11  2  0
 11 12  1  0
 12 13  1  0
 13 14  2  0
 14 15  1  0
 15 16  1  0
 16 17  1  0
 17 18  2  0
 18 19  1  0
 19 20  1  0
  7 21  1  0
 21 22  2  0
 22  4  1  0
 13  8  1  0
 20 16  2  0
  1 23  1  0
  1 24  1  0
  1 25  1  0
  3 26  1  0
  3 27  1  0
  3 28  1  0
  5 29  1  0
  6 30  1  0
  9 31  1  0
 11 32  1  0
 12 33  1  0
 15 34  1  0
 15 35  1  0
 17 36  1  0
 18 37  1  0
 20 38  1  0
 21 39  1  0
 22 40  1  0
M  END
>  <smiles>  (61) 
CN(C)c1ccc(-c2cnc[nH]c2=NCc2ccsc2)cc1

>  <score_type>  (61) 
oracle

>  <origin>  (61) 
adg

>  <m_score__min__energy>  (61) 
-6.6299999999999999

>  <m_primary>  (61) 
energy

$$$$
61:0
     RDKit          3D

 50 52  0  0  0  0  0  0  0  0999 V2000
   62.0050   31.0550   46.9180 H   0  0  0  0  0  0  0  0  0  0  0  0
   62.9910   31.0990   47.0220 O   0  0  0  0  0  0  0  0  0  0  0  0
   63.2510   32.1130   47.9540 C   0  0  0  0  0  0  0  0  0  0  0  0
   63.9350   32.8490   47.5063 H   0  0  0  0  0  0  0  0  0  0  0  0
   63.7078   31.6643   48.8484 H   0  0  0  0  0  0  0  0  0  0  0  0
   61.9420   32.8210   48.3650 C   0  0  2  0  0  0  0  0  0  0  0  0
   61.4441   32.2142   49.1356 H   0  0  0  0  0  0  0  0  0  0  0  0
   61.0700   32.9720   47.2020 N   0  0  0  0  0  0  0  0  0  0  0  0
   60.0170   32.3300   46.7670 C   0  0  0  0  0  0  0  0  0  0  0  0
   59.8440   31.0370   47.1330 N   0  0  0  0  0  0  0  0  0  0  0  0
   58.7570   30.6550   46.4550 C   0  0  0  0  0  0  0  0  0  0  0  0
   58.1720   29.3940   46.4560 C   0  0  0  0  0  0  0  0  0  0  0  0
   58.5654   28.5807   47.0835 H   0  0  0  0  0  0  0  0  0  0  0  0
   57.0570   29.2010   45.6220 C   0  0  0  0  0  0  0  0  0  0  0  0
   56.4800   28.0360   45.5870 N   0  0  0  0  0  0  0  0  0  0  0  0
   56.9680   26.8410   46.2750 C   0  0  0  0  0  0  0  0  0  0  0  0
   56.6536   26.8758   47.3286 H   0  0  0  0  0  0  0  0  0  0  0  0
   58.0656   26.8146   46.2081 H   0  0  0  0  0  0  0  0  0  0  0  0
   56.4120   25.6030   45.6340 C   0  0  0  0  0  0  0  0  0  0  0  0
   55.1420   25.2050   45.9230 N   0  0  0  0  0  0  0  0  0  0  0  0
   54.5790   24.1070   45.3480 C   0  0  0  0  0  0  0  0  0  0  0  0
   53.1700   23.7350   45.6800 C   0  0  0  0  0  0  0  0  0  0  0  0
   53.0471   23.7025   46.7726 H   0  0  0  0  0  0  0  0  0  0  0  0
   52.4837   24.4827   45.2559 H   0  0  0  0  0  0  0  0  0  0  0  0
   52.9422   22.7459   45.2559 H   0  0  0  0  0  0  0  0  0  0  0  0
   55.3080   23.3650   44.4090 C   0  0  0  0  0  0  0  0  0  0  0  0
   54.8586   22.4848   43.9260 H   0  0  0  0  0  0  0  0  0  0  0  0
   56.6110   23.7550   44.0930 C   0  0  0  0  0  0  0  0  0  0  0  0
   57.1971   23.1770   43.3633 H   0  0  0  0  0  0  0  0  0  0  0  0
   57.1690   24.8790   44.7040 C   0  0  0  0  0  0  0  0  0  0  0  0
   58.1939   25.1934   44.4575 H   0  0  0  0  0  0  0  0  0  0  0  0
   56.6000   30.2370   44.8490 N   0  0  0  0  0  0  0  0  0  0  0  0
   57.1830   31.4720   44.8580 C   0  0  0  0  0  0  0  0  0  0  0  0
   56.7975   32.2821   44.2215 H   0  0  0  0  0  0  0  0  0  0  0  0
   58.2840   31.6810   45.6980 C   0  0  0  0  0  0  0  0  0  0  0  0
   59.0500   32.7870   45.8900 N   0  0  0  0  0  0  0  0  0  0  0  0
   58.8170   34.1270   45.3000 C   0  0  0  0  0  0  0  0  0  0  0  0
   59.1729   34.0971   44.2596 H   0  0  0  0  0  0  0  0  0  0  0  0
   57.3230   34.4600   45.2510 C   0  0  0  0  0  0  0  0  0  0  0  0
   56.9329   34.5469   46.2758 H   0  0  0  0  0  0  0  0  0  0  0  0
   57.1769   35.4128   44.7210 H   0  0  0  0  0  0  0  0  0  0  0  0
   56.7861   33.6595   44.7210 H   0  0  0  0  0  0  0  0  0  0  0  0
   59.6430   35.2180   45.9990 C   0  0  0  0  0  0  0  0  0  0  0  0
   59.5553   35.1022   47.0894 H   0  0  0  0  0  0  0  0  0  0  0  0
   60.6986   35.1243   45.7040 H   0  0  0  0  0  0  0  0  0  0  0  0
   59.2664   36.2085   45.7040 H   0  0  0  0  0  0  0  0  0  0  0  0
   62.2570   34.2180   48.9090 C   0  0  0  0  0  0  0  0  0  0  0  0
   62.2514   34.1931   50.0087 H   0  0  0  0  0  0  0  0  0  0  0  0
   63.2490   34.5344   48.5545 H   0  0  0  0  0  0  0  0  0  0  0  0
   61.4968   34.9296   48.5545 H   0  0  0  0  0  0  0  0  0  0  0  0
  1  2  1  0
  2  3  1  0
  3  4  1  0
  3  5  1  0
  3  6  1  0
  6  7  1  1
  6  8  1  0
  8  9  2  0
  9 10  1  0
 10 11  1  0
 11 12  2  0
 12 13  1  0
 12 14  1  0
 14 15  2  0
 15 16  1  0
 16 17  1  0
 16 18  1  0
 16 19  1  0
 19 20  2  0
 20 21  1  0
 21 22  1  0
 22 23  1  0
 22 24  1  0
 22 25  1  0
 21 26  2  0
 26 27  1  0
 26 28  1  0
 28 29  1  0
 28 30  2  0
 30 31  1  0
 14 32  1  0
 32 33  1  0
 33 34  1  0
 33 35  2  0
 35 36  1  0
 36 37  1  0
 37 38  1  0
 37 39  1  0
 39 40  1  0
 39 41  1  0
 39 42  1  0
 37 43  1  0
 43 44  1  0
 43 45  1  0
 43 46  1  0
  6 47  1  0
 47 48  1  0
 47 49  1  0
 47 50  1  0
 36  9  1  0
 35 11  1  0
 30 19  1  0
M  CHG  2  10  -1  32  -1
M  END
>  <UniqueID>  (62) 
53

>  <SMILES>  (62) 
Cc1cccc(C/N=c2/cc3[n-]/c(=N/[C@H](C)CO)n(C(C)C)c3c[n-]2)n1

>  <Energy>  (62) 
97.12434265729874

>  <Genealogy>  (62) 
Cc1cccc(CN=c2cc3[n-]c(=NC(C)CO)n(C(C)C)c3c[n-]2)n1 (protonated)
Cc1cccc(CN=c2cc3[n-]c(=N[C@H](C)CO)n(C(C)C)c3c[n-]2)n1 (chirality)
Cc1cccc(C/N=c2/cc3[n-]/c(=N/[C@H](C)CO)n(C(C)C)c3c[n-]2)n1 (cis-trans isomerization)
Cc1cccc(C/N=c2/cc3[n-]/c(=N/[C@H](C)CO)n(C(C)C)c3c[n-]2)n1 (3D coordinates assigned)
Cc1cccc(C/N=c2/cc3[n-]/c(=N/[C@H](C)CO)n(C(C)C)c3c[n-]2)n1 (optimized conformer: 97.12434265729874 kcal/mol)

>  <smiles>  (62) 
Cc1cccc(CN=c2cc3[nH]c(=NC(C)CO)n(C(C)C)c3c[nH]2)n1

>  <score_type>  (62) 
oracle

>  <origin>  (62) 
adg

>  <m_score__min__energy>  (62) 
-11.77

>  <m_primary>  (62) 
energy

$$$$
62:0
     RDKit          3D

 43 45  0  0  0  0  0  0  0  0999 V2000
   55.3360   24.9850   46.3190 N   0  0  0  0  0  0  0  0  0  0  0  0
   56.2800   25.6380   46.1720 C   0  0  0  0  0  0  0  0  0  0  0  0
   57.4540   26.4520   45.9900 C   0  0  0  0  0  0  0  0  0  0  0  0
   58.7230   25.9110   46.2260 C   0  0  0  0  0  0  0  0  0  0  0  0
   59.8630   26.6960   46.0370 C   0  0  0  0  0  0  0  0  0  0  0  0
   59.7400   28.0240   45.6210 C   0  0  0  0  0  0  0  0  0  0  0  0
   58.4680   28.5850   45.4020 C   0  0  0  0  0  0  0  0  0  0  0  0
   58.3140   29.9410   44.9480 N   0  0  0  0  0  0  0  0  0  0  0  0
   57.0550   30.6320   44.8900 C   0  0  0  0  0  0  0  0  0  0  0  0
   55.9780   29.9820   44.8300 O   0  0  0  0  0  0  0  0  0  0  0  0
   57.0070   32.0610   44.7980 N   0  0  0  0  0  0  0  0  0  0  0  0
   57.8400   32.9770   45.5210 C   0  0  0  0  0  0  0  0  0  0  0  0
   58.4650   34.0640   44.8870 C   0  0  0  0  0  0  0  0  0  0  0  0
   59.2880   34.9250   45.6170 C   0  0  0  0  0  0  0  0  0  0  0  0
   59.5040   34.7030   46.9780 C   0  0  0  0  0  0  0  0  0  0  0  0
   58.8990   33.6120   47.6220 C   0  0  0  0  0  0  0  0  0  0  0  0
   59.1380   33.3750   49.0900 C   0  0  0  0  0  0  0  0  0  0  0  0
   60.3350   32.5590   49.2930 N   0  0  0  0  0  0  0  0  0  0  0  0
   61.5660   32.7230   48.5620 C   0  0  0  0  0  0  0  0  0  0  0  0
   62.2240   33.9640   48.5960 C   0  0  0  0  0  0  0  0  0  0  0  0
   63.4260   34.1500   47.9080 C   0  0  0  0  0  0  0  0  0  0  0  0
   63.9810   33.1010   47.1720 C   0  0  0  0  0  0  0  0  0  0  0  0
   63.3330   31.8650   47.1220 C   0  0  0  0  0  0  0  0  0  0  0  0
   62.1310   31.6730   47.8100 C   0  0  0  0  0  0  0  0  0  0  0  0
   58.0830   32.7400   46.8800 C   0  0  0  0  0  0  0  0  0  0  0  0
   57.3290   27.7830   45.5730 C   0  0  0  0  0  0  0  0  0  0  0  0
   58.8227   24.8678   46.5603 H   0  0  0  0  0  0  0  0  0  0  0  0
   60.8601   26.2674   46.2162 H   0  0  0  0  0  0  0  0  0  0  0  0
   60.6417   28.6341   45.4639 H   0  0  0  0  0  0  0  0  0  0  0  0
   59.1520   30.4280   44.5580 H   0  0  0  0  0  0  0  0  0  0  0  0
   58.3058   34.2376   43.8125 H   0  0  0  0  0  0  0  0  0  0  0  0
   59.7671   35.7802   45.1179 H   0  0  0  0  0  0  0  0  0  0  0  0
   60.1510   35.3857   47.5484 H   0  0  0  0  0  0  0  0  0  0  0  0
   59.2707   34.3430   49.5953 H   0  0  0  0  0  0  0  0  0  0  0  0
   58.2713   32.8423   49.5083 H   0  0  0  0  0  0  0  0  0  0  0  0
   60.2640   31.7700   49.9770 H   0  0  0  0  0  0  0  0  0  0  0  0
   61.7893   34.7962   49.1691 H   0  0  0  0  0  0  0  0  0  0  0  0
   63.9357   35.1240   47.9462 H   0  0  0  0  0  0  0  0  0  0  0  0
   64.9280   33.2482   46.6320 H   0  0  0  0  0  0  0  0  0  0  0  0
   63.7694   31.0401   46.5397 H   0  0  0  0  0  0  0  0  0  0  0  0
   61.6238   30.6980   47.7642 H   0  0  0  0  0  0  0  0  0  0  0  0
   57.6319   31.8648   47.3705 H   0  0  0  0  0  0  0  0  0  0  0  0
   56.3311   28.2029   45.3781 H   0  0  0  0  0  0  0  0  0  0  0  0
  1  2  3  0
  2  3  1  0
  3  4  2  0
  4  5  1  0
  5  6  2  0
  6  7  1  0
  7  8  1  0
  8  9  1  0
  9 10  2  0
  9 11  1  0
 11 12  1  0
 12 13  2  0
 13 14  1  0
 14 15  2  0
 15 16  1  0
 16 17  1  0
 17 18  1  0
 18 19  1  0
 19 20  2  0
 20 21  1  0
 21 22  2  0
 22 23  1  0
 23 24  2  0
 16 25  2  0
  7 26  2  0
 26  3  1  0
 25 12  1  0
 24 19  1  0
  4 27  1  0
  5 28  1  0
  6 29  1  0
  8 30  1  0
 13 31  1  0
 14 32  1  0
 15 33  1  0
 17 34  1  0
 17 35  1  0
 18 36  1  0
 20 37  1  0
 21 38  1  0
 22 39  1  0
 23 40  1  0
 24 41  1  0
 25 42  1  0
 26 43  1  0
M  CHG  1  11  -1
M  END
>  <UniqueID>  (63) 
54

>  <SMILES>  (63) 
N#Cc1cccc(NC(=O)[N-]c2cccc(CNc3ccccc3)c2)c1

>  <Energy>  (63) 
50.847533866971595

>  <Genealogy>  (63) 
N#Cc1cccc(NC(=O)[N-]c2cccc(CNc3ccccc3)c2)c1 (protonated)
N#Cc1cccc(NC(=O)[N-]c2cccc(CNc3ccccc3)c2)c1 (3D coordinates assigned)
N#Cc1cccc(NC(=O)[N-]c2cccc(CNc3ccccc3)c2)c1 (optimized conformer: 50.847533866971595 kcal/mol)

>  <smiles>  (63) 
N#Cc1cccc(NC(=O)Nc2cccc(CNc3ccccc3)c2)c1

>  <score_type>  (63) 
oracle

>  <origin>  (63) 
adg

>  <m_score__min__energy>  (63) 
-10.609999999999999

>  <m_primary>  (63) 
energy

$$$$
63:0
     RDKit          3D

 35 37  0  0  1  0  0  0  0  0999 V2000
   63.7990   33.3420   46.7550 N   0  0  0  0  0  0  0  0  0  0  0  0
   62.6340   33.4350   47.5900 C   0  0  0  0  0  0  0  0  0  0  0  0
   62.6460   34.2720   48.5250 O   0  0  0  0  0  0  0  0  0  0  0  0
   61.4780   32.5950   47.3710 C   0  0  0  0  0  0  0  0  0  0  0  0
   61.4350   31.3520   47.9640 C   0  0  0  0  0  0  0  0  0  0  0  0
   60.3650   30.5090   47.7940 C   0  0  0  0  0  0  0  0  0  0  0  0
   59.3150   30.9450   47.0030 C   0  0  0  0  0  0  0  0  0  0  0  0
   59.3080   32.1820   46.3850 C   0  0  0  0  0  0  0  0  0  0  0  0
   58.2390   32.5970   45.5940 C   0  0  0  0  0  0  0  0  0  0  0  0
   57.2280   31.8580   45.4080 N   0  0  0  0  0  0  0  0  0  0  0  0
   57.0720   30.9700   44.2920 C   0  0  0  0  0  0  0  0  0  0  0  0
   57.6410   29.6080   44.6130 C   0  0  0  0  0  0  0  0  0  0  0  0
   58.9840   29.3330   44.4470 C   0  0  0  0  0  0  0  0  0  0  0  0
   59.4730   28.0720   44.7530 C   0  0  0  0  0  0  0  0  0  0  0  0
   58.6370   27.0740   45.2270 C   0  0  0  0  0  0  0  0  0  0  0  0
   57.2940   27.3340   45.3970 C   0  0  0  0  0  0  0  0  0  0  0  0
   56.2570   26.0550   45.9950 Cl  0  0  0  0  0  0  0  0  0  0  0  0
   56.8330   28.5910   45.0880 C   0  0  0  0  0  0  0  0  0  0  0  0
   55.5220   28.8770   45.2430 F   0  0  0  0  0  0  0  0  0  0  0  0
   58.3490   33.8170   45.0470 N   0  0  0  0  0  0  0  0  0  0  0  0
   59.4340   34.5920   45.2580 C   0  0  0  0  0  0  0  0  0  0  0  0
   60.4750   34.2060   46.0210 N   0  0  0  0  0  0  0  0  0  0  0  0
   60.4160   32.9930   46.5910 C   0  0  0  0  0  0  0  0  0  0  0  0
   63.9380   34.0670   45.9910 H   0  0  0  0  0  0  0  0  0  0  0  0
   64.5130   32.6120   46.8500 H   0  0  0  0  0  0  0  0  0  0  0  0
   62.2795   31.0269   48.5895 H   0  0  0  0  0  0  0  0  0  0  0  0
   60.3422   29.5181   48.2711 H   0  0  0  0  0  0  0  0  0  0  0  0
   58.4507   30.2796   46.8605 H   0  0  0  0  0  0  0  0  0  0  0  0
   56.0021   30.8687   44.0574 H   0  0  0  0  0  0  0  0  0  0  0  0
   57.6129   31.3861   43.4293 H   0  0  0  0  0  0  0  0  0  0  0  0
   59.6642   30.1123   44.0729 H   0  0  0  0  0  0  0  0  0  0  0  0
   60.5438   27.8603   44.6170 H   0  0  0  0  0  0  0  0  0  0  0  0
   59.0426   26.0799   45.4663 H   0  0  0  0  0  0  0  0  0  0  0  0
   57.6130   34.2180   44.4410 H   0  0  0  0  0  0  0  0  0  0  0  0
   59.4697   35.5845   44.7851 H   0  0  0  0  0  0  0  0  0  0  0  0
  1  2  1  0
  2  3  2  0
  2  4  1  0
  4  5  2  0
  5  6  1  0
  6  7  2  0
  7  8  1  0
  8  9  1  0
  9 10  2  0
 10 11  1  0
 11 12  1  0
 12 13  2  0
 13 14  1  0
 14 15  2  0
 15 16  1  0
 16 17  1  0
 16 18  2  0
 18 19  1  0
  9 20  1  0
 20 21  1  0
 21 22  2  0
 22 23  1  0
 23  4  1  0
 23  8  2  0
 18 12  1  0
  1 24  1  0
  1 25  1  0
  5 26  1  0
  6 27  1  0
  7 28  1  0
 11 29  1  0
 11 30  1  0
 13 31  1  0
 14 32  1  0
 15 33  1  0
 20 34  1  0
 21 35  1  0
M  END
>  <smiles>  (64) 
NC(=O)c1cccc2c(=NCc3cccc(Cl)c3F)[nH]cnc12

>  <score_type>  (64) 
oracle

>  <origin>  (64) 
adg

>  <m_score__min__energy>  (64) 
-8.0700000000000003

>  <m_primary>  (64) 
energy

$$$$
64:0
     RDKit          3D

 28 30  0  0  0  0  0  0  0  0999 V2000
   61.3140   28.5910   44.7680 N   0  0  0  0  0  0  0  0  0  0  0  0
   60.0280   28.6180   44.8250 C   0  0  0  0  0  0  0  0  0  0  0  0
   59.3490   29.7380   44.5060 N   0  0  0  0  0  0  0  0  0  0  0  0
   58.0210   29.8650   44.5350 C   0  0  0  0  0  0  0  0  0  0  0  0
   57.2540   28.7880   44.9180 C   0  0  0  0  0  0  0  0  0  0  0  0
   55.9730   29.1990   44.8590 N   0  0  0  0  0  0  0  0  0  0  0  0
   55.9630   30.4960   44.4500 C   0  0  0  0  0  0  0  0  0  0  0  0
   57.2010   30.9150   44.2500 N   0  0  0  0  0  0  0  0  0  0  0  0
   57.7400   32.1900   43.8190 C   0  0  0  0  0  0  0  0  0  0  0  0
   58.2140   32.9290   45.0220 C   0  0  0  0  0  0  0  0  0  0  0  0
   57.6930   32.5530   46.2330 C   0  0  0  0  0  0  0  0  0  0  0  0
   58.0550   33.1950   47.4200 C   0  0  0  0  0  0  0  0  0  0  0  0
   58.9680   34.2310   47.3020 C   0  0  0  0  0  0  0  0  0  0  0  0
   59.5090   34.6330   46.1080 C   0  0  0  0  0  0  0  0  0  0  0  0
   59.1260   33.9720   44.9460 C   0  0  0  0  0  0  0  0  0  0  0  0
   59.6430   34.3400   43.7400 F   0  0  0  0  0  0  0  0  0  0  0  0
   57.9140   27.6280   45.2500 C   0  0  0  0  0  0  0  0  0  0  0  0
   56.9680   26.2230   45.7500 Cl  0  0  0  0  0  0  0  0  0  0  0  0
   59.2760   27.5600   45.2000 N   0  0  0  0  0  0  0  0  0  0  0  0
   61.7490   28.2190   43.9030 H   0  0  0  0  0  0  0  0  0  0  0  0
   55.0589   31.1061   44.3068 H   0  0  0  0  0  0  0  0  0  0  0  0
   58.5807   32.0242   43.1293 H   0  0  0  0  0  0  0  0  0  0  0  0
   56.9654   32.7719   43.2980 H   0  0  0  0  0  0  0  0  0  0  0  0
   56.9709   31.7240   46.2712 H   0  0  0  0  0  0  0  0  0  0  0  0
   57.6389   32.8951   48.3931 H   0  0  0  0  0  0  0  0  0  0  0  0
   59.2754   34.7597   48.2163 H   0  0  0  0  0  0  0  0  0  0  0  0
   60.2314   35.4617   46.0700 H   0  0  0  0  0  0  0  0  0  0  0  0
   59.7940   26.6850   45.4510 H   0  0  0  0  0  0  0  0  0  0  0  0
  1  2  2  3
  2  3  1  0
  3  4  2  0
  4  5  1  0
  5  6  1  0
  6  7  2  0
  7  8  1  0
  8  9  1  0
  9 10  1  0
 10 11  2  0
 11 12  1  0
 12 13  2  0
 13 14  1  0
 14 15  2  0
 15 16  1  0
  5 17  2  0
 17 18  1  0
 17 19  1  0
 19  2  1  0
  8  4  1  0
 15 10  1  0
  1 20  1  0
  7 21  1  0
  9 22  1  0
  9 23  1  0
 11 24  1  0
 12 25  1  0
 13 26  1  0
 14 27  1  0
 19 28  1  0
M  END
>  <smiles>  (65) 
N=c1nc2c(ncn2Cc2ccccc2F)c(Cl)[nH]1

>  <score_type>  (65) 
oracle

>  <origin>  (65) 
adg

>  <m_score__min__energy>  (65) 
-7.0800000000000001

>  <m_primary>  (65) 
energy

$$$$
65:0
     RDKit          3D

 40 41  0  0  0  0  0  0  0  0999 V2000
   57.7530   31.9660   42.2780 C   0  0  0  0  0  0  0  0  0  0  0  0
   57.0950   31.8860   43.5880 N   0  0  0  0  0  0  0  0  0  0  0  0
   57.9160   32.5610   44.6000 C   0  0  0  0  0  0  0  0  0  0  0  0
   56.8830   30.2130   44.0390 S   0  0  0  0  0  0  0  0  0  0  0  0
   56.8570   29.3530   42.8070 O   0  0  0  0  0  0  0  0  0  0  0  0
   55.5830   30.0530   44.7780 O   0  0  0  0  0  0  0  0  0  0  0  0
   58.2170   29.6740   45.0570 C   0  0  0  0  0  0  0  0  0  0  0  0
   59.3230   29.0300   44.4860 C   0  0  0  0  0  0  0  0  0  0  0  0
   60.3540   28.5530   45.3000 C   0  0  0  0  0  0  0  0  0  0  0  0
   60.2790   28.7030   46.6870 C   0  0  0  0  0  0  0  0  0  0  0  0
   59.1840   29.3530   47.2670 C   0  0  0  0  0  0  0  0  0  0  0  0
   59.0850   29.4470   48.6920 N   0  0  0  0  0  0  0  0  0  0  0  0
   59.3630   30.6510   49.4180 C   0  0  0  0  0  0  0  0  0  0  0  0
   58.5190   30.9440   50.7970 S   0  0  0  0  0  0  0  0  0  0  0  0
   60.5640   31.4030   49.1450 N   0  0  0  0  0  0  0  0  0  0  0  0
   60.3170   32.4620   48.1960 C   0  0  0  0  0  0  0  0  0  0  0  0
   59.1270   33.2140   48.2660 C   0  0  0  0  0  0  0  0  0  0  0  0
   58.9000   34.2680   47.3760 C   0  0  0  0  0  0  0  0  0  0  0  0
   59.8650   34.5980   46.4230 C   0  0  0  0  0  0  0  0  0  0  0  0
   59.6480   35.6260   45.5680 F   0  0  0  0  0  0  0  0  0  0  0  0
   61.0550   33.8700   46.3520 C   0  0  0  0  0  0  0  0  0  0  0  0
   61.2840   32.8060   47.2280 C   0  0  0  0  0  0  0  0  0  0  0  0
   62.4490   32.1170   47.1310 F   0  0  0  0  0  0  0  0  0  0  0  0
   58.1470   29.8270   46.4490 C   0  0  0  0  0  0  0  0  0  0  0  0
   58.8359   32.0977   42.4191 H   0  0  0  0  0  0  0  0  0  0  0  0
   57.5664   31.0386   41.7167 H   0  0  0  0  0  0  0  0  0  0  0  0
   57.3496   32.8217   41.7167 H   0  0  0  0  0  0  0  0  0  0  0  0
   57.5687   32.2755   45.6039 H   0  0  0  0  0  0  0  0  0  0  0  0
   58.9677   32.2630   44.4773 H   0  0  0  0  0  0  0  0  0  0  0  0
   57.8269   33.6505   44.4773 H   0  0  0  0  0  0  0  0  0  0  0  0
   59.3797   28.8997   43.3952 H   0  0  0  0  0  0  0  0  0  0  0  0
   61.2263   28.0585   44.8478 H   0  0  0  0  0  0  0  0  0  0  0  0
   61.0835   28.3088   47.3253 H   0  0  0  0  0  0  0  0  0  0  0  0
   58.8080   28.5930   49.2250 H   0  0  0  0  0  0  0  0  0  0  0  0
   61.2940   30.7410   48.8010 H   0  0  0  0  0  0  0  0  0  0  0  0
   60.9330   31.8310   50.0270 H   0  0  0  0  0  0  0  0  0  0  0  0
   58.3710   32.9697   49.0268 H   0  0  0  0  0  0  0  0  0  0  0  0
   57.9603   34.8376   47.4268 H   0  0  0  0  0  0  0  0  0  0  0  0
   61.8154   34.1357   45.6029 H   0  0  0  0  0  0  0  0  0  0  0  0
   57.2749   30.3210   46.9021 H   0  0  0  0  0  0  0  0  0  0  0  0
  1  2  1  0
  2  3  1  0
  2  4  1  0
  4  5  2  0
  4  6  2  0
  4  7  1  0
  7  8  2  0
  8  9  1  0
  9 10  2  0
 10 11  1  0
 11 12  1  0
 12 13  1  0
 13 14  2  0
 13 15  1  0
 15 16  1  0
 16 17  2  0
 17 18  1  0
 18 19  2  0
 19 20  1  0
 19 21  1  0
 21 22  2  0
 22 23  1  0
 11 24  2  0
 24  7  1  0
 22 16  1  0
  1 25  1  0
  1 26  1  0
  1 27  1  0
  3 28  1  0
  3 29  1  0
  3 30  1  0
  8 31  1  0
  9 32  1  0
 10 33  1  0
 12 34  1  0
 15 35  1  0
 15 36  1  0
 17 37  1  0
 18 38  1  0
 21 39  1  0
 24 40  1  0
M  CHG  1  15   1
M  END
>  <UniqueID>  (66) 
55

>  <SMILES>  (66) 
CN(C)S(=O)(=O)c1cccc(NC(=S)[NH2+]c2ccc(F)cc2F)c1

>  <Energy>  (66) 
44.18219313129604

>  <Genealogy>  (66) 
CN(C)S(=O)(=O)c1cccc(NC(=S)[NH2+]c2ccc(F)cc2F)c1 (protonated)
CN(C)S(=O)(=O)c1cccc(NC(=S)[NH2+]c2ccc(F)cc2F)c1 (3D coordinates assigned)
CN(C)S(=O)(=O)c1cccc(NC(=S)[NH2+]c2ccc(F)cc2F)c1 (optimized conformer: 44.18219313129604 kcal/mol)

>  <smiles>  (66) 
CN(C)S(=O)(=O)c1cccc(NC(=S)Nc2ccc(F)cc2F)c1

>  <score_type>  (66) 
oracle

>  <origin>  (66) 
adg

>  <m_score__min__energy>  (66) 
-6.6100000000000003

>  <m_primary>  (66) 
energy

$$$$
66:0
     RDKit          3D

 41 43  0  0  0  0  0  0  0  0999 V2000
   56.6803   31.6999   40.9196 H   0  0  0  0  0  0  0  0  0  0  0  0
   57.0370   31.5700   41.9520 C   0  0  0  0  0  0  0  0  0  0  0  0
   57.7290   32.5670   42.5620 N   0  0  0  0  0  0  0  0  0  0  0  0
   58.1850   32.4580   43.8400 C   0  0  0  0  0  0  0  0  0  0  0  0
   59.1250   33.8300   44.5210 S   0  0  0  0  0  0  0  0  0  0  0  0
   57.6920   34.5370   45.3930 C   0  0  0  0  0  0  0  0  0  0  0  0
   57.8489   34.4596   46.4790 H   0  0  0  0  0  0  0  0  0  0  0  0
   57.5780   35.5948   45.1135 H   0  0  0  0  0  0  0  0  0  0  0  0
   56.7832   33.9839   45.1135 H   0  0  0  0  0  0  0  0  0  0  0  0
   57.9550   31.2660   44.5650 C   0  0  0  0  0  0  0  0  0  0  0  0
   58.4390   31.0720   45.9530 C   0  0  0  0  0  0  0  0  0  0  0  0
   58.3290   32.0100   46.7870 O   0  0  0  0  0  0  0  0  0  0  0  0
   58.9740   29.8050   46.3810 N   0  0  0  0  0  0  0  0  0  0  0  0
   58.7600   29.3700   47.7680 C   0  0  0  0  0  0  0  0  0  0  0  0
   59.3835   29.9832   48.4353 H   0  0  0  0  0  0  0  0  0  0  0  0
   57.6934   29.4920   48.0077 H   0  0  0  0  0  0  0  0  0  0  0  0
   59.1310   27.8910   47.9570 C   0  0  0  0  0  0  0  0  0  0  0  0
   60.2186   27.8072   48.0992 H   0  0  0  0  0  0  0  0  0  0  0  0
   58.5989   27.5036   48.8384 H   0  0  0  0  0  0  0  0  0  0  0  0
   58.7170   27.0620   46.7260 C   0  0  0  0  0  0  0  0  0  0  0  0
   58.9908   26.0145   46.9205 H   0  0  0  0  0  0  0  0  0  0  0  0
   57.2700   27.1550   46.5070 N   0  0  0  0  0  0  0  0  0  0  0  0
   56.5020   26.1780   46.1230 C   0  0  0  0  0  0  0  0  0  0  0  0
   55.1510   26.3360   46.0320 N   0  0  0  0  0  0  0  0  0  0  0  0
   54.3560   25.3380   45.6410 N   0  0  0  0  0  0  0  0  0  0  0  0
   54.8580   24.1180   45.3170 C   0  0  0  0  0  0  0  0  0  0  0  0
   54.1856   23.3085   44.9967 H   0  0  0  0  0  0  0  0  0  0  0  0
   56.2330   23.9010   45.3940 C   0  0  0  0  0  0  0  0  0  0  0  0
   56.6566   22.9193   45.1354 H   0  0  0  0  0  0  0  0  0  0  0  0
   57.0640   24.9410   45.8020 C   0  0  0  0  0  0  0  0  0  0  0  0
   58.1514   24.7896   45.8707 H   0  0  0  0  0  0  0  0  0  0  0  0
   59.4580   27.5490   45.4570 C   0  0  0  0  0  0  0  0  0  0  0  0
   60.3646   26.9393   45.3289 H   0  0  0  0  0  0  0  0  0  0  0  0
   58.7578   27.4424   44.6154 H   0  0  0  0  0  0  0  0  0  0  0  0
   59.8730   29.0320   45.5120 C   0  0  0  0  0  0  0  0  0  0  0  0
   60.8986   29.1031   45.9033 H   0  0  0  0  0  0  0  0  0  0  0  0
   59.8155   29.4472   44.4950 H   0  0  0  0  0  0  0  0  0  0  0  0
   57.2390   30.2330   43.9420 C   0  0  0  0  0  0  0  0  0  0  0  0
   57.0392   29.2994   44.4883 H   0  0  0  0  0  0  0  0  0  0  0  0
   56.7790   30.3830   42.6340 C   0  0  0  0  0  0  0  0  0  0  0  0
   56.2182   29.5723   42.1458 H   0  0  0  0  0  0  0  0  0  0  0  0
  1  2  1  0
  2  3  2  0
  3  4  1  0
  4  5  1  0
  5  6  1  0
  6  7  1  0
  6  8  1  0
  6  9  1  0
  4 10  2  0
 10 11  1  0
 11 12  2  0
 11 13  1  0
 13 14  1  0
 14 15  1  0
 14 16  1  0
 14 17  1  0
 17 18  1  0
 17 19  1  0
 17 20  1  0
 20 21  1  0
 20 22  1  0
 22 23  2  0
 23 24  1  0
 24 25  1  0
 25 26  2  0
 26 27  1  0
 26 28  1  0
 28 29  1  0
 28 30  2  0
 30 31  1  0
 20 32  1  0
 32 33  1  0
 32 34  1  0
 32 35  1  0
 35 36  1  0
 35 37  1  0
 10 38  1  0
 38 39  1  0
 38 40  2  0
 40 41  1  0
 40  2  1  0
 35 13  1  0
 30 23  1  0
M  CHG  1  24  -1
M  END
>  <UniqueID>  (67) 
56

>  <SMILES>  (67) 
CSc1ncccc1C(=O)N1CCC(/N=c2/cccn[n-]2)CC1

>  <Energy>  (67) 
49.325683796407844

>  <Genealogy>  (67) 
CSc1ncccc1C(=O)N1CCC(N=c2cccn[n-]2)CC1 (protonated)
CSc1ncccc1C(=O)N1CCC(/N=c2/cccn[n-]2)CC1 (cis-trans isomerization)
CSc1ncccc1C(=O)N1CCC(/N=c2/cccn[n-]2)CC1 (3D coordinates assigned)
CSc1ncccc1C(=O)N1CCC(/N=c2/cccn[n-]2)CC1 (nonaromatic ring conformer: 49.325683796407844 kcal/mol)

>  <smiles>  (67) 
CSc1ncccc1C(=O)N1CCC(N=c2cccn[nH]2)CC1

>  <score_type>  (67) 
oracle

>  <origin>  (67) 
adg

>  <m_score__min__energy>  (67) 
-9.7899999999999991

>  <m_primary>  (67) 
energy

$$$$
67:0
     RDKit          3D

 27 28  0  0  0  0  0  0  0  0999 V2000
   55.5270   29.7200   43.8000 C   0  0  0  0  0  0  0  0  0  0  0  0
   55.5240   28.8000   44.8870 O   0  0  0  0  0  0  0  0  0  0  0  0
   56.6520   28.0960   45.3380 C   0  0  0  0  0  0  0  0  0  0  0  0
   57.9530   28.6290   45.2370 C   0  0  0  0  0  0  0  0  0  0  0  0
   59.0520   27.8980   45.6940 C   0  0  0  0  0  0  0  0  0  0  0  0
   58.8670   26.6340   46.2540 C   0  0  0  0  0  0  0  0  0  0  0  0
   57.5830   26.0950   46.3600 C   0  0  0  0  0  0  0  0  0  0  0  0
   56.4680   26.8210   45.9000 C   0  0  0  0  0  0  0  0  0  0  0  0
   55.1350   26.2940   45.9890 N   0  0  0  0  0  0  0  0  0  0  0  0
   54.7140   24.6130   45.9150 S   0  0  0  0  0  0  0  0  0  0  0  0
   53.3070   24.4800   45.4030 O   0  0  0  0  0  0  0  0  0  0  0  0
   54.7950   24.0190   47.2930 O   0  0  0  0  0  0  0  0  0  0  0  0
   55.7990   23.7730   44.8240 C   0  0  0  0  0  0  0  0  0  0  0  0
   55.6310   23.6410   43.4540 C   0  0  0  0  0  0  0  0  0  0  0  0
   56.6550   22.9020   42.8490 C   0  0  0  0  0  0  0  0  0  0  0  0
   57.6230   22.4560   43.7420 C   0  0  0  0  0  0  0  0  0  0  0  0
   57.2050   22.9790   45.2860 S   0  0  0  0  0  0  0  0  0  0  0  0
   55.5304   30.7485   44.1901 H   0  0  0  0  0  0  0  0  0  0  0  0
   56.4246   29.5581   43.1851 H   0  0  0  0  0  0  0  0  0  0  0  0
   54.6283   29.5640   43.1851 H   0  0  0  0  0  0  0  0  0  0  0  0
   58.1035   29.6255   44.7961 H   0  0  0  0  0  0  0  0  0  0  0  0
   60.0647   28.3197   45.6122 H   0  0  0  0  0  0  0  0  0  0  0  0
   59.7343   26.0605   46.6129 H   0  0  0  0  0  0  0  0  0  0  0  0
   57.4423   25.0989   46.8049 H   0  0  0  0  0  0  0  0  0  0  0  0
   54.7831   24.0713   42.9009 H   0  0  0  0  0  0  0  0  0  0  0  0
   56.6903   22.6940   41.7694 H   0  0  0  0  0  0  0  0  0  0  0  0
   58.5117   21.8618   43.4830 H   0  0  0  0  0  0  0  0  0  0  0  0
  1  2  1  0
  2  3  1  0
  3  4  2  0
  4  5  1  0
  5  6  2  0
  6  7  1  0
  7  8  2  0
  8  9  1  0
  9 10  1  0
 10 11  2  0
 10 12  2  0
 10 13  1  0
 13 14  2  0
 14 15  1  0
 15 16  2  0
 16 17  1  0
  8  3  1  0
 17 13  1  0
  1 18  1  0
  1 19  1  0
  1 20  1  0
  4 21  1  0
  5 22  1  0
  6 23  1  0
  7 24  1  0
 14 25  1  0
 15 26  1  0
 16 27  1  0
M  CHG  1   9  -1
M  END
>  <UniqueID>  (68) 
57

>  <SMILES>  (68) 
COc1ccccc1[N-]S(=O)(=O)c1cccs1

>  <Energy>  (68) 
56.15693039844267

>  <Genealogy>  (68) 
COc1ccccc1[N-]S(=O)(=O)c1cccs1 (protonated)
COc1ccccc1[N-]S(=O)(=O)c1cccs1 (3D coordinates assigned)
COc1ccccc1[N-]S(=O)(=O)c1cccs1 (optimized conformer: 56.15693039844267 kcal/mol)

>  <smiles>  (68) 
COc1ccccc1NS(=O)(=O)c1cccs1

>  <score_type>  (68) 
oracle

>  <origin>  (68) 
adg

>  <m_score__min__energy>  (68) 
-8.6199999999999992

>  <m_primary>  (68) 
energy

$$$$
68:0
     RDKit          3D

 43 45  0  0  0  0  0  0  0  0999 V2000
   59.1540   34.3860   45.1290 C   0  0  0  0  0  0  0  0  0  0  0  0
   58.2440   33.2980   45.5110 N   0  0  0  0  0  0  0  0  0  0  0  0
   57.9420   33.1050   46.9390 C   0  0  0  0  0  0  0  0  0  0  0  0
   58.9790   32.2010   47.6190 C   0  0  0  0  0  0  0  0  0  0  0  0
   59.6110   31.3320   46.6750 O   0  0  0  0  0  0  0  0  0  0  0  0
   59.0760   30.1380   46.1690 C   0  0  0  0  0  0  0  0  0  0  0  0
   58.2730   29.2730   46.9370 C   0  0  0  0  0  0  0  0  0  0  0  0
   57.8240   28.0630   46.3990 C   0  0  0  0  0  0  0  0  0  0  0  0
   58.1620   27.7020   45.0870 C   0  0  0  0  0  0  0  0  0  0  0  0
   57.6700   26.4060   44.5040 C   0  0  0  0  0  0  0  0  0  0  0  0
   57.2380   25.4800   45.5980 C   0  0  0  0  0  0  0  0  0  0  0  0
   58.1450   24.1880   46.1880 S   0  0  0  0  0  0  0  0  0  0  0  0
   56.9190   23.7000   47.2310 C   0  0  0  0  0  0  0  0  0  0  0  0
   57.0020   22.7140   48.0090 O   0  0  0  0  0  0  0  0  0  0  0  0
   55.8210   24.4790   47.1440 N   0  0  0  0  0  0  0  0  0  0  0  0
   55.9950   25.4680   46.2280 C   0  0  0  0  0  0  0  0  0  0  0  0
   54.9970   26.3940   45.9460 O   0  0  0  0  0  0  0  0  0  0  0  0
   58.9190   28.5860   44.3050 C   0  0  0  0  0  0  0  0  0  0  0  0
   59.3670   29.7960   44.8420 C   0  0  0  0  0  0  0  0  0  0  0  0
   57.6710   32.4200   44.5090 C   0  0  0  0  0  0  0  0  0  0  0  0
   58.0450   32.5030   43.1510 C   0  0  0  0  0  0  0  0  0  0  0  0
   57.5140   31.5970   42.2330 C   0  0  0  0  0  0  0  0  0  0  0  0
   56.6100   30.6240   42.6560 C   0  0  0  0  0  0  0  0  0  0  0  0
   56.2470   30.5720   44.0000 C   0  0  0  0  0  0  0  0  0  0  0  0
   56.7800   31.4560   44.8830 N   0  0  0  0  0  0  0  0  0  0  0  0
   59.5542   34.8645   46.0351 H   0  0  0  0  0  0  0  0  0  0  0  0
   59.9836   33.9779   44.5329 H   0  0  0  0  0  0  0  0  0  0  0  0
   58.6057   35.1304   44.5329 H   0  0  0  0  0  0  0  0  0  0  0  0
   57.9401   34.0848   47.4390 H   0  0  0  0  0  0  0  0  0  0  0  0
   56.9577   32.6205   47.0199 H   0  0  0  0  0  0  0  0  0  0  0  0
   59.7452   32.8303   48.0953 H   0  0  0  0  0  0  0  0  0  0  0  0
   58.4621   31.5826   48.3676 H   0  0  0  0  0  0  0  0  0  0  0  0
   57.9976   29.5505   47.9652 H   0  0  0  0  0  0  0  0  0  0  0  0
   57.2022   27.3907   47.0084 H   0  0  0  0  0  0  0  0  0  0  0  0
   56.8167   26.6069   43.8395 H   0  0  0  0  0  0  0  0  0  0  0  0
   58.4852   25.9351   43.9351 H   0  0  0  0  0  0  0  0  0  0  0  0
   54.0820   26.3130   46.3710 H   0  0  0  0  0  0  0  0  0  0  0  0
   59.1614   28.3259   43.2640 H   0  0  0  0  0  0  0  0  0  0  0  0
   59.9533   30.4859   44.2172 H   0  0  0  0  0  0  0  0  0  0  0  0
   58.7513   33.2778   42.8182 H   0  0  0  0  0  0  0  0  0  0  0  0
   57.8088   31.6504   41.1746 H   0  0  0  0  0  0  0  0  0  0  0  0
   56.1883   29.9059   41.9373 H   0  0  0  0  0  0  0  0  0  0  0  0
   55.5284   29.8147   44.3464 H   0  0  0  0  0  0  0  0  0  0  0  0
  1  2  1  0
  2  3  1  0
  3  4  1  0
  4  5  1  0
  5  6  1  0
  6  7  2  0
  7  8  1  0
  8  9  2  0
  9 10  1  0
 10 11  1  0
 11 12  1  0
 12 13  1  0
 13 14  2  0
 13 15  1  0
 15 16  1  0
 16 17  1  0
  9 18  1  0
 18 19  2  0
  2 20  1  0
 20 21  2  0
 21 22  1  0
 22 23  2  0
 23 24  1  0
 24 25  2  0
 19  6  1  0
 25 20  1  0
 16 11  2  0
  1 26  1  0
  1 27  1  0
  1 28  1  0
  3 29  1  0
  3 30  1  0
  4 31  1  0
  4 32  1  0
  7 33  1  0
  8 34  1  0
 10 35  1  0
 10 36  1  0
 17 37  1  0
 18 38  1  0
 19 39  1  0
 21 40  1  0
 22 41  1  0
 23 42  1  0
 24 43  1  0
M  CHG  1  15  -1
M  END
>  <UniqueID>  (69) 
58

>  <SMILES>  (69) 
CN(CCOc1ccc(Cc2sc(=O)[n-]c2O)cc1)c1ccccn1

>  <Energy>  (69) 
71.11779882927291

>  <Genealogy>  (69) 
CN(CCOc1ccc(Cc2sc(=O)[n-]c2O)cc1)c1ccccn1 (protonated)
CN(CCOc1ccc(Cc2sc(=O)[n-]c2O)cc1)c1ccccn1 (3D coordinates assigned)
CN(CCOc1ccc(Cc2sc(=O)[n-]c2O)cc1)c1ccccn1 (optimized conformer: 71.11779882927291 kcal/mol)

>  <smiles>  (69) 
CN(CCOc1ccc(Cc2sc(=O)[nH]c2O)cc1)c1ccccn1

>  <score_type>  (69) 
oracle

>  <origin>  (69) 
adg

>  <m_score__min__energy>  (69) 
-11.32

>  <m_primary>  (69) 
energy

$$$$
69:0
     RDKit          3D

 31 32  0  0  0  0  0  0  0  0999 V2000
   61.1500   30.4960   47.9220 C   0  0  0  0  0  0  0  0  0  0  0  0
   60.8980   30.0710   46.5870 O   0  0  0  0  0  0  0  0  0  0  0  0
   60.0220   29.0320   46.2310 C   0  0  0  0  0  0  0  0  0  0  0  0
   60.3640   27.6790   46.4230 C   0  0  0  0  0  0  0  0  0  0  0  0
   59.4630   26.6650   46.0940 C   0  0  0  0  0  0  0  0  0  0  0  0
   58.2000   26.9800   45.5760 C   0  0  0  0  0  0  0  0  0  0  0  0
   57.2430   25.8850   45.1940 C   0  0  0  0  0  0  0  0  0  0  0  0
   56.0760   25.8730   46.1290 C   0  0  0  0  0  0  0  0  0  0  0  0
   55.1470   26.7120   45.9930 O   0  0  0  0  0  0  0  0  0  0  0  0
   55.9880   24.9030   47.1200 O   0  0  0  0  0  0  0  0  0  0  0  0
   57.8590   28.3230   45.3640 C   0  0  0  0  0  0  0  0  0  0  0  0
   58.7610   29.3540   45.6830 C   0  0  0  0  0  0  0  0  0  0  0  0
   58.3700   30.7630   45.4380 C   0  0  0  0  0  0  0  0  0  0  0  0
   58.2230   31.6630   46.5080 C   0  0  0  0  0  0  0  0  0  0  0  0
   57.8630   32.9920   46.2690 C   0  0  0  0  0  0  0  0  0  0  0  0
   57.6510   33.4370   44.9610 C   0  0  0  0  0  0  0  0  0  0  0  0
   57.3030   34.7270   44.7320 F   0  0  0  0  0  0  0  0  0  0  0  0
   57.8030   32.5530   43.8900 C   0  0  0  0  0  0  0  0  0  0  0  0
   58.1630   31.2220   44.1240 C   0  0  0  0  0  0  0  0  0  0  0  0
   60.7189   29.7689   48.6258 H   0  0  0  0  0  0  0  0  0  0  0  0
   62.2355   30.5657   48.0859 H   0  0  0  0  0  0  0  0  0  0  0  0
   60.6904   31.4819   48.0859 H   0  0  0  0  0  0  0  0  0  0  0  0
   61.3499   27.4193   46.8359 H   0  0  0  0  0  0  0  0  0  0  0  0
   59.7462   25.6125   46.2423 H   0  0  0  0  0  0  0  0  0  0  0  0
   56.8853   26.0560   44.1679 H   0  0  0  0  0  0  0  0  0  0  0  0
   57.7617   24.9168   45.2532 H   0  0  0  0  0  0  0  0  0  0  0  0
   56.8741   28.5736   44.9431 H   0  0  0  0  0  0  0  0  0  0  0  0
   58.3923   31.3192   47.5391 H   0  0  0  0  0  0  0  0  0  0  0  0
   57.7462   33.6892   47.1118 H   0  0  0  0  0  0  0  0  0  0  0  0
   57.6392   32.9045   42.8606 H   0  0  0  0  0  0  0  0  0  0  0  0
   58.2849   30.5308   43.2770 H   0  0  0  0  0  0  0  0  0  0  0  0
  1  2  1  0
  2  3  1  0
  3  4  2  0
  4  5  1  0
  5  6  2  0
  6  7  1  0
  7  8  1  0
  8  9  2  0
  8 10  1  0
  6 11  1  0
 11 12  2  0
 12 13  1  0
 13 14  2  0
 14 15  1  0
 15 16  2  0
 16 17  1  0
 16 18  1  0
 18 19  2  0
 12  3  1  0
 19 13  1  0
  1 20  1  0
  1 21  1  0
  1 22  1  0
  4 23  1  0
  5 24  1  0
  7 25  1  0
  7 26  1  0
 11 27  1  0
 14 28  1  0
 15 29  1  0
 18 30  1  0
 19 31  1  0
M  CHG  1  10  -1
M  END
>  <UniqueID>  (70) 
59

>  <SMILES>  (70) 
COc1ccc(CC(=O)[O-])cc1-c1ccc(F)cc1

>  <Energy>  (70) 
35.66815333114092

>  <Genealogy>  (70) 
COc1ccc(CC(=O)[O-])cc1-c1ccc(F)cc1 (protonated)
COc1ccc(CC(=O)[O-])cc1-c1ccc(F)cc1 (3D coordinates assigned)
COc1ccc(CC(=O)[O-])cc1-c1ccc(F)cc1 (optimized conformer: 35.66815333114092 kcal/mol)

>  <smiles>  (70) 
COc1ccc(CC(=O)O)cc1-c1ccc(F)cc1

>  <score_type>  (70) 
oracle

>  <origin>  (70) 
adg

>  <m_score__min__energy>  (70) 
-9.1899999999999995

>  <m_primary>  (70) 
energy

$$$$
70:0
     RDKit          3D

 26 28  0  0  0  0  0  0  0  0999 V2000
   56.8140   19.7380   43.0610 H   0  0  0  0  0  0  0  0  0  0  0  0
   56.4480   20.7140   43.0140 N   0  0  0  0  0  0  0  0  0  0  0  0
   57.0430   21.6830   43.6330 C   0  0  0  0  0  0  0  0  0  0  0  0
   56.5660   23.2900   43.5830 S   0  0  0  0  0  0  0  0  0  0  0  0
   57.8200   23.8040   44.6010 C   0  0  0  0  0  0  0  0  0  0  0  0
   58.0540   25.2080   45.0360 C   0  0  0  0  0  0  0  0  0  0  0  0
   58.5720   25.4730   46.3180 C   0  0  0  0  0  0  0  0  0  0  0  0
   58.8029   24.6358   46.9931 H   0  0  0  0  0  0  0  0  0  0  0  0
   58.7970   26.7840   46.7450 C   0  0  0  0  0  0  0  0  0  0  0  0
   59.2013   26.9707   47.7508 H   0  0  0  0  0  0  0  0  0  0  0  0
   58.5100   27.8610   45.8980 C   0  0  0  0  0  0  0  0  0  0  0  0
   58.7340   29.1820   46.3190 C   0  0  0  0  0  0  0  0  0  0  0  0
   59.1387   29.3776   47.3230 H   0  0  0  0  0  0  0  0  0  0  0  0
   58.4430   30.2490   45.4630 C   0  0  0  0  0  0  0  0  0  0  0  0
   58.6201   31.2826   45.7952 H   0  0  0  0  0  0  0  0  0  0  0  0
   57.9280   30.0060   44.1870 C   0  0  0  0  0  0  0  0  0  0  0  0
   57.7005   30.8490   43.5180 H   0  0  0  0  0  0  0  0  0  0  0  0
   57.7010   28.6960   43.7580 C   0  0  0  0  0  0  0  0  0  0  0  0
   57.2955   28.5109   42.7524 H   0  0  0  0  0  0  0  0  0  0  0  0
   57.9890   27.6140   44.6070 C   0  0  0  0  0  0  0  0  0  0  0  0
   57.7660   26.2940   44.1850 C   0  0  0  0  0  0  0  0  0  0  0  0
   57.3622   26.1051   43.1794 H   0  0  0  0  0  0  0  0  0  0  0  0
   58.5750   22.6740   44.9450 C   0  0  0  0  0  0  0  0  0  0  0  0
   59.4553   22.7272   45.6025 H   0  0  0  0  0  0  0  0  0  0  0  0
   58.1350   21.5070   44.4030 N   0  0  0  0  0  0  0  0  0  0  0  0
   58.5940   20.5830   44.5680 H   0  0  0  0  0  0  0  0  0  0  0  0
  1  2  1  0
  2  3  2  0
  3  4  1  0
  4  5  1  0
  5  6  1  0
  6  7  2  0
  7  8  1  0
  7  9  1  0
  9 10  1  0
  9 11  2  0
 11 12  1  0
 12 13  1  0
 12 14  2  0
 14 15  1  0
 14 16  1  0
 16 17  1  0
 16 18  2  0
 18 19  1  0
 18 20  1  0
 20 21  2  0
 21 22  1  0
  5 23  2  0
 23 24  1  0
 23 25  1  0
 25 26  1  0
 25  3  1  0
 21  6  1  0
 20 11  1  0
M  END
>  <UniqueID>  (71) 
60

>  <SMILES>  (71) 
[H]/N=c1/[nH]cc(-c2ccc3ccccc3c2)s1

>  <Energy>  (71) 
64.22472083049165

>  <Genealogy>  (71) 
[H]/N=c1/[nH]cc(-c2ccc3ccccc3c2)s1 (cis-trans isomerization)
[H]/N=c1/[nH]cc(-c2ccc3ccccc3c2)s1 (3D coordinates assigned)
[H]/N=c1/[nH]cc(-c2ccc3ccccc3c2)s1 (optimized conformer: 64.22472083049165 kcal/mol)

>  <smiles>  (71) 
N=c1[nH]cc(-c2ccc3ccccc3c2)s1

>  <score_type>  (71) 
oracle

>  <origin>  (71) 
adg

>  <m_score__min__energy>  (71) 
-6.46

>  <m_primary>  (71) 
energy

$$$$
71:0
     RDKit          3D

 30 30  0  0  0  0  0  0  0  0999 V2000
   55.8260   29.7080   44.4750 C   0  0  0  0  0  0  0  0  0  0  0  0
   56.5360   30.1290   43.1840 C   0  0  0  0  0  0  0  0  0  0  0  0
   57.8710   30.7600   43.3740 N   0  0  0  0  0  0  0  0  0  0  0  0
   58.5260   30.3730   44.6580 C   0  0  0  0  0  0  0  0  0  0  0  0
   59.3350   29.0630   44.6230 C   0  0  0  0  0  0  0  0  0  0  0  0
   57.8980   32.2220   43.1080 C   0  0  0  0  0  0  0  0  0  0  0  0
   58.1110   33.0350   44.3650 C   0  0  0  0  0  0  0  0  0  0  0  0
   57.1970   32.9450   45.4280 C   0  0  0  0  0  0  0  0  0  0  0  0
   57.4020   33.6830   46.5980 C   0  0  0  0  0  0  0  0  0  0  0  0
   58.5220   34.5100   46.7180 C   0  0  0  0  0  0  0  0  0  0  0  0
   59.4380   34.6030   45.6660 C   0  0  0  0  0  0  0  0  0  0  0  0
   59.2360   33.8680   44.4940 C   0  0  0  0  0  0  0  0  0  0  0  0
   56.4077   30.0529   45.3426 H   0  0  0  0  0  0  0  0  0  0  0  0
   54.8222   30.1570   44.5046 H   0  0  0  0  0  0  0  0  0  0  0  0
   55.7384   28.6119   44.5046 H   0  0  0  0  0  0  0  0  0  0  0  0
   56.6685   29.2327   42.5602 H   0  0  0  0  0  0  0  0  0  0  0  0
   55.8982   30.8957   42.7198 H   0  0  0  0  0  0  0  0  0  0  0  0
   58.4720   30.3260   42.6320 H   0  0  0  0  0  0  0  0  0  0  0  0
   59.2090   31.1851   44.9479 H   0  0  0  0  0  0  0  0  0  0  0  0
   57.7084   30.2031   45.3741 H   0  0  0  0  0  0  0  0  0  0  0  0
   59.5400   28.7311   45.6515 H   0  0  0  0  0  0  0  0  0  0  0  0
   58.7572   28.2892   44.0963 H   0  0  0  0  0  0  0  0  0  0  0  0
   60.2856   29.2331   44.0963 H   0  0  0  0  0  0  0  0  0  0  0  0
   58.7164   32.4377   42.4054 H   0  0  0  0  0  0  0  0  0  0  0  0
   56.9207   32.5038   42.6891 H   0  0  0  0  0  0  0  0  0  0  0  0
   56.3166   32.2915   45.3397 H   0  0  0  0  0  0  0  0  0  0  0  0
   56.6804   33.6124   47.4252 H   0  0  0  0  0  0  0  0  0  0  0  0
   58.6829   35.0878   47.6401 H   0  0  0  0  0  0  0  0  0  0  0  0
   60.3187   35.2552   45.7605 H   0  0  0  0  0  0  0  0  0  0  0  0
   59.9603   33.9418   43.6694 H   0  0  0  0  0  0  0  0  0  0  0  0
  1  2  1  0
  2  3  1  0
  3  4  1  0
  4  5  1  0
  3  6  1  0
  6  7  1  0
  7  8  2  0
  8  9  1  0
  9 10  2  0
 10 11  1  0
 11 12  2  0
 12  7  1  0
  1 13  1  0
  1 14  1  0
  1 15  1  0
  2 16  1  0
  2 17  1  0
  3 18  1  0
  4 19  1  0
  4 20  1  0
  5 21  1  0
  5 22  1  0
  5 23  1  0
  6 24  1  0
  6 25  1  0
  8 26  1  0
  9 27  1  0
 10 28  1  0
 11 29  1  0
 12 30  1  0
M  CHG  1   3   1
M  END
>  <UniqueID>  (72) 
61

>  <SMILES>  (72) 
CC[NH+](CC)Cc1ccccc1

>  <Energy>  (72) 
35.09326144974079

>  <Genealogy>  (72) 
CC[NH+](CC)Cc1ccccc1 (protonated)
CC[NH+](CC)Cc1ccccc1 (3D coordinates assigned)
CC[NH+](CC)Cc1ccccc1 (optimized conformer: 35.09326144974079 kcal/mol)

>  <smiles>  (72) 
CCN(CC)Cc1ccccc1

>  <score_type>  (72) 
oracle

>  <origin>  (72) 
adg

>  <m_score__min__energy>  (72) 
-3.48

>  <m_primary>  (72) 
energy

$$$$
72:0
     RDKit          3D

 30 31  0  0  0  0  0  0  0  0999 V2000
   57.0490   31.1390   43.2750 C   0  0  0  0  0  0  0  0  0  0  0  0
   57.6030   32.0190   44.3550 C   0  0  0  0  0  0  0  0  0  0  0  0
   57.8570   31.4970   45.6330 C   0  0  0  0  0  0  0  0  0  0  0  0
   58.3410   32.3240   46.6510 C   0  0  0  0  0  0  0  0  0  0  0  0
   58.5580   33.6920   46.4130 C   0  0  0  0  0  0  0  0  0  0  0  0
   59.0870   34.5390   47.4520 N   0  0  0  0  0  0  0  0  0  0  0  0
   60.4700   34.2110   47.6870 C   0  0  0  0  0  0  0  0  0  0  0  0
   61.3050   33.8380   46.6190 C   0  0  0  0  0  0  0  0  0  0  0  0
   62.6390   33.4900   46.8510 C   0  0  0  0  0  0  0  0  0  0  0  0
   63.1560   33.5020   48.1540 C   0  0  0  0  0  0  0  0  0  0  0  0
   64.5200   33.1450   48.3920 N   0  0  0  0  0  0  0  0  0  0  0  0
   62.3250   33.8660   49.2240 C   0  0  0  0  0  0  0  0  0  0  0  0
   60.9910   34.2150   48.9940 C   0  0  0  0  0  0  0  0  0  0  0  0
   58.2940   34.2150   45.1340 C   0  0  0  0  0  0  0  0  0  0  0  0
   57.8110   33.3860   44.1170 C   0  0  0  0  0  0  0  0  0  0  0  0
   56.5155   30.2916   43.7302 H   0  0  0  0  0  0  0  0  0  0  0  0
   56.3524   31.7184   42.6512 H   0  0  0  0  0  0  0  0  0  0  0  0
   57.8726   30.7614   42.6512 H   0  0  0  0  0  0  0  0  0  0  0  0
   57.6742   30.4312   45.8347 H   0  0  0  0  0  0  0  0  0  0  0  0
   58.5532   31.9015   47.6442 H   0  0  0  0  0  0  0  0  0  0  0  0
   58.5330   34.4170   48.3330 H   0  0  0  0  0  0  0  0  0  0  0  0
   58.9970   35.5450   47.1770 H   0  0  0  0  0  0  0  0  0  0  0  0
   60.9060   33.8199   45.5941 H   0  0  0  0  0  0  0  0  0  0  0  0
   63.2856   33.2056   46.0077 H   0  0  0  0  0  0  0  0  0  0  0  0
   65.1130   32.7610   47.6240 H   0  0  0  0  0  0  0  0  0  0  0  0
   64.9460   33.2640   49.3380 H   0  0  0  0  0  0  0  0  0  0  0  0
   62.7249   33.8769   50.2487 H   0  0  0  0  0  0  0  0  0  0  0  0
   60.3451   34.4943   49.8395 H   0  0  0  0  0  0  0  0  0  0  0  0
   58.4686   35.2823   44.9329 H   0  0  0  0  0  0  0  0  0  0  0  0
   57.5929   33.8078   43.1248 H   0  0  0  0  0  0  0  0  0  0  0  0
  1  2  1  0
  2  3  2  0
  3  4  1  0
  4  5  2  0
  5  6  1  0
  6  7  1  0
  7  8  2  0
  8  9  1  0
  9 10  2  0
 10 11  1  0
 10 12  1  0
 12 13  2  0
  5 14  1  0
 14 15  2  0
 15  2  1  0
 13  7  1  0
  1 16  1  0
  1 17  1  0
  1 18  1  0
  3 19  1  0
  4 20  1  0
  6 21  1  0
  6 22  1  0
  8 23  1  0
  9 24  1  0
 11 25  1  0
 11 26  1  0
 12 27  1  0
 13 28  1  0
 14 29  1  0
 15 30  1  0
M  CHG  1   6   1
M  END
>  <UniqueID>  (73) 
62

>  <SMILES>  (73) 
Cc1ccc([NH2+]c2ccc(N)cc2)cc1

>  <Energy>  (73) 
30.37873251750524

>  <Genealogy>  (73) 
Cc1ccc([NH2+]c2ccc(N)cc2)cc1 (protonated)
Cc1ccc([NH2+]c2ccc(N)cc2)cc1 (3D coordinates assigned)
Cc1ccc([NH2+]c2ccc(N)cc2)cc1 (optimized conformer: 30.37873251750524 kcal/mol)

>  <smiles>  (73) 
Cc1ccc(Nc2ccc(N)cc2)cc1

>  <score_type>  (73) 
oracle

>  <origin>  (73) 
adg

>  <m_score__min__energy>  (73) 
-4.3799999999999999

>  <m_primary>  (73) 
energy

$$$$
73:0
     RDKit          3D

 39 41  0  0  0  0  0  0  0  0999 V2000
   60.0270   33.8260   49.4900 C   0  0  0  0  0  0  0  0  0  0  0  0
   61.1250   33.7490   48.4760 C   0  0  0  0  0  0  0  0  0  0  0  0
   62.3580   33.2790   48.8110 N   0  0  0  0  0  0  0  0  0  0  0  0
   63.2140   33.2790   47.7660 C   0  0  0  0  0  0  0  0  0  0  0  0
   62.4670   33.8570   46.3780 S   0  0  0  0  0  0  0  0  0  0  0  0
   60.9890   34.1340   47.1360 C   0  0  0  0  0  0  0  0  0  0  0  0
   59.7680   34.6280   46.4630 C   0  0  0  0  0  0  0  0  0  0  0  0
   59.0130   35.4410   47.0580 O   0  0  0  0  0  0  0  0  0  0  0  0
   59.3740   34.1430   45.1720 N   0  0  0  0  0  0  0  0  0  0  0  0
   58.5400   33.0040   44.9210 C   0  0  0  0  0  0  0  0  0  0  0  0
   58.1410   32.7240   43.6110 C   0  0  0  0  0  0  0  0  0  0  0  0
   57.3470   31.6070   43.3440 C   0  0  0  0  0  0  0  0  0  0  0  0
   56.9680   30.7610   44.3970 C   0  0  0  0  0  0  0  0  0  0  0  0
   56.1280   29.5770   44.1540 C   0  0  0  0  0  0  0  0  0  0  0  0
   55.6750   29.3630   42.9960 O   0  0  0  0  0  0  0  0  0  0  0  0
   55.8330   28.6980   45.2030 O   0  0  0  0  0  0  0  0  0  0  0  0
   56.7490   27.7180   45.6850 C   0  0  0  0  0  0  0  0  0  0  0  0
   56.1220   26.3540   45.6400 C   0  0  0  0  0  0  0  0  0  0  0  0
   56.9130   25.1970   45.6300 C   0  0  0  0  0  0  0  0  0  0  0  0
   56.2950   23.9420   45.6120 C   0  0  0  0  0  0  0  0  0  0  0  0
   57.0010   22.8980   45.6030 O   0  0  0  0  0  0  0  0  0  0  0  0
   54.8940   23.8560   45.6070 C   0  0  0  0  0  0  0  0  0  0  0  0
   54.2380   22.6260   45.5890 O   0  0  0  0  0  0  0  0  0  0  0  0
   54.1430   25.0350   45.6220 C   0  0  0  0  0  0  0  0  0  0  0  0
   54.7660   26.2430   45.6410 N   0  0  0  0  0  0  0  0  0  0  0  0
   57.3900   31.0380   45.6610 N   0  0  0  0  0  0  0  0  0  0  0  0
   58.1620   32.1200   45.9460 C   0  0  0  0  0  0  0  0  0  0  0  0
   60.4589   33.7957   50.5012 H   0  0  0  0  0  0  0  0  0  0  0  0
   59.4703   34.7654   49.3571 H   0  0  0  0  0  0  0  0  0  0  0  0
   59.3447   32.9735   49.3571 H   0  0  0  0  0  0  0  0  0  0  0  0
   64.2608   32.9449   47.8176 H   0  0  0  0  0  0  0  0  0  0  0  0
   58.4531   33.3849   42.7889 H   0  0  0  0  0  0  0  0  0  0  0  0
   57.0210   31.3919   42.3157 H   0  0  0  0  0  0  0  0  0  0  0  0
   57.6514   27.7238   45.0560 H   0  0  0  0  0  0  0  0  0  0  0  0
   57.0144   27.9564   46.7255 H   0  0  0  0  0  0  0  0  0  0  0  0
   58.0102   25.2750   45.6363 H   0  0  0  0  0  0  0  0  0  0  0  0
   54.7320   21.7510   45.7160 H   0  0  0  0  0  0  0  0  0  0  0  0
   53.0441   24.9850   45.6184 H   0  0  0  0  0  0  0  0  0  0  0  0
   58.4910   32.3037   46.9794 H   0  0  0  0  0  0  0  0  0  0  0  0
  1  2  1  0
  2  3  1  0
  3  4  2  0
  4  5  1  0
  5  6  1  0
  6  7  1  0
  7  8  2  0
  7  9  1  0
  9 10  1  0
 10 11  2  0
 11 12  1  0
 12 13  2  0
 13 14  1  0
 14 15  2  0
 14 16  1  0
 16 17  1  0
 17 18  1  0
 18 19  2  0
 19 20  1  0
 20 21  2  0
 20 22  1  0
 22 23  1  0
 22 24  2  0
 24 25  1  0
 13 26  1  0
 26 27  2  0
  6  2  2  0
 27 10  1  0
 25 18  1  0
  1 28  1  0
  1 29  1  0
  1 30  1  0
  4 31  1  0
 11 32  1  0
 12 33  1  0
 17 34  1  0
 17 35  1  0
 19 36  1  0
 23 37  1  0
 24 38  1  0
 27 39  1  0
M  CHG  2   9  -1  25  -1
M  END
>  <UniqueID>  (74) 
63

>  <SMILES>  (74) 
Cc1ncsc1C(=O)[N-]c1ccc(C(=O)OCc2cc(=O)c(O)c[n-]2)nc1

>  <Energy>  (74) 
76.12337499562193

>  <Genealogy>  (74) 
Cc1ncsc1C(=O)[N-]c1ccc(C(=O)OCc2cc(=O)c(O)c[n-]2)nc1 (protonated)
Cc1ncsc1C(=O)[N-]c1ccc(C(=O)OCc2cc(=O)c(O)c[n-]2)nc1 (3D coordinates assigned)
Cc1ncsc1C(=O)[N-]c1ccc(C(=O)OCc2cc(=O)c(O)c[n-]2)nc1 (optimized conformer: 76.12337499562193 kcal/mol)

>  <smiles>  (74) 
Cc1ncsc1C(=O)Nc1ccc(C(=O)OCc2cc(=O)c(O)c[nH]2)nc1

>  <score_type>  (74) 
oracle

>  <origin>  (74) 
adg

>  <m_score__min__energy>  (74) 
-11.32

>  <m_primary>  (74) 
energy

$$$$
74:0
     RDKit          3D

 46 50  0  0  1  0  0  0  0  0999 V2000
   59.6680   35.3550   46.3910 C   0  0  0  0  0  0  0  0  0  0  0  0
   59.1960   34.8720   45.1670 O   0  0  0  0  0  0  0  0  0  0  0  0
   58.6610   33.6360   44.9190 C   0  0  0  0  0  0  0  0  0  0  0  0
   58.4370   33.1140   43.6610 C   0  0  0  0  0  0  0  0  0  0  0  0
   57.8970   31.8620   43.4760 C   0  0  0  0  0  0  0  0  0  0  0  0
   57.5410   31.0430   44.5610 C   0  0  0  0  0  0  0  0  0  0  0  0
   57.0090   29.7240   44.3340 C   0  0  0  0  0  0  0  0  0  0  0  0
   56.5880   28.8190   45.2580 N   0  0  0  0  0  0  0  0  0  0  0  0
   57.0040   27.7820   45.7710 C   0  0  0  0  0  0  0  0  0  0  0  0
   56.3630   26.6220   45.6140 N   0  0  0  0  0  0  0  0  0  0  0  0
   56.7920   25.4880   46.1580 C   0  0  0  0  0  0  0  0  0  0  0  0
   57.9290   25.4700   46.9140 N   0  0  0  0  0  0  0  0  0  0  0  0
   58.6360   26.5900   47.1230 C   0  0  0  0  0  0  0  0  0  0  0  0
   59.7850   26.6360   47.8720 C   0  0  0  0  0  0  0  0  0  0  0  0
   60.5020   27.8220   48.0730 C   0  0  0  0  0  0  0  0  0  0  0  0
   60.0150   28.9550   47.4900 C   0  0  0  0  0  0  0  0  0  0  0  0
   60.6790   30.2230   47.6380 C   0  0  0  0  0  0  0  0  0  0  0  0
   61.7530   30.8270   47.1310 C   0  0  0  0  0  0  0  0  0  0  0  0
   62.0870   32.0710   47.5180 C   0  0  0  0  0  0  0  0  0  0  0  0
   63.0800   33.0390   47.2610 C   0  0  0  0  0  0  0  0  0  0  0  0
   62.8280   34.1600   48.0300 C   0  0  0  0  0  0  0  0  0  0  0  0
   61.7400   33.9310   48.7400 N   0  0  0  0  0  0  0  0  0  0  0  0
   61.2870   32.6950   48.4480 C   0  0  0  0  0  0  0  0  0  0  0  0
   59.9940   31.5170   48.8250 S   0  0  0  0  0  0  0  0  0  0  0  0
   58.8660   28.9140   46.7410 C   0  0  0  0  0  0  0  0  0  0  0  0
   58.1620   27.7480   46.5440 C   0  0  0  0  0  0  0  0  0  0  0  0
   57.7760   31.5930   45.8090 C   0  0  0  0  0  0  0  0  0  0  0  0
   58.3180   32.8470   45.9900 C   0  0  0  0  0  0  0  0  0  0  0  0
   59.1571   34.8322   47.2130 H   0  0  0  0  0  0  0  0  0  0  0  0
   60.7515   35.1787   46.4615 H   0  0  0  0  0  0  0  0  0  0  0  0
   59.4668   36.4341   46.4615 H   0  0  0  0  0  0  0  0  0  0  0  0
   58.6982   33.7175   42.7792 H   0  0  0  0  0  0  0  0  0  0  0  0
   57.7398   31.4925   42.4519 H   0  0  0  0  0  0  0  0  0  0  0  0
   56.1362   29.8843   43.6840 H   0  0  0  0  0  0  0  0  0  0  0  0
   57.9373   29.2227   44.0227 H   0  0  0  0  0  0  0  0  0  0  0  0
   55.5120   26.6160   45.0530 H   0  0  0  0  0  0  0  0  0  0  0  0
   56.2274   24.5576   45.9982 H   0  0  0  0  0  0  0  0  0  0  0  0
   60.1562   25.7078   48.3310 H   0  0  0  0  0  0  0  0  0  0  0  0
   61.4212   27.8393   48.6769 H   0  0  0  0  0  0  0  0  0  0  0  0
   62.3727   30.3029   46.3885 H   0  0  0  0  0  0  0  0  0  0  0  0
   63.9203   32.9210   46.5610 H   0  0  0  0  0  0  0  0  0  0  0  0
   63.4291   35.0811   48.0468 H   0  0  0  0  0  0  0  0  0  0  0  0
   61.3050   34.5870   49.4080 H   0  0  0  0  0  0  0  0  0  0  0  0
   58.4956   29.8431   46.2832 H   0  0  0  0  0  0  0  0  0  0  0  0
   57.5177   31.0007   46.6992 H   0  0  0  0  0  0  0  0  0  0  0  0
   58.4790   33.2232   47.0111 H   0  0  0  0  0  0  0  0  0  0  0  0
  1  2  1  0
  2  3  1  0
  3  4  2  0
  4  5  1  0
  5  6  2  0
  6  7  1  0
  7  8  1  0
  8  9  2  0
  9 10  1  0
 10 11  1  0
 11 12  2  0
 12 13  1  0
 13 14  2  0
 14 15  1  0
 15 16  2  0
 16 17  1  0
 17 18  2  0
 18 19  1  0
 19 20  1  0
 20 21  2  0
 21 22  1  0
 22 23  1  0
 23 24  1  0
 16 25  1  0
 25 26  2  0
  6 27  1  0
 27 28  2  0
 28  3  1  0
 26  9  1  0
 26 13  1  0
 24 17  1  0
 23 19  2  0
  1 29  1  0
  1 30  1  0
  1 31  1  0
  4 32  1  0
  5 33  1  0
  7 34  1  0
  7 35  1  0
 10 36  1  0
 11 37  1  0
 14 38  1  0
 15 39  1  0
 18 40  1  0
 20 41  1  0
 21 42  1  0
 22 43  1  0
 25 44  1  0
 27 45  1  0
 28 46  1  0
M  END
>  <smiles>  (75) 
COc1ccc(CN=c2[nH]cnc3ccc(-c4cc5cc[nH]c5s4)cc23)cc1

>  <score_type>  (75) 
oracle

>  <origin>  (75) 
adg

>  <m_score__min__energy>  (75) 
-8.9299999999999997

>  <m_primary>  (75) 
energy

$$$$
75:0
     RDKit          3D

 41 42  0  0  0  0  0  0  0  0999 V2000
   63.3730   33.8430   46.6090 C   0  0  0  0  0  0  0  0  0  0  0  0
   62.5830   33.1350   47.6290 N   0  0  0  0  0  0  0  0  0  0  0  0
   62.8560   33.6370   49.0000 C   0  0  0  0  0  0  0  0  0  0  0  0
   61.6100   33.7140   49.9180 C   0  0  0  0  0  0  0  0  0  0  0  0
   60.3660   33.3500   49.1900 N   0  0  1  0  0  0  0  0  0  0  0  0
   59.4390   32.6470   50.1000 C   0  0  0  0  0  0  0  0  0  0  0  0
   59.7120   34.5590   48.6230 C   0  0  0  0  0  0  0  0  0  0  0  0
   59.1300   34.2950   47.2540 C   0  0  0  0  0  0  0  0  0  0  0  0
   57.9600   33.5290   47.1220 C   0  0  0  0  0  0  0  0  0  0  0  0
   57.4100   33.2940   45.8580 C   0  0  0  0  0  0  0  0  0  0  0  0
   58.0220   33.8230   44.7200 C   0  0  0  0  0  0  0  0  0  0  0  0
   59.1850   34.5900   44.8420 C   0  0  0  0  0  0  0  0  0  0  0  0
   59.7380   34.8270   46.1040 C   0  0  0  0  0  0  0  0  0  0  0  0
   62.7140   31.6710   47.4730 C   0  0  0  0  0  0  0  0  0  0  0  0
   61.3830   30.9940   47.5940 C   0  0  0  0  0  0  0  0  0  0  0  0
   60.3400   31.2720   46.7830 N   0  0  0  0  0  0  0  0  0  0  0  0
   59.3560   30.4850   47.2490 C   0  0  0  0  0  0  0  0  0  0  0  0
   59.8200   29.7630   48.3210 C   0  0  0  0  0  0  0  0  0  0  0  0
   61.1050   30.0820   48.5490 N   0  0  0  0  0  0  0  0  0  0  0  0
   64.1051   34.4991   47.1024 H   0  0  0  0  0  0  0  0  0  0  0  0
   63.9016   33.1107   45.9811 H   0  0  0  0  0  0  0  0  0  0  0  0
   62.7028   34.4484   45.9811 H   0  0  0  0  0  0  0  0  0  0  0  0
   63.5889   32.9659   49.4717 H   0  0  0  0  0  0  0  0  0  0  0  0
   63.2248   34.6672   48.8874 H   0  0  0  0  0  0  0  0  0  0  0  0
   61.7453   33.0206   50.7611 H   0  0  0  0  0  0  0  0  0  0  0  0
   61.5089   34.7506   50.2718 H   0  0  0  0  0  0  0  0  0  0  0  0
   60.6080   32.6840   48.4160 H   0  0  0  0  0  0  0  0  0  0  0  0
   59.7180   32.8586   51.1428 H   0  0  0  0  0  0  0  0  0  0  0  0
   58.4116   32.9951   49.9175 H   0  0  0  0  0  0  0  0  0  0  0  0
   59.4970   31.5638   49.9175 H   0  0  0  0  0  0  0  0  0  0  0  0
   58.9034   34.8756   49.2982 H   0  0  0  0  0  0  0  0  0  0  0  0
   60.4756   35.3445   48.5231 H   0  0  0  0  0  0  0  0  0  0  0  0
   57.4744   33.1122   48.0167 H   0  0  0  0  0  0  0  0  0  0  0  0
   56.4946   32.6920   45.7602 H   0  0  0  0  0  0  0  0  0  0  0  0
   57.5888   33.6362   43.7263 H   0  0  0  0  0  0  0  0  0  0  0  0
   59.6650   35.0071   43.9444 H   0  0  0  0  0  0  0  0  0  0  0  0
   60.6520   35.4319   46.1972 H   0  0  0  0  0  0  0  0  0  0  0  0
   63.1396   31.4520   46.4826 H   0  0  0  0  0  0  0  0  0  0  0  0
   63.3719   31.2925   48.2691 H   0  0  0  0  0  0  0  0  0  0  0  0
   58.3379   30.4279   46.8364 H   0  0  0  0  0  0  0  0  0  0  0  0
   59.2318   29.0373   48.9019 H   0  0  0  0  0  0  0  0  0  0  0  0
  1  2  1  0
  2  3  1  0
  3  4  1  0
  4  5  1  0
  5  6  1  0
  5  7  1  0
  7  8  1  0
  8  9  2  0
  9 10  1  0
 10 11  2  0
 11 12  1  0
 12 13  2  0
  2 14  1  0
 14 15  1  0
 15 16  2  0
 16 17  1  0
 17 18  2  0
 18 19  1  0
 13  8  1  0
 19 15  1  0
  1 20  1  0
  1 21  1  0
  1 22  1  0
  3 23  1  0
  3 24  1  0
  4 25  1  0
  4 26  1  0
  5 27  1  6
  6 28  1  0
  6 29  1  0
  6 30  1  0
  7 31  1  0
  7 32  1  0
  9 33  1  0
 10 34  1  0
 11 35  1  0
 12 36  1  0
 13 37  1  0
 14 38  1  0
 14 39  1  0
 17 40  1  0
 18 41  1  0
M  CHG  2   5   1  19  -1
M  END
>  <UniqueID>  (76) 
64

>  <SMILES>  (76) 
CN(CC[N@@H+](C)Cc1ccccc1)Cc1ncc[n-]1

>  <Energy>  (76) 
73.12470835180068

>  <Genealogy>  (76) 
CN(CC[NH+](C)Cc1ccccc1)Cc1ncc[n-]1 (protonated)
CN(CC[N@@H+](C)Cc1ccccc1)Cc1ncc[n-]1 (chirality)
CN(CC[N@@H+](C)Cc1ccccc1)Cc1ncc[n-]1 (3D coordinates assigned)
CN(CC[N@@H+](C)Cc1ccccc1)Cc1ncc[n-]1 (optimized conformer: 73.12470835180068 kcal/mol)

>  <smiles>  (76) 
CN(CCN(C)Cc1ncc[nH]1)Cc1ccccc1

>  <score_type>  (76) 
oracle

>  <origin>  (76) 
adg

>  <m_score__min__energy>  (76) 
-5.5499999999999998

>  <m_primary>  (76) 
energy

$$$$
76:0
     RDKit          3D

 39 41  0  0  0  0  0  0  0  0999 V2000
   56.7009   29.2694   42.2329 H   0  0  0  0  0  0  0  0  0  0  0  0
   57.0120   29.0410   43.2630 C   0  0  0  0  0  0  0  0  0  0  0  0
   56.5640   29.9340   44.3530 C   0  0  0  0  0  0  0  0  0  0  0  0
   55.4150   29.7460   44.8380 O   0  0  0  0  0  0  0  0  0  0  0  0
   57.4060   31.0210   44.9090 C   0  0  0  0  0  0  0  0  0  0  0  0
   57.4220   32.2820   44.2900 C   0  0  0  0  0  0  0  0  0  0  0  0
   56.8214   32.4533   43.3845 H   0  0  0  0  0  0  0  0  0  0  0  0
   58.1950   33.3200   44.8160 C   0  0  0  0  0  0  0  0  0  0  0  0
   58.2136   34.2972   44.3112 H   0  0  0  0  0  0  0  0  0  0  0  0
   58.9460   33.1250   45.9810 C   0  0  0  0  0  0  0  0  0  0  0  0
   59.7230   34.1870   46.4670 O   0  0  0  0  0  0  0  0  0  0  0  0
   60.9350   34.0570   47.1590 C   0  0  0  0  0  0  0  0  0  0  0  0
   62.1060   33.8220   46.4270 C   0  0  0  0  0  0  0  0  0  0  0  0
   62.0571   33.7321   45.3318 H   0  0  0  0  0  0  0  0  0  0  0  0
   63.3370   33.7010   47.0800 C   0  0  0  0  0  0  0  0  0  0  0  0
   64.2505   33.5058   46.4992 H   0  0  0  0  0  0  0  0  0  0  0  0
   63.4070   33.8280   48.4700 C   0  0  0  0  0  0  0  0  0  0  0  0
   64.3745   33.7272   48.9836 H   0  0  0  0  0  0  0  0  0  0  0  0
   62.2480   34.0830   49.2070 C   0  0  0  0  0  0  0  0  0  0  0  0
   62.3048   34.1895   50.3004 H   0  0  0  0  0  0  0  0  0  0  0  0
   61.0160   34.2030   48.5570 C   0  0  0  0  0  0  0  0  0  0  0  0
   60.1069   34.4122   49.1398 H   0  0  0  0  0  0  0  0  0  0  0  0
   58.9350   31.8640   46.6030 C   0  0  0  0  0  0  0  0  0  0  0  0
   59.5383   31.6943   47.5070 H   0  0  0  0  0  0  0  0  0  0  0  0
   58.1610   30.8250   46.0780 C   0  0  0  0  0  0  0  0  0  0  0  0
   58.1428   29.8480   46.5830 H   0  0  0  0  0  0  0  0  0  0  0  0
   57.7820   27.9640   43.4780 C   0  0  0  0  0  0  0  0  0  0  0  0
   57.9204   27.2542   42.6491 H   0  0  0  0  0  0  0  0  0  0  0  0
   58.4580   27.6720   44.7650 C   0  0  0  0  0  0  0  0  0  0  0  0
   59.7770   28.0860   45.0450 C   0  0  0  0  0  0  0  0  0  0  0  0
   60.3475   28.6441   44.2880 H   0  0  0  0  0  0  0  0  0  0  0  0
   60.3630   27.7910   46.2790 C   0  0  0  0  0  0  0  0  0  0  0  0
   61.3948   28.1114   46.4858 H   0  0  0  0  0  0  0  0  0  0  0  0
   59.6440   27.0910   47.2510 C   0  0  0  0  0  0  0  0  0  0  0  0
   60.2150   26.8090   48.4470 F   0  0  0  0  0  0  0  0  0  0  0  0
   58.3310   26.6890   46.9900 C   0  0  0  0  0  0  0  0  0  0  0  0
   57.7617   26.1420   47.7560 H   0  0  0  0  0  0  0  0  0  0  0  0
   57.7400   26.9810   45.7570 C   0  0  0  0  0  0  0  0  0  0  0  0
   56.7040   26.6673   45.5612 H   0  0  0  0  0  0  0  0  0  0  0  0
  1  2  1  0
  2  3  1  0
  3  4  2  0
  3  5  1  0
  5  6  2  0
  6  7  1  0
  6  8  1  0
  8  9  1  0
  8 10  2  0
 10 11  1  0
 11 12  1  0
 12 13  2  0
 13 14  1  0
 13 15  1  0
 15 16  1  0
 15 17  2  0
 17 18  1  0
 17 19  1  0
 19 20  1  0
 19 21  2  0
 21 22  1  0
 10 23  1  0
 23 24  1  0
 23 25  2  0
 25 26  1  0
  2 27  2  0
 27 28  1  0
 27 29  1  0
 29 30  2  0
 30 31  1  0
 30 32  1  0
 32 33  1  0
 32 34  2  0
 34 35  1  0
 34 36  1  0
 36 37  1  0
 36 38  2  0
 38 39  1  0
 25  5  1  0
 38 29  1  0
 21 12  1  0
M  END
>  <UniqueID>  (77) 
65

>  <SMILES>  (77) 
O=C(/C=C/c1ccc(F)cc1)c1ccc(Oc2ccccc2)cc1

>  <Energy>  (77) 
55.674462226717544

>  <Genealogy>  (77) 
O=C(/C=C/c1ccc(F)cc1)c1ccc(Oc2ccccc2)cc1 (cis-trans isomerization)
O=C(/C=C/c1ccc(F)cc1)c1ccc(Oc2ccccc2)cc1 (3D coordinates assigned)
O=C(/C=C/c1ccc(F)cc1)c1ccc(Oc2ccccc2)cc1 (optimized conformer: 55.674462226717544 kcal/mol)

>  <smiles>  (77) 
O=C(C=Cc1ccc(F)cc1)c1ccc(Oc2ccccc2)cc1

>  <score_type>  (77) 
oracle

>  <origin>  (77) 
adg

>  <m_score__min__energy>  (77) 
-8.4800000000000004

>  <m_primary>  (77) 
energy

$$$$
77:0
     RDKit          3D

 28 29  0  0  0  0  0  0  0  0999 V2000
   64.1380   32.7470   48.8720 C   0  0  0  0  0  0  0  0  0  0  0  0
   63.8720   32.2480   47.5210 N   0  0  0  0  0  0  0  0  0  0  0  0
   62.5060   32.5220   47.1500 C   0  0  0  0  0  0  0  0  0  0  0  0
   61.5490   31.4920   47.1490 C   0  0  0  0  0  0  0  0  0  0  0  0
   60.2310   31.7520   46.7630 C   0  0  0  0  0  0  0  0  0  0  0  0
   59.8530   33.0430   46.3690 C   0  0  0  0  0  0  0  0  0  0  0  0
   58.1950   33.3690   45.8740 S   0  0  0  0  0  0  0  0  0  0  0  0
   58.0910   34.7520   45.2940 O   0  0  0  0  0  0  0  0  0  0  0  0
   57.2880   33.2690   47.0670 O   0  0  0  0  0  0  0  0  0  0  0  0
   57.7080   32.2250   44.6700 N   0  0  0  0  0  0  0  0  0  0  0  0
   57.9570   32.3110   43.3530 C   0  0  0  0  0  0  0  0  0  0  0  0
   57.3850   31.2200   42.7370 C   0  0  0  0  0  0  0  0  0  0  0  0
   56.7950   30.5040   43.7620 C   0  0  0  0  0  0  0  0  0  0  0  0
   57.0030   31.1370   44.9330 N   0  0  0  0  0  0  0  0  0  0  0  0
   60.8070   34.0680   46.3500 C   0  0  0  0  0  0  0  0  0  0  0  0
   62.1250   33.8100   46.7350 C   0  0  0  0  0  0  0  0  0  0  0  0
   63.7546   32.0277   49.6107 H   0  0  0  0  0  0  0  0  0  0  0  0
   65.2222   32.8715   49.0100 H   0  0  0  0  0  0  0  0  0  0  0  0
   63.6370   33.7165   49.0100 H   0  0  0  0  0  0  0  0  0  0  0  0
   64.5290   32.7090   46.8480 H   0  0  0  0  0  0  0  0  0  0  0  0
   64.0530   31.2180   47.4930 H   0  0  0  0  0  0  0  0  0  0  0  0
   61.8392   30.4757   47.4537 H   0  0  0  0  0  0  0  0  0  0  0  0
   59.4880   30.9409   46.7684 H   0  0  0  0  0  0  0  0  0  0  0  0
   58.5198   33.1132   42.8533 H   0  0  0  0  0  0  0  0  0  0  0  0
   57.3953   30.9727   41.6652 H   0  0  0  0  0  0  0  0  0  0  0  0
   56.2406   29.5618   43.6401 H   0  0  0  0  0  0  0  0  0  0  0  0
   60.5176   35.0801   46.0307 H   0  0  0  0  0  0  0  0  0  0  0  0
   62.8692   34.6197   46.7133 H   0  0  0  0  0  0  0  0  0  0  0  0
  1  2  1  0
  2  3  1  0
  3  4  2  0
  4  5  1  0
  5  6  2  0
  6  7  1  0
  7  8  2  0
  7  9  2  0
  7 10  1  0
 10 11  1  0
 11 12  2  0
 12 13  1  0
 13 14  2  0
  6 15  1  0
 15 16  2  0
 16  3  1  0
 14 10  1  0
  1 17  1  0
  1 18  1  0
  1 19  1  0
  2 20  1  0
  2 21  1  0
  4 22  1  0
  5 23  1  0
 11 24  1  0
 12 25  1  0
 13 26  1  0
 15 27  1  0
 16 28  1  0
M  CHG  1   2   1
M  END
>  <UniqueID>  (78) 
66

>  <SMILES>  (78) 
C[NH2+]c1ccc(S(=O)(=O)n2cccn2)cc1

>  <Energy>  (78) 
59.36740821622371

>  <Genealogy>  (78) 
C[NH2+]c1ccc(S(=O)(=O)n2cccn2)cc1 (protonated)
C[NH2+]c1ccc(S(=O)(=O)n2cccn2)cc1 (3D coordinates assigned)
C[NH2+]c1ccc(S(=O)(=O)n2cccn2)cc1 (optimized conformer: 59.36740821622371 kcal/mol)

>  <smiles>  (78) 
CNc1ccc(S(=O)(=O)n2cccn2)cc1

>  <score_type>  (78) 
oracle

>  <origin>  (78) 
adg

>  <m_score__min__energy>  (78) 
-5.6200000000000001

>  <m_primary>  (78) 
energy

$$$$
78:0
     RDKit          3D

 27 28  0  0  0  0  0  0  0  0999 V2000
   55.2150   29.1720   44.4910 N   0  0  0  0  0  0  0  0  0  0  0  0
   56.4240   29.8900   44.6440 C   0  0  0  0  0  0  0  0  0  0  0  0
   57.6030   29.1830   44.7410 C   0  0  0  0  0  0  0  0  0  0  0  0
   58.7850   29.8980   44.8910 C   0  0  0  0  0  0  0  0  0  0  0  0
   59.9010   29.2840   44.9830 O   0  0  0  0  0  0  0  0  0  0  0  0
   58.7410   31.2620   44.9380 N   0  0  0  0  0  0  0  0  0  0  0  0
   57.5620   31.9170   44.8400 C   0  0  0  0  0  0  0  0  0  0  0  0
   57.5120   33.7110   44.9040 S   0  0  0  0  0  0  0  0  0  0  0  0
   57.8530   34.2190   46.5960 C   0  0  0  0  0  0  0  0  0  0  0  0
   59.2420   34.0010   47.0140 C   0  0  0  0  0  0  0  0  0  0  0  0
   60.2800   33.9890   46.0890 C   0  0  0  0  0  0  0  0  0  0  0  0
   61.5910   33.7900   46.4330 C   0  0  0  0  0  0  0  0  0  0  0  0
   61.8970   33.5900   47.7760 C   0  0  0  0  0  0  0  0  0  0  0  0
   63.7200   33.3170   48.2300 Br  0  0  0  0  0  0  0  0  0  0  0  0
   60.8800   33.5980   48.7230 C   0  0  0  0  0  0  0  0  0  0  0  0
   59.5630   33.8050   48.3210 C   0  0  0  0  0  0  0  0  0  0  0  0
   56.3920   31.2370   44.6920 N   0  0  0  0  0  0  0  0  0  0  0  0
   55.1250   28.1960   44.8620 H   0  0  0  0  0  0  0  0  0  0  0  0
   54.3650   29.5550   44.0160 H   0  0  0  0  0  0  0  0  0  0  0  0
   57.6082   28.0837   44.7008 H   0  0  0  0  0  0  0  0  0  0  0  0
   59.6150   31.8260   45.0500 H   0  0  0  0  0  0  0  0  0  0  0  0
   57.6282   35.2919   46.6874 H   0  0  0  0  0  0  0  0  0  0  0  0
   57.2221   33.5980   47.2489 H   0  0  0  0  0  0  0  0  0  0  0  0
   60.0364   34.1472   45.0281 H   0  0  0  0  0  0  0  0  0  0  0  0
   62.3812   33.7883   45.6678 H   0  0  0  0  0  0  0  0  0  0  0  0
   61.1145   33.4414   49.7862 H   0  0  0  0  0  0  0  0  0  0  0  0
   58.7644   33.8101   49.0774 H   0  0  0  0  0  0  0  0  0  0  0  0
  1  2  1  0
  2  3  2  0
  3  4  1  0
  4  5  2  0
  4  6  1  0
  6  7  1  0
  7  8  1  0
  8  9  1  0
  9 10  1  0
 10 11  2  0
 11 12  1  0
 12 13  2  0
 13 14  1  0
 13 15  1  0
 15 16  2  0
  7 17  2  0
 17  2  1  0
 16 10  1  0
  1 18  1  0
  1 19  1  0
  3 20  1  0
  6 21  1  0
  9 22  1  0
  9 23  1  0
 11 24  1  0
 12 25  1  0
 15 26  1  0
 16 27  1  0
M  END
>  <smiles>  (79) 
Nc1cc(=O)[nH]c(SCc2ccc(Br)cc2)n1

>  <score_type>  (79) 
oracle

>  <origin>  (79) 
adg

>  <m_score__min__energy>  (79) 
-7.4699999999999998

>  <m_primary>  (79) 
energy

$$$$
79:0
     RDKit          3D

 45 48  0  0  0  0  0  0  0  0999 V2000
   64.1144   32.5511   49.8205 H   0  0  0  0  0  0  0  0  0  0  0  0
   63.4200   32.6720   48.9760 C   0  0  0  0  0  0  0  0  0  0  0  0
   62.7140   34.1150   48.4820 S   0  0  0  0  0  0  0  0  0  0  0  0
   61.8280   33.4620   47.2100 C   0  0  0  0  0  0  0  0  0  0  0  0
   60.9190   34.2350   46.2930 C   0  0  0  0  0  0  0  0  0  0  0  0
   60.8397   33.6860   45.3431 H   0  0  0  0  0  0  0  0  0  0  0  0
   61.3661   35.2329   46.1733 H   0  0  0  0  0  0  0  0  0  0  0  0
   59.5510   34.4430   46.8250 N   0  0  0  0  0  0  0  0  0  0  0  0
   58.4570   33.9990   45.9400 C   0  0  0  0  0  0  0  0  0  0  0  0
   58.7856   34.1122   44.8963 H   0  0  0  0  0  0  0  0  0  0  0  0
   57.5805   34.6221   46.1710 H   0  0  0  0  0  0  0  0  0  0  0  0
   58.0510   32.5620   46.1600 C   0  0  0  0  0  0  0  0  0  0  0  0
   57.2200   32.0550   45.2980 N   0  0  0  0  0  0  0  0  0  0  0  0
   56.9910   30.7100   45.1300 O   0  0  0  0  0  0  0  0  0  0  0  0
   57.6370   29.9960   44.0880 C   0  0  0  0  0  0  0  0  0  0  0  0
   58.2483   30.6887   43.4909 H   0  0  0  0  0  0  0  0  0  0  0  0
   56.8836   29.5258   43.4389 H   0  0  0  0  0  0  0  0  0  0  0  0
   58.5180   28.9380   44.6890 C   0  0  0  0  0  0  0  0  0  0  0  0
   57.9470   27.7760   45.2350 C   0  0  0  0  0  0  0  0  0  0  0  0
   56.8619   27.6115   45.1603 H   0  0  0  0  0  0  0  0  0  0  0  0
   58.7530   26.8280   45.8730 C   0  0  0  0  0  0  0  0  0  0  0  0
   58.3029   25.9150   46.2900 H   0  0  0  0  0  0  0  0  0  0  0  0
   60.1300   27.0400   45.9810 C   0  0  0  0  0  0  0  0  0  0  0  0
   60.7634   26.2928   46.4815 H   0  0  0  0  0  0  0  0  0  0  0  0
   60.7030   28.2000   45.4540 C   0  0  0  0  0  0  0  0  0  0  0  0
   61.7869   28.3659   45.5415 H   0  0  0  0  0  0  0  0  0  0  0  0
   59.9000   29.1510   44.8150 C   0  0  0  0  0  0  0  0  0  0  0  0
   60.3527   30.0682   44.4102 H   0  0  0  0  0  0  0  0  0  0  0  0
   58.5410   31.8340   47.3750 C   0  0  0  0  0  0  0  0  0  0  0  0
   58.5380   30.4260   47.4900 C   0  0  0  0  0  0  0  0  0  0  0  0
   58.1654   29.8128   46.6562 H   0  0  0  0  0  0  0  0  0  0  0  0
   59.0030   29.8040   48.6510 C   0  0  0  0  0  0  0  0  0  0  0  0
   58.9722   28.7077   48.7355 H   0  0  0  0  0  0  0  0  0  0  0  0
   59.5060   30.5680   49.7030 C   0  0  0  0  0  0  0  0  0  0  0  0
   59.8361   30.0782   50.6310 H   0  0  0  0  0  0  0  0  0  0  0  0
   59.5900   31.9540   49.5770 C   0  0  0  0  0  0  0  0  0  0  0  0
   60.0025   32.5547   50.4010 H   0  0  0  0  0  0  0  0  0  0  0  0
   59.1500   32.5870   48.4020 C   0  0  0  0  0  0  0  0  0  0  0  0
   59.3520   34.0690   48.2380 C   0  0  0  0  0  0  0  0  0  0  0  0
   60.2378   34.3733   48.8148 H   0  0  0  0  0  0  0  0  0  0  0  0
   58.4480   34.5791   48.6020 H   0  0  0  0  0  0  0  0  0  0  0  0
   62.0970   32.0990   47.1420 C   0  0  0  0  0  0  0  0  0  0  0  0
   61.6610   31.4339   46.3820 H   0  0  0  0  0  0  0  0  0  0  0  0
   62.9770   31.6580   48.1360 C   0  0  0  0  0  0  0  0  0  0  0  0
   63.2885   30.6084   48.2424 H   0  0  0  0  0  0  0  0  0  0  0  0
  1  2  1  0
  2  3  1  0
  3  4  1  0
  4  5  1  0
  5  6  1  0
  5  7  1  0
  5  8  1  0
  8  9  1  0
  9 10  1  0
  9 11  1  0
  9 12  1  0
 12 13  2  0
 13 14  1  0
 14 15  1  0
 15 16  1  0
 15 17  1  0
 15 18  1  0
 18 19  2  0
 19 20  1  0
 19 21  1  0
 21 22  1  0
 21 23  2  0
 23 24  1  0
 23 25  1  0
 25 26  1  0
 25 27  2  0
 27 28  1  0
 12 29  1  0
 29 30  2  0
 30 31  1  0
 30 32  1  0
 32 33  1  0
 32 34  2  0
 34 35  1  0
 34 36  1  0
 36 37  1  0
 36 38  2  0
 38 39  1  0
 39 40  1  0
 39 41  1  0
  4 42  2  0
 42 43  1  0
 42 44  1  0
 44 45  1  0
 44  2  2  0
 39  8  1  0
 27 18  1  0
 38 29  1  0
M  END
>  <UniqueID>  (80) 
67

>  <SMILES>  (80) 
c1ccc(CO/N=C2/CN(Cc3cccs3)Cc3ccccc32)cc1

>  <Energy>  (80) 
83.58355477204287

>  <Genealogy>  (80) 
c1ccc(CO/N=C2/CN(Cc3cccs3)Cc3ccccc32)cc1 (cis-trans isomerization)
c1ccc(CO/N=C2/CN(Cc3cccs3)Cc3ccccc32)cc1 (3D coordinates assigned)
c1ccc(CO/N=C2/CN(Cc3cccs3)Cc3ccccc32)cc1 (nonaromatic ring conformer: 83.58355477204287 kcal/mol)

>  <smiles>  (80) 
c1ccc(CON=C2CN(Cc3cccs3)Cc3ccccc32)cc1

>  <score_type>  (80) 
oracle

>  <origin>  (80) 
adg

>  <m_score__min__energy>  (80) 
-8.5

>  <m_primary>  (80) 
energy

$$$$
80:0
     RDKit          3D

 24 25  0  0  0  0  0  0  0  0999 V2000
   57.8640   31.7590   45.4840 C   0  0  0  0  0  0  0  0  0  0  0  0
   57.4160   30.7230   44.5530 N   0  0  0  0  0  0  0  0  0  0  0  0
   57.0200   31.0950   43.1940 C   0  0  0  0  0  0  0  0  0  0  0  0
   57.5720   29.3340   44.8870 C   0  0  0  0  0  0  0  0  0  0  0  0
   58.8640   28.7440   44.8940 C   0  0  0  0  0  0  0  0  0  0  0  0
   59.9550   29.4810   44.5680 F   0  0  0  0  0  0  0  0  0  0  0  0
   59.0290   27.3830   45.2140 C   0  0  0  0  0  0  0  0  0  0  0  0
   57.8900   26.6430   45.5220 C   0  0  0  0  0  0  0  0  0  0  0  0
   57.7300   25.3180   45.8720 C   0  0  0  0  0  0  0  0  0  0  0  0
   59.0390   24.1090   46.0290 S   0  0  0  0  0  0  0  0  0  0  0  0
   56.4230   25.0370   46.0890 N   0  0  0  0  0  0  0  0  0  0  0  0
   55.7670   26.2000   45.8720 C   0  0  0  0  0  0  0  0  0  0  0  0
   54.3910   26.3370   45.9940 O   0  0  0  0  0  0  0  0  0  0  0  0
   56.6440   27.2040   45.5200 C   0  0  0  0  0  0  0  0  0  0  0  0
   56.4400   28.5490   45.2120 C   0  0  0  0  0  0  0  0  0  0  0  0
   55.1640   29.0990   45.2430 O   0  0  0  0  0  0  0  0  0  0  0  0
   57.7143   31.4129   46.5174 H   0  0  0  0  0  0  0  0  0  0  0  0
   58.9316   31.9650   45.3173 H   0  0  0  0  0  0  0  0  0  0  0  0
   57.2829   32.6780   45.3173 H   0  0  0  0  0  0  0  0  0  0  0  0
   56.2189   31.8475   43.2385 H   0  0  0  0  0  0  0  0  0  0  0  0
   57.8867   31.5131   42.6610 H   0  0  0  0  0  0  0  0  0  0  0  0
   56.6568   30.2039   42.6610 H   0  0  0  0  0  0  0  0  0  0  0  0
   60.0262   26.9186   45.2206 H   0  0  0  0  0  0  0  0  0  0  0  0
   58.8320   23.6390   44.7180 H   0  0  0  0  0  0  0  0  0  0  0  0
  1  2  1  0
  2  3  1  0
  2  4  1  0
  4  5  1  0
  5  6  1  0
  5  7  2  0
  7  8  1  0
  8  9  2  0
  9 10  1  0
  9 11  1  0
 11 12  1  0
 12 13  1  0
 12 14  2  0
 14 15  1  0
 15 16  1  0
 15  4  2  0
 14  8  1  0
  1 17  1  0
  1 18  1  0
  1 19  1  0
  3 20  1  0
  3 21  1  0
  3 22  1  0
  7 23  1  0
 10 24  1  0
M  CHG  3  11  -1  13  -1  16  -1
M  END
>  <UniqueID>  (81) 
68

>  <SMILES>  (81) 
CN(C)c1c(F)cc2c(S)[n-]c([O-])c2c1[O-]

>  <Energy>  (81) 
62.014490553424906

>  <Genealogy>  (81) 
CN(C)c1c(F)cc2c(S)[n-]c([O-])c2c1[O-] (protonated)
CN(C)c1c(F)cc2c(S)[n-]c([O-])c2c1[O-] (3D coordinates assigned)
CN(C)c1c(F)cc2c(S)[n-]c([O-])c2c1[O-] (optimized conformer: 62.014490553424906 kcal/mol)

>  <smiles>  (81) 
CN(C)c1c(F)cc2c(S)[nH]c(O)c2c1O

>  <score_type>  (81) 
oracle

>  <origin>  (81) 
adg

>  <m_score__min__energy>  (81) 
-14.48

>  <m_primary>  (81) 
energy

$$$$
81:0
     RDKit          3D

 47 50  0  0  0  0  0  0  0  0999 V2000
   56.0440   26.3140   46.7070 O   0  0  0  0  0  0  0  0  0  0  0  0
   57.0250   27.0580   46.4330 C   0  0  0  0  0  0  0  0  0  0  0  0
   57.1080   27.6130   45.1090 N   0  0  0  0  0  0  0  0  0  0  0  0
   56.9970   28.8630   44.7720 C   0  0  0  0  0  0  0  0  0  0  0  0
   55.8570   29.5820   44.8660 N   0  0  0  0  0  0  0  0  0  0  0  0
   56.0300   30.8550   44.4250 C   0  0  0  0  0  0  0  0  0  0  0  0
   57.3120   31.1380   43.9780 C   0  0  0  0  0  0  0  0  0  0  0  0
   57.8830   32.7360   43.4030 S   0  0  0  0  0  0  0  0  0  0  0  0
   57.4500   33.6260   44.9390 C   0  0  0  0  0  0  0  0  0  0  0  0
   58.4870   33.4140   46.0090 C   0  0  0  0  0  0  0  0  0  0  0  0
   58.1060   32.9890   47.2810 C   0  0  0  0  0  0  0  0  0  0  0  0
   59.0790   32.8500   48.2690 C   0  0  0  0  0  0  0  0  0  0  0  0
   58.7220   32.4660   49.4170 O   0  0  0  0  0  0  0  0  0  0  0  0
   60.3940   33.1290   47.9910 N   0  0  0  0  0  0  0  0  0  0  0  0
   61.3540   32.9940   48.9590 C   0  0  0  0  0  0  0  0  0  0  0  0
   62.6920   33.2880   48.6870 C   0  0  0  0  0  0  0  0  0  0  0  0
   63.0560   33.7100   47.4140 C   0  0  0  0  0  0  0  0  0  0  0  0
   62.0850   33.8360   46.4240 C   0  0  0  0  0  0  0  0  0  0  0  0
   60.7470   33.5490   46.7250 C   0  0  0  0  0  0  0  0  0  0  0  0
   59.7950   33.6860   45.7550 N   0  0  0  0  0  0  0  0  0  0  0  0
   58.2630   29.7580   44.1210 S   0  0  0  0  0  0  0  0  0  0  0  0
   58.1050   27.2780   47.4770 C   0  0  0  0  0  0  0  0  0  0  0  0
   58.5880   28.7580   47.5090 C   0  0  0  0  0  0  0  0  0  0  0  0
   60.0490   28.9480   47.0630 C   0  0  0  0  0  0  0  0  0  0  0  0
   60.3600   28.1110   45.8200 C   0  0  0  0  0  0  0  0  0  0  0  0
   60.1490   26.6030   46.0600 C   0  0  0  0  0  0  0  0  0  0  0  0
   59.2690   26.2800   47.2840 C   0  0  0  0  0  0  0  0  0  0  0  0
   55.2204   31.5997   44.4226 H   0  0  0  0  0  0  0  0  0  0  0  0
   57.3763   34.7016   44.7205 H   0  0  0  0  0  0  0  0  0  0  0  0
   56.4897   33.2349   45.3061 H   0  0  0  0  0  0  0  0  0  0  0  0
   57.0516   32.7664   47.5018 H   0  0  0  0  0  0  0  0  0  0  0  0
   61.0673   32.6496   49.9636 H   0  0  0  0  0  0  0  0  0  0  0  0
   63.4526   33.1862   49.4752 H   0  0  0  0  0  0  0  0  0  0  0  0
   64.1072   33.9436   47.1893 H   0  0  0  0  0  0  0  0  0  0  0  0
   62.3668   34.1591   45.4110 H   0  0  0  0  0  0  0  0  0  0  0  0
   60.0690   34.0110   44.8000 H   0  0  0  0  0  0  0  0  0  0  0  0
   57.6657   27.0786   48.4655 H   0  0  0  0  0  0  0  0  0  0  0  0
   57.9427   29.3473   46.8409 H   0  0  0  0  0  0  0  0  0  0  0  0
   58.5284   29.0904   48.5559 H   0  0  0  0  0  0  0  0  0  0  0  0
   60.2188   30.0101   46.8324 H   0  0  0  0  0  0  0  0  0  0  0  0
   60.7087   28.6188   47.8794 H   0  0  0  0  0  0  0  0  0  0  0  0
   59.6996   28.4344   45.0019 H   0  0  0  0  0  0  0  0  0  0  0  0
   61.4194   28.2657   45.5675 H   0  0  0  0  0  0  0  0  0  0  0  0
   59.6705   26.1743   45.1671 H   0  0  0  0  0  0  0  0  0  0  0  0
   61.1408   26.1704   46.2580 H   0  0  0  0  0  0  0  0  0  0  0  0
   58.8477   25.2720   47.1555 H   0  0  0  0  0  0  0  0  0  0  0  0
   59.9102   26.3492   48.1751 H   0  0  0  0  0  0  0  0  0  0  0  0
  1  2  2  0
  2  3  1  0
  3  4  2  3
  4  5  1  0
  5  6  1  0
  6  7  2  0
  7  8  1  0
  8  9  1  0
  9 10  1  0
 10 11  2  0
 11 12  1  0
 12 13  2  0
 12 14  1  0
 14 15  1  0
 15 16  2  0
 16 17  1  0
 17 18  2  0
 18 19  1  0
 19 20  2  0
  7 21  1  0
  2 22  1  0
 22 23  1  0
 23 24  1  0
 24 25  1  0
 25 26  1  0
 26 27  1  0
 21  4  1  0
 27 22  1  0
 20 10  1  0
 19 14  1  0
  6 28  1  0
  9 29  1  0
  9 30  1  0
 11 31  1  0
 15 32  1  0
 16 33  1  0
 17 34  1  0
 18 35  1  0
 20 36  1  0
 22 37  1  0
 23 38  1  0
 23 39  1  0
 24 40  1  0
 24 41  1  0
 25 42  1  0
 25 43  1  0
 26 44  1  0
 26 45  1  0
 27 46  1  0
 27 47  1  0
M  CHG  2   5  -1  20   1
M  END
>  <UniqueID>  (82) 
69

>  <SMILES>  (82) 
O=C(N=c1[n-]cc(SCc2cc(=O)n3ccccc3[nH+]2)s1)C1CCCCC1

>  <Energy>  (82) 
89.56733519212727

>  <Genealogy>  (82) 
O=C(N=c1[n-]cc(SCc2cc(=O)n3ccccc3[nH+]2)s1)C1CCCCC1 (protonated)
O=C(N=c1[n-]cc(SCc2cc(=O)n3ccccc3[nH+]2)s1)C1CCCCC1 (3D coordinates assigned)
O=C(N=c1[n-]cc(SCc2cc(=O)n3ccccc3[nH+]2)s1)C1CCCCC1 (nonaromatic ring conformer: 89.56733519212727 kcal/mol)

>  <smiles>  (82) 
O=C(N=c1[nH]cc(SCc2cc(=O)n3ccccc3n2)s1)C1CCCCC1

>  <score_type>  (82) 
oracle

>  <origin>  (82) 
adg

>  <m_score__min__energy>  (82) 
-10.039999999999999

>  <m_primary>  (82) 
energy

$$$$
82:0
     RDKit          3D

 39 41  0  0  1  0  0  0  0  0999 V2000
   59.6800   35.2910   45.6420 C   0  0  0  0  0  0  0  0  0  0  0  0
   58.8200   34.1040   45.3270 C   0  0  0  0  0  0  0  0  0  0  0  0
   58.1970   33.4320   46.3570 C   0  0  0  0  0  0  0  0  0  0  0  0
   57.4030   32.3390   46.0850 C   0  0  0  0  0  0  0  0  0  0  0  0
   57.2590   31.9520   44.7570 C   0  0  0  0  0  0  0  0  0  0  0  0
   56.4360   30.8210   44.4950 N   0  0  0  0  0  0  0  0  0  0  0  0
   56.9860   29.6450   44.4960 C   0  0  0  0  0  0  0  0  0  0  0  0
   57.5330   29.1480   43.3710 N   0  0  0  0  0  0  0  0  0  0  0  0
   58.0990   27.9270   43.3890 C   0  0  0  0  0  0  0  0  0  0  0  0
   58.1290   27.1780   44.5430 C   0  0  0  0  0  0  0  0  0  0  0  0
   57.5610   27.6970   45.7120 C   0  0  0  0  0  0  0  0  0  0  0  0
   57.5640   27.0380   46.8110 N   0  0  0  0  0  0  0  0  0  0  0  0
   58.7790   27.0490   47.6170 C   0  0  0  0  0  0  0  0  0  0  0  0
   59.3520   28.4040   47.5310 C   0  0  0  0  0  0  0  0  0  0  0  0
   60.3100   28.7760   46.6150 C   0  0  0  0  0  0  0  0  0  0  0  0
   60.7940   30.0850   46.6110 C   0  0  0  0  0  0  0  0  0  0  0  0
   60.3380   31.0240   47.5020 C   0  0  0  0  0  0  0  0  0  0  0  0
   59.3750   30.6600   48.4250 C   0  0  0  0  0  0  0  0  0  0  0  0
   58.8890   29.3550   48.4360 C   0  0  0  0  0  0  0  0  0  0  0  0
   57.0040   28.9300   45.6390 N   0  0  0  0  0  0  0  0  0  0  0  0
   57.8790   32.6200   43.7300 C   0  0  0  0  0  0  0  0  0  0  0  0
   58.6460   33.6860   44.0630 N   0  0  0  0  0  0  0  0  0  0  0  0
   59.7625   35.4048   46.7330 H   0  0  0  0  0  0  0  0  0  0  0  0
   60.6816   35.1426   45.2121 H   0  0  0  0  0  0  0  0  0  0  0  0
   59.2269   36.1965   45.2121 H   0  0  0  0  0  0  0  0  0  0  0  0
   58.3336   33.7681   47.3954 H   0  0  0  0  0  0  0  0  0  0  0  0
   56.8986   31.7895   46.8935 H   0  0  0  0  0  0  0  0  0  0  0  0
   57.5370   29.6730   42.4690 H   0  0  0  0  0  0  0  0  0  0  0  0
   58.5439   27.5221   42.4681 H   0  0  0  0  0  0  0  0  0  0  0  0
   58.5947   26.1815   44.5466 H   0  0  0  0  0  0  0  0  0  0  0  0
   58.5386   26.8080   48.6630 H   0  0  0  0  0  0  0  0  0  0  0  0
   59.4958   26.2999   47.2496 H   0  0  0  0  0  0  0  0  0  0  0  0
   60.6927   28.0439   45.8886 H   0  0  0  0  0  0  0  0  0  0  0  0
   61.5601   30.3713   45.8753 H   0  0  0  0  0  0  0  0  0  0  0  0
   60.7326   32.0506   47.4821 H   0  0  0  0  0  0  0  0  0  0  0  0
   58.9946   31.3976   49.1470 H   0  0  0  0  0  0  0  0  0  0  0  0
   58.1246   29.0702   49.1740 H   0  0  0  0  0  0  0  0  0  0  0  0
   56.5580   29.3790   46.4900 H   0  0  0  0  0  0  0  0  0  0  0  0
   57.7583   32.3037   42.6834 H   0  0  0  0  0  0  0  0  0  0  0  0
  1  2  1  0
  2  3  2  0
  3  4  1  0
  4  5  2  0
  5  6  1  0
  6  7  2  0
  7  8  1  0
  8  9  1  0
  9 10  2  0
 10 11  1  0
 11 12  2  0
 12 13  1  0
 13 14  1  0
 14 15  2  0
 15 16  1  0
 16 17  2  0
 17 18  1  0
 18 19  2  0
 11 20  1  0
  5 21  1  0
 21 22  2  0
 22  2  1  0
 20  7  1  0
 19 14  1  0
  1 23  1  0
  1 24  1  0
  1 25  1  0
  3 26  1  0
  4 27  1  0
  8 28  1  0
  9 29  1  0
 10 30  1  0
 13 31  1  0
 13 32  1  0
 15 33  1  0
 16 34  1  0
 17 35  1  0
 18 36  1  0
 19 37  1  0
 20 38  1  0
 21 39  1  0
M  END
>  <smiles>  (83) 
Cc1ccc(N=c2[nH]ccc(=NCc3ccccc3)[nH]2)cn1

>  <score_type>  (83) 
oracle

>  <origin>  (83) 
adg

>  <m_score__min__energy>  (83) 
-8.4100000000000001

>  <m_primary>  (83) 
energy

$$$$
83:0
     RDKit          3D

 40 42  0  0  0  0  0  0  0  0999 V2000
   60.8520   32.8930   48.4280 C   0  0  0  0  0  0  0  0  0  0  0  0
   60.0910   33.3710   47.2260 C   0  0  0  0  0  0  0  0  0  0  0  0
   60.0280   34.7390   46.9300 C   0  0  0  0  0  0  0  0  0  0  0  0
   59.2860   35.1870   45.8350 C   0  0  0  0  0  0  0  0  0  0  0  0
   58.5910   34.2770   45.0360 C   0  0  0  0  0  0  0  0  0  0  0  0
   58.6280   32.9010   45.3280 C   0  0  0  0  0  0  0  0  0  0  0  0
   57.8820   31.9300   44.4860 C   0  0  0  0  0  0  0  0  0  0  0  0
   57.7560   32.1390   43.1000 C   0  0  0  0  0  0  0  0  0  0  0  0
   57.0370   31.2380   42.3130 C   0  0  0  0  0  0  0  0  0  0  0  0
   56.4440   30.1160   42.8940 C   0  0  0  0  0  0  0  0  0  0  0  0
   56.5810   29.8720   44.2660 C   0  0  0  0  0  0  0  0  0  0  0  0
   55.9470   28.7170   44.8390 N   0  0  0  0  0  0  0  0  0  0  0  0
   56.6290   27.7390   45.6450 C   0  0  0  0  0  0  0  0  0  0  0  0
   57.8450   27.8870   45.9340 O   0  0  0  0  0  0  0  0  0  0  0  0
   55.9340   26.5970   46.1590 N   0  0  0  0  0  0  0  0  0  0  0  0
   56.0840   25.2460   45.7010 C   0  0  0  0  0  0  0  0  0  0  0  0
   57.3500   24.6460   45.5800 C   0  0  0  0  0  0  0  0  0  0  0  0
   57.4620   23.3160   45.1630 C   0  0  0  0  0  0  0  0  0  0  0  0
   56.3120   22.5710   44.8820 C   0  0  0  0  0  0  0  0  0  0  0  0
   56.4520   20.9010   44.3620 Cl  0  0  0  0  0  0  0  0  0  0  0  0
   55.0490   23.1550   45.0280 C   0  0  0  0  0  0  0  0  0  0  0  0
   54.9370   24.4860   45.4450 C   0  0  0  0  0  0  0  0  0  0  0  0
   57.2830   30.7950   45.0620 C   0  0  0  0  0  0  0  0  0  0  0  0
   59.3780   32.4570   46.4330 C   0  0  0  0  0  0  0  0  0  0  0  0
   60.3346   33.2180   49.3427 H   0  0  0  0  0  0  0  0  0  0  0  0
   60.9119   31.7948   48.4112 H   0  0  0  0  0  0  0  0  0  0  0  0
   61.8673   33.3159   48.4112 H   0  0  0  0  0  0  0  0  0  0  0  0
   60.5645   35.4622   47.5619 H   0  0  0  0  0  0  0  0  0  0  0  0
   59.2489   36.2612   45.6010 H   0  0  0  0  0  0  0  0  0  0  0  0
   58.0113   34.6377   44.1735 H   0  0  0  0  0  0  0  0  0  0  0  0
   58.2268   33.0173   42.6343 H   0  0  0  0  0  0  0  0  0  0  0  0
   56.9374   31.4127   41.2315 H   0  0  0  0  0  0  0  0  0  0  0  0
   55.8653   29.4190   42.2701 H   0  0  0  0  0  0  0  0  0  0  0  0
   54.9450   28.5500   44.5920 H   0  0  0  0  0  0  0  0  0  0  0  0
   58.2555   25.2250   45.8142 H   0  0  0  0  0  0  0  0  0  0  0  0
   58.4551   22.8553   45.0559 H   0  0  0  0  0  0  0  0  0  0  0  0
   54.1437   22.5676   44.8149 H   0  0  0  0  0  0  0  0  0  0  0  0
   53.9420   24.9375   45.5723 H   0  0  0  0  0  0  0  0  0  0  0  0
   57.3644   30.6276   46.1461 H   0  0  0  0  0  0  0  0  0  0  0  0
   59.4060   31.3849   46.6777 H   0  0  0  0  0  0  0  0  0  0  0  0
  1  2  1  0
  2  3  2  0
  3  4  1  0
  4  5  2  0
  5  6  1  0
  6  7  1  0
  7  8  2  0
  8  9  1  0
  9 10  2  0
 10 11  1  0
 11 12  1  0
 12 13  1  0
 13 14  2  0
 13 15  1  0
 15 16  1  0
 16 17  2  0
 17 18  1  0
 18 19  2  0
 19 20  1  0
 19 21  1  0
 21 22  2  0
 11 23  2  0
  6 24  2  0
 24  2  1  0
 23  7  1  0
 22 16  1  0
  1 25  1  0
  1 26  1  0
  1 27  1  0
  3 28  1  0
  4 29  1  0
  5 30  1  0
  8 31  1  0
  9 32  1  0
 10 33  1  0
 12 34  1  0
 17 35  1  0
 18 36  1  0
 21 37  1  0
 22 38  1  0
 23 39  1  0
 24 40  1  0
M  CHG  1  15  -1
M  END
>  <UniqueID>  (84) 
70

>  <SMILES>  (84) 
Cc1cccc(-c2cccc(NC(=O)[N-]c3ccc(Cl)cc3)c2)c1

>  <Energy>  (84) 
55.40841811020732

>  <Genealogy>  (84) 
Cc1cccc(-c2cccc(NC(=O)[N-]c3ccc(Cl)cc3)c2)c1 (protonated)
Cc1cccc(-c2cccc(NC(=O)[N-]c3ccc(Cl)cc3)c2)c1 (3D coordinates assigned)
Cc1cccc(-c2cccc(NC(=O)[N-]c3ccc(Cl)cc3)c2)c1 (optimized conformer: 55.40841811020732 kcal/mol)

>  <smiles>  (84) 
Cc1cccc(-c2cccc(NC(=O)Nc3ccc(Cl)cc3)c2)c1

>  <score_type>  (84) 
oracle

>  <origin>  (84) 
adg

>  <m_score__min__energy>  (84) 
-10.960000000000001

>  <m_primary>  (84) 
energy

$$$$
84:0
     RDKit          3D

 45 48  0  0  0  0  0  0  0  0999 V2000
   65.7990   31.4090   52.8440 C   0  0  0  0  0  0  0  0  0  0  0  0
   66.7820   32.3330   52.2520 N   0  0  0  0  0  0  0  0  0  0  0  0
   66.3110   33.7350   52.2890 C   0  0  0  0  0  0  0  0  0  0  0  0
   65.1070   33.9590   51.3570 C   0  0  0  0  0  0  0  0  0  0  0  0
   65.2560   33.1810   50.1220 N   0  0  0  0  0  0  0  0  0  0  0  0
   64.0940   32.7920   49.3670 C   0  0  0  0  0  0  0  0  0  0  0  0
   63.7940   33.4360   48.1560 C   0  0  0  0  0  0  0  0  0  0  0  0
   62.6800   33.0540   47.4050 C   0  0  0  0  0  0  0  0  0  0  0  0
   61.8410   32.0180   47.8500 C   0  0  0  0  0  0  0  0  0  0  0  0
   60.6560   31.6120   47.0530 C   0  0  0  0  0  0  0  0  0  0  0  0
   60.3330   30.2450   46.8780 C   0  0  0  0  0  0  0  0  0  0  0  0
   59.2140   29.8610   46.1260 C   0  0  0  0  0  0  0  0  0  0  0  0
   58.4350   30.8700   45.5560 C   0  0  0  0  0  0  0  0  0  0  0  0
   57.2930   30.8040   44.7730 C   0  0  0  0  0  0  0  0  0  0  0  0
   56.5380   29.6300   44.2950 C   0  0  0  0  0  0  0  0  0  0  0  0
   55.2600   29.3100   44.8350 N   0  0  0  0  0  0  0  0  0  0  0  0
   57.0300   28.8980   43.3950 O   0  0  0  0  0  0  0  0  0  0  0  0
   56.9840   32.1360   44.5130 C   0  0  0  0  0  0  0  0  0  0  0  0
   57.8900   32.9460   45.1070 N   0  0  0  0  0  0  0  0  0  0  0  0
   58.7550   32.1630   45.7310 N   0  0  0  0  0  0  0  0  0  0  0  0
   59.8260   32.5800   46.4510 C   0  0  0  0  0  0  0  0  0  0  0  0
   62.1430   31.3730   49.0620 C   0  0  0  0  0  0  0  0  0  0  0  0
   63.2600   31.7530   49.8140 C   0  0  0  0  0  0  0  0  0  0  0  0
   63.5090   31.1230   50.9880 F   0  0  0  0  0  0  0  0  0  0  0  0
   66.5920   32.7080   49.7480 C   0  0  0  0  0  0  0  0  0  0  0  0
   67.2110   31.8920   50.8980 C   0  0  0  0  0  0  0  0  0  0  0  0
   65.8580   31.4645   53.9410 H   0  0  0  0  0  0  0  0  0  0  0  0
   64.7874   31.6907   52.5165 H   0  0  0  0  0  0  0  0  0  0  0  0
   66.0177   30.3819   52.5165 H   0  0  0  0  0  0  0  0  0  0  0  0
   66.0151   33.9840   53.3188 H   0  0  0  0  0  0  0  0  0  0  0  0
   67.1330   34.3807   51.9463 H   0  0  0  0  0  0  0  0  0  0  0  0
   64.1876   33.6451   51.8729 H   0  0  0  0  0  0  0  0  0  0  0  0
   65.0536   35.0268   51.0983 H   0  0  0  0  0  0  0  0  0  0  0  0
   64.4420   34.2485   47.7955 H   0  0  0  0  0  0  0  0  0  0  0  0
   62.4577   33.5679   46.4582 H   0  0  0  0  0  0  0  0  0  0  0  0
   60.9684   29.4739   47.3381 H   0  0  0  0  0  0  0  0  0  0  0  0
   58.9581   28.7999   45.9895 H   0  0  0  0  0  0  0  0  0  0  0  0
   55.1660   28.6430   45.6340 H   0  0  0  0  0  0  0  0  0  0  0  0
   56.1287   32.4795   43.9127 H   0  0  0  0  0  0  0  0  0  0  0  0
   60.0430   33.6525   46.5632 H   0  0  0  0  0  0  0  0  0  0  0  0
   61.4944   30.5611   49.4229 H   0  0  0  0  0  0  0  0  0  0  0  0
   66.5149   32.0731   48.8530 H   0  0  0  0  0  0  0  0  0  0  0  0
   67.2339   33.5766   49.5395 H   0  0  0  0  0  0  0  0  0  0  0  0
   66.9215   30.8386   50.7695 H   0  0  0  0  0  0  0  0  0  0  0  0
   68.2994   32.0418   50.8446 H   0  0  0  0  0  0  0  0  0  0  0  0
  1  2  1  0
  2  3  1  0
  3  4  1  0
  4  5  1  0
  5  6  1  0
  6  7  2  0
  7  8  1  0
  8  9  2  0
  9 10  1  0
 10 11  1  0
 11 12  2  0
 12 13  1  0
 13 14  2  0
 14 15  1  0
 15 16  1  0
 15 17  2  0
 14 18  1  0
 18 19  2  0
 19 20  1  0
 20 21  1  0
  9 22  1  0
 22 23  2  0
 23 24  1  0
  5 25  1  0
 25 26  1  0
 26  2  1  0
 23  6  1  0
 21 10  2  0
 20 13  1  0
  1 27  1  0
  1 28  1  0
  1 29  1  0
  3 30  1  0
  3 31  1  0
  4 32  1  0
  4 33  1  0
  7 34  1  0
  8 35  1  0
 11 36  1  0
 12 37  1  0
 16 38  1  0
 18 39  1  0
 21 40  1  0
 22 41  1  0
 25 42  1  0
 25 43  1  0
 26 44  1  0
 26 45  1  0
M  CHG  1  16  -1
M  END
>  <UniqueID>  (85) 
71

>  <SMILES>  (85) 
CN1CCN(c2ccc(-c3ccc4c(C([NH-])=O)cnn4c3)cc2F)CC1

>  <Energy>  (85) 
101.6317390048712

>  <Genealogy>  (85) 
CN1CCN(c2ccc(-c3ccc4c(C([NH-])=O)cnn4c3)cc2F)CC1 (protonated)
CN1CCN(c2ccc(-c3ccc4c(C([NH-])=O)cnn4c3)cc2F)CC1 (3D coordinates assigned)
CN1CCN(c2ccc(-c3ccc4c(C([NH-])=O)cnn4c3)cc2F)CC1 (nonaromatic ring conformer: 101.6317390048712 kcal/mol)

>  <smiles>  (85) 
CN1CCN(c2ccc(-c3ccc4c(C(N)=O)cnn4c3)cc2F)CC1

>  <score_type>  (85) 
oracle

>  <origin>  (85) 
adg

>  <m_score__min__energy>  (85) 
-10.42

>  <m_primary>  (85) 
energy

$$$$
85:0
     RDKit          3D

 47 49  0  0  0  0  0  0  0  0999 V2000
   59.2350   24.1900   45.6970 C   0  0  0  0  0  0  0  0  0  0  0  0
   59.6410   25.4810   46.1390 O   0  0  0  0  0  0  0  0  0  0  0  0
   59.0700   26.6840   45.6990 C   0  0  0  0  0  0  0  0  0  0  0  0
   57.6780   26.8240   45.7620 C   0  0  0  0  0  0  0  0  0  0  0  0
   57.0620   28.0010   45.3300 C   0  0  0  0  0  0  0  0  0  0  0  0
   57.8350   29.0590   44.8360 C   0  0  0  0  0  0  0  0  0  0  0  0
   57.0750   30.5350   44.2450 S   0  0  0  0  0  0  0  0  0  0  0  0
   55.5950   30.4460   44.4920 O   0  0  0  0  0  0  0  0  0  0  0  0
   57.3100   30.6870   42.7670 O   0  0  0  0  0  0  0  0  0  0  0  0
   57.7450   31.8970   45.1060 N   0  0  0  0  0  0  0  0  0  0  0  0
   58.2790   31.4690   46.4140 C   0  0  0  0  0  0  0  0  0  0  0  0
   58.3900   32.6220   47.4410 C   0  0  0  0  0  0  0  0  0  0  0  0
   58.4180   33.9690   46.8390 N   0  0  0  0  0  0  0  0  0  0  0  0
   60.0250   34.5090   46.3960 S   0  0  0  0  0  0  0  0  0  0  0  0
   60.4170   33.8600   45.0970 O   0  0  0  0  0  0  0  0  0  0  0  0
   60.0000   35.9950   46.1630 O   0  0  0  0  0  0  0  0  0  0  0  0
   61.2440   34.1310   47.6240 C   0  0  0  0  0  0  0  0  0  0  0  0
   60.9070   34.1530   48.9900 C   0  0  0  0  0  0  0  0  0  0  0  0
   59.6550   34.4870   49.3940 F   0  0  0  0  0  0  0  0  0  0  0  0
   61.8590   33.8130   49.9570 C   0  0  0  0  0  0  0  0  0  0  0  0
   63.1540   33.4590   49.5730 C   0  0  0  0  0  0  0  0  0  0  0  0
   63.5050   33.4540   48.2230 C   0  0  0  0  0  0  0  0  0  0  0  0
   62.5600   33.7930   47.2480 C   0  0  0  0  0  0  0  0  0  0  0  0
   62.9330   33.7760   45.9450 F   0  0  0  0  0  0  0  0  0  0  0  0
   57.3910   34.2290   45.8050 C   0  0  0  0  0  0  0  0  0  0  0  0
   56.7360   32.9520   45.2610 C   0  0  0  0  0  0  0  0  0  0  0  0
   59.2270   28.9250   44.7680 C   0  0  0  0  0  0  0  0  0  0  0  0
   59.8450   27.7480   45.1960 C   0  0  0  0  0  0  0  0  0  0  0  0
   59.0338   23.5504   46.5690 H   0  0  0  0  0  0  0  0  0  0  0  0
   58.3220   24.2805   45.0902 H   0  0  0  0  0  0  0  0  0  0  0  0
   60.0355   23.7416   45.0902 H   0  0  0  0  0  0  0  0  0  0  0  0
   57.0644   26.0000   46.1551 H   0  0  0  0  0  0  0  0  0  0  0  0
   55.9672   28.0969   45.3780 H   0  0  0  0  0  0  0  0  0  0  0  0
   58.5250   32.2580   44.5150 H   0  0  0  0  0  0  0  0  0  0  0  0
   57.6125   30.6975   46.8269 H   0  0  0  0  0  0  0  0  0  0  0  0
   59.2970   31.0902   46.2404 H   0  0  0  0  0  0  0  0  0  0  0  0
   57.5251   32.5649   48.1182 H   0  0  0  0  0  0  0  0  0  0  0  0
   59.3496   32.4892   47.9622 H   0  0  0  0  0  0  0  0  0  0  0  0
   61.5867   33.8246   51.0227 H   0  0  0  0  0  0  0  0  0  0  0  0
   63.8977   33.1840   50.3354 H   0  0  0  0  0  0  0  0  0  0  0  0
   64.5281   33.1827   47.9237 H   0  0  0  0  0  0  0  0  0  0  0  0
   56.6068   34.8631   46.2443 H   0  0  0  0  0  0  0  0  0  0  0  0
   57.8976   34.7189   44.9604 H   0  0  0  0  0  0  0  0  0  0  0  0
   55.9597   32.6133   45.9629 H   0  0  0  0  0  0  0  0  0  0  0  0
   56.2848   33.1669   44.2811 H   0  0  0  0  0  0  0  0  0  0  0  0
   59.8374   29.7515   44.3752 H   0  0  0  0  0  0  0  0  0  0  0  0
   60.9393   27.6513   45.1403 H   0  0  0  0  0  0  0  0  0  0  0  0
  1  2  1  0
  2  3  1  0
  3  4  2  0
  4  5  1  0
  5  6  2  0
  6  7  1  0
  7  8  2  0
  7  9  2  0
  7 10  1  0
 10 11  1  0
 11 12  1  0
 12 13  1  0
 13 14  1  0
 14 15  2  0
 14 16  2  0
 14 17  1  0
 17 18  2  0
 18 19  1  0
 18 20  1  0
 20 21  2  0
 21 22  1  0
 22 23  2  0
 23 24  1  0
 13 25  1  0
 25 26  1  0
  6 27  1  0
 27 28  2  0
 28  3  1  0
 26 10  1  0
 23 17  1  0
  1 29  1  0
  1 30  1  0
  1 31  1  0
  4 32  1  0
  5 33  1  0
 10 34  1  0
 11 35  1  0
 11 36  1  0
 12 37  1  0
 12 38  1  0
 20 39  1  0
 21 40  1  0
 22 41  1  0
 25 42  1  0
 25 43  1  0
 26 44  1  0
 26 45  1  0
 27 46  1  0
 28 47  1  0
M  CHG  1  10   1
M  END
>  <UniqueID>  (86) 
72

>  <SMILES>  (86) 
COc1ccc(S(=O)(=O)[NH+]2CCN(S(=O)(=O)c3c(F)cccc3F)CC2)cc1

>  <Energy>  (86) 
57.8163996232776

>  <Genealogy>  (86) 
COc1ccc(S(=O)(=O)[NH+]2CCN(S(=O)(=O)c3c(F)cccc3F)CC2)cc1 (protonated)
COc1ccc(S(=O)(=O)[NH+]2CCN(S(=O)(=O)c3c(F)cccc3F)CC2)cc1 (3D coordinates assigned)
COc1ccc(S(=O)(=O)[NH+]2CCN(S(=O)(=O)c3c(F)cccc3F)CC2)cc1 (nonaromatic ring conformer: 57.8163996232776 kcal/mol)

>  <smiles>  (86) 
COc1ccc(S(=O)(=O)N2CCN(S(=O)(=O)c3c(F)cccc3F)CC2)cc1

>  <score_type>  (86) 
oracle

>  <origin>  (86) 
adg

>  <m_score__min__energy>  (86) 
-7.25

>  <m_primary>  (86) 
energy

$$$$
86:0
     RDKit          3D

 34 35  0  0  0  0  0  0  0  0999 V2000
   56.9690   24.9370   46.4710 C   0  0  0  0  0  0  0  0  0  0  0  0
   56.3600   26.2690   46.1490 C   0  0  0  0  0  0  0  0  0  0  0  0
   55.1080   26.3360   46.0060 O   0  0  0  0  0  0  0  0  0  0  0  0
   57.1870   27.4960   45.9970 C   0  0  0  0  0  0  0  0  0  0  0  0
   58.1320   27.8680   46.9730 C   0  0  0  0  0  0  0  0  0  0  0  0
   58.9010   29.0240   46.8140 C   0  0  0  0  0  0  0  0  0  0  0  0
   58.7520   29.8250   45.6690 C   0  0  0  0  0  0  0  0  0  0  0  0
   59.4930   31.0010   45.4830 O   0  0  0  0  0  0  0  0  0  0  0  0
   59.5370   32.0840   46.3730 C   0  0  0  0  0  0  0  0  0  0  0  0
   60.5010   32.1450   47.3970 C   0  0  0  0  0  0  0  0  0  0  0  0
   60.5390   33.2360   48.2660 C   0  0  0  0  0  0  0  0  0  0  0  0
   59.6250   34.2810   48.1190 C   0  0  0  0  0  0  0  0  0  0  0  0
   58.6740   34.2390   47.0950 C   0  0  0  0  0  0  0  0  0  0  0  0
   58.6300   33.1490   46.2120 C   0  0  0  0  0  0  0  0  0  0  0  0
   57.4140   33.1000   44.9340 S   0  0  0  0  0  0  0  0  0  0  0  0
   58.2070   32.7710   43.3750 C   0  0  0  0  0  0  0  0  0  0  0  0
   56.6940   34.4170   44.8710 O   0  0  0  0  0  0  0  0  0  0  0  0
   56.4120   32.0140   45.2110 O   0  0  0  0  0  0  0  0  0  0  0  0
   57.8020   29.4710   44.7080 C   0  0  0  0  0  0  0  0  0  0  0  0
   57.0300   28.3160   44.8640 C   0  0  0  0  0  0  0  0  0  0  0  0
   57.0253   24.8138   47.5626 H   0  0  0  0  0  0  0  0  0  0  0  0
   56.3474   24.1366   46.0433 H   0  0  0  0  0  0  0  0  0  0  0  0
   57.9810   24.8835   46.0433 H   0  0  0  0  0  0  0  0  0  0  0  0
   58.2659   27.2431   47.8683 H   0  0  0  0  0  0  0  0  0  0  0  0
   59.6272   29.3086   47.5897 H   0  0  0  0  0  0  0  0  0  0  0  0
   61.2284   31.3280   47.5127 H   0  0  0  0  0  0  0  0  0  0  0  0
   61.2905   33.2728   49.0684 H   0  0  0  0  0  0  0  0  0  0  0  0
   59.6531   35.1374   48.8088 H   0  0  0  0  0  0  0  0  0  0  0  0
   57.9563   35.0648   46.9808 H   0  0  0  0  0  0  0  0  0  0  0  0
   59.2095   32.3551   43.5541 H   0  0  0  0  0  0  0  0  0  0  0  0
   57.6066   32.0477   42.8037 H   0  0  0  0  0  0  0  0  0  0  0  0
   58.2950   33.7069   42.8037 H   0  0  0  0  0  0  0  0  0  0  0  0
   57.6602   30.1063   43.8212 H   0  0  0  0  0  0  0  0  0  0  0  0
   56.2927   28.0455   44.0938 H   0  0  0  0  0  0  0  0  0  0  0  0
  1  2  1  0
  2  3  2  0
  2  4  1  0
  4  5  2  0
  5  6  1  0
  6  7  2  0
  7  8  1  0
  8  9  1  0
  9 10  2  0
 10 11  1  0
 11 12  2  0
 12 13  1  0
 13 14  2  0
 14 15  1  0
 15 16  1  0
 15 17  2  0
 15 18  2  0
  7 19  1  0
 19 20  2  0
 20  4  1  0
 14  9  1  0
  1 21  1  0
  1 22  1  0
  1 23  1  0
  5 24  1  0
  6 25  1  0
 10 26  1  0
 11 27  1  0
 12 28  1  0
 13 29  1  0
 16 30  1  0
 16 31  1  0
 16 32  1  0
 19 33  1  0
 20 34  1  0
M  END
>  <UniqueID>  (87) 
73

>  <SMILES>  (87) 
CC(=O)c1ccc(Oc2ccccc2S(C)(=O)=O)cc1

>  <Energy>  (87) 
38.64208838963221

>  <Genealogy>  (87) 
CC(=O)c1ccc(Oc2ccccc2S(C)(=O)=O)cc1 (3D coordinates assigned)
CC(=O)c1ccc(Oc2ccccc2S(C)(=O)=O)cc1 (optimized conformer: 38.64208838963221 kcal/mol)

>  <smiles>  (87) 
CC(=O)c1ccc(Oc2ccccc2S(C)(=O)=O)cc1

>  <score_type>  (87) 
oracle

>  <origin>  (87) 
adg

>  <m_score__min__energy>  (87) 
-7.9000000000000004

>  <m_primary>  (87) 
energy

$$$$
87:0
     RDKit          3D

 42 45  0  0  0  0  0  0  0  0999 V2000
   56.6480   22.2200   42.9760 C   0  0  0  0  0  0  0  0  0  0  0  0
   57.3730   21.1110   43.4130 C   0  0  0  0  0  0  0  0  0  0  0  0
   58.3310   21.2540   44.3690 N   0  0  0  0  0  0  0  0  0  0  0  0
   58.6100   22.4660   44.9210 C   0  0  0  0  0  0  0  0  0  0  0  0
   57.9090   23.6100   44.5070 C   0  0  0  0  0  0  0  0  0  0  0  0
   58.1990   24.9490   45.1360 C   0  0  0  0  0  0  0  0  0  0  0  0
   57.3380   26.0020   44.5580 N   0  0  0  0  0  0  0  0  0  0  0  0
   58.0650   26.8050   43.5390 C   0  0  0  0  0  0  0  0  0  0  0  0
   57.5220   28.2320   43.4060 C   0  0  0  0  0  0  0  0  0  0  0  0
   57.6030   28.9100   44.7050 N   0  0  0  0  0  0  0  0  0  0  0  0
   57.7850   30.3410   44.7610 C   0  0  0  0  0  0  0  0  0  0  0  0
   57.9370   31.1100   43.5730 C   0  0  0  0  0  0  0  0  0  0  0  0
   58.1100   32.5030   43.6510 C   0  0  0  0  0  0  0  0  0  0  0  0
   58.1230   33.0770   44.9160 C   0  0  0  0  0  0  0  0  0  0  0  0
   58.2660   34.3830   45.3270 C   0  0  0  0  0  0  0  0  0  0  0  0
   58.1890   34.3350   46.7180 C   0  0  0  0  0  0  0  0  0  0  0  0
   58.0070   33.0640   47.1470 N   0  0  0  0  0  0  0  0  0  0  0  0
   57.9700   32.3160   46.0350 C   0  0  0  0  0  0  0  0  0  0  0  0
   57.8020   30.9710   45.9790 N   0  0  0  0  0  0  0  0  0  0  0  0
   57.4220   28.1160   45.9280 C   0  0  0  0  0  0  0  0  0  0  0  0
   56.6800   26.8080   45.6180 C   0  0  0  0  0  0  0  0  0  0  0  0
   56.9160   23.4740   43.5270 C   0  0  0  0  0  0  0  0  0  0  0  0
   55.8723   22.1071   42.2043 H   0  0  0  0  0  0  0  0  0  0  0  0
   57.1698   20.1188   42.9839 H   0  0  0  0  0  0  0  0  0  0  0  0
   58.8620   20.4130   44.6890 H   0  0  0  0  0  0  0  0  0  0  0  0
   59.3876   22.5499   45.6945 H   0  0  0  0  0  0  0  0  0  0  0  0
   58.0132   24.8860   46.2184 H   0  0  0  0  0  0  0  0  0  0  0  0
   59.2499   25.2084   44.9404 H   0  0  0  0  0  0  0  0  0  0  0  0
   59.1257   26.8583   43.8255 H   0  0  0  0  0  0  0  0  0  0  0  0
   57.9280   26.3077   42.5675 H   0  0  0  0  0  0  0  0  0  0  0  0
   58.1202   28.7843   42.6663 H   0  0  0  0  0  0  0  0  0  0  0  0
   56.4731   28.1957   43.0765 H   0  0  0  0  0  0  0  0  0  0  0  0
   57.9191   30.6133   42.5917 H   0  0  0  0  0  0  0  0  0  0  0  0
   58.2305   33.1150   42.7450 H   0  0  0  0  0  0  0  0  0  0  0  0
   58.4098   35.2717   44.6949 H   0  0  0  0  0  0  0  0  0  0  0  0
   58.2658   35.2116   47.3780 H   0  0  0  0  0  0  0  0  0  0  0  0
   57.9150   32.7380   48.1340 H   0  0  0  0  0  0  0  0  0  0  0  0
   58.4079   27.8799   46.3550 H   0  0  0  0  0  0  0  0  0  0  0  0
   56.8267   28.7001   46.6453 H   0  0  0  0  0  0  0  0  0  0  0  0
   56.6331   26.2058   46.5373 H   0  0  0  0  0  0  0  0  0  0  0  0
   55.6788   27.0779   45.2509 H   0  0  0  0  0  0  0  0  0  0  0  0
   56.3484   24.3549   43.1925 H   0  0  0  0  0  0  0  0  0  0  0  0
  1  2  2  0
  2  3  1  0
  3  4  2  0
  4  5  1  0
  5  6  1  0
  6  7  1  0
  7  8  1  0
  8  9  1  0
  9 10  1  0
 10 11  1  0
 11 12  2  0
 12 13  1  0
 13 14  2  0
 14 15  1  0
 15 16  2  0
 16 17  1  0
 17 18  1  0
 18 19  2  0
 10 20  1  0
 20 21  1  0
  5 22  2  0
 22  1  1  0
 21  7  1  0
 19 11  1  0
 18 14  1  0
  1 23  1  0
  2 24  1  0
  3 25  1  0
  4 26  1  0
  6 27  1  0
  6 28  1  0
  8 29  1  0
  8 30  1  0
  9 31  1  0
  9 32  1  0
 12 33  1  0
 13 34  1  0
 15 35  1  0
 16 36  1  0
 17 37  1  0
 20 38  1  0
 20 39  1  0
 21 40  1  0
 21 41  1  0
 22 42  1  0
M  CHG  1   3   1
M  END
>  <UniqueID>  (88) 
74

>  <SMILES>  (88) 
c1c[nH+]cc(CN2CCN(c3ccc4cc[nH]c4n3)CC2)c1

>  <Energy>  (88) 
89.07837615877276

>  <Genealogy>  (88) 
c1c[nH+]cc(CN2CCN(c3ccc4cc[nH]c4n3)CC2)c1 (protonated)
c1c[nH+]cc(CN2CCN(c3ccc4cc[nH]c4n3)CC2)c1 (3D coordinates assigned)
c1c[nH+]cc(CN2CCN(c3ccc4cc[nH]c4n3)CC2)c1 (nonaromatic ring conformer: 89.07837615877276 kcal/mol)

>  <smiles>  (88) 
c1cncc(CN2CCN(c3ccc4cc[nH]c4n3)CC2)c1

>  <score_type>  (88) 
oracle

>  <origin>  (88) 
adg

>  <m_score__min__energy>  (88) 
-6.5099999999999998

>  <m_primary>  (88) 
energy

$$$$
88:0
     RDKit          3D

 36 37  0  0  0  0  0  0  0  0999 V2000
   64.5020   32.7570   49.1930 C   0  0  0  0  0  0  0  0  0  0  0  0
   63.8900   32.8520   47.9110 O   0  0  0  0  0  0  0  0  0  0  0  0
   62.5160   32.6970   47.6730 C   0  0  0  0  0  0  0  0  0  0  0  0
   61.7060   33.8350   47.7080 C   0  0  0  0  0  0  0  0  0  0  0  0
   60.3340   33.7360   47.4790 C   0  0  0  0  0  0  0  0  0  0  0  0
   59.7430   32.4910   47.2110 C   0  0  0  0  0  0  0  0  0  0  0  0
   58.2540   32.4010   46.9910 C   0  0  0  0  0  0  0  0  0  0  0  0
   57.9610   32.0680   45.5960 N   0  0  0  0  0  0  0  0  0  0  0  0
   57.3210   30.9680   45.2330 N   0  0  0  0  0  0  0  0  0  0  0  0
   57.1730   31.0100   43.8940 C   0  0  0  0  0  0  0  0  0  0  0  0
   56.5420   29.9220   43.0930 C   0  0  0  0  0  0  0  0  0  0  0  0
   57.7460   32.1600   43.3870 C   0  0  0  0  0  0  0  0  0  0  0  0
   58.2390   32.8110   44.5010 C   0  0  0  0  0  0  0  0  0  0  0  0
   58.8970   34.1540   44.5010 C   0  0  0  0  0  0  0  0  0  0  0  0
   60.5470   31.3330   47.1710 C   0  0  0  0  0  0  0  0  0  0  0  0
   59.9390   30.0960   46.8990 O   0  0  0  0  0  0  0  0  0  0  0  0
   60.2000   29.3000   45.7470 C   0  0  0  0  0  0  0  0  0  0  0  0
   61.9330   31.4440   47.4040 C   0  0  0  0  0  0  0  0  0  0  0  0
   63.7368   32.8758   49.9743 H   0  0  0  0  0  0  0  0  0  0  0  0
   64.9832   31.7734   49.2976 H   0  0  0  0  0  0  0  0  0  0  0  0
   65.2588   33.5484   49.2976 H   0  0  0  0  0  0  0  0  0  0  0  0
   62.1544   34.8173   47.9180 H   0  0  0  0  0  0  0  0  0  0  0  0
   59.7095   34.6410   47.5086 H   0  0  0  0  0  0  0  0  0  0  0  0
   57.8381   31.6201   47.6446 H   0  0  0  0  0  0  0  0  0  0  0  0
   57.8000   33.3747   47.2272 H   0  0  0  0  0  0  0  0  0  0  0  0
   56.1073   29.1726   43.7708 H   0  0  0  0  0  0  0  0  0  0  0  0
   55.7496   30.3460   42.4587 H   0  0  0  0  0  0  0  0  0  0  0  0
   57.3035   29.4448   42.4587 H   0  0  0  0  0  0  0  0  0  0  0  0
   57.7978   32.4833   42.3369 H   0  0  0  0  0  0  0  0  0  0  0  0
   59.0583   34.4833   45.5381 H   0  0  0  0  0  0  0  0  0  0  0  0
   59.8649   34.0881   43.9825 H   0  0  0  0  0  0  0  0  0  0  0  0
   58.2518   34.8784   43.9825 H   0  0  0  0  0  0  0  0  0  0  0  0
   60.5285   28.2981   46.0604 H   0  0  0  0  0  0  0  0  0  0  0  0
   59.2831   29.2138   45.1455 H   0  0  0  0  0  0  0  0  0  0  0  0
   60.9900   29.7734   45.1455 H   0  0  0  0  0  0  0  0  0  0  0  0
   62.5645   30.5438   47.3754 H   0  0  0  0  0  0  0  0  0  0  0  0
  1  2  1  0
  2  3  1  0
  3  4  2  0
  4  5  1  0
  5  6  2  0
  6  7  1  0
  7  8  1  0
  8  9  1  0
  9 10  2  0
 10 11  1  0
 10 12  1  0
 12 13  2  0
 13 14  1  0
  6 15  1  0
 15 16  1  0
 16 17  1  0
 15 18  2  0
 18  3  1  0
 13  8  1  0
  1 19  1  0
  1 20  1  0
  1 21  1  0
  4 22  1  0
  5 23  1  0
  7 24  1  0
  7 25  1  0
 11 26  1  0
 11 27  1  0
 11 28  1  0
 12 29  1  0
 14 30  1  0
 14 31  1  0
 14 32  1  0
 17 33  1  0
 17 34  1  0
 17 35  1  0
 18 36  1  0
M  END
>  <UniqueID>  (89) 
75

>  <SMILES>  (89) 
COc1ccc(Cn2nc(C)cc2C)c(OC)c1

>  <Energy>  (89) 
60.58406056571741

>  <Genealogy>  (89) 
COc1ccc(Cn2nc(C)cc2C)c(OC)c1 (3D coordinates assigned)
COc1ccc(Cn2nc(C)cc2C)c(OC)c1 (optimized conformer: 60.58406056571741 kcal/mol)

>  <smiles>  (89) 
COc1ccc(Cn2nc(C)cc2C)c(OC)c1

>  <score_type>  (89) 
oracle

>  <origin>  (89) 
adg

>  <m_score__min__energy>  (89) 
-5.6900000000000004

>  <m_primary>  (89) 
energy

$$$$
89:0
     RDKit          3D

 38 39  0  0  0  0  0  0  0  0999 V2000
   60.4490   34.1730   47.2470 C   0  0  0  0  0  0  0  0  0  0  0  0
   59.6470   34.2730   46.0210 N   0  0  0  0  0  0  0  0  0  0  0  0
   59.6410   35.5400   45.2790 C   0  0  0  0  0  0  0  0  0  0  0  0
   58.8730   33.1380   45.5490 C   0  0  0  0  0  0  0  0  0  0  0  0
   58.5290   32.0830   46.4200 C   0  0  0  0  0  0  0  0  0  0  0  0
   57.7860   30.9910   45.9640 C   0  0  0  0  0  0  0  0  0  0  0  0
   57.3660   30.9310   44.6310 C   0  0  0  0  0  0  0  0  0  0  0  0
   56.4540   29.5340   44.0620 S   0  0  0  0  0  0  0  0  0  0  0  0
   55.4780   29.9530   42.9980 O   0  0  0  0  0  0  0  0  0  0  0  0
   55.6810   28.9520   45.2120 O   0  0  0  0  0  0  0  0  0  0  0  0
   57.5300   28.3270   43.4270 N   0  0  0  0  0  0  0  0  0  0  0  0
   57.8430   27.3440   44.4680 C   0  0  0  0  0  0  0  0  0  0  0  0
   58.7740   27.9570   45.4760 C   0  0  0  0  0  0  0  0  0  0  0  0
   58.5020   27.8460   46.8500 C   0  0  0  0  0  0  0  0  0  0  0  0
   59.3500   28.4460   47.7860 C   0  0  0  0  0  0  0  0  0  0  0  0
   60.4660   29.1690   47.3580 C   0  0  0  0  0  0  0  0  0  0  0  0
   60.7340   29.2980   45.9920 C   0  0  0  0  0  0  0  0  0  0  0  0
   59.8890   28.6990   45.0520 C   0  0  0  0  0  0  0  0  0  0  0  0
   57.7040   31.9660   43.7540 C   0  0  0  0  0  0  0  0  0  0  0  0
   58.4480   33.0600   44.2070 C   0  0  0  0  0  0  0  0  0  0  0  0
   59.7900   34.2552   48.1239 H   0  0  0  0  0  0  0  0  0  0  0  0
   60.9677   33.2032   47.2677 H   0  0  0  0  0  0  0  0  0  0  0  0
   61.1900   34.9857   47.2677 H   0  0  0  0  0  0  0  0  0  0  0  0
   59.6370   36.3805   45.9886 H   0  0  0  0  0  0  0  0  0  0  0  0
   60.5389   35.5986   44.6462 H   0  0  0  0  0  0  0  0  0  0  0  0
   58.7426   35.5901   44.6462 H   0  0  0  0  0  0  0  0  0  0  0  0
   58.8498   32.1205   47.4715 H   0  0  0  0  0  0  0  0  0  0  0  0
   57.5303   30.1751   46.6561 H   0  0  0  0  0  0  0  0  0  0  0  0
   57.0140   27.8350   42.6610 H   0  0  0  0  0  0  0  0  0  0  0  0
   56.9144   27.0329   44.9689 H   0  0  0  0  0  0  0  0  0  0  0  0
   58.3255   26.4679   44.0102 H   0  0  0  0  0  0  0  0  0  0  0  0
   57.6190   27.2852   47.1905 H   0  0  0  0  0  0  0  0  0  0  0  0
   59.1380   28.3485   48.8610 H   0  0  0  0  0  0  0  0  0  0  0  0
   61.1341   29.6370   48.0960 H   0  0  0  0  0  0  0  0  0  0  0  0
   61.6106   29.8713   45.6560 H   0  0  0  0  0  0  0  0  0  0  0  0
   60.0981   28.8092   43.9777 H   0  0  0  0  0  0  0  0  0  0  0  0
   57.3832   31.9196   42.7028 H   0  0  0  0  0  0  0  0  0  0  0  0
   58.7047   33.8695   43.5078 H   0  0  0  0  0  0  0  0  0  0  0  0
  1  2  1  0
  2  3  1  0
  2  4  1  0
  4  5  2  0
  5  6  1  0
  6  7  2  0
  7  8  1  0
  8  9  2  0
  8 10  2  0
  8 11  1  0
 11 12  1  0
 12 13  1  0
 13 14  2  0
 14 15  1  0
 15 16  2  0
 16 17  1  0
 17 18  2  0
  7 19  1  0
 19 20  2  0
 20  4  1  0
 18 13  1  0
  1 21  1  0
  1 22  1  0
  1 23  1  0
  3 24  1  0
  3 25  1  0
  3 26  1  0
  5 27  1  0
  6 28  1  0
 11 29  1  0
 12 30  1  0
 12 31  1  0
 14 32  1  0
 15 33  1  0
 16 34  1  0
 17 35  1  0
 18 36  1  0
 19 37  1  0
 20 38  1  0
M  END
>  <UniqueID>  (90) 
76

>  <SMILES>  (90) 
CN(C)c1ccc(S(=O)(=O)NCc2ccccc2)cc1

>  <Energy>  (90) 
36.37425177216489

>  <Genealogy>  (90) 
CN(C)c1ccc(S(=O)(=O)NCc2ccccc2)cc1 (3D coordinates assigned)
CN(C)c1ccc(S(=O)(=O)NCc2ccccc2)cc1 (optimized conformer: 36.37425177216489 kcal/mol)

>  <smiles>  (90) 
CN(C)c1ccc(S(=O)(=O)NCc2ccccc2)cc1

>  <score_type>  (90) 
oracle

>  <origin>  (90) 
adg

>  <m_score__min__energy>  (90) 
-7.3200000000000003

>  <m_primary>  (90) 
energy

$$$$
90:0
     RDKit          3D

 41 42  0  0  0  0  0  0  0  0999 V2000
   57.8370   33.7430   45.5580 C   0  0  0  0  0  0  0  0  0  0  0  0
   57.7810   32.8390   44.4590 O   0  0  0  0  0  0  0  0  0  0  0  0
   57.6770   31.4460   44.5850 C   0  0  0  0  0  0  0  0  0  0  0  0
   56.6670   30.7020   43.9440 C   0  0  0  0  0  0  0  0  0  0  0  0
   56.6070   29.3140   44.1010 C   0  0  0  0  0  0  0  0  0  0  0  0
   57.5550   28.6470   44.8910 C   0  0  0  0  0  0  0  0  0  0  0  0
   57.4790   27.1790   45.0640 C   0  0  0  0  0  0  0  0  0  0  0  0
   57.0960   26.6680   46.3150 C   0  0  0  0  0  0  0  0  0  0  0  0
   57.0390   25.2920   46.5340 C   0  0  0  0  0  0  0  0  0  0  0  0
   57.3590   24.3970   45.5050 C   0  0  0  0  0  0  0  0  0  0  0  0
   57.3320   22.9090   45.7510 C   0  0  0  0  0  0  0  0  0  0  0  0
   58.1280   22.1290   44.6790 C   0  0  1  0  0  0  0  0  0  0  0  0
   59.6430   22.2940   44.8730 C   0  0  0  0  0  0  0  0  0  0  0  0
   57.7670   20.7050   44.7200 N   0  0  0  0  0  0  0  0  0  0  0  0
   57.7330   24.8970   44.2490 C   0  0  0  0  0  0  0  0  0  0  0  0
   57.7770   26.2810   44.0080 C   0  0  0  0  0  0  0  0  0  0  0  0
   58.1610   26.7680   42.6350 C   0  0  0  0  0  0  0  0  0  0  0  0
   58.5540   29.3910   45.5400 C   0  0  0  0  0  0  0  0  0  0  0  0
   58.6130   30.7780   45.3830 C   0  0  0  0  0  0  0  0  0  0  0  0
   57.8019   33.1770   46.5005 H   0  0  0  0  0  0  0  0  0  0  0  0
   58.7726   34.3196   45.5112 H   0  0  0  0  0  0  0  0  0  0  0  0
   56.9797   34.4307   45.5112 H   0  0  0  0  0  0  0  0  0  0  0  0
   55.9226   31.2151   43.3175 H   0  0  0  0  0  0  0  0  0  0  0  0
   55.8114   28.7414   43.6019 H   0  0  0  0  0  0  0  0  0  0  0  0
   56.8384   27.3602   47.1302 H   0  0  0  0  0  0  0  0  0  0  0  0
   56.7410   24.9072   47.5205 H   0  0  0  0  0  0  0  0  0  0  0  0
   57.7717   22.7044   46.7383 H   0  0  0  0  0  0  0  0  0  0  0  0
   56.2845   22.5764   45.7047 H   0  0  0  0  0  0  0  0  0  0  0  0
   57.8657   22.5439   43.6946 H   0  0  0  0  0  0  0  0  0  0  0  0
   59.8744   22.3192   45.9481 H   0  0  0  0  0  0  0  0  0  0  0  0
   60.1669   21.4476   44.4049 H   0  0  0  0  0  0  0  0  0  0  0  0
   59.9725   23.2333   44.4049 H   0  0  0  0  0  0  0  0  0  0  0  0
   57.6780   20.3320   43.7470 H   0  0  0  0  0  0  0  0  0  0  0  0
   58.5160   20.1620   45.2080 H   0  0  0  0  0  0  0  0  0  0  0  0
   56.8610   20.5710   45.2250 H   0  0  0  0  0  0  0  0  0  0  0  0
   57.9953   24.1969   43.4421 H   0  0  0  0  0  0  0  0  0  0  0  0
   58.8397   27.6287   42.7278 H   0  0  0  0  0  0  0  0  0  0  0  0
   58.6671   25.9593   42.0874 H   0  0  0  0  0  0  0  0  0  0  0  0
   57.2566   27.0715   42.0874 H   0  0  0  0  0  0  0  0  0  0  0  0
   59.2929   28.8796   46.1744 H   0  0  0  0  0  0  0  0  0  0  0  0
   59.4027   31.3506   45.8914 H   0  0  0  0  0  0  0  0  0  0  0  0
  1  2  1  0
  2  3  1  0
  3  4  2  0
  4  5  1  0
  5  6  2  0
  6  7  1  0
  7  8  2  0
  8  9  1  0
  9 10  2  0
 10 11  1  0
 11 12  1  0
 12 13  1  0
 12 14  1  0
 10 15  1  0
 15 16  2  0
 16 17  1  0
  6 18  1  0
 18 19  2  0
 19  3  1  0
 16  7  1  0
  1 20  1  0
  1 21  1  0
  1 22  1  0
  4 23  1  0
  5 24  1  0
  8 25  1  0
  9 26  1  0
 11 27  1  0
 11 28  1  0
 12 29  1  6
 13 30  1  0
 13 31  1  0
 13 32  1  0
 14 33  1  0
 14 34  1  0
 14 35  1  0
 15 36  1  0
 17 37  1  0
 17 38  1  0
 17 39  1  0
 18 40  1  0
 19 41  1  0
M  CHG  1  14   1
M  END
>  <UniqueID>  (91) 
77

>  <SMILES>  (91) 
COc1ccc(-c2ccc(C[C@@H](C)[NH3+])cc2C)cc1

>  <Energy>  (91) 
42.90009902726022

>  <Genealogy>  (91) 
COc1ccc(-c2ccc(CC(C)[NH3+])cc2C)cc1 (protonated)
COc1ccc(-c2ccc(C[C@@H](C)[NH3+])cc2C)cc1 (chirality)
COc1ccc(-c2ccc(C[C@@H](C)[NH3+])cc2C)cc1 (3D coordinates assigned)
COc1ccc(-c2ccc(C[C@@H](C)[NH3+])cc2C)cc1 (optimized conformer: 42.90009902726022 kcal/mol)

>  <smiles>  (91) 
COc1ccc(-c2ccc(CC(C)N)cc2C)cc1

>  <score_type>  (91) 
oracle

>  <origin>  (91) 
adg

>  <m_score__min__energy>  (91) 
-5.6699999999999999

>  <m_primary>  (91) 
energy

$$$$
91:0
     RDKit          3D

 39 41  0  0  1  0  0  0  0  0999 V2000
   57.8130   27.9740   43.7860 C   0  0  0  0  0  0  0  0  0  0  0  0
   56.8210   29.2780   44.5610 S   0  0  0  0  0  0  0  0  0  0  0  0
   57.8450   30.6150   45.1560 C   0  0  0  0  0  0  0  0  0  0  0  0
   58.9090   30.3140   45.9830 C   0  0  0  0  0  0  0  0  0  0  0  0
   58.8760   31.5520   50.7980 C   0  0  0  0  0  0  0  0  0  0  0  0
   58.6060   32.7800   51.4100 C   0  0  0  0  0  0  0  0  0  0  0  0
   60.3780   33.6740   46.6610 N   0  0  0  0  0  0  0  0  0  0  0  0
   60.7580   33.7450   47.8680 C   0  0  0  0  0  0  0  0  0  0  0  0
   59.8620   33.7630   48.8710 N   0  0  0  0  0  0  0  0  0  0  0  0
   60.3180   33.8370   50.1250 C   0  0  0  0  0  0  0  0  0  0  0  0
   59.4770   33.8560   51.0830 N   0  0  0  0  0  0  0  0  0  0  0  0
   59.5330   32.6390   46.1600 C   0  0  0  0  0  0  0  0  0  0  0  0
   57.5510   32.8700   52.2640 C   0  0  0  0  0  0  0  0  0  0  0  0
   58.0720   30.4530   51.0640 C   0  0  0  0  0  0  0  0  0  0  0  0
   57.0030   30.5290   51.9240 C   0  0  0  0  0  0  0  0  0  0  0  0
   56.1750   29.4520   52.2170 O   0  0  0  0  0  0  0  0  0  0  0  0
   56.7470   31.7630   52.5280 C   0  0  0  0  0  0  0  0  0  0  0  0
   59.7380   31.3010   46.4770 C   0  0  0  0  0  0  0  0  0  0  0  0
   61.6310   33.8940   50.4050 N   0  0  0  0  0  0  0  0  0  0  0  0
   62.5730   33.8790   49.4370 C   0  0  0  0  0  0  0  0  0  0  0  0
   62.1130   33.8020   48.1380 C   0  0  0  0  0  0  0  0  0  0  0  0
   63.3850   33.7760   46.7120 Br  0  0  0  0  0  0  0  0  0  0  0  0
   58.4550   32.9450   45.3230 C   0  0  0  0  0  0  0  0  0  0  0  0
   58.1130   34.5800   44.8690 Cl  0  0  0  0  0  0  0  0  0  0  0  0
   57.6260   31.9340   44.8320 C   0  0  0  0  0  0  0  0  0  0  0  0
   58.2822   27.3573   44.5667 H   0  0  0  0  0  0  0  0  0  0  0  0
   57.1646   27.3429   43.1605 H   0  0  0  0  0  0  0  0  0  0  0  0
   58.5943   28.4305   43.1605 H   0  0  0  0  0  0  0  0  0  0  0  0
   59.1001   29.2652   46.2540 H   0  0  0  0  0  0  0  0  0  0  0  0
   59.7257   31.4574   50.1058 H   0  0  0  0  0  0  0  0  0  0  0  0
   58.8440   33.7190   48.6500 H   0  0  0  0  0  0  0  0  0  0  0  0
   57.3295   33.8301   52.7530 H   0  0  0  0  0  0  0  0  0  0  0  0
   58.2965   29.4946   50.5730 H   0  0  0  0  0  0  0  0  0  0  0  0
   56.1200   28.6300   51.6210 H   0  0  0  0  0  0  0  0  0  0  0  0
   55.8989   31.8618   53.2215 H   0  0  0  0  0  0  0  0  0  0  0  0
   60.5760   31.0238   47.1334 H   0  0  0  0  0  0  0  0  0  0  0  0
   61.9590   33.9520   51.3960 H   0  0  0  0  0  0  0  0  0  0  0  0
   63.6468   33.9256   49.6710 H   0  0  0  0  0  0  0  0  0  0  0  0
   56.7837   32.1968   44.1751 H   0  0  0  0  0  0  0  0  0  0  0  0
  1  2  1  0
  2  3  1  0
  3  4  2  0
  4  5  1  0
  5  6  2  0
  6  7  1  0
  7  8  2  0
  8  9  1  0
  9 10  1  0
 10 11  2  0
 11 12  1  0
 12 13  2  0
 13 14  1  0
 14 15  2  0
 15 16  1  0
 15 17  1  0
 17 18  2  0
 10 19  1  0
 19 20  1  0
 20 21  2  0
 21 22  1  0
  6 23  1  0
 23 24  1  0
 23 25  2  0
 25  3  1  0
 21  8  1  0
 18 12  1  0
  1 26  1  0
  1 27  1  0
  1 28  1  0
  4 29  1  0
  5 30  1  0
  9 31  1  0
 13 32  1  0
 14 33  1  0
 16 34  1  0
 17 35  1  0
 18 36  1  0
 19 37  1  0
 20 38  1  0
 25 39  1  0
M  END
>  <smiles>  (92) 
CSc1ccc(N=c2[nH]c(=Nc3ccc(O)cc3)[nH]cc2Br)c(Cl)c1

>  <score_type>  (92) 
oracle

>  <origin>  (92) 
adg

>  <m_score__min__energy>  (92) 
-8.4399999999999995

>  <m_primary>  (92) 
energy

$$$$
