0:0
     RDKit          3D

 53 56  0  0  0  0  0  0  0  0999 V2000
   59.7870   30.0510   48.8040 O   0  0  0  0  0  0  0  0  0  0  0  0
   59.1210   29.9840   47.7330 C   0  0  0  0  0  0  0  0  0  0  0  0
   59.3320   28.9100   46.8100 N   0  0  0  0  0  0  0  0  0  0  0  0
   58.5670   27.7000   46.7350 C   0  0  0  0  0  0  0  0  0  0  0  0
   59.1370   26.4410   47.0030 C   0  0  0  0  0  0  0  0  0  0  0  0
   58.3550   25.2840   46.9230 C   0  0  0  0  0  0  0  0  0  0  0  0
   57.0000   25.3760   46.5930 C   0  0  0  0  0  0  0  0  0  0  0  0
   56.4210   26.6250   46.3540 C   0  0  0  0  0  0  0  0  0  0  0  0
   55.0690   26.7160   46.0380 O   0  0  0  0  0  0  0  0  0  0  0  0
   57.2000   27.7820   46.4310 C   0  0  0  0  0  0  0  0  0  0  0  0
   58.1660   31.0030   47.4100 N   0  0  0  0  0  0  0  0  0  0  0  0
   58.4860   32.1790   46.6510 C   0  0  0  0  0  0  0  0  0  0  0  0
   59.0430   33.3350   47.2620 C   0  0  0  0  0  0  0  0  0  0  0  0
   59.4620   33.3610   48.6820 C   0  0  0  0  0  0  0  0  0  0  0  0
   58.8350   32.6870   49.5420 O   0  0  0  0  0  0  0  0  0  0  0  0
   60.5840   34.1650   49.0680 N   0  0  0  0  0  0  0  0  0  0  0  0
   61.9530   33.7550   49.2100 C   0  0  0  0  0  0  0  0  0  0  0  0
   62.7350   33.3500   48.1110 C   0  0  0  0  0  0  0  0  0  0  0  0
   64.0810   33.0110   48.2940 C   0  0  0  0  0  0  0  0  0  0  0  0
   64.6640   33.0950   49.5640 C   0  0  0  0  0  0  0  0  0  0  0  0
   66.0070   32.7720   49.7510 O   0  0  0  0  0  0  0  0  0  0  0  0
   63.8930   33.5110   50.6540 C   0  0  0  0  0  0  0  0  0  0  0  0
   62.5470   33.8440   50.4750 C   0  0  0  0  0  0  0  0  0  0  0  0
   59.2600   34.4840   46.4820 C   0  0  0  0  0  0  0  0  0  0  0  0
   58.9740   34.4830   45.1170 C   0  0  0  0  0  0  0  0  0  0  0  0
   58.4680   33.3360   44.5100 C   0  0  0  0  0  0  0  0  0  0  0  0
   58.2250   32.1810   45.2670 C   0  0  0  0  0  0  0  0  0  0  0  0
   57.6470   31.0280   44.6350 N   0  0  0  0  0  0  0  0  0  0  0  0
   56.2630   31.1370   44.1520 C   0  0  0  0  0  0  0  0  0  0  0  0
   55.7190   29.7850   43.6670 C   0  0  0  0  0  0  0  0  0  0  0  0
   56.6770   29.0930   42.8920 O   0  0  0  0  0  0  0  0  0  0  0  0
   57.7660   28.7370   43.7150 C   0  0  0  0  0  0  0  0  0  0  0  0
   58.5500   29.9850   44.1300 C   0  0  0  0  0  0  0  0  0  0  0  0
   60.2000   26.3669   47.2760 H   0  0  0  0  0  0  0  0  0  0  0  0
   58.8070   24.3007   47.1200 H   0  0  0  0  0  0  0  0  0  0  0  0
   56.3888   24.4643   46.5214 H   0  0  0  0  0  0  0  0  0  0  0  0
   56.7383   28.7642   46.2520 H   0  0  0  0  0  0  0  0  0  0  0  0
   62.2876   33.2999   47.1073 H   0  0  0  0  0  0  0  0  0  0  0  0
   64.6831   32.6772   47.4361 H   0  0  0  0  0  0  0  0  0  0  0  0
   66.5070   33.0470   50.5890 H   0  0  0  0  0  0  0  0  0  0  0  0
   64.3464   33.5763   51.6541 H   0  0  0  0  0  0  0  0  0  0  0  0
   61.9492   34.1789   51.3355 H   0  0  0  0  0  0  0  0  0  0  0  0
   59.6598   35.3939   46.9534 H   0  0  0  0  0  0  0  0  0  0  0  0
   59.1483   35.3895   44.5188 H   0  0  0  0  0  0  0  0  0  0  0  0
   58.2578   33.3363   43.4303 H   0  0  0  0  0  0  0  0  0  0  0  0
   55.6276   31.5028   44.9721 H   0  0  0  0  0  0  0  0  0  0  0  0
   56.2520   31.8345   43.3015 H   0  0  0  0  0  0  0  0  0  0  0  0
   55.4542   29.1713   44.5407 H   0  0  0  0  0  0  0  0  0  0  0  0
   54.8350   29.9719   43.0396 H   0  0  0  0  0  0  0  0  0  0  0  0
   57.3895   28.2292   44.6152 H   0  0  0  0  0  0  0  0  0  0  0  0
   58.4332   28.0658   43.1544 H   0  0  0  0  0  0  0  0  0  0  0  0
   59.2654   29.7144   44.9206 H   0  0  0  0  0  0  0  0  0  0  0  0
   59.0802   30.3758   43.2490 H   0  0  0  0  0  0  0  0  0  0  0  0
  1  2  2  0
  2  3  1  0
  3  4  1  0
  4  5  2  0
  5  6  1  0
  6  7  2  0
  7  8  1  0
  8  9  1  0
  8 10  2  0
  2 11  1  0
 11 12  1  0
 12 13  1  0
 13 14  1  0
 14 15  2  0
 14 16  1  0
 16 17  1  0
 17 18  2  0
 18 19  1  0
 19 20  2  0
 20 21  1  0
 20 22  1  0
 22 23  2  0
 13 24  2  0
 24 25  1  0
 25 26  2  0
 26 27  1  0
 27 28  1  0
 28 29  1  0
 29 30  1  0
 30 31  1  0
 31 32  1  0
 32 33  1  0
 10  4  1  0
 27 12  2  0
 33 28  1  0
 23 17  1  0
  5 34  1  0
  6 35  1  0
  7 36  1  0
 10 37  1  0
 18 38  1  0
 19 39  1  0
 21 40  1  0
 22 41  1  0
 23 42  1  0
 24 43  1  0
 25 44  1  0
 26 45  1  0
 29 46  1  0
 29 47  1  0
 30 48  1  0
 30 49  1  0
 32 50  1  0
 32 51  1  0
 33 52  1  0
 33 53  1  0
M  CHG  4   3  -1   9  -1  11  -1  16  -1
M  END
>  <UniqueID>  (1) 
1

>  <SMILES>  (1) 
O=C([N-]c1cccc([O-])c1)[N-]c1c(C(=O)[N-]c2ccc(O)cc2)cccc1N1CCOCC1

>  <Energy>  (1) 
80.91621448158773

>  <Genealogy>  (1) 
O=C([N-]c1cccc([O-])c1)[N-]c1c(C(=O)[N-]c2ccc(O)cc2)cccc1N1CCOCC1 (protonated)
O=C([N-]c1cccc([O-])c1)[N-]c1c(C(=O)[N-]c2ccc(O)cc2)cccc1N1CCOCC1 (3D coordinates assigned)
O=C([N-]c1cccc([O-])c1)[N-]c1c(C(=O)[N-]c2ccc(O)cc2)cccc1N1CCOCC1 (nonaromatic ring conformer: 80.91621448158773 kcal/mol)

>  <smiles>  (1) 
O=C(Nc1cccc(O)c1)Nc1c(C(=O)Nc2ccc(O)cc2)cccc1N1CCOCC1

>  <score_type>  (1) 
oracle

>  <origin>  (1) 
adg

>  <m_score__min__energy>  (1) 
-14.49

>  <m_primary>  (1) 
energy

$$$$
1:0
     RDKit          3D

 45 46  0  0  0  0  0  0  0  0999 V2000
   67.4180   33.9030   51.2230 C   0  0  0  0  0  0  0  0  0  0  0  0
   67.0150   32.6680   50.4200 C   0  0  0  0  0  0  0  0  0  0  0  0
   65.9320   31.8510   51.1360 C   0  0  0  0  0  0  0  0  0  0  0  0
   64.6700   32.5140   51.0910 O   0  0  0  0  0  0  0  0  0  0  0  0
   64.2190   33.2400   49.9830 C   0  0  0  0  0  0  0  0  0  0  0  0
   63.4800   34.2510   50.1370 O   0  0  0  0  0  0  0  0  0  0  0  0
   64.6100   32.8260   48.6700 N   0  0  0  0  0  0  0  0  0  0  0  0
   64.0970   33.4600   47.4580 C   0  0  0  0  0  0  0  0  0  0  0  0
   62.6800   33.0230   47.2040 C   0  0  0  0  0  0  0  0  0  0  0  0
   62.2130   31.8110   47.7350 C   0  0  0  0  0  0  0  0  0  0  0  0
   60.8890   31.4140   47.5290 C   0  0  0  0  0  0  0  0  0  0  0  0
   60.0160   32.2170   46.7720 C   0  0  0  0  0  0  0  0  0  0  0  0
   58.6370   31.8630   46.5720 N   0  0  0  0  0  0  0  0  0  0  0  0
   58.1550   30.6740   46.3280 C   0  0  0  0  0  0  0  0  0  0  0  0
   58.5180   29.6200   47.1050 N   0  0  0  0  0  0  0  0  0  0  0  0
   58.0430   28.3730   46.8870 C   0  0  0  0  0  0  0  0  0  0  0  0
   57.1450   28.1330   45.8420 C   0  0  0  0  0  0  0  0  0  0  0  0
   56.6130   26.7600   45.6220 C   0  0  0  0  0  0  0  0  0  0  0  0
   55.2790   26.4320   46.0060 N   0  0  0  0  0  0  0  0  0  0  0  0
   57.3320   25.8670   45.0980 O   0  0  0  0  0  0  0  0  0  0  0  0
   56.7780   29.2300   45.0320 C   0  0  0  0  0  0  0  0  0  0  0  0
   55.9530   29.0620   44.0910 O   0  0  0  0  0  0  0  0  0  0  0  0
   57.3100   30.4770   45.2630 N   0  0  0  0  0  0  0  0  0  0  0  0
   56.9070   31.6170   44.4180 C   0  0  0  0  0  0  0  0  0  0  0  0
   60.4740   33.4430   46.2760 C   0  0  0  0  0  0  0  0  0  0  0  0
   61.7980   33.8420   46.4810 C   0  0  0  0  0  0  0  0  0  0  0  0
   67.3456   33.6811   52.2980 H   0  0  0  0  0  0  0  0  0  0  0  0
   68.4532   34.1801   50.9747 H   0  0  0  0  0  0  0  0  0  0  0  0
   66.7455   34.7373   50.9747 H   0  0  0  0  0  0  0  0  0  0  0  0
   66.6294   32.9899   49.4414 H   0  0  0  0  0  0  0  0  0  0  0  0
   67.9039   32.0303   50.3046 H   0  0  0  0  0  0  0  0  0  0  0  0
   65.8397   30.8706   50.6459 H   0  0  0  0  0  0  0  0  0  0  0  0
   66.2253   31.7325   52.1895 H   0  0  0  0  0  0  0  0  0  0  0  0
   65.2720   32.0230   48.5760 H   0  0  0  0  0  0  0  0  0  0  0  0
   64.1240   34.5529   47.5801 H   0  0  0  0  0  0  0  0  0  0  0  0
   64.7233   33.1623   46.6041 H   0  0  0  0  0  0  0  0  0  0  0  0
   62.8924   31.1702   48.3163 H   0  0  0  0  0  0  0  0  0  0  0  0
   60.5275   30.4691   47.9608 H   0  0  0  0  0  0  0  0  0  0  0  0
   58.3642   27.5437   47.5343 H   0  0  0  0  0  0  0  0  0  0  0  0
   54.7180   27.0770   46.6060 H   0  0  0  0  0  0  0  0  0  0  0  0
   56.6088   32.4605   45.0580 H   0  0  0  0  0  0  0  0  0  0  0  0
   57.7526   31.9197   43.7829 H   0  0  0  0  0  0  0  0  0  0  0  0
   56.0590   31.3210   43.7829 H   0  0  0  0  0  0  0  0  0  0  0  0
   59.7866   34.0979   45.7204 H   0  0  0  0  0  0  0  0  0  0  0  0
   62.1502   34.8014   46.0743 H   0  0  0  0  0  0  0  0  0  0  0  0
  1  2  1  0
  2  3  1  0
  3  4  1  0
  4  5  1  0
  5  6  2  0
  5  7  1  0
  7  8  1  0
  8  9  1  0
  9 10  2  0
 10 11  1  0
 11 12  2  0
 12 13  1  0
 13 14  2  3
 14 15  1  0
 15 16  1  0
 16 17  2  0
 17 18  1  0
 18 19  1  0
 18 20  2  0
 17 21  1  0
 21 22  2  0
 21 23  1  0
 23 24  1  0
 12 25  1  0
 25 26  2  0
 26  9  1  0
 23 14  1  0
  1 27  1  0
  1 28  1  0
  1 29  1  0
  2 30  1  0
  2 31  1  0
  3 32  1  0
  3 33  1  0
  7 34  1  0
  8 35  1  0
  8 36  1  0
 10 37  1  0
 11 38  1  0
 16 39  1  0
 19 40  1  0
 24 41  1  0
 24 42  1  0
 24 43  1  0
 25 44  1  0
 26 45  1  0
M  CHG  2  15  -1  19  -1
M  END
>  <UniqueID>  (2) 
2

>  <SMILES>  (2) 
CCCOC(=O)NCc1ccc(N=c2[n-]cc(C([NH-])=O)c(=O)n2C)cc1

>  <Energy>  (2) 
49.20180462143427

>  <Genealogy>  (2) 
CCCOC(=O)NCc1ccc(N=c2[n-]cc(C([NH-])=O)c(=O)n2C)cc1 (protonated)
CCCOC(=O)NCc1ccc(N=c2[n-]cc(C([NH-])=O)c(=O)n2C)cc1 (3D coordinates assigned)
CCCOC(=O)NCc1ccc(N=c2[n-]cc(C([NH-])=O)c(=O)n2C)cc1 (optimized conformer: 49.20180462143427 kcal/mol)

>  <smiles>  (2) 
CCCOC(=O)NCc1ccc(N=c2[nH]cc(C(N)=O)c(=O)n2C)cc1

>  <score_type>  (2) 
oracle

>  <origin>  (2) 
adg

>  <m_score__min__energy>  (2) 
-10.609999999999999

>  <m_primary>  (2) 
energy

$$$$
2:0
     RDKit          3D

 50 52  0  0  1  0  0  0  0  0999 V2000
   58.8850   31.3700   49.5510 C   0  0  0  0  0  0  0  0  0  0  0  0
   59.4040   30.4560   48.4690 C   0  0  0  0  0  0  0  0  0  0  0  0
   58.6090   29.1870   48.3310 C   0  0  0  0  0  0  0  0  0  0  0  0
   60.5300   29.7580   49.4230 C   0  0  0  0  0  0  0  0  0  0  0  0
   60.4440   30.8100   47.6450 N   0  0  0  0  0  0  0  0  0  0  0  0
   61.1960   31.7970   47.5570 C   0  0  0  0  0  0  0  0  0  0  0  0
   62.4020   31.7310   48.1930 N   0  0  0  0  0  0  0  0  0  0  0  0
   63.2680   32.7460   47.9690 C   0  0  0  0  0  0  0  0  0  0  0  0
   64.4330   32.7770   48.5230 N   0  0  0  0  0  0  0  0  0  0  0  0
   62.9520   33.7640   47.1600 N   0  0  0  0  0  0  0  0  0  0  0  0
   61.7640   33.8380   46.5330 C   0  0  0  0  0  0  0  0  0  0  0  0
   60.8270   32.8140   46.7360 C   0  0  0  0  0  0  0  0  0  0  0  0
   59.4980   33.0930   46.2530 C   0  0  0  0  0  0  0  0  0  0  0  0
   59.0100   34.3440   45.9300 C   0  0  0  0  0  0  0  0  0  0  0  0
   57.8170   34.5660   45.2810 C   0  0  0  0  0  0  0  0  0  0  0  0
   57.0320   33.4950   44.9150 C   0  0  0  0  0  0  0  0  0  0  0  0
   57.5280   32.2250   45.2400 C   0  0  0  0  0  0  0  0  0  0  0  0
   56.7930   31.2410   44.8880 N   0  0  0  0  0  0  0  0  0  0  0  0
   57.1350   30.3320   43.8370 C   0  0  0  0  0  0  0  0  0  0  0  0
   57.8330   29.1760   44.5370 C   0  0  0  0  0  0  0  0  0  0  0  0
   59.1990   29.0250   44.4950 C   0  0  0  0  0  0  0  0  0  0  0  0
   59.7840   27.9630   45.1570 C   0  0  0  0  0  0  0  0  0  0  0  0
   58.9700   27.0780   45.8430 C   0  0  0  0  0  0  0  0  0  0  0  0
   57.6010   27.2410   45.8760 C   0  0  0  0  0  0  0  0  0  0  0  0
   57.0100   28.3010   45.2180 C   0  0  0  0  0  0  0  0  0  0  0  0
   55.6490   28.4770   45.2420 F   0  0  0  0  0  0  0  0  0  0  0  0
   58.6890   32.0450   45.8710 N   0  0  0  0  0  0  0  0  0  0  0  0
   59.1262   30.9453   50.5366 H   0  0  0  0  0  0  0  0  0  0  0  0
   59.3562   32.3591   49.4527 H   0  0  0  0  0  0  0  0  0  0  0  0
   57.7942   31.4721   49.4527 H   0  0  0  0  0  0  0  0  0  0  0  0
   58.3646   28.7969   49.3301 H   0  0  0  0  0  0  0  0  0  0  0  0
   57.6793   29.3947   47.7810 H   0  0  0  0  0  0  0  0  0  0  0  0
   59.2015   28.4411   47.7810 H   0  0  0  0  0  0  0  0  0  0  0  0
   60.2678   29.9205   50.4789 H   0  0  0  0  0  0  0  0  0  0  0  0
   60.5672   28.6782   49.2165 H   0  0  0  0  0  0  0  0  0  0  0  0
   61.5137   30.2049   49.2165 H   0  0  0  0  0  0  0  0  0  0  0  0
   62.6620   30.9440   48.8260 H   0  0  0  0  0  0  0  0  0  0  0  0
   65.2540   32.7270   47.8840 H   0  0  0  0  0  0  0  0  0  0  0  0
   63.6340   34.5530   46.9850 H   0  0  0  0  0  0  0  0  0  0  0  0
   61.5315   34.6866   45.8728 H   0  0  0  0  0  0  0  0  0  0  0  0
   59.6141   35.2197   46.2097 H   0  0  0  0  0  0  0  0  0  0  0  0
   57.4923   35.5926   45.0559 H   0  0  0  0  0  0  0  0  0  0  0  0
   56.0707   33.6288   44.3972 H   0  0  0  0  0  0  0  0  0  0  0  0
   56.2307   29.9818   43.3177 H   0  0  0  0  0  0  0  0  0  0  0  0
   57.7720   30.8009   43.0726 H   0  0  0  0  0  0  0  0  0  0  0  0
   59.8201   29.7431   43.9395 H   0  0  0  0  0  0  0  0  0  0  0  0
   60.8750   27.8233   45.1394 H   0  0  0  0  0  0  0  0  0  0  0  0
   59.4244   26.2276   46.3725 H   0  0  0  0  0  0  0  0  0  0  0  0
   56.9772   26.5233   46.4290 H   0  0  0  0  0  0  0  0  0  0  0  0
   59.0580   31.1130   46.1190 H   0  0  0  0  0  0  0  0  0  0  0  0
  1  2  1  0
  2  3  1  0
  2  4  1  0
  2  5  1  0
  5  6  2  0
  6  7  1  0
  7  8  1  0
  8  9  2  3
  8 10  1  0
 10 11  1  0
 11 12  2  0
 12 13  1  0
 13 14  2  0
 14 15  1  0
 15 16  2  0
 16 17  1  0
 17 18  2  0
 18 19  1  0
 19 20  1  0
 20 21  2  0
 21 22  1  0
 22 23  2  0
 23 24  1  0
 24 25  2  0
 25 26  1  0
 17 27  1  0
 12  6  1  0
 27 13  1  0
 25 20  1  0
  1 28  1  0
  1 29  1  0
  1 30  1  0
  3 31  1  0
  3 32  1  0
  3 33  1  0
  4 34  1  0
  4 35  1  0
  4 36  1  0
  7 37  1  0
  9 38  1  0
 10 39  1  0
 11 40  1  0
 14 41  1  0
 15 42  1  0
 16 43  1  0
 19 44  1  0
 19 45  1  0
 21 46  1  0
 22 47  1  0
 23 48  1  0
 24 49  1  0
 27 50  1  0
M  END
>  <smiles>  (3) 
CC(C)(C)N=c1[nH]c(=N)[nH]cc1-c1cccc(=NCc2ccccc2F)[nH]1

>  <score_type>  (3) 
oracle

>  <origin>  (3) 
adg

>  <m_score__min__energy>  (3) 
-8.5199999999999996

>  <m_primary>  (3) 
energy

$$$$
3:0
     RDKit          3D

 70 73  0  0  1  0  0  0  0  0999 V2000
   58.9310   22.1490   44.5560 C   0  0  0  0  0  0  0  0  0  0  0  0
   57.5690   21.9690   43.8920 C   0  0  0  0  0  0  0  0  0  0  0  0
   56.9440   23.3690   43.8650 C   0  0  0  0  0  0  0  0  0  0  0  0
   56.0540   23.5030   45.0680 C   0  0  0  0  0  0  0  0  0  0  0  0
   56.5250   23.9860   46.1960 C   0  0  0  0  0  0  0  0  0  0  0  0
   57.1190   25.2990   46.3610 C   0  0  0  0  0  0  0  0  0  0  0  0
   58.1710   25.4330   47.2120 C   0  0  0  0  0  0  0  0  0  0  0  0
   58.7380   26.7270   47.3670 C   0  0  0  0  0  0  0  0  0  0  0  0
   58.1690   27.7250   46.6460 C   0  0  0  0  0  0  0  0  0  0  0  0
   57.0940   29.8140   45.1970 C   0  0  0  0  0  0  0  0  0  0  0  0
   56.6290   30.8430   44.5340 N   0  0  0  0  0  0  0  0  0  0  0  0
   59.6870   30.2290   48.5760 C   0  0  0  0  0  0  0  0  0  0  0  0
   61.0270   30.8580   48.7050 C   0  0  0  0  0  0  0  0  0  0  0  0
   61.8190   31.2110   47.6300 C   0  0  0  0  0  0  0  0  0  0  0  0
   63.0670   31.7800   47.7400 C   0  0  0  0  0  0  0  0  0  0  0  0
   63.6140   32.0390   48.9780 C   0  0  0  0  0  0  0  0  0  0  0  0
   64.8980   32.6240   49.0160 N   0  0  0  0  0  0  0  0  0  0  0  0
   65.7910   32.6150   50.0940 C   0  0  0  0  0  0  0  0  0  0  0  0
   65.5590   32.0750   51.1850 O   0  0  0  0  0  0  0  0  0  0  0  0
   67.0460   33.2500   49.9730 O   0  0  0  0  0  0  0  0  0  0  0  0
   67.6920   33.7210   51.1640 C   0  0  0  0  0  0  0  0  0  0  0  0
   62.8560   31.7010   50.0700 C   0  0  0  0  0  0  0  0  0  0  0  0
   61.6040   31.1290   49.9570 C   0  0  0  0  0  0  0  0  0  0  0  0
   58.1330   29.9930   46.0340 N   0  0  0  0  0  0  0  0  0  0  0  0
   58.6790   28.9920   46.7580 C   0  0  0  0  0  0  0  0  0  0  0  0
   59.5540   29.2570   47.5910 N   0  0  0  0  0  0  0  0  0  0  0  0
   57.4890   31.9610   44.1890 C   0  0  0  0  0  0  0  0  0  0  0  0
   57.0370   33.1550   45.0010 C   0  0  0  0  0  0  0  0  0  0  0  0
   58.1590   33.5630   45.8900 C   0  0  0  0  0  0  0  0  0  0  0  0
   59.2640   34.2540   45.4390 C   0  0  0  0  0  0  0  0  0  0  0  0
   60.2440   34.5760   46.3680 C   0  0  0  0  0  0  0  0  0  0  0  0
   60.1470   34.2330   47.7010 C   0  0  0  0  0  0  0  0  0  0  0  0
   59.0380   33.5410   48.1450 C   0  0  0  0  0  0  0  0  0  0  0  0
   58.0470   33.2100   47.2290 C   0  0  0  0  0  0  0  0  0  0  0  0
   56.5700   28.5830   45.0740 N   0  0  0  0  0  0  0  0  0  0  0  0
   57.1040   27.5730   45.7850 C   0  0  0  0  0  0  0  0  0  0  0  0
   56.5660   26.3360   45.6400 C   0  0  0  0  0  0  0  0  0  0  0  0
   58.8109   22.1331   45.6493 H   0  0  0  0  0  0  0  0  0  0  0  0
   59.5997   21.3314   44.2487 H   0  0  0  0  0  0  0  0  0  0  0  0
   59.3643   23.1122   44.2487 H   0  0  0  0  0  0  0  0  0  0  0  0
   57.6870   21.5799   42.8699 H   0  0  0  0  0  0  0  0  0  0  0  0
   56.9395   21.2492   44.4358 H   0  0  0  0  0  0  0  0  0  0  0  0
   57.7356   24.1320   43.8994 H   0  0  0  0  0  0  0  0  0  0  0  0
   56.3628   23.5104   42.9418 H   0  0  0  0  0  0  0  0  0  0  0  0
   55.0001   23.1945   45.0042 H   0  0  0  0  0  0  0  0  0  0  0  0
   56.4638   23.3429   47.0863 H   0  0  0  0  0  0  0  0  0  0  0  0
   58.5701   24.5683   47.7624 H   0  0  0  0  0  0  0  0  0  0  0  0
   59.5922   26.9093   48.0356 H   0  0  0  0  0  0  0  0  0  0  0  0
   58.9618   31.0272   48.3590 H   0  0  0  0  0  0  0  0  0  0  0  0
   59.5161   29.7059   49.5285 H   0  0  0  0  0  0  0  0  0  0  0  0
   61.4263   31.0251   46.6195 H   0  0  0  0  0  0  0  0  0  0  0  0
   63.6335   32.0305   46.8310 H   0  0  0  0  0  0  0  0  0  0  0  0
   65.2390   33.1300   48.1390 H   0  0  0  0  0  0  0  0  0  0  0  0
   67.1613   33.3341   52.0464 H   0  0  0  0  0  0  0  0  0  0  0  0
   68.7342   33.3693   51.1794 H   0  0  0  0  0  0  0  0  0  0  0  0
   67.6759   34.8208   51.1794 H   0  0  0  0  0  0  0  0  0  0  0  0
   63.2609   31.8929   51.0746 H   0  0  0  0  0  0  0  0  0  0  0  0
   61.0444   30.8793   50.8705 H   0  0  0  0  0  0  0  0  0  0  0  0
   58.5070   30.9660   46.1000 H   0  0  0  0  0  0  0  0  0  0  0  0
   58.5345   31.7180   44.4298 H   0  0  0  0  0  0  0  0  0  0  0  0
   57.4246   32.1796   43.1129 H   0  0  0  0  0  0  0  0  0  0  0  0
   56.7738   33.9848   44.3286 H   0  0  0  0  0  0  0  0  0  0  0  0
   56.1521   32.8946   45.6003 H   0  0  0  0  0  0  0  0  0  0  0  0
   59.3652   34.5396   44.3816 H   0  0  0  0  0  0  0  0  0  0  0  0
   61.1335   35.1266   46.0279 H   0  0  0  0  0  0  0  0  0  0  0  0
   60.9468   34.5087   48.4041 H   0  0  0  0  0  0  0  0  0  0  0  0
   58.9408   33.2572   49.2033 H   0  0  0  0  0  0  0  0  0  0  0  0
   57.1582   32.6588   47.5700 H   0  0  0  0  0  0  0  0  0  0  0  0
   55.7590   28.4560   44.4180 H   0  0  0  0  0  0  0  0  0  0  0  0
   55.7131   26.1653   44.9666 H   0  0  0  0  0  0  0  0  0  0  0  0
  1  2  1  0
  2  3  1  0
  3  4  1  0
  4  5  2  0
  5  6  1  0
  6  7  2  0
  7  8  1  0
  8  9  2  0
  9 10  1  0
 10 11  2  0
 11 12  1  0
 12 13  1  0
 13 14  2  0
 14 15  1  0
 15 16  2  0
 16 17  1  0
 17 18  1  0
 18 19  2  0
 18 20  1  0
 20 21  1  0
 16 22  1  0
 22 23  2  0
 10 24  1  0
 24 25  1  0
 25 26  2  0
 26 27  1  0
 27 28  1  0
 28 29  1  0
 29 30  2  0
 30 31  1  0
 31 32  2  0
 32 33  1  0
 33 34  2  0
 25 35  1  0
 35 36  1  0
 36 37  2  0
 37  6  1  0
 36  9  1  0
 23 13  1  0
 34 29  1  0
  1 38  1  0
  1 39  1  0
  1 40  1  0
  2 41  1  0
  2 42  1  0
  3 43  1  0
  3 44  1  0
  4 45  1  0
  5 46  1  0
  7 47  1  0
  8 48  1  0
 12 49  1  0
 12 50  1  0
 14 51  1  0
 15 52  1  0
 17 53  1  0
 21 54  1  0
 21 55  1  0
 21 56  1  0
 22 57  1  0
 23 58  1  0
 24 59  1  0
 27 60  1  0
 27 61  1  0
 28 62  1  0
 28 63  1  0
 30 64  1  0
 31 65  1  0
 32 66  1  0
 33 67  1  0
 34 68  1  0
 35 69  1  0
 37 70  1  0
M  END
>  <smiles>  (4) 
CCCC=Cc1ccc2c(=NCc3ccc(NC(=O)OC)cc3)[nH]c(=NCCc3ccccc3)[nH]c2c1

>  <score_type>  (4) 
oracle

>  <origin>  (4) 
adg

>  <m_score__min__energy>  (4) 
-9.5999999999999996

>  <m_primary>  (4) 
energy

$$$$
4:0
     RDKit          3D

 23 24  0  0  0  0  0  0  0  0999 V2000
   55.1480   27.5390   45.4430 H   0  0  0  0  0  0  0  0  0  0  0  0
   55.1090   26.6880   45.9920 O   0  0  0  0  0  0  0  0  0  0  0  0
   56.2290   25.8760   46.1660 C   0  0  0  0  0  0  0  0  0  0  0  0
   56.0650   24.5700   46.6540 C   0  0  0  0  0  0  0  0  0  0  0  0
   55.0623   24.2119   46.9304 H   0  0  0  0  0  0  0  0  0  0  0  0
   57.1670   23.7220   46.7910 C   0  0  0  0  0  0  0  0  0  0  0  0
   56.9960   22.4300   47.2720 O   0  0  0  0  0  0  0  0  0  0  0  0
   58.4410   24.1730   46.4380 C   0  0  0  0  0  0  0  0  0  0  0  0
   59.3080   23.5035   46.5389 H   0  0  0  0  0  0  0  0  0  0  0  0
   58.6160   25.4730   45.9570 C   0  0  0  0  0  0  0  0  0  0  0  0
   59.6213   25.8185   45.6742 H   0  0  0  0  0  0  0  0  0  0  0  0
   57.5190   26.3440   45.8310 C   0  0  0  0  0  0  0  0  0  0  0  0
   57.7490   27.7200   45.3270 C   0  0  0  0  0  0  0  0  0  0  0  0
   56.7680   28.6650   45.3770 N   0  0  0  0  0  0  0  0  0  0  0  0
   57.1700   29.8350   44.8430 C   0  0  0  0  0  0  0  0  0  0  0  0
   56.3960   30.8770   44.7890 N   0  0  0  0  0  0  0  0  0  0  0  0
   56.8760   32.2530   44.7900 C   0  0  0  0  0  0  0  0  0  0  0  0
   56.9965   32.5985   45.8273 H   0  0  0  0  0  0  0  0  0  0  0  0
   57.8449   32.3037   44.2717 H   0  0  0  0  0  0  0  0  0  0  0  0
   56.1489   32.8954   44.2717 H   0  0  0  0  0  0  0  0  0  0  0  0
   58.7530   29.7540   44.2710 S   0  0  0  0  0  0  0  0  0  0  0  0
   58.9400   28.1460   44.7300 C   0  0  0  0  0  0  0  0  0  0  0  0
   59.8433   27.5351   44.5855 H   0  0  0  0  0  0  0  0  0  0  0  0
  1  2  1  0
  2  3  1  0
  3  4  2  0
  4  5  1  0
  4  6  1  0
  6  7  1  0
  6  8  2  0
  8  9  1  0
  8 10  1  0
 10 11  1  0
 10 12  2  0
 12 13  1  0
 13 14  1  0
 14 15  1  0
 15 16  2  0
 16 17  1  0
 17 18  1  0
 17 19  1  0
 17 20  1  0
 15 21  1  0
 21 22  1  0
 22 23  1  0
 12  3  1  0
 22 13  2  0
M  CHG  2   7  -1  14  -1
M  END
>  <UniqueID>  (5) 
3

>  <SMILES>  (5) 
C/N=c1/[n-]c(-c2ccc([O-])cc2O)cs1

>  <Energy>  (5) 
57.059675720778856

>  <Genealogy>  (5) 
CN=c1[n-]c(-c2ccc([O-])cc2O)cs1 (protonated)
C/N=c1/[n-]c(-c2ccc([O-])cc2O)cs1 (cis-trans isomerization)
C/N=c1/[n-]c(-c2ccc([O-])cc2O)cs1 (3D coordinates assigned)
C/N=c1/[n-]c(-c2ccc([O-])cc2O)cs1 (optimized conformer: 57.059675720778856 kcal/mol)

>  <smiles>  (5) 
CN=c1[nH]c(-c2ccc(O)cc2O)cs1

>  <score_type>  (5) 
oracle

>  <origin>  (5) 
adg

>  <m_score__min__energy>  (5) 
-10.16

>  <m_primary>  (5) 
energy

$$$$
5:0
     RDKit          3D

 43 45  0  0  0  0  0  0  0  0999 V2000
   55.7130   28.6430   45.2320 O   0  0  0  0  0  0  0  0  0  0  0  0
   56.2680   27.5810   45.6220 C   0  0  0  0  0  0  0  0  0  0  0  0
   55.4580   26.4730   46.0180 N   0  0  0  0  0  0  0  0  0  0  0  0
   56.0010   25.2270   46.5480 C   0  0  0  0  0  0  0  0  0  0  0  0
   56.3400   24.2800   45.4270 C   0  0  0  0  0  0  0  0  0  0  0  0
   55.4220   24.0500   44.3880 C   0  0  0  0  0  0  0  0  0  0  0  0
   55.7260   23.1530   43.3610 C   0  0  0  0  0  0  0  0  0  0  0  0
   56.9500   22.4780   43.3620 C   0  0  0  0  0  0  0  0  0  0  0  0
   57.8700   22.6990   44.3890 C   0  0  0  0  0  0  0  0  0  0  0  0
   57.5700   23.5950   45.4210 C   0  0  0  0  0  0  0  0  0  0  0  0
   58.4740   23.7920   46.4140 F   0  0  0  0  0  0  0  0  0  0  0  0
   57.6970   27.4780   45.6450 N   0  0  0  0  0  0  0  0  0  0  0  0
   58.5420   28.1280   46.6010 C   0  0  0  0  0  0  0  0  0  0  0  0
   59.0920   27.3670   47.6380 C   0  0  0  0  0  0  0  0  0  0  0  0
   59.9790   27.9500   48.5410 C   0  0  0  0  0  0  0  0  0  0  0  0
   60.3010   29.3000   48.4060 C   0  0  0  0  0  0  0  0  0  0  0  0
   59.7280   30.0410   47.4220 N   0  0  0  0  0  0  0  0  0  0  0  0
   58.8480   29.5070   46.5280 C   0  0  0  0  0  0  0  0  0  0  0  0
   58.2100   30.3750   45.5750 N   0  0  0  0  0  0  0  0  0  0  0  0
   57.8150   31.7380   45.9570 C   0  0  0  0  0  0  0  0  0  0  0  0
   58.2860   32.7320   44.8920 C   0  0  0  0  0  0  0  0  0  0  0  0
   57.7740   32.3740   43.4800 C   0  0  0  0  0  0  0  0  0  0  0  0
   57.2820   30.9220   43.3450 C   0  0  0  0  0  0  0  0  0  0  0  0
   58.1360   29.9520   44.1690 C   0  0  0  0  0  0  0  0  0  0  0  0
   56.9116   25.4455   47.1251 H   0  0  0  0  0  0  0  0  0  0  0  0
   55.2458   24.7566   47.1948 H   0  0  0  0  0  0  0  0  0  0  0  0
   54.4579   24.5797   44.3834 H   0  0  0  0  0  0  0  0  0  0  0  0
   55.0021   22.9779   42.5515 H   0  0  0  0  0  0  0  0  0  0  0  0
   57.1888   21.7720   42.5530 H   0  0  0  0  0  0  0  0  0  0  0  0
   58.8330   22.1674   44.3867 H   0  0  0  0  0  0  0  0  0  0  0  0
   58.8235   26.3052   47.7410 H   0  0  0  0  0  0  0  0  0  0  0  0
   60.4204   27.3516   49.3516 H   0  0  0  0  0  0  0  0  0  0  0  0
   61.0195   29.7653   49.0968 H   0  0  0  0  0  0  0  0  0  0  0  0
   56.7198   31.7895   46.0457 H   0  0  0  0  0  0  0  0  0  0  0  0
   58.2774   31.9932   46.9219 H   0  0  0  0  0  0  0  0  0  0  0  0
   57.9174   33.7339   45.1572 H   0  0  0  0  0  0  0  0  0  0  0  0
   59.3852   32.6985   44.8669 H   0  0  0  0  0  0  0  0  0  0  0  0
   56.9395   33.0469   43.2332 H   0  0  0  0  0  0  0  0  0  0  0  0
   58.6255   32.4879   42.7930 H   0  0  0  0  0  0  0  0  0  0  0  0
   56.2407   30.8650   43.6950 H   0  0  0  0  0  0  0  0  0  0  0  0
   57.3602   30.6318   42.2869 H   0  0  0  0  0  0  0  0  0  0  0  0
   57.6889   28.9482   44.1189 H   0  0  0  0  0  0  0  0  0  0  0  0
   59.1542   29.9430   43.7529 H   0  0  0  0  0  0  0  0  0  0  0  0
  1  2  2  0
  2  3  1  0
  3  4  1  0
  4  5  1  0
  5  6  2  0
  6  7  1  0
  7  8  2  0
  8  9  1  0
  9 10  2  0
 10 11  1  0
  2 12  1  0
 12 13  1  0
 13 14  2  0
 14 15  1  0
 15 16  2  0
 16 17  1  0
 17 18  2  0
 18 19  1  0
 19 20  1  0
 20 21  1  0
 21 22  1  0
 22 23  1  0
 23 24  1  0
 10  5  1  0
 18 13  1  0
 24 19  1  0
  4 25  1  0
  4 26  1  0
  6 27  1  0
  7 28  1  0
  8 29  1  0
  9 30  1  0
 14 31  1  0
 15 32  1  0
 16 33  1  0
 20 34  1  0
 20 35  1  0
 21 36  1  0
 21 37  1  0
 22 38  1  0
 22 39  1  0
 23 40  1  0
 23 41  1  0
 24 42  1  0
 24 43  1  0
M  CHG  2   3  -1  12  -1
M  END
>  <UniqueID>  (6) 
4

>  <SMILES>  (6) 
O=C([N-]Cc1ccccc1F)[N-]c1cccnc1N1CCCCC1

>  <Energy>  (6) 
52.119668546437055

>  <Genealogy>  (6) 
O=C([N-]Cc1ccccc1F)[N-]c1cccnc1N1CCCCC1 (protonated)
O=C([N-]Cc1ccccc1F)[N-]c1cccnc1N1CCCCC1 (3D coordinates assigned)
O=C([N-]Cc1ccccc1F)[N-]c1cccnc1N1CCCCC1 (nonaromatic ring conformer: 52.119668546437055 kcal/mol)

>  <smiles>  (6) 
O=C(NCc1ccccc1F)Nc1cccnc1N1CCCCC1

>  <score_type>  (6) 
oracle

>  <origin>  (6) 
adg

>  <m_score__min__energy>  (6) 
-10.84

>  <m_primary>  (6) 
energy

$$$$
6:0
     RDKit          3D

 42 44  0  0  0  0  0  0  0  0999 V2000
   59.3069   28.1334   51.1533 H   0  0  0  0  0  0  0  0  0  0  0  0
   59.6450   28.9220   50.4650 C   0  0  0  0  0  0  0  0  0  0  0  0
   60.3330   28.5900   49.2910 C   0  0  0  0  0  0  0  0  0  0  0  0
   60.6160   27.1600   48.9600 C   0  0  0  0  0  0  0  0  0  0  0  0
   60.7300   26.5840   49.8902 H   0  0  0  0  0  0  0  0  0  0  0  0
   59.7821   26.7475   48.3731 H   0  0  0  0  0  0  0  0  0  0  0  0
   61.5442   27.0962   48.3731 H   0  0  0  0  0  0  0  0  0  0  0  0
   60.7440   29.5760   48.4490 N   0  0  0  0  0  0  0  0  0  0  0  0
   60.5090   30.8950   48.7050 C   0  0  0  0  0  0  0  0  0  0  0  0
   60.9080   31.8270   47.8870 N   0  0  0  0  0  0  0  0  0  0  0  0
   60.2780   33.0980   47.6430 C   0  0  0  0  0  0  0  0  0  0  0  0
   60.5710   34.1040   48.3460 O   0  0  0  0  0  0  0  0  0  0  0  0
   59.2750   33.2270   46.5580 C   0  0  0  0  0  0  0  0  0  0  0  0
   59.0890   34.4560   45.9010 C   0  0  0  0  0  0  0  0  0  0  0  0
   59.6917   35.3284   46.1937 H   0  0  0  0  0  0  0  0  0  0  0  0
   58.1450   34.5770   44.8800 C   0  0  0  0  0  0  0  0  0  0  0  0
   58.0053   35.5440   44.3747 H   0  0  0  0  0  0  0  0  0  0  0  0
   57.3780   33.4760   44.4980 C   0  0  0  0  0  0  0  0  0  0  0  0
   56.6356   33.5807   43.6931 H   0  0  0  0  0  0  0  0  0  0  0  0
   57.5460   32.2400   45.1310 C   0  0  0  0  0  0  0  0  0  0  0  0
   56.7470   31.1660   44.7040 O   0  0  0  0  0  0  0  0  0  0  0  0
   56.7330   30.6160   43.3860 C   0  0  0  0  0  0  0  0  0  0  0  0
   55.7747   30.8587   42.9035 H   0  0  0  0  0  0  0  0  0  0  0  0
   57.5680   31.0468   42.8139 H   0  0  0  0  0  0  0  0  0  0  0  0
   56.9010   29.0960   43.4330 C   0  0  0  0  0  0  0  0  0  0  0  0
   55.9233   28.6173   43.2752 H   0  0  0  0  0  0  0  0  0  0  0  0
   57.6019   28.7878   42.6432 H   0  0  0  0  0  0  0  0  0  0  0  0
   57.4350   28.6870   44.7310 N   0  0  0  0  0  0  0  0  0  0  0  0
   56.8270   27.9320   45.6660 C   0  0  0  0  0  0  0  0  0  0  0  0
   55.5240   27.4580   45.5720 O   0  0  0  0  0  0  0  0  0  0  0  0
   57.6960   27.7000   46.7110 C   0  0  0  0  0  0  0  0  0  0  0  0
   57.4741   27.1231   47.6209 H   0  0  0  0  0  0  0  0  0  0  0  0
   58.8660   28.3050   46.4210 N   0  0  0  0  0  0  0  0  0  0  0  0
   59.7340   28.3100   47.0010 H   0  0  0  0  0  0  0  0  0  0  0  0
   58.6780   28.8820   45.2180 C   0  0  0  0  0  0  0  0  0  0  0  0
   59.5740   29.5290   44.6130 O   0  0  0  0  0  0  0  0  0  0  0  0
   58.4940   32.1210   46.1670 C   0  0  0  0  0  0  0  0  0  0  0  0
   58.6257   31.1547   46.6758 H   0  0  0  0  0  0  0  0  0  0  0  0
   59.8250   31.2580   49.8710 C   0  0  0  0  0  0  0  0  0  0  0  0
   59.6293   32.3178   50.0915 H   0  0  0  0  0  0  0  0  0  0  0  0
   59.3930   30.2650   50.7520 C   0  0  0  0  0  0  0  0  0  0  0  0
   58.8548   30.5402   51.6710 H   0  0  0  0  0  0  0  0  0  0  0  0
  1  2  1  0
  2  3  2  0
  3  4  1  0
  4  5  1  0
  4  6  1  0
  4  7  1  0
  3  8  1  0
  8  9  1  0
  9 10  2  0
 10 11  1  0
 11 12  2  0
 11 13  1  0
 13 14  2  0
 14 15  1  0
 14 16  1  0
 16 17  1  0
 16 18  2  0
 18 19  1  0
 18 20  1  0
 20 21  1  0
 21 22  1  0
 22 23  1  0
 22 24  1  0
 22 25  1  0
 25 26  1  0
 25 27  1  0
 25 28  1  0
 28 29  1  0
 29 30  1  0
 29 31  2  0
 31 32  1  0
 31 33  1  0
 33 34  1  0
 33 35  1  0
 35 36  2  0
 20 37  2  0
 37 38  1  0
  9 39  1  0
 39 40  1  0
 39 41  2  0
 41 42  1  0
 41  2  1  0
 37 13  1  0
 35 28  1  0
M  CHG  2   8  -1  30  -1
M  END
>  <UniqueID>  (7) 
5

>  <SMILES>  (7) 
Cc1ccc/c(=N/C(=O)c2cccc(OCCn3c([O-])c[nH]c3=O)c2)[n-]1

>  <Energy>  (7) 
77.5913653947439

>  <Genealogy>  (7) 
Cc1cccc(=NC(=O)c2cccc(OCCn3c([O-])c[nH]c3=O)c2)[n-]1 (protonated)
Cc1ccc/c(=N/C(=O)c2cccc(OCCn3c([O-])c[nH]c3=O)c2)[n-]1 (cis-trans isomerization)
Cc1ccc/c(=N/C(=O)c2cccc(OCCn3c([O-])c[nH]c3=O)c2)[n-]1 (3D coordinates assigned)
Cc1ccc/c(=N/C(=O)c2cccc(OCCn3c([O-])c[nH]c3=O)c2)[n-]1 (optimized conformer: 77.5913653947439 kcal/mol)

>  <smiles>  (7) 
Cc1cccc(=NC(=O)c2cccc(OCCn3c(O)c[nH]c3=O)c2)[nH]1

>  <score_type>  (7) 
oracle

>  <origin>  (7) 
adg

>  <m_score__min__energy>  (7) 
-12.85

>  <m_primary>  (7) 
energy

$$$$
7:0
     RDKit          3D

 58 60  0  0  0  0  0  0  0  0999 V2000
   57.6900   31.9650   51.0750 C   0  0  0  0  0  0  0  0  0  0  0  0
   59.0970   31.7610   51.1470 O   0  0  0  0  0  0  0  0  0  0  0  0
   60.0170   32.1850   50.1740 C   0  0  0  0  0  0  0  0  0  0  0  0
   60.4850   33.5140   50.1280 C   0  0  0  0  0  0  0  0  0  0  0  0
   61.3840   33.9140   49.1360 C   0  0  0  0  0  0  0  0  0  0  0  0
   61.8220   33.0000   48.1760 C   0  0  0  0  0  0  0  0  0  0  0  0
   63.0390   33.5520   46.8140 Br  0  0  0  0  0  0  0  0  0  0  0  0
   61.3700   31.6790   48.2130 C   0  0  0  0  0  0  0  0  0  0  0  0
   60.4770   31.2600   49.2130 C   0  0  0  0  0  0  0  0  0  0  0  0
   59.9330   29.5770   49.2230 S   0  0  0  0  0  0  0  0  0  0  0  0
   60.2450   28.9690   50.5620 O   0  0  0  0  0  0  0  0  0  0  0  0
   58.4450   29.5010   49.0150 O   0  0  0  0  0  0  0  0  0  0  0  0
   60.7530   28.6670   47.9900 N   0  0  0  0  0  0  0  0  0  0  0  0
   60.8300   27.2540   48.3700 C   0  0  0  0  0  0  0  0  0  0  0  0
   60.4930   26.3620   47.1730 C   0  0  0  0  0  0  0  0  0  0  0  0
   59.0180   26.0560   47.1250 C   0  0  0  0  0  0  0  0  0  0  0  0
   58.4620   25.6310   48.1750 O   0  0  0  0  0  0  0  0  0  0  0  0
   58.2490   26.1770   45.9060 N   0  0  0  0  0  0  0  0  0  0  0  0
   57.8240   24.9680   45.1970 C   0  0  0  0  0  0  0  0  0  0  0  0
   57.6450   27.4290   45.5380 C   0  0  0  0  0  0  0  0  0  0  0  0
   58.4230   28.5150   45.0860 C   0  0  0  0  0  0  0  0  0  0  0  0
   59.8510   28.3600   44.9840 N   0  0  0  0  0  0  0  0  0  0  0  0
   57.8080   29.7040   44.7530 N   0  0  0  0  0  0  0  0  0  0  0  0
   58.6030   30.8800   44.3300 C   0  0  0  0  0  0  0  0  0  0  0  0
   58.4730   32.0360   45.2960 C   0  0  0  0  0  0  0  0  0  0  0  0
   58.7270   33.3400   44.8440 C   0  0  0  0  0  0  0  0  0  0  0  0
   58.6780   34.4200   45.7300 C   0  0  0  0  0  0  0  0  0  0  0  0
   58.3870   34.2030   47.0800 C   0  0  0  0  0  0  0  0  0  0  0  0
   58.1490   32.9100   47.5440 C   0  0  0  0  0  0  0  0  0  0  0  0
   58.2000   31.8270   46.6620 C   0  0  0  0  0  0  0  0  0  0  0  0
   56.4370   29.8030   44.8220 C   0  0  0  0  0  0  0  0  0  0  0  0
   55.8460   30.8680   44.4950 O   0  0  0  0  0  0  0  0  0  0  0  0
   55.6910   28.7520   45.2390 N   0  0  0  0  0  0  0  0  0  0  0  0
   56.2560   27.5790   45.5980 C   0  0  0  0  0  0  0  0  0  0  0  0
   55.5240   26.6260   45.9750 O   0  0  0  0  0  0  0  0  0  0  0  0
   57.2757   32.0251   52.0922 H   0  0  0  0  0  0  0  0  0  0  0  0
   57.4824   32.9026   50.5386 H   0  0  0  0  0  0  0  0  0  0  0  0
   57.2247   31.1249   50.5386 H   0  0  0  0  0  0  0  0  0  0  0  0
   60.1401   34.2409   50.8781 H   0  0  0  0  0  0  0  0  0  0  0  0
   61.7476   34.9519   49.1114 H   0  0  0  0  0  0  0  0  0  0  0  0
   61.7157   30.9619   47.4539 H   0  0  0  0  0  0  0  0  0  0  0  0
   60.1720   28.7410   47.1210 H   0  0  0  0  0  0  0  0  0  0  0  0
   61.8490   27.0266   48.7163 H   0  0  0  0  0  0  0  0  0  0  0  0
   60.1059   27.0604   49.1751 H   0  0  0  0  0  0  0  0  0  0  0  0
   60.7834   26.8788   46.2464 H   0  0  0  0  0  0  0  0  0  0  0  0
   61.0439   25.4154   47.2756 H   0  0  0  0  0  0  0  0  0  0  0  0
   57.5511   24.1917   45.9270 H   0  0  0  0  0  0  0  0  0  0  0  0
   56.9535   25.2000   44.5658 H   0  0  0  0  0  0  0  0  0  0  0  0
   58.6482   24.6043   44.5658 H   0  0  0  0  0  0  0  0  0  0  0  0
   60.3320   28.1150   44.0930 H   0  0  0  0  0  0  0  0  0  0  0  0
   60.4660   28.4430   45.8220 H   0  0  0  0  0  0  0  0  0  0  0  0
   59.6617   30.5879   44.2678 H   0  0  0  0  0  0  0  0  0  0  0  0
   58.2207   31.2119   43.3534 H   0  0  0  0  0  0  0  0  0  0  0  0
   58.9665   33.5135   43.7845 H   0  0  0  0  0  0  0  0  0  0  0  0
   58.8683   35.4401   45.3652 H   0  0  0  0  0  0  0  0  0  0  0  0
   58.3458   35.0532   47.7768 H   0  0  0  0  0  0  0  0  0  0  0  0
   57.9205   32.7418   48.6068 H   0  0  0  0  0  0  0  0  0  0  0  0
   58.0262   30.8073   47.0361 H   0  0  0  0  0  0  0  0  0  0  0  0
  1  2  1  0
  2  3  1  0
  3  4  2  0
  4  5  1  0
  5  6  2  0
  6  7  1  0
  6  8  1  0
  8  9  2  0
  9 10  1  0
 10 11  2  0
 10 12  2  0
 10 13  1  0
 13 14  1  0
 14 15  1  0
 15 16  1  0
 16 17  2  0
 16 18  1  0
 18 19  1  0
 18 20  1  0
 20 21  2  0
 21 22  1  0
 21 23  1  0
 23 24  1  0
 24 25  1  0
 25 26  2  0
 26 27  1  0
 27 28  2  0
 28 29  1  0
 29 30  2  0
 23 31  1  0
 31 32  2  0
 31 33  1  0
 33 34  1  0
 34 35  2  0
  9  3  1  0
 34 20  1  0
 30 25  1  0
  1 36  1  0
  1 37  1  0
  1 38  1  0
  4 39  1  0
  5 40  1  0
  8 41  1  0
 13 42  1  0
 14 43  1  0
 14 44  1  0
 15 45  1  0
 15 46  1  0
 19 47  1  0
 19 48  1  0
 19 49  1  0
 22 50  1  0
 22 51  1  0
 24 52  1  0
 24 53  1  0
 26 54  1  0
 27 55  1  0
 28 56  1  0
 29 57  1  0
 30 58  1  0
M  CHG  1  33  -1
M  END
>  <UniqueID>  (8) 
6

>  <SMILES>  (8) 
COc1ccc(Br)cc1S(=O)(=O)NCCC(=O)N(C)c1c(N)n(Cc2ccccc2)c(=O)[n-]c1=O

>  <Energy>  (8) 
67.22657212191955

>  <Genealogy>  (8) 
COc1ccc(Br)cc1S(=O)(=O)NCCC(=O)N(C)c1c(N)n(Cc2ccccc2)c(=O)[n-]c1=O (protonated)
COc1ccc(Br)cc1S(=O)(=O)NCCC(=O)N(C)c1c(N)n(Cc2ccccc2)c(=O)[n-]c1=O (3D coordinates assigned)
COc1ccc(Br)cc1S(=O)(=O)NCCC(=O)N(C)c1c(N)n(Cc2ccccc2)c(=O)[n-]c1=O (optimized conformer: 67.22657212191955 kcal/mol)

>  <smiles>  (8) 
COc1ccc(Br)cc1S(=O)(=O)NCCC(=O)N(C)c1c(N)n(Cc2ccccc2)c(=O)[nH]c1=O

>  <score_type>  (8) 
oracle

>  <origin>  (8) 
adg

>  <m_score__min__energy>  (8) 
-10.1

>  <m_primary>  (8) 
energy

$$$$
8:0
     RDKit          3D

 47 50  0  0  0  0  0  0  0  0999 V2000
   55.6730   19.6800   51.2600 C   0  0  0  0  0  0  0  0  0  0  0  0
   55.8080   21.4460   51.0990 S   0  0  0  0  0  0  0  0  0  0  0  0
   54.7860   22.1130   51.9760 O   0  0  0  0  0  0  0  0  0  0  0  0
   57.1780   21.8870   51.5330 O   0  0  0  0  0  0  0  0  0  0  0  0
   55.5400   21.9010   49.4220 C   0  0  0  0  0  0  0  0  0  0  0  0
   56.6410   22.2030   48.5790 C   0  0  0  0  0  0  0  0  0  0  0  0
   56.4410   22.5760   47.2790 N   0  0  0  0  0  0  0  0  0  0  0  0
   55.1700   22.6510   46.8110 C   0  0  0  0  0  0  0  0  0  0  0  0
   54.0850   22.3810   47.5840 C   0  0  0  0  0  0  0  0  0  0  0  0
   54.2280   22.0000   48.9120 C   0  0  0  0  0  0  0  0  0  0  0  0
   52.9490   22.5690   46.8850 N   0  0  0  0  0  0  0  0  0  0  0  0
   53.4190   22.9600   45.6690 C   0  0  0  0  0  0  0  0  0  0  0  0
   52.6550   23.2560   44.7120 O   0  0  0  0  0  0  0  0  0  0  0  0
   54.7730   23.0110   45.5840 N   0  0  0  0  0  0  0  0  0  0  0  0
   55.5960   23.4780   44.4710 C   0  0  0  0  0  0  0  0  0  0  0  0
   56.3380   24.7240   44.8680 C   0  0  0  0  0  0  0  0  0  0  0  0
   55.8910   25.5020   45.9480 C   0  0  0  0  0  0  0  0  0  0  0  0
   56.5550   26.6840   46.2870 C   0  0  0  0  0  0  0  0  0  0  0  0
   57.6740   27.1020   45.5530 C   0  0  0  0  0  0  0  0  0  0  0  0
   58.3660   28.3560   45.9110 C   0  0  0  0  0  0  0  0  0  0  0  0
   59.4440   28.2910   46.8100 C   0  0  0  0  0  0  0  0  0  0  0  0
   60.1130   29.4520   47.2010 C   0  0  0  0  0  0  0  0  0  0  0  0
   59.7160   30.6890   46.6960 C   0  0  0  0  0  0  0  0  0  0  0  0
   58.6550   30.7700   45.7930 C   0  0  0  0  0  0  0  0  0  0  0  0
   57.9760   29.6120   45.3810 C   0  0  0  0  0  0  0  0  0  0  0  0
   56.6770   29.7650   44.1860 S   0  0  0  0  0  0  0  0  0  0  0  0
   55.1590   29.3430   44.8990 N   0  0  0  0  0  0  0  0  0  0  0  0
   56.6230   31.1760   43.6730 O   0  0  0  0  0  0  0  0  0  0  0  0
   56.9300   28.8340   43.0310 O   0  0  0  0  0  0  0  0  0  0  0  0
   58.1040   26.3420   44.4570 C   0  0  0  0  0  0  0  0  0  0  0  0
   57.4410   25.1590   44.1160 C   0  0  0  0  0  0  0  0  0  0  0  0
   55.6523   19.4095   52.3260 H   0  0  0  0  0  0  0  0  0  0  0  0
   54.7461   19.3376   50.7768 H   0  0  0  0  0  0  0  0  0  0  0  0
   56.5371   19.2006   50.7768 H   0  0  0  0  0  0  0  0  0  0  0  0
   57.6650   22.1363   48.9753 H   0  0  0  0  0  0  0  0  0  0  0  0
   53.3524   21.7838   49.5418 H   0  0  0  0  0  0  0  0  0  0  0  0
   56.3187   22.6948   44.1986 H   0  0  0  0  0  0  0  0  0  0  0  0
   54.9474   23.7022   43.6113 H   0  0  0  0  0  0  0  0  0  0  0  0
   55.0147   25.1798   46.5296 H   0  0  0  0  0  0  0  0  0  0  0  0
   56.1981   27.2891   47.1335 H   0  0  0  0  0  0  0  0  0  0  0  0
   59.7634   27.3169   47.2090 H   0  0  0  0  0  0  0  0  0  0  0  0
   60.9537   29.3907   47.9078 H   0  0  0  0  0  0  0  0  0  0  0  0
   60.2403   31.6036   47.0100 H   0  0  0  0  0  0  0  0  0  0  0  0
   58.3477   31.7504   45.4002 H   0  0  0  0  0  0  0  0  0  0  0  0
   55.3540   28.6250   45.6310 H   0  0  0  0  0  0  0  0  0  0  0  0
   58.9666   26.6774   43.8625 H   0  0  0  0  0  0  0  0  0  0  0  0
   57.7850   24.5668   43.2552 H   0  0  0  0  0  0  0  0  0  0  0  0
  1  2  1  0
  2  3  2  0
  2  4  2  0
  2  5  1  0
  5  6  2  0
  6  7  1  0
  7  8  2  0
  8  9  1  0
  9 10  2  0
  9 11  1  0
 11 12  1  0
 12 13  2  0
 12 14  1  0
 14 15  1  0
 15 16  1  0
 16 17  2  0
 17 18  1  0
 18 19  2  0
 19 20  1  0
 20 21  2  0
 21 22  1  0
 22 23  2  0
 23 24  1  0
 24 25  2  0
 25 26  1  0
 26 27  1  0
 26 28  2  0
 26 29  2  0
 19 30  1  0
 30 31  2  0
 10  5  1  0
 31 16  1  0
 14  8  1  0
 25 20  1  0
  1 32  1  0
  1 33  1  0
  1 34  1  0
  6 35  1  0
 10 36  1  0
 15 37  1  0
 15 38  1  0
 17 39  1  0
 18 40  1  0
 21 41  1  0
 22 42  1  0
 23 43  1  0
 24 44  1  0
 27 45  1  0
 30 46  1  0
 31 47  1  0
M  CHG  2  11  -1  27  -1
M  END
>  <UniqueID>  (9) 
7

>  <SMILES>  (9) 
CS(=O)(=O)c1cnc2c(c1)[n-]c(=O)n2Cc1ccc(-c2ccccc2S([NH-])(=O)=O)cc1

>  <Energy>  (9) 
96.08572974448902

>  <Genealogy>  (9) 
CS(=O)(=O)c1cnc2c(c1)[n-]c(=O)n2Cc1ccc(-c2ccccc2S([NH-])(=O)=O)cc1 (protonated)
CS(=O)(=O)c1cnc2c(c1)[n-]c(=O)n2Cc1ccc(-c2ccccc2S([NH-])(=O)=O)cc1 (3D coordinates assigned)
CS(=O)(=O)c1cnc2c(c1)[n-]c(=O)n2Cc1ccc(-c2ccccc2S([NH-])(=O)=O)cc1 (optimized conformer: 96.08572974448902 kcal/mol)

>  <smiles>  (9) 
CS(=O)(=O)c1cnc2c(c1)[nH]c(=O)n2Cc1ccc(-c2ccccc2S(N)(=O)=O)cc1

>  <score_type>  (9) 
oracle

>  <origin>  (9) 
adg

>  <m_score__min__energy>  (9) 
-12.9

>  <m_primary>  (9) 
energy

$$$$
9:0
     RDKit          3D

 51 53  0  0  0  0  0  0  0  0999 V2000
   58.8771   35.4422   46.7841 H   0  0  0  0  0  0  0  0  0  0  0  0
   58.5550   34.5920   46.1650 C   0  0  0  0  0  0  0  0  0  0  0  0
   57.7570   33.5880   46.7190 C   0  0  0  0  0  0  0  0  0  0  0  0
   57.4536   33.6462   47.7747 H   0  0  0  0  0  0  0  0  0  0  0  0
   57.3440   32.5090   45.9310 C   0  0  0  0  0  0  0  0  0  0  0  0
   56.7095   31.7239   46.3680 H   0  0  0  0  0  0  0  0  0  0  0  0
   57.7350   32.4220   44.5840 C   0  0  0  0  0  0  0  0  0  0  0  0
   57.2560   31.2890   43.7220 C   0  0  0  0  0  0  0  0  0  0  0  0
   58.1209   30.7375   43.3247 H   0  0  0  0  0  0  0  0  0  0  0  0
   56.6632   31.6860   42.8847 H   0  0  0  0  0  0  0  0  0  0  0  0
   56.4310   30.3910   44.5260 N   0  0  0  0  0  0  0  0  0  0  0  0
   56.8470   29.3510   45.1890 C   0  0  0  0  0  0  0  0  0  0  0  0
   58.0730   29.4010   45.7720 N   0  0  0  0  0  0  0  0  0  0  0  0
   58.5560   28.3400   46.4610 C   0  0  0  0  0  0  0  0  0  0  0  0
   59.7370   28.4160   47.0040 N   0  0  0  0  0  0  0  0  0  0  0  0
   60.2440   29.5610   47.7680 C   0  0  0  0  0  0  0  0  0  0  0  0
   60.9202   29.2355   48.5723 H   0  0  0  0  0  0  0  0  0  0  0  0
   61.0340   30.4770   46.8100 C   0  0  0  0  0  0  0  0  0  0  0  0
   61.8739   29.9043   46.3898 H   0  0  0  0  0  0  0  0  0  0  0  0
   60.3379   30.8160   46.0287 H   0  0  0  0  0  0  0  0  0  0  0  0
   61.5920   31.7270   47.5030 C   0  0  0  0  0  0  0  0  0  0  0  0
   62.1800   31.4085   48.3764 H   0  0  0  0  0  0  0  0  0  0  0  0
   62.2045   32.2629   46.7630 H   0  0  0  0  0  0  0  0  0  0  0  0
   60.5060   32.6940   47.9760 C   0  0  0  0  0  0  0  0  0  0  0  0
   60.8785   33.7224   47.8596 H   0  0  0  0  0  0  0  0  0  0  0  0
   59.6118   32.5073   47.3632 H   0  0  0  0  0  0  0  0  0  0  0  0
   60.1060   32.4820   49.4460 C   0  0  0  0  0  0  0  0  0  0  0  0
   61.0180   32.4745   50.0610 H   0  0  0  0  0  0  0  0  0  0  0  0
   59.4312   33.3036   49.7280 H   0  0  0  0  0  0  0  0  0  0  0  0
   59.3500   31.1630   49.6720 C   0  0  0  0  0  0  0  0  0  0  0  0
   59.9485   30.5521   50.3638 H   0  0  0  0  0  0  0  0  0  0  0  0
   58.3622   31.4623   50.0523 H   0  0  0  0  0  0  0  0  0  0  0  0
   59.0540   30.2990   48.4240 C   0  0  0  0  0  0  0  0  0  0  0  0
   58.3158   29.5381   48.7176 H   0  0  0  0  0  0  0  0  0  0  0  0
   58.7138   31.0152   47.6616 H   0  0  0  0  0  0  0  0  0  0  0  0
   57.8050   27.2140   46.5680 N   0  0  0  0  0  0  0  0  0  0  0  0
   56.5770   27.1420   45.9960 C   0  0  0  0  0  0  0  0  0  0  0  0
   55.8970   26.0370   46.1230 N   0  0  0  0  0  0  0  0  0  0  0  0
   56.1080   24.8070   45.3670 C   0  0  0  0  0  0  0  0  0  0  0  0
   55.1739   24.5241   44.8596 H   0  0  0  0  0  0  0  0  0  0  0  0
   56.4114   24.0030   46.0537 H   0  0  0  0  0  0  0  0  0  0  0  0
   57.2010   25.0270   44.3310 C   0  0  0  0  0  0  0  0  0  0  0  0
   58.1564   25.2193   44.8411 H   0  0  0  0  0  0  0  0  0  0  0  0
   57.2955   24.1299   43.7015 H   0  0  0  0  0  0  0  0  0  0  0  0
   56.9411   25.8908   43.7015 H   0  0  0  0  0  0  0  0  0  0  0  0
   56.0910   28.2160   45.3050 N   0  0  0  0  0  0  0  0  0  0  0  0
   55.1470   28.1690   44.8660 H   0  0  0  0  0  0  0  0  0  0  0  0
   58.5370   33.4370   44.0340 C   0  0  0  0  0  0  0  0  0  0  0  0
   58.8447   33.3815   42.9794 H   0  0  0  0  0  0  0  0  0  0  0  0
   58.9450   34.5170   44.8230 C   0  0  0  0  0  0  0  0  0  0  0  0
   59.5732   35.3085   44.3884 H   0  0  0  0  0  0  0  0  0  0  0  0
  1  2  1  0
  2  3  2  0
  3  4  1  0
  3  5  1  0
  5  6  1  0
  5  7  2  0
  7  8  1  0
  8  9  1  0
  8 10  1  0
  8 11  1  0
 11 12  2  0
 12 13  1  0
 13 14  1  0
 14 15  2  3
 15 16  1  0
 16 17  1  0
 16 18  1  0
 18 19  1  0
 18 20  1  0
 18 21  1  0
 21 22  1  0
 21 23  1  0
 21 24  1  0
 24 25  1  0
 24 26  1  0
 24 27  1  0
 27 28  1  0
 27 29  1  0
 27 30  1  0
 30 31  1  0
 30 32  1  0
 30 33  1  0
 33 34  1  0
 33 35  1  0
 14 36  1  0
 36 37  1  0
 37 38  2  0
 38 39  1  0
 39 40  1  0
 39 41  1  0
 39 42  1  0
 42 43  1  0
 42 44  1  0
 42 45  1  0
 37 46  1  0
 46 47  1  0
  7 48  1  0
 48 49  1  0
 48 50  2  0
 50 51  1  0
 50  2  1  0
 46 12  1  0
 33 16  1  0
M  CHG  2  13  -1  36  -1
M  END
>  <UniqueID>  (10) 
8

>  <SMILES>  (10) 
CC/N=c1/[n-]c(=NC2CCCCCC2)[n-]/c(=N/Cc2ccccc2)[nH]1

>  <Energy>  (10) 
52.43512543159105

>  <Genealogy>  (10) 
CCN=c1[n-]c(=NC2CCCCCC2)[n-]c(=NCc2ccccc2)[nH]1 (protonated)
CC/N=c1/[n-]c(=NC2CCCCCC2)[n-]/c(=N/Cc2ccccc2)[nH]1 (cis-trans isomerization)
CC/N=c1/[n-]c(=NC2CCCCCC2)[n-]/c(=N/Cc2ccccc2)[nH]1 (3D coordinates assigned)
CC/N=c1/[n-]c(=NC2CCCCCC2)[n-]/c(=N/Cc2ccccc2)[nH]1 (nonaromatic ring conformer: 52.43512543159105 kcal/mol)

>  <smiles>  (10) 
CCN=c1[nH]c(=NCc2ccccc2)[nH]c(=NC2CCCCCC2)[nH]1

>  <score_type>  (10) 
oracle

>  <origin>  (10) 
adg

>  <m_score__min__energy>  (10) 
-9.2799999999999994

>  <m_primary>  (10) 
energy

$$$$
10:0
     RDKit          3D

 64 68  0  0  0  0  0  0  0  0999 V2000
   59.8980   28.2460   49.9710 O   0  0  0  0  0  0  0  0  0  0  0  0
   59.6730   28.7000   48.8150 C   0  0  0  0  0  0  0  0  0  0  0  0
   59.3340   27.7980   47.7530 N   0  0  0  0  0  0  0  0  0  0  0  0
   59.8080   26.4210   47.6790 C   0  0  0  0  0  0  0  0  0  0  0  0
   59.6760   25.9010   46.2460 C   0  0  0  0  0  0  0  0  0  0  0  0
   58.3990   25.1260   46.0670 C   0  0  0  0  0  0  0  0  0  0  0  0
   57.1590   25.7090   46.3800 C   0  0  0  0  0  0  0  0  0  0  0  0
   55.9800   24.9690   46.2450 C   0  0  0  0  0  0  0  0  0  0  0  0
   56.0230   23.6460   45.7870 C   0  0  0  0  0  0  0  0  0  0  0  0
   54.5390   22.7070   45.6270 S   0  0  0  0  0  0  0  0  0  0  0  0
   54.8910   21.2970   45.2410 O   0  0  0  0  0  0  0  0  0  0  0  0
   53.8080   22.6710   46.9390 O   0  0  0  0  0  0  0  0  0  0  0  0
   53.5270   23.3970   44.3940 N   0  0  0  0  0  0  0  0  0  0  0  0
   52.3600   24.0300   45.0010 C   0  0  0  0  0  0  0  0  0  0  0  0
   51.2390   23.0100   45.1470 C   0  0  0  0  0  0  0  0  0  0  0  0
   51.7670   21.7130   45.1000 O   0  0  0  0  0  0  0  0  0  0  0  0
   57.2560   23.0720   45.4480 C   0  0  0  0  0  0  0  0  0  0  0  0
   58.4370   23.8080   45.5880 C   0  0  0  0  0  0  0  0  0  0  0  0
   59.7500   30.1590   48.5570 C   0  0  0  0  0  0  0  0  0  0  0  0
   60.2220   31.0280   49.5530 C   0  0  0  0  0  0  0  0  0  0  0  0
   60.2850   32.3980   49.3220 C   0  0  0  0  0  0  0  0  0  0  0  0
   59.8710   32.9320   48.1020 C   0  0  0  0  0  0  0  0  0  0  0  0
   59.9420   34.2850   47.9260 N   0  0  0  0  0  0  0  0  0  0  0  0
   59.5640   34.8850   46.7690 C   0  0  0  0  0  0  0  0  0  0  0  0
   59.6390   36.1340   46.6480 O   0  0  0  0  0  0  0  0  0  0  0  0
   59.0940   34.0870   45.7380 C   0  0  0  0  0  0  0  0  0  0  0  0
   58.6410   34.4360   44.4910 C   0  0  0  0  0  0  0  0  0  0  0  0
   58.2670   33.3100   43.8590 N   0  0  0  0  0  0  0  0  0  0  0  0
   58.4640   32.2640   44.6600 N   0  0  0  0  0  0  0  0  0  0  0  0
   58.1130   30.9230   44.1740 C   0  0  0  0  0  0  0  0  0  0  0  0
   59.1860   29.8770   44.5370 C   0  0  0  0  0  0  0  0  0  0  0  0
   58.6550   28.4510   44.3440 C   0  0  0  0  0  0  0  0  0  0  0  0
   57.4030   28.2790   44.9800 O   0  0  0  0  0  0  0  0  0  0  0  0
   56.4200   29.0440   44.3070 C   0  0  0  0  0  0  0  0  0  0  0  0
   56.6540   30.5480   44.5000 C   0  0  0  0  0  0  0  0  0  0  0  0
   58.9860   32.7190   45.8450 C   0  0  0  0  0  0  0  0  0  0  0  0
   59.3830   32.0780   47.0620 C   0  0  0  0  0  0  0  0  0  0  0  0
   59.3430   30.6900   47.3190 C   0  0  0  0  0  0  0  0  0  0  0  0
   60.8637   26.3817   47.9854 H   0  0  0  0  0  0  0  0  0  0  0  0
   59.2026   25.7931   48.3493 H   0  0  0  0  0  0  0  0  0  0  0  0
   59.6785   26.7547   45.5523 H   0  0  0  0  0  0  0  0  0  0  0  0
   60.5234   25.2313   46.0377 H   0  0  0  0  0  0  0  0  0  0  0  0
   57.1157   26.7502   46.7321 H   0  0  0  0  0  0  0  0  0  0  0  0
   55.0136   25.4285   46.4999 H   0  0  0  0  0  0  0  0  0  0  0  0
   52.6306   24.4201   45.9933 H   0  0  0  0  0  0  0  0  0  0  0  0
   52.0191   24.8557   44.3592 H   0  0  0  0  0  0  0  0  0  0  0  0
   50.7302   23.1622   46.1103 H   0  0  0  0  0  0  0  0  0  0  0  0
   50.5212   23.1395   44.3236 H   0  0  0  0  0  0  0  0  0  0  0  0
   52.7470   21.7900   45.2280 H   0  0  0  0  0  0  0  0  0  0  0  0
   57.2949   22.0395   45.0707 H   0  0  0  0  0  0  0  0  0  0  0  0
   59.4012   23.3508   45.3210 H   0  0  0  0  0  0  0  0  0  0  0  0
   60.5444   30.6225   50.5234 H   0  0  0  0  0  0  0  0  0  0  0  0
   60.6648   33.0665   50.1087 H   0  0  0  0  0  0  0  0  0  0  0  0
   58.5924   35.4557   44.0812 H   0  0  0  0  0  0  0  0  0  0  0  0
   58.1296   30.9354   43.0742 H   0  0  0  0  0  0  0  0  0  0  0  0
   60.0640   30.0239   43.8908 H   0  0  0  0  0  0  0  0  0  0  0  0
   59.4580   30.0083   45.5947 H   0  0  0  0  0  0  0  0  0  0  0  0
   58.5405   28.2537   43.2679 H   0  0  0  0  0  0  0  0  0  0  0  0
   59.3726   27.7491   44.7938 H   0  0  0  0  0  0  0  0  0  0  0  0
   56.4580   28.8106   43.2327 H   0  0  0  0  0  0  0  0  0  0  0  0
   55.4354   28.7896   44.7264 H   0  0  0  0  0  0  0  0  0  0  0  0
   55.9808   31.1060   43.8325 H   0  0  0  0  0  0  0  0  0  0  0  0
   56.4514   30.8036   45.5505 H   0  0  0  0  0  0  0  0  0  0  0  0
   58.9854   30.0082   46.5333 H   0  0  0  0  0  0  0  0  0  0  0  0
  1  2  2  0
  2  3  1  0
  3  4  1  0
  4  5  1  0
  5  6  1  0
  6  7  2  0
  7  8  1  0
  8  9  2  0
  9 10  1  0
 10 11  2  0
 10 12  2  0
 10 13  1  0
 13 14  1  0
 14 15  1  0
 15 16  1  0
  9 17  1  0
 17 18  2  0
  2 19  1  0
 19 20  2  0
 20 21  1  0
 21 22  2  0
 22 23  1  0
 23 24  1  0
 24 25  2  0
 24 26  1  0
 26 27  1  0
 27 28  2  0
 28 29  1  0
 29 30  1  0
 30 31  1  0
 31 32  1  0
 32 33  1  0
 33 34  1  0
 34 35  1  0
 29 36  1  0
 36 37  1  0
 37 38  2  0
 18  6  1  0
 38 19  1  0
 37 22  1  0
 36 26  2  0
 35 30  1  0
  4 39  1  0
  4 40  1  0
  5 41  1  0
  5 42  1  0
  7 43  1  0
  8 44  1  0
 14 45  1  0
 14 46  1  0
 15 47  1  0
 15 48  1  0
 16 49  1  0
 17 50  1  0
 18 51  1  0
 20 52  1  0
 21 53  1  0
 27 54  1  0
 30 55  1  0
 31 56  1  0
 31 57  1  0
 32 58  1  0
 32 59  1  0
 34 60  1  0
 34 61  1  0
 35 62  1  0
 35 63  1  0
 38 64  1  0
M  CHG  3   3  -1  13  -1  23  -1
M  END
>  <UniqueID>  (11) 
9

>  <SMILES>  (11) 
O=C([N-]CCc1ccc(S(=O)(=O)[N-]CCO)cc1)c1ccc2[n-]c(=O)c3cnn(C4CCOCC4)c3c2c1

>  <Energy>  (11) 
119.9530016654184

>  <Genealogy>  (11) 
O=C([N-]CCc1ccc(S(=O)(=O)[N-]CCO)cc1)c1ccc2[n-]c(=O)c3cnn(C4CCOCC4)c3c2c1 (protonated)
O=C([N-]CCc1ccc(S(=O)(=O)[N-]CCO)cc1)c1ccc2[n-]c(=O)c3cnn(C4CCOCC4)c3c2c1 (3D coordinates assigned)
O=C([N-]CCc1ccc(S(=O)(=O)[N-]CCO)cc1)c1ccc2[n-]c(=O)c3cnn(C4CCOCC4)c3c2c1 (nonaromatic ring conformer: 119.9530016654184 kcal/mol)

>  <smiles>  (11) 
O=C(NCCc1ccc(S(=O)(=O)NCCO)cc1)c1ccc2[nH]c(=O)c3cnn(C4CCOCC4)c3c2c1

>  <score_type>  (11) 
oracle

>  <origin>  (11) 
adg

>  <m_score__min__energy>  (11) 
-13.210000000000001

>  <m_primary>  (11) 
energy

$$$$
11:0
     RDKit          3D

 51 54  0  0  0  0  0  0  0  0999 V2000
   56.2570   22.0410   42.8640 N   0  0  0  0  0  0  0  0  0  0  0  0
   57.2270   22.3380   43.6620 C   0  0  0  0  0  0  0  0  0  0  0  0
   58.0830   21.4040   44.1270 N   0  0  0  0  0  0  0  0  0  0  0  0
   58.9420   22.0690   44.9090 C   0  0  0  0  0  0  0  0  0  0  0  0
   60.0240   21.5180   45.6210 O   0  0  0  0  0  0  0  0  0  0  0  0
   58.6590   23.4120   44.9560 C   0  0  0  0  0  0  0  0  0  0  0  0
   57.5670   23.5610   44.1580 N   0  0  0  0  0  0  0  0  0  0  0  0
   56.8730   24.8040   43.8880 C   0  0  0  0  0  0  0  0  0  0  0  0
   57.4080   25.8990   44.7320 C   0  0  0  0  0  0  0  0  0  0  0  0
   58.2720   26.7950   44.1430 C   0  0  0  0  0  0  0  0  0  0  0  0
   58.8020   27.8360   44.8840 C   0  0  0  0  0  0  0  0  0  0  0  0
   58.5120   28.0420   46.2150 C   0  0  0  0  0  0  0  0  0  0  0  0
   59.0660   29.1420   47.0000 C   0  0  0  0  0  0  0  0  0  0  0  0
   58.3250   29.6740   47.8770 O   0  0  0  0  0  0  0  0  0  0  0  0
   60.3630   29.6420   46.8410 N   0  0  0  0  0  0  0  0  0  0  0  0
   60.9500   30.7270   47.5920 C   0  0  0  0  0  0  0  0  0  0  0  0
   60.4430   32.0650   47.1960 C   0  0  0  0  0  0  0  0  0  0  0  0
   60.8700   33.2420   47.7710 C   0  0  0  0  0  0  0  0  0  0  0  0
   60.3930   34.4860   47.4150 C   0  0  0  0  0  0  0  0  0  0  0  0
   59.4380   34.5280   46.4240 C   0  0  0  0  0  0  0  0  0  0  0  0
   58.9560   33.3810   45.7960 C   0  0  0  0  0  0  0  0  0  0  0  0
   57.9370   33.4990   44.7640 C   0  0  0  0  0  0  0  0  0  0  0  0
   57.2030   34.5400   44.8270 O   0  0  0  0  0  0  0  0  0  0  0  0
   57.7140   32.5720   43.7320 N   0  0  0  0  0  0  0  0  0  0  0  0
   57.1000   31.4880   43.9190 C   0  0  0  0  0  0  0  0  0  0  0  0
   56.1970   31.0980   44.8540 N   0  0  0  0  0  0  0  0  0  0  0  0
   55.8760   29.8650   44.5890 N   0  0  0  0  0  0  0  0  0  0  0  0
   56.5140   29.4020   43.5280 N   0  0  0  0  0  0  0  0  0  0  0  0
   57.2680   30.3980   43.1120 N   0  0  0  0  0  0  0  0  0  0  0  0
   59.4790   32.1810   46.2060 C   0  0  0  0  0  0  0  0  0  0  0  0
   57.6370   27.1280   46.7960 C   0  0  0  0  0  0  0  0  0  0  0  0
   57.0990   26.0750   46.0580 C   0  0  0  0  0  0  0  0  0  0  0  0
   56.1830   22.3830   41.9010 H   0  0  0  0  0  0  0  0  0  0  0  0
   58.1110   20.3750   43.9480 H   0  0  0  0  0  0  0  0  0  0  0  0
   60.5610   20.7280   45.2550 H   0  0  0  0  0  0  0  0  0  0  0  0
   59.1956   24.1932   45.5144 H   0  0  0  0  0  0  0  0  0  0  0  0
   57.0049   25.0680   42.8283 H   0  0  0  0  0  0  0  0  0  0  0  0
   55.8059   24.6697   44.1189 H   0  0  0  0  0  0  0  0  0  0  0  0
   58.5410   26.6829   43.0823 H   0  0  0  0  0  0  0  0  0  0  0  0
   59.4898   28.5347   44.3853 H   0  0  0  0  0  0  0  0  0  0  0  0
   60.9660   29.1780   46.0960 H   0  0  0  0  0  0  0  0  0  0  0  0
   60.7280   30.5723   48.6582 H   0  0  0  0  0  0  0  0  0  0  0  0
   62.0302   30.7164   47.3844 H   0  0  0  0  0  0  0  0  0  0  0  0
   61.6352   33.1862   48.5592 H   0  0  0  0  0  0  0  0  0  0  0  0
   60.7587   35.4028   47.9005 H   0  0  0  0  0  0  0  0  0  0  0  0
   59.0396   35.5059   46.1157 H   0  0  0  0  0  0  0  0  0  0  0  0
   56.4640   28.4690   43.0810 H   0  0  0  0  0  0  0  0  0  0  0  0
   57.9080   30.3400   42.2660 H   0  0  0  0  0  0  0  0  0  0  0  0
   59.1143   31.2620   45.7239 H   0  0  0  0  0  0  0  0  0  0  0  0
   57.3655   27.2389   47.8562 H   0  0  0  0  0  0  0  0  0  0  0  0
   56.4120   25.3698   46.5486 H   0  0  0  0  0  0  0  0  0  0  0  0
  1  2  2  3
  2  3  1  0
  3  4  1  0
  4  5  1  0
  4  6  2  0
  6  7  1  0
  7  8  1  0
  8  9  1  0
  9 10  2  0
 10 11  1  0
 11 12  2  0
 12 13  1  0
 13 14  2  0
 13 15  1  0
 15 16  1  0
 16 17  1  0
 17 18  2  0
 18 19  1  0
 19 20  2  0
 20 21  1  0
 21 22  1  0
 22 23  2  0
 22 24  1  0
 24 25  2  3
 25 26  1  0
 26 27  2  0
 27 28  1  0
 28 29  1  0
 21 30  2  0
 12 31  1  0
 31 32  2  0
  7  2  1  0
 32  9  1  0
 30 17  1  0
 29 25  1  0
  1 33  1  0
  3 34  1  0
  5 35  1  0
  6 36  1  0
  8 37  1  0
  8 38  1  0
 10 39  1  0
 11 40  1  0
 15 41  1  0
 16 42  1  0
 16 43  1  0
 18 44  1  0
 19 45  1  0
 20 46  1  0
 28 47  1  0
 29 48  1  0
 30 49  1  0
 31 50  1  0
 32 51  1  0
M  END
>  <smiles>  (12) 
N=c1[nH]c(O)cn1Cc1ccc(C(=O)NCc2cccc(C(=O)N=c3nn[nH][nH]3)c2)cc1

>  <score_type>  (12) 
oracle

>  <origin>  (12) 
adg

>  <m_score__min__energy>  (12) 
-11.42

>  <m_primary>  (12) 
energy

$$$$
12:0
     RDKit          3D

 51 54  0  0  1  0  0  0  0  0999 V2000
   57.8400   32.5560   47.6680 C   0  0  0  0  0  0  0  0  0  0  0  0
   58.4700   33.5820   46.8140 C   0  0  0  0  0  0  0  0  0  0  0  0
   59.1290   34.6230   47.4880 C   0  0  0  0  0  0  0  0  0  0  0  0
   59.7140   35.6740   46.8230 C   0  0  0  0  0  0  0  0  0  0  0  0
   59.6420   35.6840   45.4660 C   0  0  0  0  0  0  0  0  0  0  0  0
   59.0010   34.6700   44.8040 C   0  0  0  0  0  0  0  0  0  0  0  0
   58.3940   33.5840   45.4520 C   0  0  0  0  0  0  0  0  0  0  0  0
   57.8260   32.5560   44.6070 C   0  0  0  0  0  0  0  0  0  0  0  0
   57.5050   31.3930   45.2000 N   0  0  0  0  0  0  0  0  0  0  0  0
   57.0220   30.3410   44.5440 C   0  0  0  0  0  0  0  0  0  0  0  0
   56.7660   29.3020   45.2420 N   0  0  0  0  0  0  0  0  0  0  0  0
   57.7210   28.6160   46.0010 C   0  0  0  0  0  0  0  0  0  0  0  0
   58.6030   29.3640   46.9340 C   0  0  1  0  0  0  0  0  0  0  0  0
   59.0830   28.3270   47.9290 C   0  0  0  0  0  0  0  0  0  0  0  0
   59.7170   28.9380   49.1360 C   0  0  0  0  0  0  0  0  0  0  0  0
   60.6340   30.0180   48.6950 C   0  0  0  0  0  0  0  0  0  0  0  0
   61.4750   30.5490   49.6730 C   0  0  0  0  0  0  0  0  0  0  0  0
   62.3750   31.5580   49.3890 C   0  0  0  0  0  0  0  0  0  0  0  0
   62.4230   32.0380   48.0920 C   0  0  0  0  0  0  0  0  0  0  0  0
   61.5940   31.5180   47.1170 C   0  0  0  0  0  0  0  0  0  0  0  0
   60.6840   30.4960   47.4060 C   0  0  0  0  0  0  0  0  0  0  0  0
   59.8220   29.9850   46.3070 C   0  0  0  0  0  0  0  0  0  0  0  0
   56.8100   30.3600   43.1750 C   0  0  0  0  0  0  0  0  0  0  0  0
   56.2880   29.2330   42.4190 C   0  0  0  0  0  0  0  0  0  0  0  0
   57.1460   31.5730   42.5580 C   0  0  0  0  0  0  0  0  0  0  0  0
   57.6370   32.6190   43.2870 N   0  0  0  0  0  0  0  0  0  0  0  0
   57.9975   32.8125   48.7260 H   0  0  0  0  0  0  0  0  0  0  0  0
   56.7612   32.5155   47.4572 H   0  0  0  0  0  0  0  0  0  0  0  0
   58.2919   31.5755   47.4572 H   0  0  0  0  0  0  0  0  0  0  0  0
   59.1787   34.5963   48.5866 H   0  0  0  0  0  0  0  0  0  0  0  0
   60.2235   36.4803   47.3710 H   0  0  0  0  0  0  0  0  0  0  0  0
   60.0992   36.5077   44.8980 H   0  0  0  0  0  0  0  0  0  0  0  0
   58.9602   34.7097   43.7055 H   0  0  0  0  0  0  0  0  0  0  0  0
   57.1755   27.8753   46.6042 H   0  0  0  0  0  0  0  0  0  0  0  0
   58.4202   28.2331   45.2430 H   0  0  0  0  0  0  0  0  0  0  0  0
   58.0266   30.2019   47.3532 H   0  0  0  0  0  0  0  0  0  0  0  0
   58.2220   27.7230   48.2511 H   0  0  0  0  0  0  0  0  0  0  0  0
   59.8453   27.7125   47.4277 H   0  0  0  0  0  0  0  0  0  0  0  0
   58.9390   29.3572   49.7909 H   0  0  0  0  0  0  0  0  0  0  0  0
   60.2782   28.1732   49.6929 H   0  0  0  0  0  0  0  0  0  0  0  0
   61.4201   30.1537   50.6981 H   0  0  0  0  0  0  0  0  0  0  0  0
   63.0331   31.9672   50.1697 H   0  0  0  0  0  0  0  0  0  0  0  0
   63.1285   32.8418   47.8348 H   0  0  0  0  0  0  0  0  0  0  0  0
   61.6507   31.9156   46.0930 H   0  0  0  0  0  0  0  0  0  0  0  0
   59.5236   30.8140   45.6483 H   0  0  0  0  0  0  0  0  0  0  0  0
   60.3657   29.2432   45.7036 H   0  0  0  0  0  0  0  0  0  0  0  0
   55.9297   28.4595   43.1142 H   0  0  0  0  0  0  0  0  0  0  0  0
   55.4547   29.5709   41.7854 H   0  0  0  0  0  0  0  0  0  0  0  0
   57.0846   28.8160   41.7854 H   0  0  0  0  0  0  0  0  0  0  0  0
   57.0125   31.6843   41.4718 H   0  0  0  0  0  0  0  0  0  0  0  0
   57.8190   33.4660   42.7530 H   0  0  0  0  0  0  0  0  0  0  0  0
  1  2  1  0
  2  3  2  0
  3  4  1  0
  4  5  2  0
  5  6  1  0
  6  7  2  0
  7  8  1  0
  8  9  2  0
  9 10  1  0
 10 11  2  0
 11 12  1  0
 12 13  1  0
 13 14  1  0
 14 15  1  0
 15 16  1  0
 16 17  2  0
 17 18  1  0
 18 19  2  0
 19 20  1  0
 20 21  2  0
 21 22  1  0
 10 23  1  0
 23 24  1  0
 23 25  2  0
 25 26  1  0
  7  2  1  0
 26  8  1  0
 22 13  1  0
 21 16  1  0
  1 27  1  0
  1 28  1  0
  1 29  1  0
  3 30  1  0
  4 31  1  0
  5 32  1  0
  6 33  1  0
 12 34  1  0
 12 35  1  0
 13 36  1  1
 14 37  1  0
 14 38  1  0
 15 39  1  0
 15 40  1  0
 17 41  1  0
 18 42  1  0
 19 43  1  0
 20 44  1  0
 22 45  1  0
 22 46  1  0
 24 47  1  0
 24 48  1  0
 24 49  1  0
 25 50  1  0
 26 51  1  0
M  END
>  <smiles>  (13) 
Cc1ccccc1-c1nc(=NCC2CCc3ccccc3C2)c(C)c[nH]1

>  <score_type>  (13) 
oracle

>  <origin>  (13) 
adg

>  <m_score__min__energy>  (13) 
-9.2899999999999991

>  <m_primary>  (13) 
energy

$$$$
13:0
     RDKit          3D

 50 53  0  0  0  0  0  0  0  0999 V2000
   66.6950   32.2790   50.1250 C   0  0  0  0  0  0  0  0  0  0  0  0
   65.4380   32.9410   49.8020 N   0  0  0  0  0  0  0  0  0  0  0  0
   64.4770   33.2720   50.8160 C   0  0  0  0  0  0  0  0  0  0  0  0
   64.6160   32.8220   51.9840 O   0  0  0  0  0  0  0  0  0  0  0  0
   63.3000   34.0270   50.4950 N   0  0  0  0  0  0  0  0  0  0  0  0
   62.6080   33.9960   49.3910 C   0  0  0  0  0  0  0  0  0  0  0  0
   61.1980   34.0470   49.3740 C   0  0  0  0  0  0  0  0  0  0  0  0
   60.5190   34.0040   48.1490 C   0  0  0  0  0  0  0  0  0  0  0  0
   59.1180   34.0630   48.0990 C   0  0  0  0  0  0  0  0  0  0  0  0
   58.4560   34.0200   46.8680 C   0  0  0  0  0  0  0  0  0  0  0  0
   59.1870   33.9240   45.6700 C   0  0  0  0  0  0  0  0  0  0  0  0
   58.5540   33.8620   44.4190 O   0  0  0  0  0  0  0  0  0  0  0  0
   57.9270   32.7260   43.8820 C   0  0  0  0  0  0  0  0  0  0  0  0
   57.7810   32.6330   42.4940 C   0  0  0  0  0  0  0  0  0  0  0  0
   57.1240   31.5390   41.9260 C   0  0  0  0  0  0  0  0  0  0  0  0
   56.6080   30.5270   42.7420 C   0  0  0  0  0  0  0  0  0  0  0  0
   56.7480   30.6060   44.1380 C   0  0  0  0  0  0  0  0  0  0  0  0
   56.2210   29.6030   45.0160 N   0  0  0  0  0  0  0  0  0  0  0  0
   56.9960   28.1010   45.4020 S   0  0  0  0  0  0  0  0  0  0  0  0
   57.5570   27.4970   44.1440 O   0  0  0  0  0  0  0  0  0  0  0  0
   55.9830   27.1570   45.9810 O   0  0  0  0  0  0  0  0  0  0  0  0
   58.2610   28.3760   46.5940 C   0  0  0  0  0  0  0  0  0  0  0  0
   58.7920   29.6640   46.7570 C   0  0  0  0  0  0  0  0  0  0  0  0
   59.8070   29.8960   47.6910 C   0  0  0  0  0  0  0  0  0  0  0  0
   60.2980   28.8380   48.4620 C   0  0  0  0  0  0  0  0  0  0  0  0
   59.7700   27.5520   48.3050 C   0  0  0  0  0  0  0  0  0  0  0  0
   58.7510   27.3200   47.3760 C   0  0  0  0  0  0  0  0  0  0  0  0
   57.3970   31.7130   44.7020 C   0  0  0  0  0  0  0  0  0  0  0  0
   60.5840   33.8410   45.7180 C   0  0  0  0  0  0  0  0  0  0  0  0
   61.2540   33.8880   46.9500 C   0  0  0  0  0  0  0  0  0  0  0  0
   62.6490   33.8150   47.0130 C   0  0  0  0  0  0  0  0  0  0  0  0
   63.2790   33.8670   48.2150 N   0  0  0  0  0  0  0  0  0  0  0  0
   66.8079   32.2195   51.2176 H   0  0  0  0  0  0  0  0  0  0  0  0
   66.6946   31.2641   49.7006 H   0  0  0  0  0  0  0  0  0  0  0  0
   67.5316   32.8535   49.7006 H   0  0  0  0  0  0  0  0  0  0  0  0
   65.2290   33.1540   48.8020 H   0  0  0  0  0  0  0  0  0  0  0  0
   60.6354   34.1201   50.3164 H   0  0  0  0  0  0  0  0  0  0  0  0
   58.5388   34.1433   49.0307 H   0  0  0  0  0  0  0  0  0  0  0  0
   57.3572   34.0615   46.8363 H   0  0  0  0  0  0  0  0  0  0  0  0
   58.1855   33.4251   41.8467 H   0  0  0  0  0  0  0  0  0  0  0  0
   57.0121   31.4732   40.8337 H   0  0  0  0  0  0  0  0  0  0  0  0
   56.0915   29.6674   42.2900 H   0  0  0  0  0  0  0  0  0  0  0  0
   58.4084   30.4955   46.1475 H   0  0  0  0  0  0  0  0  0  0  0  0
   60.2179   30.9083   47.8186 H   0  0  0  0  0  0  0  0  0  0  0  0
   61.1004   29.0170   49.1929 H   0  0  0  0  0  0  0  0  0  0  0  0
   60.1573   26.7216   48.9137 H   0  0  0  0  0  0  0  0  0  0  0  0
   58.3337   26.3090   47.2585 H   0  0  0  0  0  0  0  0  0  0  0  0
   57.4928   31.7904   45.7951 H   0  0  0  0  0  0  0  0  0  0  0  0
   61.1588   33.7385   44.7857 H   0  0  0  0  0  0  0  0  0  0  0  0
   63.2365   33.7154   46.0884 H   0  0  0  0  0  0  0  0  0  0  0  0
  1  2  1  0
  2  3  1  0
  3  4  2  0
  3  5  1  0
  5  6  2  3
  6  7  1  0
  7  8  2  0
  8  9  1  0
  9 10  2  0
 10 11  1  0
 11 12  1  0
 12 13  1  0
 13 14  2  0
 14 15  1  0
 15 16  2  0
 16 17  1  0
 17 18  1  0
 18 19  1  0
 19 20  2  0
 19 21  2  0
 19 22  1  0
 22 23  2  0
 23 24  1  0
 24 25  2  0
 25 26  1  0
 26 27  2  0
 17 28  2  0
 11 29  2  0
 29 30  1  0
 30 31  2  0
 31 32  1  0
 32  6  1  0
 30  8  1  0
 28 13  1  0
 27 22  1  0
  1 33  1  0
  1 34  1  0
  1 35  1  0
  2 36  1  0
  7 37  1  0
  9 38  1  0
 10 39  1  0
 14 40  1  0
 15 41  1  0
 16 42  1  0
 23 43  1  0
 24 44  1  0
 25 45  1  0
 26 46  1  0
 27 47  1  0
 28 48  1  0
 29 49  1  0
 31 50  1  0
M  CHG  2  18  -1  32  -1
M  END
>  <UniqueID>  (14) 
10

>  <SMILES>  (14) 
CNC(=O)N=c1cc2ccc(Oc3cccc([N-]S(=O)(=O)c4ccccc4)c3)cc2c[n-]1

>  <Energy>  (14) 
73.15787969284594

>  <Genealogy>  (14) 
CNC(=O)N=c1cc2ccc(Oc3cccc([N-]S(=O)(=O)c4ccccc4)c3)cc2c[n-]1 (protonated)
CNC(=O)N=c1cc2ccc(Oc3cccc([N-]S(=O)(=O)c4ccccc4)c3)cc2c[n-]1 (3D coordinates assigned)
CNC(=O)N=c1cc2ccc(Oc3cccc([N-]S(=O)(=O)c4ccccc4)c3)cc2c[n-]1 (optimized conformer: 73.15787969284594 kcal/mol)

>  <smiles>  (14) 
CNC(=O)N=c1cc2ccc(Oc3cccc(NS(=O)(=O)c4ccccc4)c3)cc2c[nH]1

>  <score_type>  (14) 
oracle

>  <origin>  (14) 
adg

>  <m_score__min__energy>  (14) 
-11.779999999999999

>  <m_primary>  (14) 
energy

$$$$
14:0
     RDKit          3D

 42 45  0  0  0  0  0  0  0  0999 V2000
   62.3470   29.8130   50.8950 C   0  0  0  0  0  0  0  0  0  0  0  0
   62.1240   30.6010   49.6760 N   0  0  0  0  0  0  0  0  0  0  0  0
   61.0520   30.3050   48.8620 C   0  0  0  0  0  0  0  0  0  0  0  0
   60.8050   31.0380   47.6830 C   0  0  0  0  0  0  0  0  0  0  0  0
   59.6700   30.6950   46.7990 C   0  0  0  0  0  0  0  0  0  0  0  0
   59.7900   29.6410   45.8840 C   0  0  0  0  0  0  0  0  0  0  0  0
   58.7250   29.3190   45.0420 C   0  0  0  0  0  0  0  0  0  0  0  0
   57.5380   30.0650   45.1130 C   0  0  0  0  0  0  0  0  0  0  0  0
   56.3880   29.7580   44.2440 C   0  0  0  0  0  0  0  0  0  0  0  0
   55.1550   29.3340   44.8190 N   0  0  0  0  0  0  0  0  0  0  0  0
   56.4830   29.8650   42.9910 O   0  0  0  0  0  0  0  0  0  0  0  0
   57.4510   31.0950   45.9970 N   0  0  0  0  0  0  0  0  0  0  0  0
   58.4740   31.4330   46.8310 C   0  0  0  0  0  0  0  0  0  0  0  0
   58.3470   32.5180   47.7030 O   0  0  0  0  0  0  0  0  0  0  0  0
   58.8730   33.8130   47.4180 C   0  0  0  0  0  0  0  0  0  0  0  0
   58.2500   34.4360   46.1570 C   0  0  0  0  0  0  0  0  0  0  0  0
   59.2460   35.0910   45.2130 C   0  0  0  0  0  0  0  0  0  0  0  0
   58.5520   33.8020   44.8040 C   0  0  0  0  0  0  0  0  0  0  0  0
   61.6810   32.0890   47.3980 C   0  0  0  0  0  0  0  0  0  0  0  0
   61.6920   33.0160   46.3740 C   0  0  0  0  0  0  0  0  0  0  0  0
   62.7920   33.8270   46.6260 C   0  0  0  0  0  0  0  0  0  0  0  0
   63.4290   33.4340   47.7510 N   0  0  0  0  0  0  0  0  0  0  0  0
   62.7360   32.3780   48.2120 C   0  0  0  0  0  0  0  0  0  0  0  0
   62.9760   31.6380   49.3680 C   0  0  0  0  0  0  0  0  0  0  0  0
   63.9530   31.9230   50.1120 O   0  0  0  0  0  0  0  0  0  0  0  0
   62.1683   30.4446   51.7777 H   0  0  0  0  0  0  0  0  0  0  0  0
   61.6557   28.9575   50.9102 H   0  0  0  0  0  0  0  0  0  0  0  0
   63.3841   29.4467   50.9102 H   0  0  0  0  0  0  0  0  0  0  0  0
   60.3765   29.4816   49.1372 H   0  0  0  0  0  0  0  0  0  0  0  0
   60.7261   29.0659   45.8292 H   0  0  0  0  0  0  0  0  0  0  0  0
   58.8149   28.4870   44.3281 H   0  0  0  0  0  0  0  0  0  0  0  0
   55.1380   28.6650   45.6200 H   0  0  0  0  0  0  0  0  0  0  0  0
   58.6704   34.4727   48.2746 H   0  0  0  0  0  0  0  0  0  0  0  0
   59.9528   33.7038   47.2390 H   0  0  0  0  0  0  0  0  0  0  0  0
   57.3189   34.7247   46.6666 H   0  0  0  0  0  0  0  0  0  0  0  0
   58.9889   36.0362   44.7125 H   0  0  0  0  0  0  0  0  0  0  0  0
   60.2933   35.4176   45.2934 H   0  0  0  0  0  0  0  0  0  0  0  0
   57.7923   33.8146   44.0086 H   0  0  0  0  0  0  0  0  0  0  0  0
   58.8881   32.8103   44.4669 H   0  0  0  0  0  0  0  0  0  0  0  0
   60.9818   33.0953   45.5377 H   0  0  0  0  0  0  0  0  0  0  0  0
   63.1019   34.6735   45.9956 H   0  0  0  0  0  0  0  0  0  0  0  0
   64.2760   33.8720   48.1760 H   0  0  0  0  0  0  0  0  0  0  0  0
  1  2  1  0
  2  3  1  0
  3  4  2  0
  4  5  1  0
  5  6  2  0
  6  7  1  0
  7  8  2  0
  8  9  1  0
  9 10  1  0
  9 11  2  0
  8 12  1  0
 12 13  2  0
 13 14  1  0
 14 15  1  0
 15 16  1  0
 16 17  1  0
 17 18  1  0
  4 19  1  0
 19 20  1  0
 20 21  2  0
 21 22  1  0
 22 23  1  0
 23 24  1  0
 24 25  2  0
 24  2  1  0
 13  5  1  0
 18 16  1  0
 23 19  2  0
  1 26  1  0
  1 27  1  0
  1 28  1  0
  3 29  1  0
  6 30  1  0
  7 31  1  0
 10 32  1  0
 15 33  1  0
 15 34  1  0
 16 35  1  0
 17 36  1  0
 17 37  1  0
 18 38  1  0
 18 39  1  0
 20 40  1  0
 21 41  1  0
 22 42  1  0
M  CHG  1  10  -1
M  END
>  <UniqueID>  (15) 
11

>  <SMILES>  (15) 
Cn1cc(-c2ccc(C([NH-])=O)nc2OCC2CC2)c2cc[nH]c2c1=O

>  <Energy>  (15) 
347.5552506869496

>  <Genealogy>  (15) 
Cn1cc(-c2ccc(C([NH-])=O)nc2OCC2CC2)c2cc[nH]c2c1=O (protonated)
Cn1cc(-c2ccc(C([NH-])=O)nc2OCC2CC2)c2cc[nH]c2c1=O (3D coordinates assigned)
Cn1cc(-c2ccc(C([NH-])=O)nc2OCC2CC2)c2cc[nH]c2c1=O (nonaromatic ring conformer: 347.5552506869496 kcal/mol)

>  <smiles>  (15) 
Cn1cc(-c2ccc(C(N)=O)nc2OCC2CC2)c2cc[nH]c2c1=O

>  <score_type>  (15) 
oracle

>  <origin>  (15) 
adg

>  <m_score__min__energy>  (15) 
-10.640000000000001

>  <m_primary>  (15) 
energy

$$$$
15:0
     RDKit          3D

 44 46  0  0  0  0  0  0  0  0999 V2000
   56.9910   19.6150   42.8590 H   0  0  0  0  0  0  0  0  0  0  0  0
   56.5100   20.4890   42.6800 O   0  0  0  0  0  0  0  0  0  0  0  0
   56.7870   21.6360   43.4190 C   0  0  0  0  0  0  0  0  0  0  0  0
   56.2890   22.8830   43.0170 C   0  0  0  0  0  0  0  0  0  0  0  0
   55.6731   22.9609   42.1089 H   0  0  0  0  0  0  0  0  0  0  0  0
   56.5730   24.0280   43.7670 C   0  0  0  0  0  0  0  0  0  0  0  0
   56.1735   25.0030   43.4511 H   0  0  0  0  0  0  0  0  0  0  0  0
   57.3670   23.9380   44.9230 C   0  0  0  0  0  0  0  0  0  0  0  0
   57.6430   25.1630   45.7510 C   0  0  0  0  0  0  0  0  0  0  0  0
   57.9969   25.9730   45.0963 H   0  0  0  0  0  0  0  0  0  0  0  0
   58.4123   24.9261   46.5008 H   0  0  0  0  0  0  0  0  0  0  0  0
   56.3960   25.6000   46.4490 C   0  0  0  0  0  0  0  0  0  0  0  0
   55.9440   24.9080   47.4020 O   0  0  0  0  0  0  0  0  0  0  0  0
   55.7090   26.7750   45.9910 N   0  0  0  0  0  0  0  0  0  0  0  0
   56.2630   27.8620   45.5380 C   0  0  0  0  0  0  0  0  0  0  0  0
   55.5560   28.7980   44.8720 N   0  0  0  0  0  0  0  0  0  0  0  0
   56.4710   29.7390   44.5770 C   0  0  0  0  0  0  0  0  0  0  0  0
   56.2751   30.6693   44.0237 H   0  0  0  0  0  0  0  0  0  0  0  0
   57.6910   29.3500   45.0790 C   0  0  0  0  0  0  0  0  0  0  0  0
   58.9870   30.0750   44.9050 C   0  0  0  0  0  0  0  0  0  0  0  0
   59.2299   30.1353   43.8338 H   0  0  0  0  0  0  0  0  0  0  0  0
   59.7805   29.5296   45.4369 H   0  0  0  0  0  0  0  0  0  0  0  0
   58.8780   31.4640   45.4700 C   0  0  0  0  0  0  0  0  0  0  0  0
   59.7520   31.8830   46.4870 C   0  0  0  0  0  0  0  0  0  0  0  0
   60.5055   31.1855   46.8817 H   0  0  0  0  0  0  0  0  0  0  0  0
   59.6700   33.1840   47.0020 C   0  0  0  0  0  0  0  0  0  0  0  0
   60.6220   33.6330   48.0710 C   0  0  0  0  0  0  0  0  0  0  0  0
   60.1863   33.4275   49.0599 H   0  0  0  0  0  0  0  0  0  0  0  0
   61.5720   33.0880   47.9685 H   0  0  0  0  0  0  0  0  0  0  0  0
   60.8057   34.7127   47.9685 H   0  0  0  0  0  0  0  0  0  0  0  0
   58.7380   34.0840   46.4640 C   0  0  0  0  0  0  0  0  0  0  0  0
   58.6774   35.1088   46.8590 H   0  0  0  0  0  0  0  0  0  0  0  0
   57.8830   33.6860   45.4260 C   0  0  0  0  0  0  0  0  0  0  0  0
   56.8630   34.6410   44.8790 C   0  0  0  0  0  0  0  0  0  0  0  0
   56.3378   35.1327   45.7111 H   0  0  0  0  0  0  0  0  0  0  0  0
   57.3656   35.4008   44.2625 H   0  0  0  0  0  0  0  0  0  0  0  0
   56.1379   34.0895   44.2625 H   0  0  0  0  0  0  0  0  0  0  0  0
   57.9480   32.3720   44.9420 C   0  0  0  0  0  0  0  0  0  0  0  0
   57.2647   32.0504   44.1422 H   0  0  0  0  0  0  0  0  0  0  0  0
   57.5750   28.1540   45.6820 N   0  0  0  0  0  0  0  0  0  0  0  0
   57.8520   22.6840   45.3280 C   0  0  0  0  0  0  0  0  0  0  0  0
   58.4591   22.6009   46.2415 H   0  0  0  0  0  0  0  0  0  0  0  0
   57.5670   21.5410   44.5760 C   0  0  0  0  0  0  0  0  0  0  0  0
   57.9574   20.5634   44.8952 H   0  0  0  0  0  0  0  0  0  0  0  0
  1  2  1  0
  2  3  1  0
  3  4  2  0
  4  5  1  0
  4  6  1  0
  6  7  1  0
  6  8  2  0
  8  9  1  0
  9 10  1  0
  9 11  1  0
  9 12  1  0
 12 13  2  0
 12 14  1  0
 14 15  2  0
 15 16  1  0
 16 17  1  0
 17 18  1  0
 17 19  2  0
 19 20  1  0
 20 21  1  0
 20 22  1  0
 20 23  1  0
 23 24  2  0
 24 25  1  0
 24 26  1  0
 26 27  1  0
 27 28  1  0
 27 29  1  0
 27 30  1  0
 26 31  2  0
 31 32  1  0
 31 33  1  0
 33 34  1  0
 34 35  1  0
 34 36  1  0
 34 37  1  0
 33 38  2  0
 38 39  1  0
 19 40  1  0
  8 41  1  0
 41 42  1  0
 41 43  2  0
 43 44  1  0
 43  3  1  0
 40 15  1  0
 38 23  1  0
M  CHG  2  16  -1  40  -1
M  END
>  <UniqueID>  (16) 
12

>  <SMILES>  (16) 
Cc1cc(C)cc(Cc2c[n-]/c(=N/C(=O)Cc3ccc(O)cc3)[n-]2)c1

>  <Energy>  (16) 
69.64689304456313

>  <Genealogy>  (16) 
Cc1cc(C)cc(Cc2c[n-]c(=NC(=O)Cc3ccc(O)cc3)[n-]2)c1 (protonated)
Cc1cc(C)cc(Cc2c[n-]/c(=N/C(=O)Cc3ccc(O)cc3)[n-]2)c1 (cis-trans isomerization)
Cc1cc(C)cc(Cc2c[n-]/c(=N/C(=O)Cc3ccc(O)cc3)[n-]2)c1 (3D coordinates assigned)
Cc1cc(C)cc(Cc2c[n-]/c(=N/C(=O)Cc3ccc(O)cc3)[n-]2)c1 (optimized conformer: 69.64689304456313 kcal/mol)

>  <smiles>  (16) 
Cc1cc(C)cc(Cc2c[nH]c(=NC(=O)Cc3ccc(O)cc3)[nH]2)c1

>  <score_type>  (16) 
oracle

>  <origin>  (16) 
adg

>  <m_score__min__energy>  (16) 
-12.699999999999999

>  <m_primary>  (16) 
energy

$$$$
16:0
     RDKit          3D

 53 55  0  0  0  0  0  0  0  0999 V2000
   57.6300   33.6870   44.9030 C   0  0  0  0  0  0  0  0  0  0  0  0
   58.0400   32.6440   45.6240 C   0  0  0  0  0  0  0  0  0  0  0  0
   58.9330   32.6900   46.7660 C   0  0  0  0  0  0  0  0  0  0  0  0
   59.3990   33.7350   47.2950 O   0  0  0  0  0  0  0  0  0  0  0  0
   59.1900   31.3750   47.2390 N   0  0  0  0  0  0  0  0  0  0  0  0
   59.6210   31.0670   48.6070 C   0  0  0  0  0  0  0  0  0  0  0  0
   59.0350   32.0450   49.5970 C   0  0  0  0  0  0  0  0  0  0  0  0
   57.8220   32.3730   49.5150 O   0  0  0  0  0  0  0  0  0  0  0  0
   59.8050   32.5270   50.7050 N   0  0  0  0  0  0  0  0  0  0  0  0
   61.1250   33.0780   50.6320 C   0  0  0  0  0  0  0  0  0  0  0  0
   61.9100   33.2410   51.7840 C   0  0  0  0  0  0  0  0  0  0  0  0
   63.2060   33.7480   51.6830 C   0  0  0  0  0  0  0  0  0  0  0  0
   63.7400   34.0720   50.4320 C   0  0  0  0  0  0  0  0  0  0  0  0
   62.9770   33.8760   49.2650 C   0  0  0  0  0  0  0  0  0  0  0  0
   63.4690   34.1650   47.9850 O   0  0  0  0  0  0  0  0  0  0  0  0
   63.0620   33.4920   46.7980 C   0  0  0  0  0  0  0  0  0  0  0  0
   61.6760   33.3700   49.3780 C   0  0  0  0  0  0  0  0  0  0  0  0
   58.4320   30.5230   46.3630 C   0  0  0  0  0  0  0  0  0  0  0  0
   58.3490   29.0990   46.5040 N   0  0  0  0  0  0  0  0  0  0  0  0
   58.7100   28.1540   45.4930 C   0  0  0  0  0  0  0  0  0  0  0  0
   59.9050   28.0660   45.0970 O   0  0  0  0  0  0  0  0  0  0  0  0
   57.6560   27.2870   44.8810 C   0  0  0  0  0  0  0  0  0  0  0  0
   57.2770   26.1830   45.8200 C   0  0  0  0  0  0  0  0  0  0  0  0
   58.3190   24.9800   46.3760 S   0  0  0  0  0  0  0  0  0  0  0  0
   57.1000   24.2080   47.2410 C   0  0  0  0  0  0  0  0  0  0  0  0
   57.2670   23.1660   47.9280 O   0  0  0  0  0  0  0  0  0  0  0  0
   55.9050   24.8250   47.1190 N   0  0  0  0  0  0  0  0  0  0  0  0
   56.0020   25.9230   46.3220 C   0  0  0  0  0  0  0  0  0  0  0  0
   54.8960   26.7150   46.0330 O   0  0  0  0  0  0  0  0  0  0  0  0
   57.7450   31.2110   45.4380 C   0  0  0  0  0  0  0  0  0  0  0  0
   56.8400   30.6140   44.4320 C   0  0  0  0  0  0  0  0  0  0  0  0
   55.6850   30.2350   44.7660 O   0  0  0  0  0  0  0  0  0  0  0  0
   57.2690   30.4720   43.1070 O   0  0  0  0  0  0  0  0  0  0  0  0
   57.0040   31.4360   42.0890 C   0  0  0  0  0  0  0  0  0  0  0  0
   58.2120   32.3410   41.8900 C   0  0  0  0  0  0  0  0  0  0  0  0
   56.9485   33.5343   44.0532 H   0  0  0  0  0  0  0  0  0  0  0  0
   57.9731   34.7006   45.1577 H   0  0  0  0  0  0  0  0  0  0  0  0
   59.2898   30.0509   48.8674 H   0  0  0  0  0  0  0  0  0  0  0  0
   60.7176   31.1407   48.6518 H   0  0  0  0  0  0  0  0  0  0  0  0
   61.5026   32.9684   52.7687 H   0  0  0  0  0  0  0  0  0  0  0  0
   63.8099   33.8933   52.5909 H   0  0  0  0  0  0  0  0  0  0  0  0
   64.7586   34.4810   50.3594 H   0  0  0  0  0  0  0  0  0  0  0  0
   62.5098   32.5789   47.0652 H   0  0  0  0  0  0  0  0  0  0  0  0
   62.4124   34.1534   46.2059 H   0  0  0  0  0  0  0  0  0  0  0  0
   63.9494   33.2238   46.2059 H   0  0  0  0  0  0  0  0  0  0  0  0
   61.0791   33.1997   48.4699 H   0  0  0  0  0  0  0  0  0  0  0  0
   56.7674   27.8971   44.6616 H   0  0  0  0  0  0  0  0  0  0  0  0
   58.0508   26.8465   43.9536 H   0  0  0  0  0  0  0  0  0  0  0  0
   56.7813   30.9157   41.1458 H   0  0  0  0  0  0  0  0  0  0  0  0
   56.1435   32.0500   42.3933 H   0  0  0  0  0  0  0  0  0  0  0  0
   58.6114   32.6402   42.8703 H   0  0  0  0  0  0  0  0  0  0  0  0
   58.9872   31.7995   41.3280 H   0  0  0  0  0  0  0  0  0  0  0  0
   57.9102   33.2371   41.3280 H   0  0  0  0  0  0  0  0  0  0  0  0
  1  2  2  0
  2  3  1  0
  3  4  2  0
  3  5  1  0
  5  6  1  0
  6  7  1  0
  7  8  2  0
  7  9  1  0
  9 10  1  0
 10 11  2  0
 11 12  1  0
 12 13  2  0
 13 14  1  0
 14 15  1  0
 15 16  1  0
 14 17  2  0
  5 18  1  0
 18 19  1  0
 19 20  1  0
 20 21  2  0
 20 22  1  0
 22 23  1  0
 23 24  1  0
 24 25  1  0
 25 26  2  0
 25 27  1  0
 27 28  1  0
 28 29  1  0
 18 30  2  0
 30 31  1  0
 31 32  2  0
 31 33  1  0
 33 34  1  0
 34 35  1  0
 30  2  1  0
 17 10  1  0
 28 23  2  0
  1 36  1  0
  1 37  1  0
  6 38  1  0
  6 39  1  0
 11 40  1  0
 12 41  1  0
 13 42  1  0
 16 43  1  0
 16 44  1  0
 16 45  1  0
 17 46  1  0
 22 47  1  0
 22 48  1  0
 34 49  1  0
 34 50  1  0
 35 51  1  0
 35 52  1  0
 35 53  1  0
M  CHG  4   9  -1  19  -1  27  -1  29  -1
M  END
>  <UniqueID>  (17) 
13

>  <SMILES>  (17) 
C=C1C(=O)N(CC(=O)[N-]c2cccc(OC)c2)C([N-]C(=O)Cc2sc(=O)[n-]c2[O-])=C1C(=O)OCC

>  <Energy>  (17) 
114.54902817908635

>  <Genealogy>  (17) 
C=C1C(=O)N(CC(=O)[N-]c2cccc(OC)c2)C([N-]C(=O)Cc2sc(=O)[n-]c2[O-])=C1C(=O)OCC (protonated)
C=C1C(=O)N(CC(=O)[N-]c2cccc(OC)c2)C([N-]C(=O)Cc2sc(=O)[n-]c2[O-])=C1C(=O)OCC (3D coordinates assigned)
C=C1C(=O)N(CC(=O)[N-]c2cccc(OC)c2)C([N-]C(=O)Cc2sc(=O)[n-]c2[O-])=C1C(=O)OCC (nonaromatic ring conformer: 114.54902817908635 kcal/mol)

>  <smiles>  (17) 
C=C1C(=O)N(CC(=O)Nc2cccc(OC)c2)C(NC(=O)Cc2sc(=O)[nH]c2O)=C1C(=O)OCC

>  <score_type>  (17) 
oracle

>  <origin>  (17) 
adg

>  <m_score__min__energy>  (17) 
-16.91

>  <m_primary>  (17) 
energy

$$$$
17:0
     RDKit          3D

 39 41  0  0  0  0  0  0  0  0999 V2000
   56.7000   29.9880   43.4030 C   0  0  0  0  0  0  0  0  0  0  0  0
   57.0280   29.9860   44.7880 O   0  0  0  0  0  0  0  0  0  0  0  0
   57.7000   31.0270   45.4490 C   0  0  0  0  0  0  0  0  0  0  0  0
   57.8150   32.3140   44.8940 C   0  0  0  0  0  0  0  0  0  0  0  0
   58.5020   33.3300   45.5720 C   0  0  0  0  0  0  0  0  0  0  0  0
   59.0570   33.0680   46.8410 C   0  0  0  0  0  0  0  0  0  0  0  0
   58.9450   31.7840   47.3920 C   0  0  0  0  0  0  0  0  0  0  0  0
   58.2690   30.7600   46.7020 C   0  0  0  0  0  0  0  0  0  0  0  0
   58.1430   29.4640   47.2280 O   0  0  0  0  0  0  0  0  0  0  0  0
   59.1980   28.5080   47.2840 C   0  0  0  0  0  0  0  0  0  0  0  0
   59.8410   34.1340   47.5870 C   0  0  1  0  0  0  0  0  0  0  0  0
   61.3200   33.8460   47.5740 C   0  0  0  0  0  0  0  0  0  0  0  0
   62.1180   33.6910   46.4550 C   0  0  0  0  0  0  0  0  0  0  0  0
   63.3720   33.3860   46.8410 N   0  0  0  0  0  0  0  0  0  0  0  0
   63.3790   33.3240   48.1640 N   0  0  0  0  0  0  0  0  0  0  0  0
   64.5730   33.0740   48.9600 C   0  0  0  0  0  0  0  0  0  0  0  0
   62.1560   33.6010   48.6480 C   0  0  0  0  0  0  0  0  0  0  0  0
   59.5850   35.4940   47.0810 N   0  0  0  0  0  0  0  0  0  0  0  0
   59.6450   35.5650   45.6150 C   0  0  0  0  0  0  0  0  0  0  0  0
   58.5480   34.7110   44.9780 C   0  0  0  0  0  0  0  0  0  0  0  0
   55.6063   29.9947   43.2852 H   0  0  0  0  0  0  0  0  0  0  0  0
   57.1256   30.8836   42.9267 H   0  0  0  0  0  0  0  0  0  0  0  0
   57.1146   29.0873   42.9267 H   0  0  0  0  0  0  0  0  0  0  0  0
   57.3599   32.5259   43.9152 H   0  0  0  0  0  0  0  0  0  0  0  0
   59.3907   31.5740   48.3755 H   0  0  0  0  0  0  0  0  0  0  0  0
   59.4393   28.2894   48.3347 H   0  0  0  0  0  0  0  0  0  0  0  0
   58.8815   27.5827   46.7803 H   0  0  0  0  0  0  0  0  0  0  0  0
   60.0877   28.9138   46.7803 H   0  0  0  0  0  0  0  0  0  0  0  0
   59.4816   34.0969   48.6260 H   0  0  0  0  0  0  0  0  0  0  0  0
   61.7815   33.7997   45.4134 H   0  0  0  0  0  0  0  0  0  0  0  0
   64.3188   33.1272   50.0289 H   0  0  0  0  0  0  0  0  0  0  0  0
   64.9668   32.0739   48.7261 H   0  0  0  0  0  0  0  0  0  0  0  0
   65.3350   33.8321   48.7261 H   0  0  0  0  0  0  0  0  0  0  0  0
   61.8707   33.6280   49.7100 H   0  0  0  0  0  0  0  0  0  0  0  0
   58.6290   35.7950   47.3900 H   0  0  0  0  0  0  0  0  0  0  0  0
   59.5146   36.6109   45.3002 H   0  0  0  0  0  0  0  0  0  0  0  0
   60.6221   35.1816   45.2860 H   0  0  0  0  0  0  0  0  0  0  0  0
   57.5763   35.2008   45.1391 H   0  0  0  0  0  0  0  0  0  0  0  0
   58.7683   34.6152   43.9045 H   0  0  0  0  0  0  0  0  0  0  0  0
  1  2  1  0
  2  3  1  0
  3  4  2  0
  4  5  1  0
  5  6  2  0
  6  7  1  0
  7  8  2  0
  8  9  1  0
  9 10  1  0
  6 11  1  0
 11 12  1  0
 12 13  1  0
 13 14  2  0
 14 15  1  0
 15 16  1  0
 15 17  1  0
 11 18  1  0
 18 19  1  0
 19 20  1  0
  8  3  1  0
 17 12  2  0
 20  5  1  0
  1 21  1  0
  1 22  1  0
  1 23  1  0
  4 24  1  0
  7 25  1  0
 10 26  1  0
 10 27  1  0
 10 28  1  0
 11 29  1  1
 13 30  1  0
 16 31  1  0
 16 32  1  0
 16 33  1  0
 17 34  1  0
 18 35  1  0
 19 36  1  0
 19 37  1  0
 20 38  1  0
 20 39  1  0
M  END
>  <UniqueID>  (18) 
14

>  <SMILES>  (18) 
COc1cc2c(cc1OC)[C@@H](c1cnn(C)c1)NCC2

>  <Energy>  (18) 
70.4557801775588

>  <Genealogy>  (18) 
COc1cc2c(cc1OC)[C@@H](c1cnn(C)c1)NCC2 (chirality)
COc1cc2c(cc1OC)[C@@H](c1cnn(C)c1)NCC2 (3D coordinates assigned)
COc1cc2c(cc1OC)[C@@H](c1cnn(C)c1)NCC2 (nonaromatic ring conformer: 70.4557801775588 kcal/mol)

>  <smiles>  (18) 
COc1cc2c(cc1OC)C(c1cnn(C)c1)NCC2

>  <score_type>  (18) 
oracle

>  <origin>  (18) 
adg

>  <m_score__min__energy>  (18) 
-6.5300000000000002

>  <m_primary>  (18) 
energy

$$$$
18:0
     RDKit          3D

 65 68  0  0  0  0  0  0  0  0999 V2000
   65.9390   32.2390   50.3940 C   0  0  0  0  0  0  0  0  0  0  0  0
   64.5460   31.6530   50.3790 C   0  0  0  0  0  0  0  0  0  0  0  0
   64.2350   30.6330   51.2950 C   0  0  0  0  0  0  0  0  0  0  0  0
   62.9710   30.0470   51.2990 C   0  0  0  0  0  0  0  0  0  0  0  0
   62.0030   30.4500   50.3840 C   0  0  0  0  0  0  0  0  0  0  0  0
   62.2770   31.4710   49.4650 C   0  0  0  0  0  0  0  0  0  0  0  0
   61.2630   31.8320   48.5080 N   0  0  0  0  0  0  0  0  0  0  0  0
   60.1480   32.6920   48.9270 C   0  0  0  0  0  0  0  0  0  0  0  0
   59.4090   33.2860   47.7150 C   0  0  0  0  0  0  0  0  0  0  0  0
   59.1360   32.2530   46.7000 N   0  0  0  0  0  0  0  0  0  0  0  0
   58.0390   32.4720   45.7770 C   0  0  0  0  0  0  0  0  0  0  0  0
   57.7230   33.6680   45.4770 O   0  0  0  0  0  0  0  0  0  0  0  0
   57.3030   31.3450   45.0810 C   0  0  0  0  0  0  0  0  0  0  0  0
   58.3530   30.3940   43.9180 S   0  0  0  0  0  0  0  0  0  0  0  0
   58.0690   28.7710   44.6420 C   0  0  0  0  0  0  0  0  0  0  0  0
   59.0450   27.7660   44.5860 C   0  0  0  0  0  0  0  0  0  0  0  0
   58.7630   26.4910   45.0860 C   0  0  0  0  0  0  0  0  0  0  0  0
   57.4770   26.1790   45.5880 C   0  0  0  0  0  0  0  0  0  0  0  0
   57.1980   24.5350   46.2100 S   0  0  0  0  0  0  0  0  0  0  0  0
   58.4760   24.0400   46.8350 O   0  0  0  0  0  0  0  0  0  0  0  0
   56.1750   24.5600   47.3090 O   0  0  0  0  0  0  0  0  0  0  0  0
   56.6770   23.4140   44.9740 N   0  0  0  0  0  0  0  0  0  0  0  0
   57.7080   22.3820   44.7340 C   0  0  0  0  0  0  0  0  0  0  0  0
   57.3780   21.5560   43.4720 C   0  0  0  0  0  0  0  0  0  0  0  0
   56.0300   21.7520   43.0910 O   0  0  0  0  0  0  0  0  0  0  0  0
   55.8380   23.0970   42.6780 C   0  0  0  0  0  0  0  0  0  0  0  0
   56.3480   24.1080   43.7220 C   0  0  0  0  0  0  0  0  0  0  0  0
   56.4860   27.1960   45.6080 C   0  0  0  0  0  0  0  0  0  0  0  0
   55.1610   26.9750   46.0070 O   0  0  0  0  0  0  0  0  0  0  0  0
   56.8110   28.4860   45.1760 C   0  0  0  0  0  0  0  0  0  0  0  0
   60.1700   31.2300   46.4080 C   0  0  0  0  0  0  0  0  0  0  0  0
   61.5000   31.5770   47.0820 C   0  0  0  0  0  0  0  0  0  0  0  0
   63.5460   32.1140   49.4810 C   0  0  0  0  0  0  0  0  0  0  0  0
   63.8140   33.2770   48.5530 C   0  0  0  0  0  0  0  0  0  0  0  0
   66.2675   32.3772   51.4347 H   0  0  0  0  0  0  0  0  0  0  0  0
   66.6300   31.5553   49.8791 H   0  0  0  0  0  0  0  0  0  0  0  0
   65.9334   33.2110   49.8791 H   0  0  0  0  0  0  0  0  0  0  0  0
   64.9955   30.2949   52.0142 H   0  0  0  0  0  0  0  0  0  0  0  0
   62.7364   29.2600   52.0308 H   0  0  0  0  0  0  0  0  0  0  0  0
   61.0164   29.9636   50.3824 H   0  0  0  0  0  0  0  0  0  0  0  0
   59.4397   32.0954   49.5205 H   0  0  0  0  0  0  0  0  0  0  0  0
   60.5564   33.5213   49.5232 H   0  0  0  0  0  0  0  0  0  0  0  0
   58.4556   33.7185   48.0525 H   0  0  0  0  0  0  0  0  0  0  0  0
   60.0467   34.0597   47.2625 H   0  0  0  0  0  0  0  0  0  0  0  0
   56.9186   30.6551   45.8467 H   0  0  0  0  0  0  0  0  0  0  0  0
   56.4968   31.8024   44.4888 H   0  0  0  0  0  0  0  0  0  0  0  0
   60.0315   27.9803   44.1492 H   0  0  0  0  0  0  0  0  0  0  0  0
   59.5494   25.7219   45.0892 H   0  0  0  0  0  0  0  0  0  0  0  0
   58.6834   22.8721   44.5987 H   0  0  0  0  0  0  0  0  0  0  0  0
   57.7351   21.7045   45.6001 H   0  0  0  0  0  0  0  0  0  0  0  0
   58.0364   21.8725   42.6496 H   0  0  0  0  0  0  0  0  0  0  0  0
   57.5340   20.4899   43.6934 H   0  0  0  0  0  0  0  0  0  0  0  0
   56.3808   23.2583   41.7349 H   0  0  0  0  0  0  0  0  0  0  0  0
   54.7573   23.2593   42.5526 H   0  0  0  0  0  0  0  0  0  0  0  0
   57.2481   24.6082   43.3353 H   0  0  0  0  0  0  0  0  0  0  0  0
   55.5624   24.8527   43.9175 H   0  0  0  0  0  0  0  0  0  0  0  0
   54.9000   26.3440   46.7520 H   0  0  0  0  0  0  0  0  0  0  0  0
   56.0635   29.2887   45.2583 H   0  0  0  0  0  0  0  0  0  0  0  0
   59.8238   30.2541   46.7792 H   0  0  0  0  0  0  0  0  0  0  0  0
   60.3295   31.1975   45.3201 H   0  0  0  0  0  0  0  0  0  0  0  0
   62.2005   30.7364   46.9695 H   0  0  0  0  0  0  0  0  0  0  0  0
   61.9314   32.4730   46.6117 H   0  0  0  0  0  0  0  0  0  0  0  0
   64.0219   34.1794   49.1467 H   0  0  0  0  0  0  0  0  0  0  0  0
   64.6827   33.0472   47.9186 H   0  0  0  0  0  0  0  0  0  0  0  0
   62.9323   33.4506   47.9186 H   0  0  0  0  0  0  0  0  0  0  0  0
  1  2  1  0
  2  3  2  0
  3  4  1  0
  4  5  2  0
  5  6  1  0
  6  7  1  0
  7  8  1  0
  8  9  1  0
  9 10  1  0
 10 11  1  0
 11 12  2  0
 11 13  1  0
 13 14  1  0
 14 15  1  0
 15 16  2  0
 16 17  1  0
 17 18  2  0
 18 19  1  0
 19 20  2  0
 19 21  2  0
 19 22  1  0
 22 23  1  0
 23 24  1  0
 24 25  1  0
 25 26  1  0
 26 27  1  0
 18 28  1  0
 28 29  1  0
 28 30  2  0
 10 31  1  0
 31 32  1  0
  6 33  2  0
 33 34  1  0
 33  2  1  0
 32  7  1  0
 30 15  1  0
 27 22  1  0
  1 35  1  0
  1 36  1  0
  1 37  1  0
  3 38  1  0
  4 39  1  0
  5 40  1  0
  8 41  1  0
  8 42  1  0
  9 43  1  0
  9 44  1  0
 13 45  1  0
 13 46  1  0
 16 47  1  0
 17 48  1  0
 23 49  1  0
 23 50  1  0
 24 51  1  0
 24 52  1  0
 26 53  1  0
 26 54  1  0
 27 55  1  0
 27 56  1  0
 29 57  1  0
 30 58  1  0
 31 59  1  0
 31 60  1  0
 32 61  1  0
 32 62  1  0
 34 63  1  0
 34 64  1  0
 34 65  1  0
M  END
>  <UniqueID>  (19) 
15

>  <SMILES>  (19) 
Cc1cccc(N2CCN(C(=O)CSc3ccc(S(=O)(=O)N4CCOCC4)c(O)c3)CC2)c1C

>  <Energy>  (19) 
89.3036792786788

>  <Genealogy>  (19) 
Cc1cccc(N2CCN(C(=O)CSc3ccc(S(=O)(=O)N4CCOCC4)c(O)c3)CC2)c1C (3D coordinates assigned)
Cc1cccc(N2CCN(C(=O)CSc3ccc(S(=O)(=O)N4CCOCC4)c(O)c3)CC2)c1C (nonaromatic ring conformer: 89.3036792786788 kcal/mol)

>  <smiles>  (19) 
Cc1cccc(N2CCN(C(=O)CSc3ccc(S(=O)(=O)N4CCOCC4)c(O)c3)CC2)c1C

>  <score_type>  (19) 
oracle

>  <origin>  (19) 
adg

>  <m_score__min__energy>  (19) 
-11.24

>  <m_primary>  (19) 
energy

$$$$
19:0
     RDKit          3D

 48 50  0  0  0  0  0  0  0  0999 V2000
   58.6740   30.0280   51.6970 C   0  0  0  0  0  0  0  0  0  0  0  0
   58.2080   29.7770   50.3750 O   0  0  0  0  0  0  0  0  0  0  0  0
   59.0060   29.8020   49.2200 C   0  0  0  0  0  0  0  0  0  0  0  0
   59.0020   28.7200   48.3180 C   0  0  0  0  0  0  0  0  0  0  0  0
   59.7880   28.7450   47.1600 C   0  0  0  0  0  0  0  0  0  0  0  0
   59.8260   27.5550   46.2390 C   0  0  0  0  0  0  0  0  0  0  0  0
   58.4930   26.8650   46.1770 C   0  0  0  0  0  0  0  0  0  0  0  0
   58.3470   25.5390   46.3800 N   0  0  0  0  0  0  0  0  0  0  0  0
   57.0510   25.2730   46.3280 N   0  0  0  0  0  0  0  0  0  0  0  0
   56.4330   26.4430   46.0920 C   0  0  0  0  0  0  0  0  0  0  0  0
   55.1810   26.5610   46.0240 O   0  0  0  0  0  0  0  0  0  0  0  0
   57.3010   27.4670   45.9630 N   0  0  0  0  0  0  0  0  0  0  0  0
   56.9980   28.8910   45.7830 C   0  0  0  0  0  0  0  0  0  0  0  0
   57.1860   29.3400   44.3260 C   0  0  0  0  0  0  0  0  0  0  0  0
   57.5920   30.7860   44.2180 C   0  0  0  0  0  0  0  0  0  0  0  0
   57.7310   31.3920   42.9610 C   0  0  0  0  0  0  0  0  0  0  0  0
   58.1640   32.7170   42.8780 C   0  0  0  0  0  0  0  0  0  0  0  0
   58.4250   33.4210   44.0120 N   0  0  0  0  0  0  0  0  0  0  0  0
   58.2790   32.8670   45.2440 C   0  0  0  0  0  0  0  0  0  0  0  0
   57.8620   31.5400   45.3710 C   0  0  0  0  0  0  0  0  0  0  0  0
   60.5860   29.8630   46.8960 C   0  0  0  0  0  0  0  0  0  0  0  0
   60.6000   30.9570   47.7760 C   0  0  0  0  0  0  0  0  0  0  0  0
   61.3760   32.1010   47.5230 O   0  0  0  0  0  0  0  0  0  0  0  0
   62.8000   32.1230   47.5040 C   0  0  0  0  0  0  0  0  0  0  0  0
   59.8200   30.9310   48.9440 C   0  0  0  0  0  0  0  0  0  0  0  0
   59.8950   32.0640   49.7770 O   0  0  0  0  0  0  0  0  0  0  0  0
   59.5960   33.4070   49.4130 C   0  0  0  0  0  0  0  0  0  0  0  0
   57.9463   29.6361   52.4229 H   0  0  0  0  0  0  0  0  0  0  0  0
   59.6437   29.5302   51.8447 H   0  0  0  0  0  0  0  0  0  0  0  0
   58.7919   31.1116   51.8447 H   0  0  0  0  0  0  0  0  0  0  0  0
   58.3721   27.8427   48.5267 H   0  0  0  0  0  0  0  0  0  0  0  0
   60.1009   27.8931   45.2290 H   0  0  0  0  0  0  0  0  0  0  0  0
   60.5669   26.8409   46.6276 H   0  0  0  0  0  0  0  0  0  0  0  0
   55.9540   29.0720   46.0784 H   0  0  0  0  0  0  0  0  0  0  0  0
   57.6946   29.4682   46.4088 H   0  0  0  0  0  0  0  0  0  0  0  0
   57.9666   28.7185   43.8629 H   0  0  0  0  0  0  0  0  0  0  0  0
   56.2203   29.2239   43.8123 H   0  0  0  0  0  0  0  0  0  0  0  0
   57.5003   30.8270   42.0458 H   0  0  0  0  0  0  0  0  0  0  0  0
   58.2941   33.1919   41.8943 H   0  0  0  0  0  0  0  0  0  0  0  0
   58.4896   33.4647   46.1431 H   0  0  0  0  0  0  0  0  0  0  0  0
   57.7460   31.0889   46.3675 H   0  0  0  0  0  0  0  0  0  0  0  0
   61.2090   29.8854   45.9897 H   0  0  0  0  0  0  0  0  0  0  0  0
   63.1804   32.1289   48.5361 H   0  0  0  0  0  0  0  0  0  0  0  0
   63.1735   31.2305   46.9806 H   0  0  0  0  0  0  0  0  0  0  0  0
   63.1458   33.0266   46.9806 H   0  0  0  0  0  0  0  0  0  0  0  0
   59.4613   34.0119   50.3218 H   0  0  0  0  0  0  0  0  0  0  0  0
   60.4245   33.8187   48.8179 H   0  0  0  0  0  0  0  0  0  0  0  0
   58.6711   33.4284   48.8179 H   0  0  0  0  0  0  0  0  0  0  0  0
  1  2  1  0
  2  3  1  0
  3  4  2  0
  4  5  1  0
  5  6  1  0
  6  7  1  0
  7  8  2  0
  8  9  1  0
  9 10  1  0
 10 11  2  0
 10 12  1  0
 12 13  1  0
 13 14  1  0
 14 15  1  0
 15 16  2  0
 16 17  1  0
 17 18  2  0
 18 19  1  0
 19 20  2  0
  5 21  2  0
 21 22  1  0
 22 23  1  0
 23 24  1  0
 22 25  2  0
 25 26  1  0
 26 27  1  0
 25  3  1  0
 12  7  1  0
 20 15  1  0
  1 28  1  0
  1 29  1  0
  1 30  1  0
  4 31  1  0
  6 32  1  0
  6 33  1  0
 13 34  1  0
 13 35  1  0
 14 36  1  0
 14 37  1  0
 16 38  1  0
 17 39  1  0
 19 40  1  0
 20 41  1  0
 21 42  1  0
 24 43  1  0
 24 44  1  0
 24 45  1  0
 27 46  1  0
 27 47  1  0
 27 48  1  0
M  CHG  1   9  -1
M  END
>  <UniqueID>  (20) 
16

>  <SMILES>  (20) 
COc1cc(Cc2n[n-]c(=O)n2CCc2ccncc2)cc(OC)c1OC

>  <Energy>  (20) 
78.77625526941257

>  <Genealogy>  (20) 
COc1cc(Cc2n[n-]c(=O)n2CCc2ccncc2)cc(OC)c1OC (protonated)
COc1cc(Cc2n[n-]c(=O)n2CCc2ccncc2)cc(OC)c1OC (3D coordinates assigned)
COc1cc(Cc2n[n-]c(=O)n2CCc2ccncc2)cc(OC)c1OC (optimized conformer: 78.77625526941257 kcal/mol)

>  <smiles>  (20) 
COc1cc(Cc2n[nH]c(=O)n2CCc2ccncc2)cc(OC)c1OC

>  <score_type>  (20) 
oracle

>  <origin>  (20) 
adg

>  <m_score__min__energy>  (20) 
-9.2400000000000002

>  <m_primary>  (20) 
energy

$$$$
20:0
     RDKit          3D

 28 29  0  0  0  0  0  0  0  0999 V2000
   55.5020   29.7570   43.9510 C   0  0  0  0  0  0  0  0  0  0  0  0
   55.7690   29.1300   45.2010 O   0  0  0  0  0  0  0  0  0  0  0  0
   57.0620   28.8210   45.6360 C   0  0  0  0  0  0  0  0  0  0  0  0
   58.0270   29.7840   45.6290 N   0  0  0  0  0  0  0  0  0  0  0  0
   59.2990   29.5420   46.0360 C   0  0  0  0  0  0  0  0  0  0  0  0
   60.1520   30.4660   46.0100 O   0  0  0  0  0  0  0  0  0  0  0  0
   59.6560   28.2690   46.4800 C   0  0  0  0  0  0  0  0  0  0  0  0
   58.6960   27.2590   46.5020 C   0  0  0  0  0  0  0  0  0  0  0  0
   57.3770   27.5150   46.0820 C   0  0  0  0  0  0  0  0  0  0  0  0
   56.3660   26.4250   46.1120 C   0  0  0  0  0  0  0  0  0  0  0  0
   55.1390   26.6910   46.0090 O   0  0  0  0  0  0  0  0  0  0  0  0
   56.7870   25.0680   46.3130 N   0  0  0  0  0  0  0  0  0  0  0  0
   56.7670   24.0090   45.3420 C   0  0  0  0  0  0  0  0  0  0  0  0
   57.9460   23.3780   44.9080 C   0  0  0  0  0  0  0  0  0  0  0  0
   57.8830   22.3360   43.9820 C   0  0  0  0  0  0  0  0  0  0  0  0
   56.6400   21.9170   43.5050 C   0  0  0  0  0  0  0  0  0  0  0  0
   56.5660   20.9800   42.6690 O   0  0  0  0  0  0  0  0  0  0  0  0
   55.5060   22.5190   43.9500 N   0  0  0  0  0  0  0  0  0  0  0  0
   55.5360   23.5370   44.8520 C   0  0  0  0  0  0  0  0  0  0  0  0
   54.2930   24.1240   45.2810 C   0  0  0  0  0  0  0  0  0  0  0  0
   53.2950   24.5960   45.6270 N   0  0  0  0  0  0  0  0  0  0  0  0
   55.0765   30.7562   44.1255 H   0  0  0  0  0  0  0  0  0  0  0  0
   56.4380   29.8515   43.3809 H   0  0  0  0  0  0  0  0  0  0  0  0
   54.7853   29.1477   43.3809 H   0  0  0  0  0  0  0  0  0  0  0  0
   60.6853   28.0642   46.8096 H   0  0  0  0  0  0  0  0  0  0  0  0
   58.9714   26.2527   46.8507 H   0  0  0  0  0  0  0  0  0  0  0  0
   58.9202   23.7064   45.2992 H   0  0  0  0  0  0  0  0  0  0  0  0
   58.8048   21.8491   43.6311 H   0  0  0  0  0  0  0  0  0  0  0  0
  1  2  1  0
  2  3  1  0
  3  4  1  0
  4  5  1  0
  5  6  2  0
  5  7  1  0
  7  8  2  0
  8  9  1  0
  9 10  1  0
 10 11  2  0
 10 12  1  0
 12 13  1  0
 13 14  1  0
 14 15  2  0
 15 16  1  0
 16 17  2  0
 16 18  1  0
 18 19  1  0
 19 20  1  0
 20 21  3  0
  9  3  2  0
 19 13  2  0
  1 22  1  0
  1 23  1  0
  1 24  1  0
  7 25  1  0
  8 26  1  0
 14 27  1  0
 15 28  1  0
M  CHG  3   4  -1  12  -1  18  -1
M  END
>  <UniqueID>  (21) 
17

>  <SMILES>  (21) 
COc1[n-]c(=O)ccc1C(=O)[N-]c1ccc(=O)[n-]c1C#N

>  <Energy>  (21) 
33.88983288452326

>  <Genealogy>  (21) 
COc1[n-]c(=O)ccc1C(=O)[N-]c1ccc(=O)[n-]c1C#N (protonated)
COc1[n-]c(=O)ccc1C(=O)[N-]c1ccc(=O)[n-]c1C#N (3D coordinates assigned)
COc1[n-]c(=O)ccc1C(=O)[N-]c1ccc(=O)[n-]c1C#N (optimized conformer: 33.88983288452326 kcal/mol)

>  <smiles>  (21) 
COc1[nH]c(=O)ccc1C(=O)Nc1ccc(=O)[nH]c1C#N

>  <score_type>  (21) 
oracle

>  <origin>  (21) 
adg

>  <m_score__min__energy>  (21) 
-11.57

>  <m_primary>  (21) 
energy

$$$$
21:0
     RDKit          3D

 38 41  0  0  0  0  0  0  0  0999 V2000
   66.0000   33.1090   49.7750 O   0  0  0  0  0  0  0  0  0  0  0  0
   65.0080   32.3320   49.7860 C   0  0  0  0  0  0  0  0  0  0  0  0
   65.0320   31.2210   50.6220 O   0  0  0  0  0  0  0  0  0  0  0  0
   63.8360   32.5950   48.9220 C   0  0  0  0  0  0  0  0  0  0  0  0
   63.5880   33.8930   48.4440 C   0  0  0  0  0  0  0  0  0  0  0  0
   62.4850   34.1510   47.6270 C   0  0  0  0  0  0  0  0  0  0  0  0
   61.6130   33.1170   47.2740 C   0  0  0  0  0  0  0  0  0  0  0  0
   60.5430   33.3810   46.4780 N   0  0  0  0  0  0  0  0  0  0  0  0
   59.6660   32.4140   46.1060 C   0  0  0  0  0  0  0  0  0  0  0  0
   58.5830   32.7400   45.2830 C   0  0  0  0  0  0  0  0  0  0  0  0
   57.6740   31.7540   44.8930 C   0  0  0  0  0  0  0  0  0  0  0  0
   57.8370   30.4310   45.3290 C   0  0  0  0  0  0  0  0  0  0  0  0
   56.7010   29.1830   44.8270 S   0  0  0  0  0  0  0  0  0  0  0  0
   55.3050   29.7430   44.8550 O   0  0  0  0  0  0  0  0  0  0  0  0
   57.0240   28.7310   43.4310 O   0  0  0  0  0  0  0  0  0  0  0  0
   56.8220   27.8440   45.9210 N   0  0  0  0  0  0  0  0  0  0  0  0
   56.3030   26.6810   45.6770 C   0  0  0  0  0  0  0  0  0  0  0  0
   55.0360   26.3360   45.9970 N   0  0  0  0  0  0  0  0  0  0  0  0
   54.7380   25.0860   45.6470 N   0  0  0  0  0  0  0  0  0  0  0  0
   55.7610   24.4440   45.0380 C   0  0  0  0  0  0  0  0  0  0  0  0
   55.6970   23.0150   44.6080 C   0  0  0  0  0  0  0  0  0  0  0  0
   54.4800   22.4470   45.0080 O   0  0  0  0  0  0  0  0  0  0  0  0
   57.1310   25.4240   44.9300 S   0  0  0  0  0  0  0  0  0  0  0  0
   58.9240   30.0960   46.1470 C   0  0  0  0  0  0  0  0  0  0  0  0
   59.8460   31.0830   46.5470 C   0  0  0  0  0  0  0  0  0  0  0  0
   60.9480   30.7810   47.3720 C   0  0  0  0  0  0  0  0  0  0  0  0
   61.1320   29.5980   47.7770 O   0  0  0  0  0  0  0  0  0  0  0  0
   61.8430   31.8040   47.7430 C   0  0  0  0  0  0  0  0  0  0  0  0
   62.9590   31.5530   48.5660 C   0  0  0  0  0  0  0  0  0  0  0  0
   64.2687   34.7132   48.7157 H   0  0  0  0  0  0  0  0  0  0  0  0
   62.3018   35.1716   47.2599 H   0  0  0  0  0  0  0  0  0  0  0  0
   58.4467   33.7768   44.9417 H   0  0  0  0  0  0  0  0  0  0  0  0
   56.8272   32.0160   44.2416 H   0  0  0  0  0  0  0  0  0  0  0  0
   55.7817   22.9603   43.5126 H   0  0  0  0  0  0  0  0  0  0  0  0
   56.5244   22.4606   45.0749 H   0  0  0  0  0  0  0  0  0  0  0  0
   53.9480   23.1760   45.4220 H   0  0  0  0  0  0  0  0  0  0  0  0
   59.0583   29.0559   46.4789 H   0  0  0  0  0  0  0  0  0  0  0  0
   63.1466   30.5334   48.9337 H   0  0  0  0  0  0  0  0  0  0  0  0
  1  2  2  0
  2  3  1  0
  2  4  1  0
  4  5  2  0
  5  6  1  0
  6  7  2  0
  7  8  1  0
  8  9  1  0
  9 10  2  0
 10 11  1  0
 11 12  2  0
 12 13  1  0
 13 14  2  0
 13 15  2  0
 13 16  1  0
 16 17  2  3
 17 18  1  0
 18 19  1  0
 19 20  2  0
 20 21  1  0
 21 22  1  0
 20 23  1  0
 12 24  1  0
 24 25  2  0
 25 26  1  0
 26 27  2  0
 26 28  1  0
 28 29  2  0
 29  4  1  0
 28  7  1  0
 25  9  1  0
 23 17  1  0
  5 30  1  0
  6 31  1  0
 10 32  1  0
 11 33  1  0
 21 34  1  0
 21 35  1  0
 22 36  1  0
 24 37  1  0
 29 38  1  0
M  CHG  3   3  -1   8  -1  18  -1
M  END
>  <UniqueID>  (22) 
18

>  <SMILES>  (22) 
O=C([O-])c1ccc2[n-]c3ccc(S(=O)(=O)N=c4[n-]nc(CO)s4)cc3c(=O)c2c1

>  <Energy>  (22) 
88.22232435567156

>  <Genealogy>  (22) 
O=C([O-])c1ccc2[n-]c3ccc(S(=O)(=O)N=c4[n-]nc(CO)s4)cc3c(=O)c2c1 (protonated)
O=C([O-])c1ccc2[n-]c3ccc(S(=O)(=O)N=c4[n-]nc(CO)s4)cc3c(=O)c2c1 (3D coordinates assigned)
O=C([O-])c1ccc2[n-]c3ccc(S(=O)(=O)N=c4[n-]nc(CO)s4)cc3c(=O)c2c1 (optimized conformer: 88.22232435567156 kcal/mol)

>  <smiles>  (22) 
O=C(O)c1ccc2[nH]c3ccc(S(=O)(=O)N=c4[nH]nc(CO)s4)cc3c(=O)c2c1

>  <score_type>  (22) 
oracle

>  <origin>  (22) 
adg

>  <m_score__min__energy>  (22) 
-12.720000000000001

>  <m_primary>  (22) 
energy

$$$$
22:0
     RDKit          3D

 30 31  0  0  0  0  0  0  0  0999 V2000
   56.9440   34.2730   45.0030 O   0  0  0  0  0  0  0  0  0  0  0  0
   58.0660   34.0410   45.5260 C   0  0  0  0  0  0  0  0  0  0  0  0
   58.4990   32.7020   45.8020 N   0  0  0  0  0  0  0  0  0  0  0  0
   57.7360   31.5260   45.4820 C   0  0  0  0  0  0  0  0  0  0  0  0
   56.6410   31.6260   44.8630 O   0  0  0  0  0  0  0  0  0  0  0  0
   58.2130   30.1930   45.9090 C   0  0  0  0  0  0  0  0  0  0  0  0
   57.7900   29.0610   45.1890 C   0  0  0  0  0  0  0  0  0  0  0  0
   58.2570   27.7800   45.5210 C   0  0  0  0  0  0  0  0  0  0  0  0
   57.7690   26.5730   44.7630 C   0  0  0  0  0  0  0  0  0  0  0  0
   57.2410   25.5260   45.7160 C   0  0  0  0  0  0  0  0  0  0  0  0
   55.9600   25.6430   46.2870 C   0  0  0  0  0  0  0  0  0  0  0  0
   55.1280   26.7070   45.9600 O   0  0  0  0  0  0  0  0  0  0  0  0
   55.5210   24.7080   47.1690 N   0  0  0  0  0  0  0  0  0  0  0  0
   56.2990   23.6530   47.5190 C   0  0  0  0  0  0  0  0  0  0  0  0
   55.7420   22.5470   48.5820 S   0  0  0  0  0  0  0  0  0  0  0  0
   57.5410   23.5190   46.9900 N   0  0  0  0  0  0  0  0  0  0  0  0
   58.0280   24.4260   46.1040 C   0  0  0  0  0  0  0  0  0  0  0  0
   59.1880   24.2670   45.6380 O   0  0  0  0  0  0  0  0  0  0  0  0
   59.1540   27.6320   46.5870 C   0  0  0  0  0  0  0  0  0  0  0  0
   59.5770   28.7470   47.3120 C   0  0  0  0  0  0  0  0  0  0  0  0
   59.1040   30.0250   46.9950 C   0  0  0  0  0  0  0  0  0  0  0  0
   59.5160   31.0920   47.7960 O   0  0  0  0  0  0  0  0  0  0  0  0
   58.7278   34.8832   45.7764 H   0  0  0  0  0  0  0  0  0  0  0  0
   59.4380   32.5880   46.2460 H   0  0  0  0  0  0  0  0  0  0  0  0
   57.0836   29.1816   44.3544 H   0  0  0  0  0  0  0  0  0  0  0  0
   56.9641   26.8772   44.0777 H   0  0  0  0  0  0  0  0  0  0  0  0
   58.6093   26.1459   44.1961 H   0  0  0  0  0  0  0  0  0  0  0  0
   59.5267   26.6321   46.8538 H   0  0  0  0  0  0  0  0  0  0  0  0
   60.2891   28.6198   48.1407 H   0  0  0  0  0  0  0  0  0  0  0  0
   60.3220   31.0500   48.4060 H   0  0  0  0  0  0  0  0  0  0  0  0
  1  2  2  0
  2  3  1  0
  3  4  1  0
  4  5  2  0
  4  6  1  0
  6  7  2  0
  7  8  1  0
  8  9  1  0
  9 10  1  0
 10 11  2  0
 11 12  1  0
 11 13  1  0
 13 14  1  0
 14 15  2  0
 14 16  1  0
 16 17  1  0
 17 18  2  0
  8 19  2  0
 19 20  1  0
 20 21  2  0
 21 22  1  0
 21  6  1  0
 17 10  1  0
  2 23  1  0
  3 24  1  0
  7 25  1  0
  9 26  1  0
  9 27  1  0
 19 28  1  0
 20 29  1  0
 22 30  1  0
M  CHG  3  12  -1  13  -1  16  -1
M  END
>  <UniqueID>  (23) 
19

>  <SMILES>  (23) 
O=CNC(=O)c1cc(Cc2c([O-])[n-]c(=S)[n-]c2=O)ccc1O

>  <Energy>  (23) 
37.623622712212835

>  <Genealogy>  (23) 
O=CNC(=O)c1cc(Cc2c([O-])[n-]c(=S)[n-]c2=O)ccc1O (protonated)
O=CNC(=O)c1cc(Cc2c([O-])[n-]c(=S)[n-]c2=O)ccc1O (3D coordinates assigned)
O=CNC(=O)c1cc(Cc2c([O-])[n-]c(=S)[n-]c2=O)ccc1O (optimized conformer: 37.623622712212835 kcal/mol)

>  <smiles>  (23) 
O=CNC(=O)c1cc(Cc2c(O)[nH]c(=S)[nH]c2=O)ccc1O

>  <score_type>  (23) 
oracle

>  <origin>  (23) 
adg

>  <m_score__min__energy>  (23) 
-15.02

>  <m_primary>  (23) 
energy

$$$$
23:0
     RDKit          3D

 37 39  0  0  0  0  0  0  0  0999 V2000
   55.5110   26.4800   46.1290 O   0  0  0  0  0  0  0  0  0  0  0  0
   56.2580   27.3840   45.6740 C   0  0  0  0  0  0  0  0  0  0  0  0
   55.6660   28.6050   45.2060 N   0  0  0  0  0  0  0  0  0  0  0  0
   56.3040   29.5910   44.3820 C   0  0  0  0  0  0  0  0  0  0  0  0
   57.1710   30.5570   44.9270 C   0  0  0  0  0  0  0  0  0  0  0  0
   57.7830   31.5000   44.0950 C   0  0  0  0  0  0  0  0  0  0  0  0
   57.5200   31.4990   42.7210 C   0  0  0  0  0  0  0  0  0  0  0  0
   58.2820   32.6900   41.6840 Cl  0  0  0  0  0  0  0  0  0  0  0  0
   56.6390   30.5570   42.1800 C   0  0  0  0  0  0  0  0  0  0  0  0
   56.0290   29.6110   43.0090 C   0  0  0  0  0  0  0  0  0  0  0  0
   57.6740   27.1630   45.6360 N   0  0  0  0  0  0  0  0  0  0  0  0
   58.6830   28.1220   45.9850 C   0  0  0  0  0  0  0  0  0  0  0  0
   59.6770   28.4320   45.0510 C   0  0  0  0  0  0  0  0  0  0  0  0
   60.6940   29.3350   45.3760 C   0  0  0  0  0  0  0  0  0  0  0  0
   60.7240   29.9470   46.6350 C   0  0  0  0  0  0  0  0  0  0  0  0
   61.8040   30.8410   46.9400 N   0  0  0  0  0  0  0  0  0  0  0  0
   61.6170   32.5030   47.3920 S   0  0  0  0  0  0  0  0  0  0  0  0
   62.7130   33.3190   46.7660 O   0  0  0  0  0  0  0  0  0  0  0  0
   61.7100   32.6260   48.8860 O   0  0  0  0  0  0  0  0  0  0  0  0
   60.0460   33.0840   46.8710 C   0  0  0  0  0  0  0  0  0  0  0  0
   58.8300   32.7940   47.4720 C   0  0  0  0  0  0  0  0  0  0  0  0
   57.7490   33.4260   46.8450 C   0  0  0  0  0  0  0  0  0  0  0  0
   58.1160   34.2070   45.7570 C   0  0  0  0  0  0  0  0  0  0  0  0
   59.7860   34.1210   45.5770 S   0  0  0  0  0  0  0  0  0  0  0  0
   59.7000   29.6690   47.5580 C   0  0  0  0  0  0  0  0  0  0  0  0
   58.6830   28.7690   47.2320 C   0  0  0  0  0  0  0  0  0  0  0  0
   57.3675   30.5701   46.0092 H   0  0  0  0  0  0  0  0  0  0  0  0
   58.4722   32.2436   44.5217 H   0  0  0  0  0  0  0  0  0  0  0  0
   56.4258   30.5605   41.1009 H   0  0  0  0  0  0  0  0  0  0  0  0
   55.3292   28.8784   42.5805 H   0  0  0  0  0  0  0  0  0  0  0  0
   59.6586   27.9632   44.0561 H   0  0  0  0  0  0  0  0  0  0  0  0
   61.4758   29.5661   44.6375 H   0  0  0  0  0  0  0  0  0  0  0  0
   58.7258   32.1372   48.3482 H   0  0  0  0  0  0  0  0  0  0  0  0
   56.7080   33.3144   47.1823 H   0  0  0  0  0  0  0  0  0  0  0  0
   57.4300   34.7847   45.1201 H   0  0  0  0  0  0  0  0  0  0  0  0
   59.7001   30.1626   48.5410 H   0  0  0  0  0  0  0  0  0  0  0  0
   57.8788   28.5659   47.9545 H   0  0  0  0  0  0  0  0  0  0  0  0
  1  2  2  0
  2  3  1  0
  3  4  1  0
  4  5  2  0
  5  6  1  0
  6  7  2  0
  7  8  1  0
  7  9  1  0
  9 10  2  0
  2 11  1  0
 11 12  1  0
 12 13  2  0
 13 14  1  0
 14 15  2  0
 15 16  1  0
 16 17  1  0
 17 18  2  0
 17 19  2  0
 17 20  1  0
 20 21  2  0
 21 22  1  0
 22 23  2  0
 23 24  1  0
 15 25  1  0
 25 26  2  0
 10  4  1  0
 26 12  1  0
 24 20  1  0
  5 27  1  0
  6 28  1  0
  9 29  1  0
 10 30  1  0
 13 31  1  0
 14 32  1  0
 21 33  1  0
 22 34  1  0
 23 35  1  0
 25 36  1  0
 26 37  1  0
M  CHG  3   3  -1  11  -1  16  -1
M  END
>  <UniqueID>  (24) 
20

>  <SMILES>  (24) 
O=C([N-]c1ccc(Cl)cc1)[N-]c1ccc([N-]S(=O)(=O)c2cccs2)cc1

>  <Energy>  (24) 
73.01937323053586

>  <Genealogy>  (24) 
O=C([N-]c1ccc(Cl)cc1)[N-]c1ccc([N-]S(=O)(=O)c2cccs2)cc1 (protonated)
O=C([N-]c1ccc(Cl)cc1)[N-]c1ccc([N-]S(=O)(=O)c2cccs2)cc1 (3D coordinates assigned)
O=C([N-]c1ccc(Cl)cc1)[N-]c1ccc([N-]S(=O)(=O)c2cccs2)cc1 (optimized conformer: 73.01937323053586 kcal/mol)

>  <smiles>  (24) 
O=C(Nc1ccc(Cl)cc1)Nc1ccc(NS(=O)(=O)c2cccs2)cc1

>  <score_type>  (24) 
oracle

>  <origin>  (24) 
adg

>  <m_score__min__energy>  (24) 
-12.67

>  <m_primary>  (24) 
energy

$$$$
24:0
     RDKit          3D

 43 45  0  0  0  0  0  0  0  0999 V2000
   59.6410   34.9530   47.4570 C   0  0  0  0  0  0  0  0  0  0  0  0
   60.4360   33.3950   47.1370 S   0  0  1  0  0  0  0  0  0  0  0  0
   61.6120   33.6270   46.2290 O   0  0  0  0  0  0  0  0  0  0  0  0
   60.9430   32.7830   48.4960 N   0  0  0  0  0  0  0  0  0  0  0  0
   62.1540   33.1470   49.1830 C   0  0  0  0  0  0  0  0  0  0  0  0
   62.1510   33.9150   50.3670 C   0  0  0  0  0  0  0  0  0  0  0  0
   63.3530   34.2500   50.9950 C   0  0  0  0  0  0  0  0  0  0  0  0
   64.5680   33.8250   50.4550 C   0  0  0  0  0  0  0  0  0  0  0  0
   64.5840   33.0630   49.2850 C   0  0  0  0  0  0  0  0  0  0  0  0
   63.3810   32.7220   48.6490 C   0  0  0  0  0  0  0  0  0  0  0  0
   63.4000   31.9620   47.4790 O   0  0  0  0  0  0  0  0  0  0  0  0
   59.2740   32.3110   46.3740 C   0  0  0  0  0  0  0  0  0  0  0  0
   58.4690   32.7590   45.3210 C   0  0  0  0  0  0  0  0  0  0  0  0
   57.5560   31.8940   44.7140 C   0  0  0  0  0  0  0  0  0  0  0  0
   57.4300   30.5640   45.1570 C   0  0  0  0  0  0  0  0  0  0  0  0
   56.4650   29.6420   44.5090 C   0  0  0  0  0  0  0  0  0  0  0  0
   56.1130   29.8410   43.3140 O   0  0  0  0  0  0  0  0  0  0  0  0
   55.8960   28.5590   45.2570 N   0  0  0  0  0  0  0  0  0  0  0  0
   56.5500   27.3350   45.6290 C   0  0  0  0  0  0  0  0  0  0  0  0
   57.9530   27.2320   45.6950 C   0  0  0  0  0  0  0  0  0  0  0  0
   58.5530   26.0330   46.0880 C   0  0  0  0  0  0  0  0  0  0  0  0
   57.7630   24.9330   46.4310 C   0  0  0  0  0  0  0  0  0  0  0  0
   56.3710   25.0340   46.3920 C   0  0  0  0  0  0  0  0  0  0  0  0
   55.7640   26.2330   45.9990 C   0  0  0  0  0  0  0  0  0  0  0  0
   54.3770   26.3220   45.9730 O   0  0  0  0  0  0  0  0  0  0  0  0
   58.2380   30.1230   46.2200 C   0  0  0  0  0  0  0  0  0  0  0  0
   59.1500   30.9920   46.8250 C   0  0  0  0  0  0  0  0  0  0  0  0
   59.5619   35.1080   48.5431 H   0  0  0  0  0  0  0  0  0  0  0  0
   60.2347   35.7656   47.0129 H   0  0  0  0  0  0  0  0  0  0  0  0
   58.6346   34.9492   47.0129 H   0  0  0  0  0  0  0  0  0  0  0  0
   61.1966   34.2518   50.7979 H   0  0  0  0  0  0  0  0  0  0  0  0
   63.3420   34.8499   51.9169 H   0  0  0  0  0  0  0  0  0  0  0  0
   65.5131   34.0904   50.9513 H   0  0  0  0  0  0  0  0  0  0  0  0
   65.5425   32.7292   48.8609 H   0  0  0  0  0  0  0  0  0  0  0  0
   62.5660   31.8240   46.9220 H   0  0  0  0  0  0  0  0  0  0  0  0
   58.5557   33.7977   44.9695 H   0  0  0  0  0  0  0  0  0  0  0  0
   56.9309   32.2546   43.8838 H   0  0  0  0  0  0  0  0  0  0  0  0
   58.5788   28.0988   45.4362 H   0  0  0  0  0  0  0  0  0  0  0  0
   59.6495   25.9550   46.1274 H   0  0  0  0  0  0  0  0  0  0  0  0
   58.2376   23.9874   46.7318 H   0  0  0  0  0  0  0  0  0  0  0  0
   55.7499   24.1699   46.6706 H   0  0  0  0  0  0  0  0  0  0  0  0
   58.1516   29.0865   46.5779 H   0  0  0  0  0  0  0  0  0  0  0  0
   59.7731   30.6377   47.6594 H   0  0  0  0  0  0  0  0  0  0  0  0
  2  1  1  1
  2  3  2  0
  2  4  2  0
  4  5  1  0
  5  6  2  0
  6  7  1  0
  7  8  2  0
  8  9  1  0
  9 10  2  0
 10 11  1  0
  2 12  1  0
 12 13  2  0
 13 14  1  0
 14 15  2  0
 15 16  1  0
 16 17  2  0
 16 18  1  0
 18 19  1  0
 19 20  2  0
 20 21  1  0
 21 22  2  0
 22 23  1  0
 23 24  2  0
 24 25  1  0
 15 26  1  0
 26 27  2  0
 10  5  1  0
 27 12  1  0
 24 19  1  0
  1 28  1  0
  1 29  1  0
  1 30  1  0
  6 31  1  0
  7 32  1  0
  8 33  1  0
  9 34  1  0
 11 35  1  0
 13 36  1  0
 14 37  1  0
 20 38  1  0
 21 39  1  0
 22 40  1  0
 23 41  1  0
 26 42  1  0
 27 43  1  0
M  CHG  2  18  -1  25  -1
M  END
>  <UniqueID>  (25) 
21

>  <SMILES>  (25) 
C[S@@](=O)(=Nc1ccccc1O)c1ccc(C(=O)[N-]c2ccccc2[O-])cc1

>  <Energy>  (25) 
47.291737193941145

>  <Genealogy>  (25) 
CS(=O)(=Nc1ccccc1O)c1ccc(C(=O)[N-]c2ccccc2[O-])cc1 (protonated)
C[S@@](=O)(=Nc1ccccc1O)c1ccc(C(=O)[N-]c2ccccc2[O-])cc1 (chirality)
C[S@@](=O)(=Nc1ccccc1O)c1ccc(C(=O)[N-]c2ccccc2[O-])cc1 (3D coordinates assigned)
C[S@@](=O)(=Nc1ccccc1O)c1ccc(C(=O)[N-]c2ccccc2[O-])cc1 (optimized conformer: 47.291737193941145 kcal/mol)

>  <smiles>  (25) 
CS(=O)(=Nc1ccccc1O)c1ccc(C(=O)Nc2ccccc2O)cc1

>  <score_type>  (25) 
oracle

>  <origin>  (25) 
adg

>  <m_score__min__energy>  (25) 
-14.81

>  <m_primary>  (25) 
energy

$$$$
25:0
     RDKit          3D

 46 48  0  0  0  0  0  0  0  0999 V2000
   60.8940   34.2010   49.3760 C   0  0  0  0  0  0  0  0  0  0  0  0
   59.8390   34.8000   48.6310 O   0  0  0  0  0  0  0  0  0  0  0  0
   59.3380   34.2950   47.4220 C   0  0  0  0  0  0  0  0  0  0  0  0
   58.5680   33.1250   47.4580 C   0  0  0  0  0  0  0  0  0  0  0  0
   58.0480   32.5810   46.2810 C   0  0  0  0  0  0  0  0  0  0  0  0
   58.2810   33.2060   45.0470 C   0  0  0  0  0  0  0  0  0  0  0  0
   57.7570   32.5970   43.7770 C   0  0  0  0  0  0  0  0  0  0  0  0
   57.2780   31.2020   44.0400 C   0  0  0  0  0  0  0  0  0  0  0  0
   56.1250   31.0220   44.5170 O   0  0  0  0  0  0  0  0  0  0  0  0
   58.1320   30.0840   43.7470 N   0  0  0  0  0  0  0  0  0  0  0  0
   57.9110   28.7500   44.2350 C   0  0  0  0  0  0  0  0  0  0  0  0
   57.4220   28.5670   45.5370 C   0  0  0  0  0  0  0  0  0  0  0  0
   57.1720   27.2820   46.0270 C   0  0  0  0  0  0  0  0  0  0  0  0
   57.3900   26.1630   45.2140 C   0  0  0  0  0  0  0  0  0  0  0  0
   57.0770   24.5470   45.8380 S   0  0  0  0  0  0  0  0  0  0  0  0
   58.2210   24.1300   46.7180 O   0  0  0  0  0  0  0  0  0  0  0  0
   56.9350   23.5810   44.6940 O   0  0  0  0  0  0  0  0  0  0  0  0
   55.6040   24.5630   46.7520 N   0  0  0  0  0  0  0  0  0  0  0  0
   54.4940   24.0560   46.3140 C   0  0  0  0  0  0  0  0  0  0  0  0
   53.5980   24.7340   45.5630 N   0  0  0  0  0  0  0  0  0  0  0  0
   52.5310   23.9530   45.2460 C   0  0  0  0  0  0  0  0  0  0  0  0
   51.3760   24.4810   44.4580 C   0  0  0  0  0  0  0  0  0  0  0  0
   52.5690   22.6570   45.7580 C   0  0  0  0  0  0  0  0  0  0  0  0
   54.0020   22.4820   46.6240 S   0  0  0  0  0  0  0  0  0  0  0  0
   57.8640   26.3400   43.9070 C   0  0  0  0  0  0  0  0  0  0  0  0
   58.1150   27.6250   43.4160 C   0  0  0  0  0  0  0  0  0  0  0  0
   59.0620   34.3720   45.0050 C   0  0  0  0  0  0  0  0  0  0  0  0
   59.5830   34.9160   46.1820 C   0  0  0  0  0  0  0  0  0  0  0  0
   60.6938   34.3147   50.4516 H   0  0  0  0  0  0  0  0  0  0  0  0
   60.9582   33.1317   49.1260 H   0  0  0  0  0  0  0  0  0  0  0  0
   61.8451   34.6938   49.1260 H   0  0  0  0  0  0  0  0  0  0  0  0
   58.3713   32.6308   48.4208 H   0  0  0  0  0  0  0  0  0  0  0  0
   57.4524   31.6571   46.3222 H   0  0  0  0  0  0  0  0  0  0  0  0
   56.9214   33.2043   43.3990 H   0  0  0  0  0  0  0  0  0  0  0  0
   58.5636   32.5680   43.0296 H   0  0  0  0  0  0  0  0  0  0  0  0
   58.9310   30.2420   43.0910 H   0  0  0  0  0  0  0  0  0  0  0  0
   57.2338   29.4414   46.1773 H   0  0  0  0  0  0  0  0  0  0  0  0
   56.8028   27.1494   47.0547 H   0  0  0  0  0  0  0  0  0  0  0  0
   50.5953   24.8379   45.1459 H   0  0  0  0  0  0  0  0  0  0  0  0
   51.7147   25.3137   43.8241 H   0  0  0  0  0  0  0  0  0  0  0  0
   50.9679   23.6800   43.8241 H   0  0  0  0  0  0  0  0  0  0  0  0
   51.7981   21.8845   45.6204 H   0  0  0  0  0  0  0  0  0  0  0  0
   58.0393   25.4644   43.2647 H   0  0  0  0  0  0  0  0  0  0  0  0
   58.4737   27.7566   42.3845 H   0  0  0  0  0  0  0  0  0  0  0  0
   59.2649   34.8600   44.0403 H   0  0  0  0  0  0  0  0  0  0  0  0
   60.1876   35.8340   46.1397 H   0  0  0  0  0  0  0  0  0  0  0  0
  1  2  1  0
  2  3  1  0
  3  4  2  0
  4  5  1  0
  5  6  2  0
  6  7  1  0
  7  8  1  0
  8  9  2  0
  8 10  1  0
 10 11  1  0
 11 12  2  0
 12 13  1  0
 13 14  2  0
 14 15  1  0
 15 16  2  0
 15 17  2  0
 15 18  1  0
 18 19  2  3
 19 20  1  0
 20 21  1  0
 21 22  1  0
 21 23  2  0
 23 24  1  0
 14 25  1  0
 25 26  2  0
  6 27  1  0
 27 28  2  0
 28  3  1  0
 26 11  1  0
 24 19  1  0
  1 29  1  0
  1 30  1  0
  1 31  1  0
  4 32  1  0
  5 33  1  0
  7 34  1  0
  7 35  1  0
 10 36  1  0
 12 37  1  0
 13 38  1  0
 22 39  1  0
 22 40  1  0
 22 41  1  0
 23 42  1  0
 25 43  1  0
 26 44  1  0
 27 45  1  0
 28 46  1  0
M  CHG  1  20  -1
M  END
>  <UniqueID>  (26) 
22

>  <SMILES>  (26) 
COc1ccc(CC(=O)Nc2ccc(S(=O)(=O)N=c3[n-]c(C)cs3)cc2)cc1

>  <Energy>  (26) 
80.4527952473472

>  <Genealogy>  (26) 
COc1ccc(CC(=O)Nc2ccc(S(=O)(=O)N=c3[n-]c(C)cs3)cc2)cc1 (protonated)
COc1ccc(CC(=O)Nc2ccc(S(=O)(=O)N=c3[n-]c(C)cs3)cc2)cc1 (3D coordinates assigned)
COc1ccc(CC(=O)Nc2ccc(S(=O)(=O)N=c3[n-]c(C)cs3)cc2)cc1 (optimized conformer: 80.4527952473472 kcal/mol)

>  <smiles>  (26) 
COc1ccc(CC(=O)Nc2ccc(S(=O)(=O)N=c3[nH]c(C)cs3)cc2)cc1

>  <score_type>  (26) 
oracle

>  <origin>  (26) 
adg

>  <m_score__min__energy>  (26) 
-10.279999999999999

>  <m_primary>  (26) 
energy

$$$$
26:0
     RDKit          3D

 66 70  0  0  0  0  0  0  0  0999 V2000
   69.5488   25.4804   50.9451 H   0  0  0  0  0  0  0  0  0  0  0  0
   68.8630   26.3350   51.0410 C   0  0  0  0  0  0  0  0  0  0  0  0
   68.7790   27.2820   50.0180 C   0  0  0  0  0  0  0  0  0  0  0  0
   69.4060   27.1775   49.1203 H   0  0  0  0  0  0  0  0  0  0  0  0
   67.8990   28.3630   50.1330 C   0  0  0  0  0  0  0  0  0  0  0  0
   67.8405   29.1070   49.3249 H   0  0  0  0  0  0  0  0  0  0  0  0
   67.0870   28.5070   51.2750 C   0  0  0  0  0  0  0  0  0  0  0  0
   66.1390   29.6500   51.3720 C   0  0  0  0  0  0  0  0  0  0  0  0
   65.1750   29.5750   52.1860 O   0  0  0  0  0  0  0  0  0  0  0  0
   66.3190   30.8400   50.5760 N   0  0  0  0  0  0  0  0  0  0  0  0
   67.2190   30.9570   50.0620 H   0  0  0  0  0  0  0  0  0  0  0  0
   65.4270   31.7860   50.4760 C   0  0  0  0  0  0  0  0  0  0  0  0
   64.2430   31.6710   49.7530 O   0  0  0  0  0  0  0  0  0  0  0  0
   63.4750   32.8730   49.8640 C   0  0  2  0  0  0  0  0  0  0  0  0
   62.1170   32.5870   50.4870 C   0  0  0  0  0  0  0  0  0  0  0  0
   60.9950   32.6170   49.7130 N   0  0  0  0  0  0  0  0  0  0  0  0
   59.7430   32.3980   50.1990 C   0  0  0  0  0  0  0  0  0  0  0  0
   58.7470   32.4230   49.3540 N   0  0  0  0  0  0  0  0  0  0  0  0
   58.6850   32.0330   47.9680 C   0  0  0  0  0  0  0  0  0  0  0  0
   58.5960   30.8180   47.6430 O   0  0  0  0  0  0  0  0  0  0  0  0
   58.8380   33.0630   46.9060 C   0  0  0  0  0  0  0  0  0  0  0  0
   59.8120   34.0680   47.0540 C   0  0  0  0  0  0  0  0  0  0  0  0
   60.4178   34.1085   47.9713 H   0  0  0  0  0  0  0  0  0  0  0  0
   60.0170   35.0150   46.0470 C   0  0  0  0  0  0  0  0  0  0  0  0
   60.7739   35.8021   46.1794 H   0  0  0  0  0  0  0  0  0  0  0  0
   59.2640   34.9640   44.8750 C   0  0  0  0  0  0  0  0  0  0  0  0
   59.4444   35.6955   44.0736 H   0  0  0  0  0  0  0  0  0  0  0  0
   58.2830   33.9870   44.7180 C   0  0  0  0  0  0  0  0  0  0  0  0
   57.7004   33.9438   43.7860 H   0  0  0  0  0  0  0  0  0  0  0  0
   58.0320   33.0570   45.7400 C   0  0  0  0  0  0  0  0  0  0  0  0
   56.9710   32.1030   45.6020 N   0  0  0  0  0  0  0  0  0  0  0  0
   56.9990   30.7330   44.5300 S   0  0  0  0  0  0  0  0  0  0  0  0
   55.6190   30.1330   44.4700 O   0  0  0  0  0  0  0  0  0  0  0  0
   57.3810   31.2020   43.1510 O   0  0  0  0  0  0  0  0  0  0  0  0
   58.1650   29.5100   45.0410 C   0  0  0  0  0  0  0  0  0  0  0  0
   59.5360   29.7200   44.8250 C   0  0  0  0  0  0  0  0  0  0  0  0
   59.8791   30.6366   44.3229 H   0  0  0  0  0  0  0  0  0  0  0  0
   60.4670   28.7640   45.2480 C   0  0  0  0  0  0  0  0  0  0  0  0
   61.5413   28.9342   45.0841 H   0  0  0  0  0  0  0  0  0  0  0  0
   60.0340   27.5920   45.8790 C   0  0  0  0  0  0  0  0  0  0  0  0
   60.7674   26.8411   46.2081 H   0  0  0  0  0  0  0  0  0  0  0  0
   58.6680   27.3760   46.0910 C   0  0  0  0  0  0  0  0  0  0  0  0
   58.3274   26.4552   46.5872 H   0  0  0  0  0  0  0  0  0  0  0  0
   57.7350   28.3310   45.6720 C   0  0  0  0  0  0  0  0  0  0  0  0
   56.6614   28.1579   45.8373 H   0  0  0  0  0  0  0  0  0  0  0  0
   59.5860   32.1680   51.5810 C   0  0  0  0  0  0  0  0  0  0  0  0
   58.5837   32.0200   52.0093 H   0  0  0  0  0  0  0  0  0  0  0  0
   60.7150   32.1300   52.4000 C   0  0  0  0  0  0  0  0  0  0  0  0
   60.6021   31.9391   53.4774 H   0  0  0  0  0  0  0  0  0  0  0  0
   61.9830   32.3320   51.8630 C   0  0  0  0  0  0  0  0  0  0  0  0
   63.0600   32.3020   52.6860 F   0  0  0  0  0  0  0  0  0  0  0  0
   63.3770   33.5340   48.4810 C   0  0  0  0  0  0  0  0  0  0  0  0
   63.2167   34.6155   48.6020 H   0  0  0  0  0  0  0  0  0  0  0  0
   64.3105   33.3617   47.9253 H   0  0  0  0  0  0  0  0  0  0  0  0
   62.5336   33.0982   47.9253 H   0  0  0  0  0  0  0  0  0  0  0  0
   64.3260   33.7060   50.7820 C   0  0  0  0  0  0  0  0  0  0  0  0
   64.0040   34.8390   51.2270 O   0  0  0  0  0  0  0  0  0  0  0  0
   65.5470   33.0560   51.1070 N   0  0  0  0  0  0  0  0  0  0  0  0
   66.4630   33.4300   52.1820 C   0  0  0  0  0  0  0  0  0  0  0  0
   65.9864   33.2354   53.1541 H   0  0  0  0  0  0  0  0  0  0  0  0
   67.3856   32.8366   52.1006 H   0  0  0  0  0  0  0  0  0  0  0  0
   66.7066   34.4996   52.1006 H   0  0  0  0  0  0  0  0  0  0  0  0
   67.1980   27.5560   52.3090 C   0  0  0  0  0  0  0  0  0  0  0  0
   66.5904   27.6652   53.2194 H   0  0  0  0  0  0  0  0  0  0  0  0
   68.0760   26.4740   52.1850 C   0  0  0  0  0  0  0  0  0  0  0  0
   68.1463   25.7300   52.9922 H   0  0  0  0  0  0  0  0  0  0  0  0
  1  2  1  0
  2  3  2  0
  3  4  1  0
  3  5  1  0
  5  6  1  0
  5  7  2  0
  7  8  1  0
  8  9  2  0
  8 10  1  0
 10 11  1  0
 10 12  2  0
 12 13  1  0
 13 14  1  0
 14 15  1  0
 15 16  1  0
 16 17  1  0
 17 18  2  3
 18 19  1  0
 19 20  2  0
 19 21  1  0
 21 22  2  0
 22 23  1  0
 22 24  1  0
 24 25  1  0
 24 26  2  0
 26 27  1  0
 26 28  1  0
 28 29  1  0
 28 30  2  0
 30 31  1  0
 31 32  1  0
 32 33  2  0
 32 34  2  0
 32 35  1  0
 35 36  2  0
 36 37  1  0
 36 38  1  0
 38 39  1  0
 38 40  2  0
 40 41  1  0
 40 42  1  0
 42 43  1  0
 42 44  2  0
 44 45  1  0
 17 46  1  0
 46 47  1  0
 46 48  2  0
 48 49  1  0
 48 50  1  0
 50 51  1  0
 14 52  1  6
 52 53  1  0
 52 54  1  0
 52 55  1  0
 14 56  1  0
 56 57  2  0
 56 58  1  0
 58 59  1  0
 59 60  1  0
 59 61  1  0
 59 62  1  0
  7 63  1  0
 63 64  1  0
 63 65  2  0
 65 66  1  0
 65  2  1  0
 58 12  1  0
 50 15  2  0
 30 21  1  0
 44 35  1  0
M  CHG  3  10   1  16  -1  31  -1
M  END
>  <UniqueID>  (27) 
23

>  <SMILES>  (27) 
CN1C(=O)[C@](C)(c2[n-]c(=NC(=O)c3ccccc3[N-]S(=O)(=O)c3ccccc3)ccc2F)O/C1=[NH+]\C(=O)c1ccccc1

>  <Energy>  (27) 
116.14309247711917

>  <Genealogy>  (27) 
CN1C(=O)C(C)(c2[n-]c(=NC(=O)c3ccccc3[N-]S(=O)(=O)c3ccccc3)ccc2F)OC1=[NH+]C(=O)c1ccccc1 (protonated)
CN1C(=O)[C@](C)(c2[n-]c(=NC(=O)c3ccccc3[N-]S(=O)(=O)c3ccccc3)ccc2F)OC1=[NH+]C(=O)c1ccccc1 (chirality)
CN1C(=O)[C@](C)(c2[n-]c(=NC(=O)c3ccccc3[N-]S(=O)(=O)c3ccccc3)ccc2F)O/C1=[NH+]\C(=O)c1ccccc1 (cis-trans isomerization)
CN1C(=O)[C@](C)(c2[n-]c(=NC(=O)c3ccccc3[N-]S(=O)(=O)c3ccccc3)ccc2F)O/C1=[NH+]\C(=O)c1ccccc1 (3D coordinates assigned)
CN1C(=O)[C@](C)(c2[n-]c(=NC(=O)c3ccccc3[N-]S(=O)(=O)c3ccccc3)ccc2F)O/C1=[NH+]\C(=O)c1ccccc1 (nonaromatic ring conformer: 116.14309247711917 kcal/mol)

>  <smiles>  (27) 
CN1C(=O)C(C)(c2[nH]c(=NC(=O)c3ccccc3NS(=O)(=O)c3ccccc3)ccc2F)OC1=NC(=O)c1ccccc1

>  <score_type>  (27) 
oracle

>  <origin>  (27) 
adg

>  <m_score__min__energy>  (27) 
-13.890000000000001

>  <m_primary>  (27) 
energy

$$$$
27:0
     RDKit          3D

 44 46  0  0  0  0  0  0  0  0999 V2000
   56.7080   24.8580   46.9860 C   0  0  0  0  0  0  0  0  0  0  0  0
   57.3400   25.9610   46.2520 N   0  0  0  0  0  0  0  0  0  0  0  0
   56.6100   27.0830   45.9650 C   0  0  0  0  0  0  0  0  0  0  0  0
   57.1890   28.1650   45.2790 C   0  0  0  0  0  0  0  0  0  0  0  0
   56.3990   29.3770   44.9580 C   0  0  0  0  0  0  0  0  0  0  0  0
   55.1450   29.2930   44.8640 O   0  0  0  0  0  0  0  0  0  0  0  0
   57.0230   30.6440   44.7050 N   0  0  0  0  0  0  0  0  0  0  0  0
   57.7820   31.4000   45.6580 C   0  0  0  0  0  0  0  0  0  0  0  0
   57.5250   32.7640   45.8830 C   0  0  0  0  0  0  0  0  0  0  0  0
   58.2650   33.4700   46.8340 C   0  0  0  0  0  0  0  0  0  0  0  0
   59.2670   32.8260   47.5720 C   0  0  0  0  0  0  0  0  0  0  0  0
   60.1470   33.7010   48.8280 S   0  0  0  0  0  0  0  0  0  0  0  0
   60.2440   32.8400   50.0570 O   0  0  0  0  0  0  0  0  0  0  0  0
   59.3870   34.9470   49.1920 O   0  0  0  0  0  0  0  0  0  0  0  0
   61.7540   34.1400   48.2960 N   0  0  0  0  0  0  0  0  0  0  0  0
   61.9050   33.8860   46.8490 C   0  0  0  0  0  0  0  0  0  0  0  0
   63.3900   33.7620   46.4720 C   0  0  0  0  0  0  0  0  0  0  0  0
   64.0690   32.7030   47.1360 O   0  0  0  0  0  0  0  0  0  0  0  0
   63.4670   32.3150   48.3630 C   0  0  0  0  0  0  0  0  0  0  0  0
   62.8010   33.4840   49.1100 C   0  0  0  0  0  0  0  0  0  0  0  0
   59.5490   31.4770   47.3180 C   0  0  0  0  0  0  0  0  0  0  0  0
   58.8160   30.7720   46.3600 C   0  0  0  0  0  0  0  0  0  0  0  0
   58.5410   28.0900   44.9290 C   0  0  0  0  0  0  0  0  0  0  0  0
   59.2790   26.9490   45.2380 C   0  0  0  0  0  0  0  0  0  0  0  0
   58.6650   25.8870   45.9050 C   0  0  0  0  0  0  0  0  0  0  0  0
   59.3470   24.8630   46.1870 O   0  0  0  0  0  0  0  0  0  0  0  0
   56.8079   25.0324   48.0675 H   0  0  0  0  0  0  0  0  0  0  0  0
   55.6419   24.8040   46.7203 H   0  0  0  0  0  0  0  0  0  0  0  0
   57.2005   23.9110   46.7203 H   0  0  0  0  0  0  0  0  0  0  0  0
   55.5562   27.1387   46.2753 H   0  0  0  0  0  0  0  0  0  0  0  0
   56.7391   33.2763   45.3085 H   0  0  0  0  0  0  0  0  0  0  0  0
   58.0602   34.5372   47.0046 H   0  0  0  0  0  0  0  0  0  0  0  0
   61.3873   32.9505   46.5905 H   0  0  0  0  0  0  0  0  0  0  0  0
   61.4681   34.7293   46.2941 H   0  0  0  0  0  0  0  0  0  0  0  0
   63.4584   33.5906   45.3876 H   0  0  0  0  0  0  0  0  0  0  0  0
   63.8769   34.6976   46.7845 H   0  0  0  0  0  0  0  0  0  0  0  0
   62.7012   31.5543   48.1511 H   0  0  0  0  0  0  0  0  0  0  0  0
   64.2673   31.9278   49.0108 H   0  0  0  0  0  0  0  0  0  0  0  0
   62.3436   33.1001   50.0338 H   0  0  0  0  0  0  0  0  0  0  0  0
   63.5772   34.2317   49.3300 H   0  0  0  0  0  0  0  0  0  0  0  0
   60.3510   30.9709   47.8753 H   0  0  0  0  0  0  0  0  0  0  0  0
   59.0534   29.7173   46.1567 H   0  0  0  0  0  0  0  0  0  0  0  0
   59.0220   28.9320   44.4096 H   0  0  0  0  0  0  0  0  0  0  0  0
   60.3408   26.8852   44.9576 H   0  0  0  0  0  0  0  0  0  0  0  0
  1  2  1  0
  2  3  1  0
  3  4  2  0
  4  5  1  0
  5  6  2  0
  5  7  1  0
  7  8  1  0
  8  9  2  0
  9 10  1  0
 10 11  2  0
 11 12  1  0
 12 13  2  0
 12 14  2  0
 12 15  1  0
 15 16  1  0
 16 17  1  0
 17 18  1  0
 18 19  1  0
 19 20  1  0
 11 21  1  0
 21 22  2  0
  4 23  1  0
 23 24  2  0
 24 25  1  0
 25 26  2  0
 25  2  1  0
 22  8  1  0
 20 15  1  0
  1 27  1  0
  1 28  1  0
  1 29  1  0
  3 30  1  0
  9 31  1  0
 10 32  1  0
 16 33  1  0
 16 34  1  0
 17 35  1  0
 17 36  1  0
 19 37  1  0
 19 38  1  0
 20 39  1  0
 20 40  1  0
 21 41  1  0
 22 42  1  0
 23 43  1  0
 24 44  1  0
M  CHG  1   7  -1
M  END
>  <UniqueID>  (28) 
24

>  <SMILES>  (28) 
Cn1cc(C(=O)[N-]c2ccc(S(=O)(=O)N3CCOCC3)cc2)ccc1=O

>  <Energy>  (28) 
64.22620277417246

>  <Genealogy>  (28) 
Cn1cc(C(=O)[N-]c2ccc(S(=O)(=O)N3CCOCC3)cc2)ccc1=O (protonated)
Cn1cc(C(=O)[N-]c2ccc(S(=O)(=O)N3CCOCC3)cc2)ccc1=O (3D coordinates assigned)
Cn1cc(C(=O)[N-]c2ccc(S(=O)(=O)N3CCOCC3)cc2)ccc1=O (nonaromatic ring conformer: 64.22620277417246 kcal/mol)

>  <smiles>  (28) 
Cn1cc(C(=O)Nc2ccc(S(=O)(=O)N3CCOCC3)cc2)ccc1=O

>  <score_type>  (28) 
oracle

>  <origin>  (28) 
adg

>  <m_score__min__energy>  (28) 
-9.8900000000000006

>  <m_primary>  (28) 
energy

$$$$
28:0
     RDKit          3D

 69 72  0  0  0  0  0  0  0  0999 V2000
   60.0940   28.9490   44.8510 C   0  0  0  0  0  0  0  0  0  0  0  0
   59.5820   28.5530   46.2150 C   0  0  0  0  0  0  0  0  0  0  0  0
   60.3920   28.2830   47.2030 N   0  0  0  0  0  0  0  0  0  0  0  0
   60.0830   27.5680   48.4090 C   0  0  0  0  0  0  0  0  0  0  0  0
   59.9660   26.3160   48.3560 O   0  0  0  0  0  0  0  0  0  0  0  0
   59.9420   28.2830   49.7310 C   0  0  0  0  0  0  0  0  0  0  0  0
   60.0330   29.7800   49.5770 C   0  0  0  0  0  0  0  0  0  0  0  0
   58.9490   30.5110   49.0690 C   0  0  0  0  0  0  0  0  0  0  0  0
   59.0360   31.9060   48.9190 C   0  0  0  0  0  0  0  0  0  0  0  0
   57.8470   32.6870   48.4150 C   0  0  0  0  0  0  0  0  0  0  0  0
   57.7320   32.5730   46.9470 N   0  0  0  0  0  0  0  0  0  0  0  0
   58.9720   32.0250   46.3570 C   0  0  0  0  0  0  0  0  0  0  0  0
   58.7730   31.7040   44.8620 C   0  0  0  0  0  0  0  0  0  0  0  0
   57.5960   32.4760   44.2460 C   0  0  0  0  0  0  0  0  0  0  0  0
   57.5210   33.8970   44.8150 C   0  0  0  0  0  0  0  0  0  0  0  0
   57.4190   33.8950   46.3570 C   0  0  0  0  0  0  0  0  0  0  0  0
   60.2270   32.5690   49.2730 C   0  0  0  0  0  0  0  0  0  0  0  0
   60.3220   33.9520   49.1310 O   0  0  0  0  0  0  0  0  0  0  0  0
   61.3190   31.8410   49.7780 C   0  0  0  0  0  0  0  0  0  0  0  0
   62.5640   32.5530   50.2470 C   0  0  0  0  0  0  0  0  0  0  0  0
   63.4330   32.8820   49.1000 N   0  0  0  0  0  0  0  0  0  0  0  0
   63.0580   34.1580   48.4790 C   0  0  0  0  0  0  0  0  0  0  0  0
   63.3100   34.0330   46.9780 C   0  0  0  0  0  0  0  0  0  0  0  0
   63.7360   32.5960   46.7520 C   0  0  0  0  0  0  0  0  0  0  0  0
   63.3620   31.8800   48.0310 C   0  0  0  0  0  0  0  0  0  0  0  0
   61.2160   30.4490   49.9220 C   0  0  0  0  0  0  0  0  0  0  0  0
   58.1260   28.4770   46.4570 C   0  0  0  0  0  0  0  0  0  0  0  0
   57.4100   29.4930   46.2470 O   0  0  0  0  0  0  0  0  0  0  0  0
   57.5470   27.2490   46.9370 N   0  0  0  0  0  0  0  0  0  0  0  0
   56.9040   26.3470   46.2560 C   0  0  0  0  0  0  0  0  0  0  0  0
   55.5680   26.1890   46.3700 N   0  0  0  0  0  0  0  0  0  0  0  0
   55.0850   25.2150   45.6020 N   0  0  0  0  0  0  0  0  0  0  0  0
   56.0360   24.5940   44.8720 C   0  0  0  0  0  0  0  0  0  0  0  0
   55.6980   23.2770   43.7660 S   0  0  0  0  0  0  0  0  0  0  0  0
   55.9170   21.7660   44.5780 N   0  0  0  0  0  0  0  0  0  0  0  0
   56.6320   23.3610   42.5920 O   0  0  0  0  0  0  0  0  0  0  0  0
   54.2820   23.3840   43.2750 O   0  0  0  0  0  0  0  0  0  0  0  0
   57.5630   25.2460   45.1540 S   0  0  0  0  0  0  0  0  0  0  0  0
   60.9595   29.6184   44.9644 H   0  0  0  0  0  0  0  0  0  0  0  0
   60.3973   28.0481   44.2974 H   0  0  0  0  0  0  0  0  0  0  0  0
   59.2983   29.4690   44.2974 H   0  0  0  0  0  0  0  0  0  0  0  0
   58.9652   28.0299   50.1690 H   0  0  0  0  0  0  0  0  0  0  0  0
   60.7668   27.9581   50.3822 H   0  0  0  0  0  0  0  0  0  0  0  0
   58.0234   29.9885   48.7857 H   0  0  0  0  0  0  0  0  0  0  0  0
   56.9319   32.2922   48.8807 H   0  0  0  0  0  0  0  0  0  0  0  0
   57.9824   33.7465   48.6780 H   0  0  0  0  0  0  0  0  0  0  0  0
   59.7790   32.7650   46.4624 H   0  0  0  0  0  0  0  0  0  0  0  0
   59.2324   31.0958   46.8850 H   0  0  0  0  0  0  0  0  0  0  0  0
   59.6919   31.9695   44.3188 H   0  0  0  0  0  0  0  0  0  0  0  0
   58.5492   30.6303   44.7776 H   0  0  0  0  0  0  0  0  0  0  0  0
   57.7314   32.5306   43.1557 H   0  0  0  0  0  0  0  0  0  0  0  0
   56.6619   31.9486   44.4894 H   0  0  0  0  0  0  0  0  0  0  0  0
   58.4266   34.4469   44.5191 H   0  0  0  0  0  0  0  0  0  0  0  0
   56.6166   34.3778   44.4139 H   0  0  0  0  0  0  0  0  0  0  0  0
   58.1263   34.6360   46.7578 H   0  0  0  0  0  0  0  0  0  0  0  0
   56.3801   34.1407   46.6224 H   0  0  0  0  0  0  0  0  0  0  0  0
   62.2778   33.4815   50.7626 H   0  0  0  0  0  0  0  0  0  0  0  0
   63.1147   31.8931   50.9335 H   0  0  0  0  0  0  0  0  0  0  0  0
   61.9941   34.3671   48.6645 H   0  0  0  0  0  0  0  0  0  0  0  0
   63.6502   34.9825   48.9027 H   0  0  0  0  0  0  0  0  0  0  0  0
   62.3911   34.2537   46.4151 H   0  0  0  0  0  0  0  0  0  0  0  0
   64.0771   34.7427   46.6346 H   0  0  0  0  0  0  0  0  0  0  0  0
   63.2008   32.1629   45.8941 H   0  0  0  0  0  0  0  0  0  0  0  0
   64.8089   32.5103   46.5251 H   0  0  0  0  0  0  0  0  0  0  0  0
   62.3422   31.4745   47.9562 H   0  0  0  0  0  0  0  0  0  0  0  0
   64.0388   31.0357   48.2290 H   0  0  0  0  0  0  0  0  0  0  0  0
   62.0719   29.8769   50.3094 H   0  0  0  0  0  0  0  0  0  0  0  0
   56.8660   21.4170   44.3180 H   0  0  0  0  0  0  0  0  0  0  0  0
   55.9390   21.9720   45.6020 H   0  0  0  0  0  0  0  0  0  0  0  0
  1  2  1  0
  2  3  2  3
  3  4  1  0
  4  5  2  0
  4  6  1  0
  6  7  1  0
  7  8  2  0
  8  9  1  0
  9 10  1  0
 10 11  1  0
 11 12  1  0
 12 13  1  0
 13 14  1  0
 14 15  1  0
 15 16  1  0
  9 17  2  0
 17 18  1  0
 17 19  1  0
 19 20  1  0
 20 21  1  0
 21 22  1  0
 22 23  1  0
 23 24  1  0
 24 25  1  0
 19 26  2  0
  2 27  1  0
 27 28  2  0
 27 29  1  0
 29 30  2  3
 30 31  1  0
 31 32  1  0
 32 33  2  0
 33 34  1  0
 34 35  1  0
 34 36  2  0
 34 37  2  0
 33 38  1  0
 26  7  1  0
 38 30  1  0
 16 11  1  0
 25 21  1  0
  1 39  1  0
  1 40  1  0
  1 41  1  0
  6 42  1  0
  6 43  1  0
  8 44  1  0
 10 45  1  0
 10 46  1  0
 12 47  1  0
 12 48  1  0
 13 49  1  0
 13 50  1  0
 14 51  1  0
 14 52  1  0
 15 53  1  0
 15 54  1  0
 16 55  1  0
 16 56  1  0
 20 57  1  0
 20 58  1  0
 22 59  1  0
 22 60  1  0
 23 61  1  0
 23 62  1  0
 24 63  1  0
 24 64  1  0
 25 65  1  0
 25 66  1  0
 26 67  1  0
 35 68  1  0
 35 69  1  0
M  CHG  2  18  -1  31  -1
M  END
>  <UniqueID>  (29) 
25

>  <SMILES>  (29) 
CC(=NC(=O)Cc1cc(CN2CCCCC2)c([O-])c(CN2CCCC2)c1)C(=O)N=c1[n-]nc(S(N)(=O)=O)s1

>  <Energy>  (29) 
119.2863965739394

>  <Genealogy>  (29) 
CC(=NC(=O)Cc1cc(CN2CCCCC2)c([O-])c(CN2CCCC2)c1)C(=O)N=c1[n-]nc(S(N)(=O)=O)s1 (protonated)
CC(=NC(=O)Cc1cc(CN2CCCCC2)c([O-])c(CN2CCCC2)c1)C(=O)N=c1[n-]nc(S(N)(=O)=O)s1 (3D coordinates assigned)
CC(=NC(=O)Cc1cc(CN2CCCCC2)c([O-])c(CN2CCCC2)c1)C(=O)N=c1[n-]nc(S(N)(=O)=O)s1 (nonaromatic ring conformer: 119.2863965739394 kcal/mol)

>  <smiles>  (29) 
CC(=NC(=O)Cc1cc(CN2CCCCC2)c(O)c(CN2CCCC2)c1)C(=O)N=c1[nH]nc(S(N)(=O)=O)s1

>  <score_type>  (29) 
oracle

>  <origin>  (29) 
adg

>  <m_score__min__energy>  (29) 
-13

>  <m_primary>  (29) 
energy

$$$$
29:0
     RDKit          3D

 46 47  0  0  0  0  0  0  0  0999 V2000
   58.7100   30.5560   46.1620 N   0  0  0  0  0  0  0  0  0  0  0  0
   59.0150   29.3380   46.8560 C   0  0  0  0  0  0  0  0  0  0  0  0
   60.0220   29.3560   47.8350 C   0  0  0  0  0  0  0  0  0  0  0  0
   60.3650   28.1920   48.5260 C   0  0  0  0  0  0  0  0  0  0  0  0
   59.7110   26.9940   48.2440 C   0  0  0  0  0  0  0  0  0  0  0  0
   58.7070   26.9570   47.2740 C   0  0  0  0  0  0  0  0  0  0  0  0
   58.3390   28.1220   46.5770 C   0  0  0  0  0  0  0  0  0  0  0  0
   57.0530   28.0290   45.3610 S   0  0  0  0  0  0  0  0  0  0  0  0
   56.0820   26.9560   45.7620 O   0  0  0  0  0  0  0  0  0  0  0  0
   57.6470   27.6870   44.0220 O   0  0  0  0  0  0  0  0  0  0  0  0
   56.1870   29.5360   45.2510 N   0  0  0  0  0  0  0  0  0  0  0  0
   55.6620   29.7530   43.9010 C   0  0  0  0  0  0  0  0  0  0  0  0
   56.6200   30.6330   43.0980 C   0  0  0  0  0  0  0  0  0  0  0  0
   57.3420   31.5850   43.9970 C   0  0  0  0  0  0  0  0  0  0  0  0
   58.6000   31.6610   43.9470 O   0  0  0  0  0  0  0  0  0  0  0  0
   56.6130   32.3660   44.9030 O   0  0  0  0  0  0  0  0  0  0  0  0
   57.2110   33.0670   45.9900 C   0  0  0  0  0  0  0  0  0  0  0  0
   58.3810   33.8750   45.5190 C   0  0  0  0  0  0  0  0  0  0  0  0
   58.1880   34.9260   44.8500 O   0  0  0  0  0  0  0  0  0  0  0  0
   59.7100   33.4420   45.8280 N   0  0  0  0  0  0  0  0  0  0  0  0
   60.6340   34.2030   46.6680 C   0  0  0  0  0  0  0  0  0  0  0  0
   60.0010   34.5160   48.0210 C   0  0  0  0  0  0  0  0  0  0  0  0
   60.3840   33.3700   48.9520 C   0  0  0  0  0  0  0  0  0  0  0  0
   61.4670   32.5600   48.2420 C   0  0  0  0  0  0  0  0  0  0  0  0
   61.8470   33.3470   46.9960 C   0  0  0  0  0  0  0  0  0  0  0  0
   57.7360   30.7510   45.8420 H   0  0  0  0  0  0  0  0  0  0  0  0
   59.4240   31.2900   45.9770 H   0  0  0  0  0  0  0  0  0  0  0  0
   60.5459   30.2968   48.0597 H   0  0  0  0  0  0  0  0  0  0  0  0
   61.1522   28.2207   49.2937 H   0  0  0  0  0  0  0  0  0  0  0  0
   59.9858   26.0770   48.7858 H   0  0  0  0  0  0  0  0  0  0  0  0
   58.1987   26.0069   47.0527 H   0  0  0  0  0  0  0  0  0  0  0  0
   55.5487   28.7830   43.3948 H   0  0  0  0  0  0  0  0  0  0  0  0
   54.6861   30.2556   43.9715 H   0  0  0  0  0  0  0  0  0  0  0  0
   57.3537   29.9937   42.5851 H   0  0  0  0  0  0  0  0  0  0  0  0
   56.0388   31.2109   42.3644 H   0  0  0  0  0  0  0  0  0  0  0  0
   56.4656   33.7392   46.4400 H   0  0  0  0  0  0  0  0  0  0  0  0
   57.5623   32.3353   46.7324 H   0  0  0  0  0  0  0  0  0  0  0  0
   60.8935   35.1192   46.1174 H   0  0  0  0  0  0  0  0  0  0  0  0
   60.3888   35.4686   48.4110 H   0  0  0  0  0  0  0  0  0  0  0  0
   58.9085   34.6129   47.9369 H   0  0  0  0  0  0  0  0  0  0  0  0
   60.7715   33.7681   49.9014 H   0  0  0  0  0  0  0  0  0  0  0  0
   59.5106   32.7416   49.1806 H   0  0  0  0  0  0  0  0  0  0  0  0
   62.3424   32.4393   48.8971 H   0  0  0  0  0  0  0  0  0  0  0  0
   61.1060   31.5538   47.9827 H   0  0  0  0  0  0  0  0  0  0  0  0
   62.7228   33.9821   47.1951 H   0  0  0  0  0  0  0  0  0  0  0  0
   62.1147   32.6830   46.1608 H   0  0  0  0  0  0  0  0  0  0  0  0
  1  2  1  0
  2  3  2  0
  3  4  1  0
  4  5  2  0
  5  6  1  0
  6  7  2  0
  7  8  1  0
  8  9  2  0
  8 10  2  0
  8 11  1  0
 11 12  1  0
 12 13  1  0
 13 14  1  0
 14 15  2  0
 14 16  1  0
 16 17  1  0
 17 18  1  0
 18 19  2  0
 18 20  1  0
 20 21  1  0
 21 22  1  0
 22 23  1  0
 23 24  1  0
 24 25  1  0
  7  2  1  0
 25 21  1  0
  1 26  1  0
  1 27  1  0
  3 28  1  0
  4 29  1  0
  5 30  1  0
  6 31  1  0
 12 32  1  0
 12 33  1  0
 13 34  1  0
 13 35  1  0
 17 36  1  0
 17 37  1  0
 21 38  1  0
 22 39  1  0
 22 40  1  0
 23 41  1  0
 23 42  1  0
 24 43  1  0
 24 44  1  0
 25 45  1  0
 25 46  1  0
M  CHG  2  11  -1  20  -1
M  END
>  <UniqueID>  (30) 
26

>  <SMILES>  (30) 
Nc1ccccc1S(=O)(=O)[N-]CCC(=O)OCC(=O)[N-]C1CCCC1

>  <Energy>  (30) 
39.088268190337004

>  <Genealogy>  (30) 
Nc1ccccc1S(=O)(=O)[N-]CCC(=O)OCC(=O)[N-]C1CCCC1 (protonated)
Nc1ccccc1S(=O)(=O)[N-]CCC(=O)OCC(=O)[N-]C1CCCC1 (3D coordinates assigned)
Nc1ccccc1S(=O)(=O)[N-]CCC(=O)OCC(=O)[N-]C1CCCC1 (nonaromatic ring conformer: 39.088268190337004 kcal/mol)

>  <smiles>  (30) 
Nc1ccccc1S(=O)(=O)NCCC(=O)OCC(=O)NC1CCCC1

>  <score_type>  (30) 
oracle

>  <origin>  (30) 
adg

>  <m_score__min__energy>  (30) 
-10.609999999999999

>  <m_primary>  (30) 
energy

$$$$
30:0
     RDKit          3D

 47 48  0  0  0  0  0  0  0  0999 V2000
   57.0850   25.1610   44.5650 C   0  0  0  0  0  0  0  0  0  0  0  0
   56.4270   25.6900   46.1300 S   0  0  0  0  0  0  0  0  0  0  0  0
   55.3800   24.7080   46.5750 O   0  0  0  0  0  0  0  0  0  0  0  0
   55.8170   27.0550   45.9750 O   0  0  0  0  0  0  0  0  0  0  0  0
   57.7110   25.7470   47.2910 N   0  0  0  0  0  0  0  0  0  0  0  0
   58.7000   26.7790   47.3420 C   0  0  0  0  0  0  0  0  0  0  0  0
   59.8950   26.4590   47.5800 O   0  0  0  0  0  0  0  0  0  0  0  0
   58.3560   28.1510   47.0850 N   0  0  0  0  0  0  0  0  0  0  0  0
   59.1900   29.2650   47.4510 C   0  0  0  0  0  0  0  0  0  0  0  0
   58.7890   30.1900   48.4310 C   0  0  0  0  0  0  0  0  0  0  0  0
   59.6090   31.2770   48.7530 C   0  0  0  0  0  0  0  0  0  0  0  0
   60.8300   31.4660   48.0870 C   0  0  0  0  0  0  0  0  0  0  0  0
   61.7290   32.6140   48.4610 C   0  0  0  0  0  0  0  0  0  0  0  0
   61.4040   33.8470   47.6240 C   0  0  0  0  0  0  0  0  0  0  0  0
   59.9930   34.0280   47.5730 O   0  0  0  0  0  0  0  0  0  0  0  0
   59.2630   33.9260   46.3850 C   0  0  0  0  0  0  0  0  0  0  0  0
   59.6230   34.5630   45.3570 O   0  0  0  0  0  0  0  0  0  0  0  0
   58.0990   33.0920   46.3480 N   0  0  0  0  0  0  0  0  0  0  0  0
   57.2810   32.9330   45.1490 C   0  0  0  0  0  0  0  0  0  0  0  0
   57.3350   31.5100   44.6610 C   0  0  0  0  0  0  0  0  0  0  0  0
   56.1520   30.8440   44.3000 C   0  0  0  0  0  0  0  0  0  0  0  0
   56.1960   29.5170   43.8610 C   0  0  0  0  0  0  0  0  0  0  0  0
   57.4190   28.8460   43.7820 C   0  0  0  0  0  0  0  0  0  0  0  0
   58.6010   29.5000   44.1440 C   0  0  0  0  0  0  0  0  0  0  0  0
   58.5620   30.8270   44.5830 C   0  0  0  0  0  0  0  0  0  0  0  0
   61.2240   30.5500   47.1000 C   0  0  0  0  0  0  0  0  0  0  0  0
   60.4030   29.4650   46.7770 C   0  0  0  0  0  0  0  0  0  0  0  0
   57.9320   24.4800   44.7347 H   0  0  0  0  0  0  0  0  0  0  0  0
   56.3022   24.6379   43.9961 H   0  0  0  0  0  0  0  0  0  0  0  0
   57.4278   26.0379   43.9961 H   0  0  0  0  0  0  0  0  0  0  0  0
   57.5050   28.3500   46.5150 H   0  0  0  0  0  0  0  0  0  0  0  0
   57.8264   30.0585   48.9468 H   0  0  0  0  0  0  0  0  0  0  0  0
   59.2951   31.9872   49.5322 H   0  0  0  0  0  0  0  0  0  0  0  0
   61.5868   32.8522   49.5254 H   0  0  0  0  0  0  0  0  0  0  0  0
   62.7727   32.3226   48.2716 H   0  0  0  0  0  0  0  0  0  0  0  0
   61.8710   34.7327   48.0794 H   0  0  0  0  0  0  0  0  0  0  0  0
   61.7931   33.7106   46.6042 H   0  0  0  0  0  0  0  0  0  0  0  0
   57.8150   32.5930   47.2210 H   0  0  0  0  0  0  0  0  0  0  0  0
   56.2391   33.1963   45.3837 H   0  0  0  0  0  0  0  0  0  0  0  0
   57.6703   33.5950   44.3615 H   0  0  0  0  0  0  0  0  0  0  0  0
   55.1871   31.3684   44.3629 H   0  0  0  0  0  0  0  0  0  0  0  0
   55.2668   29.0009   43.5776 H   0  0  0  0  0  0  0  0  0  0  0  0
   57.4522   27.8027   43.4349 H   0  0  0  0  0  0  0  0  0  0  0  0
   59.5628   28.9697   44.0833 H   0  0  0  0  0  0  0  0  0  0  0  0
   59.4934   31.3381   44.8681 H   0  0  0  0  0  0  0  0  0  0  0  0
   62.1827   30.6859   46.5781 H   0  0  0  0  0  0  0  0  0  0  0  0
   60.7113   28.7631   45.9881 H   0  0  0  0  0  0  0  0  0  0  0  0
  1  2  1  0
  2  3  2  0
  2  4  2  0
  2  5  1  0
  5  6  1  0
  6  7  2  0
  6  8  1  0
  8  9  1  0
  9 10  2  0
 10 11  1  0
 11 12  2  0
 12 13  1  0
 13 14  1  0
 14 15  1  0
 15 16  1  0
 16 17  2  0
 16 18  1  0
 18 19  1  0
 19 20  1  0
 20 21  2  0
 21 22  1  0
 22 23  2  0
 23 24  1  0
 24 25  2  0
 12 26  1  0
 26 27  2  0
 27  9  1  0
 25 20  1  0
  1 28  1  0
  1 29  1  0
  1 30  1  0
  8 31  1  0
 10 32  1  0
 11 33  1  0
 13 34  1  0
 13 35  1  0
 14 36  1  0
 14 37  1  0
 18 38  1  0
 19 39  1  0
 19 40  1  0
 21 41  1  0
 22 42  1  0
 23 43  1  0
 24 44  1  0
 25 45  1  0
 26 46  1  0
 27 47  1  0
M  CHG  1   5  -1
M  END
>  <UniqueID>  (31) 
27

>  <SMILES>  (31) 
CS(=O)(=O)[N-]C(=O)Nc1ccc(CCOC(=O)NCc2ccccc2)cc1

>  <Energy>  (31) 
40.51541309659708

>  <Genealogy>  (31) 
CS(=O)(=O)[N-]C(=O)Nc1ccc(CCOC(=O)NCc2ccccc2)cc1 (protonated)
CS(=O)(=O)[N-]C(=O)Nc1ccc(CCOC(=O)NCc2ccccc2)cc1 (3D coordinates assigned)
CS(=O)(=O)[N-]C(=O)Nc1ccc(CCOC(=O)NCc2ccccc2)cc1 (optimized conformer: 40.51541309659708 kcal/mol)

>  <smiles>  (31) 
CS(=O)(=O)NC(=O)Nc1ccc(CCOC(=O)NCc2ccccc2)cc1

>  <score_type>  (31) 
oracle

>  <origin>  (31) 
adg

>  <m_score__min__energy>  (31) 
-10.57

>  <m_primary>  (31) 
energy

$$$$
31:0
     RDKit          3D

 74 78  0  0  0  0  0  0  0  0999 V2000
   56.7696   29.6770   41.9301 H   0  0  0  0  0  0  0  0  0  0  0  0
   56.9290   29.9020   42.9950 C   0  0  0  0  0  0  0  0  0  0  0  0
   56.6610   31.1470   43.4730 N   0  0  0  0  0  0  0  0  0  0  0  0
   56.8680   31.4490   44.7840 C   0  0  0  0  0  0  0  0  0  0  0  0
   56.5200   32.6170   45.2440 N   0  0  0  0  0  0  0  0  0  0  0  0
   57.4400   33.7130   45.3450 C   0  0  0  0  0  0  0  0  0  0  0  0
   57.2340   34.7590   44.6700 O   0  0  0  0  0  0  0  0  0  0  0  0
   58.6750   33.5810   46.1460 C   0  0  0  0  0  0  0  0  0  0  0  0
   58.5960   33.2290   47.5030 C   0  0  0  0  0  0  0  0  0  0  0  0
   57.6220   32.9739   47.9460 H   0  0  0  0  0  0  0  0  0  0  0  0
   59.7450   33.2010   48.2920 C   0  0  0  0  0  0  0  0  0  0  0  0
   59.6686   32.9510   49.3605 H   0  0  0  0  0  0  0  0  0  0  0  0
   60.9990   33.4900   47.7310 C   0  0  0  0  0  0  0  0  0  0  0  0
   62.2100   33.4520   48.5760 C   0  0  0  0  0  0  0  0  0  0  0  0
   63.3610   32.7870   48.1300 C   0  0  0  0  0  0  0  0  0  0  0  0
   63.3536   32.2734   47.1573 H   0  0  0  0  0  0  0  0  0  0  0  0
   64.5170   32.7730   48.9140 C   0  0  0  0  0  0  0  0  0  0  0  0
   65.4041   32.2224   48.5679 H   0  0  0  0  0  0  0  0  0  0  0  0
   64.5560   33.4570   50.1420 C   0  0  0  0  0  0  0  0  0  0  0  0
   65.8180   33.4700   50.9840 C   0  0  0  0  0  0  0  0  0  0  0  0
   65.7950   34.3613   51.6283 H   0  0  0  0  0  0  0  0  0  0  0  0
   66.6674   33.4750   50.2850 H   0  0  0  0  0  0  0  0  0  0  0  0
   65.9790   32.2730   51.8480 N   0  0  0  0  0  0  0  0  0  0  0  0
   66.1920   31.0150   51.0960 C   0  0  0  0  0  0  0  0  0  0  0  0
   67.2032   31.0208   50.6631 H   0  0  0  0  0  0  0  0  0  0  0  0
   65.4346   30.9478   50.3011 H   0  0  0  0  0  0  0  0  0  0  0  0
   66.0460   29.7920   52.0200 C   0  0  0  0  0  0  0  0  0  0  0  0
   66.8049   29.8556   52.8138 H   0  0  0  0  0  0  0  0  0  0  0  0
   66.1811   28.8887   51.4069 H   0  0  0  0  0  0  0  0  0  0  0  0
   64.6990   29.7180   52.6500 N   0  0  0  0  0  0  0  0  0  0  0  0
   63.8450   28.7250   51.9780 C   0  0  0  0  0  0  0  0  0  0  0  0
   63.3236   28.1187   52.7333 H   0  0  0  0  0  0  0  0  0  0  0  0
   63.1057   29.2428   51.3493 H   0  0  0  0  0  0  0  0  0  0  0  0
   64.4676   28.0715   51.3493 H   0  0  0  0  0  0  0  0  0  0  0  0
   64.0030   31.0230   52.7340 C   0  0  0  0  0  0  0  0  0  0  0  0
   63.2924   30.9965   53.5732 H   0  0  0  0  0  0  0  0  0  0  0  0
   63.4774   31.1974   51.7836 H   0  0  0  0  0  0  0  0  0  0  0  0
   64.9960   32.1730   52.9560 C   0  0  0  0  0  0  0  0  0  0  0  0
   65.5372   31.9995   53.8978 H   0  0  0  0  0  0  0  0  0  0  0  0
   64.4272   33.1137   52.9949 H   0  0  0  0  0  0  0  0  0  0  0  0
   63.3970   34.1110   50.5950 C   0  0  0  0  0  0  0  0  0  0  0  0
   63.4071   34.6337   51.5628 H   0  0  0  0  0  0  0  0  0  0  0  0
   62.2320   34.1010   49.8230 C   0  0  0  0  0  0  0  0  0  0  0  0
   61.3266   34.6041   50.1934 H   0  0  0  0  0  0  0  0  0  0  0  0
   61.0870   33.8110   46.3680 C   0  0  0  0  0  0  0  0  0  0  0  0
   62.0685   34.0163   45.9156 H   0  0  0  0  0  0  0  0  0  0  0  0
   59.9310   33.8710   45.5820 C   0  0  0  0  0  0  0  0  0  0  0  0
   60.0044   34.1458   44.5194 H   0  0  0  0  0  0  0  0  0  0  0  0
   57.3590   30.4970   45.6240 N   0  0  0  0  0  0  0  0  0  0  0  0
   57.6320   29.2350   45.1990 C   0  0  0  0  0  0  0  0  0  0  0  0
   58.0700   28.2480   46.1540 N   0  0  0  0  0  0  0  0  0  0  0  0
   57.3720   27.0500   46.4530 C   0  0  0  0  0  0  0  0  0  0  0  0
   56.1560   26.8490   46.1880 O   0  0  0  0  0  0  0  0  0  0  0  0
   58.1820   26.0810   46.9990 O   0  0  0  0  0  0  0  0  0  0  0  0
   59.5230   26.5460   47.0450 C   0  0  0  0  0  0  0  0  0  0  0  0
   59.9138   26.4886   48.0716 H   0  0  0  0  0  0  0  0  0  0  0  0
   60.1858   25.9369   46.4128 H   0  0  0  0  0  0  0  0  0  0  0  0
   59.4720   28.0370   46.5620 C   0  0  2  0  0  0  0  0  0  0  0  0
   60.1817   28.2025   45.7380 H   0  0  0  0  0  0  0  0  0  0  0  0
   59.9480   29.0860   47.6430 C   0  0  0  0  0  0  0  0  0  0  0  0
   58.7520   29.8490   48.2580 C   0  0  0  0  0  0  0  0  0  0  0  0
   58.8161   29.8081   49.3554 H   0  0  0  0  0  0  0  0  0  0  0  0
   58.7776   30.8980   47.9281 H   0  0  0  0  0  0  0  0  0  0  0  0
   57.8115   29.3837   47.9281 H   0  0  0  0  0  0  0  0  0  0  0  0
   60.7320   28.3750   48.7730 C   0  0  0  0  0  0  0  0  0  0  0  0
   60.3570   28.7151   49.7496 H   0  0  0  0  0  0  0  0  0  0  0  0
   60.5947   27.2871   48.6861 H   0  0  0  0  0  0  0  0  0  0  0  0
   61.8014   28.6177   48.6861 H   0  0  0  0  0  0  0  0  0  0  0  0
   60.9110   30.1170   47.0090 C   0  0  0  0  0  0  0  0  0  0  0  0
   61.4295   30.6721   47.8047 H   0  0  0  0  0  0  0  0  0  0  0  0
   61.6506   29.5930   46.3857 H   0  0  0  0  0  0  0  0  0  0  0  0
   60.3378   30.8191   46.3857 H   0  0  0  0  0  0  0  0  0  0  0  0
   57.4060   28.9090   43.8530 C   0  0  0  0  0  0  0  0  0  0  0  0
   57.6006   27.8921   43.4814 H   0  0  0  0  0  0  0  0  0  0  0  0
  1  2  1  0
  2  3  1  0
  3  4  1  0
  4  5  2  0
  5  6  1  0
  6  7  2  0
  6  8  1  0
  8  9  2  0
  9 10  1  0
  9 11  1  0
 11 12  1  0
 11 13  2  0
 13 14  1  0
 14 15  2  0
 15 16  1  0
 15 17  1  0
 17 18  1  0
 17 19  2  0
 19 20  1  0
 20 21  1  0
 20 22  1  0
 20 23  1  0
 23 24  1  0
 24 25  1  0
 24 26  1  0
 24 27  1  0
 27 28  1  0
 27 29  1  0
 27 30  1  0
 30 31  1  0
 31 32  1  0
 31 33  1  0
 31 34  1  0
 30 35  1  0
 35 36  1  0
 35 37  1  0
 35 38  1  0
 38 39  1  0
 38 40  1  0
 19 41  1  0
 41 42  1  0
 41 43  2  0
 43 44  1  0
 13 45  1  0
 45 46  1  0
 45 47  2  0
 47 48  1  0
  4 49  1  0
 49 50  2  0
 50 51  1  0
 51 52  1  0
 52 53  2  0
 52 54  1  0
 54 55  1  0
 55 56  1  0
 55 57  1  0
 55 58  1  0
 58 59  1  6
 58 60  1  0
 60 61  1  0
 61 62  1  0
 61 63  1  0
 61 64  1  0
 60 65  1  0
 65 66  1  0
 65 67  1  0
 65 68  1  0
 60 69  1  0
 69 70  1  0
 69 71  1  0
 69 72  1  0
 50 73  1  0
 73 74  1  0
 73  2  2  0
 47  8  1  0
 58 51  1  0
 43 14  1  0
 38 23  1  0
M  CHG  1   3  -1
M  END
>  <UniqueID>  (32) 
28

>  <SMILES>  (32) 
CN1CCN(Cc2ccc(-c3ccc(C(=O)/N=c4\nc(N5C(=O)OC[C@@H]5C(C)(C)C)cc[n-]4)cc3)cc2)CC1

>  <Energy>  (32) 
124.56972465771584

>  <Genealogy>  (32) 
CN1CCN(Cc2ccc(-c3ccc(C(=O)N=c4nc(N5C(=O)OCC5C(C)(C)C)cc[n-]4)cc3)cc2)CC1 (protonated)
CN1CCN(Cc2ccc(-c3ccc(C(=O)N=c4nc(N5C(=O)OC[C@@H]5C(C)(C)C)cc[n-]4)cc3)cc2)CC1 (chirality)
CN1CCN(Cc2ccc(-c3ccc(C(=O)/N=c4\nc(N5C(=O)OC[C@@H]5C(C)(C)C)cc[n-]4)cc3)cc2)CC1 (cis-trans isomerization)
CN1CCN(Cc2ccc(-c3ccc(C(=O)/N=c4\nc(N5C(=O)OC[C@@H]5C(C)(C)C)cc[n-]4)cc3)cc2)CC1 (3D coordinates assigned)
CN1CCN(Cc2ccc(-c3ccc(C(=O)/N=c4\nc(N5C(=O)OC[C@@H]5C(C)(C)C)cc[n-]4)cc3)cc2)CC1 (nonaromatic ring conformer: 124.56972465771584 kcal/mol)

>  <smiles>  (32) 
CN1CCN(Cc2ccc(-c3ccc(C(=O)N=c4nc(N5C(=O)OCC5C(C)(C)C)cc[nH]4)cc3)cc2)CC1

>  <score_type>  (32) 
oracle

>  <origin>  (32) 
adg

>  <m_score__min__energy>  (32) 
-11.789999999999999

>  <m_primary>  (32) 
energy

$$$$
32:0
     RDKit          3D

 53 56  0  0  1  0  0  0  0  0999 V2000
   56.2720   27.8340   45.4650 N   0  0  0  0  0  0  0  0  0  0  0  0
   56.6000   29.1870   45.2080 C   0  0  0  0  0  0  0  0  0  0  0  0
   55.8090   29.9700   44.6060 O   0  0  0  0  0  0  0  0  0  0  0  0
   57.8760   29.7880   45.6170 C   0  0  0  0  0  0  0  0  0  0  0  0
   58.9260   28.9640   46.0000 C   0  0  0  0  0  0  0  0  0  0  0  0
   60.1290   29.5530   46.3750 C   0  0  0  0  0  0  0  0  0  0  0  0
   60.2900   30.9190   46.3690 C   0  0  0  0  0  0  0  0  0  0  0  0
   59.2540   31.7560   45.9890 C   0  0  0  0  0  0  0  0  0  0  0  0
   59.4280   33.1380   45.9780 C   0  0  0  0  0  0  0  0  0  0  0  0
   60.5530   33.6240   46.3350 N   0  0  0  0  0  0  0  0  0  0  0  0
   60.6670   34.3440   47.5880 C   0  0  0  0  0  0  0  0  0  0  0  0
   60.4270   33.3840   48.7030 C   0  0  0  0  0  0  0  0  0  0  0  0
   61.4280   32.4710   48.9590 C   0  0  0  0  0  0  0  0  0  0  0  0
   61.3250   31.5180   49.9760 C   0  0  0  0  0  0  0  0  0  0  0  0
   60.1430   31.5720   50.6970 C   0  0  0  0  0  0  0  0  0  0  0  0
   59.1470   32.4840   50.4440 C   0  0  0  0  0  0  0  0  0  0  0  0
   58.0140   32.5110   51.2460 N   0  0  0  0  0  0  0  0  0  0  0  0
   57.3030   31.2370   51.5780 C   0  0  0  0  0  0  0  0  0  0  0  0
   57.6840   30.1730   51.2060 O   0  0  0  0  0  0  0  0  0  0  0  0
   56.1690   31.6900   52.3830 N   0  0  0  0  0  0  0  0  0  0  0  0
   55.4860   30.1520   52.5500 C   0  0  0  0  0  0  0  0  0  0  0  0
   55.9680   29.2460   52.0080 O   0  0  0  0  0  0  0  0  0  0  0  0
   54.3220   30.1050   53.3850 C   0  0  0  0  0  0  0  0  0  0  0  0
   53.1050   30.1240   52.6720 C   0  0  0  0  0  0  0  0  0  0  0  0
   51.9120   30.0930   53.3470 C   0  0  0  0  0  0  0  0  0  0  0  0
   51.8400   30.0430   54.7200 C   0  0  0  0  0  0  0  0  0  0  0  0
   53.0190   30.0250   55.4310 C   0  0  0  0  0  0  0  0  0  0  0  0
   54.2410   30.0580   54.7310 C   0  0  0  0  0  0  0  0  0  0  0  0
   55.3350   30.0080   55.5200 F   0  0  0  0  0  0  0  0  0  0  0  0
   59.2730   33.4000   49.4450 C   0  0  0  0  0  0  0  0  0  0  0  0
   58.3970   33.9260   45.5950 N   0  0  0  0  0  0  0  0  0  0  0  0
   57.2090   33.3440   45.2280 C   0  0  0  0  0  0  0  0  0  0  0  0
   57.0670   32.0100   45.2480 N   0  0  0  0  0  0  0  0  0  0  0  0
   58.0500   31.1750   45.6170 C   0  0  0  0  0  0  0  0  0  0  0  0
   56.3290   27.1940   44.6170 H   0  0  0  0  0  0  0  0  0  0  0  0
   55.9970   27.4740   46.4030 H   0  0  0  0  0  0  0  0  0  0  0  0
   58.8091   27.8703   46.0067 H   0  0  0  0  0  0  0  0  0  0  0  0
   60.9691   28.9130   46.6828 H   0  0  0  0  0  0  0  0  0  0  0  0
   61.2550   31.3527   46.6702 H   0  0  0  0  0  0  0  0  0  0  0  0
   61.6749   34.7752   47.6789 H   0  0  0  0  0  0  0  0  0  0  0  0
   59.9299   35.1596   47.6249 H   0  0  0  0  0  0  0  0  0  0  0  0
   62.3384   32.4935   48.3420 H   0  0  0  0  0  0  0  0  0  0  0  0
   62.1175   30.7849   50.1869 H   0  0  0  0  0  0  0  0  0  0  0  0
   59.9947   30.8488   51.5125 H   0  0  0  0  0  0  0  0  0  0  0  0
   57.5950   33.4100   51.6550 H   0  0  0  0  0  0  0  0  0  0  0  0
   55.5300   31.9460   52.8360 H   0  0  0  0  0  0  0  0  0  0  0  0
   53.1131   30.1638   51.5727 H   0  0  0  0  0  0  0  0  0  0  0  0
   50.9765   30.1087   52.7686 H   0  0  0  0  0  0  0  0  0  0  0  0
   50.8683   30.0181   55.2350 H   0  0  0  0  0  0  0  0  0  0  0  0
   53.0068   29.9854   56.5302 H   0  0  0  0  0  0  0  0  0  0  0  0
   58.4756   34.1293   49.2393 H   0  0  0  0  0  0  0  0  0  0  0  0
   58.4860   34.9760   45.5680 H   0  0  0  0  0  0  0  0  0  0  0  0
   56.3658   33.9772   44.9147 H   0  0  0  0  0  0  0  0  0  0  0  0
  1  2  1  0
  2  3  2  0
  2  4  1  0
  4  5  2  0
  5  6  1  0
  6  7  2  0
  7  8  1  0
  8  9  1  0
  9 10  2  0
 10 11  1  0
 11 12  1  0
 12 13  2  0
 13 14  1  0
 14 15  2  0
 15 16  1  0
 16 17  1  0
 17 18  1  0
 18 19  2  0
 18 20  1  0
 20 21  1  0
 21 22  2  0
 21 23  1  0
 23 24  2  0
 24 25  1  0
 25 26  2  0
 26 27  1  0
 27 28  2  0
 28 29  1  0
 16 30  2  0
  9 31  1  0
 31 32  1  0
 32 33  2  0
 33 34  1  0
 34  4  1  0
 34  8  2  0
 30 12  1  0
 28 23  1  0
  1 35  1  0
  1 36  1  0
  5 37  1  0
  6 38  1  0
  7 39  1  0
 11 40  1  0
 11 41  1  0
 13 42  1  0
 14 43  1  0
 15 44  1  0
 17 45  1  0
 20 46  1  0
 24 47  1  0
 25 48  1  0
 26 49  1  0
 27 50  1  0
 30 51  1  0
 31 52  1  0
 32 53  1  0
M  END
>  <smiles>  (33) 
NC(=O)c1cccc2c(=NCc3cccc(NC(=O)NC(=O)c4ccccc4F)c3)[nH]cnc12

>  <score_type>  (33) 
oracle

>  <origin>  (33) 
adg

>  <m_score__min__energy>  (33) 
-9.5199999999999996

>  <m_primary>  (33) 
energy

$$$$
33:0
     RDKit          3D

 60 65  0  0  0  0  0  0  0  0999 V2000
   53.3745   32.0216   52.8116 H   0  0  0  0  0  0  0  0  0  0  0  0
   53.0900   31.0870   52.3060 C   0  0  0  0  0  0  0  0  0  0  0  0
   52.1720   31.1740   51.1560 C   0  0  0  0  0  0  0  0  0  0  0  0
   52.1890   30.3030   50.1330 N   0  0  0  0  0  0  0  0  0  0  0  0
   51.2610   30.7940   49.2850 C   0  0  0  0  0  0  0  0  0  0  0  0
   50.9750   30.2350   48.1940 O   0  0  0  0  0  0  0  0  0  0  0  0
   50.6710   31.9390   49.6910 N   0  0  0  0  0  0  0  0  0  0  0  0
   51.2670   32.1750   50.8720 C   0  0  0  0  0  0  0  0  0  0  0  0
   51.0240   33.3050   51.6420 O   0  0  0  0  0  0  0  0  0  0  0  0
   53.5990   29.9390   52.7730 C   0  0  0  0  0  0  0  0  0  0  0  0
   52.9790   28.7010   52.9500 C   0  0  0  0  0  0  0  0  0  0  0  0
   51.9183   28.4897   52.7492 H   0  0  0  0  0  0  0  0  0  0  0  0
   53.8820   27.7980   53.4070 N   0  0  0  0  0  0  0  0  0  0  0  0
   55.0410   28.4280   53.5200 N   0  0  0  0  0  0  0  0  0  0  0  0
   56.2490   27.9410   53.9280 C   0  0  0  0  0  0  0  0  0  0  0  0
   56.4330   26.7050   54.2970 N   0  0  0  0  0  0  0  0  0  0  0  0
   57.5250   25.8280   53.8830 C   0  0  0  0  0  0  0  0  0  0  0  0
   57.1945   25.6563   52.8480 H   0  0  0  0  0  0  0  0  0  0  0  0
   58.8570   26.1500   54.5360 C   0  0  0  0  0  0  0  0  0  0  0  0
   59.7944   25.9832   53.9852 H   0  0  0  0  0  0  0  0  0  0  0  0
   59.2956   27.0392   55.0124 H   0  0  0  0  0  0  0  0  0  0  0  0
   58.0370   24.9630   55.0200 C   0  0  0  0  0  0  0  0  0  0  0  0
   58.3815   23.9378   54.8193 H   0  0  0  0  0  0  0  0  0  0  0  0
   57.6368   24.6380   55.9917 H   0  0  0  0  0  0  0  0  0  0  0  0
   57.3090   28.7980   53.9370 N   0  0  0  0  0  0  0  0  0  0  0  0
   57.1640   30.1020   53.5590 C   0  0  0  0  0  0  0  0  0  0  0  0
   58.2840   30.9420   53.5660 O   0  0  0  0  0  0  0  0  0  0  0  0
   58.7580   31.6580   52.4570 C   0  0  0  0  0  0  0  0  0  0  0  0
   59.4500   30.9670   51.4560 C   0  0  0  0  0  0  0  0  0  0  0  0
   59.6128   29.8835   51.5539 H   0  0  0  0  0  0  0  0  0  0  0  0
   59.9360   31.6420   50.3330 C   0  0  0  0  0  0  0  0  0  0  0  0
   60.4639   31.0861   49.5442 H   0  0  0  0  0  0  0  0  0  0  0  0
   59.7520   33.0260   50.2100 C   0  0  0  0  0  0  0  0  0  0  0  0
   60.3290   33.8910   48.7880 S   0  0  0  0  0  0  0  0  0  0  0  0
   61.6420   34.5600   49.0910 O   0  0  0  0  0  0  0  0  0  0  0  0
   59.3230   34.9550   48.4450 O   0  0  0  0  0  0  0  0  0  0  0  0
   60.4950   32.7940   47.4320 N   0  0  0  0  0  0  0  0  0  0  0  0
   60.7980   33.5030   46.1750 C   0  0  0  0  0  0  0  0  0  0  0  0
   61.1053   32.7643   45.4201 H   0  0  0  0  0  0  0  0  0  0  0  0
   61.5988   34.2265   46.3876 H   0  0  0  0  0  0  0  0  0  0  0  0
   59.5900   34.2940   45.6280 C   0  0  0  0  0  0  0  0  0  0  0  0
   59.6033   34.2431   44.5293 H   0  0  0  0  0  0  0  0  0  0  0  0
   59.6792   35.3303   45.9859 H   0  0  0  0  0  0  0  0  0  0  0  0
   58.2980   33.7610   46.1120 N   0  0  0  0  0  0  0  0  0  0  0  0
   57.1990   34.1880   45.2320 C   0  0  0  0  0  0  0  0  0  0  0  0
   56.3469   34.5191   45.8438 H   0  0  0  0  0  0  0  0  0  0  0  0
   57.5395   35.0193   44.5971 H   0  0  0  0  0  0  0  0  0  0  0  0
   56.8889   33.3449   44.5971 H   0  0  0  0  0  0  0  0  0  0  0  0
   58.3370   32.2960   46.2200 C   0  0  0  0  0  0  0  0  0  0  0  0
   58.6497   31.8672   45.2565 H   0  0  0  0  0  0  0  0  0  0  0  0
   57.3357   31.9249   46.4839 H   0  0  0  0  0  0  0  0  0  0  0  0
   59.3380   31.8790   47.3140 C   0  0  0  0  0  0  0  0  0  0  0  0
   59.7126   30.8720   47.0783 H   0  0  0  0  0  0  0  0  0  0  0  0
   58.8012   31.9090   48.2737 H   0  0  0  0  0  0  0  0  0  0  0  0
   59.0780   33.7260   51.2180 C   0  0  0  0  0  0  0  0  0  0  0  0
   58.9328   34.8126   51.1271 H   0  0  0  0  0  0  0  0  0  0  0  0
   58.5890   33.0500   52.3390 C   0  0  0  0  0  0  0  0  0  0  0  0
   58.0700   33.6081   53.1322 H   0  0  0  0  0  0  0  0  0  0  0  0
   55.9460   30.5620   53.1450 N   0  0  0  0  0  0  0  0  0  0  0  0
   54.9030   29.7020   53.1420 C   0  0  0  0  0  0  0  0  0  0  0  0
  1  2  1  0
  2  3  1  0
  3  4  1  0
  4  5  1  0
  5  6  2  0
  5  7  1  0
  7  8  1  0
  8  9  1  0
  2 10  2  3
 10 11  1  0
 11 12  1  0
 11 13  2  0
 13 14  1  0
 14 15  1  0
 15 16  2  0
 16 17  1  0
 17 18  1  0
 17 19  1  0
 19 20  1  0
 19 21  1  0
 19 22  1  0
 22 23  1  0
 22 24  1  0
 15 25  1  0
 25 26  2  0
 26 27  1  0
 27 28  1  0
 28 29  2  0
 29 30  1  0
 29 31  1  0
 31 32  1  0
 31 33  2  0
 33 34  1  0
 34 35  2  0
 34 36  2  0
 34 37  1  0
 37 38  1  0
 38 39  1  0
 38 40  1  0
 38 41  1  0
 41 42  1  0
 41 43  1  0
 41 44  1  0
 44 45  1  0
 45 46  1  0
 45 47  1  0
 45 48  1  0
 44 49  1  0
 49 50  1  0
 49 51  1  0
 49 52  1  0
 52 53  1  0
 52 54  1  0
 33 55  1  0
 55 56  1  0
 55 57  2  0
 57 58  1  0
 26 59  1  0
 59 60  2  0
  8  3  2  0
 60 10  1  0
 60 14  1  0
 22 17  1  0
 57 28  1  0
 52 37  1  0
M  CHG  3   4  -1   7  -1   9  -1
M  END
>  <UniqueID>  (34) 
29

>  <SMILES>  (34) 
CN1CCN(S(=O)(=O)c2ccc(Oc3n/c(=N/C4CC4)n4ncc(=Cc5[n-]c(=O)[n-]c5[O-])c4n3)cc2)CC1

>  <Energy>  (34) 
421.0851679038127

>  <Genealogy>  (34) 
CN1CCN(S(=O)(=O)c2ccc(Oc3nc(=NC4CC4)n4ncc(=Cc5[n-]c(=O)[n-]c5[O-])c4n3)cc2)CC1 (protonated)
CN1CCN(S(=O)(=O)c2ccc(Oc3n/c(=N/C4CC4)n4ncc(=Cc5[n-]c(=O)[n-]c5[O-])c4n3)cc2)CC1 (cis-trans isomerization)
CN1CCN(S(=O)(=O)c2ccc(Oc3n/c(=N/C4CC4)n4ncc(=Cc5[n-]c(=O)[n-]c5[O-])c4n3)cc2)CC1 (3D coordinates assigned)
CN1CCN(S(=O)(=O)c2ccc(Oc3n/c(=N/C4CC4)n4ncc(=Cc5[n-]c(=O)[n-]c5[O-])c4n3)cc2)CC1 (nonaromatic ring conformer: 421.0851679038127 kcal/mol)

>  <smiles>  (34) 
CN1CCN(S(=O)(=O)c2ccc(Oc3nc(=NC4CC4)n4ncc(=Cc5[nH]c(=O)[nH]c5O)c4n3)cc2)CC1

>  <score_type>  (34) 
oracle

>  <origin>  (34) 
adg

>  <m_score__min__energy>  (34) 
-18.640000000000001

>  <m_primary>  (34) 
energy

$$$$
34:0
     RDKit          3D

 44 45  0  0  0  0  0  0  0  0999 V2000
   57.6940   31.4450   44.4540 C   0  0  0  0  0  0  0  0  0  0  0  0
   57.1530   32.1890   45.5400 O   0  0  0  0  0  0  0  0  0  0  0  0
   57.9200   32.8790   46.4930 C   0  0  0  0  0  0  0  0  0  0  0  0
   58.1430   32.3640   47.7840 C   0  0  0  0  0  0  0  0  0  0  0  0
   58.9230   33.0720   48.7110 C   0  0  0  0  0  0  0  0  0  0  0  0
   59.2070   32.4910   50.0690 C   0  0  0  0  0  0  0  0  0  0  0  0
   58.0490   32.7120   50.9430 N   0  0  0  0  0  0  0  0  0  0  0  0
   58.4600   33.0650   52.3110 C   0  0  0  0  0  0  0  0  0  0  0  0
   57.9440   32.0380   53.3200 C   0  0  0  0  0  0  0  0  0  0  0  0
   56.6230   31.5620   52.9200 N   0  0  0  0  0  0  0  0  0  0  0  0
   56.3820   30.2640   52.3660 C   0  0  0  0  0  0  0  0  0  0  0  0
   57.2120   29.7400   51.5760 O   0  0  0  0  0  0  0  0  0  0  0  0
   55.1640   29.5020   52.7760 C   0  0  0  0  0  0  0  0  0  0  0  0
   53.9340   30.3100   52.4650 C   0  0  0  0  0  0  0  0  0  0  0  0
   53.7590   30.8620   51.1840 C   0  0  0  0  0  0  0  0  0  0  0  0
   52.6480   31.6620   50.9060 C   0  0  0  0  0  0  0  0  0  0  0  0
   51.7010   31.9160   51.9040 C   0  0  0  0  0  0  0  0  0  0  0  0
   50.5960   32.7100   51.6250 O   0  0  0  0  0  0  0  0  0  0  0  0
   51.8670   31.3700   53.1800 C   0  0  0  0  0  0  0  0  0  0  0  0
   52.9820   30.5740   53.4630 C   0  0  0  0  0  0  0  0  0  0  0  0
   59.4930   34.2970   48.3380 C   0  0  0  0  0  0  0  0  0  0  0  0
   59.2700   34.8190   47.0620 C   0  0  0  0  0  0  0  0  0  0  0  0
   58.4890   34.1170   46.1390 C   0  0  0  0  0  0  0  0  0  0  0  0
   58.2980   34.6600   44.8680 O   0  0  0  0  0  0  0  0  0  0  0  0
   58.2988   30.6133   44.8445 H   0  0  0  0  0  0  0  0  0  0  0  0
   56.8743   31.0451   43.8391 H   0  0  0  0  0  0  0  0  0  0  0  0
   58.3271   32.1015   43.8391 H   0  0  0  0  0  0  0  0  0  0  0  0
   57.7017   31.3975   48.0688 H   0  0  0  0  0  0  0  0  0  0  0  0
   59.3954   31.4114   49.9747 H   0  0  0  0  0  0  0  0  0  0  0  0
   60.0930   32.9794   50.5008 H   0  0  0  0  0  0  0  0  0  0  0  0
   57.5090   31.8160   50.9890 H   0  0  0  0  0  0  0  0  0  0  0  0
   59.5585   33.0968   52.3598 H   0  0  0  0  0  0  0  0  0  0  0  0
   58.0347   34.0478   52.5623 H   0  0  0  0  0  0  0  0  0  0  0  0
   58.6401   31.1873   53.3616 H   0  0  0  0  0  0  0  0  0  0  0  0
   57.8717   32.5111   54.3104 H   0  0  0  0  0  0  0  0  0  0  0  0
   55.1254   28.5502   52.2259 H   0  0  0  0  0  0  0  0  0  0  0  0
   55.2054   29.3016   53.8568 H   0  0  0  0  0  0  0  0  0  0  0  0
   54.5007   30.6630   50.3965 H   0  0  0  0  0  0  0  0  0  0  0  0
   52.5177   32.0924   49.9021 H   0  0  0  0  0  0  0  0  0  0  0  0
   51.1197   31.5666   53.9629 H   0  0  0  0  0  0  0  0  0  0  0  0
   53.1135   30.1534   54.4709 H   0  0  0  0  0  0  0  0  0  0  0  0
   60.1190   34.8499   49.0538 H   0  0  0  0  0  0  0  0  0  0  0  0
   59.7109   35.7870   46.7818 H   0  0  0  0  0  0  0  0  0  0  0  0
   57.8310   34.1480   44.1280 H   0  0  0  0  0  0  0  0  0  0  0  0
  1  2  1  0
  2  3  1  0
  3  4  2  0
  4  5  1  0
  5  6  1  0
  6  7  1  0
  7  8  1  0
  8  9  1  0
  9 10  1  0
 10 11  1  0
 11 12  2  0
 11 13  1  0
 13 14  1  0
 14 15  2  0
 15 16  1  0
 16 17  2  0
 17 18  1  0
 17 19  1  0
 19 20  2  0
  5 21  2  0
 21 22  1  0
 22 23  2  0
 23 24  1  0
 23  3  1  0
 20 14  1  0
  1 25  1  0
  1 26  1  0
  1 27  1  0
  4 28  1  0
  6 29  1  0
  6 30  1  0
  7 31  1  0
  8 32  1  0
  8 33  1  0
  9 34  1  0
  9 35  1  0
 13 36  1  0
 13 37  1  0
 15 38  1  0
 16 39  1  0
 19 40  1  0
 20 41  1  0
 21 42  1  0
 22 43  1  0
 24 44  1  0
M  CHG  2  10  -1  18  -1
M  END
>  <UniqueID>  (35) 
30

>  <SMILES>  (35) 
COc1cc(CNCC[N-]C(=O)Cc2ccc([O-])cc2)ccc1O

>  <Energy>  (35) 
32.02401602101689

>  <Genealogy>  (35) 
COc1cc(CNCC[N-]C(=O)Cc2ccc([O-])cc2)ccc1O (protonated)
COc1cc(CNCC[N-]C(=O)Cc2ccc([O-])cc2)ccc1O (3D coordinates assigned)
COc1cc(CNCC[N-]C(=O)Cc2ccc([O-])cc2)ccc1O (optimized conformer: 32.02401602101689 kcal/mol)

>  <smiles>  (35) 
COc1cc(CNCCNC(=O)Cc2ccc(O)cc2)ccc1O

>  <score_type>  (35) 
oracle

>  <origin>  (35) 
adg

>  <m_score__min__energy>  (35) 
-11.640000000000001

>  <m_primary>  (35) 
energy

$$$$
35:0
     RDKit          3D

 48 51  0  0  0  0  0  0  0  0999 V2000
   55.7650   29.7910   44.9340 O   0  0  0  0  0  0  0  0  0  0  0  0
   57.0150   29.7240   45.0900 C   0  0  0  0  0  0  0  0  0  0  0  0
   57.9160   30.6360   44.2910 C   0  0  0  0  0  0  0  0  0  0  0  0
   58.0600   31.9970   44.9250 C   0  0  0  0  0  0  0  0  0  0  0  0
   57.7740   33.1560   44.1890 C   0  0  0  0  0  0  0  0  0  0  0  0
   57.8730   34.4120   44.7890 C   0  0  0  0  0  0  0  0  0  0  0  0
   58.2530   34.5250   46.1280 C   0  0  0  0  0  0  0  0  0  0  0  0
   58.5430   33.3750   46.8860 C   0  0  0  0  0  0  0  0  0  0  0  0
   58.9320   33.4770   48.3130 C   0  0  0  0  0  0  0  0  0  0  0  0
   59.6380   34.4500   48.6960 O   0  0  0  0  0  0  0  0  0  0  0  0
   58.5090   32.4940   49.2700 N   0  0  0  0  0  0  0  0  0  0  0  0
   58.9870   32.5210   50.6490 C   0  0  0  0  0  0  0  0  0  0  0  0
   58.5630   31.3060   51.4540 C   0  0  0  0  0  0  0  0  0  0  0  0
   57.8800   32.6460   51.6810 C   0  0  0  0  0  0  0  0  0  0  0  0
   58.4300   32.1120   46.2760 C   0  0  0  0  0  0  0  0  0  0  0  0
   57.5270   28.7660   46.0320 N   0  0  0  0  0  0  0  0  0  0  0  0
   58.6070   28.8470   46.7520 C   0  0  0  0  0  0  0  0  0  0  0  0
   59.7980   28.3010   46.4170 N   0  0  0  0  0  0  0  0  0  0  0  0
   60.7400   28.5300   47.3690 C   0  0  0  0  0  0  0  0  0  0  0  0
   60.2870   29.2450   48.4730 C   0  0  0  0  0  0  0  0  0  0  0  0
   61.1240   29.6970   49.6290 C   0  0  0  0  0  0  0  0  0  0  0  0
   61.9420   30.8950   49.2350 C   0  0  0  0  0  0  0  0  0  0  0  0
   61.5630   31.6800   48.1330 C   0  0  0  0  0  0  0  0  0  0  0  0
   62.3450   32.7740   47.7440 C   0  0  0  0  0  0  0  0  0  0  0  0
   61.8620   33.7520   46.3710 Cl  0  0  0  0  0  0  0  0  0  0  0  0
   63.5130   33.0830   48.4470 C   0  0  0  0  0  0  0  0  0  0  0  0
   63.9050   32.2980   49.5360 C   0  0  0  0  0  0  0  0  0  0  0  0
   65.3770   32.6810   50.4090 Cl  0  0  0  0  0  0  0  0  0  0  0  0
   63.1240   31.2040   49.9270 C   0  0  0  0  0  0  0  0  0  0  0  0
   58.6640   29.6270   48.2400 S   0  0  0  0  0  0  0  0  0  0  0  0
   58.9112   30.1734   44.2164 H   0  0  0  0  0  0  0  0  0  0  0  0
   57.4615   30.7733   43.2988 H   0  0  0  0  0  0  0  0  0  0  0  0
   57.4705   33.0747   43.1348 H   0  0  0  0  0  0  0  0  0  0  0  0
   57.6507   35.3170   44.2046 H   0  0  0  0  0  0  0  0  0  0  0  0
   58.3262   35.5191   46.5933 H   0  0  0  0  0  0  0  0  0  0  0  0
   57.7390   31.8300   49.0290 H   0  0  0  0  0  0  0  0  0  0  0  0
   59.9360   33.0443   50.4606 H   0  0  0  0  0  0  0  0  0  0  0  0
   58.0165   30.4858   50.9655 H   0  0  0  0  0  0  0  0  0  0  0  0
   59.0813   30.5783   52.0957 H   0  0  0  0  0  0  0  0  0  0  0  0
   56.8396   32.7952   51.3566 H   0  0  0  0  0  0  0  0  0  0  0  0
   57.6995   33.2895   52.5547 H   0  0  0  0  0  0  0  0  0  0  0  0
   58.6336   31.2044   46.8632 H   0  0  0  0  0  0  0  0  0  0  0  0
   61.7779   28.1781   47.2743 H   0  0  0  0  0  0  0  0  0  0  0  0
   60.4683   29.9646   50.4707 H   0  0  0  0  0  0  0  0  0  0  0  0
   61.7992   28.8811   49.9264 H   0  0  0  0  0  0  0  0  0  0  0  0
   60.6483   31.4340   47.5738 H   0  0  0  0  0  0  0  0  0  0  0  0
   64.1249   33.9451   48.1431 H   0  0  0  0  0  0  0  0  0  0  0  0
   63.4376   30.5840   50.7798 H   0  0  0  0  0  0  0  0  0  0  0  0
  1  2  2  0
  2  3  1  0
  3  4  1  0
  4  5  2  0
  5  6  1  0
  6  7  2  0
  7  8  1  0
  8  9  1  0
  9 10  2  0
  9 11  1  0
 11 12  1  0
 12 13  1  0
 13 14  1  0
  8 15  2  0
  2 16  1  0
 16 17  2  3
 17 18  1  0
 18 19  1  0
 19 20  2  0
 20 21  1  0
 21 22  1  0
 22 23  2  0
 23 24  1  0
 24 25  1  0
 24 26  2  0
 26 27  1  0
 27 28  1  0
 27 29  2  0
 20 30  1  0
 15  4  1  0
 30 17  1  0
 14 12  1  0
 29 22  1  0
  3 31  1  0
  3 32  1  0
  5 33  1  0
  6 34  1  0
  7 35  1  0
 11 36  1  0
 12 37  1  0
 13 38  1  0
 13 39  1  0
 14 40  1  0
 14 41  1  0
 15 42  1  0
 19 43  1  0
 21 44  1  0
 21 45  1  0
 23 46  1  0
 26 47  1  0
 29 48  1  0
M  CHG  1  18  -1
M  END
>  <UniqueID>  (36) 
31

>  <SMILES>  (36) 
O=C(Cc1cccc(C(=O)NC2CC2)c1)N=c1[n-]cc(Cc2cc(Cl)cc(Cl)c2)s1

>  <Energy>  (36) 
347.81677624188177

>  <Genealogy>  (36) 
O=C(Cc1cccc(C(=O)NC2CC2)c1)N=c1[n-]cc(Cc2cc(Cl)cc(Cl)c2)s1 (protonated)
O=C(Cc1cccc(C(=O)NC2CC2)c1)N=c1[n-]cc(Cc2cc(Cl)cc(Cl)c2)s1 (3D coordinates assigned)
O=C(Cc1cccc(C(=O)NC2CC2)c1)N=c1[n-]cc(Cc2cc(Cl)cc(Cl)c2)s1 (nonaromatic ring conformer: 347.81677624188177 kcal/mol)

>  <smiles>  (36) 
O=C(Cc1cccc(C(=O)NC2CC2)c1)N=c1[nH]cc(Cc2cc(Cl)cc(Cl)c2)s1

>  <score_type>  (36) 
oracle

>  <origin>  (36) 
adg

>  <m_score__min__energy>  (36) 
-11.68

>  <m_primary>  (36) 
energy

$$$$
36:0
     RDKit          3D

 42 44  0  0  0  0  0  0  0  0999 V2000
   54.7570   26.2750   45.8210 N   0  0  0  0  0  0  0  0  0  0  0  0
   56.0820   26.1780   46.3430 C   0  0  0  0  0  0  0  0  0  0  0  0
   56.3980   25.1770   47.0430 O   0  0  0  0  0  0  0  0  0  0  0  0
   57.0990   27.1980   46.0070 C   0  0  0  0  0  0  0  0  0  0  0  0
   56.7150   28.2950   45.2130 C   0  0  0  0  0  0  0  0  0  0  0  0
   57.6130   29.3380   44.9480 C   0  0  0  0  0  0  0  0  0  0  0  0
   57.1180   30.7320   43.9930 S   0  0  0  0  0  0  0  0  0  0  0  0
   58.2410   31.1090   43.0670 O   0  0  0  0  0  0  0  0  0  0  0  0
   55.8930   30.4210   43.1750 O   0  0  0  0  0  0  0  0  0  0  0  0
   56.7700   32.0670   45.0440 N   0  0  0  0  0  0  0  0  0  0  0  0
   57.7240   32.7040   45.9060 C   0  0  0  0  0  0  0  0  0  0  0  0
   58.1290   32.0350   47.0660 C   0  0  0  0  0  0  0  0  0  0  0  0
   59.0430   32.6270   47.9430 C   0  0  0  0  0  0  0  0  0  0  0  0
   59.5740   33.8970   47.6680 C   0  0  0  0  0  0  0  0  0  0  0  0
   60.5190   34.5460   48.6470 C   0  0  0  0  0  0  0  0  0  0  0  0
   61.8950   33.9470   48.5210 C   0  0  0  0  0  0  0  0  0  0  0  0
   62.4000   33.5800   47.2640 C   0  0  0  0  0  0  0  0  0  0  0  0
   63.6960   33.0630   47.1670 C   0  0  0  0  0  0  0  0  0  0  0  0
   64.4610   32.9270   48.2820 N   0  0  0  0  0  0  0  0  0  0  0  0
   64.0000   33.2820   49.5120 C   0  0  0  0  0  0  0  0  0  0  0  0
   62.7100   33.8020   49.6540 C   0  0  0  0  0  0  0  0  0  0  0  0
   59.1680   34.5710   46.5020 C   0  0  0  0  0  0  0  0  0  0  0  0
   59.6560   35.8050   46.2110 F   0  0  0  0  0  0  0  0  0  0  0  0
   58.2530   33.9760   45.6260 C   0  0  0  0  0  0  0  0  0  0  0  0
   58.9080   29.2830   45.4690 C   0  0  0  0  0  0  0  0  0  0  0  0
   59.3120   28.1890   46.2340 C   0  0  0  0  0  0  0  0  0  0  0  0
   58.4290   27.1330   46.4910 C   0  0  0  0  0  0  0  0  0  0  0  0
   58.9190   26.0310   47.1960 O   0  0  0  0  0  0  0  0  0  0  0  0
   53.9950   26.7260   46.3750 H   0  0  0  0  0  0  0  0  0  0  0  0
   55.6981   28.3342   44.7955 H   0  0  0  0  0  0  0  0  0  0  0  0
   57.7256   31.0364   47.2897 H   0  0  0  0  0  0  0  0  0  0  0  0
   59.3482   32.0935   48.8553 H   0  0  0  0  0  0  0  0  0  0  0  0
   60.5725   35.6248   48.4389 H   0  0  0  0  0  0  0  0  0  0  0  0
   60.1475   34.3771   49.6685 H   0  0  0  0  0  0  0  0  0  0  0  0
   61.7814   33.6980   46.3621 H   0  0  0  0  0  0  0  0  0  0  0  0
   64.0967   32.7660   46.1866 H   0  0  0  0  0  0  0  0  0  0  0  0
   64.6432   33.1597   50.3959 H   0  0  0  0  0  0  0  0  0  0  0  0
   62.3368   34.0952   50.6463 H   0  0  0  0  0  0  0  0  0  0  0  0
   57.9459   34.5069   44.7128 H   0  0  0  0  0  0  0  0  0  0  0  0
   59.6119   30.1058   45.2751 H   0  0  0  0  0  0  0  0  0  0  0  0
   60.3340   28.1554   46.6393 H   0  0  0  0  0  0  0  0  0  0  0  0
   58.3400   25.2500   47.4800 H   0  0  0  0  0  0  0  0  0  0  0  0
  1  2  1  0
  2  3  2  0
  2  4  1  0
  4  5  2  0
  5  6  1  0
  6  7  1  0
  7  8  2  0
  7  9  2  0
  7 10  1  0
 10 11  1  0
 11 12  2  0
 12 13  1  0
 13 14  2  0
 14 15  1  0
 15 16  1  0
 16 17  2  0
 17 18  1  0
 18 19  2  0
 19 20  1  0
 20 21  2  0
 14 22  1  0
 22 23  1  0
 22 24  2  0
  6 25  2  0
 25 26  1  0
 26 27  2  0
 27 28  1  0
 27  4  1  0
 24 11  1  0
 21 16  1  0
  1 29  1  0
  5 30  1  0
 12 31  1  0
 13 32  1  0
 15 33  1  0
 15 34  1  0
 17 35  1  0
 18 36  1  0
 20 37  1  0
 21 38  1  0
 24 39  1  0
 25 40  1  0
 26 41  1  0
 28 42  1  0
M  CHG  2   1  -1  10  -1
M  END
>  <UniqueID>  (37) 
32

>  <SMILES>  (37) 
[NH-]C(=O)c1cc(S(=O)(=O)[N-]c2ccc(Cc3ccncc3)c(F)c2)ccc1O

>  <Energy>  (37) 
52.956972751301265

>  <Genealogy>  (37) 
[NH-]C(=O)c1cc(S(=O)(=O)[N-]c2ccc(Cc3ccncc3)c(F)c2)ccc1O (protonated)
[NH-]C(=O)c1cc(S(=O)(=O)[N-]c2ccc(Cc3ccncc3)c(F)c2)ccc1O (3D coordinates assigned)
[NH-]C(=O)c1cc(S(=O)(=O)[N-]c2ccc(Cc3ccncc3)c(F)c2)ccc1O (optimized conformer: 52.956972751301265 kcal/mol)

>  <smiles>  (37) 
NC(=O)c1cc(S(=O)(=O)Nc2ccc(Cc3ccncc3)c(F)c2)ccc1O

>  <score_type>  (37) 
oracle

>  <origin>  (37) 
adg

>  <m_score__min__energy>  (37) 
-13.619999999999999

>  <m_primary>  (37) 
energy

$$$$
37:0
     RDKit          3D

 55 58  0  0  1  0  0  0  0  0999 V2000
   64.5080   32.7300   48.2280 N   0  0  0  0  0  0  0  0  0  0  0  0
   63.0420   33.5570   47.8420 S   0  0  0  0  0  0  0  0  0  0  0  0
   62.8140   34.6080   48.8780 O   0  0  0  0  0  0  0  0  0  0  0  0
   63.1430   34.1510   46.4620 O   0  0  0  0  0  0  0  0  0  0  0  0
   61.7470   32.3870   47.9160 C   0  0  0  0  0  0  0  0  0  0  0  0
   60.7360   32.6200   48.8380 C   0  0  0  0  0  0  0  0  0  0  0  0
   59.7130   31.7070   48.9040 C   0  0  0  0  0  0  0  0  0  0  0  0
   59.6740   30.5890   48.0930 C   0  0  0  0  0  0  0  0  0  0  0  0
   60.7020   30.3730   47.1720 C   0  0  0  0  0  0  0  0  0  0  0  0
   60.6260   29.2150   46.3560 N   0  0  0  0  0  0  0  0  0  0  0  0
   59.4770   28.7690   45.9870 C   0  0  0  0  0  0  0  0  0  0  0  0
   58.9700   27.6440   46.6200 C   0  0  0  0  0  0  0  0  0  0  0  0
   57.7270   27.1110   46.2640 C   0  0  0  0  0  0  0  0  0  0  0  0
   57.2250   25.9500   46.9330 N   0  0  0  0  0  0  0  0  0  0  0  0
   56.3670   25.1740   46.3400 C   0  0  0  0  0  0  0  0  0  0  0  0
   55.1560   25.6260   45.9860 N   0  0  0  0  0  0  0  0  0  0  0  0
   54.2560   24.8390   45.3710 C   0  0  0  0  0  0  0  0  0  0  0  0
   54.5780   23.5090   45.0880 C   0  0  0  0  0  0  0  0  0  0  0  0
   55.8330   23.0920   45.4710 C   0  0  0  0  0  0  0  0  0  0  0  0
   56.7160   23.9070   46.0870 N   0  0  0  0  0  0  0  0  0  0  0  0
   57.0280   27.7170   45.2860 N   0  0  0  0  0  0  0  0  0  0  0  0
   57.5420   28.7930   44.6980 C   0  0  0  0  0  0  0  0  0  0  0  0
   56.8820   29.3810   43.7620 N   0  0  0  0  0  0  0  0  0  0  0  0
   56.5530   30.7840   43.7560 C   0  0  0  0  0  0  0  0  0  0  0  0
   57.7120   31.6660   43.3160 C   0  0  0  0  0  0  0  0  0  0  0  0
   58.0330   32.5930   44.4580 C   0  0  0  0  0  0  0  0  0  0  0  0
   58.8940   33.6700   44.2370 C   0  0  0  0  0  0  0  0  0  0  0  0
   59.2350   34.5560   45.2210 C   0  0  0  0  0  0  0  0  0  0  0  0
   58.7010   34.3740   46.4860 C   0  0  0  0  0  0  0  0  0  0  0  0
   57.8490   33.3090   46.7040 C   0  0  0  0  0  0  0  0  0  0  0  0
   57.4990   32.4090   45.7170 C   0  0  0  0  0  0  0  0  0  0  0  0
   58.7380   29.3320   45.0190 N   0  0  0  0  0  0  0  0  0  0  0  0
   61.7480   31.2860   47.0860 C   0  0  0  0  0  0  0  0  0  0  0  0
   64.5230   31.8090   47.7800 H   0  0  0  0  0  0  0  0  0  0  0  0
   65.2910   33.2960   47.8290 H   0  0  0  0  0  0  0  0  0  0  0  0
   60.7539   33.5042   49.4921 H   0  0  0  0  0  0  0  0  0  0  0  0
   58.8987   31.8706   49.6252 H   0  0  0  0  0  0  0  0  0  0  0  0
   58.8407   29.8752   48.1719 H   0  0  0  0  0  0  0  0  0  0  0  0
   59.5561   27.1622   47.4165 H   0  0  0  0  0  0  0  0  0  0  0  0
   53.2706   25.2403   45.0918 H   0  0  0  0  0  0  0  0  0  0  0  0
   53.8688   22.8333   44.5875 H   0  0  0  0  0  0  0  0  0  0  0  0
   56.1285   22.0523   45.2668 H   0  0  0  0  0  0  0  0  0  0  0  0
   57.6610   23.5620   46.3650 H   0  0  0  0  0  0  0  0  0  0  0  0
   56.1000   27.3560   44.9890 H   0  0  0  0  0  0  0  0  0  0  0  0
   55.7105   30.9432   43.0670 H   0  0  0  0  0  0  0  0  0  0  0  0
   56.2991   31.0662   44.7884 H   0  0  0  0  0  0  0  0  0  0  0  0
   58.5881   31.0446   43.0789 H   0  0  0  0  0  0  0  0  0  0  0  0
   57.4438   32.2382   42.4157 H   0  0  0  0  0  0  0  0  0  0  0  0
   59.3149   33.8113   43.2306 H   0  0  0  0  0  0  0  0  0  0  0  0
   59.9172   35.3934   45.0130 H   0  0  0  0  0  0  0  0  0  0  0  0
   58.9513   35.0662   47.3035 H   0  0  0  0  0  0  0  0  0  0  0  0
   57.4295   33.1713   47.7115 H   0  0  0  0  0  0  0  0  0  0  0  0
   56.8165   31.5724   45.9276 H   0  0  0  0  0  0  0  0  0  0  0  0
   59.1070   30.1770   44.5350 H   0  0  0  0  0  0  0  0  0  0  0  0
   62.5648   31.1317   46.3656 H   0  0  0  0  0  0  0  0  0  0  0  0
  1  2  1  0
  2  3  2  0
  2  4  2  0
  2  5  1  0
  5  6  2  0
  6  7  1  0
  7  8  2  0
  8  9  1  0
  9 10  1  0
 10 11  2  0
 11 12  1  0
 12 13  2  0
 13 14  1  0
 14 15  2  3
 15 16  1  0
 16 17  2  0
 17 18  1  0
 18 19  2  0
 19 20  1  0
 13 21  1  0
 21 22  1  0
 22 23  2  0
 23 24  1  0
 24 25  1  0
 25 26  1  0
 26 27  2  0
 27 28  1  0
 28 29  2  0
 29 30  1  0
 30 31  2  0
 22 32  1  0
  9 33  2  0
 33  5  1  0
 32 11  1  0
 20 15  1  0
 31 26  1  0
  1 34  1  0
  1 35  1  0
  6 36  1  0
  7 37  1  0
  8 38  1  0
 12 39  1  0
 17 40  1  0
 18 41  1  0
 19 42  1  0
 20 43  1  0
 21 44  1  0
 24 45  1  0
 24 46  1  0
 25 47  1  0
 25 48  1  0
 27 49  1  0
 28 50  1  0
 29 51  1  0
 30 52  1  0
 31 53  1  0
 32 54  1  0
 33 55  1  0
M  END
>  <smiles>  (38) 
NS(=O)(=O)c1cccc(N=c2cc(N=c3nccc[nH]3)[nH]c(=NCCc3ccccc3)[nH]2)c1

>  <score_type>  (38) 
oracle

>  <origin>  (38) 
adg

>  <m_score__min__energy>  (38) 
-10.529999999999999

>  <m_primary>  (38) 
energy

$$$$
38:0
     RDKit          3D

 33 33  0  0  0  0  0  0  0  0999 V2000
   57.5820   34.1470   45.1890 C   0  0  0  0  0  0  0  0  0  0  0  0
   57.6600   32.7590   45.8030 C   0  0  0  0  0  0  0  0  0  0  0  0
   56.6510   31.9300   45.2370 O   0  0  0  0  0  0  0  0  0  0  0  0
   56.8480   31.2000   44.0600 C   0  0  0  0  0  0  0  0  0  0  0  0
   57.3590   31.7490   43.0460 O   0  0  0  0  0  0  0  0  0  0  0  0
   56.4520   29.7830   44.0150 C   0  0  0  0  0  0  0  0  0  0  0  0
   55.6410   29.3420   44.8730 O   0  0  0  0  0  0  0  0  0  0  0  0
   57.0190   28.8440   42.9860 C   0  0  0  0  0  0  0  0  0  0  0  0
   57.9400   27.7960   43.6240 C   0  0  0  0  0  0  0  0  0  0  0  0
   57.3110   27.1620   44.7840 N   0  0  0  0  0  0  0  0  0  0  0  0
   58.0900   26.4930   45.7830 C   0  0  0  0  0  0  0  0  0  0  0  0
   59.3450   26.4270   45.6740 O   0  0  0  0  0  0  0  0  0  0  0  0
   57.4130   25.8280   46.9410 C   0  0  0  0  0  0  0  0  0  0  0  0
   56.2260   25.1190   46.4810 N   0  0  0  0  0  0  0  0  0  0  0  0
   56.0920   23.7840   46.3800 C   0  0  0  0  0  0  0  0  0  0  0  0
   54.8510   23.5140   45.8440 C   0  0  0  0  0  0  0  0  0  0  0  0
   54.2820   24.7560   45.6330 C   0  0  0  0  0  0  0  0  0  0  0  0
   55.1400   25.7190   46.0210 N   0  0  0  0  0  0  0  0  0  0  0  0
   57.5397   34.9002   45.9895 H   0  0  0  0  0  0  0  0  0  0  0  0
   58.4717   34.3231   44.5665 H   0  0  0  0  0  0  0  0  0  0  0  0
   56.6782   34.2223   44.5665 H   0  0  0  0  0  0  0  0  0  0  0  0
   58.6492   32.3233   45.5988 H   0  0  0  0  0  0  0  0  0  0  0  0
   57.5070   32.8309   46.8899 H   0  0  0  0  0  0  0  0  0  0  0  0
   56.1905   28.3290   42.4778 H   0  0  0  0  0  0  0  0  0  0  0  0
   57.6122   29.4340   42.2718 H   0  0  0  0  0  0  0  0  0  0  0  0
   58.1728   27.0229   42.8769 H   0  0  0  0  0  0  0  0  0  0  0  0
   58.8558   28.3026   43.9627 H   0  0  0  0  0  0  0  0  0  0  0  0
   56.2710   27.1780   44.8920 H   0  0  0  0  0  0  0  0  0  0  0  0
   58.1068   25.1133   47.4077 H   0  0  0  0  0  0  0  0  0  0  0  0
   57.1169   26.5920   47.6749 H   0  0  0  0  0  0  0  0  0  0  0  0
   56.8435   23.0366   46.6745 H   0  0  0  0  0  0  0  0  0  0  0  0
   54.4110   22.5285   45.6313 H   0  0  0  0  0  0  0  0  0  0  0  0
   53.2809   24.9312   45.2123 H   0  0  0  0  0  0  0  0  0  0  0  0
  1  2  1  0
  2  3  1  0
  3  4  1  0
  4  5  2  0
  4  6  1  0
  6  7  2  0
  6  8  1  0
  8  9  1  0
  9 10  1  0
 10 11  1  0
 11 12  2  0
 11 13  1  0
 13 14  1  0
 14 15  1  0
 15 16  2  0
 16 17  1  0
 17 18  2  0
 18 14  1  0
  1 19  1  0
  1 20  1  0
  1 21  1  0
  2 22  1  0
  2 23  1  0
  8 24  1  0
  8 25  1  0
  9 26  1  0
  9 27  1  0
 10 28  1  0
 13 29  1  0
 13 30  1  0
 15 31  1  0
 16 32  1  0
 17 33  1  0
M  END
>  <UniqueID>  (39) 
33

>  <SMILES>  (39) 
CCOC(=O)C(=O)CCNC(=O)Cn1cccn1

>  <Energy>  (39) 
46.32865017011015

>  <Genealogy>  (39) 
CCOC(=O)C(=O)CCNC(=O)Cn1cccn1 (3D coordinates assigned)
CCOC(=O)C(=O)CCNC(=O)Cn1cccn1 (optimized conformer: 46.32865017011015 kcal/mol)

>  <smiles>  (39) 
CCOC(=O)C(=O)CCNC(=O)Cn1cccn1

>  <score_type>  (39) 
oracle

>  <origin>  (39) 
adg

>  <m_score__min__energy>  (39) 
-5.3200000000000003

>  <m_primary>  (39) 
energy

$$$$
39:0
     RDKit          3D

 43 45  0  0  0  0  0  0  0  0999 V2000
   63.3890   32.5790   47.1500 C   0  0  0  0  0  0  0  0  0  0  0  0
   62.5840   33.7480   47.0550 O   0  0  0  0  0  0  0  0  0  0  0  0
   61.8100   34.2190   48.1200 C   0  0  0  0  0  0  0  0  0  0  0  0
   62.3580   34.5700   49.1990 O   0  0  0  0  0  0  0  0  0  0  0  0
   60.3830   34.2600   48.0200 N   0  0  0  0  0  0  0  0  0  0  0  0
   59.5550   33.3010   47.3480 C   0  0  0  0  0  0  0  0  0  0  0  0
   58.6840   33.7500   46.3460 C   0  0  0  0  0  0  0  0  0  0  0  0
   57.8750   32.8440   45.6540 C   0  0  0  0  0  0  0  0  0  0  0  0
   57.9520   31.4740   45.9270 C   0  0  0  0  0  0  0  0  0  0  0  0
   57.0870   30.5760   45.2190 N   0  0  0  0  0  0  0  0  0  0  0  0
   57.2590   29.1590   45.0800 C   0  0  0  0  0  0  0  0  0  0  0  0
   57.3500   28.6690   43.9230 O   0  0  0  0  0  0  0  0  0  0  0  0
   57.3840   28.2520   46.2730 C   0  0  0  0  0  0  0  0  0  0  0  0
   57.2410   26.8540   45.8640 N   0  0  0  0  0  0  0  0  0  0  0  0
   56.0870   26.1590   45.7620 C   0  0  0  0  0  0  0  0  0  0  0  0
   54.8280   26.6950   46.0040 O   0  0  0  0  0  0  0  0  0  0  0  0
   56.3440   24.8520   45.3990 C   0  0  0  0  0  0  0  0  0  0  0  0
   57.7140   24.7300   45.3250 C   0  0  0  0  0  0  0  0  0  0  0  0
   58.2350   25.9790   45.5990 C   0  0  0  0  0  0  0  0  0  0  0  0
   59.5880   26.3020   45.6130 O   0  0  0  0  0  0  0  0  0  0  0  0
   58.4230   23.4740   44.9190 C   0  0  0  0  0  0  0  0  0  0  0  0
   57.4920   22.2560   45.0870 C   0  0  0  0  0  0  0  0  0  0  0  0
   56.0800   22.5300   44.5250 C   0  0  0  0  0  0  0  0  0  0  0  0
   55.3920   23.7050   45.2510 C   0  0  0  0  0  0  0  0  0  0  0  0
   58.8220   31.0200   46.9310 C   0  0  0  0  0  0  0  0  0  0  0  0
   59.6320   31.9240   47.6250 C   0  0  0  0  0  0  0  0  0  0  0  0
   63.5572   32.3347   48.2093 H   0  0  0  0  0  0  0  0  0  0  0  0
   62.8764   31.7398   46.6571 H   0  0  0  0  0  0  0  0  0  0  0  0
   64.3559   32.7585   46.6571 H   0  0  0  0  0  0  0  0  0  0  0  0
   58.6367   34.8217   46.1026 H   0  0  0  0  0  0  0  0  0  0  0  0
   57.1735   33.2105   44.8901 H   0  0  0  0  0  0  0  0  0  0  0  0
   58.3712   28.3956   46.7364 H   0  0  0  0  0  0  0  0  0  0  0  0
   56.5905   28.4973   46.9943 H   0  0  0  0  0  0  0  0  0  0  0  0
   58.7290   23.5543   43.8655 H   0  0  0  0  0  0  0  0  0  0  0  0
   59.3075   23.3394   45.5590 H   0  0  0  0  0  0  0  0  0  0  0  0
   57.9275   21.3988   44.5526 H   0  0  0  0  0  0  0  0  0  0  0  0
   57.3964   22.0452   46.1624 H   0  0  0  0  0  0  0  0  0  0  0  0
   56.1635   22.7723   43.4553 H   0  0  0  0  0  0  0  0  0  0  0  0
   55.4696   21.6281   44.6798 H   0  0  0  0  0  0  0  0  0  0  0  0
   54.5185   24.0311   44.6673 H   0  0  0  0  0  0  0  0  0  0  0  0
   55.0739   23.3721   46.2500 H   0  0  0  0  0  0  0  0  0  0  0  0
   58.8666   29.9478   47.1728 H   0  0  0  0  0  0  0  0  0  0  0  0
   60.3319   31.5572   48.3902 H   0  0  0  0  0  0  0  0  0  0  0  0
  1  2  1  0
  2  3  1  0
  3  4  2  0
  3  5  1  0
  5  6  1  0
  6  7  2  0
  7  8  1  0
  8  9  2  0
  9 10  1  0
 10 11  1  0
 11 12  2  0
 11 13  1  0
 13 14  1  0
 14 15  1  0
 15 16  1  0
 15 17  2  0
 17 18  1  0
 18 19  2  0
 19 20  1  0
 18 21  1  0
 21 22  1  0
 22 23  1  0
 23 24  1  0
  9 25  1  0
 25 26  2  0
 26  6  1  0
 19 14  1  0
 24 17  1  0
  1 27  1  0
  1 28  1  0
  1 29  1  0
  7 30  1  0
  8 31  1  0
 13 32  1  0
 13 33  1  0
 21 34  1  0
 21 35  1  0
 22 36  1  0
 22 37  1  0
 23 38  1  0
 23 39  1  0
 24 40  1  0
 24 41  1  0
 25 42  1  0
 26 43  1  0
M  CHG  4   5  -1  10  -1  16  -1  20  -1
M  END
>  <UniqueID>  (40) 
34

>  <SMILES>  (40) 
COC(=O)[N-]c1ccc([N-]C(=O)Cn2c([O-])c3c(c2[O-])CCCC3)cc1

>  <Energy>  (40) 
77.32203598378149

>  <Genealogy>  (40) 
COC(=O)[N-]c1ccc([N-]C(=O)Cn2c([O-])c3c(c2[O-])CCCC3)cc1 (protonated)
COC(=O)[N-]c1ccc([N-]C(=O)Cn2c([O-])c3c(c2[O-])CCCC3)cc1 (3D coordinates assigned)
COC(=O)[N-]c1ccc([N-]C(=O)Cn2c([O-])c3c(c2[O-])CCCC3)cc1 (nonaromatic ring conformer: 77.32203598378149 kcal/mol)

>  <smiles>  (40) 
COC(=O)Nc1ccc(NC(=O)Cn2c(O)c3c(c2O)CCCC3)cc1

>  <score_type>  (40) 
oracle

>  <origin>  (40) 
adg

>  <m_score__min__energy>  (40) 
-13.76

>  <m_primary>  (40) 
energy

$$$$
40:0
     RDKit          3D

 46 49  0  0  0  0  0  0  0  0999 V2000
   51.7720   21.5120   44.4970 H   0  0  0  0  0  0  0  0  0  0  0  0
   51.2800   22.3390   44.2560 O   0  0  0  0  0  0  0  0  0  0  0  0
   51.5080   23.2360   45.3080 C   0  0  0  0  0  0  0  0  0  0  0  0
   50.4837   23.3651   45.6875 H   0  0  0  0  0  0  0  0  0  0  0  0
   52.6720   22.8410   46.1600 C   0  0  0  0  0  0  0  0  0  0  0  0
   53.0830   21.8574   45.8886 H   0  0  0  0  0  0  0  0  0  0  0  0
   52.4865   22.7166   47.2371 H   0  0  0  0  0  0  0  0  0  0  0  0
   53.5460   23.9560   45.7520 N   0  0  0  0  0  0  0  0  0  0  0  0
   54.8610   24.4300   46.0330 C   0  0  0  0  0  0  0  0  0  0  0  0
   55.1500   25.7490   45.8860 N   0  0  0  0  0  0  0  0  0  0  0  0
   56.3950   26.2300   46.1450 C   0  0  0  0  0  0  0  0  0  0  0  0
   56.6320   27.4990   45.9930 N   0  0  0  0  0  0  0  0  0  0  0  0
   57.2730   28.0750   44.8150 C   0  0  0  0  0  0  0  0  0  0  0  0
   56.7245   27.7697   43.9117 H   0  0  0  0  0  0  0  0  0  0  0  0
   58.3114   27.7182   44.7482 H   0  0  0  0  0  0  0  0  0  0  0  0
   57.2610   29.5640   44.9270 C   0  0  0  0  0  0  0  0  0  0  0  0
   56.2230   30.3400   44.5630 N   0  0  0  0  0  0  0  0  0  0  0  0
   56.5510   31.5650   44.8540 O   0  0  0  0  0  0  0  0  0  0  0  0
   57.7420   31.6230   45.4070 C   0  0  0  0  0  0  0  0  0  0  0  0
   58.4030   32.8810   45.8190 C   0  0  0  0  0  0  0  0  0  0  0  0
   58.5600   33.8750   44.8410 C   0  0  0  0  0  0  0  0  0  0  0  0
   58.1504   33.7151   43.8327 H   0  0  0  0  0  0  0  0  0  0  0  0
   59.2280   35.0610   45.1320 C   0  0  0  0  0  0  0  0  0  0  0  0
   59.3341   35.8351   44.3577 H   0  0  0  0  0  0  0  0  0  0  0  0
   59.7620   35.2700   46.4000 C   0  0  0  0  0  0  0  0  0  0  0  0
   60.3070   36.2011   46.6147 H   0  0  0  0  0  0  0  0  0  0  0  0
   59.6120   34.3040   47.4080 C   0  0  0  0  0  0  0  0  0  0  0  0
   60.2010   34.5860   48.7660 C   0  0  0  0  0  0  0  0  0  0  0  0
   59.5013   34.2510   49.5459 H   0  0  0  0  0  0  0  0  0  0  0  0
   61.1537   34.0463   48.8717 H   0  0  0  0  0  0  0  0  0  0  0  0
   60.3780   35.6665   48.8717 H   0  0  0  0  0  0  0  0  0  0  0  0
   58.8770   33.1170   47.1410 C   0  0  0  0  0  0  0  0  0  0  0  0
   58.6030   32.1290   48.2540 C   0  0  0  0  0  0  0  0  0  0  0  0
   58.7405   32.6246   49.2263 H   0  0  0  0  0  0  0  0  0  0  0  0
   57.5692   31.7621   48.1724 H   0  0  0  0  0  0  0  0  0  0  0  0
   59.3002   31.2821   48.1724 H   0  0  0  0  0  0  0  0  0  0  0  0
   58.2570   30.3420   45.4780 C   0  0  0  0  0  0  0  0  0  0  0  0
   59.2296   30.0202   45.8786 H   0  0  0  0  0  0  0  0  0  0  0  0
   57.3740   25.3790   46.5600 N   0  0  0  0  0  0  0  0  0  0  0  0
   57.1270   24.0530   46.7200 C   0  0  0  0  0  0  0  0  0  0  0  0
   57.9302   23.3800   47.0547 H   0  0  0  0  0  0  0  0  0  0  0  0
   55.8560   23.5460   46.4600 C   0  0  0  0  0  0  0  0  0  0  0  0
   55.6403   22.4749   46.5877 H   0  0  0  0  0  0  0  0  0  0  0  0
   52.4090   24.3580   44.9040 C   0  0  0  0  0  0  0  0  0  0  0  0
   52.6525   24.3423   43.8314 H   0  0  0  0  0  0  0  0  0  0  0  0
   52.0248   25.3808   45.0317 H   0  0  0  0  0  0  0  0  0  0  0  0
  1  2  1  0
  2  3  1  0
  3  4  1  0
  3  5  1  0
  5  6  1  0
  5  7  1  0
  5  8  1  0
  8  9  1  0
  9 10  2  0
 10 11  1  0
 11 12  2  0
 12 13  1  0
 13 14  1  0
 13 15  1  0
 13 16  1  0
 16 17  2  0
 17 18  1  0
 18 19  1  0
 19 20  1  0
 20 21  2  0
 21 22  1  0
 21 23  1  0
 23 24  1  0
 23 25  2  0
 25 26  1  0
 25 27  1  0
 27 28  1  0
 28 29  1  0
 28 30  1  0
 28 31  1  0
 27 32  2  0
 32 33  1  0
 33 34  1  0
 33 35  1  0
 33 36  1  0
 19 37  2  0
 37 38  1  0
 11 39  1  0
 39 40  1  0
 40 41  1  0
 40 42  2  0
 42 43  1  0
  8 44  1  0
 44 45  1  0
 44 46  1  0
 44  3  1  0
 42  9  1  0
 37 16  1  0
 32 20  1  0
M  CHG  1  39  -1
M  END
>  <UniqueID>  (41) 
35

>  <SMILES>  (41) 
Cc1cccc(-c2cc(C/N=c3/nc(N4CC(O)C4)cc[n-]3)no2)c1C

>  <Energy>  (41) 
129.6227447298513

>  <Genealogy>  (41) 
Cc1cccc(-c2cc(CN=c3nc(N4CC(O)C4)cc[n-]3)no2)c1C (protonated)
Cc1cccc(-c2cc(C/N=c3/nc(N4CC(O)C4)cc[n-]3)no2)c1C (cis-trans isomerization)
Cc1cccc(-c2cc(C/N=c3/nc(N4CC(O)C4)cc[n-]3)no2)c1C (3D coordinates assigned)
Cc1cccc(-c2cc(C/N=c3/nc(N4CC(O)C4)cc[n-]3)no2)c1C (nonaromatic ring conformer: 129.6227447298513 kcal/mol)

>  <smiles>  (41) 
Cc1cccc(-c2cc(CN=c3nc(N4CC(O)C4)cc[nH]3)no2)c1C

>  <score_type>  (41) 
oracle

>  <origin>  (41) 
adg

>  <m_score__min__energy>  (41) 
-11.17

>  <m_primary>  (41) 
energy

$$$$
41:0
     RDKit          3D

 48 50  0  0  0  0  0  0  0  0999 V2000
   59.2100   28.3490   48.1580 C   0  0  0  0  0  0  0  0  0  0  0  0
   59.2370   28.4620   46.6620 C   0  0  0  0  0  0  0  0  0  0  0  0
   60.2730   28.9470   45.9960 C   0  0  0  0  0  0  0  0  0  0  0  0
   60.0410   28.9570   44.5280 C   0  0  0  0  0  0  0  0  0  0  0  0
   58.7030   28.2340   44.3500 C   0  0  0  0  0  0  0  0  0  0  0  0
   58.1180   28.0600   45.7590 C   0  0  2  0  0  0  0  0  0  0  0  0
   56.9790   28.9570   45.9400 N   0  0  0  0  0  0  0  0  0  0  0  0
   56.2210   29.5280   44.8680 C   0  0  0  0  0  0  0  0  0  0  0  0
   55.1420   28.9940   44.5010 O   0  0  0  0  0  0  0  0  0  0  0  0
   56.6510   30.7350   44.2320 N   0  0  0  0  0  0  0  0  0  0  0  0
   57.3790   31.8050   44.8530 C   0  0  0  0  0  0  0  0  0  0  0  0
   57.7970   31.7380   46.1950 C   0  0  0  0  0  0  0  0  0  0  0  0
   58.5070   32.8010   46.7630 C   0  0  0  0  0  0  0  0  0  0  0  0
   58.8170   33.9290   45.9960 C   0  0  0  0  0  0  0  0  0  0  0  0
   59.7070   35.3000   46.7320 S   0  0  0  0  0  0  0  0  0  0  0  0
   60.9140   34.2180   47.4980 C   0  0  0  0  0  0  0  0  0  0  0  0
   61.9600   33.6840   46.7370 C   0  0  0  0  0  0  0  0  0  0  0  0
   62.8960   32.8320   47.3320 C   0  0  0  0  0  0  0  0  0  0  0  0
   62.7980   32.5070   48.6910 C   0  0  0  0  0  0  0  0  0  0  0  0
   63.7770   31.6270   49.2590 N   0  0  0  0  0  0  0  0  0  0  0  0
   65.1250   32.1280   50.2260 S   0  0  0  0  0  0  0  0  0  0  0  0
   64.5260   33.0560   51.6190 C   0  0  0  0  0  0  0  0  0  0  0  0
   66.0400   32.9990   49.4130 O   0  0  0  0  0  0  0  0  0  0  0  0
   65.8740   30.9240   50.7240 O   0  0  0  0  0  0  0  0  0  0  0  0
   61.7450   33.0490   49.4540 C   0  0  0  0  0  0  0  0  0  0  0  0
   60.8120   33.9020   48.8580 C   0  0  0  0  0  0  0  0  0  0  0  0
   58.4340   33.9830   44.6510 C   0  0  0  0  0  0  0  0  0  0  0  0
   57.7240   32.9220   44.0810 C   0  0  0  0  0  0  0  0  0  0  0  0
   59.4437   29.3271   48.6039 H   0  0  0  0  0  0  0  0  0  0  0  0
   58.2097   28.0273   48.4834 H   0  0  0  0  0  0  0  0  0  0  0  0
   59.9568   27.6098   48.4834 H   0  0  0  0  0  0  0  0  0  0  0  0
   61.1983   29.3015   46.4736 H   0  0  0  0  0  0  0  0  0  0  0  0
   59.9796   29.9884   44.1505 H   0  0  0  0  0  0  0  0  0  0  0  0
   60.8568   28.4732   43.9709 H   0  0  0  0  0  0  0  0  0  0  0  0
   58.0246   28.8356   43.7273 H   0  0  0  0  0  0  0  0  0  0  0  0
   58.8357   27.2638   43.8490 H   0  0  0  0  0  0  0  0  0  0  0  0
   57.7584   27.0386   45.9526 H   0  0  0  0  0  0  0  0  0  0  0  0
   57.5650   30.8481   46.7985 H   0  0  0  0  0  0  0  0  0  0  0  0
   58.8224   32.7498   47.8156 H   0  0  0  0  0  0  0  0  0  0  0  0
   62.0461   33.9347   45.6694 H   0  0  0  0  0  0  0  0  0  0  0  0
   63.7151   32.4141   46.7284 H   0  0  0  0  0  0  0  0  0  0  0  0
   64.8432   32.5646   52.5507 H   0  0  0  0  0  0  0  0  0  0  0  0
   64.9367   34.0759   51.5841 H   0  0  0  0  0  0  0  0  0  0  0  0
   63.4275   33.1017   51.5841 H   0  0  0  0  0  0  0  0  0  0  0  0
   61.6569   32.8001   50.5218 H   0  0  0  0  0  0  0  0  0  0  0  0
   59.9947   34.3265   49.4596 H   0  0  0  0  0  0  0  0  0  0  0  0
   58.6920   34.8615   44.0414 H   0  0  0  0  0  0  0  0  0  0  0  0
   57.4347   32.9645   43.0206 H   0  0  0  0  0  0  0  0  0  0  0  0
  1  2  1  0
  2  3  2  0
  3  4  1  0
  4  5  1  0
  5  6  1  0
  6  7  1  0
  7  8  1  0
  8  9  2  0
  8 10  1  0
 10 11  1  0
 11 12  2  0
 12 13  1  0
 13 14  2  0
 14 15  1  0
 15 16  1  0
 16 17  2  0
 17 18  1  0
 18 19  2  0
 19 20  1  0
 20 21  1  0
 21 22  1  0
 21 23  2  0
 21 24  2  0
 19 25  1  0
 25 26  2  0
 14 27  1  0
 27 28  2  0
  6  2  1  0
 28 11  1  0
 26 16  1  0
  1 29  1  0
  1 30  1  0
  1 31  1  0
  3 32  1  0
  4 33  1  0
  4 34  1  0
  5 35  1  0
  5 36  1  0
  6 37  1  1
 12 38  1  0
 13 39  1  0
 17 40  1  0
 18 41  1  0
 22 42  1  0
 22 43  1  0
 22 44  1  0
 25 45  1  0
 26 46  1  0
 27 47  1  0
 28 48  1  0
M  CHG  3   7  -1  10  -1  20  -1
M  END
>  <UniqueID>  (42) 
36

>  <SMILES>  (42) 
CC1=CCC[C@@H]1[N-]C(=O)[N-]c1ccc(Sc2ccc([N-]S(C)(=O)=O)cc2)cc1

>  <Energy>  (42) 
46.99773702721154

>  <Genealogy>  (42) 
CC1=CCCC1[N-]C(=O)[N-]c1ccc(Sc2ccc([N-]S(C)(=O)=O)cc2)cc1 (protonated)
CC1=CCC[C@@H]1[N-]C(=O)[N-]c1ccc(Sc2ccc([N-]S(C)(=O)=O)cc2)cc1 (chirality)
CC1=CCC[C@@H]1[N-]C(=O)[N-]c1ccc(Sc2ccc([N-]S(C)(=O)=O)cc2)cc1 (3D coordinates assigned)
CC1=CCC[C@@H]1[N-]C(=O)[N-]c1ccc(Sc2ccc([N-]S(C)(=O)=O)cc2)cc1 (nonaromatic ring conformer: 46.99773702721154 kcal/mol)

>  <smiles>  (42) 
CC1=CCCC1NC(=O)Nc1ccc(Sc2ccc(NS(C)(=O)=O)cc2)cc1

>  <score_type>  (42) 
oracle

>  <origin>  (42) 
adg

>  <m_score__min__energy>  (42) 
-13.050000000000001

>  <m_primary>  (42) 
energy

$$$$
42:0
     RDKit          3D

 64 68  0  0  0  0  0  0  0  0999 V2000
   60.1310   27.5020   47.3290 O   0  0  0  0  0  0  0  0  0  0  0  0
   59.0880   28.0700   46.9110 C   0  0  0  0  0  0  0  0  0  0  0  0
   57.7450   27.5270   47.3110 C   0  0  0  0  0  0  0  0  0  0  0  0
   57.4560   26.3010   46.5670 N   0  0  0  0  0  0  0  0  0  0  0  0
   58.3270   25.3150   46.2600 C   0  0  0  0  0  0  0  0  0  0  0  0
   59.6500   25.2790   46.6830 O   0  0  0  0  0  0  0  0  0  0  0  0
   57.7150   24.3660   45.4650 C   0  0  0  0  0  0  0  0  0  0  0  0
   56.4100   24.7740   45.3010 C   0  0  0  0  0  0  0  0  0  0  0  0
   56.2910   25.9800   45.9620 C   0  0  0  0  0  0  0  0  0  0  0  0
   55.1510   26.7760   45.9890 O   0  0  0  0  0  0  0  0  0  0  0  0
   55.4190   24.0720   44.4250 C   0  0  0  0  0  0  0  0  0  0  0  0
   55.8690   22.6200   44.1670 C   0  0  0  0  0  0  0  0  0  0  0  0
   57.3670   22.5420   43.8000 C   0  0  0  0  0  0  0  0  0  0  0  0
   58.2640   23.0760   44.9350 C   0  0  0  0  0  0  0  0  0  0  0  0
   59.2200   29.1940   46.0310 N   0  0  0  0  0  0  0  0  0  0  0  0
   59.0690   30.5750   46.3910 C   0  0  0  0  0  0  0  0  0  0  0  0
   59.7460   31.1070   47.5010 C   0  0  0  0  0  0  0  0  0  0  0  0
   59.6720   32.4760   47.7910 C   0  0  0  0  0  0  0  0  0  0  0  0
   60.5440   33.1370   49.1720 S   0  0  0  0  0  0  0  0  0  0  0  0
   59.6370   34.0810   49.9110 O   0  0  0  0  0  0  0  0  0  0  0  0
   60.9020   32.0180   50.1110 O   0  0  0  0  0  0  0  0  0  0  0  0
   62.0000   33.9940   48.7020 N   0  0  0  0  0  0  0  0  0  0  0  0
   63.1300   33.7410   49.6160 C   0  0  0  0  0  0  0  0  0  0  0  0
   63.9020   32.4420   49.2860 C   0  0  0  0  0  0  0  0  0  0  0  0
   63.4420   31.8090   48.1100 O   0  0  0  0  0  0  0  0  0  0  0  0
   63.4260   32.7380   47.0520 C   0  0  0  0  0  0  0  0  0  0  0  0
   62.3380   33.8020   47.2760 C   0  0  0  0  0  0  0  0  0  0  0  0
   58.9230   33.3180   46.9610 C   0  0  0  0  0  0  0  0  0  0  0  0
   58.2600   32.8000   45.8480 C   0  0  0  0  0  0  0  0  0  0  0  0
   58.3290   31.4310   45.5540 C   0  0  0  0  0  0  0  0  0  0  0  0
   57.6230   30.9100   44.4190 N   0  0  0  0  0  0  0  0  0  0  0  0
   56.5980   29.8860   44.5260 C   0  0  0  0  0  0  0  0  0  0  0  0
   56.1390   29.6230   43.0990 C   0  0  0  0  0  0  0  0  0  0  0  0
   56.6210   30.8180   42.2760 C   0  0  0  0  0  0  0  0  0  0  0  0
   57.7400   31.4630   43.0830 C   0  0  0  0  0  0  0  0  0  0  0  0
   57.7482   27.3063   48.3886 H   0  0  0  0  0  0  0  0  0  0  0  0
   56.9720   28.2761   47.0844 H   0  0  0  0  0  0  0  0  0  0  0  0
   54.4370   24.0652   44.9207 H   0  0  0  0  0  0  0  0  0  0  0  0
   55.3515   24.6024   43.4637 H   0  0  0  0  0  0  0  0  0  0  0  0
   55.6934   22.0257   45.0758 H   0  0  0  0  0  0  0  0  0  0  0  0
   55.2879   22.2267   43.3199 H   0  0  0  0  0  0  0  0  0  0  0  0
   57.6307   21.4926   43.6017 H   0  0  0  0  0  0  0  0  0  0  0  0
   57.5337   23.1669   42.9102 H   0  0  0  0  0  0  0  0  0  0  0  0
   58.3011   22.3357   45.7477 H   0  0  0  0  0  0  0  0  0  0  0  0
   59.2757   23.2515   44.5406 H   0  0  0  0  0  0  0  0  0  0  0  0
   60.3390   30.4436   48.1477 H   0  0  0  0  0  0  0  0  0  0  0  0
   63.8282   34.5885   49.5515 H   0  0  0  0  0  0  0  0  0  0  0  0
   62.7127   33.6252   50.6272 H   0  0  0  0  0  0  0  0  0  0  0  0
   64.9659   32.6899   49.1572 H   0  0  0  0  0  0  0  0  0  0  0  0
   63.7407   31.7431   50.1199 H   0  0  0  0  0  0  0  0  0  0  0  0
   64.4068   33.2323   46.9912 H   0  0  0  0  0  0  0  0  0  0  0  0
   63.2084   32.2027   46.1160 H   0  0  0  0  0  0  0  0  0  0  0  0
   62.6954   34.7594   46.8689 H   0  0  0  0  0  0  0  0  0  0  0  0
   61.4275   33.4525   46.7672 H   0  0  0  0  0  0  0  0  0  0  0  0
   58.8568   34.3925   47.1871 H   0  0  0  0  0  0  0  0  0  0  0  0
   57.6794   33.4701   45.1970 H   0  0  0  0  0  0  0  0  0  0  0  0
   57.0139   28.9702   44.9715 H   0  0  0  0  0  0  0  0  0  0  0  0
   55.7662   30.2056   45.1709 H   0  0  0  0  0  0  0  0  0  0  0  0
   56.5852   28.6921   42.7191 H   0  0  0  0  0  0  0  0  0  0  0  0
   55.0466   29.5075   43.0413 H   0  0  0  0  0  0  0  0  0  0  0  0
   56.9997   30.4813   41.2997 H   0  0  0  0  0  0  0  0  0  0  0  0
   55.8039   31.5286   42.0828 H   0  0  0  0  0  0  0  0  0  0  0  0
   58.7196   31.2146   42.6486 H   0  0  0  0  0  0  0  0  0  0  0  0
   57.6600   32.5601   43.0871 H   0  0  0  0  0  0  0  0  0  0  0  0
  1  2  2  0
  2  3  1  0
  3  4  1  0
  4  5  1  0
  5  6  1  0
  5  7  2  0
  7  8  1  0
  8  9  2  0
  9 10  1  0
  8 11  1  0
 11 12  1  0
 12 13  1  0
 13 14  1  0
  2 15  1  0
 15 16  1  0
 16 17  2  0
 17 18  1  0
 18 19  1  0
 19 20  2  0
 19 21  2  0
 19 22  1  0
 22 23  1  0
 23 24  1  0
 24 25  1  0
 25 26  1  0
 26 27  1  0
 18 28  2  0
 28 29  1  0
 29 30  2  0
 30 31  1  0
 31 32  1  0
 32 33  1  0
 33 34  1  0
 34 35  1  0
  9  4  1  0
 30 16  1  0
 35 31  1  0
 14  7  1  0
 27 22  1  0
  3 36  1  0
  3 37  1  0
 11 38  1  0
 11 39  1  0
 12 40  1  0
 12 41  1  0
 13 42  1  0
 13 43  1  0
 14 44  1  0
 14 45  1  0
 17 46  1  0
 23 47  1  0
 23 48  1  0
 24 49  1  0
 24 50  1  0
 26 51  1  0
 26 52  1  0
 27 53  1  0
 27 54  1  0
 28 55  1  0
 29 56  1  0
 32 57  1  0
 32 58  1  0
 33 59  1  0
 33 60  1  0
 34 61  1  0
 34 62  1  0
 35 63  1  0
 35 64  1  0
M  CHG  3   6  -1  10  -1  15  -1
M  END
>  <UniqueID>  (43) 
37

>  <SMILES>  (43) 
O=C(Cn1c([O-])c2c(c1[O-])CCCC2)[N-]c1cc(S(=O)(=O)N2CCOCC2)ccc1N1CCCC1

>  <Energy>  (43) 
113.9962496903241

>  <Genealogy>  (43) 
O=C(Cn1c([O-])c2c(c1[O-])CCCC2)[N-]c1cc(S(=O)(=O)N2CCOCC2)ccc1N1CCCC1 (protonated)
O=C(Cn1c([O-])c2c(c1[O-])CCCC2)[N-]c1cc(S(=O)(=O)N2CCOCC2)ccc1N1CCCC1 (3D coordinates assigned)
O=C(Cn1c([O-])c2c(c1[O-])CCCC2)[N-]c1cc(S(=O)(=O)N2CCOCC2)ccc1N1CCCC1 (nonaromatic ring conformer: 113.9962496903241 kcal/mol)

>  <smiles>  (43) 
O=C(Cn1c(O)c2c(c1O)CCCC2)Nc1cc(S(=O)(=O)N2CCOCC2)ccc1N1CCCC1

>  <score_type>  (43) 
oracle

>  <origin>  (43) 
adg

>  <m_score__min__energy>  (43) 
-15.91

>  <m_primary>  (43) 
energy

$$$$
43:0
     RDKit          3D

 44 46  0  0  0  0  0  0  0  0999 V2000
   55.4880   29.0960   45.1630 N   0  0  0  0  0  0  0  0  0  0  0  0
   56.9580   29.8760   44.6990 S   0  0  0  0  0  0  0  0  0  0  0  0
   56.6880   31.3430   44.5080 O   0  0  0  0  0  0  0  0  0  0  0  0
   57.4410   29.3160   43.3930 O   0  0  0  0  0  0  0  0  0  0  0  0
   58.1710   29.6500   45.9730 C   0  0  0  0  0  0  0  0  0  0  0  0
   58.9810   30.7490   46.3170 C   0  0  0  0  0  0  0  0  0  0  0  0
   59.9240   30.6490   47.3410 C   0  0  0  0  0  0  0  0  0  0  0  0
   60.0640   29.4560   48.0460 C   0  0  0  0  0  0  0  0  0  0  0  0
   59.2620   28.3590   47.7290 C   0  0  0  0  0  0  0  0  0  0  0  0
   58.3180   28.4370   46.6960 C   0  0  0  0  0  0  0  0  0  0  0  0
   57.4120   26.9670   46.3300 S   0  0  0  0  0  0  0  0  0  0  0  0
   57.1950   26.6890   44.6900 O   0  0  0  0  0  0  0  0  0  0  0  0
   57.9970   25.5400   47.2210 C   0  0  0  0  0  0  0  0  0  0  0  0
   57.9070   24.3180   46.3400 C   0  0  0  0  0  0  0  0  0  0  0  0
   59.0350   23.9820   45.5690 C   0  0  0  0  0  0  0  0  0  0  0  0
   59.0150   22.8820   44.7120 C   0  0  0  0  0  0  0  0  0  0  0  0
   57.8640   22.1000   44.6030 C   0  0  0  0  0  0  0  0  0  0  0  0
   57.8210   21.0190   43.7250 O   0  0  0  0  0  0  0  0  0  0  0  0
   56.7430   22.4030   45.3790 C   0  0  0  0  0  0  0  0  0  0  0  0
   56.7540   23.4810   46.2870 C   0  0  0  0  0  0  0  0  0  0  0  0
   55.5020   23.7620   47.1050 C   0  0  0  0  0  0  0  0  0  0  0  0
   54.2450   23.7360   46.2580 C   0  0  0  0  0  0  0  0  0  0  0  0
   53.7510   24.9020   45.6410 C   0  0  0  0  0  0  0  0  0  0  0  0
   54.3950   26.1220   45.8050 O   0  0  0  0  0  0  0  0  0  0  0  0
   52.6310   24.8430   44.8730 N   0  0  0  0  0  0  0  0  0  0  0  0
   51.9700   23.6730   44.6830 C   0  0  0  0  0  0  0  0  0  0  0  0
   50.9340   23.6450   43.9680 O   0  0  0  0  0  0  0  0  0  0  0  0
   52.4250   22.5340   45.2640 N   0  0  0  0  0  0  0  0  0  0  0  0
   53.5390   22.5370   46.0430 C   0  0  0  0  0  0  0  0  0  0  0  0
   53.9270   21.4600   46.5690 O   0  0  0  0  0  0  0  0  0  0  0  0
   55.5810   28.0870   44.9050 H   0  0  0  0  0  0  0  0  0  0  0  0
   58.8692   31.6980   45.7721 H   0  0  0  0  0  0  0  0  0  0  0  0
   60.5571   31.5130   47.5915 H   0  0  0  0  0  0  0  0  0  0  0  0
   60.8073   29.3785   48.8532 H   0  0  0  0  0  0  0  0  0  0  0  0
   59.3719   27.4228   48.2960 H   0  0  0  0  0  0  0  0  0  0  0  0
   56.6710   27.4670   44.3720 H   0  0  0  0  0  0  0  0  0  0  0  0
   59.0437   25.6992   47.5196 H   0  0  0  0  0  0  0  0  0  0  0  0
   57.3761   25.3900   48.1165 H   0  0  0  0  0  0  0  0  0  0  0  0
   59.9451   24.5954   45.6432 H   0  0  0  0  0  0  0  0  0  0  0  0
   59.9079   22.6302   44.1209 H   0  0  0  0  0  0  0  0  0  0  0  0
   57.8130   20.0630   44.0620 H   0  0  0  0  0  0  0  0  0  0  0  0
   55.8354   21.7895   45.2798 H   0  0  0  0  0  0  0  0  0  0  0  0
   55.4145   22.9983   47.8919 H   0  0  0  0  0  0  0  0  0  0  0  0
   55.5988   24.7704   47.5337 H   0  0  0  0  0  0  0  0  0  0  0  0
  1  2  1  0
  2  3  2  0
  2  4  2  0
  2  5  1  0
  5  6  2  0
  6  7  1  0
  7  8  2  0
  8  9  1  0
  9 10  2  0
 10 11  1  0
 11 12  1  6
 11 13  1  0
 13 14  1  0
 14 15  2  0
 15 16  1  0
 16 17  2  0
 17 18  1  0
 17 19  1  0
 19 20  2  0
 20 21  1  0
 21 22  1  0
 22 23  2  0
 23 24  1  0
 23 25  1  0
 25 26  1  0
 26 27  2  0
 26 28  1  0
 28 29  1  0
 29 30  2  0
 10  5  1  0
 20 14  1  0
 29 22  1  0
  1 31  1  0
  6 32  1  0
  7 33  1  0
  8 34  1  0
  9 35  1  0
 12 36  1  0
 13 37  1  0
 13 38  1  0
 15 39  1  0
 16 40  1  0
 18 41  1  0
 19 42  1  0
 21 43  1  0
 21 44  1  0
M  CHG  5   1  -1  11   1  24  -1  25  -1  28  -1
M  END
>  <UniqueID>  (44) 
38

>  <SMILES>  (44) 
[NH-]S(=O)(=O)c1ccccc1[S@@+](O)Cc1ccc(O)cc1Cc1c([O-])[n-]c(=O)[n-]c1=O

>  <Energy>  (44) 
49.549989319574536

>  <Genealogy>  (44) 
[NH-]S(=O)(=O)c1ccccc1[S+](O)Cc1ccc(O)cc1Cc1c([O-])[n-]c(=O)[n-]c1=O (protonated)
[NH-]S(=O)(=O)c1ccccc1[S@@+](O)Cc1ccc(O)cc1Cc1c([O-])[n-]c(=O)[n-]c1=O (chirality)
[NH-]S(=O)(=O)c1ccccc1[S@@+](O)Cc1ccc(O)cc1Cc1c([O-])[n-]c(=O)[n-]c1=O (3D coordinates assigned)
[NH-]S(=O)(=O)c1ccccc1[S@@+](O)Cc1ccc(O)cc1Cc1c([O-])[n-]c(=O)[n-]c1=O (optimized conformer: 49.549989319574536 kcal/mol)

>  <smiles>  (44) 
NS(=O)(=O)c1ccccc1[S+]([O-])Cc1ccc(O)cc1Cc1c(O)[nH]c(=O)[nH]c1=O

>  <score_type>  (44) 
oracle

>  <origin>  (44) 
adg

>  <m_score__min__energy>  (44) 
-15.449999999999999

>  <m_primary>  (44) 
energy

$$$$
44:0
     RDKit          3D

 48 49  0  0  0  0  0  0  0  0999 V2000
   59.2560   22.5910   45.1080 C   0  0  0  0  0  0  0  0  0  0  0  0
   58.9170   23.9860   45.6230 C   0  0  0  0  0  0  0  0  0  0  0  0
   57.5210   24.3360   45.3010 N   0  0  0  0  0  0  0  0  0  0  0  0
   57.3180   24.6880   43.8800 C   0  0  0  0  0  0  0  0  0  0  0  0
   56.5430   23.6350   43.0800 C   0  0  0  0  0  0  0  0  0  0  0  0
   56.8070   25.4960   46.4140 S   0  0  0  0  0  0  0  0  0  0  0  0
   57.1390   25.0820   47.8200 O   0  0  0  0  0  0  0  0  0  0  0  0
   55.3090   25.4660   46.2790 O   0  0  0  0  0  0  0  0  0  0  0  0
   57.3660   27.1590   46.1820 C   0  0  0  0  0  0  0  0  0  0  0  0
   57.0490   27.8520   45.0040 C   0  0  0  0  0  0  0  0  0  0  0  0
   57.5040   29.1590   44.8070 C   0  0  0  0  0  0  0  0  0  0  0  0
   58.3130   29.7830   45.7670 C   0  0  0  0  0  0  0  0  0  0  0  0
   58.7470   31.1360   45.5480 N   0  0  0  0  0  0  0  0  0  0  0  0
   57.9160   32.1730   45.0050 C   0  0  0  0  0  0  0  0  0  0  0  0
   56.6730   32.0000   44.8740 O   0  0  0  0  0  0  0  0  0  0  0  0
   58.5100   33.5030   44.6630 C   0  0  0  0  0  0  0  0  0  0  0  0
   58.6680   34.5390   46.1580 S   0  0  0  0  0  0  0  0  0  0  0  0
   59.9880   33.5640   46.8740 C   0  0  0  0  0  0  0  0  0  0  0  0
   59.6950   32.5460   47.7260 N   0  0  0  0  0  0  0  0  0  0  0  0
   60.6840   31.8010   48.2860 C   0  0  0  0  0  0  0  0  0  0  0  0
   62.0180   32.0750   47.9850 C   0  0  0  0  0  0  0  0  0  0  0  0
   62.3020   33.1160   47.0950 C   0  0  0  0  0  0  0  0  0  0  0  0
   63.7160   33.4600   46.7560 C   0  0  0  0  0  0  0  0  0  0  0  0
   61.2810   33.8420   46.5640 N   0  0  0  0  0  0  0  0  0  0  0  0
   58.6370   29.0850   46.9440 C   0  0  0  0  0  0  0  0  0  0  0  0
   58.1810   27.7790   47.1400 C   0  0  0  0  0  0  0  0  0  0  0  0
   59.4202   21.9153   45.9604 H   0  0  0  0  0  0  0  0  0  0  0  0
   58.4234   22.2137   44.4961 H   0  0  0  0  0  0  0  0  0  0  0  0
   60.1689   22.6379   44.4961 H   0  0  0  0  0  0  0  0  0  0  0  0
   59.0529   24.0109   46.7143 H   0  0  0  0  0  0  0  0  0  0  0  0
   59.5846   24.7136   45.1384 H   0  0  0  0  0  0  0  0  0  0  0  0
   56.7610   25.6354   43.8348 H   0  0  0  0  0  0  0  0  0  0  0  0
   58.3168   24.7609   43.4250 H   0  0  0  0  0  0  0  0  0  0  0  0
   56.0368   22.9472   43.7733 H   0  0  0  0  0  0  0  0  0  0  0  0
   55.7947   24.1335   42.4463 H   0  0  0  0  0  0  0  0  0  0  0  0
   57.2414   23.0687   42.4463 H   0  0  0  0  0  0  0  0  0  0  0  0
   56.4384   27.3636   44.2303 H   0  0  0  0  0  0  0  0  0  0  0  0
   57.2252   29.7020   43.8919 H   0  0  0  0  0  0  0  0  0  0  0  0
   59.7000   31.4060   45.8850 H   0  0  0  0  0  0  0  0  0  0  0  0
   59.5059   33.3514   44.2212 H   0  0  0  0  0  0  0  0  0  0  0  0
   57.8496   34.0128   43.9461 H   0  0  0  0  0  0  0  0  0  0  0  0
   60.4326   30.9823   48.9763 H   0  0  0  0  0  0  0  0  0  0  0  0
   62.8289   31.4854   48.4376 H   0  0  0  0  0  0  0  0  0  0  0  0
   64.2916   33.6000   47.6829 H   0  0  0  0  0  0  0  0  0  0  0  0
   64.1610   32.6439   46.1678 H   0  0  0  0  0  0  0  0  0  0  0  0
   63.7364   34.3893   46.1678 H   0  0  0  0  0  0  0  0  0  0  0  0
   59.2533   29.5703   47.7152 H   0  0  0  0  0  0  0  0  0  0  0  0
   58.4633   27.2332   48.0524 H   0  0  0  0  0  0  0  0  0  0  0  0
  1  2  1  0
  2  3  1  0
  3  4  1  0
  4  5  1  0
  3  6  1  0
  6  7  2  0
  6  8  2  0
  6  9  1  0
  9 10  2  0
 10 11  1  0
 11 12  2  0
 12 13  1  0
 13 14  1  0
 14 15  2  0
 14 16  1  0
 16 17  1  0
 17 18  1  0
 18 19  2  0
 19 20  1  0
 20 21  2  0
 21 22  1  0
 22 23  1  0
 22 24  2  0
 12 25  1  0
 25 26  2  0
 26  9  1  0
 24 18  1  0
  1 27  1  0
  1 28  1  0
  1 29  1  0
  2 30  1  0
  2 31  1  0
  4 32  1  0
  4 33  1  0
  5 34  1  0
  5 35  1  0
  5 36  1  0
 10 37  1  0
 11 38  1  0
 13 39  1  0
 16 40  1  0
 16 41  1  0
 20 42  1  0
 21 43  1  0
 23 44  1  0
 23 45  1  0
 23 46  1  0
 25 47  1  0
 26 48  1  0
M  END
>  <UniqueID>  (45) 
39

>  <SMILES>  (45) 
CCN(CC)S(=O)(=O)c1ccc(NC(=O)CSc2nccc(C)n2)cc1

>  <Energy>  (45) 
46.67228959876766

>  <Genealogy>  (45) 
CCN(CC)S(=O)(=O)c1ccc(NC(=O)CSc2nccc(C)n2)cc1 (3D coordinates assigned)
CCN(CC)S(=O)(=O)c1ccc(NC(=O)CSc2nccc(C)n2)cc1 (optimized conformer: 46.67228959876766 kcal/mol)

>  <smiles>  (45) 
CCN(CC)S(=O)(=O)c1ccc(NC(=O)CSc2nccc(C)n2)cc1

>  <score_type>  (45) 
oracle

>  <origin>  (45) 
adg

>  <m_score__min__energy>  (45) 
-7.9000000000000004

>  <m_primary>  (45) 
energy

$$$$
45:0
     RDKit          3D

 56 59  0  0  0  0  0  0  0  0999 V2000
   61.0880   34.9590   48.9740 O   0  0  0  0  0  0  0  0  0  0  0  0
   60.3050   33.9720   49.0120 C   0  0  0  0  0  0  0  0  0  0  0  0
   60.1660   33.2620   50.2520 N   0  0  0  0  0  0  0  0  0  0  0  0
   60.0270   31.8440   50.4160 C   0  0  0  0  0  0  0  0  0  0  0  0
   58.8690   31.3670   51.0420 C   0  0  0  0  0  0  0  0  0  0  0  0
   58.7000   30.0030   51.2790 C   0  0  0  0  0  0  0  0  0  0  0  0
   59.6810   29.0980   50.8760 C   0  0  0  0  0  0  0  0  0  0  0  0
   60.8250   29.5530   50.2200 C   0  0  0  0  0  0  0  0  0  0  0  0
   61.0110   30.9240   49.9670 C   0  0  0  0  0  0  0  0  0  0  0  0
   62.1450   31.3520   49.1860 N   0  0  0  0  0  0  0  0  0  0  0  0
   63.3190   31.9370   49.8430 C   0  0  0  0  0  0  0  0  0  0  0  0
   63.7520   33.2020   49.0910 C   0  0  0  0  0  0  0  0  0  0  0  0
   63.9290   33.0040   47.6340 N   0  0  0  0  0  0  0  0  0  0  0  0
   63.4330   31.7180   47.1170 C   0  0  0  0  0  0  0  0  0  0  0  0
   62.0710   31.3600   47.7200 C   0  0  0  0  0  0  0  0  0  0  0  0
   59.5860   33.5740   47.7790 C   0  0  0  0  0  0  0  0  0  0  0  0
   58.4820   32.7100   47.8660 C   0  0  0  0  0  0  0  0  0  0  0  0
   57.8060   32.3050   46.7120 C   0  0  0  0  0  0  0  0  0  0  0  0
   58.2120   32.7700   45.4530 C   0  0  0  0  0  0  0  0  0  0  0  0
   57.4650   32.3490   44.2220 C   0  0  0  0  0  0  0  0  0  0  0  0
   56.3010   31.5610   44.6130 N   0  0  0  0  0  0  0  0  0  0  0  0
   56.6220   29.8720   44.3660 S   0  0  0  0  0  0  0  0  0  0  0  0
   55.4630   29.0660   44.8790 O   0  0  0  0  0  0  0  0  0  0  0  0
   56.7770   29.6000   42.8940 O   0  0  0  0  0  0  0  0  0  0  0  0
   58.0780   29.3940   45.2360 C   0  0  0  0  0  0  0  0  0  0  0  0
   59.3170   29.4140   44.5800 C   0  0  0  0  0  0  0  0  0  0  0  0
   60.4760   29.0180   45.2540 C   0  0  0  0  0  0  0  0  0  0  0  0
   60.4020   28.5950   46.5840 C   0  0  0  0  0  0  0  0  0  0  0  0
   59.1680   28.5680   47.2410 C   0  0  0  0  0  0  0  0  0  0  0  0
   58.0080   28.9640   46.5700 C   0  0  0  0  0  0  0  0  0  0  0  0
   59.2840   33.6710   45.3670 C   0  0  0  0  0  0  0  0  0  0  0  0
   59.9640   34.0730   46.5200 C   0  0  0  0  0  0  0  0  0  0  0  0
   58.0851   32.0747   51.3498 H   0  0  0  0  0  0  0  0  0  0  0  0
   57.7923   29.6411   51.7841 H   0  0  0  0  0  0  0  0  0  0  0  0
   59.5528   28.0239   51.0755 H   0  0  0  0  0  0  0  0  0  0  0  0
   61.5900   28.8316   49.8970 H   0  0  0  0  0  0  0  0  0  0  0  0
   63.0659   32.1969   50.8814 H   0  0  0  0  0  0  0  0  0  0  0  0
   64.1427   31.2079   49.8364 H   0  0  0  0  0  0  0  0  0  0  0  0
   62.9852   33.9756   49.2446 H   0  0  0  0  0  0  0  0  0  0  0  0
   64.7330   33.4930   49.4948 H   0  0  0  0  0  0  0  0  0  0  0  0
   64.9510   33.0650   47.4090 H   0  0  0  0  0  0  0  0  0  0  0  0
   63.3333   31.7865   46.0237 H   0  0  0  0  0  0  0  0  0  0  0  0
   64.1516   30.9331   47.3955 H   0  0  0  0  0  0  0  0  0  0  0  0
   61.3262   32.1031   47.3990 H   0  0  0  0  0  0  0  0  0  0  0  0
   61.7800   30.3577   47.3726 H   0  0  0  0  0  0  0  0  0  0  0  0
   58.1471   32.3495   48.8498 H   0  0  0  0  0  0  0  0  0  0  0  0
   56.9508   31.6178   46.7917 H   0  0  0  0  0  0  0  0  0  0  0  0
   57.1364   33.2407   43.6681 H   0  0  0  0  0  0  0  0  0  0  0  0
   58.1220   31.7440   43.5799 H   0  0  0  0  0  0  0  0  0  0  0  0
   59.3773   29.7423   43.5319 H   0  0  0  0  0  0  0  0  0  0  0  0
   61.4468   29.0393   44.7372 H   0  0  0  0  0  0  0  0  0  0  0  0
   61.3143   28.2834   47.1138 H   0  0  0  0  0  0  0  0  0  0  0  0
   59.1103   28.2345   48.2876 H   0  0  0  0  0  0  0  0  0  0  0  0
   57.0382   28.9386   47.0884 H   0  0  0  0  0  0  0  0  0  0  0  0
   59.5911   34.0634   44.3863 H   0  0  0  0  0  0  0  0  0  0  0  0
   60.7998   34.7839   46.4420 H   0  0  0  0  0  0  0  0  0  0  0  0
  1  2  2  0
  2  3  1  0
  3  4  1  0
  4  5  2  0
  5  6  1  0
  6  7  2  0
  7  8  1  0
  8  9  2  0
  9 10  1  0
 10 11  1  0
 11 12  1  0
 12 13  1  0
 13 14  1  0
 14 15  1  0
  2 16  1  0
 16 17  2  0
 17 18  1  0
 18 19  2  0
 19 20  1  0
 20 21  1  0
 21 22  1  0
 22 23  2  0
 22 24  2  0
 22 25  1  0
 25 26  2  0
 26 27  1  0
 27 28  2  0
 28 29  1  0
 29 30  2  0
 19 31  1  0
 31 32  2  0
  9  4  1  0
 15 10  1  0
 32 16  1  0
 30 25  1  0
  5 33  1  0
  6 34  1  0
  7 35  1  0
  8 36  1  0
 11 37  1  0
 11 38  1  0
 12 39  1  0
 12 40  1  0
 13 41  1  0
 14 42  1  0
 14 43  1  0
 15 44  1  0
 15 45  1  0
 17 46  1  0
 18 47  1  0
 20 48  1  0
 20 49  1  0
 26 50  1  0
 27 51  1  0
 28 52  1  0
 29 53  1  0
 30 54  1  0
 31 55  1  0
 32 56  1  0
M  CHG  2   3  -1  21  -1
M  END
>  <UniqueID>  (46) 
40

>  <SMILES>  (46) 
O=C([N-]c1ccccc1N1CCNCC1)c1ccc(C[N-]S(=O)(=O)c2ccccc2)cc1

>  <Energy>  (46) 
73.14912730968057

>  <Genealogy>  (46) 
O=C([N-]c1ccccc1N1CCNCC1)c1ccc(C[N-]S(=O)(=O)c2ccccc2)cc1 (protonated)
O=C([N-]c1ccccc1N1CCNCC1)c1ccc(C[N-]S(=O)(=O)c2ccccc2)cc1 (3D coordinates assigned)
O=C([N-]c1ccccc1N1CCNCC1)c1ccc(C[N-]S(=O)(=O)c2ccccc2)cc1 (nonaromatic ring conformer: 73.14912730968057 kcal/mol)

>  <smiles>  (46) 
O=C(Nc1ccccc1N1CCNCC1)c1ccc(CNS(=O)(=O)c2ccccc2)cc1

>  <score_type>  (46) 
oracle

>  <origin>  (46) 
adg

>  <m_score__min__energy>  (46) 
-12.19

>  <m_primary>  (46) 
energy

$$$$
46:0
     RDKit          3D

 55 58  0  0  0  0  0  0  0  0999 V2000
   57.3370   33.4040   46.5600 C   0  0  0  0  0  0  0  0  0  0  0  0
   58.5570   34.0090   46.0190 N   0  0  0  0  0  0  0  0  0  0  0  0
   58.6510   34.3060   44.5830 C   0  0  0  0  0  0  0  0  0  0  0  0
   59.6890   34.3090   46.8650 C   0  0  0  0  0  0  0  0  0  0  0  0
   60.7040   34.8720   46.3670 O   0  0  0  0  0  0  0  0  0  0  0  0
   59.7300   33.9490   48.3300 C   0  0  0  0  0  0  0  0  0  0  0  0
   59.7140   32.4500   48.5190 C   0  0  0  0  0  0  0  0  0  0  0  0
   58.7500   31.8550   49.3480 C   0  0  0  0  0  0  0  0  0  0  0  0
   58.7480   30.4730   49.5550 C   0  0  0  0  0  0  0  0  0  0  0  0
   59.7110   29.6620   48.9300 C   0  0  0  0  0  0  0  0  0  0  0  0
   59.8170   28.2710   49.2310 N   0  0  0  0  0  0  0  0  0  0  0  0
   59.9260   27.2350   48.2460 C   0  0  0  0  0  0  0  0  0  0  0  0
   60.7530   26.2990   48.4190 O   0  0  0  0  0  0  0  0  0  0  0  0
   59.0930   27.2750   47.0240 C   0  0  0  0  0  0  0  0  0  0  0  0
   59.6600   27.5970   45.7750 C   0  0  0  0  0  0  0  0  0  0  0  0
   58.8920   27.5390   44.6100 C   0  0  0  0  0  0  0  0  0  0  0  0
   57.5480   27.1690   44.6730 C   0  0  0  0  0  0  0  0  0  0  0  0
   56.9600   26.8470   45.9100 C   0  0  0  0  0  0  0  0  0  0  0  0
   55.5750   26.4900   46.0140 N   0  0  0  0  0  0  0  0  0  0  0  0
   55.0220   25.2050   45.7150 C   0  0  0  0  0  0  0  0  0  0  0  0
   53.8100   24.9530   45.9700 O   0  0  0  0  0  0  0  0  0  0  0  0
   55.8800   24.1680   45.1190 C   0  0  0  0  0  0  0  0  0  0  0  0
   56.1150   24.2540   43.7370 C   0  0  0  0  0  0  0  0  0  0  0  0
   57.0010   23.3820   43.1100 C   0  0  0  0  0  0  0  0  0  0  0  0
   57.6640   22.4040   43.8490 C   0  0  0  0  0  0  0  0  0  0  0  0
   57.4140   22.2650   45.2190 C   0  0  0  0  0  0  0  0  0  0  0  0
   58.0530   21.2520   45.9470 C   0  0  0  0  0  0  0  0  0  0  0  0
   57.7730   21.0900   47.2630 N   0  0  0  0  0  0  0  0  0  0  0  0
   56.9000   21.8760   47.8880 N   0  0  0  0  0  0  0  0  0  0  0  0
   56.2500   22.8880   47.2480 C   0  0  0  0  0  0  0  0  0  0  0  0
   55.4180   23.5690   47.9000 O   0  0  0  0  0  0  0  0  0  0  0  0
   56.5070   23.1340   45.8760 C   0  0  0  0  0  0  0  0  0  0  0  0
   57.7310   26.9230   47.0790 C   0  0  0  0  0  0  0  0  0  0  0  0
   60.6510   30.2480   48.0760 C   0  0  0  0  0  0  0  0  0  0  0  0
   60.6430   31.6280   47.8560 C   0  0  0  0  0  0  0  0  0  0  0  0
   57.3748   33.4227   47.6592 H   0  0  0  0  0  0  0  0  0  0  0  0
   56.4612   33.9722   46.2135 H   0  0  0  0  0  0  0  0  0  0  0  0
   57.2592   32.3629   46.2135 H   0  0  0  0  0  0  0  0  0  0  0  0
   58.9803   35.3464   44.4445 H   0  0  0  0  0  0  0  0  0  0  0  0
   59.3778   33.6260   44.1147 H   0  0  0  0  0  0  0  0  0  0  0  0
   57.6653   34.1680   44.1147 H   0  0  0  0  0  0  0  0  0  0  0  0
   60.6488   34.3581   48.7755 H   0  0  0  0  0  0  0  0  0  0  0  0
   58.8419   34.3740   48.8207 H   0  0  0  0  0  0  0  0  0  0  0  0
   57.9903   32.4814   49.8384 H   0  0  0  0  0  0  0  0  0  0  0  0
   57.9899   30.0181   50.2095 H   0  0  0  0  0  0  0  0  0  0  0  0
   60.7168   27.8967   45.7170 H   0  0  0  0  0  0  0  0  0  0  0  0
   59.3479   27.7857   43.6398 H   0  0  0  0  0  0  0  0  0  0  0  0
   56.9465   27.1290   43.7529 H   0  0  0  0  0  0  0  0  0  0  0  0
   55.5932   25.0189   43.1432 H   0  0  0  0  0  0  0  0  0  0  0  0
   57.1783   23.4653   42.0276 H   0  0  0  0  0  0  0  0  0  0  0  0
   58.3866   21.7388   43.3536 H   0  0  0  0  0  0  0  0  0  0  0  0
   58.7793   20.5907   45.4518 H   0  0  0  0  0  0  0  0  0  0  0  0
   57.2655   26.7048   48.0515 H   0  0  0  0  0  0  0  0  0  0  0  0
   61.4011   29.6188   47.5745 H   0  0  0  0  0  0  0  0  0  0  0  0
   61.3681   32.0744   47.1596 H   0  0  0  0  0  0  0  0  0  0  0  0
  1  2  1  0
  2  3  1  0
  2  4  1  0
  4  5  2  0
  4  6  1  0
  6  7  1  0
  7  8  2  0
  8  9  1  0
  9 10  2  0
 10 11  1  0
 11 12  1  0
 12 13  2  0
 12 14  1  0
 14 15  2  0
 15 16  1  0
 16 17  2  0
 17 18  1  0
 18 19  1  0
 19 20  1  0
 20 21  2  0
 20 22  1  0
 22 23  2  0
 23 24  1  0
 24 25  2  0
 25 26  1  0
 26 27  1  0
 27 28  2  0
 28 29  1  0
 29 30  1  0
 30 31  2  0
 30 32  1  0
 18 33  2  0
 10 34  1  0
 34 35  2  0
 35  7  1  0
 33 14  1  0
 32 22  1  0
 32 26  2  0
  1 36  1  0
  1 37  1  0
  1 38  1  0
  3 39  1  0
  3 40  1  0
  3 41  1  0
  6 42  1  0
  6 43  1  0
  8 44  1  0
  9 45  1  0
 15 46  1  0
 16 47  1  0
 17 48  1  0
 23 49  1  0
 24 50  1  0
 25 51  1  0
 27 52  1  0
 33 53  1  0
 34 54  1  0
 35 55  1  0
M  CHG  3  11  -1  19  -1  29  -1
M  END
>  <UniqueID>  (47) 
41

>  <SMILES>  (47) 
CN(C)C(=O)Cc1ccc([N-]C(=O)c2cccc([N-]C(=O)c3cccc4cn[n-]c(=O)c34)c2)cc1

>  <Energy>  (47) 
85.35512117108948

>  <Genealogy>  (47) 
CN(C)C(=O)Cc1ccc([N-]C(=O)c2cccc([N-]C(=O)c3cccc4cn[n-]c(=O)c34)c2)cc1 (protonated)
CN(C)C(=O)Cc1ccc([N-]C(=O)c2cccc([N-]C(=O)c3cccc4cn[n-]c(=O)c34)c2)cc1 (3D coordinates assigned)
CN(C)C(=O)Cc1ccc([N-]C(=O)c2cccc([N-]C(=O)c3cccc4cn[n-]c(=O)c34)c2)cc1 (optimized conformer: 85.35512117108948 kcal/mol)

>  <smiles>  (47) 
CN(C)C(=O)Cc1ccc(NC(=O)c2cccc(NC(=O)c3cccc4cn[nH]c(=O)c34)c2)cc1

>  <score_type>  (47) 
oracle

>  <origin>  (47) 
adg

>  <m_score__min__energy>  (47) 
-15.93

>  <m_primary>  (47) 
energy

$$$$
47:0
     RDKit          3D

 29 30  0  0  0  0  0  0  0  0999 V2000
   61.0310   31.8570   46.9090 C   0  0  0  0  0  0  0  0  0  0  0  0
   60.5580   30.4580   46.6910 C   0  0  0  0  0  0  0  0  0  0  0  0
   60.6660   29.4580   47.6550 C   0  0  0  0  0  0  0  0  0  0  0  0
   59.9770   28.0580   47.0250 S   0  0  0  0  0  0  0  0  0  0  0  0
   59.5640   28.7900   45.5720 C   0  0  0  0  0  0  0  0  0  0  0  0
   58.7230   27.9660   44.2220 S   0  0  0  0  0  0  0  0  0  0  0  0
   57.0570   28.5190   44.7240 C   0  0  0  0  0  0  0  0  0  0  0  0
   56.8320   29.9430   44.3180 C   0  0  0  0  0  0  0  0  0  0  0  0
   55.6980   30.4670   44.4890 O   0  0  0  0  0  0  0  0  0  0  0  0
   57.9110   30.7100   43.7680 N   0  0  0  0  0  0  0  0  0  0  0  0
   57.7950   32.1430   43.5050 C   0  0  0  0  0  0  0  0  0  0  0  0
   58.0980   32.9220   44.7460 C   0  0  0  0  0  0  0  0  0  0  0  0
   57.5430   32.7030   45.9990 C   0  0  0  0  0  0  0  0  0  0  0  0
   58.0150   33.5920   46.9730 C   0  0  0  0  0  0  0  0  0  0  0  0
   58.9430   34.5060   46.4890 C   0  0  0  0  0  0  0  0  0  0  0  0
   59.1690   34.2130   44.8490 S   0  0  0  0  0  0  0  0  0  0  0  0
   59.9380   30.0860   45.5390 N   0  0  0  0  0  0  0  0  0  0  0  0
   61.0987   32.0572   47.9885 H   0  0  0  0  0  0  0  0  0  0  0  0
   62.0223   31.9847   46.4496 H   0  0  0  0  0  0  0  0  0  0  0  0
   60.3206   32.5600   46.4496 H   0  0  0  0  0  0  0  0  0  0  0  0
   61.1208   29.5647   48.6509 H   0  0  0  0  0  0  0  0  0  0  0  0
   56.3028   27.8812   44.2399 H   0  0  0  0  0  0  0  0  0  0  0  0
   56.9720   28.4435   45.8181 H   0  0  0  0  0  0  0  0  0  0  0  0
   58.8240   30.2390   43.5760 H   0  0  0  0  0  0  0  0  0  0  0  0
   58.5064   32.4263   42.7153 H   0  0  0  0  0  0  0  0  0  0  0  0
   56.7674   32.3668   43.1825 H   0  0  0  0  0  0  0  0  0  0  0  0
   56.8074   31.9118   46.2061 H   0  0  0  0  0  0  0  0  0  0  0  0
   57.6827   33.5688   48.0213 H   0  0  0  0  0  0  0  0  0  0  0  0
   59.4443   35.2879   47.0784 H   0  0  0  0  0  0  0  0  0  0  0  0
  1  2  1  0
  2  3  2  0
  3  4  1  0
  4  5  1  0
  5  6  1  0
  6  7  1  0
  7  8  1  0
  8  9  2  0
  8 10  1  0
 10 11  1  0
 11 12  1  0
 12 13  2  0
 13 14  1  0
 14 15  2  0
 15 16  1  0
  5 17  2  0
 17  2  1  0
 16 12  1  0
  1 18  1  0
  1 19  1  0
  1 20  1  0
  3 21  1  0
  7 22  1  0
  7 23  1  0
 10 24  1  0
 11 25  1  0
 11 26  1  0
 13 27  1  0
 14 28  1  0
 15 29  1  0
M  END
>  <UniqueID>  (48) 
42

>  <SMILES>  (48) 
Cc1csc(SCC(=O)NCc2cccs2)n1

>  <Energy>  (48) 
71.75330514791266

>  <Genealogy>  (48) 
Cc1csc(SCC(=O)NCc2cccs2)n1 (3D coordinates assigned)
Cc1csc(SCC(=O)NCc2cccs2)n1 (optimized conformer: 71.75330514791266 kcal/mol)

>  <smiles>  (48) 
Cc1csc(SCC(=O)NCc2cccs2)n1

>  <score_type>  (48) 
oracle

>  <origin>  (48) 
adg

>  <m_score__min__energy>  (48) 
-6.96

>  <m_primary>  (48) 
energy

$$$$
48:0
     RDKit          3D

 17 18  0  0  0  0  0  0  0  0999 V2000
   57.7380   23.4190   47.3290 O   0  0  0  0  0  0  0  0  0  0  0  0
   57.1680   24.4760   46.9500 C   0  0  0  0  0  0  0  0  0  0  0  0
   55.8430   24.5410   46.7110 N   0  0  0  0  0  0  0  0  0  0  0  0
   55.6710   25.8200   46.3370 C   0  0  0  0  0  0  0  0  0  0  0  0
   54.4430   26.3390   45.9500 O   0  0  0  0  0  0  0  0  0  0  0  0
   56.8770   26.4940   46.3650 C   0  0  0  0  0  0  0  0  0  0  0  0
   57.1450   27.9100   46.0160 C   0  0  0  0  0  0  0  0  0  0  0  0
   56.2340   28.6160   45.2140 C   0  0  0  0  0  0  0  0  0  0  0  0
   56.4700   29.9140   44.8830 N   0  0  0  0  0  0  0  0  0  0  0  0
   57.5830   30.5700   45.3010 C   0  0  0  0  0  0  0  0  0  0  0  0
   57.7560   31.7730   44.9690 O   0  0  0  0  0  0  0  0  0  0  0  0
   58.5280   29.9080   46.0920 C   0  0  0  0  0  0  0  0  0  0  0  0
   59.9880   30.7230   46.6350 Cl  0  0  0  0  0  0  0  0  0  0  0  0
   58.3070   28.5730   46.4450 C   0  0  0  0  0  0  0  0  0  0  0  0
   57.8370   25.6310   46.7490 N   0  0  0  0  0  0  0  0  0  0  0  0
   55.3238   28.1162   44.8511 H   0  0  0  0  0  0  0  0  0  0  0  0
   59.0460   28.0398   47.0611 H   0  0  0  0  0  0  0  0  0  0  0  0
  1  2  2  0
  2  3  1  0
  3  4  1  0
  4  5  1  0
  4  6  2  0
  6  7  1  0
  7  8  2  0
  8  9  1  0
  9 10  1  0
 10 11  2  0
 10 12  1  0
 12 13  1  0
 12 14  2  0
  6 15  1  0
 15  2  1  0
 14  7  1  0
  8 16  1  0
 14 17  1  0
M  CHG  4   3  -1   5  -1   9  -1  15  -1
M  END
>  <UniqueID>  (49) 
43

>  <SMILES>  (49) 
O=c1[n-]c([O-])c(-c2c[n-]c(=O)c(Cl)c2)[n-]1

>  <Energy>  (49) 
51.895895872941644

>  <Genealogy>  (49) 
O=c1[n-]c([O-])c(-c2c[n-]c(=O)c(Cl)c2)[n-]1 (protonated)
O=c1[n-]c([O-])c(-c2c[n-]c(=O)c(Cl)c2)[n-]1 (3D coordinates assigned)
O=c1[n-]c([O-])c(-c2c[n-]c(=O)c(Cl)c2)[n-]1 (optimized conformer: 51.895895872941644 kcal/mol)

>  <smiles>  (49) 
O=c1[nH]c(O)c(-c2c[nH]c(=O)c(Cl)c2)[nH]1

>  <score_type>  (49) 
oracle

>  <origin>  (49) 
adg

>  <m_score__min__energy>  (49) 
-15.56

>  <m_primary>  (49) 
energy

$$$$
49:0
     RDKit          3D

 64 68  0  0  0  0  0  0  0  0999 V2000
   69.0550   26.0900   50.8350 C   0  0  0  0  0  0  0  0  0  0  0  0
   68.0990   27.1420   50.3550 C   0  0  0  0  0  0  0  0  0  0  0  0
   68.4210   27.8290   49.3460 O   0  0  0  0  0  0  0  0  0  0  0  0
   66.7920   27.3830   51.0260 C   0  0  0  0  0  0  0  0  0  0  0  0
   65.9650   26.2940   51.3670 C   0  0  0  0  0  0  0  0  0  0  0  0
   64.7330   26.5050   51.9910 C   0  0  0  0  0  0  0  0  0  0  0  0
   64.3050   27.8040   52.2920 C   0  0  0  0  0  0  0  0  0  0  0  0
   62.7180   28.0620   53.0140 S   0  0  0  0  0  0  0  0  0  0  0  0
   62.8670   28.3710   54.4790 O   0  0  0  0  0  0  0  0  0  0  0  0
   61.9080   26.8010   52.8710 O   0  0  0  0  0  0  0  0  0  0  0  0
   61.9170   29.3850   52.1950 N   0  0  2  0  0  0  0  0  0  0  0  0
   60.4650   29.3570   52.5030 C   0  0  0  0  0  0  0  0  0  0  0  0
   59.6470   30.1010   51.4450 C   0  0  0  0  0  0  0  0  0  0  0  0
   59.7650   29.3800   50.0830 C   0  0  1  0  0  0  0  0  0  0  0  0
   59.4460   30.3130   48.9460 C   0  0  0  0  0  0  0  0  0  0  0  0
   58.6550   29.9670   47.8930 N   0  0  0  0  0  0  0  0  0  0  0  0
   58.6310   31.0990   47.1730 C   0  0  0  0  0  0  0  0  0  0  0  0
   57.9830   31.3530   45.9770 C   0  0  0  0  0  0  0  0  0  0  0  0
   57.2860   30.4530   45.4300 O   0  0  0  0  0  0  0  0  0  0  0  0
   58.1160   32.6030   45.4150 N   0  0  0  0  0  0  0  0  0  0  0  0
   57.4260   32.9190   44.1540 C   0  0  0  0  0  0  0  0  0  0  0  0
   58.8410   33.5870   46.0700 C   0  0  0  0  0  0  0  0  0  0  0  0
   58.9240   34.7440   45.5690 O   0  0  0  0  0  0  0  0  0  0  0  0
   59.4670   33.3190   47.2710 N   0  0  0  0  0  0  0  0  0  0  0  0
   60.2190   34.3620   47.9900 C   0  0  0  0  0  0  0  0  0  0  0  0
   61.6460   33.9350   48.2360 C   0  0  0  0  0  0  0  0  0  0  0  0
   62.4640   33.5570   47.1550 C   0  0  0  0  0  0  0  0  0  0  0  0
   63.7610   33.0850   47.3810 C   0  0  0  0  0  0  0  0  0  0  0  0
   64.2460   32.9650   48.6860 C   0  0  0  0  0  0  0  0  0  0  0  0
   63.4440   33.3340   49.7680 C   0  0  0  0  0  0  0  0  0  0  0  0
   62.1480   33.8170   49.5500 C   0  0  0  0  0  0  0  0  0  0  0  0
   61.3840   34.1490   50.6210 F   0  0  0  0  0  0  0  0  0  0  0  0
   59.3520   32.0610   47.7790 C   0  0  0  0  0  0  0  0  0  0  0  0
   59.8870   31.6000   48.9200 N   0  0  0  0  0  0  0  0  0  0  0  0
   61.1460   28.7110   49.8870 C   0  0  0  0  0  0  0  0  0  0  0  0
   62.2340   29.3840   50.7400 C   0  0  0  0  0  0  0  0  0  0  0  0
   65.1210   28.8940   51.9600 C   0  0  0  0  0  0  0  0  0  0  0  0
   66.3520   28.6860   51.3320 C   0  0  0  0  0  0  0  0  0  0  0  0
   69.0655   26.0785   51.9349 H   0  0  0  0  0  0  0  0  0  0  0  0
   68.7355   25.1061   50.4610 H   0  0  0  0  0  0  0  0  0  0  0  0
   70.0649   26.3142   50.4610 H   0  0  0  0  0  0  0  0  0  0  0  0
   66.2925   25.2687   51.1398 H   0  0  0  0  0  0  0  0  0  0  0  0
   64.0955   25.6460   52.2473 H   0  0  0  0  0  0  0  0  0  0  0  0
   62.3130   30.2650   52.6060 H   0  0  0  0  0  0  0  0  0  0  0  0
   60.1291   28.3103   52.5421 H   0  0  0  0  0  0  0  0  0  0  0  0
   60.3102   29.8574   53.4703 H   0  0  0  0  0  0  0  0  0  0  0  0
   58.5913   30.1277   51.7529 H   0  0  0  0  0  0  0  0  0  0  0  0
   60.0323   31.1265   51.3456 H   0  0  0  0  0  0  0  0  0  0  0  0
   59.0184   28.5722   50.0842 H   0  0  0  0  0  0  0  0  0  0  0  0
   56.4462   33.3677   44.3746 H   0  0  0  0  0  0  0  0  0  0  0  0
   58.0320   33.6293   43.5724 H   0  0  0  0  0  0  0  0  0  0  0  0
   57.2841   31.9961   43.5724 H   0  0  0  0  0  0  0  0  0  0  0  0
   60.2187   35.2833   47.3889 H   0  0  0  0  0  0  0  0  0  0  0  0
   59.7342   34.5331   48.9625 H   0  0  0  0  0  0  0  0  0  0  0  0
   62.0811   33.6332   46.1266 H   0  0  0  0  0  0  0  0  0  0  0  0
   64.4004   32.8077   46.5300 H   0  0  0  0  0  0  0  0  0  0  0  0
   65.2611   32.5793   48.8613 H   0  0  0  0  0  0  0  0  0  0  0  0
   63.8312   33.2450   50.7937 H   0  0  0  0  0  0  0  0  0  0  0  0
   61.0724   27.6519   50.1750 H   0  0  0  0  0  0  0  0  0  0  0  0
   61.4287   28.8149   48.8290 H   0  0  0  0  0  0  0  0  0  0  0  0
   63.1811   28.8455   50.5882 H   0  0  0  0  0  0  0  0  0  0  0  0
   62.3014   30.4336   50.4179 H   0  0  0  0  0  0  0  0  0  0  0  0
   64.7913   29.9169   52.1946 H   0  0  0  0  0  0  0  0  0  0  0  0
   66.9840   29.5485   51.0739 H   0  0  0  0  0  0  0  0  0  0  0  0
  1  2  1  0
  2  3  2  0
  2  4  1  0
  4  5  2  0
  5  6  1  0
  6  7  2  0
  7  8  1  0
  8  9  2  0
  8 10  2  0
  8 11  1  0
 11 12  1  0
 12 13  1  0
 13 14  1  0
 14 15  1  0
 15 16  2  0
 16 17  1  0
 17 18  1  0
 18 19  2  0
 18 20  1  0
 20 21  1  0
 20 22  1  0
 22 23  2  0
 22 24  1  0
 24 25  1  0
 25 26  1  0
 26 27  2  0
 27 28  1  0
 28 29  2  0
 29 30  1  0
 30 31  2  0
 31 32  1  0
 24 33  1  0
 33 34  1  0
 14 35  1  0
 35 36  1  0
  7 37  1  0
 37 38  2  0
 38  4  1  0
 36 11  1  0
 34 15  1  0
 33 17  2  0
 31 26  1  0
  1 39  1  0
  1 40  1  0
  1 41  1  0
  5 42  1  0
  6 43  1  0
 11 44  1  1
 12 45  1  0
 12 46  1  0
 13 47  1  0
 13 48  1  0
 14 49  1  1
 21 50  1  0
 21 51  1  0
 21 52  1  0
 25 53  1  0
 25 54  1  0
 27 55  1  0
 28 56  1  0
 29 57  1  0
 30 58  1  0
 35 59  1  0
 35 60  1  0
 36 61  1  0
 36 62  1  0
 37 63  1  0
 38 64  1  0
M  CHG  2  11   1  34  -1
M  END
>  <UniqueID>  (50) 
44

>  <SMILES>  (50) 
CC(=O)c1ccc(S(=O)(=O)[NH+]2CCC(c3nc4c(=O)n(C)c(=O)n(Cc5ccccc5F)c4[n-]3)CC2)cc1

>  <Energy>  (50) 
118.39065988102277

>  <Genealogy>  (50) 
CC(=O)c1ccc(S(=O)(=O)[NH+]2CCC(c3nc4c(=O)n(C)c(=O)n(Cc5ccccc5F)c4[n-]3)CC2)cc1 (protonated)
CC(=O)c1ccc(S(=O)(=O)[NH+]2CCC(c3nc4c(=O)n(C)c(=O)n(Cc5ccccc5F)c4[n-]3)CC2)cc1 (3D coordinates assigned)
CC(=O)c1ccc(S(=O)(=O)[NH+]2CCC(c3nc4c(=O)n(C)c(=O)n(Cc5ccccc5F)c4[n-]3)CC2)cc1 (nonaromatic ring conformer: 118.39065988102277 kcal/mol)

>  <smiles>  (50) 
CC(=O)c1ccc(S(=O)(=O)N2CCC(c3nc4c(=O)n(C)c(=O)n(Cc5ccccc5F)c4[nH]3)CC2)cc1

>  <score_type>  (50) 
oracle

>  <origin>  (50) 
adg

>  <m_score__min__energy>  (50) 
-10.02

>  <m_primary>  (50) 
energy

$$$$
50:0
     RDKit          3D

 43 45  0  0  0  0  0  0  0  0999 V2000
   63.9384   34.3965   46.6227 H   0  0  0  0  0  0  0  0  0  0  0  0
   63.3220   33.5220   46.8780 C   0  0  0  0  0  0  0  0  0  0  0  0
   62.6460   32.5630   47.1580 C   0  0  0  0  0  0  0  0  0  0  0  0
   61.8240   31.3950   47.4990 C   0  0  0  0  0  0  0  0  0  0  0  0
   61.8592   30.6771   46.6663 H   0  0  0  0  0  0  0  0  0  0  0  0
   62.2258   30.9454   48.4190 H   0  0  0  0  0  0  0  0  0  0  0  0
   60.4240   31.7770   47.7430 N   0  0  0  0  0  0  0  0  0  0  0  0
   60.0230   32.3350   49.0120 C   0  0  0  0  0  0  0  0  0  0  0  0
   60.8110   33.3050   49.6600 C   0  0  0  0  0  0  0  0  0  0  0  0
   61.7433   33.6541   49.1921 H   0  0  0  0  0  0  0  0  0  0  0  0
   60.4150   33.8270   50.8950 C   0  0  0  0  0  0  0  0  0  0  0  0
   61.0331   34.5890   51.3923 H   0  0  0  0  0  0  0  0  0  0  0  0
   59.2360   33.3830   51.4990 C   0  0  0  0  0  0  0  0  0  0  0  0
   58.8460   33.9020   52.7270 O   0  0  0  0  0  0  0  0  0  0  0  0
   58.4500   32.4150   50.8670 C   0  0  0  0  0  0  0  0  0  0  0  0
   57.5220   32.0651   51.3428 H   0  0  0  0  0  0  0  0  0  0  0  0
   58.8410   31.8910   49.6320 C   0  0  0  0  0  0  0  0  0  0  0  0
   58.2205   31.1265   49.1416 H   0  0  0  0  0  0  0  0  0  0  0  0
   59.3970   31.2810   46.8680 C   0  0  0  0  0  0  0  0  0  0  0  0
   59.1350   29.9100   46.8000 C   0  0  0  0  0  0  0  0  0  0  0  0
   59.7066   29.2109   47.4281 H   0  0  0  0  0  0  0  0  0  0  0  0
   58.1450   29.4220   45.9330 C   0  0  0  0  0  0  0  0  0  0  0  0
   57.9690   27.9560   45.8300 C   0  0  0  0  0  0  0  0  0  0  0  0
   58.8720   27.2510   45.3020 O   0  0  0  0  0  0  0  0  0  0  0  0
   56.7920   27.3480   46.3890 N   0  0  0  0  0  0  0  0  0  0  0  0
   56.2470   26.2200   46.0350 C   0  0  0  0  0  0  0  0  0  0  0  0
   54.8920   26.0670   45.9950 N   0  0  0  0  0  0  0  0  0  0  0  0
   54.3100   24.8930   45.6290 C   0  0  0  0  0  0  0  0  0  0  0  0
   53.2137   24.8055   45.6098 H   0  0  0  0  0  0  0  0  0  0  0  0
   55.1030   23.8000   45.2780 C   0  0  0  0  0  0  0  0  0  0  0  0
   54.6383   22.8482   44.9810 H   0  0  0  0  0  0  0  0  0  0  0  0
   56.4930   23.9280   45.3080 C   0  0  0  0  0  0  0  0  0  0  0  0
   57.1313   23.0759   45.0315 H   0  0  0  0  0  0  0  0  0  0  0  0
   57.0710   25.1410   45.6900 C   0  0  0  0  0  0  0  0  0  0  0  0
   58.1654   25.2481   45.7197 H   0  0  0  0  0  0  0  0  0  0  0  0
   57.4030   30.3450   45.1520 C   0  0  0  0  0  0  0  0  0  0  0  0
   56.2520   29.9430   44.3100 C   0  0  0  0  0  0  0  0  0  0  0  0
   56.2540   30.1900   43.0740 O   0  0  0  0  0  0  0  0  0  0  0  0
   55.1300   29.3490   44.8770 O   0  0  0  0  0  0  0  0  0  0  0  0
   57.7320   31.7090   45.2320 C   0  0  0  0  0  0  0  0  0  0  0  0
   57.1924   32.4353   44.6065 H   0  0  0  0  0  0  0  0  0  0  0  0
   58.7080   32.1420   46.0720 N   0  0  0  0  0  0  0  0  0  0  0  0
   58.9200   33.1640   46.1170 H   0  0  0  0  0  0  0  0  0  0  0  0
  1  2  1  0
  2  3  3  0
  3  4  1  0
  4  5  1  0
  4  6  1  0
  4  7  1  0
  7  8  1  0
  8  9  2  0
  9 10  1  0
  9 11  1  0
 11 12  1  0
 11 13  2  0
 13 14  1  0
 13 15  1  0
 15 16  1  0
 15 17  2  0
 17 18  1  0
  7 19  1  0
 19 20  2  0
 20 21  1  0
 20 22  1  0
 22 23  1  0
 23 24  2  0
 23 25  1  0
 25 26  2  0
 26 27  1  0
 27 28  1  0
 28 29  1  0
 28 30  2  0
 30 31  1  0
 30 32  1  0
 32 33  1  0
 32 34  2  0
 34 35  1  0
 22 36  2  0
 36 37  1  0
 37 38  2  0
 37 39  1  0
 36 40  1  0
 40 41  1  0
 40 42  2  0
 42 43  1  0
 17  8  1  0
 42 19  1  0
 34 26  1  0
M  CHG  4  14  -1  27  -1  39  -1  42   1
M  END
>  <UniqueID>  (51) 
45

>  <SMILES>  (51) 
C#CCN(c1ccc([O-])cc1)c1cc(C(=O)/N=c2/cccc[n-]2)c(C(=O)[O-])c[nH+]1

>  <Energy>  (51) 
66.83800023075442

>  <Genealogy>  (51) 
C#CCN(c1ccc([O-])cc1)c1cc(C(=O)N=c2cccc[n-]2)c(C(=O)[O-])c[nH+]1 (protonated)
C#CCN(c1ccc([O-])cc1)c1cc(C(=O)/N=c2/cccc[n-]2)c(C(=O)[O-])c[nH+]1 (cis-trans isomerization)
C#CCN(c1ccc([O-])cc1)c1cc(C(=O)/N=c2/cccc[n-]2)c(C(=O)[O-])c[nH+]1 (3D coordinates assigned)
C#CCN(c1ccc([O-])cc1)c1cc(C(=O)/N=c2/cccc[n-]2)c(C(=O)[O-])c[nH+]1 (optimized conformer: 66.83800023075442 kcal/mol)

>  <smiles>  (51) 
C#CCN(c1ccc(O)cc1)c1cc(C(=O)N=c2cccc[nH]2)c(C(=O)O)cn1

>  <score_type>  (51) 
oracle

>  <origin>  (51) 
adg

>  <m_score__min__energy>  (51) 
-11.16

>  <m_primary>  (51) 
energy

$$$$
51:0
     RDKit          3D

 55 57  0  0  0  0  0  0  0  0999 V2000
   59.2460   25.7650   46.0090 C   0  0  0  0  0  0  0  0  0  0  0  0
   59.2730   27.2020   46.4620 C   0  0  0  0  0  0  0  0  0  0  0  0
   60.3100   27.6180   47.3130 C   0  0  0  0  0  0  0  0  0  0  0  0
   60.4060   28.9480   47.7180 C   0  0  0  0  0  0  0  0  0  0  0  0
   59.4560   29.8750   47.3030 C   0  0  0  0  0  0  0  0  0  0  0  0
   58.3830   29.4840   46.4970 C   0  0  0  0  0  0  0  0  0  0  0  0
   57.4020   30.4780   46.1630 N   0  0  0  0  0  0  0  0  0  0  0  0
   57.2200   31.0340   44.8540 C   0  0  0  0  0  0  0  0  0  0  0  0
   56.1790   30.7770   44.1910 O   0  0  0  0  0  0  0  0  0  0  0  0
   58.2140   32.0190   44.3160 C   0  0  0  0  0  0  0  0  0  0  0  0
   57.8930   33.3960   44.7520 N   0  0  0  0  0  0  0  0  0  0  0  0
   57.3830   33.4470   46.1480 C   0  0  0  0  0  0  0  0  0  0  0  0
   58.1730   34.4020   47.0640 C   0  0  0  0  0  0  0  0  0  0  0  0
   59.6310   34.1770   46.9660 N   0  0  0  0  0  0  0  0  0  0  0  0
   60.0450   32.9810   47.7310 C   0  0  0  0  0  0  0  0  0  0  0  0
   60.9910   33.3590   48.8400 C   0  0  0  0  0  0  0  0  0  0  0  0
   62.0070   34.0520   48.5700 O   0  0  0  0  0  0  0  0  0  0  0  0
   60.8070   32.8940   50.1850 N   0  0  0  0  0  0  0  0  0  0  0  0
   59.7270   32.0790   50.6570 C   0  0  0  0  0  0  0  0  0  0  0  0
   58.5590   32.6990   51.1190 C   0  0  0  0  0  0  0  0  0  0  0  0
   57.4820   31.9290   51.5710 C   0  0  0  0  0  0  0  0  0  0  0  0
   57.5580   30.5300   51.5450 C   0  0  0  0  0  0  0  0  0  0  0  0
   56.4940   29.7520   51.9950 O   0  0  0  0  0  0  0  0  0  0  0  0
   58.7110   29.9060   51.0570 C   0  0  0  0  0  0  0  0  0  0  0  0
   59.7870   30.6750   50.6040 C   0  0  0  0  0  0  0  0  0  0  0  0
   60.1300   34.1540   45.5640 C   0  0  0  0  0  0  0  0  0  0  0  0
   59.0200   34.3190   44.5090 C   0  0  0  0  0  0  0  0  0  0  0  0
   58.2920   28.1410   46.0430 C   0  0  0  0  0  0  0  0  0  0  0  0
   57.2330   27.7490   45.0870 C   0  0  0  0  0  0  0  0  0  0  0  0
   55.8950   28.2110   45.2570 N   0  0  0  0  0  0  0  0  0  0  0  0
   57.5140   27.0110   44.1060 O   0  0  0  0  0  0  0  0  0  0  0  0
   59.2336   25.1037   46.8879 H   0  0  0  0  0  0  0  0  0  0  0  0
   58.3444   25.5881   45.4042 H   0  0  0  0  0  0  0  0  0  0  0  0
   60.1403   25.5543   45.4042 H   0  0  0  0  0  0  0  0  0  0  0  0
   61.0536   26.8870   47.6632 H   0  0  0  0  0  0  0  0  0  0  0  0
   61.2352   29.2653   48.3675 H   0  0  0  0  0  0  0  0  0  0  0  0
   59.5499   30.9265   47.6121 H   0  0  0  0  0  0  0  0  0  0  0  0
   59.2169   31.7520   44.6804 H   0  0  0  0  0  0  0  0  0  0  0  0
   58.1785   31.9846   43.2171 H   0  0  0  0  0  0  0  0  0  0  0  0
   56.3346   33.7791   46.1224 H   0  0  0  0  0  0  0  0  0  0  0  0
   57.4941   32.4360   46.5670 H   0  0  0  0  0  0  0  0  0  0  0  0
   57.9525   35.4393   46.7716 H   0  0  0  0  0  0  0  0  0  0  0  0
   57.8668   34.2101   48.1029 H   0  0  0  0  0  0  0  0  0  0  0  0
   59.1538   32.5031   48.1639 H   0  0  0  0  0  0  0  0  0  0  0  0
   60.5583   32.2861   47.0501 H   0  0  0  0  0  0  0  0  0  0  0  0
   58.4883   33.7967   51.1264 H   0  0  0  0  0  0  0  0  0  0  0  0
   56.5739   32.4226   51.9475 H   0  0  0  0  0  0  0  0  0  0  0  0
   55.7580   30.1440   52.5710 H   0  0  0  0  0  0  0  0  0  0  0  0
   58.7711   28.8080   51.0297 H   0  0  0  0  0  0  0  0  0  0  0  0
   60.6843   30.1798   50.2044 H   0  0  0  0  0  0  0  0  0  0  0  0
   60.8525   34.9739   45.4390 H   0  0  0  0  0  0  0  0  0  0  0  0
   60.5844   33.1657   45.4007 H   0  0  0  0  0  0  0  0  0  0  0  0
   58.6472   35.3533   44.5428 H   0  0  0  0  0  0  0  0  0  0  0  0
   59.4474   34.0857   43.5226 H   0  0  0  0  0  0  0  0  0  0  0  0
   55.7000   29.1800   45.5930 H   0  0  0  0  0  0  0  0  0  0  0  0
  1  2  1  0
  2  3  2  0
  3  4  1  0
  4  5  2  0
  5  6  1  0
  6  7  1  0
  7  8  1  0
  8  9  2  0
  8 10  1  0
 10 11  1  0
 11 12  1  0
 12 13  1  0
 13 14  1  0
 14 15  1  0
 15 16  1  0
 16 17  2  0
 16 18  1  0
 18 19  1  0
 19 20  2  0
 20 21  1  0
 21 22  2  0
 22 23  1  0
 22 24  1  0
 24 25  2  0
 14 26  1  0
 26 27  1  0
  6 28  2  0
 28 29  1  0
 29 30  1  0
 29 31  2  0
 28  2  1  0
 27 11  1  0
 25 19  1  0
  1 32  1  0
  1 33  1  0
  1 34  1  0
  3 35  1  0
  4 36  1  0
  5 37  1  0
 10 38  1  0
 10 39  1  0
 12 40  1  0
 12 41  1  0
 13 42  1  0
 13 43  1  0
 15 44  1  0
 15 45  1  0
 20 46  1  0
 21 47  1  0
 23 48  1  0
 24 49  1  0
 25 50  1  0
 26 51  1  0
 26 52  1  0
 27 53  1  0
 27 54  1  0
 30 55  1  0
M  CHG  3   7  -1  18  -1  30  -1
M  END
>  <UniqueID>  (52) 
46

>  <SMILES>  (52) 
Cc1cccc([N-]C(=O)CN2CCN(CC(=O)[N-]c3ccc(O)cc3)CC2)c1C([NH-])=O

>  <Energy>  (52) 
86.39202305268414

>  <Genealogy>  (52) 
Cc1cccc([N-]C(=O)CN2CCN(CC(=O)[N-]c3ccc(O)cc3)CC2)c1C([NH-])=O (protonated)
Cc1cccc([N-]C(=O)CN2CCN(CC(=O)[N-]c3ccc(O)cc3)CC2)c1C([NH-])=O (3D coordinates assigned)
Cc1cccc([N-]C(=O)CN2CCN(CC(=O)[N-]c3ccc(O)cc3)CC2)c1C([NH-])=O (nonaromatic ring conformer: 86.39202305268414 kcal/mol)

>  <smiles>  (52) 
Cc1cccc(NC(=O)CN2CCN(CC(=O)Nc3ccc(O)cc3)CC2)c1C(N)=O

>  <score_type>  (52) 
oracle

>  <origin>  (52) 
adg

>  <m_score__min__energy>  (52) 
-13.66

>  <m_primary>  (52) 
energy

$$$$
52:0
     RDKit          3D

 38 39  0  0  0  0  0  0  0  0999 V2000
   57.3380   29.4310   45.8450 H   0  0  0  0  0  0  0  0  0  0  0  0
   57.9700   30.0140   46.3780 O   0  0  0  0  0  0  0  0  0  0  0  0
   58.2320   31.3460   46.0490 C   0  0  0  0  0  0  0  0  0  0  0  0
   59.3610   31.9710   46.6040 C   0  0  0  0  0  0  0  0  0  0  0  0
   60.4590   31.0710   47.6410 Cl  0  0  0  0  0  0  0  0  0  0  0  0
   59.6080   33.3250   46.3590 C   0  0  0  0  0  0  0  0  0  0  0  0
   60.4947   33.8084   46.7950 H   0  0  0  0  0  0  0  0  0  0  0  0
   58.7330   34.0650   45.5630 C   0  0  0  0  0  0  0  0  0  0  0  0
   58.9221   35.1339   45.3851 H   0  0  0  0  0  0  0  0  0  0  0  0
   57.6170   33.4490   44.9920 C   0  0  0  0  0  0  0  0  0  0  0  0
   56.9242   34.0388   44.3738 H   0  0  0  0  0  0  0  0  0  0  0  0
   57.3740   32.0860   45.2010 C   0  0  0  0  0  0  0  0  0  0  0  0
   56.2410   31.4910   44.5560 N   0  0  0  0  0  0  0  0  0  0  0  0
   56.1130   30.0910   44.2860 C   0  0  0  0  0  0  0  0  0  0  0  0
   55.2970   29.3850   44.9390 O   0  0  0  0  0  0  0  0  0  0  0  0
   57.0060   29.4460   43.2750 C   0  0  0  0  0  0  0  0  0  0  0  0
   57.5050   30.2261   42.6813 H   0  0  0  0  0  0  0  0  0  0  0  0
   56.3994   28.8040   42.6194 H   0  0  0  0  0  0  0  0  0  0  0  0
   57.9910   28.6470   43.9240 O   0  0  0  0  0  0  0  0  0  0  0  0
   57.9320   27.2490   43.9870 C   0  0  0  0  0  0  0  0  0  0  0  0
   58.1390   26.5600   42.9500 O   0  0  0  0  0  0  0  0  0  0  0  0
   57.6170   26.5700   45.2660 C   0  0  0  0  0  0  0  0  0  0  0  0
   58.2180   26.9670   46.4060 C   0  0  0  0  0  0  0  0  0  0  0  0
   57.5866   27.1675   47.2841 H   0  0  0  0  0  0  0  0  0  0  0  0
   59.7000   27.1500   46.5420 C   0  0  0  0  0  0  0  0  0  0  0  0
   59.9690   27.1832   47.6081 H   0  0  0  0  0  0  0  0  0  0  0  0
   60.2192   26.3091   46.0588 H   0  0  0  0  0  0  0  0  0  0  0  0
   59.9990   28.0919   46.0588 H   0  0  0  0  0  0  0  0  0  0  0  0
   56.6790   25.4280   45.2440 C   0  0  0  0  0  0  0  0  0  0  0  0
   55.5200   25.5000   45.9570 N   0  0  0  0  0  0  0  0  0  0  0  0
   54.6300   24.4720   45.9890 C   0  0  0  0  0  0  0  0  0  0  0  0
   53.7000   24.5678   46.5686 H   0  0  0  0  0  0  0  0  0  0  0  0
   54.8960   23.2960   45.2870 C   0  0  0  0  0  0  0  0  0  0  0  0
   54.1775   22.4632   45.3055 H   0  0  0  0  0  0  0  0  0  0  0  0
   56.0830   23.1870   44.5610 C   0  0  0  0  0  0  0  0  0  0  0  0
   56.3071   22.2641   44.0059 H   0  0  0  0  0  0  0  0  0  0  0  0
   56.9860   24.2530   44.5410 C   0  0  0  0  0  0  0  0  0  0  0  0
   57.9285   24.1720   43.9796 H   0  0  0  0  0  0  0  0  0  0  0  0
  1  2  1  0
  2  3  1  0
  3  4  2  0
  4  5  1  0
  4  6  1  0
  6  7  1  0
  6  8  2  0
  8  9  1  0
  8 10  1  0
 10 11  1  0
 10 12  2  0
 12 13  1  0
 13 14  1  0
 14 15  2  0
 14 16  1  0
 16 17  1  0
 16 18  1  0
 16 19  1  0
 19 20  1  0
 20 21  2  0
 20 22  1  0
 22 23  2  0
 23 24  1  0
 23 25  1  0
 25 26  1  0
 25 27  1  0
 25 28  1  0
 22 29  1  0
 29 30  2  0
 30 31  1  0
 31 32  1  0
 31 33  2  0
 33 34  1  0
 33 35  1  0
 35 36  1  0
 35 37  2  0
 37 38  1  0
 12  3  1  0
 37 29  1  0
M  CHG  1  13  -1
M  END
>  <UniqueID>  (53) 
47

>  <SMILES>  (53) 
C/C=C(/C(=O)OCC(=O)[N-]c1cccc(Cl)c1O)c1ccccn1

>  <Energy>  (53) 
48.598746185682344

>  <Genealogy>  (53) 
CC=C(C(=O)OCC(=O)[N-]c1cccc(Cl)c1O)c1ccccn1 (protonated)
C/C=C(/C(=O)OCC(=O)[N-]c1cccc(Cl)c1O)c1ccccn1 (cis-trans isomerization)
C/C=C(/C(=O)OCC(=O)[N-]c1cccc(Cl)c1O)c1ccccn1 (3D coordinates assigned)
C/C=C(/C(=O)OCC(=O)[N-]c1cccc(Cl)c1O)c1ccccn1 (optimized conformer: 48.598746185682344 kcal/mol)

>  <smiles>  (53) 
CC=C(C(=O)OCC(=O)Nc1cccc(Cl)c1O)c1ccccn1

>  <score_type>  (53) 
oracle

>  <origin>  (53) 
adg

>  <m_score__min__energy>  (53) 
-10.06

>  <m_primary>  (53) 
energy

$$$$
53:0
     RDKit          3D

 38 40  0  0  0  0  0  0  0  0999 V2000
   53.6840   25.8280   46.3710 H   0  0  0  0  0  0  0  0  0  0  0  0
   54.4720   26.3310   45.9810 O   0  0  0  0  0  0  0  0  0  0  0  0
   55.7450   25.7690   45.9880 C   0  0  0  0  0  0  0  0  0  0  0  0
   55.9760   24.4470   46.1220 N   0  0  0  0  0  0  0  0  0  0  0  0
   57.3220   24.3720   46.1330 C   0  0  0  0  0  0  0  0  0  0  0  0
   57.9410   23.2810   46.2490 O   0  0  0  0  0  0  0  0  0  0  0  0
   57.9380   25.5700   46.0140 N   0  0  0  0  0  0  0  0  0  0  0  0
   59.3800   25.8310   46.0250 C   0  0  0  0  0  0  0  0  0  0  0  0
   59.8982   24.9782   46.4878 H   0  0  0  0  0  0  0  0  0  0  0  0
   59.7233   25.9684   44.9890 H   0  0  0  0  0  0  0  0  0  0  0  0
   59.6870   27.0810   46.8080 C   0  0  0  0  0  0  0  0  0  0  0  0
   59.2950   27.1850   48.1540 C   0  0  0  0  0  0  0  0  0  0  0  0
   58.7674   26.3494   48.6370 H   0  0  0  0  0  0  0  0  0  0  0  0
   59.5730   28.3460   48.8810 C   0  0  0  0  0  0  0  0  0  0  0  0
   59.2616   28.4230   49.9332 H   0  0  0  0  0  0  0  0  0  0  0  0
   60.2460   29.4090   48.2730 C   0  0  0  0  0  0  0  0  0  0  0  0
   60.4617   30.3228   48.8461 H   0  0  0  0  0  0  0  0  0  0  0  0
   60.6450   29.3120   46.9380 C   0  0  0  0  0  0  0  0  0  0  0  0
   61.1761   30.1490   46.4611 H   0  0  0  0  0  0  0  0  0  0  0  0
   60.3700   28.1520   46.2070 C   0  0  0  0  0  0  0  0  0  0  0  0
   60.6897   28.0776   45.1571 H   0  0  0  0  0  0  0  0  0  0  0  0
   56.9350   26.4650   45.9050 C   0  0  0  0  0  0  0  0  0  0  0  0
   57.1160   27.9300   45.8240 C   0  0  0  0  0  0  0  0  0  0  0  0
   56.9039   28.5233   46.7257 H   0  0  0  0  0  0  0  0  0  0  0  0
   57.5230   28.5880   44.7210 C   0  0  0  0  0  0  0  0  0  0  0  0
   57.8500   27.8690   43.5080 C   0  0  0  0  0  0  0  0  0  0  0  0
   58.1120   27.2910   42.5410 N   0  0  0  0  0  0  0  0  0  0  0  0
   57.7340   30.0610   44.7560 C   0  0  0  0  0  0  0  0  0  0  0  0
   57.6550   30.8320   43.5800 C   0  0  0  0  0  0  0  0  0  0  0  0
   57.4308   30.3422   42.6209 H   0  0  0  0  0  0  0  0  0  0  0  0
   57.8590   32.2140   43.6210 C   0  0  0  0  0  0  0  0  0  0  0  0
   57.7912   32.8064   42.6966 H   0  0  0  0  0  0  0  0  0  0  0  0
   58.1490   32.8450   44.8340 C   0  0  0  0  0  0  0  0  0  0  0  0
   58.4050   34.5790   44.8830 Cl  0  0  0  0  0  0  0  0  0  0  0  0
   58.2390   32.0910   46.0080 C   0  0  0  0  0  0  0  0  0  0  0  0
   58.4707   32.5865   46.9624 H   0  0  0  0  0  0  0  0  0  0  0  0
   58.0350   30.7080   45.9710 C   0  0  0  0  0  0  0  0  0  0  0  0
   58.1101   30.1205   46.8979 H   0  0  0  0  0  0  0  0  0  0  0  0
  1  2  1  0
  2  3  1  0
  3  4  1  0
  4  5  1  0
  5  6  2  0
  5  7  1  0
  7  8  1  0
  8  9  1  0
  8 10  1  0
  8 11  1  0
 11 12  2  0
 12 13  1  0
 12 14  1  0
 14 15  1  0
 14 16  2  0
 16 17  1  0
 16 18  1  0
 18 19  1  0
 18 20  2  0
 20 21  1  0
  7 22  1  0
 22 23  1  0
 23 24  1  0
 23 25  2  0
 25 26  1  0
 26 27  3  0
 25 28  1  0
 28 29  2  0
 29 30  1  0
 29 31  1  0
 31 32  1  0
 31 33  2  0
 33 34  1  0
 33 35  1  0
 35 36  1  0
 35 37  2  0
 37 38  1  0
 22  3  2  0
 37 28  1  0
 20 11  1  0
M  CHG  1   4  -1
M  END
>  <UniqueID>  (54) 
48

>  <SMILES>  (54) 
N#C/C(=C\c1c(O)[n-]c(=O)n1Cc1ccccc1)c1ccc(Cl)cc1

>  <Energy>  (54) 
80.00699423729304

>  <Genealogy>  (54) 
N#CC(=Cc1c(O)[n-]c(=O)n1Cc1ccccc1)c1ccc(Cl)cc1 (protonated)
N#C/C(=C\c1c(O)[n-]c(=O)n1Cc1ccccc1)c1ccc(Cl)cc1 (cis-trans isomerization)
N#C/C(=C\c1c(O)[n-]c(=O)n1Cc1ccccc1)c1ccc(Cl)cc1 (3D coordinates assigned)
N#C/C(=C\c1c(O)[n-]c(=O)n1Cc1ccccc1)c1ccc(Cl)cc1 (optimized conformer: 80.00699423729304 kcal/mol)

>  <smiles>  (54) 
N#CC(=Cc1c(O)[nH]c(=O)n1Cc1ccccc1)c1ccc(Cl)cc1

>  <score_type>  (54) 
oracle

>  <origin>  (54) 
adg

>  <m_score__min__energy>  (54) 
-10.460000000000001

>  <m_primary>  (54) 
energy

$$$$
54:0
     RDKit          3D

 53 56  0  0  0  0  0  0  0  0999 V2000
   60.1380   28.7200   51.1420 O   0  0  0  0  0  0  0  0  0  0  0  0
   59.3560   29.8830   50.6000 S   0  0  0  0  0  0  0  0  0  0  0  0
   57.9380   29.7190   51.0720 O   0  0  0  0  0  0  0  0  0  0  0  0
   59.4310   29.8120   48.8210 C   0  0  0  0  0  0  0  0  0  0  0  0
   60.0160   28.6720   48.2420 C   0  0  0  0  0  0  0  0  0  0  0  0
   60.0150   28.4900   46.8590 C   0  0  0  0  0  0  0  0  0  0  0  0
   59.4190   29.4380   46.0310 C   0  0  0  0  0  0  0  0  0  0  0  0
   58.8380   30.5800   46.5830 C   0  0  0  0  0  0  0  0  0  0  0  0
   58.8570   30.7950   47.9720 C   0  0  0  0  0  0  0  0  0  0  0  0
   58.1490   32.3260   48.6190 S   0  0  0  0  0  0  0  0  0  0  0  0
   58.4930   33.3210   47.1540 C   0  0  0  0  0  0  0  0  0  0  0  0
   57.5010   33.5100   46.1790 C   0  0  0  0  0  0  0  0  0  0  0  0
   57.7600   34.2870   45.0470 C   0  0  0  0  0  0  0  0  0  0  0  0
   59.0150   34.8720   44.8730 C   0  0  0  0  0  0  0  0  0  0  0  0
   60.0170   34.6710   45.8240 C   0  0  0  0  0  0  0  0  0  0  0  0
   59.7660   33.8980   46.9680 C   0  0  0  0  0  0  0  0  0  0  0  0
   60.8400   33.6240   47.8810 N   0  0  0  0  0  0  0  0  0  0  0  0
   61.1110   34.5620   48.9740 C   0  0  0  0  0  0  0  0  0  0  0  0
   62.4380   34.2260   49.6600 C   0  0  0  0  0  0  0  0  0  0  0  0
   62.5060   32.7920   49.9600 N   0  0  0  0  0  0  0  0  0  0  0  0
   62.4360   31.9360   48.7560 C   0  0  0  0  0  0  0  0  0  0  0  0
   61.8490   32.6300   47.5090 C   0  0  0  0  0  0  0  0  0  0  0  0
   60.0470   31.3470   51.2650 N   0  0  0  0  0  0  0  0  0  0  0  0
   61.0210   31.0460   52.3300 C   0  0  0  0  0  0  0  0  0  0  0  0
   61.3240   32.2930   53.1790 C   0  0  0  0  0  0  0  0  0  0  0  0
   61.0270   33.4680   52.4520 O   0  0  0  0  0  0  0  0  0  0  0  0
   59.6270   33.5720   52.2560 C   0  0  0  0  0  0  0  0  0  0  0  0
   58.9970   32.2630   51.7310 C   0  0  0  0  0  0  0  0  0  0  0  0
   60.4809   27.9132   48.8886 H   0  0  0  0  0  0  0  0  0  0  0  0
   60.4854   27.5968   46.4220 H   0  0  0  0  0  0  0  0  0  0  0  0
   59.4063   29.2863   44.9416 H   0  0  0  0  0  0  0  0  0  0  0  0
   58.3600   31.3200   45.9243 H   0  0  0  0  0  0  0  0  0  0  0  0
   56.5132   33.0433   46.3070 H   0  0  0  0  0  0  0  0  0  0  0  0
   56.9740   34.4377   44.2923 H   0  0  0  0  0  0  0  0  0  0  0  0
   59.2147   35.4916   43.9863 H   0  0  0  0  0  0  0  0  0  0  0  0
   61.0095   35.1214   45.6757 H   0  0  0  0  0  0  0  0  0  0  0  0
   61.1626   35.5833   48.5687 H   0  0  0  0  0  0  0  0  0  0  0  0
   60.3011   34.4853   49.7144 H   0  0  0  0  0  0  0  0  0  0  0  0
   63.2701   34.4974   48.9937 H   0  0  0  0  0  0  0  0  0  0  0  0
   62.5087   34.7925   50.6003 H   0  0  0  0  0  0  0  0  0  0  0  0
   61.7080   32.5500   50.5950 H   0  0  0  0  0  0  0  0  0  0  0  0
   63.4550   31.5998   48.5140 H   0  0  0  0  0  0  0  0  0  0  0  0
   61.7557   31.1071   49.0013 H   0  0  0  0  0  0  0  0  0  0  0  0
   62.6611   33.1308   46.9616 H   0  0  0  0  0  0  0  0  0  0  0  0
   61.3695   31.8663   46.8790 H   0  0  0  0  0  0  0  0  0  0  0  0
   60.6090   30.2608   52.9809 H   0  0  0  0  0  0  0  0  0  0  0  0
   61.9570   30.7102   51.8598 H   0  0  0  0  0  0  0  0  0  0  0  0
   60.7114   32.2673   54.0923 H   0  0  0  0  0  0  0  0  0  0  0  0
   62.3925   32.2957   53.4405 H   0  0  0  0  0  0  0  0  0  0  0  0
   59.1558   33.8283   53.2164 H   0  0  0  0  0  0  0  0  0  0  0  0
   59.4558   34.3495   51.4970 H   0  0  0  0  0  0  0  0  0  0  0  0
   58.4287   31.7826   52.5411 H   0  0  0  0  0  0  0  0  0  0  0  0
   58.3267   32.4984   50.8912 H   0  0  0  0  0  0  0  0  0  0  0  0
  1  2  2  0
  2  3  2  0
  2  4  1  0
  4  5  2  0
  5  6  1  0
  6  7  2  0
  7  8  1  0
  8  9  2  0
  9 10  1  0
 10 11  1  0
 11 12  2  0
 12 13  1  0
 13 14  2  0
 14 15  1  0
 15 16  2  0
 16 17  1  0
 17 18  1  0
 18 19  1  0
 19 20  1  0
 20 21  1  0
 21 22  1  0
  2 23  1  0
 23 24  1  0
 24 25  1  0
 25 26  1  0
 26 27  1  0
 27 28  1  0
  9  4  1  0
 16 11  1  0
 22 17  1  0
 28 23  1  0
  5 29  1  0
  6 30  1  0
  7 31  1  0
  8 32  1  0
 12 33  1  0
 13 34  1  0
 14 35  1  0
 15 36  1  0
 18 37  1  0
 18 38  1  0
 19 39  1  0
 19 40  1  0
 20 41  1  0
 21 42  1  0
 21 43  1  0
 22 44  1  0
 22 45  1  0
 24 46  1  0
 24 47  1  0
 25 48  1  0
 25 49  1  0
 27 50  1  0
 27 51  1  0
 28 52  1  0
 28 53  1  0
M  END
>  <UniqueID>  (55) 
49

>  <SMILES>  (55) 
O=S(=O)(c1ccccc1Sc1ccccc1N1CCNCC1)N1CCOCC1

>  <Energy>  (55) 
76.50350328955052

>  <Genealogy>  (55) 
O=S(=O)(c1ccccc1Sc1ccccc1N1CCNCC1)N1CCOCC1 (3D coordinates assigned)
O=S(=O)(c1ccccc1Sc1ccccc1N1CCNCC1)N1CCOCC1 (nonaromatic ring conformer: 76.50350328955052 kcal/mol)

>  <smiles>  (55) 
O=S(=O)(c1ccccc1Sc1ccccc1N1CCNCC1)N1CCOCC1

>  <score_type>  (55) 
oracle

>  <origin>  (55) 
adg

>  <m_score__min__energy>  (55) 
-9.0199999999999996

>  <m_primary>  (55) 
energy

$$$$
55:0
     RDKit          3D

 43 45  0  0  0  0  0  0  0  0999 V2000
   60.7280   34.1530   46.4460 C   0  0  0  0  0  0  0  0  0  0  0  0
   59.5260   34.5390   45.7900 O   0  0  0  0  0  0  0  0  0  0  0  0
   58.3470   33.7880   45.8710 C   0  0  0  0  0  0  0  0  0  0  0  0
   57.6110   33.8780   46.8920 O   0  0  0  0  0  0  0  0  0  0  0  0
   57.9700   32.8870   44.7600 C   0  0  0  0  0  0  0  0  0  0  0  0
   58.4790   33.0930   43.4660 C   0  0  0  0  0  0  0  0  0  0  0  0
   58.1130   32.2420   42.4190 C   0  0  0  0  0  0  0  0  0  0  0  0
   57.2300   31.1860   42.6490 C   0  0  0  0  0  0  0  0  0  0  0  0
   56.6970   30.9710   43.9300 C   0  0  0  0  0  0  0  0  0  0  0  0
   55.7420   29.8620   44.1590 C   0  0  0  0  0  0  0  0  0  0  0  0
   54.7940   29.6880   43.3480 O   0  0  0  0  0  0  0  0  0  0  0  0
   55.8840   28.9420   45.2510 N   0  0  0  0  0  0  0  0  0  0  0  0
   57.0170   28.1000   45.5180 C   0  0  0  0  0  0  0  0  0  0  0  0
   58.2110   28.6900   45.9480 C   0  0  0  0  0  0  0  0  0  0  0  0
   59.3340   27.9000   46.2120 C   0  0  0  0  0  0  0  0  0  0  0  0
   59.2730   26.5150   46.0390 C   0  0  0  0  0  0  0  0  0  0  0  0
   58.0880   25.9090   45.5940 C   0  0  0  0  0  0  0  0  0  0  0  0
   58.0220   24.4180   45.3860 C   0  0  0  0  0  0  0  0  0  0  0  0
   56.5860   23.9500   45.3370 C   0  0  0  0  0  0  0  0  0  0  0  0
   56.0670   23.3070   44.1980 C   0  0  0  0  0  0  0  0  0  0  0  0
   56.8580   23.1130   43.0680 O   0  0  0  0  0  0  0  0  0  0  0  0
   54.7800   22.8680   44.1950 N   0  0  0  0  0  0  0  0  0  0  0  0
   53.9780   23.0340   45.2770 C   0  0  0  0  0  0  0  0  0  0  0  0
   52.7910   22.6210   45.2490 O   0  0  0  0  0  0  0  0  0  0  0  0
   54.4560   23.6450   46.3900 N   0  0  0  0  0  0  0  0  0  0  0  0
   55.7340   24.1010   46.4470 C   0  0  0  0  0  0  0  0  0  0  0  0
   56.1430   24.6570   47.5010 O   0  0  0  0  0  0  0  0  0  0  0  0
   56.9690   26.7090   45.3150 C   0  0  0  0  0  0  0  0  0  0  0  0
   57.0890   31.8150   44.9840 C   0  0  0  0  0  0  0  0  0  0  0  0
   60.5825   34.1997   47.5353 H   0  0  0  0  0  0  0  0  0  0  0  0
   60.9908   33.1253   46.1549 H   0  0  0  0  0  0  0  0  0  0  0  0
   61.5400   34.8355   46.1549 H   0  0  0  0  0  0  0  0  0  0  0  0
   59.1690   33.9283   43.2762 H   0  0  0  0  0  0  0  0  0  0  0  0
   58.5221   32.4052   41.4110 H   0  0  0  0  0  0  0  0  0  0  0  0
   56.9498   30.5178   41.8213 H   0  0  0  0  0  0  0  0  0  0  0  0
   58.2662   29.7808   46.0789 H   0  0  0  0  0  0  0  0  0  0  0  0
   60.2671   28.3697   46.5565 H   0  0  0  0  0  0  0  0  0  0  0  0
   60.1575   25.8969   46.2525 H   0  0  0  0  0  0  0  0  0  0  0  0
   58.5177   24.1632   44.4377 H   0  0  0  0  0  0  0  0  0  0  0  0
   58.5283   23.9203   46.2262 H   0  0  0  0  0  0  0  0  0  0  0  0
   56.5860   23.4940   42.1700 H   0  0  0  0  0  0  0  0  0  0  0  0
   56.0473   26.2445   44.9346 H   0  0  0  0  0  0  0  0  0  0  0  0
   56.7011   31.6339   45.9973 H   0  0  0  0  0  0  0  0  0  0  0  0
  1  2  1  0
  2  3  1  0
  3  4  2  0
  3  5  1  0
  5  6  2  0
  6  7  1  0
  7  8  2  0
  8  9  1  0
  9 10  1  0
 10 11  2  0
 10 12  1  0
 12 13  1  0
 13 14  2  0
 14 15  1  0
 15 16  2  0
 16 17  1  0
 17 18  1  0
 18 19  1  0
 19 20  2  0
 20 21  1  0
 20 22  1  0
 22 23  1  0
 23 24  2  0
 23 25  1  0
 25 26  1  0
 26 27  2  0
 17 28  2  0
  9 29  2  0
 29  5  1  0
 28 13  1  0
 26 19  1  0
  1 30  1  0
  1 31  1  0
  1 32  1  0
  6 33  1  0
  7 34  1  0
  8 35  1  0
 14 36  1  0
 15 37  1  0
 16 38  1  0
 18 39  1  0
 18 40  1  0
 21 41  1  0
 28 42  1  0
 29 43  1  0
M  CHG  3  12  -1  22  -1  25  -1
M  END
>  <UniqueID>  (56) 
50

>  <SMILES>  (56) 
COC(=O)c1cccc(C(=O)[N-]c2cccc(Cc3c(O)[n-]c(=O)[n-]c3=O)c2)c1

>  <Energy>  (56) 
50.76297039918354

>  <Genealogy>  (56) 
COC(=O)c1cccc(C(=O)[N-]c2cccc(Cc3c(O)[n-]c(=O)[n-]c3=O)c2)c1 (protonated)
COC(=O)c1cccc(C(=O)[N-]c2cccc(Cc3c(O)[n-]c(=O)[n-]c3=O)c2)c1 (3D coordinates assigned)
COC(=O)c1cccc(C(=O)[N-]c2cccc(Cc3c(O)[n-]c(=O)[n-]c3=O)c2)c1 (optimized conformer: 50.76297039918354 kcal/mol)

>  <smiles>  (56) 
COC(=O)c1cccc(C(=O)Nc2cccc(Cc3c(O)[nH]c(=O)[nH]c3=O)c2)c1

>  <score_type>  (56) 
oracle

>  <origin>  (56) 
adg

>  <m_score__min__energy>  (56) 
-14.27

>  <m_primary>  (56) 
energy

$$$$
56:0
     RDKit          3D

 29 30  0  0  0  0  0  0  0  0999 V2000
   52.9770   25.0130   44.4900 H   0  0  0  0  0  0  0  0  0  0  0  0
   53.5450   24.1830   44.3660 O   0  0  0  0  0  0  0  0  0  0  0  0
   54.8550   24.1190   44.8400 C   0  0  0  0  0  0  0  0  0  0  0  0
   55.6590   23.0110   44.5450 C   0  0  0  0  0  0  0  0  0  0  0  0
   55.2623   22.1945   43.9238 H   0  0  0  0  0  0  0  0  0  0  0  0
   56.9630   22.9410   45.0380 C   0  0  0  0  0  0  0  0  0  0  0  0
   57.5883   22.0642   44.8140 H   0  0  0  0  0  0  0  0  0  0  0  0
   57.4750   23.9820   45.8150 C   0  0  0  0  0  0  0  0  0  0  0  0
   58.4993   23.9148   46.2103 H   0  0  0  0  0  0  0  0  0  0  0  0
   56.6930   25.1140   46.0960 C   0  0  0  0  0  0  0  0  0  0  0  0
   57.2900   26.1880   46.9220 C   0  0  0  0  0  0  0  0  0  0  0  0
   57.2356   26.1012   48.0172 H   0  0  0  0  0  0  0  0  0  0  0  0
   57.8930   27.2600   46.3940 C   0  0  0  0  0  0  0  0  0  0  0  0
   58.5557   27.8589   47.0360 H   0  0  0  0  0  0  0  0  0  0  0  0
   57.7090   27.6760   44.9870 C   0  0  0  0  0  0  0  0  0  0  0  0
   57.7050   26.7820   44.1000 O   0  0  0  0  0  0  0  0  0  0  0  0
   57.5590   29.0940   44.5790 C   0  0  0  0  0  0  0  0  0  0  0  0
   58.6890   29.8460   44.2060 C   0  0  0  0  0  0  0  0  0  0  0  0
   59.6871   29.3847   44.2374 H   0  0  0  0  0  0  0  0  0  0  0  0
   58.5510   31.1750   43.7960 C   0  0  0  0  0  0  0  0  0  0  0  0
   59.4405   31.7576   43.5144 H   0  0  0  0  0  0  0  0  0  0  0  0
   57.2860   31.7650   43.7430 C   0  0  0  0  0  0  0  0  0  0  0  0
   57.1798   32.8120   43.4228 H   0  0  0  0  0  0  0  0  0  0  0  0
   56.1560   31.0240   44.0970 C   0  0  0  0  0  0  0  0  0  0  0  0
   55.1601   31.4887   44.0492 H   0  0  0  0  0  0  0  0  0  0  0  0
   56.2840   29.6940   44.5120 C   0  0  0  0  0  0  0  0  0  0  0  0
   55.1440   28.9820   44.8680 O   0  0  0  0  0  0  0  0  0  0  0  0
   55.3620   25.1650   45.6230 C   0  0  0  0  0  0  0  0  0  0  0  0
   54.5280   26.2290   45.9520 O   0  0  0  0  0  0  0  0  0  0  0  0
  1  2  1  0
  2  3  1  0
  3  4  2  0
  4  5  1  0
  4  6  1  0
  6  7  1  0
  6  8  2  0
  8  9  1  0
  8 10  1  0
 10 11  1  0
 11 12  1  0
 11 13  2  0
 13 14  1  0
 13 15  1  0
 15 16  2  0
 15 17  1  0
 17 18  2  0
 18 19  1  0
 18 20  1  0
 20 21  1  0
 20 22  2  0
 22 23  1  0
 22 24  1  0
 24 25  1  0
 24 26  2  0
 26 27  1  0
 10 28  2  0
 28 29  1  0
 28  3  1  0
 26 17  1  0
M  CHG  2  27  -1  29  -1
M  END
>  <UniqueID>  (57) 
51

>  <SMILES>  (57) 
O=C(/C=C/c1cccc(O)c1[O-])c1ccccc1[O-]

>  <Energy>  (57) 
40.35786690792805

>  <Genealogy>  (57) 
O=C(C=Cc1cccc(O)c1[O-])c1ccccc1[O-] (protonated)
O=C(/C=C/c1cccc(O)c1[O-])c1ccccc1[O-] (cis-trans isomerization)
O=C(/C=C/c1cccc(O)c1[O-])c1ccccc1[O-] (3D coordinates assigned)
O=C(/C=C/c1cccc(O)c1[O-])c1ccccc1[O-] (optimized conformer: 40.35786690792805 kcal/mol)

>  <smiles>  (57) 
O=C(C=Cc1cccc(O)c1O)c1ccccc1O

>  <score_type>  (57) 
oracle

>  <origin>  (57) 
adg

>  <m_score__min__energy>  (57) 
-13.42

>  <m_primary>  (57) 
energy

$$$$
57:0
     RDKit          3D

 29 30  0  0  0  0  0  0  0  0999 V2000
   51.3380   28.3630   53.3340 O   0  0  0  0  0  0  0  0  0  0  0  0
   52.1670   29.2120   52.9110 C   0  0  0  0  0  0  0  0  0  0  0  0
   53.4950   29.2050   53.4490 N   0  0  0  0  0  0  0  0  0  0  0  0
   54.7040   28.9660   52.6690 C   0  0  0  0  0  0  0  0  0  0  0  0
   55.6620   30.1450   52.8380 C   0  0  0  0  0  0  0  0  0  0  0  0
   56.8350   29.9860   51.9770 N   0  0  0  0  0  0  0  0  0  0  0  0
   57.6010   30.9270   51.4990 C   0  0  0  0  0  0  0  0  0  0  0  0
   57.8110   32.1510   52.1680 C   0  0  0  0  0  0  0  0  0  0  0  0
   58.6450   33.1130   51.5940 C   0  0  0  0  0  0  0  0  0  0  0  0
   59.2610   32.8600   50.3680 C   0  0  0  0  0  0  0  0  0  0  0  0
   59.0300   31.6410   49.7300 C   0  0  0  0  0  0  0  0  0  0  0  0
   58.2150   30.7150   50.3020 N   0  0  0  0  0  0  0  0  0  0  0  0
   51.7500   30.1610   51.8570 C   0  0  0  0  0  0  0  0  0  0  0  0
   51.7790   29.7890   50.5070 C   0  0  0  0  0  0  0  0  0  0  0  0
   51.4120   30.6760   49.5470 N   0  0  0  0  0  0  0  0  0  0  0  0
   51.0200   31.9350   49.8710 C   0  0  0  0  0  0  0  0  0  0  0  0
   50.6810   32.7400   48.9670 O   0  0  0  0  0  0  0  0  0  0  0  0
   50.9990   32.3270   51.1710 N   0  0  0  0  0  0  0  0  0  0  0  0
   51.3580   31.4750   52.1670 C   0  0  0  0  0  0  0  0  0  0  0  0
   51.3240   31.8720   53.3620 O   0  0  0  0  0  0  0  0  0  0  0  0
   55.1911   28.0447   53.0210 H   0  0  0  0  0  0  0  0  0  0  0  0
   54.4393   28.8586   51.6068 H   0  0  0  0  0  0  0  0  0  0  0  0
   55.1404   31.0755   52.5694 H   0  0  0  0  0  0  0  0  0  0  0  0
   55.9949   30.1829   53.8857 H   0  0  0  0  0  0  0  0  0  0  0  0
   57.3219   32.3462   53.1338 H   0  0  0  0  0  0  0  0  0  0  0  0
   58.8162   34.0701   52.1085 H   0  0  0  0  0  0  0  0  0  0  0  0
   59.9204   33.6121   49.9103 H   0  0  0  0  0  0  0  0  0  0  0  0
   59.5081   31.4286   48.7624 H   0  0  0  0  0  0  0  0  0  0  0  0
   52.0999   28.7757   50.2239 H   0  0  0  0  0  0  0  0  0  0  0  0
  1  2  2  0
  2  3  1  0
  3  4  1  0
  4  5  1  0
  5  6  1  0
  6  7  2  3
  7  8  1  0
  8  9  2  0
  9 10  1  0
 10 11  2  0
 11 12  1  0
  2 13  1  0
 13 14  2  0
 14 15  1  0
 15 16  1  0
 16 17  2  0
 16 18  1  0
 18 19  1  0
 19 20  2  0
 12  7  1  0
 19 13  1  0
  4 21  1  0
  4 22  1  0
  5 23  1  0
  5 24  1  0
  8 25  1  0
  9 26  1  0
 10 27  1  0
 11 28  1  0
 14 29  1  0
M  CHG  4   3  -1  12  -1  15  -1  18  -1
M  END
>  <UniqueID>  (58) 
52

>  <SMILES>  (58) 
O=C([N-]CCN=c1cccc[n-]1)c1c[n-]c(=O)[n-]c1=O

>  <Energy>  (58) 
36.62230823701446

>  <Genealogy>  (58) 
O=C([N-]CCN=c1cccc[n-]1)c1c[n-]c(=O)[n-]c1=O (protonated)
O=C([N-]CCN=c1cccc[n-]1)c1c[n-]c(=O)[n-]c1=O (3D coordinates assigned)
O=C([N-]CCN=c1cccc[n-]1)c1c[n-]c(=O)[n-]c1=O (optimized conformer: 36.62230823701446 kcal/mol)

>  <smiles>  (58) 
O=C(NCCN=c1cccc[nH]1)c1c[nH]c(=O)[nH]c1=O

>  <score_type>  (58) 
oracle

>  <origin>  (58) 
adg

>  <m_score__min__energy>  (58) 
-14.1

>  <m_primary>  (58) 
energy

$$$$
58:0
     RDKit          3D

 30 31  0  0  0  0  0  0  0  0999 V2000
   59.0370   30.5960   44.7370 H   0  0  0  0  0  0  0  0  0  0  0  0
   58.1800   30.0880   44.5570 O   0  0  0  0  0  0  0  0  0  0  0  0
   57.9010   28.8460   45.1330 C   0  0  0  0  0  0  0  0  0  0  0  0
   56.5620   28.4140   45.2580 C   0  0  0  0  0  0  0  0  0  0  0  0
   55.5540   29.2750   44.7840 O   0  0  0  0  0  0  0  0  0  0  0  0
   55.5130   29.9090   43.5120 C   0  0  0  0  0  0  0  0  0  0  0  0
   55.4426   30.9984   43.6474 H   0  0  0  0  0  0  0  0  0  0  0  0
   56.4286   29.6675   42.9523 H   0  0  0  0  0  0  0  0  0  0  0  0
   54.6361   29.5516   42.9523 H   0  0  0  0  0  0  0  0  0  0  0  0
   56.2960   27.1540   45.8460 C   0  0  0  0  0  0  0  0  0  0  0  0
   55.0010   26.6740   45.9960 O   0  0  0  0  0  0  0  0  0  0  0  0
   57.3490   26.3550   46.2930 C   0  0  0  0  0  0  0  0  0  0  0  0
   57.1358   25.3769   46.7489 H   0  0  0  0  0  0  0  0  0  0  0  0
   58.6670   26.7850   46.1670 C   0  0  0  0  0  0  0  0  0  0  0  0
   59.4851   26.1430   46.5254 H   0  0  0  0  0  0  0  0  0  0  0  0
   58.9630   28.0260   45.5890 C   0  0  0  0  0  0  0  0  0  0  0  0
   60.3880   28.4220   45.4870 C   0  0  0  0  0  0  0  0  0  0  0  0
   61.1438   27.6498   45.2809 H   0  0  0  0  0  0  0  0  0  0  0  0
   60.7690   29.6540   45.6340 N   0  0  0  0  0  0  0  0  0  0  0  0
   60.6750   30.3690   46.9030 C   0  0  0  0  0  0  0  0  0  0  0  0
   60.3900   29.6630   47.6969 H   0  0  0  0  0  0  0  0  0  0  0  0
   61.6516   30.8203   47.1324 H   0  0  0  0  0  0  0  0  0  0  0  0
   59.6460   31.4540   46.8140 C   0  0  0  0  0  0  0  0  0  0  0  0
   59.3110   32.0590   45.6990 O   0  0  0  0  0  0  0  0  0  0  0  0
   58.4060   32.9700   45.9750 C   0  0  0  0  0  0  0  0  0  0  0  0
   57.9318   33.6353   45.2384 H   0  0  0  0  0  0  0  0  0  0  0  0
   58.1400   32.9660   47.3300 C   0  0  0  0  0  0  0  0  0  0  0  0
   57.4305   33.6134   47.8663 H   0  0  0  0  0  0  0  0  0  0  0  0
   58.9430   31.9870   47.8750 C   0  0  0  0  0  0  0  0  0  0  0  0
   59.0094   31.6927   48.9328 H   0  0  0  0  0  0  0  0  0  0  0  0
  1  2  1  0
  2  3  1  0
  3  4  2  0
  4  5  1  0
  5  6  1  0
  6  7  1  0
  6  8  1  0
  6  9  1  0
  4 10  1  0
 10 11  1  0
 10 12  2  0
 12 13  1  0
 12 14  1  0
 14 15  1  0
 14 16  2  0
 16 17  1  0
 17 18  1  0
 17 19  2  0
 19 20  1  0
 20 21  1  0
 20 22  1  0
 20 23  1  0
 23 24  1  0
 24 25  1  0
 25 26  1  0
 25 27  2  0
 27 28  1  0
 27 29  1  0
 29 30  1  0
 16  3  1  0
 29 23  2  0
M  CHG  1  11  -1
M  END
>  <UniqueID>  (59) 
53

>  <SMILES>  (59) 
COc1c([O-])ccc(/C=N/Cc2ccco2)c1O

>  <Energy>  (59) 
57.82848801925308

>  <Genealogy>  (59) 
COc1c([O-])ccc(C=NCc2ccco2)c1O (protonated)
COc1c([O-])ccc(/C=N/Cc2ccco2)c1O (cis-trans isomerization)
COc1c([O-])ccc(/C=N/Cc2ccco2)c1O (3D coordinates assigned)
COc1c([O-])ccc(/C=N/Cc2ccco2)c1O (optimized conformer: 57.82848801925308 kcal/mol)

>  <smiles>  (59) 
COc1c(O)ccc(C=NCc2ccco2)c1O

>  <score_type>  (59) 
oracle

>  <origin>  (59) 
adg

>  <m_score__min__energy>  (59) 
-9.2300000000000004

>  <m_primary>  (59) 
energy

$$$$
59:0
     RDKit          3D

 57 60  0  0  0  0  0  0  0  0999 V2000
   59.9490   29.1820   45.1570 N   0  0  0  0  0  0  0  0  0  0  0  0
   60.1320   29.6130   46.5090 C   0  0  0  0  0  0  0  0  0  0  0  0
   59.2380   29.2000   47.5070 C   0  0  0  0  0  0  0  0  0  0  0  0
   59.4200   29.6130   48.8290 C   0  0  0  0  0  0  0  0  0  0  0  0
   60.4950   30.4390   49.1620 C   0  0  0  0  0  0  0  0  0  0  0  0
   61.3870   30.8800   48.1680 C   0  0  0  0  0  0  0  0  0  0  0  0
   62.5490   31.7790   48.5320 C   0  0  0  0  0  0  0  0  0  0  0  0
   63.2230   32.3780   47.3610 N   0  0  0  0  0  0  0  0  0  0  0  0
   62.8260   33.7660   47.0570 C   0  0  0  0  0  0  0  0  0  0  0  0
   61.3280   33.9450   47.0590 C   0  0  0  0  0  0  0  0  0  0  0  0
   60.6870   34.5730   48.1390 C   0  0  0  0  0  0  0  0  0  0  0  0
   59.2910   34.6240   48.1950 C   0  0  0  0  0  0  0  0  0  0  0  0
   58.5270   34.0430   47.1780 C   0  0  0  0  0  0  0  0  0  0  0  0
   59.1590   33.4420   46.0800 C   0  0  0  0  0  0  0  0  0  0  0  0
   58.3780   32.7250   45.0630 C   0  0  0  0  0  0  0  0  0  0  0  0
   58.4590   33.0920   43.7130 C   0  0  0  0  0  0  0  0  0  0  0  0
   57.7960   32.3370   42.7430 C   0  0  0  0  0  0  0  0  0  0  0  0
   57.0740   31.1970   43.1090 C   0  0  0  0  0  0  0  0  0  0  0  0
   57.0000   30.8070   44.4590 C   0  0  0  0  0  0  0  0  0  0  0  0
   56.3280   29.5470   44.8470 C   0  0  0  0  0  0  0  0  0  0  0  0
   55.1280   29.3410   44.5170 O   0  0  0  0  0  0  0  0  0  0  0  0
   57.0530   28.5430   45.5690 N   0  0  0  0  0  0  0  0  0  0  0  0
   57.4730   27.2780   44.9770 C   0  0  0  0  0  0  0  0  0  0  0  0
   56.9730   26.1340   45.8180 C   0  0  0  0  0  0  0  0  0  0  0  0
   57.8050   25.5650   46.7960 C   0  0  0  0  0  0  0  0  0  0  0  0
   57.3450   24.4900   47.5620 C   0  0  0  0  0  0  0  0  0  0  0  0
   56.0560   23.9990   47.3460 C   0  0  0  0  0  0  0  0  0  0  0  0
   55.2620   24.5630   46.3970 N   0  0  0  0  0  0  0  0  0  0  0  0
   55.6870   25.6080   45.6350 C   0  0  0  0  0  0  0  0  0  0  0  0
   57.6400   31.5940   45.4330 C   0  0  0  0  0  0  0  0  0  0  0  0
   60.5580   33.4190   46.0130 C   0  0  0  0  0  0  0  0  0  0  0  0
   61.2070   30.4490   46.8440 C   0  0  0  0  0  0  0  0  0  0  0  0
   58.9930   29.0220   44.7710 H   0  0  0  0  0  0  0  0  0  0  0  0
   60.7710   29.0000   44.5390 H   0  0  0  0  0  0  0  0  0  0  0  0
   58.3904   28.5485   47.2481 H   0  0  0  0  0  0  0  0  0  0  0  0
   58.7155   29.2870   49.6084 H   0  0  0  0  0  0  0  0  0  0  0  0
   60.6452   30.7466   50.2074 H   0  0  0  0  0  0  0  0  0  0  0  0
   62.1730   32.5921   49.1704 H   0  0  0  0  0  0  0  0  0  0  0  0
   63.2925   31.1527   49.0468 H   0  0  0  0  0  0  0  0  0  0  0  0
   63.0240   31.7900   46.5170 H   0  0  0  0  0  0  0  0  0  0  0  0
   63.2633   34.4332   47.8144 H   0  0  0  0  0  0  0  0  0  0  0  0
   63.1932   34.0086   46.0489 H   0  0  0  0  0  0  0  0  0  0  0  0
   61.2850   35.0262   48.9434 H   0  0  0  0  0  0  0  0  0  0  0  0
   58.7930   35.1218   49.0401 H   0  0  0  0  0  0  0  0  0  0  0  0
   57.4288   34.0575   47.2394 H   0  0  0  0  0  0  0  0  0  0  0  0
   59.0448   33.9748   43.4173 H   0  0  0  0  0  0  0  0  0  0  0  0
   57.8420   32.6405   41.6867 H   0  0  0  0  0  0  0  0  0  0  0  0
   56.5616   30.6024   42.3383 H   0  0  0  0  0  0  0  0  0  0  0  0
   57.0585   27.1939   43.9616 H   0  0  0  0  0  0  0  0  0  0  0  0
   58.5715   27.2439   44.9313 H   0  0  0  0  0  0  0  0  0  0  0  0
   58.8168   25.9646   46.9589 H   0  0  0  0  0  0  0  0  0  0  0  0
   57.9918   24.0357   48.3270 H   0  0  0  0  0  0  0  0  0  0  0  0
   55.6823   23.1549   47.9442 H   0  0  0  0  0  0  0  0  0  0  0  0
   55.0200   26.0402   44.8745 H   0  0  0  0  0  0  0  0  0  0  0  0
   57.5601   31.3187   46.4950 H   0  0  0  0  0  0  0  0  0  0  0  0
   61.0556   32.9850   45.1332 H   0  0  0  0  0  0  0  0  0  0  0  0
   61.9138   30.7691   46.0643 H   0  0  0  0  0  0  0  0  0  0  0  0
  1  2  1  0
  2  3  2  0
  3  4  1  0
  4  5  2  0
  5  6  1  0
  6  7  1  0
  7  8  1  0
  8  9  1  0
  9 10  1  0
 10 11  2  0
 11 12  1  0
 12 13  2  0
 13 14  1  0
 14 15  1  0
 15 16  2  0
 16 17  1  0
 17 18  2  0
 18 19  1  0
 19 20  1  0
 20 21  2  0
 20 22  1  0
 22 23  1  0
 23 24  1  0
 24 25  2  0
 25 26  1  0
 26 27  2  0
 27 28  1  0
 28 29  2  0
 19 30  2  0
 14 31  2  0
  6 32  2  0
 32  2  1  0
 31 10  1  0
 30 15  1  0
 29 24  1  0
  1 33  1  0
  1 34  1  0
  3 35  1  0
  4 36  1  0
  5 37  1  0
  7 38  1  0
  7 39  1  0
  8 40  1  0
  9 41  1  0
  9 42  1  0
 11 43  1  0
 12 44  1  0
 13 45  1  0
 16 46  1  0
 17 47  1  0
 18 48  1  0
 23 49  1  0
 23 50  1  0
 25 51  1  0
 26 52  1  0
 27 53  1  0
 29 54  1  0
 30 55  1  0
 31 56  1  0
 32 57  1  0
M  CHG  1  22  -1
M  END
>  <UniqueID>  (60) 
54

>  <SMILES>  (60) 
Nc1cccc(CNCc2cccc(-c3cccc(C(=O)[N-]Cc4cccnc4)c3)c2)c1

>  <Energy>  (60) 
65.8956267783139

>  <Genealogy>  (60) 
Nc1cccc(CNCc2cccc(-c3cccc(C(=O)[N-]Cc4cccnc4)c3)c2)c1 (protonated)
Nc1cccc(CNCc2cccc(-c3cccc(C(=O)[N-]Cc4cccnc4)c3)c2)c1 (3D coordinates assigned)
Nc1cccc(CNCc2cccc(-c3cccc(C(=O)[N-]Cc4cccnc4)c3)c2)c1 (optimized conformer: 65.8956267783139 kcal/mol)

>  <smiles>  (60) 
Nc1cccc(CNCc2cccc(-c3cccc(C(=O)NCc4cccnc4)c3)c2)c1

>  <score_type>  (60) 
oracle

>  <origin>  (60) 
adg

>  <m_score__min__energy>  (60) 
-12.56

>  <m_primary>  (60) 
energy

$$$$
60:0
     RDKit          3D

 65 67  0  0  0  0  0  0  0  0999 V2000
   57.4070   31.4920   43.7940 C   0  0  0  0  0  0  0  0  0  0  0  0
   56.2370   31.1290   44.5210 O   0  0  0  0  0  0  0  0  0  0  0  0
   55.5990   29.8970   44.3490 C   0  0  0  0  0  0  0  0  0  0  0  0
   54.7860   29.7210   43.4010 O   0  0  0  0  0  0  0  0  0  0  0  0
   55.8680   28.8210   45.2450 N   0  0  0  0  0  0  0  0  0  0  0  0
   57.1680   28.6410   45.8820 C   0  0  0  0  0  0  0  0  0  0  0  0
   57.9750   27.5570   45.1520 C   0  0  2  0  0  0  0  0  0  0  0  0
   58.8610   28.1340   44.0390 C   0  0  0  0  0  0  0  0  0  0  0  0
   57.0760   26.5210   44.6380 N   0  0  0  0  0  0  0  0  0  0  0  0
   56.3580   25.5570   45.4270 C   0  0  0  0  0  0  0  0  0  0  0  0
   55.3580   25.9090   46.1070 O   0  0  0  0  0  0  0  0  0  0  0  0
   56.8120   24.1170   45.4750 C   0  0  1  0  0  0  0  0  0  0  0  0
   56.3880   23.3570   44.2020 C   0  0  0  0  0  0  0  0  0  0  0  0
   56.7870   21.9330   44.2110 N   0  0  0  0  0  0  0  0  0  0  0  0
   57.9840   21.5880   45.0120 C   0  0  0  0  0  0  0  0  0  0  0  0
   58.8720   22.7660   45.2950 C   0  0  0  0  0  0  0  0  0  0  0  0
   60.1260   22.6180   45.3390 O   0  0  0  0  0  0  0  0  0  0  0  0
   58.2710   24.0240   45.6170 N   0  0  0  0  0  0  0  0  0  0  0  0
   59.0130   24.9850   46.3850 C   0  0  0  0  0  0  0  0  0  0  0  0
   58.4360   25.5810   47.5130 C   0  0  0  0  0  0  0  0  0  0  0  0
   59.1500   26.5320   48.2470 C   0  0  0  0  0  0  0  0  0  0  0  0
   60.4430   26.9010   47.8610 C   0  0  0  0  0  0  0  0  0  0  0  0
   61.1230   27.8440   48.6440 O   0  0  0  0  0  0  0  0  0  0  0  0
   60.8150   28.1550   50.0010 C   0  0  0  0  0  0  0  0  0  0  0  0
   60.1820   29.5430   50.0760 C   0  0  0  0  0  0  0  0  0  0  0  0
   59.2920   29.7680   48.9790 O   0  0  0  0  0  0  0  0  0  0  0  0
   59.2470   30.9720   48.2630 C   0  0  0  0  0  0  0  0  0  0  0  0
   59.7390   31.0660   46.9470 C   0  0  0  0  0  0  0  0  0  0  0  0
   60.5700   29.7210   46.1810 Cl  0  0  0  0  0  0  0  0  0  0  0  0
   59.6120   32.2670   46.2380 C   0  0  0  0  0  0  0  0  0  0  0  0
   59.0010   33.3810   46.8280 C   0  0  0  0  0  0  0  0  0  0  0  0
   58.8950   34.6720   46.0720 C   0  0  0  0  0  0  0  0  0  0  0  0
   58.5630   33.3020   48.1570 C   0  0  0  0  0  0  0  0  0  0  0  0
   58.6860   32.1080   48.8720 C   0  0  0  0  0  0  0  0  0  0  0  0
   58.0910   32.0350   50.5240 Cl  0  0  0  0  0  0  0  0  0  0  0  0
   61.0190   26.3120   46.7190 C   0  0  0  0  0  0  0  0  0  0  0  0
   60.3070   25.3520   45.9910 C   0  0  0  0  0  0  0  0  0  0  0  0
   58.2137   31.7423   44.4987 H   0  0  0  0  0  0  0  0  0  0  0  0
   57.7215   30.6492   43.1609 H   0  0  0  0  0  0  0  0  0  0  0  0
   57.1893   32.3648   43.1609 H   0  0  0  0  0  0  0  0  0  0  0  0
   57.7227   29.5903   45.8487 H   0  0  0  0  0  0  0  0  0  0  0  0
   57.0145   28.3301   46.9259 H   0  0  0  0  0  0  0  0  0  0  0  0
   58.6590   27.1014   45.8831 H   0  0  0  0  0  0  0  0  0  0  0  0
   59.7027   28.6821   44.4875 H   0  0  0  0  0  0  0  0  0  0  0  0
   59.2477   27.3140   43.4160 H   0  0  0  0  0  0  0  0  0  0  0  0
   58.2675   28.8193   43.4160 H   0  0  0  0  0  0  0  0  0  0  0  0
   56.3304   23.6593   46.3517 H   0  0  0  0  0  0  0  0  0  0  0  0
   55.2932   23.4123   44.1106 H   0  0  0  0  0  0  0  0  0  0  0  0
   56.8993   23.8334   43.3525 H   0  0  0  0  0  0  0  0  0  0  0  0
   56.9610   21.6430   43.2180 H   0  0  0  0  0  0  0  0  0  0  0  0
   57.6515   21.1636   45.9708 H   0  0  0  0  0  0  0  0  0  0  0  0
   58.5738   20.8709   44.4223 H   0  0  0  0  0  0  0  0  0  0  0  0
   57.4184   25.3000   47.8221 H   0  0  0  0  0  0  0  0  0  0  0  0
   58.6922   26.9936   49.1343 H   0  0  0  0  0  0  0  0  0  0  0  0
   60.1102   27.4090   50.3969 H   0  0  0  0  0  0  0  0  0  0  0  0
   61.7386   28.1413   50.5983 H   0  0  0  0  0  0  0  0  0  0  0  0
   59.6197   29.6300   51.0174 H   0  0  0  0  0  0  0  0  0  0  0  0
   60.9848   30.2937   50.0316 H   0  0  0  0  0  0  0  0  0  0  0  0
   59.9952   32.3362   45.2092 H   0  0  0  0  0  0  0  0  0  0  0  0
   58.8263   35.5086   46.7829 H   0  0  0  0  0  0  0  0  0  0  0  0
   59.7856   34.8006   45.4393 H   0  0  0  0  0  0  0  0  0  0  0  0
   57.9953   34.6536   45.4393 H   0  0  0  0  0  0  0  0  0  0  0  0
   58.1198   34.1853   48.6400 H   0  0  0  0  0  0  0  0  0  0  0  0
   62.0293   26.6067   46.3989 H   0  0  0  0  0  0  0  0  0  0  0  0
   60.7644   24.8840   45.1068 H   0  0  0  0  0  0  0  0  0  0  0  0
  1  2  1  0
  2  3  1  0
  3  4  2  0
  3  5  1  0
  5  6  1  0
  6  7  1  0
  7  8  1  0
  7  9  1  0
  9 10  1  0
 10 11  2  0
 10 12  1  0
 12 13  1  0
 13 14  1  0
 14 15  1  0
 15 16  1  0
 16 17  2  0
 16 18  1  0
 18 19  1  0
 19 20  2  0
 20 21  1  0
 21 22  2  0
 22 23  1  0
 23 24  1  0
 24 25  1  0
 25 26  1  0
 26 27  1  0
 27 28  2  0
 28 29  1  0
 28 30  1  0
 30 31  2  0
 31 32  1  0
 31 33  1  0
 33 34  2  0
 34 35  1  0
 22 36  1  0
 36 37  2  0
 18 12  1  0
 37 19  1  0
 34 27  1  0
  1 38  1  0
  1 39  1  0
  1 40  1  0
  6 41  1  0
  6 42  1  0
  7 43  1  1
  8 44  1  0
  8 45  1  0
  8 46  1  0
 12 47  1  1
 13 48  1  0
 13 49  1  0
 14 50  1  0
 15 51  1  0
 15 52  1  0
 20 53  1  0
 21 54  1  0
 24 55  1  0
 24 56  1  0
 25 57  1  0
 25 58  1  0
 30 59  1  0
 32 60  1  0
 32 61  1  0
 32 62  1  0
 33 63  1  0
 36 64  1  0
 37 65  1  0
M  CHG  2   5  -1   9  -1
M  END
>  <UniqueID>  (61) 
55

>  <SMILES>  (61) 
COC(=O)[N-]C[C@H](C)[N-]C(=O)[C@H]1CNCC(=O)N1c1ccc(OCCOc2c(Cl)cc(C)cc2Cl)cc1

>  <Energy>  (61) 
72.08919473486601

>  <Genealogy>  (61) 
COC(=O)[N-]CC(C)[N-]C(=O)C1CNCC(=O)N1c1ccc(OCCOc2c(Cl)cc(C)cc2Cl)cc1 (protonated)
COC(=O)[N-]C[C@H](C)[N-]C(=O)[C@H]1CNCC(=O)N1c1ccc(OCCOc2c(Cl)cc(C)cc2Cl)cc1 (chirality)
COC(=O)[N-]C[C@H](C)[N-]C(=O)[C@H]1CNCC(=O)N1c1ccc(OCCOc2c(Cl)cc(C)cc2Cl)cc1 (3D coordinates assigned)
COC(=O)[N-]C[C@H](C)[N-]C(=O)[C@H]1CNCC(=O)N1c1ccc(OCCOc2c(Cl)cc(C)cc2Cl)cc1 (nonaromatic ring conformer: 72.08919473486601 kcal/mol)

>  <smiles>  (61) 
COC(=O)NCC(C)NC(=O)C1CNCC(=O)N1c1ccc(OCCOc2c(Cl)cc(C)cc2Cl)cc1

>  <score_type>  (61) 
oracle

>  <origin>  (61) 
adg

>  <m_score__min__energy>  (61) 
-12.41

>  <m_primary>  (61) 
energy

$$$$
61:0
     RDKit          3D

 29 30  0  0  0  0  0  0  0  0999 V2000
   55.2460   31.4780   44.4220 H   0  0  0  0  0  0  0  0  0  0  0  0
   56.2370   31.5860   44.6020 O   0  0  0  0  0  0  0  0  0  0  0  0
   57.0670   30.4940   44.8510 C   0  0  0  0  0  0  0  0  0  0  0  0
   58.4460   30.6990   44.9750 C   0  0  0  0  0  0  0  0  0  0  0  0
   58.8595   31.7134   44.8751 H   0  0  0  0  0  0  0  0  0  0  0  0
   59.3000   29.6220   45.2250 C   0  0  0  0  0  0  0  0  0  0  0  0
   60.3817   29.7931   45.3282 H   0  0  0  0  0  0  0  0  0  0  0  0
   58.7830   28.3220   45.3450 C   0  0  0  0  0  0  0  0  0  0  0  0
   59.6980   27.1670   45.6480 C   0  0  0  0  0  0  0  0  0  0  0  0
   60.7350   27.5296   45.7040 H   0  0  0  0  0  0  0  0  0  0  0  0
   59.6061   26.4163   44.8493 H   0  0  0  0  0  0  0  0  0  0  0  0
   59.3220   26.5410   46.9530 C   0  0  0  0  0  0  0  0  0  0  0  0
   59.6000   27.1320   48.0290 O   0  0  0  0  0  0  0  0  0  0  0  0
   58.4960   25.3710   46.9600 N   0  0  0  0  0  0  0  0  0  0  0  0
   57.3110   25.2010   46.4450 C   0  0  0  0  0  0  0  0  0  0  0  0
   56.3180   26.0840   46.6870 N   0  0  0  0  0  0  0  0  0  0  0  0
   55.2790   25.5890   45.9930 C   0  0  0  0  0  0  0  0  0  0  0  0
   54.0250   26.1820   45.9520 O   0  0  0  0  0  0  0  0  0  0  0  0
   55.6360   24.4400   45.3330 C   0  0  0  0  0  0  0  0  0  0  0  0
   54.9801   23.8276   44.6968 H   0  0  0  0  0  0  0  0  0  0  0  0
   56.9320   24.1960   45.6030 N   0  0  0  0  0  0  0  0  0  0  0  0
   57.7110   23.1290   44.9760 C   0  0  0  0  0  0  0  0  0  0  0  0
   58.1685   22.5023   45.7557 H   0  0  0  0  0  0  0  0  0  0  0  0
   57.0498   22.5114   44.3503 H   0  0  0  0  0  0  0  0  0  0  0  0
   58.5006   23.5706   44.3503 H   0  0  0  0  0  0  0  0  0  0  0  0
   57.3980   28.1180   45.2340 C   0  0  0  0  0  0  0  0  0  0  0  0
   56.9831   27.1052   45.3440 H   0  0  0  0  0  0  0  0  0  0  0  0
   56.5430   29.1980   44.9840 C   0  0  0  0  0  0  0  0  0  0  0  0
   55.1750   28.9740   44.8720 O   0  0  0  0  0  0  0  0  0  0  0  0
  1  2  1  0
  2  3  1  0
  3  4  2  0
  4  5  1  0
  4  6  1  0
  6  7  1  0
  6  8  2  0
  8  9  1  0
  9 10  1  0
  9 11  1  0
  9 12  1  0
 12 13  2  0
 12 14  1  0
 14 15  2  0
 15 16  1  0
 16 17  1  0
 17 18  1  0
 17 19  2  0
 19 20  1  0
 19 21  1  0
 21 22  1  0
 22 23  1  0
 22 24  1  0
 22 25  1  0
  8 26  1  0
 26 27  1  0
 26 28  2  0
 28 29  1  0
 28  3  1  0
 21 15  1  0
M  CHG  3  16  -1  18  -1  29  -1
M  END
>  <UniqueID>  (62) 
56

>  <SMILES>  (62) 
Cn1cc([O-])[n-]/c1=N/C(=O)Cc1ccc(O)c([O-])c1

>  <Energy>  (62) 
69.66671951413973

>  <Genealogy>  (62) 
Cn1cc([O-])[n-]c1=NC(=O)Cc1ccc(O)c([O-])c1 (protonated)
Cn1cc([O-])[n-]/c1=N/C(=O)Cc1ccc(O)c([O-])c1 (cis-trans isomerization)
Cn1cc([O-])[n-]/c1=N/C(=O)Cc1ccc(O)c([O-])c1 (3D coordinates assigned)
Cn1cc([O-])[n-]/c1=N/C(=O)Cc1ccc(O)c([O-])c1 (optimized conformer: 69.66671951413973 kcal/mol)

>  <smiles>  (62) 
Cn1cc(O)[nH]c1=NC(=O)Cc1ccc(O)c(O)c1

>  <score_type>  (62) 
oracle

>  <origin>  (62) 
adg

>  <m_score__min__energy>  (62) 
-14.460000000000001

>  <m_primary>  (62) 
energy

$$$$
62:0
     RDKit          3D

 52 54  0  0  0  0  0  0  0  0999 V2000
   57.0060   21.1900   43.0140 C   0  0  0  0  0  0  0  0  0  0  0  0
   56.0730   22.2070   43.2700 O   0  0  0  0  0  0  0  0  0  0  0  0
   56.3900   23.2440   44.1370 C   0  0  0  0  0  0  0  0  0  0  0  0
   55.4540   24.0320   44.7610 C   0  0  0  0  0  0  0  0  0  0  0  0
   55.8160   25.0460   45.6120 C   0  0  0  0  0  0  0  0  0  0  0  0
   57.1650   25.3120   45.8740 C   0  0  0  0  0  0  0  0  0  0  0  0
   57.5290   26.4170   46.7970 C   0  0  0  0  0  0  0  0  0  0  0  0
   58.4070   27.4360   46.0950 C   0  0  0  0  0  0  0  0  0  0  0  0
   57.6730   28.2350   45.1390 N   0  0  0  0  0  0  0  0  0  0  0  0
   57.7710   28.0820   43.7370 C   0  0  0  0  0  0  0  0  0  0  0  0
   58.5190   27.2180   43.2140 O   0  0  0  0  0  0  0  0  0  0  0  0
   56.9870   28.9390   42.7900 C   0  0  0  0  0  0  0  0  0  0  0  0
   55.9790   30.1260   43.7200 S   0  0  0  0  0  0  0  0  0  0  0  0
   57.0180   31.3480   44.5020 C   0  0  0  0  0  0  0  0  0  0  0  0
   57.4020   31.1030   45.7730 N   0  0  0  0  0  0  0  0  0  0  0  0
   58.1980   31.9880   46.4390 C   0  0  0  0  0  0  0  0  0  0  0  0
   58.5410   31.7410   47.6130 O   0  0  0  0  0  0  0  0  0  0  0  0
   58.6110   33.1420   45.8050 C   0  0  0  0  0  0  0  0  0  0  0  0
   59.6360   34.3170   46.6040 S   0  0  0  0  0  0  0  0  0  0  0  0
   59.9370   35.4260   45.6410 O   0  0  0  0  0  0  0  0  0  0  0  0
   58.9020   34.9230   47.7690 O   0  0  0  0  0  0  0  0  0  0  0  0
   61.1570   33.6130   47.0860 C   0  0  0  0  0  0  0  0  0  0  0  0
   61.2110   32.7460   48.1830 C   0  0  0  0  0  0  0  0  0  0  0  0
   62.4310   32.1990   48.5450 C   0  0  0  0  0  0  0  0  0  0  0  0
   63.5800   32.5010   47.8400 C   0  0  0  0  0  0  0  0  0  0  0  0
   63.5500   33.3550   46.7520 C   0  0  0  0  0  0  0  0  0  0  0  0
   62.3310   33.8930   46.4020 C   0  0  0  0  0  0  0  0  0  0  0  0
   58.1890   33.3400   44.5100 C   0  0  0  0  0  0  0  0  0  0  0  0
   57.4040   32.4760   43.8410 N   0  0  0  0  0  0  0  0  0  0  0  0
   58.0890   24.5120   45.2400 C   0  0  0  0  0  0  0  0  0  0  0  0
   57.7200   23.4940   44.3850 C   0  0  0  0  0  0  0  0  0  0  0  0
   57.3776   20.7850   43.9668 H   0  0  0  0  0  0  0  0  0  0  0  0
   56.5240   20.3869   42.4373 H   0  0  0  0  0  0  0  0  0  0  0  0
   57.8476   21.6012   42.4373 H   0  0  0  0  0  0  0  0  0  0  0  0
   54.3862   23.8455   44.5738 H   0  0  0  0  0  0  0  0  0  0  0  0
   55.0376   25.6563   46.0934 H   0  0  0  0  0  0  0  0  0  0  0  0
   56.6112   26.9118   47.1474 H   0  0  0  0  0  0  0  0  0  0  0  0
   58.0856   25.9976   47.6480 H   0  0  0  0  0  0  0  0  0  0  0  0
   58.8450   28.1045   46.8509 H   0  0  0  0  0  0  0  0  0  0  0  0
   59.1831   26.8849   45.5438 H   0  0  0  0  0  0  0  0  0  0  0  0
   57.0130   28.9920   45.4750 H   0  0  0  0  0  0  0  0  0  0  0  0
   57.6802   29.4851   42.1334 H   0  0  0  0  0  0  0  0  0  0  0  0
   56.3271   28.2996   42.1852 H   0  0  0  0  0  0  0  0  0  0  0  0
   60.2995   32.5028   48.7487 H   0  0  0  0  0  0  0  0  0  0  0  0
   62.4856   31.5153   49.4050 H   0  0  0  0  0  0  0  0  0  0  0  0
   64.5364   32.0542   48.1494 H   0  0  0  0  0  0  0  0  0  0  0  0
   64.4637   33.5950   46.1885 H   0  0  0  0  0  0  0  0  0  0  0  0
   62.2865   34.5759   45.5408 H   0  0  0  0  0  0  0  0  0  0  0  0
   58.5115   34.2558   43.9931 H   0  0  0  0  0  0  0  0  0  0  0  0
   57.0920   32.6500   42.8440 H   0  0  0  0  0  0  0  0  0  0  0  0
   59.1591   24.6908   45.4216 H   0  0  0  0  0  0  0  0  0  0  0  0
   58.4925   22.8796   43.8995 H   0  0  0  0  0  0  0  0  0  0  0  0
  1  2  1  0
  2  3  1  0
  3  4  2  0
  4  5  1  0
  5  6  2  0
  6  7  1  0
  7  8  1  0
  8  9  1  0
  9 10  1  0
 10 11  2  0
 10 12  1  0
 12 13  1  0
 13 14  1  0
 14 15  2  0
 15 16  1  0
 16 17  2  0
 16 18  1  0
 18 19  1  0
 19 20  2  0
 19 21  2  0
 19 22  1  0
 22 23  2  0
 23 24  1  0
 24 25  2  0
 25 26  1  0
 26 27  2  0
 18 28  2  0
 28 29  1  0
  6 30  1  0
 30 31  2  0
 31  3  1  0
 29 14  1  0
 27 22  1  0
  1 32  1  0
  1 33  1  0
  1 34  1  0
  4 35  1  0
  5 36  1  0
  7 37  1  0
  7 38  1  0
  8 39  1  0
  8 40  1  0
  9 41  1  0
 12 42  1  0
 12 43  1  0
 23 44  1  0
 24 45  1  0
 25 46  1  0
 26 47  1  0
 27 48  1  0
 28 49  1  0
 29 50  1  0
 30 51  1  0
 31 52  1  0
M  END
>  <smiles>  (63) 
COc1ccc(CCNC(=O)CSc2nc(=O)c(S(=O)(=O)c3ccccc3)c[nH]2)cc1

>  <score_type>  (63) 
oracle

>  <origin>  (63) 
adg

>  <m_score__min__energy>  (63) 
-9.75

>  <m_primary>  (63) 
energy

$$$$
63:0
     RDKit          3D

 52 54  0  0  0  0  0  0  0  0999 V2000
   57.3705   29.2356   42.7284 H   0  0  0  0  0  0  0  0  0  0  0  0
   57.4150   29.3870   43.8170 C   0  0  0  0  0  0  0  0  0  0  0  0
   56.2480   30.0240   44.4630 C   0  0  0  0  0  0  0  0  0  0  0  0
   55.1950   29.3570   44.6270 O   0  0  0  0  0  0  0  0  0  0  0  0
   56.2290   31.4160   44.8100 N   0  0  0  0  0  0  0  0  0  0  0  0
   57.3210   32.3160   45.0730 C   0  0  0  0  0  0  0  0  0  0  0  0
   57.8980   32.9870   43.9880 C   0  0  0  0  0  0  0  0  0  0  0  0
   57.5172   32.8080   42.9717 H   0  0  0  0  0  0  0  0  0  0  0  0
   58.9520   33.8810   44.1840 C   0  0  0  0  0  0  0  0  0  0  0  0
   59.3909   34.4083   43.3242 H   0  0  0  0  0  0  0  0  0  0  0  0
   59.4510   34.1080   45.4690 C   0  0  0  0  0  0  0  0  0  0  0  0
   60.2900   34.8045   45.6139 H   0  0  0  0  0  0  0  0  0  0  0  0
   58.8880   33.4520   46.5790 C   0  0  0  0  0  0  0  0  0  0  0  0
   59.4890   33.6220   47.9300 C   0  0  0  0  0  0  0  0  0  0  0  0
   58.8890   33.1760   48.9470 O   0  0  0  0  0  0  0  0  0  0  0  0
   60.6790   34.3960   48.1210 N   0  0  0  0  0  0  0  0  0  0  0  0
   61.9000   33.8990   48.6910 C   0  0  0  0  0  0  0  0  0  0  0  0
   62.0220   33.6990   50.0780 C   0  0  0  0  0  0  0  0  0  0  0  0
   61.1675   33.9082   50.7384 H   0  0  0  0  0  0  0  0  0  0  0  0
   63.2230   33.2360   50.6210 C   0  0  0  0  0  0  0  0  0  0  0  0
   63.3173   33.0983   51.7083 H   0  0  0  0  0  0  0  0  0  0  0  0
   64.3030   32.9480   49.7860 C   0  0  0  0  0  0  0  0  0  0  0  0
   65.2438   32.5729   50.2151 H   0  0  0  0  0  0  0  0  0  0  0  0
   64.1920   33.1350   48.4070 C   0  0  0  0  0  0  0  0  0  0  0  0
   65.0436   32.8966   47.7529 H   0  0  0  0  0  0  0  0  0  0  0  0
   62.9990   33.6260   47.8490 C   0  0  0  0  0  0  0  0  0  0  0  0
   62.8850   33.8180   46.3610 C   0  0  0  0  0  0  0  0  0  0  0  0
   62.3336   34.7467   46.1523 H   0  0  0  0  0  0  0  0  0  0  0  0
   63.8913   33.8824   45.9214 H   0  0  0  0  0  0  0  0  0  0  0  0
   62.3468   32.9653   45.9214 H   0  0  0  0  0  0  0  0  0  0  0  0
   57.7910   32.5870   46.3730 C   0  0  0  0  0  0  0  0  0  0  0  0
   57.2977   32.1193   47.2378 H   0  0  0  0  0  0  0  0  0  0  0  0
   58.5260   28.9780   44.4530 C   0  0  0  0  0  0  0  0  0  0  0  0
   59.4766   29.4456   44.1568 H   0  0  0  0  0  0  0  0  0  0  0  0
   58.5790   27.9510   45.5190 C   0  0  0  0  0  0  0  0  0  0  0  0
   59.7690   27.7880   46.2440 C   0  0  0  0  0  0  0  0  0  0  0  0
   60.6308   28.4387   46.0346 H   0  0  0  0  0  0  0  0  0  0  0  0
   59.8650   26.8040   47.2300 C   0  0  0  0  0  0  0  0  0  0  0  0
   60.8012   26.6823   47.7945 H   0  0  0  0  0  0  0  0  0  0  0  0
   58.7750   25.9740   47.5010 C   0  0  0  0  0  0  0  0  0  0  0  0
   58.8680   25.1796   48.2561 H   0  0  0  0  0  0  0  0  0  0  0  0
   57.5640   26.1460   46.8180 C   0  0  0  0  0  0  0  0  0  0  0  0
   56.4800   25.2530   47.1080 N   0  0  0  0  0  0  0  0  0  0  0  0
   55.2380   24.7650   45.9970 S   0  0  0  0  0  0  0  0  0  0  0  0
   54.3860   25.9570   45.6640 O   0  0  0  0  0  0  0  0  0  0  0  0
   54.3680   23.7030   46.6180 O   0  0  0  0  0  0  0  0  0  0  0  0
   55.9850   24.1580   44.5010 C   0  0  0  0  0  0  0  0  0  0  0  0
   56.8158   23.4829   44.7538 H   0  0  0  0  0  0  0  0  0  0  0  0
   55.2341   23.6109   43.9121 H   0  0  0  0  0  0  0  0  0  0  0  0
   56.3669   25.0049   43.9121 H   0  0  0  0  0  0  0  0  0  0  0  0
   57.4590   27.1650   45.8530 C   0  0  0  0  0  0  0  0  0  0  0  0
   56.4951   27.3490   45.3559 H   0  0  0  0  0  0  0  0  0  0  0  0
  1  2  1  0
  2  3  1  0
  3  4  2  0
  3  5  1  0
  5  6  1  0
  6  7  2  0
  7  8  1  0
  7  9  1  0
  9 10  1  0
  9 11  2  0
 11 12  1  0
 11 13  1  0
 13 14  1  0
 14 15  2  0
 14 16  1  0
 16 17  1  0
 17 18  2  0
 18 19  1  0
 18 20  1  0
 20 21  1  0
 20 22  2  0
 22 23  1  0
 22 24  1  0
 24 25  1  0
 24 26  2  0
 26 27  1  0
 27 28  1  0
 27 29  1  0
 27 30  1  0
 13 31  2  0
 31 32  1  0
  2 33  2  0
 33 34  1  0
 33 35  1  0
 35 36  2  0
 36 37  1  0
 36 38  1  0
 38 39  1  0
 38 40  2  0
 40 41  1  0
 40 42  1  0
 42 43  1  0
 43 44  1  0
 44 45  2  0
 44 46  2  0
 44 47  1  0
 47 48  1  0
 47 49  1  0
 47 50  1  0
 42 51  2  0
 51 52  1  0
 31  6  1  0
 51 35  1  0
 26 17  1  0
M  CHG  3   5  -1  16  -1  43  -1
M  END
>  <UniqueID>  (64) 
57

>  <SMILES>  (64) 
Cc1ccccc1[N-]C(=O)c1cccc([N-]C(=O)/C=C\c2cccc([N-]S(C)(=O)=O)c2)c1

>  <Energy>  (64) 
71.75983384697828

>  <Genealogy>  (64) 
Cc1ccccc1[N-]C(=O)c1cccc([N-]C(=O)C=Cc2cccc([N-]S(C)(=O)=O)c2)c1 (protonated)
Cc1ccccc1[N-]C(=O)c1cccc([N-]C(=O)/C=C\c2cccc([N-]S(C)(=O)=O)c2)c1 (cis-trans isomerization)
Cc1ccccc1[N-]C(=O)c1cccc([N-]C(=O)/C=C\c2cccc([N-]S(C)(=O)=O)c2)c1 (3D coordinates assigned)
Cc1ccccc1[N-]C(=O)c1cccc([N-]C(=O)/C=C\c2cccc([N-]S(C)(=O)=O)c2)c1 (optimized conformer: 71.75983384697828 kcal/mol)

>  <smiles>  (64) 
Cc1ccccc1NC(=O)c1cccc(NC(=O)C=Cc2cccc(NS(C)(=O)=O)c2)c1

>  <score_type>  (64) 
oracle

>  <origin>  (64) 
adg

>  <m_score__min__energy>  (64) 
-14.91

>  <m_primary>  (64) 
energy

$$$$
64:0
     RDKit          3D

 29 30  0  0  0  0  0  0  0  0999 V2000
   55.1450   27.9900   44.9420 H   0  0  0  0  0  0  0  0  0  0  0  0
   55.5240   28.8830   45.2300 O   0  0  0  0  0  0  0  0  0  0  0  0
   55.7110   29.8800   44.3020 N   0  0  0  0  0  0  0  0  0  0  0  0
   56.9040   30.2450   43.9610 C   0  0  0  0  0  0  0  0  0  0  0  0
   57.7281   29.5171   43.9918 H   0  0  0  0  0  0  0  0  0  0  0  0
   57.1700   31.6510   43.5250 C   0  0  0  0  0  0  0  0  0  0  0  0
   57.6946   31.6370   42.5583 H   0  0  0  0  0  0  0  0  0  0  0  0
   56.2109   32.1809   43.4285 H   0  0  0  0  0  0  0  0  0  0  0  0
   58.0210   32.3660   44.5400 C   0  0  0  0  0  0  0  0  0  0  0  0
   58.2700   31.7870   45.7940 C   0  0  0  0  0  0  0  0  0  0  0  0
   57.8605   30.7936   46.0294 H   0  0  0  0  0  0  0  0  0  0  0  0
   59.0360   32.4670   46.7450 C   0  0  0  0  0  0  0  0  0  0  0  0
   59.2410   31.9972   47.7183 H   0  0  0  0  0  0  0  0  0  0  0  0
   59.5440   33.7410   46.4680 C   0  0  0  0  0  0  0  0  0  0  0  0
   60.3200   34.3830   47.4430 O   0  0  0  0  0  0  0  0  0  0  0  0
   61.6160   34.0040   47.8210 C   0  0  0  0  0  0  0  0  0  0  0  0
   62.4450   33.3950   46.8760 C   0  0  0  0  0  0  0  0  0  0  0  0
   62.0912   33.2213   45.8490 H   0  0  0  0  0  0  0  0  0  0  0  0
   63.7280   33.0120   47.2590 C   0  0  0  0  0  0  0  0  0  0  0  0
   64.4027   32.5400   46.5296 H   0  0  0  0  0  0  0  0  0  0  0  0
   64.1450   33.2220   48.5340 N   0  0  0  0  0  0  0  0  0  0  0  0
   63.3240   33.7980   49.4500 C   0  0  0  0  0  0  0  0  0  0  0  0
   63.6765   33.9560   50.4800 H   0  0  0  0  0  0  0  0  0  0  0  0
   62.0670   34.1800   49.0970 N   0  0  0  0  0  0  0  0  0  0  0  0
   61.4440   34.5870   49.8300 H   0  0  0  0  0  0  0  0  0  0  0  0
   59.3030   34.3200   45.2090 C   0  0  0  0  0  0  0  0  0  0  0  0
   59.7177   35.3112   44.9731 H   0  0  0  0  0  0  0  0  0  0  0  0
   58.5380   33.6400   44.2560 C   0  0  0  0  0  0  0  0  0  0  0  0
   58.3404   34.1056   43.2792 H   0  0  0  0  0  0  0  0  0  0  0  0
  1  2  1  0
  2  3  1  0
  3  4  2  0
  4  5  1  0
  4  6  1  0
  6  7  1  0
  6  8  1  0
  6  9  1  0
  9 10  2  0
 10 11  1  0
 10 12  1  0
 12 13  1  0
 12 14  2  0
 14 15  1  0
 15 16  1  0
 16 17  2  0
 17 18  1  0
 17 19  1  0
 19 20  1  0
 19 21  2  0
 21 22  1  0
 22 23  1  0
 22 24  2  0
 24 25  1  0
 14 26  1  0
 26 27  1  0
 26 28  2  0
 28 29  1  0
 28  9  1  0
 24 16  1  0
M  CHG  1  24   1
M  END
>  <UniqueID>  (65) 
58

>  <SMILES>  (65) 
O/N=C/Cc1ccc(Oc2ccnc[nH+]2)cc1

>  <Energy>  (65) 
31.966052704688614

>  <Genealogy>  (65) 
ON=CCc1ccc(Oc2ccnc[nH+]2)cc1 (protonated)
O/N=C/Cc1ccc(Oc2ccnc[nH+]2)cc1 (cis-trans isomerization)
O/N=C/Cc1ccc(Oc2ccnc[nH+]2)cc1 (3D coordinates assigned)
O/N=C/Cc1ccc(Oc2ccnc[nH+]2)cc1 (optimized conformer: 31.966052704688614 kcal/mol)

>  <smiles>  (65) 
ON=CCc1ccc(Oc2ccncn2)cc1

>  <score_type>  (65) 
oracle

>  <origin>  (65) 
adg

>  <m_score__min__energy>  (65) 
-6.2000000000000002

>  <m_primary>  (65) 
energy

$$$$
65:0
     RDKit          3D

 39 42  0  0  0  0  0  0  0  0999 V2000
   60.7331   29.9287   45.2184 H   0  0  0  0  0  0  0  0  0  0  0  0
   59.8270   29.5500   45.7140 C   0  0  0  0  0  0  0  0  0  0  0  0
   58.6500   29.7540   45.1080 C   0  0  0  0  0  0  0  0  0  0  0  0
   57.9920   28.6070   43.9030 S   0  0  0  0  0  0  0  0  0  0  0  0
   56.5770   29.7150   43.7450 C   0  0  0  0  0  0  0  0  0  0  0  0
   55.5200   29.4480   42.8280 N   0  0  0  0  0  0  0  0  0  0  0  0
   54.7070   30.0990   42.7510 H   0  0  0  0  0  0  0  0  0  0  0  0
   55.5490   28.5970   42.2250 H   0  0  0  0  0  0  0  0  0  0  0  0
   56.5560   30.7630   44.5030 N   0  0  0  0  0  0  0  0  0  0  0  0
   57.7030   30.8430   45.3290 C   0  0  0  0  0  0  0  0  0  0  0  0
   57.8350   31.7480   46.1940 O   0  0  0  0  0  0  0  0  0  0  0  0
   59.9870   28.8510   47.0020 C   0  0  0  0  0  0  0  0  0  0  0  0
   59.3860   27.6740   47.4250 C   0  0  0  0  0  0  0  0  0  0  0  0
   58.4060   26.8440   46.6940 C   0  0  0  0  0  0  0  0  0  0  0  0
   58.8540   25.7450   45.9430 C   0  0  0  0  0  0  0  0  0  0  0  0
   59.9275   25.5077   45.9077 H   0  0  0  0  0  0  0  0  0  0  0  0
   57.9430   24.9510   45.2400 C   0  0  0  0  0  0  0  0  0  0  0  0
   58.2996   24.0846   44.6636 H   0  0  0  0  0  0  0  0  0  0  0  0
   56.5800   25.2570   45.2690 C   0  0  0  0  0  0  0  0  0  0  0  0
   55.8633   24.6271   44.7217 H   0  0  0  0  0  0  0  0  0  0  0  0
   56.1270   26.3630   45.9930 C   0  0  0  0  0  0  0  0  0  0  0  0
   54.7740   26.6790   46.0040 O   0  0  0  0  0  0  0  0  0  0  0  0
   57.0360   27.1580   46.7000 C   0  0  0  0  0  0  0  0  0  0  0  0
   56.6769   28.0323   47.2628 H   0  0  0  0  0  0  0  0  0  0  0  0
   59.7580   27.4220   48.6950 N   0  0  0  0  0  0  0  0  0  0  0  0
   60.5980   28.3740   49.0770 N   0  0  0  0  0  0  0  0  0  0  0  0
   61.1950   28.4280   50.3900 C   0  0  0  0  0  0  0  0  0  0  0  0
   61.7940   29.6190   50.8410 C   0  0  0  0  0  0  0  0  0  0  0  0
   61.8039   30.5050   50.1892 H   0  0  0  0  0  0  0  0  0  0  0  0
   62.3770   29.6860   52.1110 C   0  0  0  0  0  0  0  0  0  0  0  0
   62.8469   30.6206   52.4512 H   0  0  0  0  0  0  0  0  0  0  0  0
   62.3630   28.5680   52.9470 C   0  0  0  0  0  0  0  0  0  0  0  0
   62.8223   28.6216   53.9451 H   0  0  0  0  0  0  0  0  0  0  0  0
   61.7660   27.3820   52.5160 C   0  0  0  0  0  0  0  0  0  0  0  0
   61.7535   26.5028   53.1770 H   0  0  0  0  0  0  0  0  0  0  0  0
   61.1840   27.3080   51.2470 C   0  0  0  0  0  0  0  0  0  0  0  0
   60.7145   26.3703   50.9149 H   0  0  0  0  0  0  0  0  0  0  0  0
   60.7610   29.2580   48.0690 C   0  0  0  0  0  0  0  0  0  0  0  0
   61.4024   30.1513   48.0945 H   0  0  0  0  0  0  0  0  0  0  0  0
  1  2  1  0
  2  3  2  0
  3  4  1  0
  4  5  1  0
  5  6  1  0
  6  7  1  0
  6  8  1  0
  5  9  2  0
  9 10  1  0
 10 11  2  0
  2 12  1  0
 12 13  1  0
 13 14  1  0
 14 15  2  0
 15 16  1  0
 15 17  1  0
 17 18  1  0
 17 19  2  0
 19 20  1  0
 19 21  1  0
 21 22  1  0
 21 23  2  0
 23 24  1  0
 13 25  2  0
 25 26  1  0
 26 27  1  0
 27 28  2  0
 28 29  1  0
 28 30  1  0
 30 31  1  0
 30 32  2  0
 32 33  1  0
 32 34  1  0
 34 35  1  0
 34 36  2  0
 36 37  1  0
 26 38  1  0
 38 39  1  0
 10  3  1  0
 38 12  2  0
 23 14  1  0
 36 27  1  0
M  CHG  1  22  -1
M  END
>  <UniqueID>  (66) 
59

>  <SMILES>  (66) 
NC1=NC(=O)/C(=C\c2cn(-c3ccccc3)nc2-c2cccc([O-])c2)S1

>  <Energy>  (66) 
106.34637394943883

>  <Genealogy>  (66) 
NC1=NC(=O)C(=Cc2cn(-c3ccccc3)nc2-c2cccc([O-])c2)S1 (protonated)
NC1=NC(=O)/C(=C\c2cn(-c3ccccc3)nc2-c2cccc([O-])c2)S1 (cis-trans isomerization)
NC1=NC(=O)/C(=C\c2cn(-c3ccccc3)nc2-c2cccc([O-])c2)S1 (3D coordinates assigned)
NC1=NC(=O)/C(=C\c2cn(-c3ccccc3)nc2-c2cccc([O-])c2)S1 (nonaromatic ring conformer: 106.34637394943883 kcal/mol)

>  <smiles>  (66) 
NC1=NC(=O)C(=Cc2cn(-c3ccccc3)nc2-c2cccc(O)c2)S1

>  <score_type>  (66) 
oracle

>  <origin>  (66) 
adg

>  <m_score__min__energy>  (66) 
-12.029999999999999

>  <m_primary>  (66) 
energy

$$$$
66:0
     RDKit          3D

 54 57  0  0  0  0  0  0  0  0999 V2000
   55.1730   29.3460   44.7630 O   0  0  0  0  0  0  0  0  0  0  0  0
   56.4320   29.3600   44.7090 C   0  0  0  0  0  0  0  0  0  0  0  0
   57.1150   29.2400   43.3840 C   0  0  0  0  0  0  0  0  0  0  0  0
   57.7680   27.5550   43.1300 S   0  0  0  0  0  0  0  0  0  0  0  0
   58.8800   27.6100   44.5380 C   0  0  0  0  0  0  0  0  0  0  0  0
   60.0190   28.3310   44.5530 N   0  0  0  0  0  0  0  0  0  0  0  0
   60.5780   28.1520   45.7420 N   0  0  0  0  0  0  0  0  0  0  0  0
   59.7650   27.3260   46.4230 C   0  0  0  0  0  0  0  0  0  0  0  0
   59.9880   26.9480   47.6040 O   0  0  0  0  0  0  0  0  0  0  0  0
   58.6910   26.9570   45.7020 N   0  0  0  0  0  0  0  0  0  0  0  0
   57.5640   26.1220   46.1180 C   0  0  0  0  0  0  0  0  0  0  0  0
   57.5930   24.8070   45.3860 C   0  0  0  0  0  0  0  0  0  0  0  0
   58.6200   23.8800   45.6330 C   0  0  0  0  0  0  0  0  0  0  0  0
   58.6620   22.6730   44.9280 C   0  0  0  0  0  0  0  0  0  0  0  0
   57.6870   22.3870   43.9700 C   0  0  0  0  0  0  0  0  0  0  0  0
   56.6680   23.3070   43.7120 C   0  0  0  0  0  0  0  0  0  0  0  0
   56.6230   24.5160   44.4140 C   0  0  0  0  0  0  0  0  0  0  0  0
   57.2140   29.5380   45.8970 N   0  0  0  0  0  0  0  0  0  0  0  0
   57.8790   30.7430   46.3000 C   0  0  0  0  0  0  0  0  0  0  0  0
   58.6980   30.7110   47.4350 C   0  0  0  0  0  0  0  0  0  0  0  0
   59.3640   31.8640   47.8620 C   0  0  0  0  0  0  0  0  0  0  0  0
   59.2010   33.0690   47.1650 C   0  0  0  0  0  0  0  0  0  0  0  0
   60.0360   34.5320   47.6810 S   0  0  0  0  0  0  0  0  0  0  0  0
   59.8110   35.6380   46.6860 O   0  0  0  0  0  0  0  0  0  0  0  0
   59.4790   34.9570   49.0110 O   0  0  0  0  0  0  0  0  0  0  0  0
   61.7450   34.2080   47.8310 N   0  0  0  0  0  0  0  0  0  0  0  0
   62.0270   33.5700   49.1300 C   0  0  0  0  0  0  0  0  0  0  0  0
   63.4360   32.9450   49.1450 C   0  0  0  0  0  0  0  0  0  0  0  0
   64.2310   33.4760   48.1050 O   0  0  0  0  0  0  0  0  0  0  0  0
   63.7070   33.0820   46.8470 C   0  0  0  0  0  0  0  0  0  0  0  0
   62.1900   33.3460   46.7280 C   0  0  0  0  0  0  0  0  0  0  0  0
   58.3580   33.1130   46.0480 C   0  0  0  0  0  0  0  0  0  0  0  0
   57.6950   31.9600   45.6190 C   0  0  0  0  0  0  0  0  0  0  0  0
   56.3935   29.4695   42.5861 H   0  0  0  0  0  0  0  0  0  0  0  0
   57.9568   29.9476   43.3601 H   0  0  0  0  0  0  0  0  0  0  0  0
   57.6291   25.9368   47.2003 H   0  0  0  0  0  0  0  0  0  0  0  0
   56.6247   26.6435   45.8819 H   0  0  0  0  0  0  0  0  0  0  0  0
   59.3929   24.1044   46.3829 H   0  0  0  0  0  0  0  0  0  0  0  0
   59.4643   21.9477   45.1284 H   0  0  0  0  0  0  0  0  0  0  0  0
   57.7215   21.4362   43.4179 H   0  0  0  0  0  0  0  0  0  0  0  0
   55.9009   23.0807   42.9568 H   0  0  0  0  0  0  0  0  0  0  0  0
   55.8239   25.2420   44.2034 H   0  0  0  0  0  0  0  0  0  0  0  0
   58.8185   29.7719   47.9950 H   0  0  0  0  0  0  0  0  0  0  0  0
   60.0169   31.8252   48.7464 H   0  0  0  0  0  0  0  0  0  0  0  0
   61.9613   34.3278   49.9246 H   0  0  0  0  0  0  0  0  0  0  0  0
   61.2882   32.7721   49.2959 H   0  0  0  0  0  0  0  0  0  0  0  0
   63.9156   33.1599   50.1113 H   0  0  0  0  0  0  0  0  0  0  0  0
   63.3418   31.8590   48.9976 H   0  0  0  0  0  0  0  0  0  0  0  0
   64.2258   33.6448   46.0571 H   0  0  0  0  0  0  0  0  0  0  0  0
   63.8663   31.9985   46.7436 H   0  0  0  0  0  0  0  0  0  0  0  0
   61.9803   33.8428   45.7693 H   0  0  0  0  0  0  0  0  0  0  0  0
   61.6507   32.3885   46.7761 H   0  0  0  0  0  0  0  0  0  0  0  0
   58.2169   34.0595   45.5056 H   0  0  0  0  0  0  0  0  0  0  0  0
   57.0272   32.0043   44.7461 H   0  0  0  0  0  0  0  0  0  0  0  0
  1  2  2  0
  2  3  1  0
  3  4  1  0
  4  5  1  0
  5  6  2  0
  6  7  1  0
  7  8  1  0
  8  9  2  0
  8 10  1  0
 10 11  1  0
 11 12  1  0
 12 13  2  0
 13 14  1  0
 14 15  2  0
 15 16  1  0
 16 17  2  0
  2 18  1  0
 18 19  1  0
 19 20  2  0
 20 21  1  0
 21 22  2  0
 22 23  1  0
 23 24  2  0
 23 25  2  0
 23 26  1  0
 26 27  1  0
 27 28  1  0
 28 29  1  0
 29 30  1  0
 30 31  1  0
 22 32  1  0
 32 33  2  0
 10  5  1  0
 17 12  1  0
 33 19  1  0
 31 26  1  0
  3 34  1  0
  3 35  1  0
 11 36  1  0
 11 37  1  0
 13 38  1  0
 14 39  1  0
 15 40  1  0
 16 41  1  0
 17 42  1  0
 20 43  1  0
 21 44  1  0
 27 45  1  0
 27 46  1  0
 28 47  1  0
 28 48  1  0
 30 49  1  0
 30 50  1  0
 31 51  1  0
 31 52  1  0
 32 53  1  0
 33 54  1  0
M  CHG  2   7  -1  18  -1
M  END
>  <UniqueID>  (67) 
60

>  <SMILES>  (67) 
O=C(CSc1n[n-]c(=O)n1Cc1ccccc1)[N-]c1ccc(S(=O)(=O)N2CCOCC2)cc1

>  <Energy>  (67) 
97.92413823460349

>  <Genealogy>  (67) 
O=C(CSc1n[n-]c(=O)n1Cc1ccccc1)[N-]c1ccc(S(=O)(=O)N2CCOCC2)cc1 (protonated)
O=C(CSc1n[n-]c(=O)n1Cc1ccccc1)[N-]c1ccc(S(=O)(=O)N2CCOCC2)cc1 (3D coordinates assigned)
O=C(CSc1n[n-]c(=O)n1Cc1ccccc1)[N-]c1ccc(S(=O)(=O)N2CCOCC2)cc1 (nonaromatic ring conformer: 97.92413823460349 kcal/mol)

>  <smiles>  (67) 
O=C(CSc1n[nH]c(=O)n1Cc1ccccc1)Nc1ccc(S(=O)(=O)N2CCOCC2)cc1

>  <score_type>  (67) 
oracle

>  <origin>  (67) 
adg

>  <m_score__min__energy>  (67) 
-13.380000000000001

>  <m_primary>  (67) 
energy

$$$$
67:0
     RDKit          3D

 63 66  0  0  0  0  0  0  0  0999 V2000
   62.6810   33.8140   50.8220 C   0  0  0  0  0  0  0  0  0  0  0  0
   62.6440   33.8920   49.2850 C   0  0  2  0  0  0  0  0  0  0  0  0
   61.2790   34.1990   48.7350 C   0  0  0  0  0  0  0  0  0  0  0  0
   60.3410   34.5950   49.4820 O   0  0  0  0  0  0  0  0  0  0  0  0
   61.0780   34.0040   47.3280 N   0  0  0  0  0  0  0  0  0  0  0  0
   59.7650   33.7940   46.7690 C   0  0  0  0  0  0  0  0  0  0  0  0
   58.6340   33.7400   47.5980 C   0  0  0  0  0  0  0  0  0  0  0  0
   57.3740   33.4810   47.0550 C   0  0  0  0  0  0  0  0  0  0  0  0
   57.2280   33.2770   45.6800 C   0  0  0  0  0  0  0  0  0  0  0  0
   58.3440   33.3560   44.8340 C   0  0  0  0  0  0  0  0  0  0  0  0
   58.2040   33.0990   43.3550 C   0  0  0  0  0  0  0  0  0  0  0  0
   58.2350   31.5970   43.0360 C   0  0  0  0  0  0  0  0  0  0  0  0
   57.2080   30.8610   43.8020 N   0  0  0  0  0  0  0  0  0  0  0  0
   57.8370   29.8750   44.7070 C   0  0  0  0  0  0  0  0  0  0  0  0
   56.8140   28.8370   45.2070 C   0  0  0  0  0  0  0  0  0  0  0  0
   55.5040   29.3560   45.1260 O   0  0  0  0  0  0  0  0  0  0  0  0
   55.1300   29.5380   43.7690 C   0  0  0  0  0  0  0  0  0  0  0  0
   56.2390   30.1930   42.9170 C   0  0  0  0  0  0  0  0  0  0  0  0
   59.6090   33.6190   45.3840 C   0  0  0  0  0  0  0  0  0  0  0  0
   62.2880   33.8240   46.5220 C   0  0  0  0  0  0  0  0  0  0  0  0
   63.1910   32.7250   47.1250 C   0  0  0  0  0  0  0  0  0  0  0  0
   63.2000   32.6820   48.6170 N   0  0  0  0  0  0  0  0  0  0  0  0
   62.7950   31.3610   49.1630 C   0  0  0  0  0  0  0  0  0  0  0  0
   61.6040   30.7200   48.4310 C   0  0  0  0  0  0  0  0  0  0  0  0
   60.4350   30.6900   49.3020 N   0  0  0  0  0  0  0  0  0  0  0  0
   60.2130   31.5590   50.4510 C   0  0  0  0  0  0  0  0  0  0  0  0
   58.7920   31.2150   50.9680 C   0  0  0  0  0  0  0  0  0  0  0  0
   58.2740   30.1950   50.0650 N   0  0  0  0  0  0  0  0  0  0  0  0
   59.2650   29.9260   49.1030 C   0  0  0  0  0  0  0  0  0  0  0  0
   59.1120   29.1060   48.1610 O   0  0  0  0  0  0  0  0  0  0  0  0
   62.2460   34.7310   51.2462 H   0  0  0  0  0  0  0  0  0  0  0  0
   62.1002   32.9427   51.1590 H   0  0  0  0  0  0  0  0  0  0  0  0
   63.7232   33.7126   51.1590 H   0  0  0  0  0  0  0  0  0  0  0  0
   63.3022   34.7408   49.0476 H   0  0  0  0  0  0  0  0  0  0  0  0
   58.7406   33.9025   48.6807 H   0  0  0  0  0  0  0  0  0  0  0  0
   56.4928   33.4373   47.7119 H   0  0  0  0  0  0  0  0  0  0  0  0
   56.2359   33.0540   45.2605 H   0  0  0  0  0  0  0  0  0  0  0  0
   57.2474   33.5176   43.0091 H   0  0  0  0  0  0  0  0  0  0  0  0
   59.0511   33.5771   42.8413 H   0  0  0  0  0  0  0  0  0  0  0  0
   58.0492   31.4557   41.9611 H   0  0  0  0  0  0  0  0  0  0  0  0
   59.2234   31.2042   43.3167 H   0  0  0  0  0  0  0  0  0  0  0  0
   58.6401   29.3537   44.1654 H   0  0  0  0  0  0  0  0  0  0  0  0
   58.2386   30.4125   45.5787 H   0  0  0  0  0  0  0  0  0  0  0  0
   56.8838   27.9317   44.5861 H   0  0  0  0  0  0  0  0  0  0  0  0
   57.0367   28.5948   46.2566 H   0  0  0  0  0  0  0  0  0  0  0  0
   54.8913   28.5550   43.3369 H   0  0  0  0  0  0  0  0  0  0  0  0
   54.2634   30.2154   43.7559 H   0  0  0  0  0  0  0  0  0  0  0  0
   56.7533   29.4198   42.3274 H   0  0  0  0  0  0  0  0  0  0  0  0
   55.7908   30.9338   42.2386 H   0  0  0  0  0  0  0  0  0  0  0  0
   60.4862   33.6886   44.7239 H   0  0  0  0  0  0  0  0  0  0  0  0
   62.0009   33.5344   45.5004 H   0  0  0  0  0  0  0  0  0  0  0  0
   62.8469   34.7714   46.5089 H   0  0  0  0  0  0  0  0  0  0  0  0
   62.8399   31.7504   46.7552 H   0  0  0  0  0  0  0  0  0  0  0  0
   64.2195   32.9581   46.8122 H   0  0  0  0  0  0  0  0  0  0  0  0
   63.6543   30.6782   49.0895 H   0  0  0  0  0  0  0  0  0  0  0  0
   62.4761   31.5304   50.2021 H   0  0  0  0  0  0  0  0  0  0  0  0
   61.3715   31.3080   47.5309 H   0  0  0  0  0  0  0  0  0  0  0  0
   61.8681   29.6901   48.1488 H   0  0  0  0  0  0  0  0  0  0  0  0
   60.9631   31.3626   51.2312 H   0  0  0  0  0  0  0  0  0  0  0  0
   60.3005   32.6214   50.1798 H   0  0  0  0  0  0  0  0  0  0  0  0
   58.8426   30.8261   51.9957 H   0  0  0  0  0  0  0  0  0  0  0  0
   58.1437   32.1034   50.9880 H   0  0  0  0  0  0  0  0  0  0  0  0
   57.3370   29.7360   50.1260 H   0  0  0  0  0  0  0  0  0  0  0  0
  1  2  1  0
  2  3  1  0
  3  4  2  0
  3  5  1  0
  5  6  1  0
  6  7  2  0
  7  8  1  0
  8  9  2  0
  9 10  1  0
 10 11  1  0
 11 12  1  0
 12 13  1  0
 13 14  1  0
 14 15  1  0
 15 16  1  0
 16 17  1  0
 17 18  1  0
 10 19  2  0
  5 20  1  0
 20 21  1  0
 21 22  1  0
 22 23  1  0
 23 24  1  0
 24 25  1  0
 25 26  1  0
 26 27  1  0
 27 28  1  0
 28 29  1  0
 29 30  2  0
 22  2  1  0
 29 25  1  0
 19  6  1  0
 18 13  1  0
  1 31  1  0
  1 32  1  0
  1 33  1  0
  2 34  1  6
  7 35  1  0
  8 36  1  0
  9 37  1  0
 11 38  1  0
 11 39  1  0
 12 40  1  0
 12 41  1  0
 14 42  1  0
 14 43  1  0
 15 44  1  0
 15 45  1  0
 17 46  1  0
 17 47  1  0
 18 48  1  0
 18 49  1  0
 19 50  1  0
 20 51  1  0
 20 52  1  0
 21 53  1  0
 21 54  1  0
 23 55  1  0
 23 56  1  0
 24 57  1  0
 24 58  1  0
 26 59  1  0
 26 60  1  0
 27 61  1  0
 27 62  1  0
 28 63  1  0
M  END
>  <UniqueID>  (68) 
61

>  <SMILES>  (68) 
C[C@@H]1C(=O)N(c2cccc(CCN3CCOCC3)c2)CCN1CCN1CCNC1=O

>  <Energy>  (68) 
97.67331408545392

>  <Genealogy>  (68) 
C[C@@H]1C(=O)N(c2cccc(CCN3CCOCC3)c2)CCN1CCN1CCNC1=O (chirality)
C[C@@H]1C(=O)N(c2cccc(CCN3CCOCC3)c2)CCN1CCN1CCNC1=O (3D coordinates assigned)
C[C@@H]1C(=O)N(c2cccc(CCN3CCOCC3)c2)CCN1CCN1CCNC1=O (nonaromatic ring conformer: 97.67331408545392 kcal/mol)

>  <smiles>  (68) 
CC1C(=O)N(c2cccc(CCN3CCOCC3)c2)CCN1CCN1CCNC1=O

>  <score_type>  (68) 
oracle

>  <origin>  (68) 
adg

>  <m_score__min__energy>  (68) 
-9.0800000000000001

>  <m_primary>  (68) 
energy

$$$$
68:0
     RDKit          3D

 44 46  0  0  0  0  0  0  0  0999 V2000
   58.5230   31.9640   47.8160 C   0  0  0  0  0  0  0  0  0  0  0  0
   58.7400   33.1210   46.8730 C   0  0  0  0  0  0  0  0  0  0  0  0
   59.4060   34.2610   47.3570 C   0  0  0  0  0  0  0  0  0  0  0  0
   59.6620   35.3460   46.5190 C   0  0  0  0  0  0  0  0  0  0  0  0
   59.2570   35.3100   45.1880 C   0  0  0  0  0  0  0  0  0  0  0  0
   58.5830   34.1940   44.6900 C   0  0  0  0  0  0  0  0  0  0  0  0
   58.3020   33.0900   45.5190 C   0  0  0  0  0  0  0  0  0  0  0  0
   57.5560   31.9450   44.9350 C   0  0  0  0  0  0  0  0  0  0  0  0
   56.2970   31.9650   44.8730 O   0  0  0  0  0  0  0  0  0  0  0  0
   58.2770   30.8000   44.4580 N   0  0  0  0  0  0  0  0  0  0  0  0
   58.1920   29.4600   44.9630 C   0  0  0  0  0  0  0  0  0  0  0  0
   59.3290   28.7420   45.3690 C   0  0  0  0  0  0  0  0  0  0  0  0
   59.2000   27.4470   45.8770 C   0  0  0  0  0  0  0  0  0  0  0  0
   57.9340   26.8550   46.0100 C   0  0  0  0  0  0  0  0  0  0  0  0
   57.8160   25.4470   46.5310 C   0  0  0  0  0  0  0  0  0  0  0  0
   56.6540   24.7510   45.8800 C   0  0  0  0  0  0  0  0  0  0  0  0
   56.6800   24.5340   44.6400 O   0  0  0  0  0  0  0  0  0  0  0  0
   55.4570   24.4570   46.6140 N   0  0  0  0  0  0  0  0  0  0  0  0
   54.4450   23.7380   46.2110 C   0  0  0  0  0  0  0  0  0  0  0  0
   54.2370   22.4100   46.6350 C   0  0  0  0  0  0  0  0  0  0  0  0
   53.1370   21.6970   46.1510 C   0  0  0  0  0  0  0  0  0  0  0  0
   52.2820   22.2770   45.2680 N   0  0  0  0  0  0  0  0  0  0  0  0
   52.4670   23.5490   44.8290 C   0  0  0  0  0  0  0  0  0  0  0  0
   53.5540   24.2970   45.2870 C   0  0  0  0  0  0  0  0  0  0  0  0
   56.7920   27.5760   45.6140 C   0  0  0  0  0  0  0  0  0  0  0  0
   55.5260   27.0000   45.7240 O   0  0  0  0  0  0  0  0  0  0  0  0
   56.9270   28.8760   45.1060 C   0  0  0  0  0  0  0  0  0  0  0  0
   58.5898   32.3200   48.8546 H   0  0  0  0  0  0  0  0  0  0  0  0
   57.5277   31.5297   47.6405 H   0  0  0  0  0  0  0  0  0  0  0  0
   59.2932   31.1985   47.6405 H   0  0  0  0  0  0  0  0  0  0  0  0
   59.7286   34.2974   48.4080 H   0  0  0  0  0  0  0  0  0  0  0  0
   60.1846   36.2312   46.9105 H   0  0  0  0  0  0  0  0  0  0  0  0
   59.4687   36.1633   44.5269 H   0  0  0  0  0  0  0  0  0  0  0  0
   58.2670   34.1761   43.6365 H   0  0  0  0  0  0  0  0  0  0  0  0
   60.3251   29.2013   45.2866 H   0  0  0  0  0  0  0  0  0  0  0  0
   60.0981   26.8864   46.1754 H   0  0  0  0  0  0  0  0  0  0  0  0
   58.7418   24.8971   46.3062 H   0  0  0  0  0  0  0  0  0  0  0  0
   57.6537   25.4780   47.6185 H   0  0  0  0  0  0  0  0  0  0  0  0
   54.9355   21.9383   47.3418 H   0  0  0  0  0  0  0  0  0  0  0  0
   52.9627   20.6637   46.4855 H   0  0  0  0  0  0  0  0  0  0  0  0
   51.7597   23.9907   44.1117 H   0  0  0  0  0  0  0  0  0  0  0  0
   53.7097   25.3231   44.9225 H   0  0  0  0  0  0  0  0  0  0  0  0
   55.2860   26.1460   45.2360 H   0  0  0  0  0  0  0  0  0  0  0  0
   56.0299   29.4431   44.8167 H   0  0  0  0  0  0  0  0  0  0  0  0
  1  2  1  0
  2  3  2  0
  3  4  1  0
  4  5  2  0
  5  6  1  0
  6  7  2  0
  7  8  1  0
  8  9  2  0
  8 10  1  0
 10 11  1  0
 11 12  2  0
 12 13  1  0
 13 14  2  0
 14 15  1  0
 15 16  1  0
 16 17  2  0
 16 18  1  0
 18 19  2  3
 19 20  1  0
 20 21  2  0
 21 22  1  0
 22 23  1  0
 23 24  2  0
 14 25  1  0
 25 26  1  0
 25 27  2  0
  7  2  1  0
 27 11  1  0
 24 19  1  0
  1 28  1  0
  1 29  1  0
  1 30  1  0
  3 31  1  0
  4 32  1  0
  5 33  1  0
  6 34  1  0
 12 35  1  0
 13 36  1  0
 15 37  1  0
 15 38  1  0
 20 39  1  0
 21 40  1  0
 23 41  1  0
 24 42  1  0
 26 43  1  0
 27 44  1  0
M  CHG  2  10  -1  22  -1
M  END
>  <UniqueID>  (69) 
62

>  <SMILES>  (69) 
Cc1ccccc1C(=O)[N-]c1ccc(CC(=O)N=c2cc[n-]cc2)c(O)c1

>  <Energy>  (69) 
63.82637615526049

>  <Genealogy>  (69) 
Cc1ccccc1C(=O)[N-]c1ccc(CC(=O)N=c2cc[n-]cc2)c(O)c1 (protonated)
Cc1ccccc1C(=O)[N-]c1ccc(CC(=O)N=c2cc[n-]cc2)c(O)c1 (3D coordinates assigned)
Cc1ccccc1C(=O)[N-]c1ccc(CC(=O)N=c2cc[n-]cc2)c(O)c1 (optimized conformer: 63.82637615526049 kcal/mol)

>  <smiles>  (69) 
Cc1ccccc1C(=O)Nc1ccc(CC(=O)N=c2cc[nH]cc2)c(O)c1

>  <score_type>  (69) 
oracle

>  <origin>  (69) 
adg

>  <m_score__min__energy>  (69) 
-12.01

>  <m_primary>  (69) 
energy

$$$$
69:0
     RDKit          3D

 35 36  0  0  0  0  0  0  0  0999 V2000
   54.3670   19.0950   48.3360 C   0  0  0  0  0  0  0  0  0  0  0  0
   55.1570   20.2810   48.0320 N   0  0  0  0  0  0  0  0  0  0  0  0
   54.5530   21.5760   47.9010 C   0  0  0  0  0  0  0  0  0  0  0  0
   53.3300   21.7250   48.1680 O   0  0  0  0  0  0  0  0  0  0  0  0
   55.3550   22.7490   47.4740 C   0  0  0  0  0  0  0  0  0  0  0  0
   56.6980   22.8830   47.8700 C   0  0  0  0  0  0  0  0  0  0  0  0
   57.3020   21.8970   48.6610 O   0  0  0  0  0  0  0  0  0  0  0  0
   57.1510   21.8400   50.0740 C   0  0  0  0  0  0  0  0  0  0  0  0
   57.4140   23.9680   47.4710 N   0  0  0  0  0  0  0  0  0  0  0  0
   56.8680   24.9390   46.6920 C   0  0  0  0  0  0  0  0  0  0  0  0
   57.6800   26.1080   46.2720 C   0  0  0  0  0  0  0  0  0  0  0  0
   59.0850   26.0670   46.3420 C   0  0  0  0  0  0  0  0  0  0  0  0
   59.8470   27.1680   45.9430 C   0  0  0  0  0  0  0  0  0  0  0  0
   59.2200   28.3220   45.4720 C   0  0  0  0  0  0  0  0  0  0  0  0
   57.8230   28.3860   45.4030 C   0  0  0  0  0  0  0  0  0  0  0  0
   57.0310   29.8360   44.7960 S   0  0  0  0  0  0  0  0  0  0  0  0
   55.3180   29.6080   44.8270 N   0  0  0  0  0  0  0  0  0  0  0  0
   57.3970   31.0130   45.6560 O   0  0  0  0  0  0  0  0  0  0  0  0
   57.4750   30.1100   43.3860 O   0  0  0  0  0  0  0  0  0  0  0  0
   57.0580   27.2790   45.7960 C   0  0  0  0  0  0  0  0  0  0  0  0
   55.5670   24.8310   46.3110 N   0  0  0  0  0  0  0  0  0  0  0  0
   54.8030   23.7720   46.6810 C   0  0  0  0  0  0  0  0  0  0  0  0
   53.5940   23.7370   46.3270 O   0  0  0  0  0  0  0  0  0  0  0  0
   54.2882   18.9766   49.4268 H   0  0  0  0  0  0  0  0  0  0  0  0
   53.3607   19.2044   47.9054 H   0  0  0  0  0  0  0  0  0  0  0  0
   54.8557   18.2086   47.9054 H   0  0  0  0  0  0  0  0  0  0  0  0
   56.1940   20.1810   47.9510 H   0  0  0  0  0  0  0  0  0  0  0  0
   58.0761   22.1892   50.5560 H   0  0  0  0  0  0  0  0  0  0  0  0
   56.3129   22.4836   50.3795 H   0  0  0  0  0  0  0  0  0  0  0  0
   56.9473   20.8031   50.3795 H   0  0  0  0  0  0  0  0  0  0  0  0
   59.5869   25.1615   46.7136 H   0  0  0  0  0  0  0  0  0  0  0  0
   60.9447   27.1249   46.0004 H   0  0  0  0  0  0  0  0  0  0  0  0
   59.8249   29.1840   45.1540 H   0  0  0  0  0  0  0  0  0  0  0  0
   55.1480   28.5780   44.8330 H   0  0  0  0  0  0  0  0  0  0  0  0
   55.9608   27.3251   45.7321 H   0  0  0  0  0  0  0  0  0  0  0  0
  1  2  1  0
  2  3  1  0
  3  4  2  0
  3  5  1  0
  5  6  2  0
  6  7  1  0
  7  8  1  0
  6  9  1  0
  9 10  1  0
 10 11  1  0
 11 12  2  0
 12 13  1  0
 13 14  2  0
 14 15  1  0
 15 16  1  0
 16 17  1  0
 16 18  2  0
 16 19  2  0
 15 20  2  0
 10 21  2  0
 21 22  1  0
 22 23  2  0
 22  5  1  0
 20 11  1  0
  1 24  1  0
  1 25  1  0
  1 26  1  0
  2 27  1  0
  8 28  1  0
  8 29  1  0
  8 30  1  0
 12 31  1  0
 13 32  1  0
 14 33  1  0
 17 34  1  0
 20 35  1  0
M  CHG  2   9  -1  17  -1
M  END
>  <UniqueID>  (70) 
63

>  <SMILES>  (70) 
CNC(=O)c1c(OC)[n-]c(-c2cccc(S([NH-])(=O)=O)c2)nc1=O

>  <Energy>  (70) 
37.893436567755515

>  <Genealogy>  (70) 
CNC(=O)c1c(OC)[n-]c(-c2cccc(S([NH-])(=O)=O)c2)nc1=O (protonated)
CNC(=O)c1c(OC)[n-]c(-c2cccc(S([NH-])(=O)=O)c2)nc1=O (3D coordinates assigned)
CNC(=O)c1c(OC)[n-]c(-c2cccc(S([NH-])(=O)=O)c2)nc1=O (optimized conformer: 37.893436567755515 kcal/mol)

>  <smiles>  (70) 
CNC(=O)c1c(OC)[nH]c(-c2cccc(S(N)(=O)=O)c2)nc1=O

>  <score_type>  (70) 
oracle

>  <origin>  (70) 
adg

>  <m_score__min__energy>  (70) 
-10.74

>  <m_primary>  (70) 
energy

$$$$
70:0
     RDKit          3D

 30 31  0  0  0  0  0  0  0  0999 V2000
   59.5190   34.6960   46.0400 C   0  0  0  0  0  0  0  0  0  0  0  0
   58.4360   34.1710   45.2770 O   0  0  0  0  0  0  0  0  0  0  0  0
   58.1780   32.8030   45.1090 C   0  0  0  0  0  0  0  0  0  0  0  0
   58.3710   31.8650   46.1410 C   0  0  0  0  0  0  0  0  0  0  0  0
   58.0980   30.5110   45.9230 C   0  0  0  0  0  0  0  0  0  0  0  0
   57.6410   30.0720   44.6710 C   0  0  0  0  0  0  0  0  0  0  0  0
   57.3100   28.6250   44.4500 C   0  0  0  0  0  0  0  0  0  0  0  0
   56.7270   28.0980   45.6390 O   0  0  0  0  0  0  0  0  0  0  0  0
   56.8650   26.7940   46.1060 N   0  0  0  0  0  0  0  0  0  0  0  0
   55.8300   25.8890   46.1890 C   0  0  0  0  0  0  0  0  0  0  0  0
   54.5340   26.2260   45.7990 O   0  0  0  0  0  0  0  0  0  0  0  0
   56.0680   24.5980   46.6730 C   0  0  0  0  0  0  0  0  0  0  0  0
   57.3570   24.2530   47.0640 C   0  0  0  0  0  0  0  0  0  0  0  0
   57.6000   23.0990   47.5030 O   0  0  0  0  0  0  0  0  0  0  0  0
   58.3520   25.1650   46.9700 N   0  0  0  0  0  0  0  0  0  0  0  0
   58.1200   26.4180   46.5000 C   0  0  0  0  0  0  0  0  0  0  0  0
   59.0780   27.2340   46.4310 O   0  0  0  0  0  0  0  0  0  0  0  0
   57.4320   31.0100   43.6480 C   0  0  0  0  0  0  0  0  0  0  0  0
   57.7050   32.3630   43.8660 C   0  0  0  0  0  0  0  0  0  0  0  0
   59.2980   34.5889   47.1122 H   0  0  0  0  0  0  0  0  0  0  0  0
   60.4393   34.1440   45.7984 H   0  0  0  0  0  0  0  0  0  0  0  0
   59.6557   35.7604   45.7984 H   0  0  0  0  0  0  0  0  0  0  0  0
   58.7380   32.1986   47.1228 H   0  0  0  0  0  0  0  0  0  0  0  0
   58.2423   29.7859   46.7375 H   0  0  0  0  0  0  0  0  0  0  0  0
   56.5977   28.5322   43.6170 H   0  0  0  0  0  0  0  0  0  0  0  0
   58.2254   28.0666   44.2045 H   0  0  0  0  0  0  0  0  0  0  0  0
   54.3480   26.7210   44.9340 H   0  0  0  0  0  0  0  0  0  0  0  0
   55.2485   23.8676   46.7431 H   0  0  0  0  0  0  0  0  0  0  0  0
   57.0517   30.6786   42.6705 H   0  0  0  0  0  0  0  0  0  0  0  0
   57.5471   33.0888   43.0546 H   0  0  0  0  0  0  0  0  0  0  0  0
  1  2  1  0
  2  3  1  0
  3  4  2  0
  4  5  1  0
  5  6  2  0
  6  7  1  0
  7  8  1  0
  8  9  1  0
  9 10  1  0
 10 11  1  0
 10 12  2  0
 12 13  1  0
 13 14  2  0
 13 15  1  0
 15 16  1  0
 16 17  2  0
  6 18  1  0
 18 19  2  0
 19  3  1  0
 16  9  1  0
  1 20  1  0
  1 21  1  0
  1 22  1  0
  4 23  1  0
  5 24  1  0
  7 25  1  0
  7 26  1  0
 11 27  1  0
 12 28  1  0
 18 29  1  0
 19 30  1  0
M  CHG  1  15  -1
M  END
>  <UniqueID>  (71) 
64

>  <SMILES>  (71) 
COc1ccc(COn2c(O)cc(=O)[n-]c2=O)cc1

>  <Energy>  (71) 
34.661906864119956

>  <Genealogy>  (71) 
COc1ccc(COn2c(O)cc(=O)[n-]c2=O)cc1 (protonated)
COc1ccc(COn2c(O)cc(=O)[n-]c2=O)cc1 (3D coordinates assigned)
COc1ccc(COn2c(O)cc(=O)[n-]c2=O)cc1 (optimized conformer: 34.661906864119956 kcal/mol)

>  <smiles>  (71) 
COc1ccc(COn2c(O)cc(=O)[nH]c2=O)cc1

>  <score_type>  (71) 
oracle

>  <origin>  (71) 
adg

>  <m_score__min__energy>  (71) 
-8.6600000000000001

>  <m_primary>  (71) 
energy

$$$$
71:0
     RDKit          3D

 67 70  0  0  0  0  0  0  0  0999 V2000
   61.7660   34.4220   49.0980 C   0  0  0  0  0  0  0  0  0  0  0  0
   60.6000   33.8620   48.3260 C   0  0  0  0  0  0  0  0  0  0  0  0
   60.5900   33.9380   46.9240 C   0  0  0  0  0  0  0  0  0  0  0  0
   59.5320   33.3980   46.1930 C   0  0  0  0  0  0  0  0  0  0  0  0
   58.4750   32.7550   46.8520 C   0  0  0  0  0  0  0  0  0  0  0  0
   57.4130   32.1730   46.1500 O   0  0  0  0  0  0  0  0  0  0  0  0
   57.3990   31.9450   44.7680 C   0  0  0  0  0  0  0  0  0  0  0  0
   57.8450   32.8980   43.9000 N   0  0  0  0  0  0  0  0  0  0  0  0
   57.8120   32.7160   42.5540 C   0  0  0  0  0  0  0  0  0  0  0  0
   57.3090   31.5280   42.0210 C   0  0  0  0  0  0  0  0  0  0  0  0
   56.8390   30.5390   42.8840 C   0  0  0  0  0  0  0  0  0  0  0  0
   56.8690   30.7450   44.2730 C   0  0  0  0  0  0  0  0  0  0  0  0
   56.4430   29.7300   45.1940 N   0  0  0  0  0  0  0  0  0  0  0  0
   57.1410   28.5080   45.4480 C   0  0  0  0  0  0  0  0  0  0  0  0
   57.3130   27.6910   44.5040 O   0  0  0  0  0  0  0  0  0  0  0  0
   57.7290   28.2660   46.7330 N   0  0  0  0  0  0  0  0  0  0  0  0
   58.8790   28.9390   47.2600 C   0  0  0  0  0  0  0  0  0  0  0  0
   59.7970   29.5050   46.3740 C   0  0  0  0  0  0  0  0  0  0  0  0
   60.9110   30.2000   46.8540 C   0  0  0  0  0  0  0  0  0  0  0  0
   61.1100   30.3590   48.2300 C   0  0  0  0  0  0  0  0  0  0  0  0
   62.2360   31.0810   48.6580 O   0  0  0  0  0  0  0  0  0  0  0  0
   62.7630   31.0760   49.9840 C   0  0  0  0  0  0  0  0  0  0  0  0
   61.9890   31.8800   50.8030 F   0  0  0  0  0  0  0  0  0  0  0  0
   64.0520   31.5730   49.9560 F   0  0  0  0  0  0  0  0  0  0  0  0
   62.7930   29.7860   50.4850 F   0  0  0  0  0  0  0  0  0  0  0  0
   60.1770   29.8020   49.1270 C   0  0  0  0  0  0  0  0  0  0  0  0
   59.0720   29.0930   48.6430 C   0  0  0  0  0  0  0  0  0  0  0  0
   58.4980   32.6450   48.2450 C   0  0  0  0  0  0  0  0  0  0  0  0
   59.5380   33.2250   48.9960 C   0  0  0  0  0  0  0  0  0  0  0  0
   59.5770   33.1210   50.4290 N   0  0  0  0  0  0  0  0  0  0  0  0
   58.4690   33.0670   51.3360 C   0  0  0  0  0  0  0  0  0  0  0  0
   58.3280   33.9500   52.2230 O   0  0  0  0  0  0  0  0  0  0  0  0
   57.5320   31.9260   51.3170 C   0  0  0  0  0  0  0  0  0  0  0  0
   56.3750   31.8590   51.9980 C   0  0  0  0  0  0  0  0  0  0  0  0
   55.7170   30.6010   52.4120 C   0  0  0  0  0  0  0  0  0  0  0  0
   56.4620   29.6010   53.0620 C   0  0  0  0  0  0  0  0  0  0  0  0
   55.8460   28.4200   53.4730 C   0  0  0  0  0  0  0  0  0  0  0  0
   54.4900   28.2120   53.2130 C   0  0  0  0  0  0  0  0  0  0  0  0
   53.7450   29.1870   52.5450 C   0  0  0  0  0  0  0  0  0  0  0  0
   54.3500   30.3920   52.1410 C   0  0  0  0  0  0  0  0  0  0  0  0
   53.5990   31.4290   51.4900 N   0  0  0  0  0  0  0  0  0  0  0  0
   51.9130   31.3470   51.0900 S   0  0  0  0  0  0  0  0  0  0  0  0
   51.0160   30.7780   52.5160 C   0  0  0  0  0  0  0  0  0  0  0  0
   51.7030   30.3750   49.9630 O   0  0  0  0  0  0  0  0  0  0  0  0
   51.4120   32.7080   50.6960 O   0  0  0  0  0  0  0  0  0  0  0  0
   61.5707   34.3282   50.1765 H   0  0  0  0  0  0  0  0  0  0  0  0
   62.6782   33.8638   48.8406 H   0  0  0  0  0  0  0  0  0  0  0  0
   61.9005   35.4830   48.8406 H   0  0  0  0  0  0  0  0  0  0  0  0
   61.4231   34.4272   46.3981 H   0  0  0  0  0  0  0  0  0  0  0  0
   59.5270   33.4769   45.0958 H   0  0  0  0  0  0  0  0  0  0  0  0
   58.1821   33.5057   41.8836 H   0  0  0  0  0  0  0  0  0  0  0  0
   57.2837   31.3738   40.9322 H   0  0  0  0  0  0  0  0  0  0  0  0
   56.4443   29.5965   42.4767 H   0  0  0  0  0  0  0  0  0  0  0  0
   59.6428   29.4034   45.2896 H   0  0  0  0  0  0  0  0  0  0  0  0
   61.6365   30.6250   46.1448 H   0  0  0  0  0  0  0  0  0  0  0  0
   60.3177   29.9249   50.2110 H   0  0  0  0  0  0  0  0  0  0  0  0
   58.3512   28.6542   49.3486 H   0  0  0  0  0  0  0  0  0  0  0  0
   57.6943   32.0990   48.7606 H   0  0  0  0  0  0  0  0  0  0  0  0
   57.8028   31.0602   50.6948 H   0  0  0  0  0  0  0  0  0  0  0  0
   55.8834   32.8058   52.2660 H   0  0  0  0  0  0  0  0  0  0  0  0
   57.5359   29.7514   53.2470 H   0  0  0  0  0  0  0  0  0  0  0  0
   56.4284   27.6516   54.0024 H   0  0  0  0  0  0  0  0  0  0  0  0
   54.0069   27.2777   53.5351 H   0  0  0  0  0  0  0  0  0  0  0  0
   52.6798   29.0120   52.3336 H   0  0  0  0  0  0  0  0  0  0  0  0
   51.5334   31.1062   53.4296 H   0  0  0  0  0  0  0  0  0  0  0  0
   49.9988   31.1963   52.5003 H   0  0  0  0  0  0  0  0  0  0  0  0
   50.9610   29.6795   52.5003 H   0  0  0  0  0  0  0  0  0  0  0  0
  1  2  1  0
  2  3  2  0
  3  4  1  0
  4  5  2  0
  5  6  1  0
  6  7  1  0
  7  8  2  0
  8  9  1  0
  9 10  2  0
 10 11  1  0
 11 12  2  0
 12 13  1  0
 13 14  1  0
 14 15  2  0
 14 16  1  0
 16 17  1  0
 17 18  2  0
 18 19  1  0
 19 20  2  0
 20 21  1  0
 21 22  1  0
 22 23  1  0
 22 24  1  0
 22 25  1  0
 20 26  1  0
 26 27  2  0
  5 28  1  0
 28 29  2  0
 29 30  1  0
 30 31  1  0
 31 32  2  0
 31 33  1  0
 33 34  2  3
 34 35  1  0
 35 36  2  0
 36 37  1  0
 37 38  2  0
 38 39  1  0
 39 40  2  0
 40 41  1  0
 41 42  1  0
 42 43  1  0
 42 44  2  0
 42 45  2  0
 29  2  1  0
 40 35  1  0
 12  7  1  0
 27 17  1  0
  1 46  1  0
  1 47  1  0
  1 48  1  0
  3 49  1  0
  4 50  1  0
  9 51  1  0
 10 52  1  0
 11 53  1  0
 18 54  1  0
 19 55  1  0
 26 56  1  0
 27 57  1  0
 28 58  1  0
 33 59  1  0
 34 60  1  0
 36 61  1  0
 37 62  1  0
 38 63  1  0
 39 64  1  0
 43 65  1  0
 43 66  1  0
 43 67  1  0
M  CHG  4  13  -1  16  -1  30  -1  41  -1
M  END
>  <UniqueID>  (72) 
65

>  <SMILES>  (72) 
Cc1ccc(Oc2ncccc2[N-]C(=O)[N-]c2ccc(OC(F)(F)F)cc2)cc1[N-]C(=O)C=Cc1ccccc1[N-]S(C)(=O)=O

>  <Energy>  (72) 
93.41705872331774

>  <Genealogy>  (72) 
Cc1ccc(Oc2ncccc2[N-]C(=O)[N-]c2ccc(OC(F)(F)F)cc2)cc1[N-]C(=O)C=Cc1ccccc1[N-]S(C)(=O)=O (protonated)
Cc1ccc(Oc2ncccc2[N-]C(=O)[N-]c2ccc(OC(F)(F)F)cc2)cc1[N-]C(=O)C=Cc1ccccc1[N-]S(C)(=O)=O (3D coordinates assigned)
Cc1ccc(Oc2ncccc2[N-]C(=O)[N-]c2ccc(OC(F)(F)F)cc2)cc1[N-]C(=O)C=Cc1ccccc1[N-]S(C)(=O)=O (optimized conformer: 93.41705872331774 kcal/mol)

>  <smiles>  (72) 
Cc1ccc(Oc2ncccc2NC(=O)Nc2ccc(OC(F)(F)F)cc2)cc1NC(=O)C=Cc1ccccc1NS(C)(=O)=O

>  <score_type>  (72) 
oracle

>  <origin>  (72) 
adg

>  <m_score__min__energy>  (72) 
-14.460000000000001

>  <m_primary>  (72) 
energy

$$$$
72:0
     RDKit          3D

 49 52  0  0  0  0  0  0  0  0999 V2000
   56.2400   31.5280   44.7790 O   0  0  0  0  0  0  0  0  0  0  0  0
   57.4000   31.2210   45.1600 C   0  0  0  0  0  0  0  0  0  0  0  0
   58.1820   30.2010   44.3750 C   0  0  0  0  0  0  0  0  0  0  0  0
   57.9040   28.8200   44.9100 C   0  0  0  0  0  0  0  0  0  0  0  0
   58.9720   27.9450   45.1630 C   0  0  0  0  0  0  0  0  0  0  0  0
   58.7370   26.6760   45.6980 C   0  0  0  0  0  0  0  0  0  0  0  0
   57.4350   26.2730   45.9960 C   0  0  0  0  0  0  0  0  0  0  0  0
   56.3590   27.1350   45.7580 C   0  0  0  0  0  0  0  0  0  0  0  0
   55.0690   26.7180   46.0670 O   0  0  0  0  0  0  0  0  0  0  0  0
   56.5880   28.4140   45.2190 C   0  0  0  0  0  0  0  0  0  0  0  0
   55.5190   29.2860   44.9900 O   0  0  0  0  0  0  0  0  0  0  0  0
   57.9880   31.9510   46.2470 N   0  0  0  0  0  0  0  0  0  0  0  0
   59.1580   31.5610   46.9760 C   0  0  0  0  0  0  0  0  0  0  0  0
   60.4110   32.0150   46.5490 C   0  0  0  0  0  0  0  0  0  0  0  0
   61.5660   31.6500   47.2450 C   0  0  0  0  0  0  0  0  0  0  0  0
   61.4750   30.8550   48.3910 C   0  0  0  0  0  0  0  0  0  0  0  0
   60.2190   30.4330   48.8610 C   0  0  0  0  0  0  0  0  0  0  0  0
   60.1020   29.6090   50.1190 C   0  0  0  0  0  0  0  0  0  0  0  0
   59.0000   30.1340   51.0040 C   0  0  0  0  0  0  0  0  0  0  0  0
   57.9140   29.3380   51.2110 N   0  0  0  0  0  0  0  0  0  0  0  0
   56.8810   29.7290   51.9550 N   0  0  0  0  0  0  0  0  0  0  0  0
   56.8500   30.9510   52.5420 C   0  0  0  0  0  0  0  0  0  0  0  0
   55.8570   31.2700   53.2500 O   0  0  0  0  0  0  0  0  0  0  0  0
   57.9200   31.8410   52.3540 C   0  0  0  0  0  0  0  0  0  0  0  0
   59.0250   31.4230   51.5850 C   0  0  0  0  0  0  0  0  0  0  0  0
   60.1260   32.3300   51.3790 N   0  0  0  0  0  0  0  0  0  0  0  0
   60.2350   33.5710   52.1400 C   0  0  0  0  0  0  0  0  0  0  0  0
   58.8520   34.1910   52.3250 C   0  0  0  0  0  0  0  0  0  0  0  0
   57.9190   33.1980   53.0260 C   0  0  0  0  0  0  0  0  0  0  0  0
   59.0630   30.7870   48.1430 C   0  0  0  0  0  0  0  0  0  0  0  0
   57.8851   30.2490   43.3169 H   0  0  0  0  0  0  0  0  0  0  0  0
   59.2565   30.4168   44.4695 H   0  0  0  0  0  0  0  0  0  0  0  0
   60.0015   28.2608   44.9384 H   0  0  0  0  0  0  0  0  0  0  0  0
   59.5795   25.9938   45.8845 H   0  0  0  0  0  0  0  0  0  0  0  0
   57.2538   25.2741   46.4195 H   0  0  0  0  0  0  0  0  0  0  0  0
   55.3270   30.0790   45.5910 H   0  0  0  0  0  0  0  0  0  0  0  0
   60.4867   32.6615   45.6623 H   0  0  0  0  0  0  0  0  0  0  0  0
   62.5503   31.9894   46.8900 H   0  0  0  0  0  0  0  0  0  0  0  0
   62.3888   30.5586   48.9268 H   0  0  0  0  0  0  0  0  0  0  0  0
   59.8803   28.5663   49.8475 H   0  0  0  0  0  0  0  0  0  0  0  0
   61.0531   29.6684   50.6684 H   0  0  0  0  0  0  0  0  0  0  0  0
   60.8330   32.1560   50.6330 H   0  0  0  0  0  0  0  0  0  0  0  0
   60.6734   33.3569   53.1259 H   0  0  0  0  0  0  0  0  0  0  0  0
   60.8774   34.2762   51.5923 H   0  0  0  0  0  0  0  0  0  0  0  0
   58.9402   35.1011   52.9365 H   0  0  0  0  0  0  0  0  0  0  0  0
   58.4351   34.4417   51.3384 H   0  0  0  0  0  0  0  0  0  0  0  0
   58.2486   33.0774   54.0685 H   0  0  0  0  0  0  0  0  0  0  0  0
   56.8965   33.6003   52.9737 H   0  0  0  0  0  0  0  0  0  0  0  0
   58.0765   30.4547   48.4987 H   0  0  0  0  0  0  0  0  0  0  0  0
  1  2  2  0
  2  3  1  0
  3  4  1  0
  4  5  2  0
  5  6  1  0
  6  7  2  0
  7  8  1  0
  8  9  1  0
  8 10  2  0
 10 11  1  0
  2 12  1  0
 12 13  1  0
 13 14  2  0
 14 15  1  0
 15 16  2  0
 16 17  1  0
 17 18  1  0
 18 19  1  0
 19 20  2  0
 20 21  1  0
 21 22  1  0
 22 23  2  0
 22 24  1  0
 24 25  2  0
 25 26  1  0
 26 27  1  0
 27 28  1  0
 28 29  1  0
 17 30  2  0
 10  4  1  0
 30 13  1  0
 25 19  1  0
 29 24  1  0
  3 31  1  0
  3 32  1  0
  5 33  1  0
  6 34  1  0
  7 35  1  0
 11 36  1  0
 14 37  1  0
 15 38  1  0
 16 39  1  0
 18 40  1  0
 18 41  1  0
 26 42  1  0
 27 43  1  0
 27 44  1  0
 28 45  1  0
 28 46  1  0
 29 47  1  0
 29 48  1  0
 30 49  1  0
M  CHG  3   9  -1  12  -1  21  -1
M  END
>  <UniqueID>  (73) 
66

>  <SMILES>  (73) 
O=C(Cc1cccc([O-])c1O)[N-]c1cccc(Cc2n[n-]c(=O)c3c2NCCC3)c1

>  <Energy>  (73) 
58.68930230334859

>  <Genealogy>  (73) 
O=C(Cc1cccc([O-])c1O)[N-]c1cccc(Cc2n[n-]c(=O)c3c2NCCC3)c1 (protonated)
O=C(Cc1cccc([O-])c1O)[N-]c1cccc(Cc2n[n-]c(=O)c3c2NCCC3)c1 (3D coordinates assigned)
O=C(Cc1cccc([O-])c1O)[N-]c1cccc(Cc2n[n-]c(=O)c3c2NCCC3)c1 (nonaromatic ring conformer: 58.68930230334859 kcal/mol)

>  <smiles>  (73) 
O=C(Cc1cccc(O)c1O)Nc1cccc(Cc2n[nH]c(=O)c3c2NCCC3)c1

>  <score_type>  (73) 
oracle

>  <origin>  (73) 
adg

>  <m_score__min__energy>  (73) 
-15.859999999999999

>  <m_primary>  (73) 
energy

$$$$
73:0
     RDKit          3D

 30 32  0  0  0  0  0  0  0  0999 V2000
   53.4640   27.7480   53.6380 C   0  0  0  0  0  0  0  0  0  0  0  0
   54.8160   28.3750   53.4140 C   0  0  0  0  0  0  0  0  0  0  0  0
   55.9730   27.6420   53.7140 C   0  0  0  0  0  0  0  0  0  0  0  0
   57.2020   28.1840   53.5230 N   0  0  0  0  0  0  0  0  0  0  0  0
   57.3680   29.4380   53.0320 C   0  0  0  0  0  0  0  0  0  0  0  0
   58.6610   29.9430   52.8540 C   0  0  0  0  0  0  0  0  0  0  0  0
   58.8490   31.2280   52.3400 C   0  0  0  0  0  0  0  0  0  0  0  0
   60.1350   31.7240   52.1660 O   0  0  0  0  0  0  0  0  0  0  0  0
   57.7460   32.0130   52.0000 C   0  0  0  0  0  0  0  0  0  0  0  0
   56.4490   31.5190   52.1740 C   0  0  0  0  0  0  0  0  0  0  0  0
   56.2410   30.2260   52.6980 C   0  0  0  0  0  0  0  0  0  0  0  0
   54.9470   29.6830   52.8910 C   0  0  0  0  0  0  0  0  0  0  0  0
   53.7360   30.4700   52.5610 C   0  0  0  0  0  0  0  0  0  0  0  0
   52.8350   30.8340   53.5730 C   0  0  0  0  0  0  0  0  0  0  0  0
   51.6920   31.5760   53.2600 C   0  0  0  0  0  0  0  0  0  0  0  0
   51.4430   31.9570   51.9380 C   0  0  0  0  0  0  0  0  0  0  0  0
   50.3070   32.6940   51.6290 O   0  0  0  0  0  0  0  0  0  0  0  0
   52.3400   31.5960   50.9270 C   0  0  0  0  0  0  0  0  0  0  0  0
   53.4840   30.8550   51.2350 C   0  0  0  0  0  0  0  0  0  0  0  0
   53.2749   27.6603   54.7181 H   0  0  0  0  0  0  0  0  0  0  0  0
   52.6873   28.3778   53.1797 H   0  0  0  0  0  0  0  0  0  0  0  0
   53.4430   26.7482   53.1797 H   0  0  0  0  0  0  0  0  0  0  0  0
   55.8835   26.6187   54.1076 H   0  0  0  0  0  0  0  0  0  0  0  0
   59.5320   29.3260   53.1197 H   0  0  0  0  0  0  0  0  0  0  0  0
   57.8973   33.0239   51.5937 H   0  0  0  0  0  0  0  0  0  0  0  0
   55.5854   32.1430   51.9004 H   0  0  0  0  0  0  0  0  0  0  0  0
   53.0280   30.5353   54.6139 H   0  0  0  0  0  0  0  0  0  0  0  0
   50.9874   31.8605   54.0553 H   0  0  0  0  0  0  0  0  0  0  0  0
   52.1443   31.8962   49.8870 H   0  0  0  0  0  0  0  0  0  0  0  0
   54.1875   30.5732   50.4377 H   0  0  0  0  0  0  0  0  0  0  0  0
  1  2  1  0
  2  3  2  0
  3  4  1  0
  4  5  2  0
  5  6  1  0
  6  7  2  0
  7  8  1  0
  7  9  1  0
  9 10  2  0
 10 11  1  0
 11 12  2  0
 12 13  1  0
 13 14  2  0
 14 15  1  0
 15 16  2  0
 16 17  1  0
 16 18  1  0
 18 19  2  0
 12  2  1  0
 19 13  1  0
 11  5  1  0
  1 20  1  0
  1 21  1  0
  1 22  1  0
  3 23  1  0
  6 24  1  0
  9 25  1  0
 10 26  1  0
 14 27  1  0
 15 28  1  0
 18 29  1  0
 19 30  1  0
M  CHG  2   8  -1  17  -1
M  END
>  <UniqueID>  (74) 
67

>  <SMILES>  (74) 
Cc1cnc2cc([O-])ccc2c1-c1ccc([O-])cc1

>  <Energy>  (74) 
45.811608987380055

>  <Genealogy>  (74) 
Cc1cnc2cc([O-])ccc2c1-c1ccc([O-])cc1 (protonated)
Cc1cnc2cc([O-])ccc2c1-c1ccc([O-])cc1 (3D coordinates assigned)
Cc1cnc2cc([O-])ccc2c1-c1ccc([O-])cc1 (optimized conformer: 45.811608987380055 kcal/mol)

>  <smiles>  (74) 
Cc1cnc2cc(O)ccc2c1-c1ccc(O)cc1

>  <score_type>  (74) 
oracle

>  <origin>  (74) 
adg

>  <m_score__min__energy>  (74) 
-10.83

>  <m_primary>  (74) 
energy

$$$$
74:0
     RDKit          3D

 50 51  0  0  0  0  0  0  0  0999 V2000
   55.1420   29.3490   44.8550 N   0  0  0  0  0  0  0  0  0  0  0  0
   56.4860   29.8210   44.7540 C   0  0  0  0  0  0  0  0  0  0  0  0
   56.7250   31.0570   44.8230 O   0  0  0  0  0  0  0  0  0  0  0  0
   57.6110   28.8460   44.5960 C   0  0  0  0  0  0  0  0  0  0  0  0
   58.9690   29.5430   44.7080 C   0  0  0  0  0  0  0  0  0  0  0  0
   59.4910   29.4150   46.0660 N   0  0  0  0  0  0  0  0  0  0  0  0
   58.9100   30.0210   47.2270 C   0  0  0  0  0  0  0  0  0  0  0  0
   58.3370   29.2920   48.0770 O   0  0  0  0  0  0  0  0  0  0  0  0
   58.9970   31.4700   47.4690 C   0  0  0  0  0  0  0  0  0  0  0  0
   58.8820   32.3490   46.3810 C   0  0  0  0  0  0  0  0  0  0  0  0
   59.0060   33.7260   46.5710 C   0  0  0  0  0  0  0  0  0  0  0  0
   59.2550   34.2350   47.8470 C   0  0  0  0  0  0  0  0  0  0  0  0
   59.3580   33.3700   48.9390 C   0  0  0  0  0  0  0  0  0  0  0  0
   59.2080   31.9820   48.7660 C   0  0  0  0  0  0  0  0  0  0  0  0
   59.2710   31.0810   49.8860 N   0  0  0  0  0  0  0  0  0  0  0  0
   58.6540   31.3020   51.1630 C   0  0  0  0  0  0  0  0  0  0  0  0
   59.0970   32.1850   51.9460 O   0  0  0  0  0  0  0  0  0  0  0  0
   57.4270   30.5330   51.5490 C   0  0  0  0  0  0  0  0  0  0  0  0
   56.2040   31.4490   51.6330 C   0  0  0  0  0  0  0  0  0  0  0  0
   55.3890   31.0900   52.7860 N   0  0  0  0  0  0  0  0  0  0  0  0
   55.1440   29.7380   53.1860 C   0  0  0  0  0  0  0  0  0  0  0  0
   56.0120   28.8520   52.9670 O   0  0  0  0  0  0  0  0  0  0  0  0
   53.9090   29.3640   53.9060 C   0  0  0  0  0  0  0  0  0  0  0  0
   52.6940   29.2350   53.3520 C   0  0  0  0  0  0  0  0  0  0  0  0
   52.1570   30.1260   52.3110 C   0  0  0  0  0  0  0  0  0  0  0  0
   52.2370   29.7700   50.9570 C   0  0  0  0  0  0  0  0  0  0  0  0
   51.7340   30.6270   49.9730 C   0  0  0  0  0  0  0  0  0  0  0  0
   51.1730   31.8550   50.3350 C   0  0  0  0  0  0  0  0  0  0  0  0
   50.6750   32.7030   49.3520 O   0  0  0  0  0  0  0  0  0  0  0  0
   51.1170   32.2290   51.6840 C   0  0  0  0  0  0  0  0  0  0  0  0
   50.5700   33.4540   52.0480 O   0  0  0  0  0  0  0  0  0  0  0  0
   51.6120   31.3670   52.6690 C   0  0  0  0  0  0  0  0  0  0  0  0
   54.6110   29.4330   45.7480 H   0  0  0  0  0  0  0  0  0  0  0  0
   57.5350   28.0804   45.3821 H   0  0  0  0  0  0  0  0  0  0  0  0
   57.5365   28.3877   43.5988 H   0  0  0  0  0  0  0  0  0  0  0  0
   59.6744   29.0799   44.0024 H   0  0  0  0  0  0  0  0  0  0  0  0
   58.8457   30.6098   44.4699 H   0  0  0  0  0  0  0  0  0  0  0  0
   58.6931   31.9505   45.3733 H   0  0  0  0  0  0  0  0  0  0  0  0
   58.9076   34.4103   45.7154 H   0  0  0  0  0  0  0  0  0  0  0  0
   59.3703   35.3192   47.9927 H   0  0  0  0  0  0  0  0  0  0  0  0
   59.5578   33.7770   49.9412 H   0  0  0  0  0  0  0  0  0  0  0  0
   57.2404   29.7533   50.7958 H   0  0  0  0  0  0  0  0  0  0  0  0
   57.5944   30.0835   52.5389 H   0  0  0  0  0  0  0  0  0  0  0  0
   56.5370   32.4926   51.7334 H   0  0  0  0  0  0  0  0  0  0  0  0
   55.6043   31.3344   50.7180 H   0  0  0  0  0  0  0  0  0  0  0  0
   53.9929   29.1756   54.9865 H   0  0  0  0  0  0  0  0  0  0  0  0
   52.0567   28.4082   53.6989 H   0  0  0  0  0  0  0  0  0  0  0  0
   52.6969   28.8135   50.6679 H   0  0  0  0  0  0  0  0  0  0  0  0
   51.7799   30.3345   48.9136 H   0  0  0  0  0  0  0  0  0  0  0  0
   51.5733   31.6641   53.7274 H   0  0  0  0  0  0  0  0  0  0  0  0
  1  2  1  0
  2  3  2  0
  2  4  1  0
  4  5  1  0
  5  6  1  0
  6  7  1  0
  7  8  2  0
  7  9  1  0
  9 10  2  0
 10 11  1  0
 11 12  2  0
 12 13  1  0
 13 14  2  0
 14 15  1  0
 15 16  1  0
 16 17  2  0
 16 18  1  0
 18 19  1  0
 19 20  1  0
 20 21  1  0
 21 22  2  0
 21 23  1  0
 23 24  2  3
 24 25  1  0
 25 26  2  0
 26 27  1  0
 27 28  2  0
 28 29  1  0
 28 30  1  0
 30 31  1  0
 30 32  2  0
 14  9  1  0
 32 25  1  0
  1 33  1  0
  4 34  1  0
  4 35  1  0
  5 36  1  0
  5 37  1  0
 10 38  1  0
 11 39  1  0
 12 40  1  0
 13 41  1  0
 18 42  1  0
 18 43  1  0
 19 44  1  0
 19 45  1  0
 23 46  1  0
 24 47  1  0
 26 48  1  0
 27 49  1  0
 32 50  1  0
M  CHG  6   1  -1   6  -1  15  -1  20  -1  29  -1  31  -1
M  END
>  <UniqueID>  (75) 
68

>  <SMILES>  (75) 
[NH-]C(=O)CC[N-]C(=O)c1ccccc1[N-]C(=O)CC[N-]C(=O)C=Cc1ccc([O-])c([O-])c1

>  <Energy>  (75) 
55.20430061801377

>  <Genealogy>  (75) 
[NH-]C(=O)CC[N-]C(=O)c1ccccc1[N-]C(=O)CC[N-]C(=O)C=Cc1ccc([O-])c([O-])c1 (protonated)
[NH-]C(=O)CC[N-]C(=O)c1ccccc1[N-]C(=O)CC[N-]C(=O)C=Cc1ccc([O-])c([O-])c1 (3D coordinates assigned)
[NH-]C(=O)CC[N-]C(=O)c1ccccc1[N-]C(=O)CC[N-]C(=O)C=Cc1ccc([O-])c([O-])c1 (optimized conformer: 55.20430061801377 kcal/mol)

>  <smiles>  (75) 
NC(=O)CCNC(=O)c1ccccc1NC(=O)CCNC(=O)C=Cc1ccc(O)c(O)c1

>  <score_type>  (75) 
oracle

>  <origin>  (75) 
adg

>  <m_score__min__energy>  (75) 
-24.91

>  <m_primary>  (75) 
energy

$$$$
75:0
     RDKit          3D

 56 59  0  0  0  0  0  0  0  0999 V2000
   63.8080   31.6240   46.9530 N   0  0  0  0  0  0  0  0  0  0  0  0
   62.6100   32.8610   47.1110 S   0  0  0  0  0  0  0  0  0  0  0  0
   63.1180   34.1270   46.4780 O   0  0  0  0  0  0  0  0  0  0  0  0
   61.3500   32.4410   46.4100 O   0  0  0  0  0  0  0  0  0  0  0  0
   62.2690   33.1310   48.8180 C   0  0  0  0  0  0  0  0  0  0  0  0
   63.1160   33.9300   49.5960 C   0  0  0  0  0  0  0  0  0  0  0  0
   62.8390   34.1330   50.9490 C   0  0  0  0  0  0  0  0  0  0  0  0
   61.7220   33.5340   51.5360 C   0  0  0  0  0  0  0  0  0  0  0  0
   60.8650   32.7190   50.7730 C   0  0  0  0  0  0  0  0  0  0  0  0
   59.6830   32.0760   51.3930 C   0  0  0  0  0  0  0  0  0  0  0  0
   58.5300   32.5330   51.1620 O   0  0  0  0  0  0  0  0  0  0  0  0
   59.8500   30.8800   52.1780 N   0  0  0  0  0  0  0  0  0  0  0  0
   60.1810   29.6790   51.7910 C   0  0  0  0  0  0  0  0  0  0  0  0
   60.3610   29.3260   50.4360 C   0  0  0  0  0  0  0  0  0  0  0  0
   60.7010   28.0100   50.0990 C   0  0  0  0  0  0  0  0  0  0  0  0
   60.8920   27.6890   48.7460 O   0  0  0  0  0  0  0  0  0  0  0  0
   60.0170   28.0210   47.7020 C   0  0  0  0  0  0  0  0  0  0  0  0
   60.0750   29.2590   47.0450 C   0  0  0  0  0  0  0  0  0  0  0  0
   59.1850   29.5450   46.0090 C   0  0  0  0  0  0  0  0  0  0  0  0
   58.2220   28.5840   45.6330 C   0  0  0  0  0  0  0  0  0  0  0  0
   57.3440   28.7850   44.6900 N   0  0  0  0  0  0  0  0  0  0  0  0
   56.2830   29.7520   44.6380 C   0  0  0  0  0  0  0  0  0  0  0  0
   55.1020   29.3490   44.4740 O   0  0  0  0  0  0  0  0  0  0  0  0
   56.5400   31.1420   44.8690 N   0  0  0  0  0  0  0  0  0  0  0  0
   57.6440   31.8750   44.2590 C   0  0  0  0  0  0  0  0  0  0  0  0
   58.2120   32.8700   45.2330 C   0  0  0  0  0  0  0  0  0  0  0  0
   58.0420   32.6940   46.6170 C   0  0  0  0  0  0  0  0  0  0  0  0
   58.5910   33.6150   47.5150 C   0  0  0  0  0  0  0  0  0  0  0  0
   59.3110   34.7140   47.0410 C   0  0  0  0  0  0  0  0  0  0  0  0
   59.4890   34.8930   45.6660 C   0  0  0  0  0  0  0  0  0  0  0  0
   58.9430   33.9740   44.7630 C   0  0  0  0  0  0  0  0  0  0  0  0
   58.2250   27.3760   46.2600 N   0  0  0  0  0  0  0  0  0  0  0  0
   59.0890   27.0750   47.2650 C   0  0  0  0  0  0  0  0  0  0  0  0
   60.8790   27.0650   51.1190 C   0  0  0  0  0  0  0  0  0  0  0  0
   60.6730   27.4400   52.4450 C   0  0  0  0  0  0  0  0  0  0  0  0
   60.3280   28.7200   52.7450 N   0  0  0  0  0  0  0  0  0  0  0  0
   61.1520   32.5240   49.4070 C   0  0  0  0  0  0  0  0  0  0  0  0
   64.3010   31.5570   47.8720 H   0  0  0  0  0  0  0  0  0  0  0  0
   64.5100   31.9670   46.2590 H   0  0  0  0  0  0  0  0  0  0  0  0
   64.0009   34.3983   49.1403 H   0  0  0  0  0  0  0  0  0  0  0  0
   63.5028   34.7670   51.5551 H   0  0  0  0  0  0  0  0  0  0  0  0
   61.5106   33.7005   52.6026 H   0  0  0  0  0  0  0  0  0  0  0  0
   60.2346   30.0824   49.6474 H   0  0  0  0  0  0  0  0  0  0  0  0
   60.8238   30.0060   47.3471 H   0  0  0  0  0  0  0  0  0  0  0  0
   59.2336   30.5130   45.4888 H   0  0  0  0  0  0  0  0  0  0  0  0
   58.4314   31.1657   43.9643 H   0  0  0  0  0  0  0  0  0  0  0  0
   57.2709   32.4129   43.3750 H   0  0  0  0  0  0  0  0  0  0  0  0
   57.4758   31.8299   46.9948 H   0  0  0  0  0  0  0  0  0  0  0  0
   58.4554   33.4735   48.5974 H   0  0  0  0  0  0  0  0  0  0  0  0
   59.7381   35.4388   47.7497 H   0  0  0  0  0  0  0  0  0  0  0  0
   60.0588   35.7571   45.2936 H   0  0  0  0  0  0  0  0  0  0  0  0
   59.0866   34.1164   43.6817 H   0  0  0  0  0  0  0  0  0  0  0  0
   59.0566   26.0814   47.7359 H   0  0  0  0  0  0  0  0  0  0  0  0
   61.1790   26.0353   50.8744 H   0  0  0  0  0  0  0  0  0  0  0  0
   60.7897   26.6994   53.2499 H   0  0  0  0  0  0  0  0  0  0  0  0
   60.4925   31.8890   48.7972 H   0  0  0  0  0  0  0  0  0  0  0  0
  1  2  1  0
  2  3  2  0
  2  4  2  0
  2  5  1  0
  5  6  2  0
  6  7  1  0
  7  8  2  0
  8  9  1  0
  9 10  1  0
 10 11  2  0
 10 12  1  0
 12 13  2  3
 13 14  1  0
 14 15  2  0
 15 16  1  0
 16 17  1  0
 17 18  1  0
 18 19  2  0
 19 20  1  0
 20 21  2  3
 21 22  1  0
 22 23  2  0
 22 24  1  0
 24 25  1  0
 25 26  1  0
 26 27  2  0
 27 28  1  0
 28 29  2  0
 29 30  1  0
 30 31  2  0
 20 32  1  0
 32 33  1  0
 15 34  1  0
 34 35  2  0
 35 36  1  0
  9 37  2  0
 37  5  1  0
 36 13  1  0
 33 17  2  0
 31 26  1  0
  1 38  1  0
  1 39  1  0
  6 40  1  0
  7 41  1  0
  8 42  1  0
 14 43  1  0
 18 44  1  0
 19 45  1  0
 25 46  1  0
 25 47  1  0
 27 48  1  0
 28 49  1  0
 29 50  1  0
 30 51  1  0
 31 52  1  0
 33 53  1  0
 34 54  1  0
 35 55  1  0
 37 56  1  0
M  CHG  3  24  -1  32  -1  36  -1
M  END
>  <UniqueID>  (76) 
69

>  <SMILES>  (76) 
NS(=O)(=O)c1cccc(C(=O)N=c2cc(Oc3ccc(=NC(=O)[N-]Cc4ccccc4)[n-]c3)cc[n-]2)c1

>  <Energy>  (76) 
81.51309578982017

>  <Genealogy>  (76) 
NS(=O)(=O)c1cccc(C(=O)N=c2cc(Oc3ccc(=NC(=O)[N-]Cc4ccccc4)[n-]c3)cc[n-]2)c1 (protonated)
NS(=O)(=O)c1cccc(C(=O)N=c2cc(Oc3ccc(=NC(=O)[N-]Cc4ccccc4)[n-]c3)cc[n-]2)c1 (3D coordinates assigned)
NS(=O)(=O)c1cccc(C(=O)N=c2cc(Oc3ccc(=NC(=O)[N-]Cc4ccccc4)[n-]c3)cc[n-]2)c1 (optimized conformer: 81.51309578982017 kcal/mol)

>  <smiles>  (76) 
NS(=O)(=O)c1cccc(C(=O)N=c2cc(Oc3ccc(=NC(=O)NCc4ccccc4)[nH]c3)cc[nH]2)c1

>  <score_type>  (76) 
oracle

>  <origin>  (76) 
adg

>  <m_score__min__energy>  (76) 
-14.02

>  <m_primary>  (76) 
energy

$$$$
76:0
     RDKit          3D

 45 47  0  0  0  0  0  0  0  0999 V2000
   60.0940   34.1390   46.3590 C   0  0  0  0  0  0  0  0  0  0  0  0
   59.2260   35.0110   45.4660 C   0  0  0  0  0  0  0  0  0  0  0  0
   58.1030   34.2320   44.9590 N   0  0  0  0  0  0  0  0  0  0  0  0
   57.3840   33.2630   45.7300 C   0  0  0  0  0  0  0  0  0  0  0  0
   57.1050   33.5180   46.9290 O   0  0  0  0  0  0  0  0  0  0  0  0
   57.0300   31.9860   45.1860 N   0  0  0  0  0  0  0  0  0  0  0  0
   57.7140   30.9000   45.3810 C   0  0  0  0  0  0  0  0  0  0  0  0
   57.2120   29.6540   45.2380 N   0  0  0  0  0  0  0  0  0  0  0  0
   58.1410   28.7040   45.5320 C   0  0  0  0  0  0  0  0  0  0  0  0
   57.8320   27.2670   45.4110 C   0  0  0  0  0  0  0  0  0  0  0  0
   58.0940   26.6750   44.3300 O   0  0  0  0  0  0  0  0  0  0  0  0
   57.2850   26.5080   46.4960 N   0  0  0  0  0  0  0  0  0  0  0  0
   56.5060   25.3140   46.3600 C   0  0  0  0  0  0  0  0  0  0  0  0
   56.8860   24.0220   46.6740 C   0  0  0  0  0  0  0  0  0  0  0  0
   55.8380   23.1940   46.4720 N   0  0  0  0  0  0  0  0  0  0  0  0
   55.8130   21.7610   46.7500 C   0  0  0  0  0  0  0  0  0  0  0  0
   56.4410   21.0130   45.6170 C   0  0  0  0  0  0  0  0  0  0  0  0
   57.4230   20.2540   45.8340 O   0  0  0  0  0  0  0  0  0  0  0  0
   55.8910   21.1300   44.3030 N   0  0  0  0  0  0  0  0  0  0  0  0
   56.5620   21.8500   43.2250 C   0  0  0  0  0  0  0  0  0  0  0  0
   55.7570   23.0600   42.7700 C   0  0  0  0  0  0  0  0  0  0  0  0
   56.8520   23.9820   43.2880 C   0  0  0  0  0  0  0  0  0  0  0  0
   57.6600   22.7740   43.7440 C   0  0  0  0  0  0  0  0  0  0  0  0
   54.7890   23.9430   46.0670 C   0  0  0  0  0  0  0  0  0  0  0  0
   55.1810   25.2610   45.9960 C   0  0  0  0  0  0  0  0  0  0  0  0
   54.3820   26.3380   45.6350 O   0  0  0  0  0  0  0  0  0  0  0  0
   59.3930   29.2030   45.8980 C   0  0  0  0  0  0  0  0  0  0  0  0
   59.3160   30.8850   45.8790 S   0  0  0  0  0  0  0  0  0  0  0  0
   59.8736   34.3604   47.4137 H   0  0  0  0  0  0  0  0  0  0  0  0
   59.8817   33.0792   46.1547 H   0  0  0  0  0  0  0  0  0  0  0  0
   61.1548   34.3464   46.1547 H   0  0  0  0  0  0  0  0  0  0  0  0
   58.8462   35.8646   46.0465 H   0  0  0  0  0  0  0  0  0  0  0  0
   59.8265   35.3769   44.6201 H   0  0  0  0  0  0  0  0  0  0  0  0
   57.8811   23.7177   47.0307 H   0  0  0  0  0  0  0  0  0  0  0  0
   56.3724   21.5589   47.6754 H   0  0  0  0  0  0  0  0  0  0  0  0
   54.7698   21.4324   46.8676 H   0  0  0  0  0  0  0  0  0  0  0  0
   56.8032   21.0363   42.5252 H   0  0  0  0  0  0  0  0  0  0  0  0
   55.6021   23.1133   41.6823 H   0  0  0  0  0  0  0  0  0  0  0  0
   54.7157   23.1921   43.0990 H   0  0  0  0  0  0  0  0  0  0  0  0
   57.3422   24.5798   42.5055 H   0  0  0  0  0  0  0  0  0  0  0  0
   56.6101   24.7877   43.9967 H   0  0  0  0  0  0  0  0  0  0  0  0
   58.6255   22.6585   43.2297 H   0  0  0  0  0  0  0  0  0  0  0  0
   58.0098   22.6964   44.7840 H   0  0  0  0  0  0  0  0  0  0  0  0
   53.7844   23.5616   45.8320 H   0  0  0  0  0  0  0  0  0  0  0  0
   60.2772   28.6009   46.1545 H   0  0  0  0  0  0  0  0  0  0  0  0
  1  2  1  0
  2  3  1  0
  3  4  1  0
  4  5  2  0
  4  6  1  0
  6  7  2  3
  7  8  1  0
  8  9  1  0
  9 10  1  0
 10 11  2  0
 10 12  1  0
 12 13  1  0
 13 14  2  0
 14 15  1  0
 15 16  1  0
 16 17  1  0
 17 18  2  0
 17 19  1  0
 19 20  1  0
 20 21  1  0
 21 22  1  0
 22 23  1  0
 15 24  1  0
 24 25  2  0
 25 26  1  0
  9 27  2  0
 27 28  1  0
 28  7  1  0
 25 13  1  0
 23 20  1  0
  1 29  1  0
  1 30  1  0
  1 31  1  0
  2 32  1  0
  2 33  1  0
 14 34  1  0
 16 35  1  0
 16 36  1  0
 20 37  1  0
 21 38  1  0
 21 39  1  0
 22 40  1  0
 22 41  1  0
 23 42  1  0
 23 43  1  0
 24 44  1  0
 27 45  1  0
M  CHG  5   3  -1   8  -1  12  -1  19  -1  26  -1
M  END
>  <UniqueID>  (77) 
70

>  <SMILES>  (77) 
CC[N-]C(=O)N=c1[n-]c(C(=O)[N-]c2cn(CC(=O)[N-]C3CCC3)cc2[O-])cs1

>  <Energy>  (77) 
165.57449689519248

>  <Genealogy>  (77) 
CC[N-]C(=O)N=c1[n-]c(C(=O)[N-]c2cn(CC(=O)[N-]C3CCC3)cc2[O-])cs1 (protonated)
CC[N-]C(=O)N=c1[n-]c(C(=O)[N-]c2cn(CC(=O)[N-]C3CCC3)cc2[O-])cs1 (3D coordinates assigned)
CC[N-]C(=O)N=c1[n-]c(C(=O)[N-]c2cn(CC(=O)[N-]C3CCC3)cc2[O-])cs1 (nonaromatic ring conformer: 165.57449689519248 kcal/mol)

>  <smiles>  (77) 
CCNC(=O)N=c1[nH]c(C(=O)Nc2cn(CC(=O)NC3CCC3)cc2O)cs1

>  <score_type>  (77) 
oracle

>  <origin>  (77) 
adg

>  <m_score__min__energy>  (77) 
-16.489999999999998

>  <m_primary>  (77) 
energy

$$$$
77:0
     RDKit          3D

 39 41  0  0  0  0  0  0  0  0999 V2000
   55.1580   25.9310   46.3490 N   0  0  0  0  0  0  0  0  0  0  0  0
   56.8840   25.9830   46.2740 S   0  0  0  0  0  0  0  0  0  0  0  0
   57.3850   24.7560   45.5670 O   0  0  0  0  0  0  0  0  0  0  0  0
   57.4380   26.0200   47.6700 O   0  0  0  0  0  0  0  0  0  0  0  0
   57.4000   27.4090   45.3960 C   0  0  0  0  0  0  0  0  0  0  0  0
   58.7170   27.7600   45.1200 C   0  0  0  0  0  0  0  0  0  0  0  0
   58.8300   29.0030   44.4870 C   0  0  0  0  0  0  0  0  0  0  0  0
   57.6040   29.6170   44.2720 C   0  0  0  0  0  0  0  0  0  0  0  0
   57.3720   31.2180   43.5960 S   0  0  0  0  0  0  0  0  0  0  0  0
   56.2940   31.1900   42.5480 O   0  0  0  0  0  0  0  0  0  0  0  0
   58.6590   31.6720   42.9700 O   0  0  0  0  0  0  0  0  0  0  0  0
   56.9270   32.3260   44.8520 N   0  0  0  0  0  0  0  0  0  0  0  0
   57.8340   32.8810   45.8160 C   0  0  0  0  0  0  0  0  0  0  0  0
   58.3390   34.1880   45.6980 C   0  0  0  0  0  0  0  0  0  0  0  0
   59.1860   34.7080   46.6800 C   0  0  0  0  0  0  0  0  0  0  0  0
   59.5460   33.9270   47.7900 C   0  0  0  0  0  0  0  0  0  0  0  0
   60.4050   34.5100   48.8790 C   0  0  0  0  0  0  0  0  0  0  0  0
   61.8180   34.0080   48.7480 C   0  0  0  0  0  0  0  0  0  0  0  0
   62.6190   33.8400   49.8850 C   0  0  0  0  0  0  0  0  0  0  0  0
   63.9180   33.3440   49.7490 C   0  0  0  0  0  0  0  0  0  0  0  0
   64.3950   33.0180   48.5210 N   0  0  0  0  0  0  0  0  0  0  0  0
   63.6380   33.1610   47.4000 C   0  0  0  0  0  0  0  0  0  0  0  0
   62.3340   33.6570   47.4930 C   0  0  0  0  0  0  0  0  0  0  0  0
   59.0480   32.6210   47.9020 C   0  0  0  0  0  0  0  0  0  0  0  0
   58.2020   32.1020   46.9180 C   0  0  0  0  0  0  0  0  0  0  0  0
   56.3750   28.6350   44.8710 S   0  0  0  0  0  0  0  0  0  0  0  0
   54.8220   26.9190   46.4140 H   0  0  0  0  0  0  0  0  0  0  0  0
   59.5800   27.1266   45.3729 H   0  0  0  0  0  0  0  0  0  0  0  0
   59.7914   29.4476   44.1904 H   0  0  0  0  0  0  0  0  0  0  0  0
   58.0659   34.8039   44.8285 H   0  0  0  0  0  0  0  0  0  0  0  0
   59.5724   35.7333   46.5832 H   0  0  0  0  0  0  0  0  0  0  0  0
   60.3997   35.6070   48.7985 H   0  0  0  0  0  0  0  0  0  0  0  0
   60.0036   34.2045   49.8565 H   0  0  0  0  0  0  0  0  0  0  0  0
   62.2271   34.0974   50.8801 H   0  0  0  0  0  0  0  0  0  0  0  0
   64.5542   33.2177   50.6374 H   0  0  0  0  0  0  0  0  0  0  0  0
   64.0523   32.8860   46.4188 H   0  0  0  0  0  0  0  0  0  0  0  0
   61.7182   33.7708   46.5887 H   0  0  0  0  0  0  0  0  0  0  0  0
   59.3245   32.0021   48.7683 H   0  0  0  0  0  0  0  0  0  0  0  0
   57.8228   31.0736   47.0108 H   0  0  0  0  0  0  0  0  0  0  0  0
  1  2  1  0
  2  3  2  0
  2  4  2  0
  2  5  1  0
  5  6  2  0
  6  7  1  0
  7  8  2  0
  8  9  1  0
  9 10  2  0
  9 11  2  0
  9 12  1  0
 12 13  1  0
 13 14  2  0
 14 15  1  0
 15 16  2  0
 16 17  1  0
 17 18  1  0
 18 19  2  0
 19 20  1  0
 20 21  2  0
 21 22  1  0
 22 23  2  0
 16 24  1  0
 24 25  2  0
  8 26  1  0
 26  5  1  0
 25 13  1  0
 23 18  1  0
  1 27  1  0
  6 28  1  0
  7 29  1  0
 14 30  1  0
 15 31  1  0
 17 32  1  0
 17 33  1  0
 19 34  1  0
 20 35  1  0
 22 36  1  0
 23 37  1  0
 24 38  1  0
 25 39  1  0
M  CHG  2   1  -1  12  -1
M  END
>  <UniqueID>  (78) 
71

>  <SMILES>  (78) 
[NH-]S(=O)(=O)c1ccc(S(=O)(=O)[N-]c2ccc(Cc3ccncc3)cc2)s1

>  <Energy>  (78) 
70.04808443935286

>  <Genealogy>  (78) 
[NH-]S(=O)(=O)c1ccc(S(=O)(=O)[N-]c2ccc(Cc3ccncc3)cc2)s1 (protonated)
[NH-]S(=O)(=O)c1ccc(S(=O)(=O)[N-]c2ccc(Cc3ccncc3)cc2)s1 (3D coordinates assigned)
[NH-]S(=O)(=O)c1ccc(S(=O)(=O)[N-]c2ccc(Cc3ccncc3)cc2)s1 (optimized conformer: 70.04808443935286 kcal/mol)

>  <smiles>  (78) 
NS(=O)(=O)c1ccc(S(=O)(=O)Nc2ccc(Cc3ccncc3)cc2)s1

>  <score_type>  (78) 
oracle

>  <origin>  (78) 
adg

>  <m_score__min__energy>  (78) 
-12.32

>  <m_primary>  (78) 
energy

$$$$
78:0
     RDKit          3D

 33 36  0  0  0  0  0  0  0  0999 V2000
   55.8610   31.1730   44.1287 H   0  0  0  0  0  0  0  0  0  0  0  0
   56.7810   30.9990   44.7060 C   0  0  0  0  0  0  0  0  0  0  0  0
   56.9860   29.6570   45.2870 C   0  0  0  0  0  0  0  0  0  0  0  0
   55.9630   28.7040   45.1620 C   0  0  0  0  0  0  0  0  0  0  0  0
   54.7870   29.0140   44.4890 O   0  0  0  0  0  0  0  0  0  0  0  0
   56.1160   27.4630   45.6890 N   0  0  0  0  0  0  0  0  0  0  0  0
   57.2360   27.0890   46.3570 C   0  0  0  0  0  0  0  0  0  0  0  0
   57.3130   25.9170   46.8170 O   0  0  0  0  0  0  0  0  0  0  0  0
   58.2900   28.0050   46.5330 C   0  0  0  0  0  0  0  0  0  0  0  0
   59.4610   27.6480   47.2270 C   0  0  0  0  0  0  0  0  0  0  0  0
   59.5646   26.6332   47.6387 H   0  0  0  0  0  0  0  0  0  0  0  0
   60.4910   28.5730   47.3960 C   0  0  0  0  0  0  0  0  0  0  0  0
   61.4046   28.2831   47.9357 H   0  0  0  0  0  0  0  0  0  0  0  0
   60.3670   29.8650   46.8830 C   0  0  0  0  0  0  0  0  0  0  0  0
   61.7820   31.1250   47.1210 Br  0  0  0  0  0  0  0  0  0  0  0  0
   59.2110   30.2370   46.1930 C   0  0  0  0  0  0  0  0  0  0  0  0
   59.1181   31.2588   45.7964 H   0  0  0  0  0  0  0  0  0  0  0  0
   58.1610   29.3140   46.0000 C   0  0  0  0  0  0  0  0  0  0  0  0
   57.6420   32.0210   44.8350 C   0  0  0  0  0  0  0  0  0  0  0  0
   58.3010   32.6360   43.7720 C   0  0  0  0  0  0  0  0  0  0  0  0
   58.2118   32.3471   42.7144 H   0  0  0  0  0  0  0  0  0  0  0  0
   59.0650   33.6410   44.2450 N   0  0  0  0  0  0  0  0  0  0  0  0
   59.6680   34.2780   43.6780 H   0  0  0  0  0  0  0  0  0  0  0  0
   58.9300   33.6820   45.5610 N   0  0  0  0  0  0  0  0  0  0  0  0
   59.5460   34.5430   46.4150 C   0  0  0  0  0  0  0  0  0  0  0  0
   60.3270   35.4350   45.9850 O   0  0  0  0  0  0  0  0  0  0  0  0
   59.2960   34.4170   47.7870 C   0  0  0  0  0  0  0  0  0  0  0  0
   59.7713   35.1035   48.5031 H   0  0  0  0  0  0  0  0  0  0  0  0
   58.4320   33.4050   48.2410 C   0  0  0  0  0  0  0  0  0  0  0  0
   58.2361   33.2961   49.3179 H   0  0  0  0  0  0  0  0  0  0  0  0
   57.8180   32.5330   47.3290 C   0  0  0  0  0  0  0  0  0  0  0  0
   57.1490   31.7310   47.6743 H   0  0  0  0  0  0  0  0  0  0  0  0
   58.0830   32.7150   45.9650 C   0  0  0  0  0  0  0  0  0  0  0  0
  1  2  1  0
  2  3  1  0
  3  4  2  0
  4  5  1  0
  4  6  1  0
  6  7  1  0
  7  8  2  0
  7  9  1  0
  9 10  2  0
 10 11  1  0
 10 12  1  0
 12 13  1  0
 12 14  2  0
 14 15  1  0
 14 16  1  0
 16 17  1  0
 16 18  2  0
  2 19  2  0
 19 20  1  0
 20 21  1  0
 20 22  2  0
 22 23  1  0
 22 24  1  0
 24 25  1  0
 25 26  2  0
 25 27  1  0
 27 28  1  0
 27 29  2  0
 29 30  1  0
 29 31  1  0
 31 32  1  0
 31 33  2  0
 18  3  1  0
 33 19  1  0
 18  9  1  0
 33 24  1  0
M  CHG  3   5  -1   6  -1  22   1
M  END
>  <UniqueID>  (79) 
72

>  <SMILES>  (79) 
O=c1[n-]c([O-])c(/C=c2/c[nH+]n3c(=O)cccc23)c2cc(Br)ccc12

>  <Energy>  (79) 
92.40463868049423

>  <Genealogy>  (79) 
O=c1[n-]c([O-])c(C=c2c[nH+]n3c(=O)cccc23)c2cc(Br)ccc12 (protonated)
O=c1[n-]c([O-])c(/C=c2/c[nH+]n3c(=O)cccc23)c2cc(Br)ccc12 (cis-trans isomerization)
O=c1[n-]c([O-])c(/C=c2/c[nH+]n3c(=O)cccc23)c2cc(Br)ccc12 (3D coordinates assigned)
O=c1[n-]c([O-])c(/C=c2/c[nH+]n3c(=O)cccc23)c2cc(Br)ccc12 (optimized conformer: 92.40463868049423 kcal/mol)

>  <smiles>  (79) 
O=c1[nH]c(O)c(C=c2cnn3c(=O)cccc23)c2cc(Br)ccc12

>  <score_type>  (79) 
oracle

>  <origin>  (79) 
adg

>  <m_score__min__energy>  (79) 
-11.6

>  <m_primary>  (79) 
energy

$$$$
79:0
     RDKit          3D

 56 60  0  0  0  0  0  0  0  0999 V2000
   58.7830   26.6920   53.8660 C   0  0  0  0  0  0  0  0  0  0  0  0
   58.0990   27.7620   54.7080 C   0  0  0  0  0  0  0  0  0  0  0  0
   57.7620   28.9220   53.8810 N   0  0  0  0  0  0  0  0  0  0  0  0
   58.5810   29.9670   53.6150 C   0  0  0  0  0  0  0  0  0  0  0  0
   57.9230   30.9050   52.8290 C   0  0  0  0  0  0  0  0  0  0  0  0
   58.4990   32.1610   52.3150 C   0  0  0  0  0  0  0  0  0  0  0  0
   58.8620   32.4400   51.0530 C   0  0  0  0  0  0  0  0  0  0  0  0
   58.8700   31.5220   49.8970 C   0  0  0  0  0  0  0  0  0  0  0  0
   59.3320   30.2450   49.9640 N   0  0  0  0  0  0  0  0  0  0  0  0
   59.1200   29.7900   48.7220 C   0  0  0  0  0  0  0  0  0  0  0  0
   59.3750   28.5160   48.2280 C   0  0  0  0  0  0  0  0  0  0  0  0
   59.0470   28.2570   46.8850 C   0  0  0  0  0  0  0  0  0  0  0  0
   58.4730   29.2720   46.0700 C   0  0  0  0  0  0  0  0  0  0  0  0
   58.1230   29.0450   44.6980 N   0  0  0  0  0  0  0  0  0  0  0  0
   56.9820   29.9710   43.7790 S   0  0  0  0  0  0  0  0  0  0  0  0
   57.6640   31.5680   43.3810 C   0  0  0  0  0  0  0  0  0  0  0  0
   56.6110   29.2330   42.5240 O   0  0  0  0  0  0  0  0  0  0  0  0
   55.7450   30.1710   44.6060 O   0  0  0  0  0  0  0  0  0  0  0  0
   58.2310   30.5490   46.6200 C   0  0  0  0  0  0  0  0  0  0  0  0
   58.5700   30.7650   47.9530 C   0  0  0  0  0  0  0  0  0  0  0  0
   58.4020   31.8850   48.6720 N   0  0  0  0  0  0  0  0  0  0  0  0
   59.3410   33.8260   51.0330 C   0  0  0  0  0  0  0  0  0  0  0  0
   59.7660   34.4390   50.0170 O   0  0  0  0  0  0  0  0  0  0  0  0
   59.2860   34.4010   52.3280 N   0  0  0  0  0  0  0  0  0  0  0  0
   58.7650   33.3500   53.1260 C   0  0  0  0  0  0  0  0  0  0  0  0
   58.5530   33.4530   54.3630 O   0  0  0  0  0  0  0  0  0  0  0  0
   56.6370   30.4170   52.6560 C   0  0  0  0  0  0  0  0  0  0  0  0
   55.5270   30.9600   52.0080 C   0  0  0  0  0  0  0  0  0  0  0  0
   54.3430   30.2040   51.9600 C   0  0  0  0  0  0  0  0  0  0  0  0
   53.2520   30.7360   51.2520 O   0  0  0  0  0  0  0  0  0  0  0  0
   51.9280   30.8780   51.7670 C   0  0  0  0  0  0  0  0  0  0  0  0
   51.3150   32.1610   51.2960 C   0  0  0  0  0  0  0  0  0  0  0  0
   50.9980   32.3360   49.9170 N   0  0  0  0  0  0  0  0  0  0  0  0
   51.0600   33.0790   52.1220 O   0  0  0  0  0  0  0  0  0  0  0  0
   54.2880   28.9430   52.6140 C   0  0  0  0  0  0  0  0  0  0  0  0
   55.4100   28.4420   53.2990 C   0  0  0  0  0  0  0  0  0  0  0  0
   56.5790   29.2060   53.2970 C   0  0  0  0  0  0  0  0  0  0  0  0
   59.2563   25.9517   54.5277 H   0  0  0  0  0  0  0  0  0  0  0  0
   58.0365   26.1922   53.2312 H   0  0  0  0  0  0  0  0  0  0  0  0
   59.5500   27.1597   53.2312 H   0  0  0  0  0  0  0  0  0  0  0  0
   57.1780   27.3471   55.1434 H   0  0  0  0  0  0  0  0  0  0  0  0
   58.7843   28.0800   55.5075 H   0  0  0  0  0  0  0  0  0  0  0  0
   59.6180   30.0599   53.9701 H   0  0  0  0  0  0  0  0  0  0  0  0
   59.8182   27.7369   48.8657 H   0  0  0  0  0  0  0  0  0  0  0  0
   59.2362   27.2599   46.4607 H   0  0  0  0  0  0  0  0  0  0  0  0
   57.8954   32.1097   44.3100 H   0  0  0  0  0  0  0  0  0  0  0  0
   58.5849   31.4374   42.7936 H   0  0  0  0  0  0  0  0  0  0  0  0
   56.9329   32.1429   42.7936 H   0  0  0  0  0  0  0  0  0  0  0  0
   57.7869   31.3513   46.0125 H   0  0  0  0  0  0  0  0  0  0  0  0
   59.5680   35.3620   52.6240 H   0  0  0  0  0  0  0  0  0  0  0  0
   55.5773   31.9567   51.5454 H   0  0  0  0  0  0  0  0  0  0  0  0
   51.3127   30.0346   51.4205 H   0  0  0  0  0  0  0  0  0  0  0  0
   51.9737   30.8888   52.8660 H   0  0  0  0  0  0  0  0  0  0  0  0
   50.0050   32.3490   49.5940 H   0  0  0  0  0  0  0  0  0  0  0  0
   53.3597   28.3536   52.5842 H   0  0  0  0  0  0  0  0  0  0  0  0
   55.3677   27.4751   53.8218 H   0  0  0  0  0  0  0  0  0  0  0  0
  1  2  1  0
  2  3  1  0
  3  4  1  0
  4  5  2  0
  5  6  1  0
  6  7  2  0
  7  8  1  0
  8  9  2  0
  9 10  1  0
 10 11  2  0
 11 12  1  0
 12 13  2  0
 13 14  1  0
 14 15  1  0
 15 16  1  0
 15 17  2  0
 15 18  2  0
 13 19  1  0
 19 20  2  0
 20 21  1  0
  7 22  1  0
 22 23  2  0
 22 24  1  0
 24 25  1  0
 25 26  2  0
  5 27  1  0
 27 28  2  0
 28 29  1  0
 29 30  1  0
 30 31  1  0
 31 32  1  0
 32 33  1  0
 32 34  2  0
 29 35  2  0
 35 36  1  0
 36 37  2  0
 37  3  1  0
 25  6  1  0
 37 27  1  0
 21  8  1  0
 20 10  1  0
  1 38  1  0
  1 39  1  0
  1 40  1  0
  2 41  1  0
  2 42  1  0
  4 43  1  0
 11 44  1  0
 12 45  1  0
 16 46  1  0
 16 47  1  0
 16 48  1  0
 19 49  1  0
 24 50  1  0
 28 51  1  0
 31 52  1  0
 31 53  1  0
 33 54  1  0
 35 55  1  0
 36 56  1  0
M  CHG  3  14  -1  21  -1  33  -1
M  END
>  <UniqueID>  (80) 
73

>  <SMILES>  (80) 
CCn1cc(C2=C(c3nc4ccc([N-]S(C)(=O)=O)cc4[n-]3)C(=O)NC2=O)c2cc(OCC([NH-])=O)ccc21

>  <Energy>  (80) 
155.0370222980049

>  <Genealogy>  (80) 
CCn1cc(C2=C(c3nc4ccc([N-]S(C)(=O)=O)cc4[n-]3)C(=O)NC2=O)c2cc(OCC([NH-])=O)ccc21 (protonated)
CCn1cc(C2=C(c3nc4ccc([N-]S(C)(=O)=O)cc4[n-]3)C(=O)NC2=O)c2cc(OCC([NH-])=O)ccc21 (3D coordinates assigned)
CCn1cc(C2=C(c3nc4ccc([N-]S(C)(=O)=O)cc4[n-]3)C(=O)NC2=O)c2cc(OCC([NH-])=O)ccc21 (nonaromatic ring conformer: 155.0370222980049 kcal/mol)

>  <smiles>  (80) 
CCn1cc(C2=C(c3nc4ccc(NS(C)(=O)=O)cc4[nH]3)C(=O)NC2=O)c2cc(OCC(N)=O)ccc21

>  <score_type>  (80) 
oracle

>  <origin>  (80) 
adg

>  <m_score__min__energy>  (80) 
-15.43

>  <m_primary>  (80) 
energy

$$$$
80:0
     RDKit          3D

 44 46  0  0  0  0  0  0  0  0999 V2000
   55.5720   29.7140   43.7860 C   0  0  0  0  0  0  0  0  0  0  0  0
   56.7620   30.3400   44.4390 C   0  0  0  0  0  0  0  0  0  0  0  0
   57.9260   29.5960   44.6540 C   0  0  0  0  0  0  0  0  0  0  0  0
   59.0250   30.2180   45.2680 C   0  0  0  0  0  0  0  0  0  0  0  0
   60.2780   29.4570   45.5210 C   0  0  0  0  0  0  0  0  0  0  0  0
   60.9560   29.0530   44.5390 O   0  0  0  0  0  0  0  0  0  0  0  0
   60.7680   29.1530   46.8370 N   0  0  0  0  0  0  0  0  0  0  0  0
   60.6850   27.8740   47.5310 C   0  0  0  0  0  0  0  0  0  0  0  0
   59.4430   27.1540   47.0900 C   0  0  0  0  0  0  0  0  0  0  0  0
   59.5390   25.9520   46.3710 C   0  0  0  0  0  0  0  0  0  0  0  0
   58.3840   25.2630   45.9920 C   0  0  0  0  0  0  0  0  0  0  0  0
   57.1210   25.7570   46.3400 C   0  0  0  0  0  0  0  0  0  0  0  0
   55.6730   24.8820   45.8530 S   0  0  0  0  0  0  0  0  0  0  0  0
   54.3330   25.9710   45.7920 N   0  0  0  0  0  0  0  0  0  0  0  0
   55.8880   24.2740   44.4960 O   0  0  0  0  0  0  0  0  0  0  0  0
   55.3770   23.7810   46.8330 O   0  0  0  0  0  0  0  0  0  0  0  0
   57.0220   26.9530   47.0660 C   0  0  0  0  0  0  0  0  0  0  0  0
   58.1760   27.6430   47.4450 C   0  0  0  0  0  0  0  0  0  0  0  0
   58.9170   31.5220   45.6400 N   0  0  0  0  0  0  0  0  0  0  0  0
   57.7810   32.2350   45.4280 C   0  0  0  0  0  0  0  0  0  0  0  0
   57.7290   33.4780   45.8070 N   0  0  0  0  0  0  0  0  0  0  0  0
   58.1850   33.9750   47.1050 C   0  0  0  0  0  0  0  0  0  0  0  0
   59.6620   33.7780   47.2520 C   0  0  0  0  0  0  0  0  0  0  0  0
   60.6240   34.0650   46.2920 C   0  0  0  0  0  0  0  0  0  0  0  0
   61.9300   33.8260   46.7350 C   0  0  0  0  0  0  0  0  0  0  0  0
   61.9990   33.3600   48.0410 C   0  0  0  0  0  0  0  0  0  0  0  0
   60.4350   33.2470   48.6480 S   0  0  0  0  0  0  0  0  0  0  0  0
   56.7140   31.6400   44.8280 N   0  0  0  0  0  0  0  0  0  0  0  0
   54.8791   29.3495   44.5587 H   0  0  0  0  0  0  0  0  0  0  0  0
   55.0624   30.4608   43.1594 H   0  0  0  0  0  0  0  0  0  0  0  0
   55.8987   28.8710   43.1594 H   0  0  0  0  0  0  0  0  0  0  0  0
   57.9800   28.5410   44.3473 H   0  0  0  0  0  0  0  0  0  0  0  0
   61.5689   27.2656   47.2887 H   0  0  0  0  0  0  0  0  0  0  0  0
   60.6483   28.0440   48.6172 H   0  0  0  0  0  0  0  0  0  0  0  0
   60.5280   25.5508   46.1048 H   0  0  0  0  0  0  0  0  0  0  0  0
   58.4674   24.3285   45.4178 H   0  0  0  0  0  0  0  0  0  0  0  0
   54.5950   26.8080   46.3590 H   0  0  0  0  0  0  0  0  0  0  0  0
   56.0324   27.3489   47.3378 H   0  0  0  0  0  0  0  0  0  0  0  0
   58.0914   28.5741   48.0245 H   0  0  0  0  0  0  0  0  0  0  0  0
   57.9531   35.0474   47.1839 H   0  0  0  0  0  0  0  0  0  0  0  0
   57.6705   33.4165   47.9008 H   0  0  0  0  0  0  0  0  0  0  0  0
   60.3840   34.4415   45.2867 H   0  0  0  0  0  0  0  0  0  0  0  0
   62.8181   33.9918   46.1075 H   0  0  0  0  0  0  0  0  0  0  0  0
   62.9205   33.1076   48.5861 H   0  0  0  0  0  0  0  0  0  0  0  0
  1  2  1  0
  2  3  1  0
  3  4  2  0
  4  5  1  0
  5  6  2  0
  5  7  1  0
  7  8  1  0
  8  9  1  0
  9 10  2  0
 10 11  1  0
 11 12  2  0
 12 13  1  0
 13 14  1  0
 13 15  2  0
 13 16  2  0
 12 17  1  0
 17 18  2  0
  4 19  1  0
 19 20  1  0
 20 21  2  3
 21 22  1  0
 22 23  1  0
 23 24  2  0
 24 25  1  0
 25 26  2  0
 26 27  1  0
 20 28  1  0
 28  2  2  0
 18  9  1  0
 27 23  1  0
  1 29  1  0
  1 30  1  0
  1 31  1  0
  3 32  1  0
  8 33  1  0
  8 34  1  0
 10 35  1  0
 11 36  1  0
 14 37  1  0
 17 38  1  0
 18 39  1  0
 22 40  1  0
 22 41  1  0
 24 42  1  0
 25 43  1  0
 26 44  1  0
M  CHG  3   7  -1  14  -1  19  -1
M  END
>  <UniqueID>  (81) 
74

>  <SMILES>  (81) 
Cc1cc(C(=O)[N-]Cc2ccc(S([NH-])(=O)=O)cc2)[n-]c(=NCc2cccs2)n1

>  <Energy>  (81) 
69.91411063282976

>  <Genealogy>  (81) 
Cc1cc(C(=O)[N-]Cc2ccc(S([NH-])(=O)=O)cc2)[n-]c(=NCc2cccs2)n1 (protonated)
Cc1cc(C(=O)[N-]Cc2ccc(S([NH-])(=O)=O)cc2)[n-]c(=NCc2cccs2)n1 (3D coordinates assigned)
Cc1cc(C(=O)[N-]Cc2ccc(S([NH-])(=O)=O)cc2)[n-]c(=NCc2cccs2)n1 (optimized conformer: 69.91411063282976 kcal/mol)

>  <smiles>  (81) 
Cc1cc(C(=O)NCc2ccc(S(N)(=O)=O)cc2)[nH]c(=NCc2cccs2)n1

>  <score_type>  (81) 
oracle

>  <origin>  (81) 
adg

>  <m_score__min__energy>  (81) 
-13.51

>  <m_primary>  (81) 
energy

$$$$
81:0
     RDKit          3D

 28 29  0  0  0  0  0  0  0  0999 V2000
   55.6630   29.9110   44.3120 C   0  0  0  0  0  0  0  0  0  0  0  0
   56.7220   28.9070   44.6250 C   0  0  0  0  0  0  0  0  0  0  0  0
   57.7790   28.5720   43.8000 C   0  0  0  0  0  0  0  0  0  0  0  0
   58.4990   27.6170   44.4870 C   0  0  0  0  0  0  0  0  0  0  0  0
   57.8300   27.4320   45.6820 C   0  0  0  0  0  0  0  0  0  0  0  0
   58.2500   26.5120   46.7830 C   0  0  0  0  0  0  0  0  0  0  0  0
   57.1290   25.6680   47.1780 N   0  0  0  0  0  0  0  0  0  0  0  0
   57.0500   24.2740   46.8660 C   0  0  0  0  0  0  0  0  0  0  0  0
   57.3810   23.4070   47.7200 O   0  0  0  0  0  0  0  0  0  0  0  0
   56.6280   23.8480   45.4970 C   0  0  0  0  0  0  0  0  0  0  0  0
   55.1400   23.9630   45.3700 C   0  0  0  0  0  0  0  0  0  0  0  0
   54.3320   22.9280   45.0750 N   0  0  0  0  0  0  0  0  0  0  0  0
   53.0960   23.4700   45.1380 C   0  0  0  0  0  0  0  0  0  0  0  0
   52.0520   22.8050   44.9130 O   0  0  0  0  0  0  0  0  0  0  0  0
   53.0670   24.7790   45.4670 N   0  0  0  0  0  0  0  0  0  0  0  0
   54.3680   25.0780   45.6170 C   0  0  0  0  0  0  0  0  0  0  0  0
   54.8260   26.3410   45.9810 O   0  0  0  0  0  0  0  0  0  0  0  0
   56.7770   28.2140   45.7380 O   0  0  0  0  0  0  0  0  0  0  0  0
   55.2450   30.3073   45.2491 H   0  0  0  0  0  0  0  0  0  0  0  0
   56.0997   30.7346   43.7281 H   0  0  0  0  0  0  0  0  0  0  0  0
   54.8638   29.4311   43.7281 H   0  0  0  0  0  0  0  0  0  0  0  0
   58.0000   28.9816   42.8033 H   0  0  0  0  0  0  0  0  0  0  0  0
   59.4154   27.1083   44.1531 H   0  0  0  0  0  0  0  0  0  0  0  0
   59.0782   25.8783   46.4330 H   0  0  0  0  0  0  0  0  0  0  0  0
   58.5777   27.1075   47.6478 H   0  0  0  0  0  0  0  0  0  0  0  0
   57.1101   24.4936   44.7481 H   0  0  0  0  0  0  0  0  0  0  0  0
   56.9285   22.8029   45.3313 H   0  0  0  0  0  0  0  0  0  0  0  0
   55.7270   26.4680   46.4250 H   0  0  0  0  0  0  0  0  0  0  0  0
  1  2  1  0
  2  3  2  0
  3  4  1  0
  4  5  2  0
  5  6  1  0
  6  7  1  0
  7  8  1  0
  8  9  2  0
  8 10  1  0
 10 11  1  0
 11 12  1  0
 12 13  1  0
 13 14  2  0
 13 15  1  0
 15 16  1  0
 16 17  1  0
  5 18  1  0
 18  2  1  0
 16 11  2  0
  1 19  1  0
  1 20  1  0
  1 21  1  0
  3 22  1  0
  4 23  1  0
  6 24  1  0
  6 25  1  0
 10 26  1  0
 10 27  1  0
 17 28  1  0
M  CHG  3   7  -1  12  -1  15  -1
M  END
>  <UniqueID>  (82) 
75

>  <SMILES>  (82) 
Cc1ccc(C[N-]C(=O)Cc2[n-]c(=O)[n-]c2O)o1

>  <Energy>  (82) 
75.24369473041916

>  <Genealogy>  (82) 
Cc1ccc(C[N-]C(=O)Cc2[n-]c(=O)[n-]c2O)o1 (protonated)
Cc1ccc(C[N-]C(=O)Cc2[n-]c(=O)[n-]c2O)o1 (3D coordinates assigned)
Cc1ccc(C[N-]C(=O)Cc2[n-]c(=O)[n-]c2O)o1 (optimized conformer: 75.24369473041916 kcal/mol)

>  <smiles>  (82) 
Cc1ccc(CNC(=O)Cc2[nH]c(=O)[nH]c2O)o1

>  <score_type>  (82) 
oracle

>  <origin>  (82) 
adg

>  <m_score__min__energy>  (82) 
-13.359999999999999

>  <m_primary>  (82) 
energy

$$$$
82:0
     RDKit          3D

 49 51  0  0  0  0  0  0  0  0999 V2000
   56.6690   29.6460   53.6760 C   0  0  0  0  0  0  0  0  0  0  0  0
   57.0580   30.5550   52.1980 S   0  0  0  0  0  0  0  0  0  0  0  0
   57.7710   29.6460   51.2360 O   0  0  0  0  0  0  0  0  0  0  0  0
   55.7830   31.0550   51.5800 O   0  0  0  0  0  0  0  0  0  0  0  0
   58.0810   31.8910   52.6140 N   0  0  0  0  0  0  0  0  0  0  0  0
   58.9940   32.5410   51.7210 C   0  0  0  0  0  0  0  0  0  0  0  0
   60.2120   33.0850   52.1640 C   0  0  0  0  0  0  0  0  0  0  0  0
   61.0710   33.7100   51.2580 C   0  0  0  0  0  0  0  0  0  0  0  0
   60.7250   33.8060   49.9080 C   0  0  0  0  0  0  0  0  0  0  0  0
   59.5070   33.2750   49.4480 C   0  0  0  0  0  0  0  0  0  0  0  0
   59.1300   33.3650   48.0160 C   0  0  0  0  0  0  0  0  0  0  0  0
   58.6100   34.4270   47.5740 O   0  0  0  0  0  0  0  0  0  0  0  0
   59.3940   32.2760   47.1140 N   0  0  0  0  0  0  0  0  0  0  0  0
   58.6950   32.0790   45.8730 C   0  0  0  0  0  0  0  0  0  0  0  0
   58.7100   33.0940   44.9050 C   0  0  0  0  0  0  0  0  0  0  0  0
   58.0620   32.9150   43.6820 C   0  0  0  0  0  0  0  0  0  0  0  0
   57.4050   31.7160   43.4030 C   0  0  0  0  0  0  0  0  0  0  0  0
   57.3920   30.6750   44.3490 C   0  0  0  0  0  0  0  0  0  0  0  0
   56.7190   29.3900   44.0420 C   0  0  0  0  0  0  0  0  0  0  0  0
   56.6390   28.9890   42.8490 O   0  0  0  0  0  0  0  0  0  0  0  0
   56.1650   28.5970   45.0960 N   0  0  0  0  0  0  0  0  0  0  0  0
   56.8980   27.1240   45.6340 S   0  0  0  0  0  0  0  0  0  0  0  0
   55.8850   26.3090   46.3840 O   0  0  0  0  0  0  0  0  0  0  0  0
   57.3710   26.3430   44.4400 O   0  0  0  0  0  0  0  0  0  0  0  0
   58.2420   27.5020   46.7070 C   0  0  0  0  0  0  0  0  0  0  0  0
   58.1700   28.5880   47.5930 C   0  0  0  0  0  0  0  0  0  0  0  0
   59.2430   28.8700   48.4450 C   0  0  0  0  0  0  0  0  0  0  0  0
   60.3910   28.0710   48.4150 C   0  0  0  0  0  0  0  0  0  0  0  0
   60.4660   26.9890   47.5330 C   0  0  0  0  0  0  0  0  0  0  0  0
   59.3940   26.7040   46.6800 C   0  0  0  0  0  0  0  0  0  0  0  0
   58.0450   30.8650   45.5820 C   0  0  0  0  0  0  0  0  0  0  0  0
   58.6530   32.6350   50.3660 C   0  0  0  0  0  0  0  0  0  0  0  0
   56.9279   30.2510   54.5574 H   0  0  0  0  0  0  0  0  0  0  0  0
   55.5935   29.4157   53.6924 H   0  0  0  0  0  0  0  0  0  0  0  0
   57.2449   28.7090   53.6924 H   0  0  0  0  0  0  0  0  0  0  0  0
   60.4889   33.0182   53.2265 H   0  0  0  0  0  0  0  0  0  0  0  0
   62.0255   34.1291   51.6092 H   0  0  0  0  0  0  0  0  0  0  0  0
   61.4087   34.2994   49.2015 H   0  0  0  0  0  0  0  0  0  0  0  0
   60.2110   31.6580   47.3180 H   0  0  0  0  0  0  0  0  0  0  0  0
   59.2362   34.0377   45.1113 H   0  0  0  0  0  0  0  0  0  0  0  0
   58.0692   33.7224   42.9349 H   0  0  0  0  0  0  0  0  0  0  0  0
   56.8943   31.5841   42.4377 H   0  0  0  0  0  0  0  0  0  0  0  0
   57.2687   29.2182   47.6175 H   0  0  0  0  0  0  0  0  0  0  0  0
   59.1841   29.7211   49.1394 H   0  0  0  0  0  0  0  0  0  0  0  0
   61.2343   28.2941   49.0852 H   0  0  0  0  0  0  0  0  0  0  0  0
   61.3688   26.3609   47.5095 H   0  0  0  0  0  0  0  0  0  0  0  0
   59.4555   25.8520   45.9869 H   0  0  0  0  0  0  0  0  0  0  0  0
   58.0471   30.0552   46.3265 H   0  0  0  0  0  0  0  0  0  0  0  0
   57.7047   32.2027   50.0141 H   0  0  0  0  0  0  0  0  0  0  0  0
  1  2  1  0
  2  3  2  0
  2  4  2  0
  2  5  1  0
  5  6  1  0
  6  7  2  0
  7  8  1  0
  8  9  2  0
  9 10  1  0
 10 11  1  0
 11 12  2  0
 11 13  1  0
 13 14  1  0
 14 15  2  0
 15 16  1  0
 16 17  2  0
 17 18  1  0
 18 19  1  0
 19 20  2  0
 19 21  1  0
 21 22  1  0
 22 23  2  0
 22 24  2  0
 22 25  1  0
 25 26  2  0
 26 27  1  0
 27 28  2  0
 28 29  1  0
 29 30  2  0
 18 31  2  0
 10 32  2  0
 32  6  1  0
 31 14  1  0
 30 25  1  0
  1 33  1  0
  1 34  1  0
  1 35  1  0
  7 36  1  0
  8 37  1  0
  9 38  1  0
 13 39  1  0
 15 40  1  0
 16 41  1  0
 17 42  1  0
 26 43  1  0
 27 44  1  0
 28 45  1  0
 29 46  1  0
 30 47  1  0
 31 48  1  0
 32 49  1  0
M  CHG  2   5  -1  21  -1
M  END
>  <UniqueID>  (83) 
76

>  <SMILES>  (83) 
CS(=O)(=O)[N-]c1cccc(C(=O)Nc2cccc(C(=O)[N-]S(=O)(=O)c3ccccc3)c2)c1

>  <Energy>  (83) 
58.98478055417468

>  <Genealogy>  (83) 
CS(=O)(=O)[N-]c1cccc(C(=O)Nc2cccc(C(=O)[N-]S(=O)(=O)c3ccccc3)c2)c1 (protonated)
CS(=O)(=O)[N-]c1cccc(C(=O)Nc2cccc(C(=O)[N-]S(=O)(=O)c3ccccc3)c2)c1 (3D coordinates assigned)
CS(=O)(=O)[N-]c1cccc(C(=O)Nc2cccc(C(=O)[N-]S(=O)(=O)c3ccccc3)c2)c1 (optimized conformer: 58.98478055417468 kcal/mol)

>  <smiles>  (83) 
CS(=O)(=O)Nc1cccc(C(=O)Nc2cccc(C(=O)NS(=O)(=O)c3ccccc3)c2)c1

>  <score_type>  (83) 
oracle

>  <origin>  (83) 
adg

>  <m_score__min__energy>  (83) 
-12.51

>  <m_primary>  (83) 
energy

$$$$
83:0
     RDKit          3D

 44 46  0  0  0  0  0  0  0  0999 V2000
   57.9960   27.9760   43.5080 O   0  0  0  0  0  0  0  0  0  0  0  0
   57.0810   28.6580   44.0410 C   0  0  0  0  0  0  0  0  0  0  0  0
   56.6260   29.9270   43.3930 C   0  0  0  0  0  0  0  0  0  0  0  0
   56.2640   30.9750   44.4450 C   0  0  0  0  0  0  0  0  0  0  0  0
   57.4380   31.2840   45.2640 N   0  0  0  0  0  0  0  0  0  0  0  0
   57.9060   32.9510   45.0920 S   0  0  0  0  0  0  0  0  0  0  0  0
   58.4950   33.1680   43.7250 O   0  0  0  0  0  0  0  0  0  0  0  0
   56.6860   33.8190   45.2260 O   0  0  0  0  0  0  0  0  0  0  0  0
   59.0750   33.4050   46.3310 C   0  0  0  0  0  0  0  0  0  0  0  0
   60.3840   33.7460   45.9650 C   0  0  0  0  0  0  0  0  0  0  0  0
   61.3160   34.1100   46.9450 C   0  0  0  0  0  0  0  0  0  0  0  0
   60.9420   34.1320   48.2920 C   0  0  0  0  0  0  0  0  0  0  0  0
   59.6330   33.8060   48.6590 C   0  0  0  0  0  0  0  0  0  0  0  0
   58.7000   33.4440   47.6830 C   0  0  0  0  0  0  0  0  0  0  0  0
   56.4360   28.2100   45.2390 N   0  0  0  0  0  0  0  0  0  0  0  0
   56.7770   27.0450   46.0070 C   0  0  0  0  0  0  0  0  0  0  0  0
   55.9380   25.9170   46.0290 C   0  0  0  0  0  0  0  0  0  0  0  0
   56.2740   24.8090   46.8060 C   0  0  0  0  0  0  0  0  0  0  0  0
   57.4480   24.8300   47.5530 C   0  0  0  0  0  0  0  0  0  0  0  0
   58.2660   25.9130   47.5060 N   0  0  0  0  0  0  0  0  0  0  0  0
   57.9810   27.0080   46.7460 C   0  0  0  0  0  0  0  0  0  0  0  0
   58.9310   28.1450   46.7620 C   0  0  0  0  0  0  0  0  0  0  0  0
   59.8820   28.2740   45.7350 C   0  0  0  0  0  0  0  0  0  0  0  0
   60.7780   29.3480   45.7310 C   0  0  0  0  0  0  0  0  0  0  0  0
   60.7240   30.3080   46.7450 C   0  0  0  0  0  0  0  0  0  0  0  0
   59.7700   30.2010   47.7590 C   0  0  0  0  0  0  0  0  0  0  0  0
   58.8710   29.1290   47.7650 C   0  0  0  0  0  0  0  0  0  0  0  0
   57.4349   30.3178   42.7583 H   0  0  0  0  0  0  0  0  0  0  0  0
   55.7331   29.7128   42.7873 H   0  0  0  0  0  0  0  0  0  0  0  0
   55.9175   31.8908   43.9437 H   0  0  0  0  0  0  0  0  0  0  0  0
   55.4655   30.5801   45.0903 H   0  0  0  0  0  0  0  0  0  0  0  0
   60.6801   33.7277   44.9058 H   0  0  0  0  0  0  0  0  0  0  0  0
   62.3425   34.3786   46.6549 H   0  0  0  0  0  0  0  0  0  0  0  0
   61.6775   34.4057   49.0628 H   0  0  0  0  0  0  0  0  0  0  0  0
   59.3366   33.8344   49.7179 H   0  0  0  0  0  0  0  0  0  0  0  0
   57.6705   33.1894   47.9750 H   0  0  0  0  0  0  0  0  0  0  0  0
   55.0143   25.9085   45.4318 H   0  0  0  0  0  0  0  0  0  0  0  0
   55.6174   23.9268   46.8283 H   0  0  0  0  0  0  0  0  0  0  0  0
   57.7138   23.9680   48.1825 H   0  0  0  0  0  0  0  0  0  0  0  0
   59.9218   27.5258   44.9296 H   0  0  0  0  0  0  0  0  0  0  0  0
   61.5257   29.4370   44.9291 H   0  0  0  0  0  0  0  0  0  0  0  0
   61.4335   31.1486   46.7444 H   0  0  0  0  0  0  0  0  0  0  0  0
   59.7252   30.9602   48.5538 H   0  0  0  0  0  0  0  0  0  0  0  0
   58.1130   29.0554   48.5587 H   0  0  0  0  0  0  0  0  0  0  0  0
  1  2  2  0
  2  3  1  0
  3  4  1  0
  4  5  1  0
  5  6  1  0
  6  7  2  0
  6  8  2  0
  6  9  1  0
  9 10  2  0
 10 11  1  0
 11 12  2  0
 12 13  1  0
 13 14  2  0
  2 15  1  0
 15 16  1  0
 16 17  2  0
 17 18  1  0
 18 19  2  0
 19 20  1  0
 20 21  2  0
 21 22  1  0
 22 23  2  0
 23 24  1  0
 24 25  2  0
 25 26  1  0
 26 27  2  0
 14  9  1  0
 21 16  1  0
 27 22  1  0
  3 28  1  0
  3 29  1  0
  4 30  1  0
  4 31  1  0
 10 32  1  0
 11 33  1  0
 12 34  1  0
 13 35  1  0
 14 36  1  0
 17 37  1  0
 18 38  1  0
 19 39  1  0
 23 40  1  0
 24 41  1  0
 25 42  1  0
 26 43  1  0
 27 44  1  0
M  CHG  2   5  -1  15  -1
M  END
>  <UniqueID>  (84) 
77

>  <SMILES>  (84) 
O=C(CC[N-]S(=O)(=O)c1ccccc1)[N-]c1cccnc1-c1ccccc1

>  <Energy>  (84) 
50.65774618836956

>  <Genealogy>  (84) 
O=C(CC[N-]S(=O)(=O)c1ccccc1)[N-]c1cccnc1-c1ccccc1 (protonated)
O=C(CC[N-]S(=O)(=O)c1ccccc1)[N-]c1cccnc1-c1ccccc1 (3D coordinates assigned)
O=C(CC[N-]S(=O)(=O)c1ccccc1)[N-]c1cccnc1-c1ccccc1 (optimized conformer: 50.65774618836956 kcal/mol)

>  <smiles>  (84) 
O=C(CCNS(=O)(=O)c1ccccc1)Nc1cccnc1-c1ccccc1

>  <score_type>  (84) 
oracle

>  <origin>  (84) 
adg

>  <m_score__min__energy>  (84) 
-11.779999999999999

>  <m_primary>  (84) 
energy

$$$$
84:0
     RDKit          3D

 39 41  0  0  0  0  0  0  0  0999 V2000
   54.9920   29.3300   44.1250 O   0  0  0  0  0  0  0  0  0  0  0  0
   56.3400   29.9750   44.2800 S   0  0  0  0  0  0  0  0  0  0  0  0
   57.0180   29.9990   42.9390 O   0  0  0  0  0  0  0  0  0  0  0  0
   56.1320   31.6020   44.8440 N   0  0  0  0  0  0  0  0  0  0  0  0
   57.1960   32.5250   45.1120 C   0  0  0  0  0  0  0  0  0  0  0  0
   57.4040   33.0880   46.3820 C   0  0  0  0  0  0  0  0  0  0  0  0
   58.4540   33.9870   46.5820 C   0  0  0  0  0  0  0  0  0  0  0  0
   59.2900   34.3120   45.5140 C   0  0  0  0  0  0  0  0  0  0  0  0
   59.0790   33.7560   44.2910 N   0  0  0  0  0  0  0  0  0  0  0  0
   58.0630   32.8790   44.0700 C   0  0  0  0  0  0  0  0  0  0  0  0
   57.2820   29.0530   45.4510 C   0  0  0  0  0  0  0  0  0  0  0  0
   58.5450   29.5090   45.8580 C   0  0  0  0  0  0  0  0  0  0  0  0
   59.2920   28.7960   46.8050 C   0  0  0  0  0  0  0  0  0  0  0  0
   60.5720   29.3110   47.1950 N   0  0  0  0  0  0  0  0  0  0  0  0
   60.9700   30.9930   47.3430 S   0  0  0  0  0  0  0  0  0  0  0  0
   60.5020   31.7200   46.1140 O   0  0  0  0  0  0  0  0  0  0  0  0
   62.4590   31.1370   47.4960 O   0  0  0  0  0  0  0  0  0  0  0  0
   60.1780   31.6860   48.7630 C   0  0  0  0  0  0  0  0  0  0  0  0
   59.2530   30.9170   49.4890 C   0  0  0  0  0  0  0  0  0  0  0  0
   58.6200   31.4480   50.6170 C   0  0  0  0  0  0  0  0  0  0  0  0
   57.4690   30.4750   51.5150 Cl  0  0  0  0  0  0  0  0  0  0  0  0
   58.9050   32.7500   51.0300 C   0  0  0  0  0  0  0  0  0  0  0  0
   59.8220   33.5250   50.3170 C   0  0  0  0  0  0  0  0  0  0  0  0
   60.4620   33.0020   49.1860 C   0  0  0  0  0  0  0  0  0  0  0  0
   61.6110   34.0280   48.3330 Cl  0  0  0  0  0  0  0  0  0  0  0  0
   58.7680   27.6080   47.3440 C   0  0  0  0  0  0  0  0  0  0  0  0
   57.5130   27.1470   46.9380 C   0  0  0  0  0  0  0  0  0  0  0  0
   56.7690   27.8640   45.9960 C   0  0  0  0  0  0  0  0  0  0  0  0
   55.5220   27.3870   45.6070 O   0  0  0  0  0  0  0  0  0  0  0  0
   56.7407   32.8212   47.2180 H   0  0  0  0  0  0  0  0  0  0  0  0
   58.6201   34.4347   47.5730 H   0  0  0  0  0  0  0  0  0  0  0  0
   60.1204   35.0183   45.6610 H   0  0  0  0  0  0  0  0  0  0  0  0
   57.9215   32.4459   43.0688 H   0  0  0  0  0  0  0  0  0  0  0  0
   58.9530   30.4361   45.4291 H   0  0  0  0  0  0  0  0  0  0  0  0
   59.0252   29.8899   49.1677 H   0  0  0  0  0  0  0  0  0  0  0  0
   58.4069   33.1663   51.9180 H   0  0  0  0  0  0  0  0  0  0  0  0
   60.0429   34.5514   50.6451 H   0  0  0  0  0  0  0  0  0  0  0  0
   59.3473   27.0401   48.0870 H   0  0  0  0  0  0  0  0  0  0  0  0
   57.1085   26.2158   47.3614 H   0  0  0  0  0  0  0  0  0  0  0  0
  1  2  2  0
  2  3  2  0
  2  4  1  0
  4  5  1  0
  5  6  2  0
  6  7  1  0
  7  8  2  0
  8  9  1  0
  9 10  2  0
  2 11  1  0
 11 12  2  0
 12 13  1  0
 13 14  1  0
 14 15  1  0
 15 16  2  0
 15 17  2  0
 15 18  1  0
 18 19  2  0
 19 20  1  0
 20 21  1  0
 20 22  2  0
 22 23  1  0
 23 24  2  0
 24 25  1  0
 13 26  2  0
 26 27  1  0
 27 28  2  0
 28 29  1  0
 10  5  1  0
 28 11  1  0
 24 18  1  0
  6 30  1  0
  7 31  1  0
  8 32  1  0
 10 33  1  0
 12 34  1  0
 19 35  1  0
 22 36  1  0
 23 37  1  0
 26 38  1  0
 27 39  1  0
M  CHG  3   4  -1  14  -1  29  -1
M  END
>  <UniqueID>  (85) 
78

>  <SMILES>  (85) 
O=S(=O)([N-]c1cccnc1)c1cc([N-]S(=O)(=O)c2cc(Cl)ccc2Cl)ccc1[O-]

>  <Energy>  (85) 
52.21779897387154

>  <Genealogy>  (85) 
O=S(=O)([N-]c1cccnc1)c1cc([N-]S(=O)(=O)c2cc(Cl)ccc2Cl)ccc1[O-] (protonated)
O=S(=O)([N-]c1cccnc1)c1cc([N-]S(=O)(=O)c2cc(Cl)ccc2Cl)ccc1[O-] (3D coordinates assigned)
O=S(=O)([N-]c1cccnc1)c1cc([N-]S(=O)(=O)c2cc(Cl)ccc2Cl)ccc1[O-] (optimized conformer: 52.21779897387154 kcal/mol)

>  <smiles>  (85) 
O=S(=O)(Nc1cccnc1)c1cc(NS(=O)(=O)c2cc(Cl)ccc2Cl)ccc1O

>  <score_type>  (85) 
oracle

>  <origin>  (85) 
adg

>  <m_score__min__energy>  (85) 
-14.44

>  <m_primary>  (85) 
energy

$$$$
85:0
     RDKit          3D

 34 36  0  0  0  0  0  0  0  0999 V2000
   56.0310   21.3470   43.3750 O   0  0  0  0  0  0  0  0  0  0  0  0
   56.4930   22.3620   43.9570 C   0  0  0  0  0  0  0  0  0  0  0  0
   56.8550   23.5140   43.1980 N   0  0  0  0  0  0  0  0  0  0  0  0
   57.3510   24.6940   43.8340 C   0  0  0  0  0  0  0  0  0  0  0  0
   57.6660   25.6830   43.1180 O   0  0  0  0  0  0  0  0  0  0  0  0
   57.4750   24.7520   45.3140 C   0  0  0  0  0  0  0  0  0  0  0  0
   57.8650   25.9040   45.9050 C   0  0  0  0  0  0  0  0  0  0  0  0
   57.4290   27.2590   45.4990 C   0  0  0  0  0  0  0  0  0  0  0  0
   56.0820   27.6120   45.5820 C   0  0  0  0  0  0  0  0  0  0  0  0
   55.1300   26.6900   46.0000 O   0  0  0  0  0  0  0  0  0  0  0  0
   55.6930   28.8650   45.2460 N   0  0  0  0  0  0  0  0  0  0  0  0
   56.5840   29.8030   44.8380 C   0  0  0  0  0  0  0  0  0  0  0  0
   56.1600   30.9500   44.5330 O   0  0  0  0  0  0  0  0  0  0  0  0
   57.9230   29.5020   44.7620 N   0  0  0  0  0  0  0  0  0  0  0  0
   58.9000   30.5350   44.3590 C   0  0  0  0  0  0  0  0  0  0  0  0
   58.6480   31.8200   45.1060 C   0  0  0  0  0  0  0  0  0  0  0  0
   58.7090   31.8460   46.5100 C   0  0  0  0  0  0  0  0  0  0  0  0
   58.5040   33.0450   47.2010 C   0  0  0  0  0  0  0  0  0  0  0  0
   58.2440   34.2240   46.4980 C   0  0  0  0  0  0  0  0  0  0  0  0
   58.1850   34.2070   45.1020 C   0  0  0  0  0  0  0  0  0  0  0  0
   58.3890   33.0110   44.4070 C   0  0  0  0  0  0  0  0  0  0  0  0
   58.3540   28.2430   45.1050 C   0  0  0  0  0  0  0  0  0  0  0  0
   59.5840   27.9600   45.0730 O   0  0  0  0  0  0  0  0  0  0  0  0
   57.1770   23.4980   46.0640 C   0  0  0  0  0  0  0  0  0  0  0  0
   57.4060   23.3980   47.2980 O   0  0  0  0  0  0  0  0  0  0  0  0
   56.6630   22.3580   45.3720 N   0  0  0  0  0  0  0  0  0  0  0  0
   58.5606   25.8282   46.7538 H   0  0  0  0  0  0  0  0  0  0  0  0
   59.9164   30.1792   44.5834 H   0  0  0  0  0  0  0  0  0  0  0  0
   58.7938   30.7237   43.2805 H   0  0  0  0  0  0  0  0  0  0  0  0
   58.9185   30.9209   47.0670 H   0  0  0  0  0  0  0  0  0  0  0  0
   58.5476   33.0595   48.3000 H   0  0  0  0  0  0  0  0  0  0  0  0
   58.0857   35.1659   47.0436 H   0  0  0  0  0  0  0  0  0  0  0  0
   57.9779   35.1353   44.5494 H   0  0  0  0  0  0  0  0  0  0  0  0
   58.3465   33.0025   43.3079 H   0  0  0  0  0  0  0  0  0  0  0  0
  1  2  2  0
  2  3  1  0
  3  4  1  0
  4  5  2  0
  4  6  1  0
  6  7  2  3
  7  8  1  0
  8  9  2  0
  9 10  1  0
  9 11  1  0
 11 12  1  0
 12 13  2  0
 12 14  1  0
 14 15  1  0
 15 16  1  0
 16 17  2  0
 17 18  1  0
 18 19  2  0
 19 20  1  0
 20 21  2  0
 14 22  1  0
 22 23  2  0
  6 24  1  0
 24 25  2  0
 24 26  1  0
 26  2  1  0
 22  8  1  0
 21 16  1  0
  7 27  1  0
 15 28  1  0
 15 29  1  0
 17 30  1  0
 18 31  1  0
 19 32  1  0
 20 33  1  0
 21 34  1  0
M  CHG  4   3  -1  10  -1  11  -1  26  -1
M  END
>  <UniqueID>  (86) 
79

>  <SMILES>  (86) 
O=C1[N-]C(=O)C(=Cc2c([O-])[n-]c(=O)n(Cc3ccccc3)c2=O)C(=O)[N-]1

>  <Energy>  (86) 
50.583076468598215

>  <Genealogy>  (86) 
O=C1[N-]C(=O)C(=Cc2c([O-])[n-]c(=O)n(Cc3ccccc3)c2=O)C(=O)[N-]1 (protonated)
O=C1[N-]C(=O)C(=Cc2c([O-])[n-]c(=O)n(Cc3ccccc3)c2=O)C(=O)[N-]1 (3D coordinates assigned)
O=C1[N-]C(=O)C(=Cc2c([O-])[n-]c(=O)n(Cc3ccccc3)c2=O)C(=O)[N-]1 (nonaromatic ring conformer: 50.583076468598215 kcal/mol)

>  <smiles>  (86) 
O=C1NC(=O)C(=Cc2c(O)[nH]c(=O)n(Cc3ccccc3)c2=O)C(=O)N1

>  <score_type>  (86) 
oracle

>  <origin>  (86) 
adg

>  <m_score__min__energy>  (86) 
-16.260000000000002

>  <m_primary>  (86) 
energy

$$$$
86:0
     RDKit          3D

 35 37  0  0  0  0  0  0  0  0999 V2000
   58.2931   33.4682   41.6644 H   0  0  0  0  0  0  0  0  0  0  0  0
   57.8850   32.7230   42.3630 C   0  0  0  0  0  0  0  0  0  0  0  0
   57.8750   32.9770   43.6980 N   0  0  0  0  0  0  0  0  0  0  0  0
   57.4000   32.0740   44.6030 C   0  0  0  0  0  0  0  0  0  0  0  0
   57.3750   32.3730   45.9720 O   0  0  0  0  0  0  0  0  0  0  0  0
   58.3750   33.0690   46.6670 C   0  0  0  0  0  0  0  0  0  0  0  0
   58.9050   34.2320   46.0910 C   0  0  0  0  0  0  0  0  0  0  0  0
   58.5393   34.5724   45.1110 H   0  0  0  0  0  0  0  0  0  0  0  0
   59.8960   34.9620   46.7550 C   0  0  0  0  0  0  0  0  0  0  0  0
   60.3133   35.8686   46.2924 H   0  0  0  0  0  0  0  0  0  0  0  0
   60.3570   34.5410   48.0060 C   0  0  0  0  0  0  0  0  0  0  0  0
   61.1413   35.1123   48.5241 H   0  0  0  0  0  0  0  0  0  0  0  0
   59.8210   33.3940   48.5980 C   0  0  0  0  0  0  0  0  0  0  0  0
   60.1791   33.0669   49.5853 H   0  0  0  0  0  0  0  0  0  0  0  0
   58.8290   32.6610   47.9360 C   0  0  0  0  0  0  0  0  0  0  0  0
   58.4029   31.7637   48.4085 H   0  0  0  0  0  0  0  0  0  0  0  0
   56.8930   30.8440   44.1580 C   0  0  0  0  0  0  0  0  0  0  0  0
   56.3570   29.9180   45.1160 N   0  0  0  0  0  0  0  0  0  0  0  0
   57.0280   28.7730   45.6520 C   0  0  0  0  0  0  0  0  0  0  0  0
   57.8230   28.9330   46.6140 O   0  0  0  0  0  0  0  0  0  0  0  0
   56.8400   27.4790   45.0550 N   0  0  0  0  0  0  0  0  0  0  0  0
   56.8880   26.3220   45.6510 C   0  0  0  0  0  0  0  0  0  0  0  0
   58.0760   25.6870   45.8700 N   0  0  0  0  0  0  0  0  0  0  0  0
   58.1450   24.4810   46.4930 C   0  0  0  0  0  0  0  0  0  0  0  0
   59.1214   23.9999   46.6515 H   0  0  0  0  0  0  0  0  0  0  0  0
   56.9790   23.8520   46.9320 C   0  0  0  0  0  0  0  0  0  0  0  0
   57.0293   22.8755   47.4359 H   0  0  0  0  0  0  0  0  0  0  0  0
   55.7480   24.4770   46.7240 C   0  0  0  0  0  0  0  0  0  0  0  0
   54.8202   23.9941   47.0645 H   0  0  0  0  0  0  0  0  0  0  0  0
   55.6970   25.7180   46.0820 C   0  0  0  0  0  0  0  0  0  0  0  0
   54.4690   26.3400   45.8770 O   0  0  0  0  0  0  0  0  0  0  0  0
   56.8720   30.5790   42.7780 C   0  0  0  0  0  0  0  0  0  0  0  0
   56.4564   29.6307   42.4066 H   0  0  0  0  0  0  0  0  0  0  0  0
   57.3780   31.5180   41.8790 C   0  0  0  0  0  0  0  0  0  0  0  0
   57.3769   31.3097   40.7989 H   0  0  0  0  0  0  0  0  0  0  0  0
  1  2  1  0
  2  3  2  0
  3  4  1  0
  4  5  1  0
  5  6  1  0
  6  7  2  0
  7  8  1  0
  7  9  1  0
  9 10  1  0
  9 11  2  0
 11 12  1  0
 11 13  1  0
 13 14  1  0
 13 15  2  0
 15 16  1  0
  4 17  2  0
 17 18  1  0
 18 19  1  0
 19 20  2  0
 19 21  1  0
 21 22  2  0
 22 23  1  0
 23 24  1  0
 24 25  1  0
 24 26  2  0
 26 27  1  0
 26 28  1  0
 28 29  1  0
 28 30  2  0
 30 31  1  0
 17 32  1  0
 32 33  1  0
 32 34  2  0
 34 35  1  0
 34  2  1  0
 15  6  1  0
 30 22  1  0
M  CHG  3  18  -1  23  -1  31  -1
M  END
>  <UniqueID>  (87) 
80

>  <SMILES>  (87) 
O=C(/N=c1\[n-]cccc1[O-])[N-]c1cccnc1Oc1ccccc1

>  <Energy>  (87) 
50.741527457858965

>  <Genealogy>  (87) 
O=C(N=c1[n-]cccc1[O-])[N-]c1cccnc1Oc1ccccc1 (protonated)
O=C(/N=c1\[n-]cccc1[O-])[N-]c1cccnc1Oc1ccccc1 (cis-trans isomerization)
O=C(/N=c1\[n-]cccc1[O-])[N-]c1cccnc1Oc1ccccc1 (3D coordinates assigned)
O=C(/N=c1\[n-]cccc1[O-])[N-]c1cccnc1Oc1ccccc1 (optimized conformer: 50.741527457858965 kcal/mol)

>  <smiles>  (87) 
O=C(N=c1[nH]cccc1O)Nc1cccnc1Oc1ccccc1

>  <score_type>  (87) 
oracle

>  <origin>  (87) 
adg

>  <m_score__min__energy>  (87) 
-13.5

>  <m_primary>  (87) 
energy

$$$$
87:0
     RDKit          3D

 26 27  0  0  0  0  0  0  0  0999 V2000
   58.5110   21.8460   45.0550 C   0  0  0  0  0  0  0  0  0  0  0  0
   57.3620   22.5590   45.6880 C   0  0  0  0  0  0  0  0  0  0  0  0
   56.6720   23.5500   45.0860 N   0  0  0  0  0  0  0  0  0  0  0  0
   55.7530   23.9750   45.9860 C   0  0  0  0  0  0  0  0  0  0  0  0
   54.8100   25.0660   45.6800 C   0  0  0  0  0  0  0  0  0  0  0  0
   53.7410   24.7940   45.0700 O   0  0  0  0  0  0  0  0  0  0  0  0
   55.1270   26.4250   46.0040 N   0  0  0  0  0  0  0  0  0  0  0  0
   56.3760   27.0940   45.7720 C   0  0  0  0  0  0  0  0  0  0  0  0
   57.6110   26.4770   46.0480 C   0  0  0  0  0  0  0  0  0  0  0  0
   58.8070   27.1490   45.7860 C   0  0  0  0  0  0  0  0  0  0  0  0
   58.7860   28.4330   45.2360 C   0  0  0  0  0  0  0  0  0  0  0  0
   57.5650   29.0450   44.9350 C   0  0  0  0  0  0  0  0  0  0  0  0
   57.5580   30.6540   44.2280 Cl  0  0  0  0  0  0  0  0  0  0  0  0
   56.3620   28.3740   45.1960 C   0  0  0  0  0  0  0  0  0  0  0  0
   55.1480   28.9810   44.8890 O   0  0  0  0  0  0  0  0  0  0  0  0
   55.8730   23.2470   47.1670 C   0  0  0  0  0  0  0  0  0  0  0  0
   55.1270   23.3450   48.3400 O   0  0  0  0  0  0  0  0  0  0  0  0
   56.9000   22.3610   46.9700 C   0  0  0  0  0  0  0  0  0  0  0  0
   57.3820   21.4380   47.8900 O   0  0  0  0  0  0  0  0  0  0  0  0
   59.1668   21.4391   45.8388 H   0  0  0  0  0  0  0  0  0  0  0  0
   58.1328   21.0237   44.4299 H   0  0  0  0  0  0  0  0  0  0  0  0
   59.0799   22.5500   44.4299 H   0  0  0  0  0  0  0  0  0  0  0  0
   57.6341   25.4621   46.4715 H   0  0  0  0  0  0  0  0  0  0  0  0
   59.7686   26.6657   46.0135 H   0  0  0  0  0  0  0  0  0  0  0  0
   59.7299   28.9627   45.0397 H   0  0  0  0  0  0  0  0  0  0  0  0
   55.2390   22.7140   49.1200 H   0  0  0  0  0  0  0  0  0  0  0  0
  1  2  1  0
  2  3  1  0
  3  4  1  0
  4  5  1  0
  5  6  2  0
  5  7  1  0
  7  8  1  0
  8  9  2  0
  9 10  1  0
 10 11  2  0
 11 12  1  0
 12 13  1  0
 12 14  2  0
 14 15  1  0
  4 16  2  0
 16 17  1  0
 16 18  1  0
 18 19  1  0
 18  2  2  0
 14  8  1  0
  1 20  1  0
  1 21  1  0
  1 22  1  0
  9 23  1  0
 10 24  1  0
 11 25  1  0
 17 26  1  0
M  CHG  4   3  -1   7  -1  15  -1  19  -1
M  END
>  <UniqueID>  (88) 
81

>  <SMILES>  (88) 
Cc1[n-]c(C(=O)[N-]c2cccc(Cl)c2[O-])c(O)c1[O-]

>  <Energy>  (88) 
58.61248212004478

>  <Genealogy>  (88) 
Cc1[n-]c(C(=O)[N-]c2cccc(Cl)c2[O-])c(O)c1[O-] (protonated)
Cc1[n-]c(C(=O)[N-]c2cccc(Cl)c2[O-])c(O)c1[O-] (3D coordinates assigned)
Cc1[n-]c(C(=O)[N-]c2cccc(Cl)c2[O-])c(O)c1[O-] (optimized conformer: 58.61248212004478 kcal/mol)

>  <smiles>  (88) 
Cc1[nH]c(C(=O)Nc2cccc(Cl)c2O)c(O)c1O

>  <score_type>  (88) 
oracle

>  <origin>  (88) 
adg

>  <m_score__min__energy>  (88) 
-15.25

>  <m_primary>  (88) 
energy

$$$$
88:0
     RDKit          3D

 52 55  0  0  0  0  0  0  0  0999 V2000
   59.7540   34.2210   49.3030 C   0  0  0  0  0  0  0  0  0  0  0  0
   59.2210   34.8890   48.1210 N   0  0  0  0  0  0  0  0  0  0  0  0
   58.8430   34.1920   46.9210 C   0  0  0  0  0  0  0  0  0  0  0  0
   59.3090   34.6710   45.6670 C   0  0  0  0  0  0  0  0  0  0  0  0
   59.0040   33.9910   44.4730 C   0  0  0  0  0  0  0  0  0  0  0  0
   58.2160   32.8490   44.5690 C   0  0  0  0  0  0  0  0  0  0  0  0
   57.8310   31.9020   43.6560 C   0  0  0  0  0  0  0  0  0  0  0  0
   58.1270   31.8930   42.4310 O   0  0  0  0  0  0  0  0  0  0  0  0
   57.1450   30.9250   44.3000 N   0  0  0  0  0  0  0  0  0  0  0  0
   56.7680   29.6020   43.7810 C   0  0  1  0  0  0  0  0  0  0  0  0
   56.2580   29.6890   42.3390 C   0  0  0  0  0  0  0  0  0  0  0  0
   57.9430   28.6110   43.9110 C   0  0  0  0  0  0  0  0  0  0  0  0
   58.6180   28.7920   45.1940 N   0  0  0  0  0  0  0  0  0  0  0  0
   59.6860   29.5810   45.4180 C   0  0  0  0  0  0  0  0  0  0  0  0
   59.7930   29.7280   46.7880 C   0  0  0  0  0  0  0  0  0  0  0  0
   60.6780   30.6670   47.5200 C   0  0  0  0  0  0  0  0  0  0  0  0
   60.9810   30.4540   48.8770 C   0  0  0  0  0  0  0  0  0  0  0  0
   61.8590   31.3070   49.5510 C   0  0  0  0  0  0  0  0  0  0  0  0
   62.4400   32.3920   48.8860 C   0  0  0  0  0  0  0  0  0  0  0  0
   63.5510   33.4510   49.7460 S   0  0  0  0  0  0  0  0  0  0  0  0
   63.7300   32.8850   51.4220 C   0  0  0  0  0  0  0  0  0  0  0  0
   63.0120   34.8540   49.7420 O   0  0  0  0  0  0  0  0  0  0  0  0
   64.8950   33.4470   49.0750 O   0  0  0  0  0  0  0  0  0  0  0  0
   62.1410   32.6140   47.5360 C   0  0  0  0  0  0  0  0  0  0  0  0
   61.2670   31.7590   46.8570 C   0  0  0  0  0  0  0  0  0  0  0  0
   58.8020   28.9970   47.3420 N   0  0  0  0  0  0  0  0  0  0  0  0
   58.0900   28.4600   46.3620 N   0  0  0  0  0  0  0  0  0  0  0  0
   57.1020   31.2130   45.6000 N   0  0  0  0  0  0  0  0  0  0  0  0
   57.7450   32.3840   45.7660 C   0  0  0  0  0  0  0  0  0  0  0  0
   58.0390   33.0250   46.9660 C   0  0  0  0  0  0  0  0  0  0  0  0
   59.3638   34.7100   50.2078 H   0  0  0  0  0  0  0  0  0  0  0  0
   59.4480   33.1644   49.2963 H   0  0  0  0  0  0  0  0  0  0  0  0
   60.8521   34.2848   49.2963 H   0  0  0  0  0  0  0  0  0  0  0  0
   59.1440   35.9320   48.1460 H   0  0  0  0  0  0  0  0  0  0  0  0
   59.9171   35.5868   45.6288 H   0  0  0  0  0  0  0  0  0  0  0  0
   59.3747   34.3491   43.5012 H   0  0  0  0  0  0  0  0  0  0  0  0
   55.9368   29.2209   44.3924 H   0  0  0  0  0  0  0  0  0  0  0  0
   55.1737   29.8740   42.3441 H   0  0  0  0  0  0  0  0  0  0  0  0
   56.7681   30.5131   41.8188 H   0  0  0  0  0  0  0  0  0  0  0  0
   56.4660   28.7424   41.8188 H   0  0  0  0  0  0  0  0  0  0  0  0
   57.5593   27.5822   43.8445 H   0  0  0  0  0  0  0  0  0  0  0  0
   58.6610   28.7981   43.0989 H   0  0  0  0  0  0  0  0  0  0  0  0
   60.3460   30.0232   44.6572 H   0  0  0  0  0  0  0  0  0  0  0  0
   60.5230   29.6090   49.4120 H   0  0  0  0  0  0  0  0  0  0  0  0
   62.0945   31.1244   50.6099 H   0  0  0  0  0  0  0  0  0  0  0  0
   63.4721   33.7004   52.1139 H   0  0  0  0  0  0  0  0  0  0  0  0
   63.0580   32.0314   51.5945 H   0  0  0  0  0  0  0  0  0  0  0  0
   64.7706   32.5731   51.5945 H   0  0  0  0  0  0  0  0  0  0  0  0
   62.5956   33.4647   47.0073 H   0  0  0  0  0  0  0  0  0  0  0  0
   61.0384   31.9418   45.7966 H   0  0  0  0  0  0  0  0  0  0  0  0
   58.5520   28.9210   48.3520 H   0  0  0  0  0  0  0  0  0  0  0  0
   57.6583   32.6371   47.9224 H   0  0  0  0  0  0  0  0  0  0  0  0
  1  2  1  0
  2  3  1  0
  3  4  2  0
  4  5  1  0
  5  6  2  0
  6  7  1  0
  7  8  2  0
  7  9  1  0
  9 10  1  0
 10 11  1  0
 10 12  1  0
 12 13  1  0
 13 14  1  0
 14 15  2  0
 15 16  1  0
 16 17  2  0
 17 18  1  0
 18 19  2  0
 19 20  1  0
 20 21  1  0
 20 22  2  0
 20 23  2  0
 19 24  1  0
 24 25  2  0
 15 26  1  0
 26 27  2  0
  9 28  1  0
 28 29  1  0
 29 30  2  0
 30  3  1  0
 29  6  1  0
 27 13  1  0
 25 16  1  0
  1 31  1  0
  1 32  1  0
  1 33  1  0
  2 34  1  0
  4 35  1  0
  5 36  1  0
 10 37  1  1
 11 38  1  0
 11 39  1  0
 11 40  1  0
 12 41  1  0
 12 42  1  0
 14 43  1  0
 17 44  1  0
 18 45  1  0
 21 46  1  0
 21 47  1  0
 21 48  1  0
 24 49  1  0
 25 50  1  0
 26 51  1  0
 30 52  1  0
M  CHG  2  26   1  28  -1
M  END
>  <UniqueID>  (89) 
82

>  <SMILES>  (89) 
CNc1ccc2c(=O)n([C@@H](C)Cn3cc(-c4ccc(S(C)(=O)=O)cc4)[nH+]n3)[n-]c2c1

>  <Energy>  (89) 
121.47371149552993

>  <Genealogy>  (89) 
CNc1ccc2c(=O)n(C(C)Cn3cc(-c4ccc(S(C)(=O)=O)cc4)[nH+]n3)[n-]c2c1 (protonated)
CNc1ccc2c(=O)n([C@@H](C)Cn3cc(-c4ccc(S(C)(=O)=O)cc4)[nH+]n3)[n-]c2c1 (chirality)
CNc1ccc2c(=O)n([C@@H](C)Cn3cc(-c4ccc(S(C)(=O)=O)cc4)[nH+]n3)[n-]c2c1 (3D coordinates assigned)
CNc1ccc2c(=O)n([C@@H](C)Cn3cc(-c4ccc(S(C)(=O)=O)cc4)[nH+]n3)[n-]c2c1 (optimized conformer: 121.47371149552993 kcal/mol)

>  <smiles>  (89) 
CNc1ccc2c(=O)n(C(C)Cn3cc(-c4ccc(S(C)(=O)=O)cc4)nn3)[nH]c2c1

>  <score_type>  (89) 
oracle

>  <origin>  (89) 
adg

>  <m_score__min__energy>  (89) 
-8.4399999999999995

>  <m_primary>  (89) 
energy

$$$$
89:0
     RDKit          3D

 38 39  0  0  0  0  0  0  0  0999 V2000
   59.3730   29.1030   46.1920 C   0  0  0  0  0  0  0  0  0  0  0  0
   58.1360   28.2430   46.0840 C   0  0  0  0  0  0  0  0  0  0  0  0
   56.9950   28.6480   45.3420 C   0  0  0  0  0  0  0  0  0  0  0  0
   56.9260   29.9080   44.5680 C   0  0  0  0  0  0  0  0  0  0  0  0
   56.7820   29.8500   43.3150 O   0  0  0  0  0  0  0  0  0  0  0  0
   57.0630   31.1520   45.1950 O   0  0  0  0  0  0  0  0  0  0  0  0
   57.4400   32.3430   44.5050 C   0  0  0  0  0  0  0  0  0  0  0  0
   57.4920   33.5190   45.4410 C   0  0  0  0  0  0  0  0  0  0  0  0
   56.7520   33.5380   46.4600 O   0  0  0  0  0  0  0  0  0  0  0  0
   58.4150   34.5950   45.2410 N   0  0  0  0  0  0  0  0  0  0  0  0
   59.5620   34.8630   46.1010 C   0  0  0  0  0  0  0  0  0  0  0  0
   59.6590   33.8020   47.1990 C   0  0  0  0  0  0  0  0  0  0  0  0
   61.0520   33.2340   47.2910 C   0  0  0  0  0  0  0  0  0  0  0  0
   61.3040   32.1080   48.0930 C   0  0  0  0  0  0  0  0  0  0  0  0
   62.6020   31.5980   48.2030 C   0  0  0  0  0  0  0  0  0  0  0  0
   63.6560   32.2120   47.5210 C   0  0  0  0  0  0  0  0  0  0  0  0
   63.4140   33.3390   46.7300 C   0  0  0  0  0  0  0  0  0  0  0  0
   62.1190   33.8520   46.6170 C   0  0  0  0  0  0  0  0  0  0  0  0
   55.8950   27.8470   45.3320 N   0  0  0  0  0  0  0  0  0  0  0  0
   55.8650   26.6620   45.9880 C   0  0  0  0  0  0  0  0  0  0  0  0
   54.8290   25.9500   45.9530 O   0  0  0  0  0  0  0  0  0  0  0  0
   56.9520   26.2420   46.6770 N   0  0  0  0  0  0  0  0  0  0  0  0
   58.0790   26.9940   46.7390 C   0  0  0  0  0  0  0  0  0  0  0  0
   59.0670   26.5600   47.3900 O   0  0  0  0  0  0  0  0  0  0  0  0
   59.6124   29.2694   47.2527 H   0  0  0  0  0  0  0  0  0  0  0  0
   60.2164   28.5955   45.7010 H   0  0  0  0  0  0  0  0  0  0  0  0
   59.1910   30.0704   45.7010 H   0  0  0  0  0  0  0  0  0  0  0  0
   58.4332   32.1981   44.0550 H   0  0  0  0  0  0  0  0  0  0  0  0
   56.6890   32.5485   43.7279 H   0  0  0  0  0  0  0  0  0  0  0  0
   60.4810   34.8456   45.4968 H   0  0  0  0  0  0  0  0  0  0  0  0
   59.4376   35.8515   46.5673 H   0  0  0  0  0  0  0  0  0  0  0  0
   59.3943   34.2596   48.1637 H   0  0  0  0  0  0  0  0  0  0  0  0
   58.9663   32.9837   46.9529 H   0  0  0  0  0  0  0  0  0  0  0  0
   60.4778   31.6259   48.6362 H   0  0  0  0  0  0  0  0  0  0  0  0
   62.7933   30.7126   48.8271 H   0  0  0  0  0  0  0  0  0  0  0  0
   64.6758   31.8086   47.6066 H   0  0  0  0  0  0  0  0  0  0  0  0
   64.2447   33.8230   46.1954 H   0  0  0  0  0  0  0  0  0  0  0  0
   61.9343   34.7426   45.9984 H   0  0  0  0  0  0  0  0  0  0  0  0
  1  2  1  0
  2  3  2  0
  3  4  1  0
  4  5  2  0
  4  6  1  0
  6  7  1  0
  7  8  1  0
  8  9  2  0
  8 10  1  0
 10 11  1  0
 11 12  1  0
 12 13  1  0
 13 14  2  0
 14 15  1  0
 15 16  2  0
 16 17  1  0
 17 18  2  0
  3 19  1  0
 19 20  1  0
 20 21  2  0
 20 22  1  0
 22 23  1  0
 23 24  2  0
 23  2  1  0
 18 13  1  0
  1 25  1  0
  1 26  1  0
  1 27  1  0
  7 28  1  0
  7 29  1  0
 11 30  1  0
 11 31  1  0
 12 32  1  0
 12 33  1  0
 14 34  1  0
 15 35  1  0
 16 36  1  0
 17 37  1  0
 18 38  1  0
M  CHG  3  10  -1  19  -1  22  -1
M  END
>  <UniqueID>  (90) 
83

>  <SMILES>  (90) 
Cc1c(C(=O)OCC(=O)[N-]CCc2ccccc2)[n-]c(=O)[n-]c1=O

>  <Energy>  (90) 
37.37930648784744

>  <Genealogy>  (90) 
Cc1c(C(=O)OCC(=O)[N-]CCc2ccccc2)[n-]c(=O)[n-]c1=O (protonated)
Cc1c(C(=O)OCC(=O)[N-]CCc2ccccc2)[n-]c(=O)[n-]c1=O (3D coordinates assigned)
Cc1c(C(=O)OCC(=O)[N-]CCc2ccccc2)[n-]c(=O)[n-]c1=O (optimized conformer: 37.37930648784744 kcal/mol)

>  <smiles>  (90) 
Cc1c(C(=O)OCC(=O)NCCc2ccccc2)[nH]c(=O)[nH]c1=O

>  <score_type>  (90) 
oracle

>  <origin>  (90) 
adg

>  <m_score__min__energy>  (90) 
-13.6

>  <m_primary>  (90) 
energy

$$$$
90:0
     RDKit          3D

 45 47  0  0  0  0  0  0  0  0999 V2000
   58.9680   35.3150   47.4080 O   0  0  0  0  0  0  0  0  0  0  0  0
   59.9760   34.5580   47.4460 C   0  0  0  0  0  0  0  0  0  0  0  0
   60.8890   34.5870   48.6270 C   0  0  0  0  0  0  0  0  0  0  0  0
   61.6590   33.3500   48.6650 N   0  0  0  0  0  0  0  0  0  0  0  0
   63.0700   33.2920   48.4190 C   0  0  0  0  0  0  0  0  0  0  0  0
   63.5440   33.8210   47.3750 O   0  0  0  0  0  0  0  0  0  0  0  0
   63.9790   32.6240   49.3820 C   0  0  0  0  0  0  0  0  0  0  0  0
   65.3000   33.0890   49.5210 C   0  0  0  0  0  0  0  0  0  0  0  0
   66.1780   32.4780   50.4210 C   0  0  0  0  0  0  0  0  0  0  0  0
   65.7530   31.3930   51.1860 C   0  0  0  0  0  0  0  0  0  0  0  0
   64.4520   30.9080   51.0470 C   0  0  0  0  0  0  0  0  0  0  0  0
   63.5610   31.5110   50.1460 C   0  0  0  0  0  0  0  0  0  0  0  0
   62.2750   30.9900   50.0020 O   0  0  0  0  0  0  0  0  0  0  0  0
   60.1990   33.6020   46.4060 N   0  0  0  0  0  0  0  0  0  0  0  0
   59.2590   32.5950   46.0090 C   0  0  0  0  0  0  0  0  0  0  0  0
   59.5980   31.2300   46.0110 C   0  0  0  0  0  0  0  0  0  0  0  0
   58.6970   30.2800   45.5270 C   0  0  0  0  0  0  0  0  0  0  0  0
   57.4520   30.6770   45.0090 C   0  0  0  0  0  0  0  0  0  0  0  0
   56.5160   29.6820   44.4360 C   0  0  0  0  0  0  0  0  0  0  0  0
   56.2200   29.7440   43.2130 O   0  0  0  0  0  0  0  0  0  0  0  0
   55.9020   28.6650   45.2410 N   0  0  0  0  0  0  0  0  0  0  0  0
   56.5190   27.4440   45.6800 C   0  0  0  0  0  0  0  0  0  0  0  0
   57.9130   27.4080   45.8110 C   0  0  0  0  0  0  0  0  0  0  0  0
   58.5570   26.2350   46.2160 C   0  0  0  0  0  0  0  0  0  0  0  0
   57.8080   25.0930   46.5090 C   0  0  0  0  0  0  0  0  0  0  0  0
   56.4140   25.1250   46.4110 C   0  0  0  0  0  0  0  0  0  0  0  0
   55.7640   26.3000   46.0130 C   0  0  0  0  0  0  0  0  0  0  0  0
   54.3740   26.3230   45.9800 O   0  0  0  0  0  0  0  0  0  0  0  0
   57.1080   32.0380   45.0310 C   0  0  0  0  0  0  0  0  0  0  0  0
   58.0100   32.9900   45.5180 C   0  0  0  0  0  0  0  0  0  0  0  0
   61.5731   35.4443   48.5428 H   0  0  0  0  0  0  0  0  0  0  0  0
   60.2983   34.6843   49.5498 H   0  0  0  0  0  0  0  0  0  0  0  0
   65.6447   33.9407   48.9162 H   0  0  0  0  0  0  0  0  0  0  0  0
   67.2064   32.8542   50.5257 H   0  0  0  0  0  0  0  0  0  0  0  0
   66.4433   30.9191   51.8994 H   0  0  0  0  0  0  0  0  0  0  0  0
   64.1227   30.0473   51.6476 H   0  0  0  0  0  0  0  0  0  0  0  0
   61.5520   31.4880   49.4950 H   0  0  0  0  0  0  0  0  0  0  0  0
   60.5775   30.9096   46.3957 H   0  0  0  0  0  0  0  0  0  0  0  0
   58.9632   29.2130   45.5511 H   0  0  0  0  0  0  0  0  0  0  0  0
   58.5054   28.3091   45.5937 H   0  0  0  0  0  0  0  0  0  0  0  0
   59.6532   26.2115   46.3039 H   0  0  0  0  0  0  0  0  0  0  0  0
   58.3158   24.1672   46.8173 H   0  0  0  0  0  0  0  0  0  0  0  0
   55.8264   24.2256   46.6469 H   0  0  0  0  0  0  0  0  0  0  0  0
   56.1222   32.3581   44.6627 H   0  0  0  0  0  0  0  0  0  0  0  0
   57.7356   34.0552   45.5148 H   0  0  0  0  0  0  0  0  0  0  0  0
  1  2  2  0
  2  3  1  0
  3  4  1  0
  4  5  1  0
  5  6  2  0
  5  7  1  0
  7  8  2  0
  8  9  1  0
  9 10  2  0
 10 11  1  0
 11 12  2  0
 12 13  1  0
  2 14  1  0
 14 15  1  0
 15 16  2  0
 16 17  1  0
 17 18  2  0
 18 19  1  0
 19 20  2  0
 19 21  1  0
 21 22  1  0
 22 23  2  0
 23 24  1  0
 24 25  2  0
 25 26  1  0
 26 27  2  0
 27 28  1  0
 18 29  1  0
 29 30  2  0
 12  7  1  0
 30 15  1  0
 27 22  1  0
  3 31  1  0
  3 32  1  0
  8 33  1  0
  9 34  1  0
 10 35  1  0
 11 36  1  0
 13 37  1  0
 16 38  1  0
 17 39  1  0
 23 40  1  0
 24 41  1  0
 25 42  1  0
 26 43  1  0
 29 44  1  0
 30 45  1  0
M  CHG  4   4  -1  14  -1  21  -1  28  -1
M  END
>  <UniqueID>  (91) 
84

>  <SMILES>  (91) 
O=C(C[N-]C(=O)c1ccccc1O)[N-]c1ccc(C(=O)[N-]c2ccccc2[O-])cc1

>  <Energy>  (91) 
58.5424299629542

>  <Genealogy>  (91) 
O=C(C[N-]C(=O)c1ccccc1O)[N-]c1ccc(C(=O)[N-]c2ccccc2[O-])cc1 (protonated)
O=C(C[N-]C(=O)c1ccccc1O)[N-]c1ccc(C(=O)[N-]c2ccccc2[O-])cc1 (3D coordinates assigned)
O=C(C[N-]C(=O)c1ccccc1O)[N-]c1ccc(C(=O)[N-]c2ccccc2[O-])cc1 (optimized conformer: 58.5424299629542 kcal/mol)

>  <smiles>  (91) 
O=C(CNC(=O)c1ccccc1O)Nc1ccc(C(=O)Nc2ccccc2O)cc1

>  <score_type>  (91) 
oracle

>  <origin>  (91) 
adg

>  <m_score__min__energy>  (91) 
-15.15

>  <m_primary>  (91) 
energy

$$$$
91:0
     RDKit          3D

 54 57  0  0  0  0  0  0  0  0999 V2000
   56.7930   30.2430   43.9840 C   0  0  0  0  0  0  0  0  0  0  0  0
   57.2640   30.7070   45.2450 O   0  0  0  0  0  0  0  0  0  0  0  0
   57.8320   31.9730   45.4670 C   0  0  0  0  0  0  0  0  0  0  0  0
   57.1100   33.1630   45.2460 C   0  0  0  0  0  0  0  0  0  0  0  0
   57.7000   34.4040   45.4920 C   0  0  0  0  0  0  0  0  0  0  0  0
   59.0120   34.4760   45.9610 C   0  0  0  0  0  0  0  0  0  0  0  0
   59.7400   33.3050   46.1840 C   0  0  0  0  0  0  0  0  0  0  0  0
   59.1640   32.0500   45.9290 C   0  0  0  0  0  0  0  0  0  0  0  0
   59.9520   30.7940   46.2020 C   0  0  0  0  0  0  0  0  0  0  0  0
   59.0580   29.6850   46.5320 N   0  0  0  0  0  0  0  0  0  0  0  0
   59.4020   28.3280   46.2130 C   0  0  0  0  0  0  0  0  0  0  0  0
   60.5690   28.0590   45.8160 O   0  0  0  0  0  0  0  0  0  0  0  0
   58.4130   27.2340   46.3590 C   0  0  0  0  0  0  0  0  0  0  0  0
   58.8090   25.9510   46.7760 C   0  0  0  0  0  0  0  0  0  0  0  0
   57.8670   24.9280   46.9140 C   0  0  0  0  0  0  0  0  0  0  0  0
   56.5080   25.1670   46.6390 C   0  0  0  0  0  0  0  0  0  0  0  0
   55.5270   24.1680   46.7510 O   0  0  0  0  0  0  0  0  0  0  0  0
   55.7760   22.7620   46.7460 C   0  0  0  0  0  0  0  0  0  0  0  0
   55.9470   22.2520   48.1430 C   0  0  0  0  0  0  0  0  0  0  0  0
   57.1500   21.7350   48.5360 N   0  0  0  0  0  0  0  0  0  0  0  0
   57.3480   21.2680   49.8010 C   0  0  0  0  0  0  0  0  0  0  0  0
   58.4720   20.8000   50.1220 O   0  0  0  0  0  0  0  0  0  0  0  0
   56.2890   21.3240   50.7170 C   0  0  0  0  0  0  0  0  0  0  0  0
   56.2530   20.9130   52.0660 C   0  0  0  0  0  0  0  0  0  0  0  0
   57.4220   20.3110   52.7940 C   0  0  0  0  0  0  0  0  0  0  0  0
   54.9920   21.1360   52.6480 C   0  0  0  0  0  0  0  0  0  0  0  0
   54.5990   20.8260   54.0580 C   0  0  0  0  0  0  0  0  0  0  0  0
   53.9500   21.8290   51.5100 S   0  0  0  0  0  0  0  0  0  0  0  0
   55.0860   21.8460   50.2810 C   0  0  0  0  0  0  0  0  0  0  0  0
   54.9050   22.3050   49.0200 N   0  0  0  0  0  0  0  0  0  0  0  0
   56.1100   26.4500   46.2410 C   0  0  0  0  0  0  0  0  0  0  0  0
   54.7700   26.7110   45.9720 O   0  0  0  0  0  0  0  0  0  0  0  0
   57.0520   27.4750   46.1060 C   0  0  0  0  0  0  0  0  0  0  0  0
   56.0174   29.4789   44.1409 H   0  0  0  0  0  0  0  0  0  0  0  0
   56.3686   31.0856   43.4185 H   0  0  0  0  0  0  0  0  0  0  0  0
   57.6292   29.8060   43.4185 H   0  0  0  0  0  0  0  0  0  0  0  0
   56.0748   33.1136   44.8773 H   0  0  0  0  0  0  0  0  0  0  0  0
   57.1290   35.3275   45.3156 H   0  0  0  0  0  0  0  0  0  0  0  0
   59.4734   35.4555   46.1553 H   0  0  0  0  0  0  0  0  0  0  0  0
   60.7713   33.3663   46.5618 H   0  0  0  0  0  0  0  0  0  0  0  0
   60.5366   30.5328   45.3075 H   0  0  0  0  0  0  0  0  0  0  0  0
   60.6215   30.9749   47.0558 H   0  0  0  0  0  0  0  0  0  0  0  0
   58.1720   29.8790   47.0510 H   0  0  0  0  0  0  0  0  0  0  0  0
   59.8682   25.7510   46.9953 H   0  0  0  0  0  0  0  0  0  0  0  0
   58.1904   23.9285   47.2401 H   0  0  0  0  0  0  0  0  0  0  0  0
   54.9266   22.2462   46.2743 H   0  0  0  0  0  0  0  0  0  0  0  0
   56.7002   22.5676   46.1820 H   0  0  0  0  0  0  0  0  0  0  0  0
   57.2606   20.3941   53.8789 H   0  0  0  0  0  0  0  0  0  0  0  0
   57.5193   19.2507   52.5179 H   0  0  0  0  0  0  0  0  0  0  0  0
   58.3417   20.8476   52.5179 H   0  0  0  0  0  0  0  0  0  0  0  0
   55.2700   21.3553   54.7505 H   0  0  0  0  0  0  0  0  0  0  0  0
   53.5628   21.1526   54.2301 H   0  0  0  0  0  0  0  0  0  0  0  0
   54.6753   19.7422   54.2301 H   0  0  0  0  0  0  0  0  0  0  0  0
   56.7244   28.4792   45.7989 H   0  0  0  0  0  0  0  0  0  0  0  0
  1  2  1  0
  2  3  1  0
  3  4  2  0
  4  5  1  0
  5  6  2  0
  6  7  1  0
  7  8  2  0
  8  9  1  0
  9 10  1  0
 10 11  1  0
 11 12  2  0
 11 13  1  0
 13 14  2  0
 14 15  1  0
 15 16  2  0
 16 17  1  0
 17 18  1  0
 18 19  1  0
 19 20  2  0
 20 21  1  0
 21 22  2  0
 21 23  1  0
 23 24  1  0
 24 25  1  0
 24 26  2  0
 26 27  1  0
 26 28  1  0
 28 29  1  0
 29 30  1  0
 16 31  1  0
 31 32  1  0
 31 33  2  0
  8  3  1  0
 33 13  1  0
 30 19  1  0
 29 23  2  0
  1 34  1  0
  1 35  1  0
  1 36  1  0
  4 37  1  0
  5 38  1  0
  6 39  1  0
  7 40  1  0
  9 41  1  0
  9 42  1  0
 10 43  1  0
 14 44  1  0
 15 45  1  0
 18 46  1  0
 18 47  1  0
 25 48  1  0
 25 49  1  0
 25 50  1  0
 27 51  1  0
 27 52  1  0
 27 53  1  0
 33 54  1  0
M  CHG  2  30  -1  32  -1
M  END
>  <UniqueID>  (92) 
85

>  <SMILES>  (92) 
COc1ccccc1CNC(=O)c1ccc(OCc2nc(=O)c3c(C)c(C)sc3[n-]2)c([O-])c1

>  <Energy>  (92) 
91.29253763737086

>  <Genealogy>  (92) 
COc1ccccc1CNC(=O)c1ccc(OCc2nc(=O)c3c(C)c(C)sc3[n-]2)c([O-])c1 (protonated)
COc1ccccc1CNC(=O)c1ccc(OCc2nc(=O)c3c(C)c(C)sc3[n-]2)c([O-])c1 (3D coordinates assigned)
COc1ccccc1CNC(=O)c1ccc(OCc2nc(=O)c3c(C)c(C)sc3[n-]2)c([O-])c1 (optimized conformer: 91.29253763737086 kcal/mol)

>  <smiles>  (92) 
COc1ccccc1CNC(=O)c1ccc(OCc2nc(=O)c3c(C)c(C)sc3[nH]2)c(O)c1

>  <score_type>  (92) 
oracle

>  <origin>  (92) 
adg

>  <m_score__min__energy>  (92) 
-13.640000000000001

>  <m_primary>  (92) 
energy

$$$$
92:0
     RDKit          3D

 31 32  0  0  0  0  0  0  0  0999 V2000
   60.2620   34.5750   48.4080 C   0  0  0  0  0  0  0  0  0  0  0  0
   59.8880   34.3270   46.6870 S   0  0  0  0  0  0  0  0  0  0  0  0
   61.0520   33.6430   46.0260 O   0  0  0  0  0  0  0  0  0  0  0  0
   59.6410   35.6610   46.0410 O   0  0  0  0  0  0  0  0  0  0  0  0
   58.4720   33.3370   46.5580 N   0  0  0  0  0  0  0  0  0  0  0  0
   58.1180   32.5470   45.4140 C   0  0  0  0  0  0  0  0  0  0  0  0
   58.1190   33.0760   44.1110 C   0  0  0  0  0  0  0  0  0  0  0  0
   57.7500   32.2740   43.0280 C   0  0  0  0  0  0  0  0  0  0  0  0
   57.3840   30.9410   43.2330 C   0  0  0  0  0  0  0  0  0  0  0  0
   57.4000   30.3920   44.5220 C   0  0  0  0  0  0  0  0  0  0  0  0
   56.9980   29.0230   44.7090 N   0  0  0  0  0  0  0  0  0  0  0  0
   57.5020   28.1770   45.7580 C   0  0  0  0  0  0  0  0  0  0  0  0
   58.5370   28.5110   46.3960 O   0  0  0  0  0  0  0  0  0  0  0  0
   56.8330   26.8940   46.0670 C   0  0  0  0  0  0  0  0  0  0  0  0
   57.5130   25.8650   46.7360 C   0  0  0  0  0  0  0  0  0  0  0  0
   56.8300   24.6770   47.0050 C   0  0  0  0  0  0  0  0  0  0  0  0
   57.4130   23.7340   47.6020 O   0  0  0  0  0  0  0  0  0  0  0  0
   55.5350   24.5370   46.6220 N   0  0  0  0  0  0  0  0  0  0  0  0
   54.8880   25.5420   45.9770 C   0  0  0  0  0  0  0  0  0  0  0  0
   53.6870   25.3940   45.6310 O   0  0  0  0  0  0  0  0  0  0  0  0
   55.5350   26.7040   45.7060 N   0  0  0  0  0  0  0  0  0  0  0  0
   57.7520   31.2090   45.6120 C   0  0  0  0  0  0  0  0  0  0  0  0
   59.5027   34.0715   49.0245 H   0  0  0  0  0  0  0  0  0  0  0  0
   61.2536   34.1549   48.6320 H   0  0  0  0  0  0  0  0  0  0  0  0
   60.2609   35.6520   48.6320 H   0  0  0  0  0  0  0  0  0  0  0  0
   58.4109   34.1233   43.9441 H   0  0  0  0  0  0  0  0  0  0  0  0
   57.7476   32.6931   42.0110 H   0  0  0  0  0  0  0  0  0  0  0  0
   57.0816   30.3192   42.3775 H   0  0  0  0  0  0  0  0  0  0  0  0
   56.3770   28.5960   43.9860 H   0  0  0  0  0  0  0  0  0  0  0  0
   58.5620   25.9914   47.0421 H   0  0  0  0  0  0  0  0  0  0  0  0
   57.7398   30.7930   46.6303 H   0  0  0  0  0  0  0  0  0  0  0  0
  1  2  1  0
  2  3  2  0
  2  4  2  0
  2  5  1  0
  5  6  1  0
  6  7  2  0
  7  8  1  0
  8  9  2  0
  9 10  1  0
 10 11  1  0
 11 12  1  0
 12 13  2  0
 12 14  1  0
 14 15  2  0
 15 16  1  0
 16 17  2  0
 16 18  1  0
 18 19  1  0
 19 20  2  0
 19 21  1  0
 10 22  2  0
 22  6  1  0
 21 14  1  0
  1 23  1  0
  1 24  1  0
  1 25  1  0
  7 26  1  0
  8 27  1  0
  9 28  1  0
 11 29  1  0
 15 30  1  0
 22 31  1  0
M  CHG  3   5  -1  18  -1  21  -1
M  END
>  <UniqueID>  (93) 
86

>  <SMILES>  (93) 
CS(=O)(=O)[N-]c1cccc(NC(=O)c2cc(=O)[n-]c(=O)[n-]2)c1

>  <Energy>  (93) 
35.55010619828278

>  <Genealogy>  (93) 
CS(=O)(=O)[N-]c1cccc(NC(=O)c2cc(=O)[n-]c(=O)[n-]2)c1 (protonated)
CS(=O)(=O)[N-]c1cccc(NC(=O)c2cc(=O)[n-]c(=O)[n-]2)c1 (3D coordinates assigned)
CS(=O)(=O)[N-]c1cccc(NC(=O)c2cc(=O)[n-]c(=O)[n-]2)c1 (optimized conformer: 35.55010619828278 kcal/mol)

>  <smiles>  (93) 
CS(=O)(=O)Nc1cccc(NC(=O)c2cc(=O)[nH]c(=O)[nH]2)c1

>  <score_type>  (93) 
oracle

>  <origin>  (93) 
adg

>  <m_score__min__energy>  (93) 
-12.48

>  <m_primary>  (93) 
energy

$$$$
93:0
     RDKit          3D

 42 44  0  0  0  0  0  0  0  0999 V2000
   58.4330   28.9470   44.8650 O   0  0  0  0  0  0  0  0  0  0  0  0
   57.2020   29.1120   44.6520 C   0  0  0  0  0  0  0  0  0  0  0  0
   56.7450   30.2260   43.7680 C   0  0  0  0  0  0  0  0  0  0  0  0
   57.3790   31.5050   44.2070 C   0  0  0  0  0  0  0  0  0  0  0  0
   57.3250   31.9600   45.4770 N   0  0  0  0  0  0  0  0  0  0  0  0
   57.8730   33.1990   45.5960 C   0  0  0  0  0  0  0  0  0  0  0  0
   57.9080   33.9200   46.9070 C   0  0  0  0  0  0  0  0  0  0  0  0
   59.3040   33.4160   47.9210 S   0  0  0  0  0  0  0  0  0  0  0  0
   58.9120   32.2320   48.7610 O   0  0  0  0  0  0  0  0  0  0  0  0
   59.6380   34.5560   48.8410 O   0  0  0  0  0  0  0  0  0  0  0  0
   60.7370   33.0220   46.9960 N   0  0  0  0  0  0  0  0  0  0  0  0
   61.7920   34.0330   47.1810 C   0  0  0  0  0  0  0  0  0  0  0  0
   63.1470   33.4830   46.7110 C   0  0  0  0  0  0  0  0  0  0  0  0
   63.5710   32.3050   47.3850 O   0  0  0  0  0  0  0  0  0  0  0  0
   62.5180   31.5880   48.0130 C   0  0  0  0  0  0  0  0  0  0  0  0
   61.1950   31.6370   47.2270 C   0  0  0  0  0  0  0  0  0  0  0  0
   58.3640   33.7430   44.4110 C   0  0  0  0  0  0  0  0  0  0  0  0
   58.0840   32.6320   43.1800 S   0  0  0  0  0  0  0  0  0  0  0  0
   56.2360   28.2420   45.2510 N   0  0  0  0  0  0  0  0  0  0  0  0
   56.5340   26.9720   45.8460 C   0  0  0  0  0  0  0  0  0  0  0  0
   57.8710   26.6010   46.0260 C   0  0  0  0  0  0  0  0  0  0  0  0
   58.1860   25.3680   46.5970 C   0  0  0  0  0  0  0  0  0  0  0  0
   57.1530   24.5010   46.9650 C   0  0  0  0  0  0  0  0  0  0  0  0
   57.4180   23.3880   47.4870 O   0  0  0  0  0  0  0  0  0  0  0  0
   55.8590   24.8570   46.7500 N   0  0  0  0  0  0  0  0  0  0  0  0
   55.5250   26.0530   46.1950 C   0  0  0  0  0  0  0  0  0  0  0  0
   54.1870   26.3330   45.9470 O   0  0  0  0  0  0  0  0  0  0  0  0
   57.0348   30.0114   42.7288 H   0  0  0  0  0  0  0  0  0  0  0  0
   55.6509   30.3190   43.8329 H   0  0  0  0  0  0  0  0  0  0  0  0
   57.9811   35.0007   46.7153 H   0  0  0  0  0  0  0  0  0  0  0  0
   56.9862   33.6723   47.4537 H   0  0  0  0  0  0  0  0  0  0  0  0
   61.5417   34.9298   46.5953 H   0  0  0  0  0  0  0  0  0  0  0  0
   61.8604   34.2869   48.2491 H   0  0  0  0  0  0  0  0  0  0  0  0
   63.0720   33.2564   45.6372 H   0  0  0  0  0  0  0  0  0  0  0  0
   63.8943   34.2582   46.9358 H   0  0  0  0  0  0  0  0  0  0  0  0
   62.8243   30.5365   48.1159 H   0  0  0  0  0  0  0  0  0  0  0  0
   62.3358   32.0638   48.9879 H   0  0  0  0  0  0  0  0  0  0  0  0
   61.3420   31.1451   46.2542 H   0  0  0  0  0  0  0  0  0  0  0  0
   60.4276   31.1214   47.8230 H   0  0  0  0  0  0  0  0  0  0  0  0
   58.8485   34.7243   44.3004 H   0  0  0  0  0  0  0  0  0  0  0  0
   58.6760   27.2837   45.7163 H   0  0  0  0  0  0  0  0  0  0  0  0
   59.2359   25.0810   46.7560 H   0  0  0  0  0  0  0  0  0  0  0  0
  1  2  2  0
  2  3  1  0
  3  4  1  0
  4  5  2  0
  5  6  1  0
  6  7  1  0
  7  8  1  0
  8  9  2  0
  8 10  2  0
  8 11  1  0
 11 12  1  0
 12 13  1  0
 13 14  1  0
 14 15  1  0
 15 16  1  0
  6 17  2  0
 17 18  1  0
  2 19  1  0
 19 20  1  0
 20 21  1  0
 21 22  2  0
 22 23  1  0
 23 24  2  0
 23 25  1  0
 25 26  1  0
 26 27  1  0
 18  4  1  0
 26 20  2  0
 16 11  1  0
  3 28  1  0
  3 29  1  0
  7 30  1  0
  7 31  1  0
 12 32  1  0
 12 33  1  0
 13 34  1  0
 13 35  1  0
 15 36  1  0
 15 37  1  0
 16 38  1  0
 16 39  1  0
 17 40  1  0
 21 41  1  0
 22 42  1  0
M  CHG  3  19  -1  25  -1  27  -1
M  END
>  <UniqueID>  (94) 
87

>  <SMILES>  (94) 
O=C(Cc1nc(CS(=O)(=O)N2CCOCC2)cs1)[N-]c1ccc(=O)[n-]c1[O-]

>  <Energy>  (94) 
81.75676899811438

>  <Genealogy>  (94) 
O=C(Cc1nc(CS(=O)(=O)N2CCOCC2)cs1)[N-]c1ccc(=O)[n-]c1[O-] (protonated)
O=C(Cc1nc(CS(=O)(=O)N2CCOCC2)cs1)[N-]c1ccc(=O)[n-]c1[O-] (3D coordinates assigned)
O=C(Cc1nc(CS(=O)(=O)N2CCOCC2)cs1)[N-]c1ccc(=O)[n-]c1[O-] (nonaromatic ring conformer: 81.75676899811438 kcal/mol)

>  <smiles>  (94) 
O=C(Cc1nc(CS(=O)(=O)N2CCOCC2)cs1)Nc1ccc(=O)[nH]c1O

>  <score_type>  (94) 
oracle

>  <origin>  (94) 
adg

>  <m_score__min__energy>  (94) 
-17.219999999999999

>  <m_primary>  (94) 
energy

$$$$
94:0
     RDKit          3D

 52 54  0  0  0  0  0  0  0  0999 V2000
   59.7340   22.2000   44.3590 C   0  0  0  0  0  0  0  0  0  0  0  0
   59.1500   22.3050   45.6410 O   0  0  0  0  0  0  0  0  0  0  0  0
   57.7900   22.6700   45.5310 C   0  0  0  0  0  0  0  0  0  0  0  0
   57.6260   24.1580   45.6700 C   0  0  0  0  0  0  0  0  0  0  0  0
   56.3530   24.7380   45.7720 C   0  0  0  0  0  0  0  0  0  0  0  0
   56.2590   26.1280   45.8780 C   0  0  0  0  0  0  0  0  0  0  0  0
   55.1310   26.6840   45.9710 O   0  0  0  0  0  0  0  0  0  0  0  0
   57.3880   26.8840   45.8790 N   0  0  0  0  0  0  0  0  0  0  0  0
   58.6180   26.3070   45.7870 C   0  0  0  0  0  0  0  0  0  0  0  0
   59.8460   27.1650   45.7450 C   0  0  0  0  0  0  0  0  0  0  0  0
   59.6400   28.4030   46.5270 N   0  0  0  0  0  0  0  0  0  0  0  0
   59.1770   28.0960   47.9050 C   0  0  0  0  0  0  0  0  0  0  0  0
   58.6130   29.3200   48.6530 C   0  0  0  0  0  0  0  0  0  0  0  0
   59.4490   30.6110   48.4840 C   0  0  0  0  0  0  0  0  0  0  0  0
   59.0600   31.3840   47.2910 N   0  0  0  0  0  0  0  0  0  0  0  0
   58.6970   32.7650   47.4440 C   0  0  0  0  0  0  0  0  0  0  0  0
   57.5380   33.0650   47.8410 O   0  0  0  0  0  0  0  0  0  0  0  0
   59.6630   33.8670   47.0980 C   0  0  0  0  0  0  0  0  0  0  0  0
   60.8480   33.3470   46.2720 C   0  0  0  0  0  0  0  0  0  0  0  0
   62.0390   33.0580   47.1380 C   0  0  0  0  0  0  0  0  0  0  0  0
   62.2180   31.9260   47.9240 C   0  0  0  0  0  0  0  0  0  0  0  0
   63.3940   31.9620   48.6790 C   0  0  0  0  0  0  0  0  0  0  0  0
   64.1370   33.1230   48.4990 C   0  0  0  0  0  0  0  0  0  0  0  0
   63.3280   34.1060   47.4000 S   0  0  0  0  0  0  0  0  0  0  0  0
   59.2580   30.8420   45.9350 C   0  0  0  0  0  0  0  0  0  0  0  0
   58.7970   29.3780   45.7910 C   0  0  0  0  0  0  0  0  0  0  0  0
   58.7280   24.9540   45.6760 N   0  0  0  0  0  0  0  0  0  0  0  0
   60.8119   22.0062   44.4619 H   0  0  0  0  0  0  0  0  0  0  0  0
   59.2635   21.3720   43.8084 H   0  0  0  0  0  0  0  0  0  0  0  0
   59.5814   23.1400   43.8084 H   0  0  0  0  0  0  0  0  0  0  0  0
   57.4101   22.3552   44.5479 H   0  0  0  0  0  0  0  0  0  0  0  0
   57.2251   22.1754   46.3349 H   0  0  0  0  0  0  0  0  0  0  0  0
   55.4484   24.1122   45.7686 H   0  0  0  0  0  0  0  0  0  0  0  0
   60.6930   26.6057   46.1691 H   0  0  0  0  0  0  0  0  0  0  0  0
   60.0554   27.4354   44.6995 H   0  0  0  0  0  0  0  0  0  0  0  0
   58.3885   27.3314   47.8448 H   0  0  0  0  0  0  0  0  0  0  0  0
   60.0542   27.7483   48.4703 H   0  0  0  0  0  0  0  0  0  0  0  0
   57.5978   29.5155   48.2773 H   0  0  0  0  0  0  0  0  0  0  0  0
   58.6321   29.0706   49.7242 H   0  0  0  0  0  0  0  0  0  0  0  0
   59.3079   31.2416   49.3742 H   0  0  0  0  0  0  0  0  0  0  0  0
   60.5010   30.3139   48.3610 H   0  0  0  0  0  0  0  0  0  0  0  0
   59.1331   34.6354   46.5160 H   0  0  0  0  0  0  0  0  0  0  0  0
   60.0569   34.2840   48.0366 H   0  0  0  0  0  0  0  0  0  0  0  0
   60.5469   32.4220   45.7585 H   0  0  0  0  0  0  0  0  0  0  0  0
   61.1299   34.1244   45.5466 H   0  0  0  0  0  0  0  0  0  0  0  0
   61.5068   31.0872   47.9495 H   0  0  0  0  0  0  0  0  0  0  0  0
   63.7023   31.1484   49.3520 H   0  0  0  0  0  0  0  0  0  0  0  0
   65.0918   33.3587   48.9917 H   0  0  0  0  0  0  0  0  0  0  0  0
   58.6875   31.4592   45.2254 H   0  0  0  0  0  0  0  0  0  0  0  0
   60.3383   30.8655   45.7289 H   0  0  0  0  0  0  0  0  0  0  0  0
   57.7676   29.3008   46.1709 H   0  0  0  0  0  0  0  0  0  0  0  0
   58.8756   29.1238   44.7237 H   0  0  0  0  0  0  0  0  0  0  0  0
  1  2  1  0
  2  3  1  0
  3  4  1  0
  4  5  2  0
  5  6  1  0
  6  7  2  0
  6  8  1  0
  8  9  1  0
  9 10  1  0
 10 11  1  0
 11 12  1  0
 12 13  1  0
 13 14  1  0
 14 15  1  0
 15 16  1  0
 16 17  2  0
 16 18  1  0
 18 19  1  0
 19 20  1  0
 20 21  2  0
 21 22  1  0
 22 23  2  0
 23 24  1  0
 15 25  1  0
 25 26  1  0
  9 27  2  0
 27  4  1  0
 26 11  1  0
 24 20  1  0
  1 28  1  0
  1 29  1  0
  1 30  1  0
  3 31  1  0
  3 32  1  0
  5 33  1  0
 10 34  1  0
 10 35  1  0
 12 36  1  0
 12 37  1  0
 13 38  1  0
 13 39  1  0
 14 40  1  0
 14 41  1  0
 18 42  1  0
 18 43  1  0
 19 44  1  0
 19 45  1  0
 21 46  1  0
 22 47  1  0
 23 48  1  0
 25 49  1  0
 25 50  1  0
 26 51  1  0
 26 52  1  0
M  CHG  1   8  -1
M  END
>  <UniqueID>  (95) 
88

>  <SMILES>  (95) 
COCc1cc(=O)[n-]c(CN2CCCN(C(=O)CCc3cccs3)CC2)n1

>  <Energy>  (95) 
87.5894779739997

>  <Genealogy>  (95) 
COCc1cc(=O)[n-]c(CN2CCCN(C(=O)CCc3cccs3)CC2)n1 (protonated)
COCc1cc(=O)[n-]c(CN2CCCN(C(=O)CCc3cccs3)CC2)n1 (3D coordinates assigned)
COCc1cc(=O)[n-]c(CN2CCCN(C(=O)CCc3cccs3)CC2)n1 (nonaromatic ring conformer: 87.5894779739997 kcal/mol)

>  <smiles>  (95) 
COCc1cc(=O)[nH]c(CN2CCCN(C(=O)CCc3cccs3)CC2)n1

>  <score_type>  (95) 
oracle

>  <origin>  (95) 
adg

>  <m_score__min__energy>  (95) 
-7.8200000000000003

>  <m_primary>  (95) 
energy

$$$$
95:0
     RDKit          3D

 40 41  0  0  0  0  0  0  0  0999 V2000
   59.7990   26.6660   45.9470 C   0  0  0  0  0  0  0  0  0  0  0  0
   58.4690   26.0100   46.1810 C   0  0  0  0  0  0  0  0  0  0  0  0
   58.4780   24.7830   46.7660 N   0  0  0  0  0  0  0  0  0  0  0  0
   57.3320   24.1390   47.0930 C   0  0  0  0  0  0  0  0  0  0  0  0
   57.3790   22.9980   47.6190 O   0  0  0  0  0  0  0  0  0  0  0  0
   56.1370   24.7280   46.8610 N   0  0  0  0  0  0  0  0  0  0  0  0
   56.0570   25.9580   46.2950 C   0  0  0  0  0  0  0  0  0  0  0  0
   54.9200   26.4700   46.1120 O   0  0  0  0  0  0  0  0  0  0  0  0
   57.2290   26.6450   45.9130 C   0  0  0  0  0  0  0  0  0  0  0  0
   57.1050   28.2770   45.1970 S   0  0  0  0  0  0  0  0  0  0  0  0
   55.6670   28.5910   44.8860 O   0  0  0  0  0  0  0  0  0  0  0  0
   57.8410   28.2900   43.8860 O   0  0  0  0  0  0  0  0  0  0  0  0
   57.7630   29.5460   46.2090 N   0  0  0  0  0  0  0  0  0  0  0  0
   58.5960   29.0160   47.2950 C   0  0  0  0  0  0  0  0  0  0  0  0
   58.3700   30.6630   45.4530 C   0  0  0  0  0  0  0  0  0  0  0  0
   57.3840   31.5330   44.7130 C   0  0  0  0  0  0  0  0  0  0  0  0
   56.2110   31.1230   44.5080 O   0  0  0  0  0  0  0  0  0  0  0  0
   57.7690   32.8460   44.2900 N   0  0  0  0  0  0  0  0  0  0  0  0
   57.5950   34.0380   45.1130 C   0  0  0  0  0  0  0  0  0  0  0  0
   58.4640   33.9560   46.3380 C   0  0  0  0  0  0  0  0  0  0  0  0
   59.6970   34.6290   46.3890 C   0  0  0  0  0  0  0  0  0  0  0  0
   60.5040   34.5340   47.5270 C   0  0  0  0  0  0  0  0  0  0  0  0
   60.0960   33.7560   48.6130 C   0  0  0  0  0  0  0  0  0  0  0  0
   58.8760   33.0760   48.5670 C   0  0  0  0  0  0  0  0  0  0  0  0
   58.0590   33.1790   47.4370 C   0  0  0  0  0  0  0  0  0  0  0  0
   60.2688   26.8977   46.9143 H   0  0  0  0  0  0  0  0  0  0  0  0
   60.4486   25.9850   45.3776 H   0  0  0  0  0  0  0  0  0  0  0  0
   59.6540   27.5960   45.3776 H   0  0  0  0  0  0  0  0  0  0  0  0
   58.1567   29.2955   48.2639 H   0  0  0  0  0  0  0  0  0  0  0  0
   58.6457   27.9199   47.2175 H   0  0  0  0  0  0  0  0  0  0  0  0
   59.6100   29.4354   47.2175 H   0  0  0  0  0  0  0  0  0  0  0  0
   58.9214   31.2973   46.1626 H   0  0  0  0  0  0  0  0  0  0  0  0
   59.0158   30.2061   44.6887 H   0  0  0  0  0  0  0  0  0  0  0  0
   57.8744   34.9269   44.5284 H   0  0  0  0  0  0  0  0  0  0  0  0
   56.5423   34.1082   45.4243 H   0  0  0  0  0  0  0  0  0  0  0  0
   60.0281   35.2324   45.5309 H   0  0  0  0  0  0  0  0  0  0  0  0
   61.4620   35.0730   47.5671 H   0  0  0  0  0  0  0  0  0  0  0  0
   60.7353   33.6785   49.5048 H   0  0  0  0  0  0  0  0  0  0  0  0
   58.5582   32.4592   49.4205 H   0  0  0  0  0  0  0  0  0  0  0  0
   57.0952   32.6497   47.4080 H   0  0  0  0  0  0  0  0  0  0  0  0
  1  2  1  0
  2  3  1  0
  3  4  1  0
  4  5  2  0
  4  6  1  0
  6  7  1  0
  7  8  2  0
  7  9  1  0
  9 10  1  0
 10 11  2  0
 10 12  2  0
 10 13  1  0
 13 14  1  0
 13 15  1  0
 15 16  1  0
 16 17  2  0
 16 18  1  0
 18 19  1  0
 19 20  1  0
 20 21  2  0
 21 22  1  0
 22 23  2  0
 23 24  1  0
 24 25  2  0
  9  2  2  0
 25 20  1  0
  1 26  1  0
  1 27  1  0
  1 28  1  0
 14 29  1  0
 14 30  1  0
 14 31  1  0
 15 32  1  0
 15 33  1  0
 19 34  1  0
 19 35  1  0
 21 36  1  0
 22 37  1  0
 23 38  1  0
 24 39  1  0
 25 40  1  0
M  CHG  3   3  -1   6  -1  18  -1
M  END
>  <UniqueID>  (96) 
89

>  <SMILES>  (96) 
Cc1[n-]c(=O)[n-]c(=O)c1S(=O)(=O)N(C)CC(=O)[N-]Cc1ccccc1

>  <Energy>  (96) 
42.51202997382544

>  <Genealogy>  (96) 
Cc1[n-]c(=O)[n-]c(=O)c1S(=O)(=O)N(C)CC(=O)[N-]Cc1ccccc1 (protonated)
Cc1[n-]c(=O)[n-]c(=O)c1S(=O)(=O)N(C)CC(=O)[N-]Cc1ccccc1 (3D coordinates assigned)
Cc1[n-]c(=O)[n-]c(=O)c1S(=O)(=O)N(C)CC(=O)[N-]Cc1ccccc1 (optimized conformer: 42.51202997382544 kcal/mol)

>  <smiles>  (96) 
Cc1[nH]c(=O)[nH]c(=O)c1S(=O)(=O)N(C)CC(=O)NCc1ccccc1

>  <score_type>  (96) 
oracle

>  <origin>  (96) 
adg

>  <m_score__min__energy>  (96) 
-14.48

>  <m_primary>  (96) 
energy

$$$$
96:0
     RDKit          3D

 42 44  0  0  0  0  0  0  0  0999 V2000
   56.6430   33.2240   45.6390 O   0  0  0  0  0  0  0  0  0  0  0  0
   57.8000   32.7730   45.8600 C   0  0  0  0  0  0  0  0  0  0  0  0
   58.3150   31.6250   45.0530 C   0  0  0  0  0  0  0  0  0  0  0  0
   56.9920   30.9090   44.0160 S   0  0  0  0  0  0  0  0  0  0  0  0
   57.1430   29.2580   44.6940 C   0  0  0  0  0  0  0  0  0  0  0  0
   58.3640   28.6770   44.8060 N   0  0  0  0  0  0  0  0  0  0  0  0
   58.5020   27.4290   45.3230 C   0  0  0  0  0  0  0  0  0  0  0  0
   59.6530   26.9250   45.4120 O   0  0  0  0  0  0  0  0  0  0  0  0
   57.3660   26.7120   45.7480 C   0  0  0  0  0  0  0  0  0  0  0  0
   57.4840   25.3240   46.3320 C   0  0  0  0  0  0  0  0  0  0  0  0
   57.3380   24.2760   45.2620 C   0  0  0  0  0  0  0  0  0  0  0  0
   58.2370   23.1970   45.1940 C   0  0  0  0  0  0  0  0  0  0  0  0
   58.0890   22.2170   44.2080 C   0  0  0  0  0  0  0  0  0  0  0  0
   57.0480   22.3080   43.2810 C   0  0  0  0  0  0  0  0  0  0  0  0
   56.1640   23.3880   43.3260 C   0  0  0  0  0  0  0  0  0  0  0  0
   56.3070   24.3700   44.3110 C   0  0  0  0  0  0  0  0  0  0  0  0
   56.1160   27.3440   45.6280 C   0  0  0  0  0  0  0  0  0  0  0  0
   54.9520   26.7040   46.0360 O   0  0  0  0  0  0  0  0  0  0  0  0
   56.0330   28.5920   45.1030 N   0  0  0  0  0  0  0  0  0  0  0  0
   58.6230   33.3360   46.8870 N   0  0  0  0  0  0  0  0  0  0  0  0
   59.6710   34.2910   46.6800 C   0  0  0  0  0  0  0  0  0  0  0  0
   59.4440   35.3450   46.0240 O   0  0  0  0  0  0  0  0  0  0  0  0
   61.0200   34.0440   47.2390 C   0  0  0  0  0  0  0  0  0  0  0  0
   62.1260   33.8610   46.3870 C   0  0  0  0  0  0  0  0  0  0  0  0
   63.3910   33.5870   46.9150 C   0  0  0  0  0  0  0  0  0  0  0  0
   63.5670   33.4910   48.2980 C   0  0  0  0  0  0  0  0  0  0  0  0
   62.4800   33.6810   49.1540 C   0  0  0  0  0  0  0  0  0  0  0  0
   61.2140   33.9600   48.6320 C   0  0  0  0  0  0  0  0  0  0  0  0
   59.1297   31.9783   44.4038 H   0  0  0  0  0  0  0  0  0  0  0  0
   58.6803   30.8484   45.7411 H   0  0  0  0  0  0  0  0  0  0  0  0
   58.4694   25.2167   46.8089 H   0  0  0  0  0  0  0  0  0  0  0  0
   56.6816   25.1849   47.0714 H   0  0  0  0  0  0  0  0  0  0  0  0
   59.0603   23.1236   45.9198 H   0  0  0  0  0  0  0  0  0  0  0  0
   58.7932   21.3732   44.1621 H   0  0  0  0  0  0  0  0  0  0  0  0
   56.9245   21.5283   42.5150 H   0  0  0  0  0  0  0  0  0  0  0  0
   55.3542   23.4663   42.5857 H   0  0  0  0  0  0  0  0  0  0  0  0
   55.6095   25.2200   44.3419 H   0  0  0  0  0  0  0  0  0  0  0  0
   61.9936   33.9342   45.2975 H   0  0  0  0  0  0  0  0  0  0  0  0
   64.2490   33.4468   46.2410 H   0  0  0  0  0  0  0  0  0  0  0  0
   64.5609   33.2660   48.7121 H   0  0  0  0  0  0  0  0  0  0  0  0
   62.6208   33.6108   50.2427 H   0  0  0  0  0  0  0  0  0  0  0  0
   60.3639   34.1149   49.3127 H   0  0  0  0  0  0  0  0  0  0  0  0
  1  2  2  0
  2  3  1  0
  3  4  1  0
  4  5  1  0
  5  6  2  0
  6  7  1  0
  7  8  2  0
  7  9  1  0
  9 10  1  0
 10 11  1  0
 11 12  2  0
 12 13  1  0
 13 14  2  0
 14 15  1  0
 15 16  2  0
  9 17  2  0
 17 18  1  0
 17 19  1  0
  2 20  1  0
 20 21  1  0
 21 22  2  0
 21 23  1  0
 23 24  2  0
 24 25  1  0
 25 26  2  0
 26 27  1  0
 27 28  2  0
 19  5  1  0
 28 23  1  0
 16 11  1  0
  3 29  1  0
  3 30  1  0
 10 31  1  0
 10 32  1  0
 12 33  1  0
 13 34  1  0
 14 35  1  0
 15 36  1  0
 16 37  1  0
 24 38  1  0
 25 39  1  0
 26 40  1  0
 27 41  1  0
 28 42  1  0
M  CHG  3  18  -1  19  -1  20  -1
M  END
>  <UniqueID>  (97) 
90

>  <SMILES>  (97) 
O=C(CSc1nc(=O)c(Cc2ccccc2)c([O-])[n-]1)[N-]C(=O)c1ccccc1

>  <Energy>  (97) 
37.90877062534293

>  <Genealogy>  (97) 
O=C(CSc1nc(=O)c(Cc2ccccc2)c([O-])[n-]1)[N-]C(=O)c1ccccc1 (protonated)
O=C(CSc1nc(=O)c(Cc2ccccc2)c([O-])[n-]1)[N-]C(=O)c1ccccc1 (3D coordinates assigned)
O=C(CSc1nc(=O)c(Cc2ccccc2)c([O-])[n-]1)[N-]C(=O)c1ccccc1 (optimized conformer: 37.90877062534293 kcal/mol)

>  <smiles>  (97) 
O=C(CSc1nc(=O)c(Cc2ccccc2)c(O)[nH]1)NC(=O)c1ccccc1

>  <score_type>  (97) 
oracle

>  <origin>  (97) 
adg

>  <m_score__min__energy>  (97) 
-16.579999999999998

>  <m_primary>  (97) 
energy

$$$$
97:0
     RDKit          3D

 33 35  0  0  0  0  0  0  0  0999 V2000
   55.5660   28.6100   45.1840 O   0  0  0  0  0  0  0  0  0  0  0  0
   56.8150   28.6860   45.3280 C   0  0  0  0  0  0  0  0  0  0  0  0
   57.5620   29.7040   44.6500 N   0  0  0  0  0  0  0  0  0  0  0  0
   57.7430   31.0620   45.0780 C   0  0  0  0  0  0  0  0  0  0  0  0
   57.4120   32.0960   44.1920 C   0  0  0  0  0  0  0  0  0  0  0  0
   57.5920   33.4310   44.5630 C   0  0  0  0  0  0  0  0  0  0  0  0
   58.1190   33.7450   45.8180 C   0  0  0  0  0  0  0  0  0  0  0  0
   58.4760   32.7220   46.7010 C   0  0  0  0  0  0  0  0  0  0  0  0
   59.1660   33.1160   48.2660 Cl  0  0  0  0  0  0  0  0  0  0  0  0
   58.2970   31.3830   46.3330 C   0  0  0  0  0  0  0  0  0  0  0  0
   57.5320   27.7320   46.1930 C   0  0  0  0  0  0  0  0  0  0  0  0
   58.7430   28.0110   46.7120 N   0  0  0  0  0  0  0  0  0  0  0  0
   59.0260   26.9500   47.4930 C   0  0  0  0  0  0  0  0  0  0  0  0
   58.0600   26.0100   47.4980 N   0  0  0  0  0  0  0  0  0  0  0  0
   57.1150   26.4950   46.6720 C   0  0  0  0  0  0  0  0  0  0  0  0
   55.8970   25.7350   46.3430 C   0  0  0  0  0  0  0  0  0  0  0  0
   54.8410   26.3310   46.0060 O   0  0  0  0  0  0  0  0  0  0  0  0
   55.9610   24.3030   46.3090 N   0  0  0  0  0  0  0  0  0  0  0  0
   56.1360   23.4840   45.1440 C   0  0  0  0  0  0  0  0  0  0  0  0
   56.4640   24.0960   43.9300 C   0  0  0  0  0  0  0  0  0  0  0  0
   56.6590   23.3210   42.7840 C   0  0  0  0  0  0  0  0  0  0  0  0
   56.5380   21.9330   42.8690 C   0  0  0  0  0  0  0  0  0  0  0  0
   56.2460   21.3480   44.0600 N   0  0  0  0  0  0  0  0  0  0  0  0
   56.0470   22.0810   45.1890 C   0  0  0  0  0  0  0  0  0  0  0  0
   57.0077   31.8550   43.1978 H   0  0  0  0  0  0  0  0  0  0  0  0
   57.3182   34.2363   43.8655 H   0  0  0  0  0  0  0  0  0  0  0  0
   58.2530   34.7967   46.1112 H   0  0  0  0  0  0  0  0  0  0  0  0
   58.5896   30.5798   47.0253 H   0  0  0  0  0  0  0  0  0  0  0  0
   59.9571   26.8596   48.0716 H   0  0  0  0  0  0  0  0  0  0  0  0
   56.5687   25.1897   43.8773 H   0  0  0  0  0  0  0  0  0  0  0  0
   56.9053   23.7996   41.8247 H   0  0  0  0  0  0  0  0  0  0  0  0
   56.6791   21.3127   41.9716 H   0  0  0  0  0  0  0  0  0  0  0  0
   55.8162   21.5756   46.1383 H   0  0  0  0  0  0  0  0  0  0  0  0
  1  2  2  0
  2  3  1  0
  3  4  1  0
  4  5  2  0
  5  6  1  0
  6  7  2  0
  7  8  1  0
  8  9  1  0
  8 10  2  0
  2 11  1  0
 11 12  1  0
 12 13  2  0
 13 14  1  0
 14 15  1  0
 15 16  1  0
 16 17  2  0
 16 18  1  0
 18 19  1  0
 19 20  2  0
 20 21  1  0
 21 22  2  0
 22 23  1  0
 23 24  2  0
 10  4  1  0
 15 11  2  0
 24 19  1  0
  5 25  1  0
  6 26  1  0
  7 27  1  0
 10 28  1  0
 13 29  1  0
 20 30  1  0
 21 31  1  0
 22 32  1  0
 24 33  1  0
M  CHG  3   3  -1  14  -1  18  -1
M  END
>  <UniqueID>  (98) 
91

>  <SMILES>  (98) 
O=C([N-]c1cccc(Cl)c1)c1nc[n-]c1C(=O)[N-]c1cccnc1

>  <Energy>  (98) 
74.23822460024155

>  <Genealogy>  (98) 
O=C([N-]c1cccc(Cl)c1)c1nc[n-]c1C(=O)[N-]c1cccnc1 (protonated)
O=C([N-]c1cccc(Cl)c1)c1nc[n-]c1C(=O)[N-]c1cccnc1 (3D coordinates assigned)
O=C([N-]c1cccc(Cl)c1)c1nc[n-]c1C(=O)[N-]c1cccnc1 (optimized conformer: 74.23822460024155 kcal/mol)

>  <smiles>  (98) 
O=C(Nc1cccc(Cl)c1)c1nc[nH]c1C(=O)Nc1cccnc1

>  <score_type>  (98) 
oracle

>  <origin>  (98) 
adg

>  <m_score__min__energy>  (98) 
-12.76

>  <m_primary>  (98) 
energy

$$$$
