0:0
     RDKit          3D

 34 35  0  0  0  0  0  0  0  0999 V2000
   55.7570   27.8910   45.0830 H   0  0  0  0  0  0  0  0  0  0  0  0
   55.5030   28.8830   44.8770 N   0  0  0  0  0  0  0  0  0  0  0  0
   56.7990   29.5620   43.9520 S   0  0  0  0  0  0  0  0  0  0  0  0
   56.2060   30.3180   42.7970 O   0  0  0  0  0  0  0  0  0  0  0  0
   57.6640   28.4490   43.4300 O   0  0  0  0  0  0  0  0  0  0  0  0
   57.7800   30.6490   44.9490 C   0  0  0  0  0  0  0  0  0  0  0  0
   57.7860   32.0230   44.6610 C   0  0  0  0  0  0  0  0  0  0  0  0
   57.2002   32.4044   43.8117 H   0  0  0  0  0  0  0  0  0  0  0  0
   58.5290   32.9100   45.4430 C   0  0  0  0  0  0  0  0  0  0  0  0
   58.5367   33.9826   45.1992 H   0  0  0  0  0  0  0  0  0  0  0  0
   59.2610   32.4390   46.5320 C   0  0  0  0  0  0  0  0  0  0  0  0
   59.8360   33.1412   47.1536 H   0  0  0  0  0  0  0  0  0  0  0  0
   59.2640   31.0770   46.8330 C   0  0  0  0  0  0  0  0  0  0  0  0
   59.8261   30.7127   47.7055 H   0  0  0  0  0  0  0  0  0  0  0  0
   58.5550   30.1660   46.0310 C   0  0  0  0  0  0  0  0  0  0  0  0
   58.5920   28.7230   46.3680 C   0  0  0  0  0  0  0  0  0  0  0  0
   59.3047   28.3909   47.1373 H   0  0  0  0  0  0  0  0  0  0  0  0
   57.8320   27.8230   45.8090 N   0  0  0  0  0  0  0  0  0  0  0  0
   58.1490   26.4480   45.5310 C   0  0  0  0  0  0  0  0  0  0  0  0
   59.3340   26.0580   45.6960 O   0  0  0  0  0  0  0  0  0  0  0  0
   57.1070   25.4570   45.1740 C   0  0  0  0  0  0  0  0  0  0  0  0
   57.4730   24.3340   44.4120 C   0  0  0  0  0  0  0  0  0  0  0  0
   58.5169   24.2189   44.0849 H   0  0  0  0  0  0  0  0  0  0  0  0
   56.5260   23.3550   44.0610 C   0  0  0  0  0  0  0  0  0  0  0  0
   56.9130   22.1970   43.3010 N   0  0  0  0  0  0  0  0  0  0  0  0
   56.1120   21.6560   42.5100 O   0  0  0  0  0  0  0  0  0  0  0  0
   58.1780   21.6690   43.4260 O   0  0  0  0  0  0  0  0  0  0  0  0
   55.1930   23.5280   44.4640 C   0  0  0  0  0  0  0  0  0  0  0  0
   54.4389   22.7750   44.1913 H   0  0  0  0  0  0  0  0  0  0  0  0
   54.8160   24.6460   45.2070 C   0  0  0  0  0  0  0  0  0  0  0  0
   53.7647   24.7718   45.5053 H   0  0  0  0  0  0  0  0  0  0  0  0
   55.7600   25.6090   45.5770 C   0  0  0  0  0  0  0  0  0  0  0  0
   55.3340   26.6770   46.3680 O   0  0  0  0  0  0  0  0  0  0  0  0
   55.8660   27.5290   46.4820 H   0  0  0  0  0  0  0  0  0  0  0  0
  1  2  1  0
  2  3  1  0
  3  4  2  0
  3  5  2  0
  3  6  1  0
  6  7  2  0
  7  8  1  0
  7  9  1  0
  9 10  1  0
  9 11  2  0
 11 12  1  0
 11 13  1  0
 13 14  1  0
 13 15  2  0
 15 16  1  0
 16 17  1  0
 16 18  2  0
 18 19  1  0
 19 20  2  0
 19 21  1  0
 21 22  2  0
 22 23  1  0
 22 24  1  0
 24 25  1  0
 25 26  2  0
 25 27  1  0
 24 28  2  0
 28 29  1  0
 28 30  1  0
 30 31  1  0
 30 32  2  0
 32 33  1  0
 33 34  1  0
 15  6  1  0
 32 21  1  0
M  CHG  3   2  -1  25   1  27  -1
M  END
>  <UniqueID>  (1) 
1

>  <SMILES>  (1) 
[NH-]S(=O)(=O)c1ccccc1/C=N\C(=O)c1cc([N+](=O)[O-])ccc1O

>  <Energy>  (1) 
50.9419067507746

>  <Genealogy>  (1) 
[NH-]S(=O)(=O)c1ccccc1C=NC(=O)c1cc([N+](=O)[O-])ccc1O (protonated)
[NH-]S(=O)(=O)c1ccccc1/C=N\C(=O)c1cc([N+](=O)[O-])ccc1O (cis-trans isomerization)
[NH-]S(=O)(=O)c1ccccc1/C=N\C(=O)c1cc([N+](=O)[O-])ccc1O (3D coordinates assigned)
[NH-]S(=O)(=O)c1ccccc1/C=N\C(=O)c1cc([N+](=O)[O-])ccc1O (optimized conformer: 50.9419067507746 kcal/mol)

>  <smiles>  (1) 
NS(=O)(=O)c1ccccc1C=NC(=O)c1cc([N+](=O)[O-])ccc1O

>  <score_type>  (1) 
oracle

>  <origin>  (1) 
adg

>  <m_score__min__energy>  (1) 
-11.15

>  <m_primary>  (1) 
energy

$$$$
1:0
     RDKit          3D

 43 45  0  0  0  0  0  0  0  0999 V2000
   60.0550   32.8440   50.7710 C   0  0  0  0  0  0  0  0  0  0  0  0
   59.5870   33.2180   49.3940 C   0  0  0  0  0  0  0  0  0  0  0  0
   58.5550   32.4920   48.7820 C   0  0  0  0  0  0  0  0  0  0  0  0
   58.1440   32.8080   47.4830 C   0  0  0  0  0  0  0  0  0  0  0  0
   58.7680   33.8450   46.7770 C   0  0  0  0  0  0  0  0  0  0  0  0
   58.2730   34.2030   45.1260 S   0  0  0  0  0  0  0  0  0  0  0  0
   56.8140   34.5650   45.1300 O   0  0  0  0  0  0  0  0  0  0  0  0
   59.0540   35.3590   44.5640 O   0  0  0  0  0  0  0  0  0  0  0  0
   58.5120   32.8090   44.1220 N   0  0  0  0  0  0  0  0  0  0  0  0
   57.8780   31.5350   44.3140 C   0  0  0  0  0  0  0  0  0  0  0  0
   56.6540   31.2100   43.7020 C   0  0  0  0  0  0  0  0  0  0  0  0
   56.0820   29.9480   43.8980 C   0  0  0  0  0  0  0  0  0  0  0  0
   56.7190   29.0100   44.7110 C   0  0  0  0  0  0  0  0  0  0  0  0
   57.9290   29.3290   45.3420 C   0  0  0  0  0  0  0  0  0  0  0  0
   58.6710   28.1500   46.4210 S   0  0  0  0  0  0  0  0  0  0  0  0
   59.3800   28.8270   47.5610 O   0  0  0  0  0  0  0  0  0  0  0  0
   59.6690   27.3470   45.6370 O   0  0  0  0  0  0  0  0  0  0  0  0
   57.4440   27.0920   47.0370 N   0  0  0  0  0  0  0  0  0  0  0  0
   57.0340   25.8860   46.3790 C   0  0  0  0  0  0  0  0  0  0  0  0
   57.9550   24.8350   46.2700 C   0  0  0  0  0  0  0  0  0  0  0  0
   57.6030   23.6520   45.6130 C   0  0  0  0  0  0  0  0  0  0  0  0
   56.3240   23.5030   45.0740 C   0  0  0  0  0  0  0  0  0  0  0  0
   55.3870   24.5330   45.1970 C   0  0  0  0  0  0  0  0  0  0  0  0
   55.7350   25.7230   45.8520 C   0  0  0  0  0  0  0  0  0  0  0  0
   54.7720   26.7140   45.9980 O   0  0  0  0  0  0  0  0  0  0  0  0
   58.5060   30.5910   45.1380 C   0  0  0  0  0  0  0  0  0  0  0  0
   59.8060   34.5680   47.3850 C   0  0  0  0  0  0  0  0  0  0  0  0
   60.2200   34.2500   48.6840 C   0  0  0  0  0  0  0  0  0  0  0  0
   59.4264   33.3464   51.5210 H   0  0  0  0  0  0  0  0  0  0  0  0
   59.9800   31.7542   50.9004 H   0  0  0  0  0  0  0  0  0  0  0  0
   61.1014   33.1575   50.9004 H   0  0  0  0  0  0  0  0  0  0  0  0
   58.0665   31.6702   49.3261 H   0  0  0  0  0  0  0  0  0  0  0  0
   57.3273   32.2399   47.0136 H   0  0  0  0  0  0  0  0  0  0  0  0
   56.1448   31.9502   43.0673 H   0  0  0  0  0  0  0  0  0  0  0  0
   55.1289   29.6952   43.4105 H   0  0  0  0  0  0  0  0  0  0  0  0
   56.2699   28.0166   44.8572 H   0  0  0  0  0  0  0  0  0  0  0  0
   58.9603   24.9415   46.7037 H   0  0  0  0  0  0  0  0  0  0  0  0
   58.3357   22.8368   45.5206 H   0  0  0  0  0  0  0  0  0  0  0  0
   56.0531   22.5736   44.5517 H   0  0  0  0  0  0  0  0  0  0  0  0
   54.3766   24.4100   44.7799 H   0  0  0  0  0  0  0  0  0  0  0  0
   59.4583   30.8417   45.6282 H   0  0  0  0  0  0  0  0  0  0  0  0
   60.2960   35.3875   46.8389 H   0  0  0  0  0  0  0  0  0  0  0  0
   61.0439   34.8107   49.1496 H   0  0  0  0  0  0  0  0  0  0  0  0
  1  2  1  0
  2  3  2  0
  3  4  1  0
  4  5  2  0
  5  6  1  0
  6  7  2  0
  6  8  2  0
  6  9  1  0
  9 10  1  0
 10 11  2  0
 11 12  1  0
 12 13  2  0
 13 14  1  0
 14 15  1  0
 15 16  2  0
 15 17  2  0
 15 18  1  0
 18 19  1  0
 19 20  2  0
 20 21  1  0
 21 22  2  0
 22 23  1  0
 23 24  2  0
 24 25  1  0
 14 26  2  0
  5 27  1  0
 27 28  2  0
 28  2  1  0
 26 10  1  0
 24 19  1  0
  1 29  1  0
  1 30  1  0
  1 31  1  0
  3 32  1  0
  4 33  1  0
 11 34  1  0
 12 35  1  0
 13 36  1  0
 20 37  1  0
 21 38  1  0
 22 39  1  0
 23 40  1  0
 26 41  1  0
 27 42  1  0
 28 43  1  0
M  CHG  3   9  -1  18  -1  25  -1
M  END
>  <UniqueID>  (2) 
2

>  <SMILES>  (2) 
Cc1ccc(S(=O)(=O)[N-]c2cccc(S(=O)(=O)[N-]c3ccccc3[O-])c2)cc1

>  <Energy>  (2) 
55.40606998989495

>  <Genealogy>  (2) 
Cc1ccc(S(=O)(=O)[N-]c2cccc(S(=O)(=O)[N-]c3ccccc3[O-])c2)cc1 (protonated)
Cc1ccc(S(=O)(=O)[N-]c2cccc(S(=O)(=O)[N-]c3ccccc3[O-])c2)cc1 (3D coordinates assigned)
Cc1ccc(S(=O)(=O)[N-]c2cccc(S(=O)(=O)[N-]c3ccccc3[O-])c2)cc1 (optimized conformer: 55.40606998989495 kcal/mol)

>  <smiles>  (2) 
Cc1ccc(S(=O)(=O)Nc2cccc(S(=O)(=O)Nc3ccccc3O)c2)cc1

>  <score_type>  (2) 
oracle

>  <origin>  (2) 
adg

>  <m_score__min__energy>  (2) 
-16.460000000000001

>  <m_primary>  (2) 
energy

$$$$
2:0
     RDKit          3D

 40 41  0  0  0  0  0  0  0  0999 V2000
   64.1200   32.6730   46.8380 N   0  0  0  0  0  0  0  0  0  0  0  0
   63.1430   32.4000   47.8880 C   0  0  0  0  0  0  0  0  0  0  0  0
   61.7430   32.7000   47.4170 C   0  0  0  0  0  0  0  0  0  0  0  0
   60.6990   31.8020   47.6850 C   0  0  0  0  0  0  0  0  0  0  0  0
   59.4030   32.0730   47.2410 C   0  0  0  0  0  0  0  0  0  0  0  0
   59.1360   33.2330   46.4960 C   0  0  0  0  0  0  0  0  0  0  0  0
   57.7310   33.5440   46.0450 C   0  0  0  0  0  0  0  0  0  0  0  0
   57.5420   33.3450   44.5310 C   0  0  0  0  0  0  0  0  0  0  0  0
   57.5750   31.8720   44.0990 C   0  0  0  0  0  0  0  0  0  0  0  0
   57.2450   30.9930   45.2240 N   0  0  0  0  0  0  0  0  0  0  0  0
   56.6350   29.4770   44.6300 S   0  0  0  0  0  0  0  0  0  0  0  0
   55.1530   29.3840   44.8670 O   0  0  0  0  0  0  0  0  0  0  0  0
   56.8790   29.4000   43.1490 O   0  0  0  0  0  0  0  0  0  0  0  0
   57.4720   28.1340   45.4210 C   0  0  0  0  0  0  0  0  0  0  0  0
   58.8700   28.1570   45.5180 C   0  0  0  0  0  0  0  0  0  0  0  0
   59.5470   27.1090   46.1420 C   0  0  0  0  0  0  0  0  0  0  0  0
   58.8180   26.0490   46.6800 C   0  0  0  0  0  0  0  0  0  0  0  0
   57.4630   26.0400   46.5890 N   0  0  0  0  0  0  0  0  0  0  0  0
   56.7770   27.0430   45.9760 C   0  0  0  0  0  0  0  0  0  0  0  0
   55.5200   26.9810   45.9190 O   0  0  0  0  0  0  0  0  0  0  0  0
   60.1860   34.1180   46.2030 C   0  0  0  0  0  0  0  0  0  0  0  0
   61.4810   33.8520   46.6610 C   0  0  0  0  0  0  0  0  0  0  0  0
   64.4710   31.7630   46.4590 H   0  0  0  0  0  0  0  0  0  0  0  0
   64.9350   33.1770   47.2590 H   0  0  0  0  0  0  0  0  0  0  0  0
   63.2072   31.3391   48.1716 H   0  0  0  0  0  0  0  0  0  0  0  0
   63.3674   33.0447   48.7506 H   0  0  0  0  0  0  0  0  0  0  0  0
   60.9024   30.8792   48.2481 H   0  0  0  0  0  0  0  0  0  0  0  0
   58.5869   31.3740   47.4761 H   0  0  0  0  0  0  0  0  0  0  0  0
   57.0341   32.8804   46.5780 H   0  0  0  0  0  0  0  0  0  0  0  0
   57.5334   34.6023   46.2709 H   0  0  0  0  0  0  0  0  0  0  0  0
   56.5698   33.7710   44.2423 H   0  0  0  0  0  0  0  0  0  0  0  0
   58.3825   33.8482   44.0307 H   0  0  0  0  0  0  0  0  0  0  0  0
   56.8433   31.7161   43.2926 H   0  0  0  0  0  0  0  0  0  0  0  0
   58.5889   31.6299   43.7476 H   0  0  0  0  0  0  0  0  0  0  0  0
   58.1290   30.7840   45.7420 H   0  0  0  0  0  0  0  0  0  0  0  0
   59.4349   29.0037   45.1010 H   0  0  0  0  0  0  0  0  0  0  0  0
   60.6449   27.1187   46.2090 H   0  0  0  0  0  0  0  0  0  0  0  0
   59.3408   25.2195   47.1785 H   0  0  0  0  0  0  0  0  0  0  0  0
   59.9896   35.0241   45.6110 H   0  0  0  0  0  0  0  0  0  0  0  0
   62.2982   34.5502   46.4269 H   0  0  0  0  0  0  0  0  0  0  0  0
  1  2  1  0
  2  3  1  0
  3  4  2  0
  4  5  1  0
  5  6  2  0
  6  7  1  0
  7  8  1  0
  8  9  1  0
  9 10  1  0
 10 11  1  0
 11 12  2  0
 11 13  2  0
 11 14  1  0
 14 15  2  0
 15 16  1  0
 16 17  2  0
 17 18  1  0
 18 19  1  0
 19 20  2  0
  6 21  1  0
 21 22  2  0
 22  3  1  0
 19 14  1  0
  1 23  1  0
  1 24  1  0
  2 25  1  0
  2 26  1  0
  4 27  1  0
  5 28  1  0
  7 29  1  0
  7 30  1  0
  8 31  1  0
  8 32  1  0
  9 33  1  0
  9 34  1  0
 10 35  1  0
 15 36  1  0
 16 37  1  0
 17 38  1  0
 21 39  1  0
 22 40  1  0
M  CHG  1  18  -1
M  END
>  <UniqueID>  (3) 
3

>  <SMILES>  (3) 
NCc1ccc(CCCNS(=O)(=O)c2ccc[n-]c2=O)cc1

>  <Energy>  (3) 
31.09383517325075

>  <Genealogy>  (3) 
NCc1ccc(CCCNS(=O)(=O)c2ccc[n-]c2=O)cc1 (protonated)
NCc1ccc(CCCNS(=O)(=O)c2ccc[n-]c2=O)cc1 (3D coordinates assigned)
NCc1ccc(CCCNS(=O)(=O)c2ccc[n-]c2=O)cc1 (optimized conformer: 31.09383517325075 kcal/mol)

>  <smiles>  (3) 
NCc1ccc(CCCNS(=O)(=O)c2ccc[nH]c2=O)cc1

>  <score_type>  (3) 
oracle

>  <origin>  (3) 
adg

>  <m_score__min__energy>  (3) 
-10.4

>  <m_primary>  (3) 
energy

$$$$
3:0
     RDKit          3D

 48 50  0  0  0  0  0  0  0  0999 V2000
   59.5330   33.8380   50.7140 C   0  0  0  0  0  0  0  0  0  0  0  0
   59.8300   34.0830   49.3430 O   0  0  0  0  0  0  0  0  0  0  0  0
   61.0360   33.7380   48.7130 C   0  0  0  0  0  0  0  0  0  0  0  0
   62.1320   33.2350   49.4420 C   0  0  0  0  0  0  0  0  0  0  0  0
   63.3220   32.9030   48.7920 C   0  0  0  0  0  0  0  0  0  0  0  0
   63.4310   33.0560   47.4100 C   0  0  0  0  0  0  0  0  0  0  0  0
   62.3490   33.5390   46.6730 C   0  0  0  0  0  0  0  0  0  0  0  0
   61.1540   33.8940   47.3150 C   0  0  0  0  0  0  0  0  0  0  0  0
   59.7970   34.4800   46.3420 S   0  0  0  0  0  0  0  0  0  0  0  0
   60.0740   34.2150   44.8870 O   0  0  0  0  0  0  0  0  0  0  0  0
   59.6220   35.9620   46.5240 O   0  0  0  0  0  0  0  0  0  0  0  0
   58.3010   33.6310   46.8130 C   0  0  0  0  0  0  0  0  0  0  0  0
   57.8310   32.7600   45.6930 C   0  0  0  0  0  0  0  0  0  0  0  0
   57.8340   33.0920   44.3530 C   0  0  0  0  0  0  0  0  0  0  0  0
   57.3700   31.9740   43.6930 C   0  0  0  0  0  0  0  0  0  0  0  0
   57.1160   31.0310   44.6740 C   0  0  0  0  0  0  0  0  0  0  0  0
   56.6270   29.6590   44.4380 C   0  0  0  0  0  0  0  0  0  0  0  0
   55.5140   29.3150   44.9170 O   0  0  0  0  0  0  0  0  0  0  0  0
   57.3650   28.7000   43.6690 N   0  0  0  0  0  0  0  0  0  0  0  0
   58.3810   27.7970   44.1980 C   0  0  0  0  0  0  0  0  0  0  0  0
   59.6500   28.5800   44.5220 C   0  0  0  0  0  0  0  0  0  0  0  0
   59.6420   29.0170   45.9610 C   0  0  0  0  0  0  0  0  0  0  0  0
   58.8770   28.3160   46.9080 C   0  0  0  0  0  0  0  0  0  0  0  0
   58.8250   28.7510   48.2360 C   0  0  0  0  0  0  0  0  0  0  0  0
   59.5300   29.8930   48.6270 C   0  0  0  0  0  0  0  0  0  0  0  0
   59.4550   30.4430   50.2920 Cl  0  0  0  0  0  0  0  0  0  0  0  0
   60.2880   30.6020   47.6880 C   0  0  0  0  0  0  0  0  0  0  0  0
   60.3400   30.1700   46.3580 C   0  0  0  0  0  0  0  0  0  0  0  0
   57.3980   31.5340   45.8540 O   0  0  0  0  0  0  0  0  0  0  0  0
   60.2268   34.4103   51.3474 H   0  0  0  0  0  0  0  0  0  0  0  0
   58.4999   34.1501   50.9268 H   0  0  0  0  0  0  0  0  0  0  0  0
   59.6429   32.7644   50.9268 H   0  0  0  0  0  0  0  0  0  0  0  0
   62.0493   33.1030   50.5309 H   0  0  0  0  0  0  0  0  0  0  0  0
   64.1753   32.5200   49.3709 H   0  0  0  0  0  0  0  0  0  0  0  0
   64.3706   32.7957   46.9006 H   0  0  0  0  0  0  0  0  0  0  0  0
   62.4341   33.6419   45.5811 H   0  0  0  0  0  0  0  0  0  0  0  0
   58.4987   33.0096   47.6989 H   0  0  0  0  0  0  0  0  0  0  0  0
   57.5226   34.3734   47.0430 H   0  0  0  0  0  0  0  0  0  0  0  0
   58.1421   34.0484   43.9055 H   0  0  0  0  0  0  0  0  0  0  0  0
   57.2302   31.8556   42.6084 H   0  0  0  0  0  0  0  0  0  0  0  0
   58.0033   27.3185   45.1136 H   0  0  0  0  0  0  0  0  0  0  0  0
   58.6107   27.0280   43.4458 H   0  0  0  0  0  0  0  0  0  0  0  0
   60.5267   27.9404   44.3421 H   0  0  0  0  0  0  0  0  0  0  0  0
   59.6943   29.4709   43.8783 H   0  0  0  0  0  0  0  0  0  0  0  0
   58.3159   27.4202   46.6033 H   0  0  0  0  0  0  0  0  0  0  0  0
   58.2287   28.1940   48.9737 H   0  0  0  0  0  0  0  0  0  0  0  0
   60.8436   31.5000   47.9959 H   0  0  0  0  0  0  0  0  0  0  0  0
   60.9293   30.7350   45.6208 H   0  0  0  0  0  0  0  0  0  0  0  0
  1  2  1  0
  2  3  1  0
  3  4  2  0
  4  5  1  0
  5  6  2  0
  6  7  1  0
  7  8  2  0
  8  9  1  0
  9 10  2  0
  9 11  2  0
  9 12  1  0
 12 13  1  0
 13 14  2  0
 14 15  1  0
 15 16  2  0
 16 17  1  0
 17 18  2  0
 17 19  1  0
 19 20  1  0
 20 21  1  0
 21 22  1  0
 22 23  2  0
 23 24  1  0
 24 25  2  0
 25 26  1  0
 25 27  1  0
 27 28  2  0
 16 29  1  0
  8  3  1  0
 29 13  1  0
 28 22  1  0
  1 30  1  0
  1 31  1  0
  1 32  1  0
  4 33  1  0
  5 34  1  0
  6 35  1  0
  7 36  1  0
 12 37  1  0
 12 38  1  0
 14 39  1  0
 15 40  1  0
 20 41  1  0
 20 42  1  0
 21 43  1  0
 21 44  1  0
 23 45  1  0
 24 46  1  0
 27 47  1  0
 28 48  1  0
M  CHG  1  19  -1
M  END
>  <UniqueID>  (4) 
4

>  <SMILES>  (4) 
COc1ccccc1S(=O)(=O)Cc1ccc(C(=O)[N-]CCc2ccc(Cl)cc2)o1

>  <Energy>  (4) 
64.06046399622045

>  <Genealogy>  (4) 
COc1ccccc1S(=O)(=O)Cc1ccc(C(=O)[N-]CCc2ccc(Cl)cc2)o1 (protonated)
COc1ccccc1S(=O)(=O)Cc1ccc(C(=O)[N-]CCc2ccc(Cl)cc2)o1 (3D coordinates assigned)
COc1ccccc1S(=O)(=O)Cc1ccc(C(=O)[N-]CCc2ccc(Cl)cc2)o1 (optimized conformer: 64.06046399622045 kcal/mol)

>  <smiles>  (4) 
COc1ccccc1S(=O)(=O)Cc1ccc(C(=O)NCCc2ccc(Cl)cc2)o1

>  <score_type>  (4) 
oracle

>  <origin>  (4) 
adg

>  <m_score__min__energy>  (4) 
-11.85

>  <m_primary>  (4) 
energy

$$$$
4:0
     RDKit          3D

 49 52  0  0  0  0  0  0  0  0999 V2000
   56.0940   30.0030   53.3300 C   0  0  0  0  0  0  0  0  0  0  0  0
   57.1360   31.0220   53.1460 N   0  0  0  0  0  0  0  0  0  0  0  0
   57.7190   31.5890   54.2450 C   0  0  0  0  0  0  0  0  0  0  0  0
   58.7330   32.5330   54.1040 C   0  0  0  0  0  0  0  0  0  0  0  0
   59.1530   32.9050   52.8310 C   0  0  0  0  0  0  0  0  0  0  0  0
   58.5560   32.3360   51.6990 C   0  0  0  0  0  0  0  0  0  0  0  0
   59.0200   32.7490   50.3550 C   0  0  0  0  0  0  0  0  0  0  0  0
   60.2130   33.1320   50.2140 O   0  0  0  0  0  0  0  0  0  0  0  0
   58.1280   32.7190   49.2260 N   0  0  0  0  0  0  0  0  0  0  0  0
   58.5030   33.1120   47.8960 C   0  0  0  0  0  0  0  0  0  0  0  0
   59.4270   34.1480   47.6690 C   0  0  0  0  0  0  0  0  0  0  0  0
   59.7520   34.5280   46.3650 C   0  0  0  0  0  0  0  0  0  0  0  0
   59.1550   33.8890   45.2760 C   0  0  0  0  0  0  0  0  0  0  0  0
   58.2220   32.8610   45.4840 C   0  0  0  0  0  0  0  0  0  0  0  0
   57.5660   32.1720   44.3130 C   0  0  0  0  0  0  0  0  0  0  0  0
   57.2030   30.7490   44.6540 C   0  0  0  0  0  0  0  0  0  0  0  0
   55.9010   30.3730   44.5350 N   0  0  0  0  0  0  0  0  0  0  0  0
   55.4860   29.1510   44.8620 N   0  0  0  0  0  0  0  0  0  0  0  0
   56.3410   28.2110   45.3360 C   0  0  0  0  0  0  0  0  0  0  0  0
   55.8990   27.0720   45.6470 O   0  0  0  0  0  0  0  0  0  0  0  0
   57.7020   28.5180   45.4760 C   0  0  0  0  0  0  0  0  0  0  0  0
   58.1420   29.8160   45.1450 C   0  0  0  0  0  0  0  0  0  0  0  0
   59.5350   30.1490   45.2900 N   0  0  0  0  0  0  0  0  0  0  0  0
   60.4450   29.2720   46.0180 C   0  0  0  0  0  0  0  0  0  0  0  0
   60.1240   27.8140   45.6940 C   0  0  0  0  0  0  0  0  0  0  0  0
   58.6670   27.5000   46.0500 C   0  0  0  0  0  0  0  0  0  0  0  0
   57.8870   32.4920   46.7970 C   0  0  0  0  0  0  0  0  0  0  0  0
   57.5510   31.3610   51.8810 C   0  0  0  0  0  0  0  0  0  0  0  0
   57.0530   30.7760   50.8780 O   0  0  0  0  0  0  0  0  0  0  0  0
   55.9268   29.8395   54.4049 H   0  0  0  0  0  0  0  0  0  0  0  0
   55.1595   30.3454   52.8615 H   0  0  0  0  0  0  0  0  0  0  0  0
   56.4154   29.0611   52.8615 H   0  0  0  0  0  0  0  0  0  0  0  0
   57.3836   31.2965   55.2510 H   0  0  0  0  0  0  0  0  0  0  0  0
   59.1990   32.9817   54.9937 H   0  0  0  0  0  0  0  0  0  0  0  0
   59.9558   33.6477   52.7132 H   0  0  0  0  0  0  0  0  0  0  0  0
   57.1660   32.3360   49.3560 H   0  0  0  0  0  0  0  0  0  0  0  0
   59.8954   34.6609   48.5219 H   0  0  0  0  0  0  0  0  0  0  0  0
   60.4811   35.3339   46.1949 H   0  0  0  0  0  0  0  0  0  0  0  0
   59.4169   34.1924   44.2516 H   0  0  0  0  0  0  0  0  0  0  0  0
   56.6523   32.7201   44.0395 H   0  0  0  0  0  0  0  0  0  0  0  0
   58.2757   32.1596   43.4727 H   0  0  0  0  0  0  0  0  0  0  0  0
   59.9410   30.9820   44.8120 H   0  0  0  0  0  0  0  0  0  0  0  0
   61.4810   29.4929   45.7217 H   0  0  0  0  0  0  0  0  0  0  0  0
   60.3262   29.4398   47.0986 H   0  0  0  0  0  0  0  0  0  0  0  0
   60.2815   27.6376   44.6197 H   0  0  0  0  0  0  0  0  0  0  0  0
   60.7855   27.1619   46.2832 H   0  0  0  0  0  0  0  0  0  0  0  0
   58.4117   26.5069   45.6517 H   0  0  0  0  0  0  0  0  0  0  0  0
   58.5746   27.5295   47.1457 H   0  0  0  0  0  0  0  0  0  0  0  0
   57.1337   31.7086   46.9664 H   0  0  0  0  0  0  0  0  0  0  0  0
  1  2  1  0
  2  3  1  0
  3  4  2  0
  4  5  1  0
  5  6  2  0
  6  7  1  0
  7  8  2  0
  7  9  1  0
  9 10  1  0
 10 11  2  0
 11 12  1  0
 12 13  2  0
 13 14  1  0
 14 15  1  0
 15 16  1  0
 16 17  2  0
 17 18  1  0
 18 19  1  0
 19 20  2  0
 19 21  1  0
 21 22  2  0
 22 23  1  0
 23 24  1  0
 24 25  1  0
 25 26  1  0
 14 27  2  0
  6 28  1  0
 28 29  2  0
 28  2  1  0
 27 10  1  0
 22 16  1  0
 26 21  1  0
  1 30  1  0
  1 31  1  0
  1 32  1  0
  3 33  1  0
  4 34  1  0
  5 35  1  0
  9 36  1  0
 11 37  1  0
 12 38  1  0
 13 39  1  0
 15 40  1  0
 15 41  1  0
 23 42  1  0
 24 43  1  0
 24 44  1  0
 25 45  1  0
 25 46  1  0
 26 47  1  0
 26 48  1  0
 27 49  1  0
M  CHG  1  18  -1
M  END
>  <UniqueID>  (5) 
5

>  <SMILES>  (5) 
Cn1cccc(C(=O)Nc2cccc(Cc3n[n-]c(=O)c4c3NCCC4)c2)c1=O

>  <Energy>  (5) 
65.04078943850986

>  <Genealogy>  (5) 
Cn1cccc(C(=O)Nc2cccc(Cc3n[n-]c(=O)c4c3NCCC4)c2)c1=O (protonated)
Cn1cccc(C(=O)Nc2cccc(Cc3n[n-]c(=O)c4c3NCCC4)c2)c1=O (3D coordinates assigned)
Cn1cccc(C(=O)Nc2cccc(Cc3n[n-]c(=O)c4c3NCCC4)c2)c1=O (nonaromatic ring conformer: 65.04078943850986 kcal/mol)

>  <smiles>  (5) 
Cn1cccc(C(=O)Nc2cccc(Cc3n[nH]c(=O)c4c3NCCC4)c2)c1=O

>  <score_type>  (5) 
oracle

>  <origin>  (5) 
adg

>  <m_score__min__energy>  (5) 
-11.369999999999999

>  <m_primary>  (5) 
energy

$$$$
5:0
     RDKit          3D

 47 49  0  0  0  0  0  0  0  0999 V2000
   55.8360   29.7360   43.6650 C   0  0  0  0  0  0  0  0  0  0  0  0
   56.3670   30.7750   44.4790 O   0  0  0  0  0  0  0  0  0  0  0  0
   57.5400   31.4620   44.1540 C   0  0  0  0  0  0  0  0  0  0  0  0
   57.8470   31.6570   42.9470 O   0  0  0  0  0  0  0  0  0  0  0  0
   58.4280   31.9570   45.2290 C   0  0  0  0  0  0  0  0  0  0  0  0
   59.4510   31.1940   45.8090 C   0  0  0  0  0  0  0  0  0  0  0  0
   59.9000   29.8960   45.4080 N   0  0  0  0  0  0  0  0  0  0  0  0
   59.0700   28.7300   45.3550 C   0  0  0  0  0  0  0  0  0  0  0  0
   59.4510   27.7000   44.7380 O   0  0  0  0  0  0  0  0  0  0  0  0
   57.7830   28.7050   46.1170 C   0  0  0  0  0  0  0  0  0  0  0  0
   57.7450   27.5080   47.0680 C   0  0  0  0  0  0  0  0  0  0  0  0
   57.4190   26.2860   46.3300 N   0  0  0  0  0  0  0  0  0  0  0  0
   56.2080   25.9490   45.8340 C   0  0  0  0  0  0  0  0  0  0  0  0
   55.0570   26.7120   45.9960 O   0  0  0  0  0  0  0  0  0  0  0  0
   56.2850   24.7600   45.1380 C   0  0  0  0  0  0  0  0  0  0  0  0
   57.5950   24.3580   45.1950 C   0  0  0  0  0  0  0  0  0  0  0  0
   58.2730   25.3170   45.9220 C   0  0  0  0  0  0  0  0  0  0  0  0
   59.6430   25.2960   46.1810 O   0  0  0  0  0  0  0  0  0  0  0  0
   58.1260   23.1340   44.5230 C   0  0  0  0  0  0  0  0  0  0  0  0
   57.0240   22.3410   43.8490 C   0  0  0  0  0  0  0  0  0  0  0  0
   55.7310   22.7360   43.7970 C   0  0  0  0  0  0  0  0  0  0  0  0
   55.2120   24.0240   44.4040 C   0  0  0  0  0  0  0  0  0  0  0  0
   60.1370   32.0440   47.0790 S   0  0  0  0  0  0  0  0  0  0  0  0
   59.1850   33.4180   46.9040 C   0  0  0  0  0  0  0  0  0  0  0  0
   59.2830   34.6210   47.7860 C   0  0  0  0  0  0  0  0  0  0  0  0
   58.2770   33.2180   45.8560 C   0  0  0  0  0  0  0  0  0  0  0  0
   57.2390   34.2300   45.4590 C   0  0  0  0  0  0  0  0  0  0  0  0
   55.4291   28.9399   44.3058 H   0  0  0  0  0  0  0  0  0  0  0  0
   55.0344   30.1411   43.0299 H   0  0  0  0  0  0  0  0  0  0  0  0
   56.6339   29.3237   43.0299 H   0  0  0  0  0  0  0  0  0  0  0  0
   57.6897   29.6332   46.6999 H   0  0  0  0  0  0  0  0  0  0  0  0
   56.9498   28.6187   45.4040 H   0  0  0  0  0  0  0  0  0  0  0  0
   58.7290   27.3923   47.5459 H   0  0  0  0  0  0  0  0  0  0  0  0
   56.9740   27.6817   47.8331 H   0  0  0  0  0  0  0  0  0  0  0  0
   60.2610   26.0240   45.8460 H   0  0  0  0  0  0  0  0  0  0  0  0
   58.8633   23.4354   43.7643 H   0  0  0  0  0  0  0  0  0  0  0  0
   58.5879   22.4951   45.2901 H   0  0  0  0  0  0  0  0  0  0  0  0
   57.2918   21.3861   43.3731 H   0  0  0  0  0  0  0  0  0  0  0  0
   55.0120   22.0818   43.2823 H   0  0  0  0  0  0  0  0  0  0  0  0
   54.8250   24.6667   43.5996 H   0  0  0  0  0  0  0  0  0  0  0  0
   54.4179   23.7696   45.1215 H   0  0  0  0  0  0  0  0  0  0  0  0
   59.2574   34.3062   48.8397 H   0  0  0  0  0  0  0  0  0  0  0  0
   60.2271   35.1481   47.5837 H   0  0  0  0  0  0  0  0  0  0  0  0
   58.4367   35.2939   47.5837 H   0  0  0  0  0  0  0  0  0  0  0  0
   56.7897   34.6681   46.3624 H   0  0  0  0  0  0  0  0  0  0  0  0
   57.7108   35.0244   44.8620 H   0  0  0  0  0  0  0  0  0  0  0  0
   56.4569   33.7382   44.8620 H   0  0  0  0  0  0  0  0  0  0  0  0
  1  2  1  0
  2  3  1  0
  3  4  2  0
  3  5  1  0
  5  6  2  0
  6  7  1  0
  7  8  1  0
  8  9  2  0
  8 10  1  0
 10 11  1  0
 11 12  1  0
 12 13  1  0
 13 14  1  0
 13 15  2  0
 15 16  1  0
 16 17  2  0
 17 18  1  0
 16 19  1  0
 19 20  1  0
 20 21  2  0
 21 22  1  0
  6 23  1  0
 23 24  1  0
 24 25  1  0
 24 26  2  0
 26 27  1  0
 26  5  1  0
 17 12  1  0
 22 15  1  0
  1 28  1  0
  1 29  1  0
  1 30  1  0
 10 31  1  0
 10 32  1  0
 11 33  1  0
 11 34  1  0
 18 35  1  0
 19 36  1  0
 19 37  1  0
 20 38  1  0
 21 39  1  0
 22 40  1  0
 22 41  1  0
 25 42  1  0
 25 43  1  0
 25 44  1  0
 27 45  1  0
 27 46  1  0
 27 47  1  0
M  CHG  2   7  -1  14  -1
M  END
>  <UniqueID>  (6) 
6

>  <SMILES>  (6) 
COC(=O)c1c([N-]C(=O)CCn2c([O-])c3c(c2O)CC=CC3)sc(C)c1C

>  <Energy>  (6) 
107.44018600370049

>  <Genealogy>  (6) 
COC(=O)c1c([N-]C(=O)CCn2c([O-])c3c(c2O)CC=CC3)sc(C)c1C (protonated)
COC(=O)c1c([N-]C(=O)CCn2c([O-])c3c(c2O)CC=CC3)sc(C)c1C (3D coordinates assigned)
COC(=O)c1c([N-]C(=O)CCn2c([O-])c3c(c2O)CC=CC3)sc(C)c1C (nonaromatic ring conformer: 107.44018600370049 kcal/mol)

>  <smiles>  (6) 
COC(=O)c1c(NC(=O)CCn2c(O)c3c(c2O)CC=CC3)sc(C)c1C

>  <score_type>  (6) 
oracle

>  <origin>  (6) 
adg

>  <m_score__min__energy>  (6) 
-12.800000000000001

>  <m_primary>  (6) 
energy

$$$$
6:0
     RDKit          3D

 55 58  0  0  0  0  0  0  0  0999 V2000
   58.4320   31.3760   51.2240 C   0  0  0  0  0  0  0  0  0  0  0  0
   58.4030   32.8960   52.1180 S   0  0  0  0  0  0  0  0  0  0  0  0
   59.0660   32.7050   53.4660 O   0  0  0  0  0  0  0  0  0  0  0  0
   56.9510   33.2580   52.3690 O   0  0  0  0  0  0  0  0  0  0  0  0
   59.1250   34.2000   51.2560 N   0  0  0  0  0  0  0  0  0  0  0  0
   60.1030   33.9740   50.2450 C   0  0  0  0  0  0  0  0  0  0  0  0
   61.4050   33.8290   50.6570 C   0  0  0  0  0  0  0  0  0  0  0  0
   62.3570   33.6120   49.6900 C   0  0  0  0  0  0  0  0  0  0  0  0
   62.0260   33.5410   48.3490 C   0  0  0  0  0  0  0  0  0  0  0  0
   60.7260   33.6840   47.9140 C   0  0  0  0  0  0  0  0  0  0  0  0
   60.2940   33.6330   46.6320 O   0  0  0  0  0  0  0  0  0  0  0  0
   59.2230   32.9630   46.1230 C   0  0  0  0  0  0  0  0  0  0  0  0
   58.0900   33.4830   45.6460 N   0  0  0  0  0  0  0  0  0  0  0  0
   57.0620   32.7690   45.1540 C   0  0  0  0  0  0  0  0  0  0  0  0
   57.1670   31.4270   45.1310 N   0  0  0  0  0  0  0  0  0  0  0  0
   58.2800   30.7880   45.5920 C   0  0  0  0  0  0  0  0  0  0  0  0
   58.3530   29.3680   45.5510 N   0  0  0  0  0  0  0  0  0  0  0  0
   58.6380   28.6290   44.3280 C   0  0  0  0  0  0  0  0  0  0  0  0
   58.0300   27.2430   44.3690 C   0  0  0  0  0  0  0  0  0  0  0  0
   58.5340   26.4270   45.5130 C   0  0  0  0  0  0  0  0  0  0  0  0
   57.6200   25.4160   45.9070 O   0  0  0  0  0  0  0  0  0  0  0  0
   57.6340   24.2340   45.1500 C   0  0  0  0  0  0  0  0  0  0  0  0
   58.6030   23.3160   45.3630 N   0  0  0  0  0  0  0  0  0  0  0  0
   58.7070   22.1610   44.6980 C   0  0  0  0  0  0  0  0  0  0  0  0
   57.7500   21.8820   43.7190 C   0  0  0  0  0  0  0  0  0  0  0  0
   57.7870   20.7270   43.0000 F   0  0  0  0  0  0  0  0  0  0  0  0
   56.7690   22.8240   43.5140 C   0  0  0  0  0  0  0  0  0  0  0  0
   55.8550   22.6210   42.6200 N   0  0  0  0  0  0  0  0  0  0  0  0
   56.7080   23.9730   44.2090 N   0  0  0  0  0  0  0  0  0  0  0  0
   58.9640   27.2870   46.6580 C   0  0  0  0  0  0  0  0  0  0  0  0
   58.1430   28.5620   46.7490 C   0  0  0  0  0  0  0  0  0  0  0  0
   59.3100   31.5640   46.0890 C   0  0  0  0  0  0  0  0  0  0  0  0
   60.7300   30.7230   46.6760 Cl  0  0  0  0  0  0  0  0  0  0  0  0
   59.7780   33.9030   48.9080 C   0  0  0  0  0  0  0  0  0  0  0  0
   58.4481   30.5344   51.9321 H   0  0  0  0  0  0  0  0  0  0  0  0
   57.5350   31.3057   50.5911 H   0  0  0  0  0  0  0  0  0  0  0  0
   59.3310   31.3399   50.5911 H   0  0  0  0  0  0  0  0  0  0  0  0
   58.8810   35.2070   51.4340 H   0  0  0  0  0  0  0  0  0  0  0  0
   61.6758   33.8845   51.7217 H   0  0  0  0  0  0  0  0  0  0  0  0
   63.4085   33.4918   49.9900 H   0  0  0  0  0  0  0  0  0  0  0  0
   62.8216   33.3657   47.6098 H   0  0  0  0  0  0  0  0  0  0  0  0
   56.1570   33.2695   44.7793 H   0  0  0  0  0  0  0  0  0  0  0  0
   58.2201   29.1785   43.4716 H   0  0  0  0  0  0  0  0  0  0  0  0
   59.7289   28.5271   44.2299 H   0  0  0  0  0  0  0  0  0  0  0  0
   56.9381   27.3402   44.4600 H   0  0  0  0  0  0  0  0  0  0  0  0
   58.3162   26.7268   43.4408 H   0  0  0  0  0  0  0  0  0  0  0  0
   59.4301   25.8989   45.1552 H   0  0  0  0  0  0  0  0  0  0  0  0
   59.5202   21.4527   44.9147 H   0  0  0  0  0  0  0  0  0  0  0  0
   56.0480   22.6060   41.6000 H   0  0  0  0  0  0  0  0  0  0  0  0
   55.9360   24.6700   44.0190 H   0  0  0  0  0  0  0  0  0  0  0  0
   58.8448   26.7199   47.5930 H   0  0  0  0  0  0  0  0  0  0  0  0
   60.0148   27.5692   46.4963 H   0  0  0  0  0  0  0  0  0  0  0  0
   57.0769   28.3052   46.8348 H   0  0  0  0  0  0  0  0  0  0  0  0
   58.4569   29.1353   47.6337 H   0  0  0  0  0  0  0  0  0  0  0  0
   58.7249   34.0246   48.6144 H   0  0  0  0  0  0  0  0  0  0  0  0
  1  2  1  0
  2  3  2  0
  2  4  2  0
  2  5  1  0
  5  6  1  0
  6  7  2  0
  7  8  1  0
  8  9  2  0
  9 10  1  0
 10 11  1  0
 11 12  1  0
 12 13  2  0
 13 14  1  0
 14 15  2  0
 15 16  1  0
 16 17  1  0
 17 18  1  0
 18 19  1  0
 19 20  1  0
 20 21  1  0
 21 22  1  0
 22 23  2  0
 23 24  1  0
 24 25  2  0
 25 26  1  0
 25 27  1  0
 27 28  2  3
 27 29  1  0
 20 30  1  0
 30 31  1  0
 16 32  2  0
 32 33  1  0
 10 34  2  0
 34  6  1  0
 32 12  1  0
 31 17  1  0
 29 22  1  0
  1 35  1  0
  1 36  1  0
  1 37  1  0
  5 38  1  0
  7 39  1  0
  8 40  1  0
  9 41  1  0
 14 42  1  0
 18 43  1  0
 18 44  1  0
 19 45  1  0
 19 46  1  0
 20 47  1  0
 24 48  1  0
 28 49  1  0
 29 50  1  0
 30 51  1  0
 30 52  1  0
 31 53  1  0
 31 54  1  0
 34 55  1  0
M  END
>  <smiles>  (7) 
CS(=O)(=O)Nc1cccc(Oc2ncnc(N3CCC(Oc4ncc(F)c(=N)[nH]4)CC3)c2Cl)c1

>  <score_type>  (7) 
oracle

>  <origin>  (7) 
adg

>  <m_score__min__energy>  (7) 
-9.0800000000000001

>  <m_primary>  (7) 
energy

$$$$
7:0
     RDKit          3D

 31 33  0  0  0  0  0  0  0  0999 V2000
   60.2530   29.1940   45.1500 C   0  0  0  0  0  0  0  0  0  0  0  0
   58.8510   28.7980   45.2540 N   0  0  0  0  0  0  0  0  0  0  0  0
   57.7570   29.5240   44.9110 C   0  0  0  0  0  0  0  0  0  0  0  0
   57.8380   30.8130   44.3770 O   0  0  0  0  0  0  0  0  0  0  0  0
   57.0230   31.8930   44.8260 C   0  0  0  0  0  0  0  0  0  0  0  0
   57.8690   32.9540   45.4750 C   0  0  0  0  0  0  0  0  0  0  0  0
   58.4600   33.9560   44.6890 C   0  0  0  0  0  0  0  0  0  0  0  0
   59.2670   34.9330   45.2810 C   0  0  0  0  0  0  0  0  0  0  0  0
   59.4910   34.9130   46.6600 C   0  0  0  0  0  0  0  0  0  0  0  0
   58.9090   33.9180   47.4490 C   0  0  0  0  0  0  0  0  0  0  0  0
   58.1010   32.9390   46.8610 C   0  0  0  0  0  0  0  0  0  0  0  0
   56.5810   28.8790   45.1390 N   0  0  0  0  0  0  0  0  0  0  0  0
   56.9830   27.7010   45.6510 C   0  0  0  0  0  0  0  0  0  0  0  0
   56.1870   26.6410   46.0750 C   0  0  0  0  0  0  0  0  0  0  0  0
   54.8010   26.7090   45.9980 O   0  0  0  0  0  0  0  0  0  0  0  0
   56.8440   25.5020   46.5830 C   0  0  0  0  0  0  0  0  0  0  0  0
   55.9250   24.1170   47.1410 Cl  0  0  0  0  0  0  0  0  0  0  0  0
   58.2140   25.4680   46.6480 N   0  0  0  0  0  0  0  0  0  0  0  0
   58.9870   26.5140   46.2290 C   0  0  0  0  0  0  0  0  0  0  0  0
   60.2410   26.4460   46.3050 O   0  0  0  0  0  0  0  0  0  0  0  0
   58.3430   27.6460   45.7230 C   0  0  0  0  0  0  0  0  0  0  0  0
   60.6760   29.3135   46.1584 H   0  0  0  0  0  0  0  0  0  0  0  0
   60.8136   28.4191   44.6067 H   0  0  0  0  0  0  0  0  0  0  0  0
   60.3253   30.1477   44.6067 H   0  0  0  0  0  0  0  0  0  0  0  0
   56.4922   32.3282   43.9664 H   0  0  0  0  0  0  0  0  0  0  0  0
   56.3007   31.5123   45.5631 H   0  0  0  0  0  0  0  0  0  0  0  0
   58.2876   33.9728   43.6027 H   0  0  0  0  0  0  0  0  0  0  0  0
   59.7254   35.7173   44.6608 H   0  0  0  0  0  0  0  0  0  0  0  0
   60.1262   35.6815   47.1247 H   0  0  0  0  0  0  0  0  0  0  0  0
   59.0863   33.9042   48.5345 H   0  0  0  0  0  0  0  0  0  0  0  0
   57.6462   32.1556   47.4850 H   0  0  0  0  0  0  0  0  0  0  0  0
  1  2  1  0
  2  3  1  0
  3  4  1  0
  4  5  1  0
  5  6  1  0
  6  7  2  0
  7  8  1  0
  8  9  2  0
  9 10  1  0
 10 11  2  0
  3 12  2  0
 12 13  1  0
 13 14  1  0
 14 15  1  0
 14 16  2  0
 16 17  1  0
 16 18  1  0
 18 19  1  0
 19 20  2  0
 19 21  1  0
 21  2  1  0
 11  6  1  0
 21 13  2  0
  1 22  1  0
  1 23  1  0
  1 24  1  0
  5 25  1  0
  5 26  1  0
  7 27  1  0
  8 28  1  0
  9 29  1  0
 10 30  1  0
 11 31  1  0
M  CHG  2  15  -1  18  -1
M  END
>  <UniqueID>  (8) 
7

>  <SMILES>  (8) 
Cn1c(OCc2ccccc2)nc2c([O-])c(Cl)[n-]c(=O)c21

>  <Energy>  (8) 
71.29695904452187

>  <Genealogy>  (8) 
Cn1c(OCc2ccccc2)nc2c([O-])c(Cl)[n-]c(=O)c21 (protonated)
Cn1c(OCc2ccccc2)nc2c([O-])c(Cl)[n-]c(=O)c21 (3D coordinates assigned)
Cn1c(OCc2ccccc2)nc2c([O-])c(Cl)[n-]c(=O)c21 (optimized conformer: 71.29695904452187 kcal/mol)

>  <smiles>  (8) 
Cn1c(OCc2ccccc2)nc2c(O)c(Cl)[nH]c(=O)c21

>  <score_type>  (8) 
oracle

>  <origin>  (8) 
adg

>  <m_score__min__energy>  (8) 
-12.779999999999999

>  <m_primary>  (8) 
energy

$$$$
8:0
     RDKit          3D

 38 40  0  0  0  0  0  0  0  0999 V2000
   60.9150   28.9130   51.2230 O   0  0  0  0  0  0  0  0  0  0  0  0
   60.0300   29.6810   50.7620 C   0  0  0  0  0  0  0  0  0  0  0  0
   60.2750   30.3340   49.5090 N   0  0  0  0  0  0  0  0  0  0  0  0
   59.4020   30.3330   48.3690 C   0  0  0  0  0  0  0  0  0  0  0  0
   59.0250   31.5260   47.7260 C   0  0  0  0  0  0  0  0  0  0  0  0
   58.1860   31.4880   46.6090 C   0  0  0  0  0  0  0  0  0  0  0  0
   57.7300   30.2610   46.1150 C   0  0  0  0  0  0  0  0  0  0  0  0
   56.8960   30.2240   45.0060 O   0  0  0  0  0  0  0  0  0  0  0  0
   58.1210   29.0710   46.7370 C   0  0  0  0  0  0  0  0  0  0  0  0
   58.9600   29.1080   47.8550 C   0  0  0  0  0  0  0  0  0  0  0  0
   58.7520   29.8400   51.4960 C   0  0  0  0  0  0  0  0  0  0  0  0
   57.7300   30.6450   50.9660 C   0  0  0  0  0  0  0  0  0  0  0  0
   56.5230   30.7990   51.6540 C   0  0  0  0  0  0  0  0  0  0  0  0
   56.3120   30.1500   52.8760 C   0  0  0  0  0  0  0  0  0  0  0  0
   55.0650   30.3510   53.5570 N   0  0  0  0  0  0  0  0  0  0  0  0
   53.7990   29.7730   53.2090 C   0  0  0  0  0  0  0  0  0  0  0  0
   53.4470   28.6710   53.7140 O   0  0  0  0  0  0  0  0  0  0  0  0
   52.9260   30.4420   52.2150 C   0  0  0  0  0  0  0  0  0  0  0  0
   52.8270   29.9440   50.9020 C   0  0  0  0  0  0  0  0  0  0  0  0
   52.0020   30.5750   49.9650 C   0  0  0  0  0  0  0  0  0  0  0  0
   51.2660   31.7050   50.3260 C   0  0  0  0  0  0  0  0  0  0  0  0
   50.4490   32.3260   49.3900 O   0  0  0  0  0  0  0  0  0  0  0  0
   51.3540   32.2100   51.6280 C   0  0  0  0  0  0  0  0  0  0  0  0
   50.6240   33.3350   51.9930 O   0  0  0  0  0  0  0  0  0  0  0  0
   52.1790   31.5820   52.5690 C   0  0  0  0  0  0  0  0  0  0  0  0
   57.3480   29.3770   53.4300 C   0  0  0  0  0  0  0  0  0  0  0  0
   58.5560   29.2240   52.7430 C   0  0  0  0  0  0  0  0  0  0  0  0
   59.3918   32.4919   48.1036 H   0  0  0  0  0  0  0  0  0  0  0  0
   57.8836   32.4244   46.1173 H   0  0  0  0  0  0  0  0  0  0  0  0
   57.7682   28.1051   46.3464 H   0  0  0  0  0  0  0  0  0  0  0  0
   59.2747   28.1689   48.3336 H   0  0  0  0  0  0  0  0  0  0  0  0
   57.8804   31.1571   50.0041 H   0  0  0  0  0  0  0  0  0  0  0  0
   55.7320   31.4359   51.2313 H   0  0  0  0  0  0  0  0  0  0  0  0
   53.4022   29.0527   50.6109 H   0  0  0  0  0  0  0  0  0  0  0  0
   51.9330   30.1797   48.9408 H   0  0  0  0  0  0  0  0  0  0  0  0
   52.2440   31.9819   53.5917 H   0  0  0  0  0  0  0  0  0  0  0  0
   57.2075   28.8912   54.4069 H   0  0  0  0  0  0  0  0  0  0  0  0
   59.3601   28.6158   53.1830 H   0  0  0  0  0  0  0  0  0  0  0  0
  1  2  2  0
  2  3  1  0
  3  4  1  0
  4  5  2  0
  5  6  1  0
  6  7  2  0
  7  8  1  0
  7  9  1  0
  9 10  2  0
  2 11  1  0
 11 12  2  0
 12 13  1  0
 13 14  2  0
 14 15  1  0
 15 16  1  0
 16 17  2  0
 16 18  1  0
 18 19  2  0
 19 20  1  0
 20 21  2  0
 21 22  1  0
 21 23  1  0
 23 24  1  0
 23 25  2  0
 14 26  1  0
 26 27  2  0
 10  4  1  0
 27 11  1  0
 25 18  1  0
  5 28  1  0
  6 29  1  0
  9 30  1  0
 10 31  1  0
 12 32  1  0
 13 33  1  0
 19 34  1  0
 20 35  1  0
 25 36  1  0
 26 37  1  0
 27 38  1  0
M  CHG  5   3  -1   8  -1  15  -1  22  -1  24  -1
M  END
>  <UniqueID>  (9) 
8

>  <SMILES>  (9) 
O=C([N-]c1ccc([O-])cc1)c1ccc([N-]C(=O)c2ccc([O-])c([O-])c2)cc1

>  <Energy>  (9) 
52.878787021305754

>  <Genealogy>  (9) 
O=C([N-]c1ccc([O-])cc1)c1ccc([N-]C(=O)c2ccc([O-])c([O-])c2)cc1 (protonated)
O=C([N-]c1ccc([O-])cc1)c1ccc([N-]C(=O)c2ccc([O-])c([O-])c2)cc1 (3D coordinates assigned)
O=C([N-]c1ccc([O-])cc1)c1ccc([N-]C(=O)c2ccc([O-])c([O-])c2)cc1 (optimized conformer: 52.878787021305754 kcal/mol)

>  <smiles>  (9) 
O=C(Nc1ccc(O)cc1)c1ccc(NC(=O)c2ccc(O)c(O)c2)cc1

>  <score_type>  (9) 
oracle

>  <origin>  (9) 
adg

>  <m_score__min__energy>  (9) 
-18.84

>  <m_primary>  (9) 
energy

$$$$
9:0
     RDKit          3D

 43 45  0  0  1  0  0  0  0  0999 V2000
   58.5540   31.3300   46.7790 C   0  0  0  0  0  0  0  0  0  0  0  0
   58.8980   32.7190   46.4170 C   0  0  0  0  0  0  0  0  0  0  0  0
   59.2910   33.5910   47.4260 C   0  0  0  0  0  0  0  0  0  0  0  0
   59.6230   34.9150   47.1650 C   0  0  0  0  0  0  0  0  0  0  0  0
   59.5550   35.3560   45.8580 C   0  0  0  0  0  0  0  0  0  0  0  0
   59.1650   34.4760   44.8810 C   0  0  0  0  0  0  0  0  0  0  0  0
   58.8290   33.1570   45.1070 C   0  0  0  0  0  0  0  0  0  0  0  0
   58.4400   32.3110   44.0610 O   0  0  0  0  0  0  0  0  0  0  0  0
   57.0760   31.9480   44.0230 C   0  0  0  0  0  0  0  0  0  0  0  0
   56.8090   30.5350   44.3000 C   0  0  0  0  0  0  0  0  0  0  0  0
   55.7610   30.1040   44.8410 O   0  0  0  0  0  0  0  0  0  0  0  0
   57.8360   29.5970   43.9130 N   0  0  0  0  0  0  0  0  0  0  0  0
   57.7590   28.2240   44.0970 C   0  0  0  0  0  0  0  0  0  0  0  0
   57.8320   27.3990   42.9840 C   0  0  0  0  0  0  0  0  0  0  0  0
   57.7740   26.0080   43.1130 C   0  0  0  0  0  0  0  0  0  0  0  0
   57.6420   25.4330   44.3510 C   0  0  0  0  0  0  0  0  0  0  0  0
   57.5910   23.9660   44.3960 C   0  0  0  0  0  0  0  0  0  0  0  0
   57.1390   23.3190   43.4350 O   0  0  0  0  0  0  0  0  0  0  0  0
   58.0640   23.2860   45.5490 N   0  0  0  0  0  0  0  0  0  0  0  0
   57.6940   22.0680   45.7790 C   0  0  0  0  0  0  0  0  0  0  0  0
   57.3400   21.5070   46.9620 N   0  0  0  0  0  0  0  0  0  0  0  0
   57.0320   20.2220   46.7120 C   0  0  0  0  0  0  0  0  0  0  0  0
   57.2030   20.0250   45.3950 N   0  0  0  0  0  0  0  0  0  0  0  0
   57.6110   21.1450   44.7960 N   0  0  0  0  0  0  0  0  0  0  0  0
   57.5680   26.2190   45.4570 C   0  0  0  0  0  0  0  0  0  0  0  0
   57.6270   27.5860   45.3160 C   0  0  0  0  0  0  0  0  0  0  0  0
   58.5297   31.2318   47.8743 H   0  0  0  0  0  0  0  0  0  0  0  0
   57.5662   31.0774   46.3662 H   0  0  0  0  0  0  0  0  0  0  0  0
   59.3098   30.6456   46.3662 H   0  0  0  0  0  0  0  0  0  0  0  0
   59.3406   33.2222   48.4611 H   0  0  0  0  0  0  0  0  0  0  0  0
   59.9309   35.5918   47.9756 H   0  0  0  0  0  0  0  0  0  0  0  0
   59.8094   36.3958   45.6048 H   0  0  0  0  0  0  0  0  0  0  0  0
   59.1168   34.8471   43.8466 H   0  0  0  0  0  0  0  0  0  0  0  0
   56.5405   32.5506   44.7713 H   0  0  0  0  0  0  0  0  0  0  0  0
   56.7351   32.1317   42.9934 H   0  0  0  0  0  0  0  0  0  0  0  0
   58.7260   29.9740   43.4520 H   0  0  0  0  0  0  0  0  0  0  0  0
   57.9371   27.8462   41.9845 H   0  0  0  0  0  0  0  0  0  0  0  0
   57.8345   25.3720   42.2175 H   0  0  0  0  0  0  0  0  0  0  0  0
   56.7022   19.4736   47.4477 H   0  0  0  0  0  0  0  0  0  0  0  0
   57.0610   19.1480   44.8310 H   0  0  0  0  0  0  0  0  0  0  0  0
   57.8200   21.2900   43.8010 H   0  0  0  0  0  0  0  0  0  0  0  0
   57.4621   25.7670   46.4542 H   0  0  0  0  0  0  0  0  0  0  0  0
   57.5658   28.2053   46.2230 H   0  0  0  0  0  0  0  0  0  0  0  0
  1  2  1  0
  2  3  2  0
  3  4  1  0
  4  5  2  0
  5  6  1  0
  6  7  2  0
  7  8  1  0
  8  9  1  0
  9 10  1  0
 10 11  2  0
 10 12  1  0
 12 13  1  0
 13 14  2  0
 14 15  1  0
 15 16  2  0
 16 17  1  0
 17 18  2  0
 17 19  1  0
 19 20  2  0
 20 21  1  0
 21 22  2  0
 22 23  1  0
 23 24  1  0
 16 25  1  0
 25 26  2  0
  7  2  1  0
 26 13  1  0
 24 20  1  0
  1 27  1  0
  1 28  1  0
  1 29  1  0
  3 30  1  0
  4 31  1  0
  5 32  1  0
  6 33  1  0
  9 34  1  0
  9 35  1  0
 12 36  1  0
 14 37  1  0
 15 38  1  0
 22 39  1  0
 23 40  1  0
 24 41  1  0
 25 42  1  0
 26 43  1  0
M  END
>  <smiles>  (10) 
Cc1ccccc1OCC(=O)Nc1ccc(C(=O)N=c2nc[nH][nH]2)cc1

>  <score_type>  (10) 
oracle

>  <origin>  (10) 
adg

>  <m_score__min__energy>  (10) 
-8.7899999999999991

>  <m_primary>  (10) 
energy

$$$$
10:0
     RDKit          3D

 45 48  0  0  0  0  0  0  0  0999 V2000
   57.2600   34.1230   46.3240 N   0  0  0  0  0  0  0  0  0  0  0  0
   58.2510   33.6220   46.6520 C   0  0  0  0  0  0  0  0  0  0  0  0
   59.4850   32.9980   47.0600 C   0  0  0  0  0  0  0  0  0  0  0  0
   60.2080   33.5530   48.1240 C   0  0  0  0  0  0  0  0  0  0  0  0
   61.3770   32.9340   48.5860 C   0  0  0  0  0  0  0  0  0  0  0  0
   62.2710   33.6290   49.9340 S   0  0  0  0  0  0  0  0  0  0  0  0
   63.5020   32.8060   50.1950 O   0  0  0  0  0  0  0  0  0  0  0  0
   62.6760   35.0350   49.5890 O   0  0  0  0  0  0  0  0  0  0  0  0
   61.2480   33.6300   51.3370 N   0  0  0  0  0  0  0  0  0  0  0  0
   60.1260   32.9840   51.4790 C   0  0  0  0  0  0  0  0  0  0  0  0
   59.0070   33.5400   52.1290 C   0  0  0  0  0  0  0  0  0  0  0  0
   57.8360   32.7890   52.2460 C   0  0  0  0  0  0  0  0  0  0  0  0
   57.7710   31.4900   51.7200 C   0  0  0  0  0  0  0  0  0  0  0  0
   56.5710   30.7030   51.8320 N   0  0  0  0  0  0  0  0  0  0  0  0
   55.4470   31.2420   51.7540 O   0  0  0  0  0  0  0  0  0  0  0  0
   56.6420   29.3430   52.0280 O   0  0  0  0  0  0  0  0  0  0  0  0
   58.9080   30.9740   51.0810 C   0  0  0  0  0  0  0  0  0  0  0  0
   60.0380   31.7220   50.9790 N   0  0  0  0  0  0  0  0  0  0  0  0
   61.8090   31.7400   47.9950 C   0  0  0  0  0  0  0  0  0  0  0  0
   61.0920   31.1820   46.9330 C   0  0  0  0  0  0  0  0  0  0  0  0
   59.9420   31.8120   46.4440 C   0  0  0  0  0  0  0  0  0  0  0  0
   59.2580   31.2180   45.3740 O   0  0  0  0  0  0  0  0  0  0  0  0
   58.5350   30.0190   45.4530 C   0  0  0  0  0  0  0  0  0  0  0  0
   59.0970   28.9430   46.1470 C   0  0  0  0  0  0  0  0  0  0  0  0
   58.4130   27.7280   46.2490 C   0  0  0  0  0  0  0  0  0  0  0  0
   57.1530   27.5680   45.6450 C   0  0  0  0  0  0  0  0  0  0  0  0
   56.4260   26.2840   45.7530 C   0  0  0  0  0  0  0  0  0  0  0  0
   55.0940   26.2010   45.9630 N   0  0  0  0  0  0  0  0  0  0  0  0
   54.8500   24.8800   45.9940 C   0  0  0  0  0  0  0  0  0  0  0  0
   56.0260   24.1980   45.8040 C   0  0  0  0  0  0  0  0  0  0  0  0
   57.0290   25.0790   45.6510 N   0  0  0  0  0  0  0  0  0  0  0  0
   56.5960   28.6460   44.9370 C   0  0  0  0  0  0  0  0  0  0  0  0
   57.2820   29.8600   44.8360 C   0  0  0  0  0  0  0  0  0  0  0  0
   59.8558   34.4803   48.5995 H   0  0  0  0  0  0  0  0  0  0  0  0
   59.0554   34.5586   52.5415 H   0  0  0  0  0  0  0  0  0  0  0  0
   56.9594   33.2181   52.7534 H   0  0  0  0  0  0  0  0  0  0  0  0
   58.8849   29.9580   50.6600 H   0  0  0  0  0  0  0  0  0  0  0  0
   62.7151   31.2400   48.3677 H   0  0  0  0  0  0  0  0  0  0  0  0
   61.4341   30.2407   46.4781 H   0  0  0  0  0  0  0  0  0  0  0  0
   60.0856   29.0535   46.6166 H   0  0  0  0  0  0  0  0  0  0  0  0
   58.8629   26.8922   46.8049 H   0  0  0  0  0  0  0  0  0  0  0  0
   53.8636   24.4180   46.1474 H   0  0  0  0  0  0  0  0  0  0  0  0
   56.1308   23.1032   45.7807 H   0  0  0  0  0  0  0  0  0  0  0  0
   55.6120   28.5340   44.4582 H   0  0  0  0  0  0  0  0  0  0  0  0
   56.8395   30.6940   44.2715 H   0  0  0  0  0  0  0  0  0  0  0  0
  1  2  3  0
  2  3  1  0
  3  4  2  0
  4  5  1  0
  5  6  1  0
  6  7  2  0
  6  8  2  0
  6  9  1  0
  9 10  2  3
 10 11  1  0
 11 12  2  0
 12 13  1  0
 13 14  1  0
 14 15  2  0
 14 16  1  0
 13 17  2  0
 17 18  1  0
  5 19  2  0
 19 20  1  0
 20 21  2  0
 21 22  1  0
 22 23  1  0
 23 24  2  0
 24 25  1  0
 25 26  2  0
 26 27  1  0
 27 28  2  0
 28 29  1  0
 29 30  2  0
 30 31  1  0
 26 32  1  0
 32 33  2  0
 21  3  1  0
 33 23  1  0
 18 10  1  0
 31 27  1  0
  4 34  1  0
 11 35  1  0
 12 36  1  0
 17 37  1  0
 19 38  1  0
 20 39  1  0
 24 40  1  0
 25 41  1  0
 29 42  1  0
 30 43  1  0
 32 44  1  0
 33 45  1  0
M  CHG  4  14   1  16  -1  18  -1  31  -1
M  END
>  <UniqueID>  (11) 
9

>  <SMILES>  (11) 
N#Cc1cc(S(=O)(=O)N=c2ccc([N+](=O)[O-])c[n-]2)ccc1Oc1ccc(-c2ncc[n-]2)cc1

>  <Energy>  (11) 
93.72257731098215

>  <Genealogy>  (11) 
N#Cc1cc(S(=O)(=O)N=c2ccc([N+](=O)[O-])c[n-]2)ccc1Oc1ccc(-c2ncc[n-]2)cc1 (protonated)
N#Cc1cc(S(=O)(=O)N=c2ccc([N+](=O)[O-])c[n-]2)ccc1Oc1ccc(-c2ncc[n-]2)cc1 (3D coordinates assigned)
N#Cc1cc(S(=O)(=O)N=c2ccc([N+](=O)[O-])c[n-]2)ccc1Oc1ccc(-c2ncc[n-]2)cc1 (optimized conformer: 93.72257731098215 kcal/mol)

>  <smiles>  (11) 
N#Cc1cc(S(=O)(=O)N=c2ccc([N+](=O)[O-])c[nH]2)ccc1Oc1ccc(-c2ncc[nH]2)cc1

>  <score_type>  (11) 
oracle

>  <origin>  (11) 
adg

>  <m_score__min__energy>  (11) 
-12.27

>  <m_primary>  (11) 
energy

$$$$
11:0
     RDKit          3D

 55 57  0  0  0  0  0  0  0  0999 V2000
   50.7051   28.1287   52.9700 H   0  0  0  0  0  0  0  0  0  0  0  0
   51.4460   28.8840   52.6690 C   0  0  0  0  0  0  0  0  0  0  0  0
   51.0320   30.0750   52.1640 N   0  0  0  0  0  0  0  0  0  0  0  0
   51.9040   31.0450   51.7770 C   0  0  0  0  0  0  0  0  0  0  0  0
   51.4120   32.3340   51.2180 C   0  0  0  0  0  0  0  0  0  0  0  0
   51.4040   32.4860   49.9680 O   0  0  0  0  0  0  0  0  0  0  0  0
   50.9620   33.4340   52.0260 N   0  0  0  0  0  0  0  0  0  0  0  0
   49.9960   33.4200   53.1200 C   0  0  0  0  0  0  0  0  0  0  0  0
   49.0950   32.8761   52.8002 H   0  0  0  0  0  0  0  0  0  0  0  0
   49.7402   34.4573   53.3817 H   0  0  0  0  0  0  0  0  0  0  0  0
   50.5880   32.7330   54.3480 C   0  0  0  0  0  0  0  0  0  0  0  0
   50.1856   33.2000   55.2590 H   0  0  0  0  0  0  0  0  0  0  0  0
   50.3221   31.6657   54.3349 H   0  0  0  0  0  0  0  0  0  0  0  0
   51.6829   32.8383   54.3349 H   0  0  0  0  0  0  0  0  0  0  0  0
   53.2850   30.8030   51.8920 C   0  0  0  0  0  0  0  0  0  0  0  0
   54.0042   31.5714   51.5721 H   0  0  0  0  0  0  0  0  0  0  0  0
   53.7480   29.5880   52.4120 C   0  0  0  0  0  0  0  0  0  0  0  0
   55.0360   29.4090   52.5230 N   0  0  0  0  0  0  0  0  0  0  0  0
   56.0460   30.4110   52.8670 C   0  0  0  0  0  0  0  0  0  0  0  0
   55.5951   31.1636   53.5305 H   0  0  0  0  0  0  0  0  0  0  0  0
   56.8837   29.9065   53.3708 H   0  0  0  0  0  0  0  0  0  0  0  0
   56.5780   31.1050   51.6110 C   0  0  0  0  0  0  0  0  0  0  0  0
   55.9548   30.8251   50.7488 H   0  0  0  0  0  0  0  0  0  0  0  0
   56.5435   32.1944   51.7591 H   0  0  0  0  0  0  0  0  0  0  0  0
   57.9940   30.6890   51.3550 C   0  0  0  0  0  0  0  0  0  0  0  0
   58.5320   29.8280   52.1010 O   0  0  0  0  0  0  0  0  0  0  0  0
   58.7070   31.2310   50.2350 N   0  0  0  0  0  0  0  0  0  0  0  0
   58.3070   32.0610   49.7400 H   0  0  0  0  0  0  0  0  0  0  0  0
   59.9530   30.6550   49.7330 C   0  0  0  0  0  0  0  0  0  0  0  0
   60.5792   31.4537   49.3088 H   0  0  0  0  0  0  0  0  0  0  0  0
   60.4855   30.1656   50.5618 H   0  0  0  0  0  0  0  0  0  0  0  0
   59.6530   29.6360   48.6660 C   0  0  0  0  0  0  0  0  0  0  0  0
   60.4110   28.4570   48.5890 C   0  0  0  0  0  0  0  0  0  0  0  0
   61.2384   28.2914   49.2946 H   0  0  0  0  0  0  0  0  0  0  0  0
   60.1200   27.4930   47.6210 C   0  0  0  0  0  0  0  0  0  0  0  0
   60.7081   26.5645   47.5765 H   0  0  0  0  0  0  0  0  0  0  0  0
   59.0840   27.7060   46.7100 C   0  0  0  0  0  0  0  0  0  0  0  0
   58.8502   26.9371   45.9589 H   0  0  0  0  0  0  0  0  0  0  0  0
   58.3410   28.8910   46.7460 C   0  0  0  0  0  0  0  0  0  0  0  0
   57.3060   29.0680   45.8150 O   0  0  0  0  0  0  0  0  0  0  0  0
   57.3530   29.9240   44.7040 C   0  0  0  0  0  0  0  0  0  0  0  0
   56.6440   29.6470   43.5200 C   0  0  0  0  0  0  0  0  0  0  0  0
   56.0484   28.7256   43.4407 H   0  0  0  0  0  0  0  0  0  0  0  0
   56.6940   30.5390   42.4440 C   0  0  0  0  0  0  0  0  0  0  0  0
   56.1435   30.3146   41.5185 H   0  0  0  0  0  0  0  0  0  0  0  0
   57.4430   31.7160   42.5430 C   0  0  0  0  0  0  0  0  0  0  0  0
   57.4848   32.4148   41.6945 H   0  0  0  0  0  0  0  0  0  0  0  0
   58.1390   32.0040   43.7220 C   0  0  0  0  0  0  0  0  0  0  0  0
   58.7259   32.9309   43.8013 H   0  0  0  0  0  0  0  0  0  0  0  0
   58.0890   31.1140   44.8000 C   0  0  0  0  0  0  0  0  0  0  0  0
   58.6301   31.3488   45.7285 H   0  0  0  0  0  0  0  0  0  0  0  0
   58.6180   29.8500   47.7380 C   0  0  0  0  0  0  0  0  0  0  0  0
   58.0213   30.7728   47.7879 H   0  0  0  0  0  0  0  0  0  0  0  0
   52.8070   28.6160   52.8070 C   0  0  0  0  0  0  0  0  0  0  0  0
   53.1437   27.6540   53.2207 H   0  0  0  0  0  0  0  0  0  0  0  0
  1  2  1  0
  2  3  1  0
  3  4  1  0
  4  5  1  0
  5  6  2  0
  5  7  1  0
  7  8  1  0
  8  9  1  0
  8 10  1  0
  8 11  1  0
 11 12  1  0
 11 13  1  0
 11 14  1  0
  4 15  2  0
 15 16  1  0
 15 17  1  0
 17 18  2  0
 18 19  1  0
 19 20  1  0
 19 21  1  0
 19 22  1  0
 22 23  1  0
 22 24  1  0
 22 25  1  0
 25 26  2  0
 25 27  1  0
 27 28  1  0
 27 29  1  0
 29 30  1  0
 29 31  1  0
 29 32  1  0
 32 33  2  0
 33 34  1  0
 33 35  1  0
 35 36  1  0
 35 37  2  0
 37 38  1  0
 37 39  1  0
 39 40  1  0
 40 41  1  0
 41 42  2  0
 42 43  1  0
 42 44  1  0
 44 45  1  0
 44 46  2  0
 46 47  1  0
 46 48  1  0
 48 49  1  0
 48 50  2  0
 50 51  1  0
 39 52  2  0
 52 53  1  0
 17 54  1  0
 54 55  1  0
 54  2  2  0
 52 32  1  0
 50 41  1  0
M  CHG  2   3  -1   7  -1
M  END
>  <UniqueID>  (12) 
10

>  <SMILES>  (12) 
CC[N-]C(=O)c1c/c(=N/CCC(=O)NCc2cccc(Oc3ccccc3)c2)cc[n-]1

>  <Energy>  (12) 
62.08438974072757

>  <Genealogy>  (12) 
CC[N-]C(=O)c1cc(=NCCC(=O)NCc2cccc(Oc3ccccc3)c2)cc[n-]1 (protonated)
CC[N-]C(=O)c1c/c(=N/CCC(=O)NCc2cccc(Oc3ccccc3)c2)cc[n-]1 (cis-trans isomerization)
CC[N-]C(=O)c1c/c(=N/CCC(=O)NCc2cccc(Oc3ccccc3)c2)cc[n-]1 (3D coordinates assigned)
CC[N-]C(=O)c1c/c(=N/CCC(=O)NCc2cccc(Oc3ccccc3)c2)cc[n-]1 (optimized conformer: 62.08438974072757 kcal/mol)

>  <smiles>  (12) 
CCNC(=O)c1cc(=NCCC(=O)NCc2cccc(Oc3ccccc3)c2)cc[nH]1

>  <score_type>  (12) 
oracle

>  <origin>  (12) 
adg

>  <m_score__min__energy>  (12) 
-12.67

>  <m_primary>  (12) 
energy

$$$$
12:0
     RDKit          3D

 40 42  0  0  1  0  0  0  0  0999 V2000
   58.1430   26.8210   43.7210 C   0  0  0  0  0  0  0  0  0  0  0  0
   58.6420   27.4630   44.9570 C   0  0  0  0  0  0  0  0  0  0  0  0
   59.2130   26.6310   45.9110 C   0  0  0  0  0  0  0  0  0  0  0  0
   59.6970   27.1710   47.0840 C   0  0  0  0  0  0  0  0  0  0  0  0
   59.5990   28.5440   47.2860 C   0  0  0  0  0  0  0  0  0  0  0  0
   59.0430   29.3990   46.3700 C   0  0  0  0  0  0  0  0  0  0  0  0
   58.8950   30.7880   46.5210 N   0  0  0  0  0  0  0  0  0  0  0  0
   59.9110   31.7360   46.7240 C   0  0  0  0  0  0  0  0  0  0  0  0
   61.1220   31.4930   47.3200 C   0  0  0  0  0  0  0  0  0  0  0  0
   62.1060   32.4500   47.4850 C   0  0  0  0  0  0  0  0  0  0  0  0
   63.6280   32.0300   48.2630 Cl  0  0  0  0  0  0  0  0  0  0  0  0
   61.8910   33.7370   47.0380 C   0  0  0  0  0  0  0  0  0  0  0  0
   60.7020   34.0140   46.4440 C   0  0  0  0  0  0  0  0  0  0  0  0
   59.7140   33.0530   46.2780 C   0  0  0  0  0  0  0  0  0  0  0  0
   58.2020   33.4740   45.5040 S   0  0  0  0  0  0  0  0  0  0  0  0
   57.0260   33.0320   46.3280 O   0  0  0  0  0  0  0  0  0  0  0  0
   58.1160   34.9670   45.4140 O   0  0  0  0  0  0  0  0  0  0  0  0
   58.1330   32.8430   43.9050 N   0  0  0  0  0  0  0  0  0  0  0  0
   57.3970   31.8100   43.6680 C   0  0  0  0  0  0  0  0  0  0  0  0
   57.2920   31.2310   42.4190 C   0  0  0  0  0  0  0  0  0  0  0  0
   56.4920   30.1350   42.2440 C   0  0  0  0  0  0  0  0  0  0  0  0
   55.8010   29.6040   43.2640 N   0  0  0  0  0  0  0  0  0  0  0  0
   55.8940   30.1610   44.4940 C   0  0  0  0  0  0  0  0  0  0  0  0
   56.6860   31.2460   44.6670 N   0  0  0  0  0  0  0  0  0  0  0  0
   58.5610   28.8200   45.1890 C   0  0  0  0  0  0  0  0  0  0  0  0
   57.4876   25.9778   43.9847 H   0  0  0  0  0  0  0  0  0  0  0  0
   57.5761   27.5551   43.1297 H   0  0  0  0  0  0  0  0  0  0  0  0
   58.9943   26.4528   43.1297 H   0  0  0  0  0  0  0  0  0  0  0  0
   59.2789   25.5476   45.7321 H   0  0  0  0  0  0  0  0  0  0  0  0
   60.1538   26.5256   47.8487 H   0  0  0  0  0  0  0  0  0  0  0  0
   59.9863   28.9638   48.2261 H   0  0  0  0  0  0  0  0  0  0  0  0
   57.8920   31.1460   46.4730 H   0  0  0  0  0  0  0  0  0  0  0  0
   61.3223   30.4762   47.6887 H   0  0  0  0  0  0  0  0  0  0  0  0
   62.6592   34.5150   47.1590 H   0  0  0  0  0  0  0  0  0  0  0  0
   60.5150   35.0356   46.0816 H   0  0  0  0  0  0  0  0  0  0  0  0
   57.8494   31.6493   41.5679 H   0  0  0  0  0  0  0  0  0  0  0  0
   56.4137   29.6795   41.2458 H   0  0  0  0  0  0  0  0  0  0  0  0
   55.1810   28.7700   43.1700 H   0  0  0  0  0  0  0  0  0  0  0  0
   55.3342   29.7384   45.3413 H   0  0  0  0  0  0  0  0  0  0  0  0
   58.1048   29.4663   44.4247 H   0  0  0  0  0  0  0  0  0  0  0  0
  1  2  1  0
  2  3  2  0
  3  4  1  0
  4  5  2  0
  5  6  1  0
  6  7  1  0
  7  8  1  0
  8  9  2  0
  9 10  1  0
 10 11  1  0
 10 12  2  0
 12 13  1  0
 13 14  2  0
 14 15  1  0
 15 16  2  0
 15 17  2  0
 15 18  1  0
 18 19  2  0
 19 20  1  0
 20 21  2  0
 21 22  1  0
 22 23  1  0
 23 24  2  0
  6 25  2  0
 25  2  1  0
 14  8  1  0
 24 19  1  0
  1 26  1  0
  1 27  1  0
  1 28  1  0
  3 29  1  0
  4 30  1  0
  5 31  1  0
  7 32  1  0
  9 33  1  0
 12 34  1  0
 13 35  1  0
 20 36  1  0
 21 37  1  0
 22 38  1  0
 23 39  1  0
 25 40  1  0
M  END
>  <smiles>  (13) 
Cc1cccc(Nc2cc(Cl)ccc2S(=O)(=O)N=c2cc[nH]cn2)c1

>  <score_type>  (13) 
oracle

>  <origin>  (13) 
adg

>  <m_score__min__energy>  (13) 
-8.0999999999999996

>  <m_primary>  (13) 
energy

$$$$
13:0
     RDKit          3D

 39 41  0  0  0  0  0  0  0  0999 V2000
   54.8032   24.7448   46.2701 H   0  0  0  0  0  0  0  0  0  0  0  0
   55.6870   25.3410   45.9990 C   0  0  0  0  0  0  0  0  0  0  0  0
   55.6140   26.6960   45.9880 N   0  0  0  0  0  0  0  0  0  0  0  0
   56.6700   27.4900   45.6570 C   0  0  0  0  0  0  0  0  0  0  0  0
   56.4590   28.7770   45.6260 N   0  0  0  0  0  0  0  0  0  0  0  0
   56.2780   29.6370   44.4950 C   0  0  0  0  0  0  0  0  0  0  0  0
   55.1290   30.0810   44.2350 O   0  0  0  0  0  0  0  0  0  0  0  0
   57.3930   29.8430   43.5100 C   0  0  0  0  0  0  0  0  0  0  0  0
   58.3356   29.4898   43.9535 H   0  0  0  0  0  0  0  0  0  0  0  0
   57.1638   29.2768   42.5952 H   0  0  0  0  0  0  0  0  0  0  0  0
   57.5600   31.6080   43.0780 S   0  0  0  0  0  0  0  0  0  0  0  0
   57.6130   32.1670   44.7790 C   0  0  0  0  0  0  0  0  0  0  0  0
   57.0500   33.3110   45.2120 N   0  0  0  0  0  0  0  0  0  0  0  0
   57.3210   33.3870   46.5060 N   0  0  0  0  0  0  0  0  0  0  0  0
   58.0410   32.2890   46.8050 C   0  0  0  0  0  0  0  0  0  0  0  0
   58.5450   31.9640   48.1690 C   0  0  0  0  0  0  0  0  0  0  0  0
   57.7358   31.5135   48.7625 H   0  0  0  0  0  0  0  0  0  0  0  0
   59.3805   31.2524   48.0943 H   0  0  0  0  0  0  0  0  0  0  0  0
   59.0000   33.1860   48.8150 N   0  0  0  0  0  0  0  0  0  0  0  0
   59.8660   34.1290   48.1760 C   0  0  0  0  0  0  0  0  0  0  0  0
   59.3810   35.1950   47.7050 O   0  0  0  0  0  0  0  0  0  0  0  0
   61.3250   33.8680   48.0670 C   0  0  0  0  0  0  0  0  0  0  0  0
   62.1050   33.7590   49.2370 C   0  0  0  0  0  0  0  0  0  0  0  0
   61.6283   33.8718   50.2219 H   0  0  0  0  0  0  0  0  0  0  0  0
   63.4780   33.5090   49.1570 C   0  0  0  0  0  0  0  0  0  0  0  0
   64.0754   33.4249   50.0768 H   0  0  0  0  0  0  0  0  0  0  0  0
   64.0920   33.3660   47.9120 C   0  0  0  0  0  0  0  0  0  0  0  0
   65.1722   33.1673   47.8510 H   0  0  0  0  0  0  0  0  0  0  0  0
   63.3360   33.4750   46.7450 C   0  0  0  0  0  0  0  0  0  0  0  0
   63.8241   33.3660   45.7652 H   0  0  0  0  0  0  0  0  0  0  0  0
   61.9610   33.7220   46.8130 C   0  0  0  0  0  0  0  0  0  0  0  0
   61.2670   33.8230   45.6510 F   0  0  0  0  0  0  0  0  0  0  0  0
   58.2160   31.5300   45.7510 O   0  0  0  0  0  0  0  0  0  0  0  0
   57.9220   26.8760   45.3700 C   0  0  0  0  0  0  0  0  0  0  0  0
   59.4480   27.7450   45.2080 Cl  0  0  0  0  0  0  0  0  0  0  0  0
   58.0010   25.4780   45.3650 C   0  0  0  0  0  0  0  0  0  0  0  0
   58.9541   24.9860   45.1209 H   0  0  0  0  0  0  0  0  0  0  0  0
   56.8810   24.7050   45.6670 C   0  0  0  0  0  0  0  0  0  0  0  0
   56.9860   22.9540   45.6760 Cl  0  0  0  0  0  0  0  0  0  0  0  0
  1  2  1  0
  2  3  1  0
  3  4  1  0
  4  5  2  0
  5  6  1  0
  6  7  2  0
  6  8  1  0
  8  9  1  0
  8 10  1  0
  8 11  1  0
 11 12  1  0
 12 13  2  0
 13 14  1  0
 14 15  2  0
 15 16  1  0
 16 17  1  0
 16 18  1  0
 16 19  1  0
 19 20  1  0
 20 21  2  0
 20 22  1  0
 22 23  2  0
 23 24  1  0
 23 25  1  0
 25 26  1  0
 25 27  2  0
 27 28  1  0
 27 29  1  0
 29 30  1  0
 29 31  2  0
 31 32  1  0
 15 33  1  0
  4 34  1  0
 34 35  1  0
 34 36  2  0
 36 37  1  0
 36 38  1  0
 38 39  1  0
 38  2  2  0
 33 12  1  0
 31 22  1  0
M  CHG  2   3  -1  19  -1
M  END
>  <UniqueID>  (14) 
11

>  <SMILES>  (14) 
O=C(CSc1nnc(C[N-]C(=O)c2ccccc2F)o1)/N=c1/[n-]cc(Cl)cc1Cl

>  <Energy>  (14) 
86.50158213706821

>  <Genealogy>  (14) 
O=C(CSc1nnc(C[N-]C(=O)c2ccccc2F)o1)N=c1[n-]cc(Cl)cc1Cl (protonated)
O=C(CSc1nnc(C[N-]C(=O)c2ccccc2F)o1)/N=c1/[n-]cc(Cl)cc1Cl (cis-trans isomerization)
O=C(CSc1nnc(C[N-]C(=O)c2ccccc2F)o1)/N=c1/[n-]cc(Cl)cc1Cl (3D coordinates assigned)
O=C(CSc1nnc(C[N-]C(=O)c2ccccc2F)o1)/N=c1/[n-]cc(Cl)cc1Cl (optimized conformer: 86.50158213706821 kcal/mol)

>  <smiles>  (14) 
O=C(CSc1nnc(CNC(=O)c2ccccc2F)o1)N=c1[nH]cc(Cl)cc1Cl

>  <score_type>  (14) 
oracle

>  <origin>  (14) 
adg

>  <m_score__min__energy>  (14) 
-12.550000000000001

>  <m_primary>  (14) 
energy

$$$$
14:0
     RDKit          3D

 50 51  0  0  0  0  0  0  0  0999 V2000
   57.2910   32.3170   40.8950 C   0  0  0  0  0  0  0  0  0  0  0  0
   58.1880   32.6500   42.0820 C   0  0  0  0  0  0  0  0  0  0  0  0
   58.3530   31.4380   43.0070 C   0  0  0  0  0  0  0  0  0  0  0  0
   57.6510   31.6410   44.2850 N   0  0  0  0  0  0  0  0  0  0  0  0
   56.2680   31.1830   44.4910 C   0  0  0  0  0  0  0  0  0  0  0  0
   56.2280   29.7330   44.8580 C   0  0  0  0  0  0  0  0  0  0  0  0
   55.3890   28.9710   44.3040 O   0  0  0  0  0  0  0  0  0  0  0  0
   57.1700   29.2220   45.8120 N   0  0  0  0  0  0  0  0  0  0  0  0
   57.7460   27.9060   45.8210 C   0  0  0  0  0  0  0  0  0  0  0  0
   59.1340   27.7070   45.7050 C   0  0  0  0  0  0  0  0  0  0  0  0
   59.6620   26.4140   45.6830 C   0  0  0  0  0  0  0  0  0  0  0  0
   58.8130   25.3110   45.7650 C   0  0  0  0  0  0  0  0  0  0  0  0
   57.4280   25.4920   45.8610 C   0  0  0  0  0  0  0  0  0  0  0  0
   56.4030   24.0690   45.9650 Cl  0  0  0  0  0  0  0  0  0  0  0  0
   56.8880   26.7950   45.8800 C   0  0  0  0  0  0  0  0  0  0  0  0
   55.5080   27.0110   45.9610 O   0  0  0  0  0  0  0  0  0  0  0  0
   58.2430   32.4970   45.2750 C   0  0  0  0  0  0  0  0  0  0  0  0
   57.7000   33.7680   45.4960 C   0  0  0  0  0  0  0  0  0  0  0  0
   58.2330   34.6020   46.4750 C   0  0  0  0  0  0  0  0  0  0  0  0
   59.3050   34.1680   47.2570 C   0  0  0  0  0  0  0  0  0  0  0  0
   59.8570   32.8880   47.0660 C   0  0  0  0  0  0  0  0  0  0  0  0
   60.9270   32.4040   47.8970 N   0  0  0  0  0  0  0  0  0  0  0  0
   62.5030   33.1130   48.0600 S   0  0  0  0  0  0  0  0  0  0  0  0
   63.6350   31.9380   48.7720 C   0  0  0  0  0  0  0  0  0  0  0  0
   62.4230   34.3530   48.9060 O   0  0  0  0  0  0  0  0  0  0  0  0
   63.0040   33.4890   46.6930 O   0  0  0  0  0  0  0  0  0  0  0  0
   59.3440   32.0540   46.0460 C   0  0  0  0  0  0  0  0  0  0  0  0
   59.9100   30.6710   45.8290 C   0  0  0  0  0  0  0  0  0  0  0  0
   56.3183   31.9559   41.2604 H   0  0  0  0  0  0  0  0  0  0  0  0
   57.1412   33.2194   40.2841 H   0  0  0  0  0  0  0  0  0  0  0  0
   57.7663   31.5354   40.2841 H   0  0  0  0  0  0  0  0  0  0  0  0
   59.1772   32.9554   41.7102 H   0  0  0  0  0  0  0  0  0  0  0  0
   57.7214   33.4652   42.6544 H   0  0  0  0  0  0  0  0  0  0  0  0
   57.9403   30.5483   42.5089 H   0  0  0  0  0  0  0  0  0  0  0  0
   59.4245   31.3047   43.2168 H   0  0  0  0  0  0  0  0  0  0  0  0
   55.8121   31.7710   45.3012 H   0  0  0  0  0  0  0  0  0  0  0  0
   55.7117   31.3205   43.5520 H   0  0  0  0  0  0  0  0  0  0  0  0
   59.8068   28.5741   45.6313 H   0  0  0  0  0  0  0  0  0  0  0  0
   60.7489   26.2658   45.6009 H   0  0  0  0  0  0  0  0  0  0  0  0
   59.2331   24.2944   45.7542 H   0  0  0  0  0  0  0  0  0  0  0  0
   55.0970   27.9330   45.9950 H   0  0  0  0  0  0  0  0  0  0  0  0
   56.8466   34.1101   44.8922 H   0  0  0  0  0  0  0  0  0  0  0  0
   57.8088   35.6046   46.6327 H   0  0  0  0  0  0  0  0  0  0  0  0
   59.7214   34.8321   48.0287 H   0  0  0  0  0  0  0  0  0  0  0  0
   63.5804   31.9947   49.8692 H   0  0  0  0  0  0  0  0  0  0  0  0
   63.3652   30.9235   48.4434 H   0  0  0  0  0  0  0  0  0  0  0  0
   64.6589   32.1698   48.4434 H   0  0  0  0  0  0  0  0  0  0  0  0
   60.1039   30.1972   46.8026 H   0  0  0  0  0  0  0  0  0  0  0  0
   59.1880   30.0640   45.2631 H   0  0  0  0  0  0  0  0  0  0  0  0
   60.8504   30.7443   45.2631 H   0  0  0  0  0  0  0  0  0  0  0  0
  1  2  1  0
  2  3  1  0
  3  4  1  0
  4  5  1  0
  5  6  1  0
  6  7  2  0
  6  8  1  0
  8  9  1  0
  9 10  2  0
 10 11  1  0
 11 12  2  0
 12 13  1  0
 13 14  1  0
 13 15  2  0
 15 16  1  0
  4 17  1  0
 17 18  2  0
 18 19  1  0
 19 20  2  0
 20 21  1  0
 21 22  1  0
 22 23  1  0
 23 24  1  0
 23 25  2  0
 23 26  2  0
 21 27  2  0
 27 28  1  0
 15  9  1  0
 27 17  1  0
  1 29  1  0
  1 30  1  0
  1 31  1  0
  2 32  1  0
  2 33  1  0
  3 34  1  0
  3 35  1  0
  5 36  1  0
  5 37  1  0
 10 38  1  0
 11 39  1  0
 12 40  1  0
 16 41  1  0
 18 42  1  0
 19 43  1  0
 20 44  1  0
 24 45  1  0
 24 46  1  0
 24 47  1  0
 28 48  1  0
 28 49  1  0
 28 50  1  0
M  CHG  2   8  -1  22  -1
M  END
>  <UniqueID>  (15) 
12

>  <SMILES>  (15) 
CCCN(CC(=O)[N-]c1cccc(Cl)c1O)c1cccc([N-]S(C)(=O)=O)c1C

>  <Energy>  (15) 
53.652542934420055

>  <Genealogy>  (15) 
CCCN(CC(=O)[N-]c1cccc(Cl)c1O)c1cccc([N-]S(C)(=O)=O)c1C (protonated)
CCCN(CC(=O)[N-]c1cccc(Cl)c1O)c1cccc([N-]S(C)(=O)=O)c1C (3D coordinates assigned)
CCCN(CC(=O)[N-]c1cccc(Cl)c1O)c1cccc([N-]S(C)(=O)=O)c1C (optimized conformer: 53.652542934420055 kcal/mol)

>  <smiles>  (15) 
CCCN(CC(=O)Nc1cccc(Cl)c1O)c1cccc(NS(C)(=O)=O)c1C

>  <score_type>  (15) 
oracle

>  <origin>  (15) 
adg

>  <m_score__min__energy>  (15) 
-11.460000000000001

>  <m_primary>  (15) 
energy

$$$$
15:0
     RDKit          3D

 48 50  0  0  0  0  0  0  0  0999 V2000
   56.9303   28.2243   47.4739 H   0  0  0  0  0  0  0  0  0  0  0  0
   57.7630   27.6110   47.0990 C   0  0  0  0  0  0  0  0  0  0  0  0
   58.9820   28.0340   47.2400 N   0  0  0  0  0  0  0  0  0  0  0  0
   59.7070   28.0090   48.4780 C   0  0  0  0  0  0  0  0  0  0  0  0
   60.4640   26.8670   48.7750 C   0  0  0  0  0  0  0  0  0  0  0  0
   60.5452   26.0592   48.0328 H   0  0  0  0  0  0  0  0  0  0  0  0
   61.1160   26.7450   50.0040 C   0  0  0  0  0  0  0  0  0  0  0  0
   61.7335   25.8591   50.2136 H   0  0  0  0  0  0  0  0  0  0  0  0
   60.9840   27.7470   50.9660 C   0  0  0  0  0  0  0  0  0  0  0  0
   61.4947   27.6491   51.9353 H   0  0  0  0  0  0  0  0  0  0  0  0
   60.2040   28.8740   50.6990 C   0  0  0  0  0  0  0  0  0  0  0  0
   60.0789   29.6472   51.4714 H   0  0  0  0  0  0  0  0  0  0  0  0
   59.5790   29.0270   49.4530 C   0  0  0  0  0  0  0  0  0  0  0  0
   58.5330   30.4720   49.1920 S   0  0  0  0  0  0  0  0  0  0  0  0
   59.6920   31.3370   48.0710 C   0  0  0  0  0  0  0  0  0  0  0  0
   60.0583   32.2495   48.5641 H   0  0  0  0  0  0  0  0  0  0  0  0
   60.5317   30.6644   47.8420 H   0  0  0  0  0  0  0  0  0  0  0  0
   59.0070   31.7110   46.7860 C   0  0  0  0  0  0  0  0  0  0  0  0
   59.0700   33.0300   46.3100 C   0  0  0  0  0  0  0  0  0  0  0  0
   59.6019   33.7974   46.8915 H   0  0  0  0  0  0  0  0  0  0  0  0
   58.4600   33.3720   45.1010 C   0  0  0  0  0  0  0  0  0  0  0  0
   58.5070   34.4089   44.7367 H   0  0  0  0  0  0  0  0  0  0  0  0
   57.7900   32.4000   44.3530 C   0  0  0  0  0  0  0  0  0  0  0  0
   57.3104   32.6734   43.4016 H   0  0  0  0  0  0  0  0  0  0  0  0
   57.7280   31.0770   44.8130 C   0  0  0  0  0  0  0  0  0  0  0  0
   56.8980   29.8410   43.8740 S   0  0  0  0  0  0  0  0  0  0  0  0
   56.4550   30.4080   42.5540 O   0  0  0  0  0  0  0  0  0  0  0  0
   57.8340   28.6940   43.6150 O   0  0  0  0  0  0  0  0  0  0  0  0
   55.5180   29.2840   44.7520 N   0  0  0  0  0  0  0  0  0  0  0  0
   55.8370   29.0790   45.7250 H   0  0  0  0  0  0  0  0  0  0  0  0
   55.2360   28.3700   44.3300 H   0  0  0  0  0  0  0  0  0  0  0  0
   58.3260   30.7390   46.0330 C   0  0  0  0  0  0  0  0  0  0  0  0
   58.2624   29.7057   46.4047 H   0  0  0  0  0  0  0  0  0  0  0  0
   57.4760   26.3170   46.4420 C   0  0  0  0  0  0  0  0  0  0  0  0
   58.4710   25.3250   46.3380 C   0  0  0  0  0  0  0  0  0  0  0  0
   59.4734   25.5167   46.7485 H   0  0  0  0  0  0  0  0  0  0  0  0
   58.2010   24.0980   45.7190 C   0  0  0  0  0  0  0  0  0  0  0  0
   59.2320   23.1490   45.6440 O   0  0  0  0  0  0  0  0  0  0  0  0
   59.3730   22.1960   44.5960 C   0  0  0  0  0  0  0  0  0  0  0  0
   59.5211   21.1952   45.0279 H   0  0  0  0  0  0  0  0  0  0  0  0
   58.4650   22.1967   43.9751 H   0  0  0  0  0  0  0  0  0  0  0  0
   60.2419   22.4596   43.9751 H   0  0  0  0  0  0  0  0  0  0  0  0
   56.9180   23.8590   45.1960 C   0  0  0  0  0  0  0  0  0  0  0  0
   56.6955   22.8991   44.7071 H   0  0  0  0  0  0  0  0  0  0  0  0
   55.9250   24.8360   45.2950 C   0  0  0  0  0  0  0  0  0  0  0  0
   54.9235   24.6418   44.8836 H   0  0  0  0  0  0  0  0  0  0  0  0
   56.1970   26.0590   45.9140 C   0  0  0  0  0  0  0  0  0  0  0  0
   55.1860   27.0110   46.0000 O   0  0  0  0  0  0  0  0  0  0  0  0
  1  2  1  0
  2  3  2  0
  3  4  1  0
  4  5  2  0
  5  6  1  0
  5  7  1  0
  7  8  1  0
  7  9  2  0
  9 10  1  0
  9 11  1  0
 11 12  1  0
 11 13  2  0
 13 14  1  0
 14 15  1  0
 15 16  1  0
 15 17  1  0
 15 18  1  0
 18 19  2  0
 19 20  1  0
 19 21  1  0
 21 22  1  0
 21 23  2  0
 23 24  1  0
 23 25  1  0
 25 26  1  0
 26 27  2  0
 26 28  2  0
 26 29  1  0
 29 30  1  0
 29 31  1  0
 25 32  2  0
 32 33  1  0
  2 34  1  0
 34 35  2  0
 35 36  1  0
 35 37  1  0
 37 38  1  0
 38 39  1  0
 39 40  1  0
 39 41  1  0
 39 42  1  0
 37 43  2  0
 43 44  1  0
 43 45  1  0
 45 46  1  0
 45 47  2  0
 47 48  1  0
 13  4  1  0
 32 18  1  0
 47 34  1  0
M  CHG  1  48  -1
M  END
>  <UniqueID>  (16) 
13

>  <SMILES>  (16) 
COc1ccc([O-])c(/C=N/c2ccccc2SCc2cccc(S(N)(=O)=O)c2)c1

>  <Energy>  (16) 
51.884519128154665

>  <Genealogy>  (16) 
COc1ccc([O-])c(C=Nc2ccccc2SCc2cccc(S(N)(=O)=O)c2)c1 (protonated)
COc1ccc([O-])c(/C=N/c2ccccc2SCc2cccc(S(N)(=O)=O)c2)c1 (cis-trans isomerization)
COc1ccc([O-])c(/C=N/c2ccccc2SCc2cccc(S(N)(=O)=O)c2)c1 (3D coordinates assigned)
COc1ccc([O-])c(/C=N/c2ccccc2SCc2cccc(S(N)(=O)=O)c2)c1 (optimized conformer: 51.884519128154665 kcal/mol)

>  <smiles>  (16) 
COc1ccc(O)c(C=Nc2ccccc2SCc2cccc(S(N)(=O)=O)c2)c1

>  <score_type>  (16) 
oracle

>  <origin>  (16) 
adg

>  <m_score__min__energy>  (16) 
-13.75

>  <m_primary>  (16) 
energy

$$$$
16:0
     RDKit          3D

 48 50  0  0  0  0  0  0  0  0999 V2000
   56.9150   30.9540   42.9820 C   0  0  0  0  0  0  0  0  0  0  0  0
   58.0200   31.9190   42.5470 C   0  0  0  0  0  0  0  0  0  0  0  0
   57.7810   32.3990   41.1170 C   0  0  0  0  0  0  0  0  0  0  0  0
   58.0570   33.0760   43.4390 N   0  0  0  0  0  0  0  0  0  0  0  0
   57.7430   33.0190   44.8360 C   0  0  0  0  0  0  0  0  0  0  0  0
   56.6460   33.4900   45.2430 O   0  0  0  0  0  0  0  0  0  0  0  0
   58.7000   32.3920   45.7890 C   0  0  0  0  0  0  0  0  0  0  0  0
   59.8010   33.1420   46.2460 C   0  0  0  0  0  0  0  0  0  0  0  0
   60.7220   32.5910   47.1390 C   0  0  0  0  0  0  0  0  0  0  0  0
   60.5550   31.2870   47.5990 C   0  0  0  0  0  0  0  0  0  0  0  0
   59.4720   30.5270   47.1630 C   0  0  0  0  0  0  0  0  0  0  0  0
   58.5470   31.0560   46.2440 C   0  0  0  0  0  0  0  0  0  0  0  0
   57.4070   30.2780   45.8460 N   0  0  0  0  0  0  0  0  0  0  0  0
   57.3840   28.8660   45.6030 C   0  0  0  0  0  0  0  0  0  0  0  0
   57.3630   28.4550   44.4130 O   0  0  0  0  0  0  0  0  0  0  0  0
   57.4380   27.8650   46.7240 C   0  0  0  0  0  0  0  0  0  0  0  0
   57.1790   26.5190   46.2130 N   0  0  0  0  0  0  0  0  0  0  0  0
   55.9730   25.9920   45.9050 C   0  0  0  0  0  0  0  0  0  0  0  0
   54.7710   26.6840   45.9960 O   0  0  0  0  0  0  0  0  0  0  0  0
   56.1110   24.6760   45.5090 C   0  0  0  0  0  0  0  0  0  0  0  0
   57.4490   24.3720   45.6270 C   0  0  0  0  0  0  0  0  0  0  0  0
   58.0800   25.5260   46.0450 C   0  0  0  0  0  0  0  0  0  0  0  0
   59.4450   25.6590   46.2750 O   0  0  0  0  0  0  0  0  0  0  0  0
   58.0420   23.0460   45.2570 C   0  0  0  0  0  0  0  0  0  0  0  0
   56.9460   21.9610   45.2200 C   0  0  0  0  0  0  0  0  0  0  0  0
   55.6830   22.4470   44.4750 C   0  0  0  0  0  0  0  0  0  0  0  0
   55.0520   23.6760   45.1590 C   0  0  0  0  0  0  0  0  0  0  0  0
   56.8723   30.9167   44.0805 H   0  0  0  0  0  0  0  0  0  0  0  0
   55.9484   31.3023   42.5891 H   0  0  0  0  0  0  0  0  0  0  0  0
   57.1300   29.9493   42.5891 H   0  0  0  0  0  0  0  0  0  0  0  0
   58.9801   31.3842   42.5939 H   0  0  0  0  0  0  0  0  0  0  0  0
   57.2908   33.3835   41.1378 H   0  0  0  0  0  0  0  0  0  0  0  0
   58.7440   32.4799   40.5916 H   0  0  0  0  0  0  0  0  0  0  0  0
   57.1360   31.6793   40.5916 H   0  0  0  0  0  0  0  0  0  0  0  0
   59.9371   34.1755   45.8947 H   0  0  0  0  0  0  0  0  0  0  0  0
   61.5809   33.1877   47.4798 H   0  0  0  0  0  0  0  0  0  0  0  0
   61.2787   30.8570   48.3070 H   0  0  0  0  0  0  0  0  0  0  0  0
   59.3385   29.5027   47.5411 H   0  0  0  0  0  0  0  0  0  0  0  0
   58.4353   27.8920   47.1873 H   0  0  0  0  0  0  0  0  0  0  0  0
   56.6702   28.1195   47.4695 H   0  0  0  0  0  0  0  0  0  0  0  0
   58.5107   23.1223   44.2648 H   0  0  0  0  0  0  0  0  0  0  0  0
   58.7951   22.7684   46.0092 H   0  0  0  0  0  0  0  0  0  0  0  0
   57.3420   21.0721   44.7071 H   0  0  0  0  0  0  0  0  0  0  0  0
   56.6625   21.7257   46.2565 H   0  0  0  0  0  0  0  0  0  0  0  0
   55.9587   22.7155   43.4445 H   0  0  0  0  0  0  0  0  0  0  0  0
   54.9442   21.6321   44.4871 H   0  0  0  0  0  0  0  0  0  0  0  0
   54.3266   24.1399   44.4744 H   0  0  0  0  0  0  0  0  0  0  0  0
   54.5461   23.3526   46.0807 H   0  0  0  0  0  0  0  0  0  0  0  0
  1  2  1  0
  2  3  1  0
  2  4  1  0
  4  5  1  0
  5  6  2  0
  5  7  1  0
  7  8  2  0
  8  9  1  0
  9 10  2  0
 10 11  1  0
 11 12  2  0
 12 13  1  0
 13 14  1  0
 14 15  2  0
 14 16  1  0
 16 17  1  0
 17 18  1  0
 18 19  1  0
 18 20  2  0
 20 21  1  0
 21 22  2  0
 22 23  1  0
 21 24  1  0
 24 25  1  0
 25 26  1  0
 26 27  1  0
 12  7  1  0
 22 17  1  0
 27 20  1  0
  1 28  1  0
  1 29  1  0
  1 30  1  0
  2 31  1  0
  3 32  1  0
  3 33  1  0
  3 34  1  0
  8 35  1  0
  9 36  1  0
 10 37  1  0
 11 38  1  0
 16 39  1  0
 16 40  1  0
 24 41  1  0
 24 42  1  0
 25 43  1  0
 25 44  1  0
 26 45  1  0
 26 46  1  0
 27 47  1  0
 27 48  1  0
M  CHG  4   4  -1  13  -1  19  -1  23  -1
M  END
>  <UniqueID>  (17) 
14

>  <SMILES>  (17) 
CC(C)[N-]C(=O)c1ccccc1[N-]C(=O)Cn1c([O-])c2c(c1[O-])CCCC2

>  <Energy>  (17) 
78.01715675276725

>  <Genealogy>  (17) 
CC(C)[N-]C(=O)c1ccccc1[N-]C(=O)Cn1c([O-])c2c(c1[O-])CCCC2 (protonated)
CC(C)[N-]C(=O)c1ccccc1[N-]C(=O)Cn1c([O-])c2c(c1[O-])CCCC2 (3D coordinates assigned)
CC(C)[N-]C(=O)c1ccccc1[N-]C(=O)Cn1c([O-])c2c(c1[O-])CCCC2 (nonaromatic ring conformer: 78.01715675276725 kcal/mol)

>  <smiles>  (17) 
CC(C)NC(=O)c1ccccc1NC(=O)Cn1c(O)c2c(c1O)CCCC2

>  <score_type>  (17) 
oracle

>  <origin>  (17) 
adg

>  <m_score__min__energy>  (17) 
-15.06

>  <m_primary>  (17) 
energy

$$$$
17:0
     RDKit          3D

 32 33  0  0  0  0  0  0  0  0999 V2000
   55.2500   29.3380   44.7890 N   0  0  0  0  0  0  0  0  0  0  0  0
   56.8680   29.9370   44.6950 S   0  0  0  0  0  0  0  0  0  0  0  0
   56.8670   31.4260   44.9060 O   0  0  0  0  0  0  0  0  0  0  0  0
   57.4290   29.6440   43.3310 O   0  0  0  0  0  0  0  0  0  0  0  0
   57.8530   29.1700   45.9360 C   0  0  0  0  0  0  0  0  0  0  0  0
   58.3680   27.8810   45.7480 C   0  0  0  0  0  0  0  0  0  0  0  0
   59.1260   27.2750   46.7530 C   0  0  0  0  0  0  0  0  0  0  0  0
   59.3850   27.9570   47.9450 C   0  0  0  0  0  0  0  0  0  0  0  0
   58.8990   29.2570   48.1340 C   0  0  0  0  0  0  0  0  0  0  0  0
   59.1640   29.9270   49.3730 N   0  0  0  0  0  0  0  0  0  0  0  0
   58.2290   30.7160   50.1240 C   0  0  0  0  0  0  0  0  0  0  0  0
   58.0500   31.9190   49.8010 O   0  0  0  0  0  0  0  0  0  0  0  0
   57.4230   30.1360   51.2480 C   0  0  0  0  0  0  0  0  0  0  0  0
   56.3720   31.0300   51.5920 O   0  0  0  0  0  0  0  0  0  0  0  0
   55.2210   30.6180   52.2670 C   0  0  0  0  0  0  0  0  0  0  0  0
   55.3030   30.0720   53.4020 O   0  0  0  0  0  0  0  0  0  0  0  0
   53.9090   30.8430   51.6510 C   0  0  0  0  0  0  0  0  0  0  0  0
   53.2470   29.9530   50.8230 C   0  0  0  0  0  0  0  0  0  0  0  0
   52.0520   30.5520   50.4940 C   0  0  0  0  0  0  0  0  0  0  0  0
   52.0560   31.7680   51.1400 C   0  0  0  0  0  0  0  0  0  0  0  0
   51.0270   32.6980   51.0770 O   0  0  0  0  0  0  0  0  0  0  0  0
   53.1820   31.9610   51.8510 N   0  0  0  0  0  0  0  0  0  0  0  0
   58.1040   29.8470   47.1370 C   0  0  0  0  0  0  0  0  0  0  0  0
   55.1970   28.7380   45.6420 H   0  0  0  0  0  0  0  0  0  0  0  0
   58.1752   27.3448   44.8071 H   0  0  0  0  0  0  0  0  0  0  0  0
   59.5199   26.2586   46.6057 H   0  0  0  0  0  0  0  0  0  0  0  0
   59.9727   27.4711   48.7378 H   0  0  0  0  0  0  0  0  0  0  0  0
   56.9957   29.1726   50.9330 H   0  0  0  0  0  0  0  0  0  0  0  0
   58.0728   29.9823   52.1222 H   0  0  0  0  0  0  0  0  0  0  0  0
   53.6039   28.9659   50.4941 H   0  0  0  0  0  0  0  0  0  0  0  0
   51.2593   30.1443   49.8495 H   0  0  0  0  0  0  0  0  0  0  0  0
   57.6758   30.8470   47.3003 H   0  0  0  0  0  0  0  0  0  0  0  0
  1  2  1  0
  2  3  2  0
  2  4  2  0
  2  5  1  0
  5  6  2  0
  6  7  1  0
  7  8  2  0
  8  9  1  0
  9 10  1  0
 10 11  1  0
 11 12  2  0
 11 13  1  0
 13 14  1  0
 14 15  1  0
 15 16  2  0
 15 17  1  0
 17 18  2  0
 18 19  1  0
 19 20  2  0
 20 21  1  0
 20 22  1  0
  9 23  2  0
 23  5  1  0
 22 17  1  0
  1 24  1  0
  6 25  1  0
  7 26  1  0
  8 27  1  0
 13 28  1  0
 13 29  1  0
 18 30  1  0
 19 31  1  0
 23 32  1  0
M  CHG  4   1  -1  10  -1  21  -1  22  -1
M  END
>  <UniqueID>  (18) 
15

>  <SMILES>  (18) 
[NH-]S(=O)(=O)c1cccc([N-]C(=O)COC(=O)c2ccc([O-])[n-]2)c1

>  <Energy>  (18) 
56.846866625989605

>  <Genealogy>  (18) 
[NH-]S(=O)(=O)c1cccc([N-]C(=O)COC(=O)c2ccc([O-])[n-]2)c1 (protonated)
[NH-]S(=O)(=O)c1cccc([N-]C(=O)COC(=O)c2ccc([O-])[n-]2)c1 (3D coordinates assigned)
[NH-]S(=O)(=O)c1cccc([N-]C(=O)COC(=O)c2ccc([O-])[n-]2)c1 (optimized conformer: 56.846866625989605 kcal/mol)

>  <smiles>  (18) 
NS(=O)(=O)c1cccc(NC(=O)COC(=O)c2ccc(O)[nH]2)c1

>  <score_type>  (18) 
oracle

>  <origin>  (18) 
adg

>  <m_score__min__energy>  (18) 
-15.98

>  <m_primary>  (18) 
energy

$$$$
18:0
     RDKit          3D

 42 44  0  0  0  0  0  0  0  0999 V2000
   59.2920   34.9690   47.7190 C   0  0  0  0  0  0  0  0  0  0  0  0
   60.4060   34.0190   48.0390 C   0  0  0  0  0  0  0  0  0  0  0  0
   61.5370   34.3400   48.7630 C   0  0  0  0  0  0  0  0  0  0  0  0
   62.2890   33.1800   48.7480 C   0  0  0  0  0  0  0  0  0  0  0  0
   63.6060   33.0020   49.3670 C   0  0  0  0  0  0  0  0  0  0  0  0
   64.6330   33.4710   48.8110 O   0  0  0  0  0  0  0  0  0  0  0  0
   63.7280   32.3190   50.5710 O   0  0  0  0  0  0  0  0  0  0  0  0
   61.6420   32.2180   48.0600 N   0  0  0  0  0  0  0  0  0  0  0  0
   60.4930   32.7270   47.6430 N   0  0  0  0  0  0  0  0  0  0  0  0
   59.5440   31.9760   46.8670 C   0  0  0  0  0  0  0  0  0  0  0  0
   58.9830   30.7880   47.3650 C   0  0  0  0  0  0  0  0  0  0  0  0
   58.0830   30.0540   46.5880 C   0  0  0  0  0  0  0  0  0  0  0  0
   57.7410   30.4890   45.3020 C   0  0  0  0  0  0  0  0  0  0  0  0
   56.6280   29.5340   44.3280 S   0  0  0  0  0  0  0  0  0  0  0  0
   55.2430   29.6770   44.8920 O   0  0  0  0  0  0  0  0  0  0  0  0
   56.6250   30.0020   42.8990 O   0  0  0  0  0  0  0  0  0  0  0  0
   57.0970   27.8660   44.3830 N   0  0  0  0  0  0  0  0  0  0  0  0
   58.1790   27.3310   45.1600 C   0  0  0  0  0  0  0  0  0  0  0  0
   59.4670   27.8970   45.1120 C   0  0  0  0  0  0  0  0  0  0  0  0
   60.5070   27.3580   45.8720 C   0  0  0  0  0  0  0  0  0  0  0  0
   60.2760   26.2490   46.6870 C   0  0  0  0  0  0  0  0  0  0  0  0
   59.0030   25.6780   46.7460 C   0  0  0  0  0  0  0  0  0  0  0  0
   57.9490   26.2130   45.9880 C   0  0  0  0  0  0  0  0  0  0  0  0
   56.3470   25.4750   46.0740 S   0  0  0  0  0  0  0  0  0  0  0  0
   55.1410   26.7110   46.0190 N   0  0  0  0  0  0  0  0  0  0  0  0
   56.2190   24.7030   47.3570 O   0  0  0  0  0  0  0  0  0  0  0  0
   56.1380   24.5340   44.9190 O   0  0  0  0  0  0  0  0  0  0  0  0
   58.3100   31.6650   44.7960 C   0  0  0  0  0  0  0  0  0  0  0  0
   59.2130   32.3990   45.5710 C   0  0  0  0  0  0  0  0  0  0  0  0
   58.8509   35.3451   48.6539 H   0  0  0  0  0  0  0  0  0  0  0  0
   59.6865   35.8130   47.1341 H   0  0  0  0  0  0  0  0  0  0  0  0
   58.5209   34.4462   47.1341 H   0  0  0  0  0  0  0  0  0  0  0  0
   61.7833   35.2991   49.2420 H   0  0  0  0  0  0  0  0  0  0  0  0
   59.2534   30.4342   48.3708 H   0  0  0  0  0  0  0  0  0  0  0  0
   57.6410   29.1298   46.9887 H   0  0  0  0  0  0  0  0  0  0  0  0
   59.6556   28.7707   44.4708 H   0  0  0  0  0  0  0  0  0  0  0  0
   61.5097   27.8081   45.8282 H   0  0  0  0  0  0  0  0  0  0  0  0
   61.0971   25.8244   47.2832 H   0  0  0  0  0  0  0  0  0  0  0  0
   58.8249   24.8041   47.3899 H   0  0  0  0  0  0  0  0  0  0  0  0
   55.1840   27.1370   45.0650 H   0  0  0  0  0  0  0  0  0  0  0  0
   58.0456   32.0118   43.7862 H   0  0  0  0  0  0  0  0  0  0  0  0
   59.6667   33.3138   45.1620 H   0  0  0  0  0  0  0  0  0  0  0  0
  1  2  1  0
  2  3  2  0
  3  4  1  0
  4  5  1  0
  5  6  2  0
  5  7  1  0
  4  8  2  0
  8  9  1  0
  9 10  1  0
 10 11  2  0
 11 12  1  0
 12 13  2  0
 13 14  1  0
 14 15  2  0
 14 16  2  0
 14 17  1  0
 17 18  1  0
 18 19  2  0
 19 20  1  0
 20 21  2  0
 21 22  1  0
 22 23  2  0
 23 24  1  0
 24 25  1  0
 24 26  2  0
 24 27  2  0
 13 28  1  0
 28 29  2  0
  9  2  1  0
 29 10  1  0
 23 18  1  0
  1 30  1  0
  1 31  1  0
  1 32  1  0
  3 33  1  0
 11 34  1  0
 12 35  1  0
 19 36  1  0
 20 37  1  0
 21 38  1  0
 22 39  1  0
 25 40  1  0
 28 41  1  0
 29 42  1  0
M  CHG  3   7  -1  17  -1  25  -1
M  END
>  <UniqueID>  (19) 
16

>  <SMILES>  (19) 
Cc1cc(C(=O)[O-])nn1-c1ccc(S(=O)(=O)[N-]c2ccccc2S([NH-])(=O)=O)cc1

>  <Energy>  (19) 
81.33400806071847

>  <Genealogy>  (19) 
Cc1cc(C(=O)[O-])nn1-c1ccc(S(=O)(=O)[N-]c2ccccc2S([NH-])(=O)=O)cc1 (protonated)
Cc1cc(C(=O)[O-])nn1-c1ccc(S(=O)(=O)[N-]c2ccccc2S([NH-])(=O)=O)cc1 (3D coordinates assigned)
Cc1cc(C(=O)[O-])nn1-c1ccc(S(=O)(=O)[N-]c2ccccc2S([NH-])(=O)=O)cc1 (optimized conformer: 81.33400806071847 kcal/mol)

>  <smiles>  (19) 
Cc1cc(C(=O)O)nn1-c1ccc(S(=O)(=O)Nc2ccccc2S(N)(=O)=O)cc1

>  <score_type>  (19) 
oracle

>  <origin>  (19) 
adg

>  <m_score__min__energy>  (19) 
-14.050000000000001

>  <m_primary>  (19) 
energy

$$$$
19:0
     RDKit          3D

 36 38  0  0  0  0  0  0  0  0999 V2000
   59.2086   25.8659   44.4918 H   0  0  0  0  0  0  0  0  0  0  0  0
   58.2200   26.3000   44.7020 C   0  0  0  0  0  0  0  0  0  0  0  0
   58.1450   27.6240   44.9100 C   0  0  0  0  0  0  0  0  0  0  0  0
   56.6610   28.6230   44.7830 S   0  0  0  0  0  0  0  0  0  0  0  0
   57.7080   30.0690   45.0560 C   0  0  0  0  0  0  0  0  0  0  0  0
   57.1600   31.3940   45.0290 N   0  0  0  0  0  0  0  0  0  0  0  0
   56.2040   31.5080   44.6220 H   0  0  0  0  0  0  0  0  0  0  0  0
   57.8750   32.5780   45.4220 C   0  0  0  0  0  0  0  0  0  0  0  0
   58.1110   32.8180   46.7850 C   0  0  0  0  0  0  0  0  0  0  0  0
   57.7331   32.1112   47.5384 H   0  0  0  0  0  0  0  0  0  0  0  0
   58.8240   33.9510   47.1900 C   0  0  0  0  0  0  0  0  0  0  0  0
   58.9938   34.1394   48.2604 H   0  0  0  0  0  0  0  0  0  0  0  0
   59.3210   34.8440   46.2370 C   0  0  0  0  0  0  0  0  0  0  0  0
   59.8765   35.7378   46.5573 H   0  0  0  0  0  0  0  0  0  0  0  0
   59.1120   34.6010   44.8770 C   0  0  0  0  0  0  0  0  0  0  0  0
   59.5092   35.3009   44.1271 H   0  0  0  0  0  0  0  0  0  0  0  0
   58.3990   33.4700   44.4670 C   0  0  0  0  0  0  0  0  0  0  0  0
   58.2471   33.2766   43.3948 H   0  0  0  0  0  0  0  0  0  0  0  0
   58.9780   29.8560   45.1960 N   0  0  0  0  0  0  0  0  0  0  0  0
   59.2990   28.4790   45.1310 C   0  0  0  0  0  0  0  0  0  0  0  0
   60.4800   28.0580   45.2510 O   0  0  0  0  0  0  0  0  0  0  0  0
   57.0570   25.3900   44.7380 C   0  0  0  0  0  0  0  0  0  0  0  0
   55.9950   25.5910   45.6340 C   0  0  0  0  0  0  0  0  0  0  0  0
   56.0060   26.4586   46.3101 H   0  0  0  0  0  0  0  0  0  0  0  0
   54.9250   24.6950   45.6710 C   0  0  0  0  0  0  0  0  0  0  0  0
   54.0901   24.8667   46.3663 H   0  0  0  0  0  0  0  0  0  0  0  0
   54.9110   23.5810   44.8280 C   0  0  0  0  0  0  0  0  0  0  0  0
   53.8380   22.6980   44.8720 O   0  0  0  0  0  0  0  0  0  0  0  0
   55.9740   23.3480   43.9440 C   0  0  0  0  0  0  0  0  0  0  0  0
   55.9260   22.2120   43.1220 O   0  0  0  0  0  0  0  0  0  0  0  0
   56.9850   21.2710   42.9840 C   0  0  0  0  0  0  0  0  0  0  0  0
   57.3330   20.9618   43.9807 H   0  0  0  0  0  0  0  0  0  0  0  0
   56.6236   20.3906   42.4323 H   0  0  0  0  0  0  0  0  0  0  0  0
   57.8168   21.7334   42.4323 H   0  0  0  0  0  0  0  0  0  0  0  0
   57.0530   24.2550   43.9130 C   0  0  0  0  0  0  0  0  0  0  0  0
   57.8999   24.0711   43.2355 H   0  0  0  0  0  0  0  0  0  0  0  0
  1  2  1  0
  2  3  2  0
  3  4  1  0
  4  5  1  0
  5  6  1  0
  6  7  1  0
  6  8  1  0
  8  9  2  0
  9 10  1  0
  9 11  1  0
 11 12  1  0
 11 13  2  0
 13 14  1  0
 13 15  1  0
 15 16  1  0
 15 17  2  0
 17 18  1  0
  5 19  2  0
 19 20  1  0
 20 21  2  0
  2 22  1  0
 22 23  2  0
 23 24  1  0
 23 25  1  0
 25 26  1  0
 25 27  2  0
 27 28  1  0
 27 29  1  0
 29 30  1  0
 30 31  1  0
 31 32  1  0
 31 33  1  0
 31 34  1  0
 29 35  2  0
 35 36  1  0
 20  3  1  0
 35 22  1  0
 17  8  1  0
M  CHG  1  28  -1
M  END
>  <UniqueID>  (20) 
17

>  <SMILES>  (20) 
COc1cc(/C=C2\SC(Nc3ccccc3)=NC2=O)ccc1[O-]

>  <Energy>  (20) 
66.38230539349017

>  <Genealogy>  (20) 
COc1cc(C=C2SC(Nc3ccccc3)=NC2=O)ccc1[O-] (protonated)
COc1cc(/C=C2\SC(Nc3ccccc3)=NC2=O)ccc1[O-] (cis-trans isomerization)
COc1cc(/C=C2\SC(Nc3ccccc3)=NC2=O)ccc1[O-] (3D coordinates assigned)
COc1cc(/C=C2\SC(Nc3ccccc3)=NC2=O)ccc1[O-] (nonaromatic ring conformer: 66.38230539349017 kcal/mol)

>  <smiles>  (20) 
COc1cc(C=C2SC(Nc3ccccc3)=NC2=O)ccc1O

>  <score_type>  (20) 
oracle

>  <origin>  (20) 
adg

>  <m_score__min__energy>  (20) 
-10.67

>  <m_primary>  (20) 
energy

$$$$
20:0
     RDKit          3D

 54 56  0  0  0  0  0  0  0  0999 V2000
   56.9230   25.9420   43.7790 H   0  0  0  0  0  0  0  0  0  0  0  0
   57.6070   26.2960   44.4840 N   0  0  0  0  0  0  0  0  0  0  0  0
   57.8980   27.5560   44.5830 C   0  0  0  0  0  0  0  0  0  0  0  0
   58.6330   28.0470   45.7760 C   0  0  0  0  0  0  0  0  0  0  0  0
   59.4030   27.1710   46.5620 C   0  0  0  0  0  0  0  0  0  0  0  0
   59.4627   26.1063   46.2921 H   0  0  0  0  0  0  0  0  0  0  0  0
   60.0930   27.6410   47.6830 C   0  0  0  0  0  0  0  0  0  0  0  0
   60.6863   26.9416   48.2903 H   0  0  0  0  0  0  0  0  0  0  0  0
   60.0360   29.0000   48.0420 C   0  0  0  0  0  0  0  0  0  0  0  0
   60.7590   29.5160   49.2290 C   0  0  0  0  0  0  0  0  0  0  0  0
   61.6460   30.5290   49.1810 N   0  0  0  0  0  0  0  0  0  0  0  0
   62.0430   30.6760   50.4610 C   0  0  0  0  0  0  0  0  0  0  0  0
   63.0190   31.7200   50.9000 C   0  0  0  0  0  0  0  0  0  0  0  0
   62.9636   31.8313   51.9930 H   0  0  0  0  0  0  0  0  0  0  0  0
   64.0315   31.4095   50.6026 H   0  0  0  0  0  0  0  0  0  0  0  0
   62.7190   32.9720   50.2840 O   0  0  0  0  0  0  0  0  0  0  0  0
   61.7570   33.1790   49.2790 C   0  0  0  0  0  0  0  0  0  0  0  0
   60.3870   33.3050   49.5720 C   0  0  0  0  0  0  0  0  0  0  0  0
   60.0448   33.2438   50.6156 H   0  0  0  0  0  0  0  0  0  0  0  0
   59.4580   33.5070   48.5500 C   0  0  0  0  0  0  0  0  0  0  0  0
   58.3901   33.6036   48.7955 H   0  0  0  0  0  0  0  0  0  0  0  0
   59.8740   33.5880   47.2120 C   0  0  0  0  0  0  0  0  0  0  0  0
   58.8720   33.7950   46.1380 C   0  0  0  0  0  0  0  0  0  0  0  0
   58.2470   34.8900   46.0810 O   0  0  0  0  0  0  0  0  0  0  0  0
   58.6190   32.7810   45.1510 N   0  0  0  0  0  0  0  0  0  0  0  0
   59.2240   31.9310   45.1080 H   0  0  0  0  0  0  0  0  0  0  0  0
   57.5790   32.9240   44.1360 C   0  0  0  0  0  0  0  0  0  0  0  0
   56.7366   33.4930   44.5563 H   0  0  0  0  0  0  0  0  0  0  0  0
   57.9949   33.4561   43.2678 H   0  0  0  0  0  0  0  0  0  0  0  0
   57.0970   31.5780   43.6990 C   0  0  0  0  0  0  0  0  0  0  0  0
   56.5270   30.8160   44.5270 O   0  0  0  0  0  0  0  0  0  0  0  0
   57.2760   31.1830   42.3710 O   0  0  0  0  0  0  0  0  0  0  0  0
   57.4890   32.1140   41.3180 C   0  0  0  0  0  0  0  0  0  0  0  0
   57.7153   33.1030   41.7431 H   0  0  0  0  0  0  0  0  0  0  0  0
   58.3338   31.7794   40.6980 H   0  0  0  0  0  0  0  0  0  0  0  0
   56.5828   32.1800   40.6980 H   0  0  0  0  0  0  0  0  0  0  0  0
   61.2390   33.4430   46.9150 C   0  0  0  0  0  0  0  0  0  0  0  0
   61.5735   33.4772   45.8676 H   0  0  0  0  0  0  0  0  0  0  0  0
   62.1820   33.2550   47.9380 C   0  0  0  0  0  0  0  0  0  0  0  0
   63.6380   33.0810   47.5870 C   0  0  0  0  0  0  0  0  0  0  0  0
   63.7438   33.0200   46.4938 H   0  0  0  0  0  0  0  0  0  0  0  0
   64.2058   33.9413   47.9709 H   0  0  0  0  0  0  0  0  0  0  0  0
   64.1370   31.9070   48.1670 O   0  0  0  0  0  0  0  0  0  0  0  0
   63.4270   31.5650   48.7710 H   0  0  0  0  0  0  0  0  0  0  0  0
   61.4540   29.8150   51.3180 N   0  0  0  0  0  0  0  0  0  0  0  0
   60.6440   29.0820   50.5360 C   0  0  0  0  0  0  0  0  0  0  0  0
   59.9925   28.2657   50.8813 H   0  0  0  0  0  0  0  0  0  0  0  0
   59.2770   29.8760   47.2480 C   0  0  0  0  0  0  0  0  0  0  0  0
   59.2257   30.9428   47.5113 H   0  0  0  0  0  0  0  0  0  0  0  0
   58.5870   29.4070   46.1280 C   0  0  0  0  0  0  0  0  0  0  0  0
   58.0019   30.1087   45.5154 H   0  0  0  0  0  0  0  0  0  0  0  0
   57.5180   28.4520   43.5300 N   0  0  0  0  0  0  0  0  0  0  0  0
   57.8690   29.4340   43.4970 H   0  0  0  0  0  0  0  0  0  0  0  0
   56.9480   28.1120   42.7240 H   0  0  0  0  0  0  0  0  0  0  0  0
  1  2  1  0
  2  3  2  0
  3  4  1  0
  4  5  2  0
  5  6  1  0
  5  7  1  0
  7  8  1  0
  7  9  2  0
  9 10  1  0
 10 11  1  0
 11 12  2  0
 12 13  1  0
 13 14  1  0
 13 15  1  0
 13 16  1  0
 16 17  1  0
 17 18  2  0
 18 19  1  0
 18 20  1  0
 20 21  1  0
 20 22  2  0
 22 23  1  0
 23 24  2  0
 23 25  1  0
 25 26  1  0
 25 27  1  0
 27 28  1  0
 27 29  1  0
 27 30  1  0
 30 31  2  0
 30 32  1  0
 32 33  1  0
 33 34  1  0
 33 35  1  0
 33 36  1  0
 22 37  1  0
 37 38  1  0
 37 39  2  0
 39 40  1  0
 40 41  1  0
 40 42  1  0
 40 43  1  0
 43 44  1  0
 12 45  1  0
 45 46  1  0
 46 47  1  0
  9 48  1  0
 48 49  1  0
 48 50  2  0
 50 51  1  0
  3 52  1  0
 52 53  1  0
 52 54  1  0
 50  4  1  0
 46 10  2  0
 39 17  1  0
M  CHG  1  45  -1
M  END
>  <UniqueID>  (21) 
18

>  <SMILES>  (21) 
[H]/N=C(\N)c1ccc(-c2c[n-]c(COc3ccc(C(=O)NCC(=O)OC)cc3CO)n2)cc1

>  <Energy>  (21) 
82.71791111864944

>  <Genealogy>  (21) 
COC(=O)CNC(=O)c1ccc(OCc2nc(-c3ccc(C(=N)N)cc3)c[n-]2)c(CO)c1 (protonated)
[H]/N=C(\N)c1ccc(-c2c[n-]c(COc3ccc(C(=O)NCC(=O)OC)cc3CO)n2)cc1 (cis-trans isomerization)
[H]/N=C(\N)c1ccc(-c2c[n-]c(COc3ccc(C(=O)NCC(=O)OC)cc3CO)n2)cc1 (3D coordinates assigned)
[H]/N=C(\N)c1ccc(-c2c[n-]c(COc3ccc(C(=O)NCC(=O)OC)cc3CO)n2)cc1 (optimized conformer: 82.71791111864944 kcal/mol)

>  <smiles>  (21) 
COC(=O)CNC(=O)c1ccc(OCc2nc(-c3ccc(C(=N)N)cc3)c[nH]2)c(CO)c1

>  <score_type>  (21) 
oracle

>  <origin>  (21) 
adg

>  <m_score__min__energy>  (21) 
-9.7599999999999998

>  <m_primary>  (21) 
energy

$$$$
21:0
     RDKit          3D

 55 58  0  0  0  0  0  0  0  0999 V2000
   59.0330   32.9610   46.6560 N   0  0  0  0  0  0  0  0  0  0  0  0
   58.4130   33.4540   45.1200 S   0  0  0  0  0  0  0  0  0  0  0  0
   57.4230   34.5680   45.3100 O   0  0  0  0  0  0  0  0  0  0  0  0
   59.5440   33.9550   44.2640 O   0  0  0  0  0  0  0  0  0  0  0  0
   57.6270   32.0900   44.3340 C   0  0  0  0  0  0  0  0  0  0  0  0
   57.6200   31.9860   42.9370 C   0  0  0  0  0  0  0  0  0  0  0  0
   57.0220   30.8850   42.3190 C   0  0  0  0  0  0  0  0  0  0  0  0
   56.4210   29.8870   43.0920 C   0  0  0  0  0  0  0  0  0  0  0  0
   56.4090   29.9830   44.4890 C   0  0  0  0  0  0  0  0  0  0  0  0
   55.7990   28.9260   45.2440 N   0  0  0  0  0  0  0  0  0  0  0  0
   56.3840   27.6580   45.5700 C   0  0  0  0  0  0  0  0  0  0  0  0
   55.6810   26.7190   46.0290 O   0  0  0  0  0  0  0  0  0  0  0  0
   57.8380   27.4300   45.2950 C   0  0  0  0  0  0  0  0  0  0  0  0
   58.6600   28.1100   46.3100 N   0  0  0  0  0  0  0  0  0  0  0  0
   58.5420   27.7380   47.6210 C   0  0  0  0  0  0  0  0  0  0  0  0
   59.2530   28.3720   48.5870 N   0  0  0  0  0  0  0  0  0  0  0  0
   60.0900   29.3950   48.2870 C   0  0  0  0  0  0  0  0  0  0  0  0
   60.8020   30.0380   49.3060 C   0  0  0  0  0  0  0  0  0  0  0  0
   61.6500   31.1050   49.0000 C   0  0  0  0  0  0  0  0  0  0  0  0
   61.7930   31.5400   47.6760 C   0  0  0  0  0  0  0  0  0  0  0  0
   62.8290   32.9200   47.3020 S   0  0  0  0  0  0  0  0  0  0  0  0
   62.1100   33.8370   46.3500 O   0  0  0  0  0  0  0  0  0  0  0  0
   64.0790   32.4320   46.6230 O   0  0  0  0  0  0  0  0  0  0  0  0
   63.2590   33.8080   48.7470 N   0  0  0  0  0  0  0  0  0  0  0  0
   64.0390   32.9490   49.6650 C   0  0  0  0  0  0  0  0  0  0  0  0
   64.0500   33.5150   51.0880 C   0  0  0  0  0  0  0  0  0  0  0  0
   62.6280   33.5560   51.6710 C   0  0  0  0  0  0  0  0  0  0  0  0
   61.5440   33.7030   50.5900 C   0  0  0  0  0  0  0  0  0  0  0  0
   62.0770   34.4610   49.3630 C   0  0  0  0  0  0  0  0  0  0  0  0
   61.0950   30.8850   46.6500 C   0  0  0  0  0  0  0  0  0  0  0  0
   60.2340   29.8140   46.9510 C   0  0  0  0  0  0  0  0  0  0  0  0
   59.4940   29.1430   45.9620 C   0  0  0  0  0  0  0  0  0  0  0  0
   59.5920   29.4980   44.7530 O   0  0  0  0  0  0  0  0  0  0  0  0
   57.0340   31.0810   45.1080 C   0  0  0  0  0  0  0  0  0  0  0  0
   60.0460   33.2160   46.6720 H   0  0  0  0  0  0  0  0  0  0  0  0
   58.0862   32.7726   42.3256 H   0  0  0  0  0  0  0  0  0  0  0  0
   57.0240   30.8031   41.2221 H   0  0  0  0  0  0  0  0  0  0  0  0
   55.9546   29.0209   42.5997 H   0  0  0  0  0  0  0  0  0  0  0  0
   58.0479   26.3505   45.3210 H   0  0  0  0  0  0  0  0  0  0  0  0
   58.0838   27.8364   44.3028 H   0  0  0  0  0  0  0  0  0  0  0  0
   57.8637   26.9164   47.8948 H   0  0  0  0  0  0  0  0  0  0  0  0
   60.6938   29.7030   50.3482 H   0  0  0  0  0  0  0  0  0  0  0  0
   62.2090   31.6068   49.8036 H   0  0  0  0  0  0  0  0  0  0  0  0
   63.5904   31.9448   49.6830 H   0  0  0  0  0  0  0  0  0  0  0  0
   65.0764   32.9073   49.3016 H   0  0  0  0  0  0  0  0  0  0  0  0
   64.6823   32.8784   51.7243 H   0  0  0  0  0  0  0  0  0  0  0  0
   64.4474   34.5402   51.0563 H   0  0  0  0  0  0  0  0  0  0  0  0
   62.4481   32.6225   52.2243 H   0  0  0  0  0  0  0  0  0  0  0  0
   62.5641   34.4376   52.3257 H   0  0  0  0  0  0  0  0  0  0  0  0
   61.2126   32.7020   50.2766 H   0  0  0  0  0  0  0  0  0  0  0  0
   60.7061   34.2755   51.0145 H   0  0  0  0  0  0  0  0  0  0  0  0
   61.2763   34.5180   48.6110 H   0  0  0  0  0  0  0  0  0  0  0  0
   62.3920   35.4585   49.7034 H   0  0  0  0  0  0  0  0  0  0  0  0
   61.2215   31.2101   45.6068 H   0  0  0  0  0  0  0  0  0  0  0  0
   57.0579   31.1489   46.2056 H   0  0  0  0  0  0  0  0  0  0  0  0
  1  2  1  0
  2  3  2  0
  2  4  2  0
  2  5  1  0
  5  6  2  0
  6  7  1  0
  7  8  2  0
  8  9  1  0
  9 10  1  0
 10 11  1  0
 11 12  2  0
 11 13  1  0
 13 14  1  0
 14 15  1  0
 15 16  2  0
 16 17  1  0
 17 18  2  0
 18 19  1  0
 19 20  2  0
 20 21  1  0
 21 22  2  0
 21 23  2  0
 21 24  1  0
 24 25  1  0
 25 26  1  0
 26 27  1  0
 27 28  1  0
 28 29  1  0
 20 30  1  0
 30 31  2  0
 31 32  1  0
 32 33  2  0
  9 34  2  0
 34  5  1  0
 32 14  1  0
 31 17  1  0
 29 24  1  0
  1 35  1  0
  6 36  1  0
  7 37  1  0
  8 38  1  0
 13 39  1  0
 13 40  1  0
 15 41  1  0
 18 42  1  0
 19 43  1  0
 25 44  1  0
 25 45  1  0
 26 46  1  0
 26 47  1  0
 27 48  1  0
 27 49  1  0
 28 50  1  0
 28 51  1  0
 29 52  1  0
 29 53  1  0
 30 54  1  0
 34 55  1  0
M  CHG  2   1  -1  10  -1
M  END
>  <UniqueID>  (22) 
19

>  <SMILES>  (22) 
[NH-]S(=O)(=O)c1cccc([N-]C(=O)Cn2cnc3ccc(S(=O)(=O)N4CCCCC4)cc3c2=O)c1

>  <Energy>  (22) 
70.75235939629769

>  <Genealogy>  (22) 
[NH-]S(=O)(=O)c1cccc([N-]C(=O)Cn2cnc3ccc(S(=O)(=O)N4CCCCC4)cc3c2=O)c1 (protonated)
[NH-]S(=O)(=O)c1cccc([N-]C(=O)Cn2cnc3ccc(S(=O)(=O)N4CCCCC4)cc3c2=O)c1 (3D coordinates assigned)
[NH-]S(=O)(=O)c1cccc([N-]C(=O)Cn2cnc3ccc(S(=O)(=O)N4CCCCC4)cc3c2=O)c1 (nonaromatic ring conformer: 70.75235939629769 kcal/mol)

>  <smiles>  (22) 
NS(=O)(=O)c1cccc(NC(=O)Cn2cnc3ccc(S(=O)(=O)N4CCCCC4)cc3c2=O)c1

>  <score_type>  (22) 
oracle

>  <origin>  (22) 
adg

>  <m_score__min__energy>  (22) 
-14.06

>  <m_primary>  (22) 
energy

$$$$
22:0
     RDKit          3D

 43 45  0  0  0  0  0  0  0  0999 V2000
   60.6800   30.1990   49.5260 C   0  0  0  0  0  0  0  0  0  0  0  0
   61.1340   30.3350   48.1960 O   0  0  0  0  0  0  0  0  0  0  0  0
   61.7210   31.4700   47.6720 C   0  0  0  0  0  0  0  0  0  0  0  0
   63.0770   31.6270   47.4970 C   0  0  0  0  0  0  0  0  0  0  0  0
   63.6260   32.7980   46.9620 C   0  0  0  0  0  0  0  0  0  0  0  0
   62.7840   33.8470   46.5880 C   0  0  0  0  0  0  0  0  0  0  0  0
   61.4230   33.6710   46.7720 C   0  0  0  0  0  0  0  0  0  0  0  0
   60.9030   32.5040   47.3030 C   0  0  0  0  0  0  0  0  0  0  0  0
   59.5230   32.4020   47.4570 O   0  0  0  0  0  0  0  0  0  0  0  0
   58.7030   32.3320   46.3080 C   0  0  0  0  0  0  0  0  0  0  0  0
   58.2200   30.9540   46.0400 C   0  0  0  0  0  0  0  0  0  0  0  0
   57.0930   30.6810   45.3650 N   0  0  0  0  0  0  0  0  0  0  0  0
   56.6780   29.3980   45.1370 C   0  0  0  0  0  0  0  0  0  0  0  0
   55.6230   29.2740   44.5010 O   0  0  0  0  0  0  0  0  0  0  0  0
   57.3990   28.3250   45.5930 C   0  0  0  0  0  0  0  0  0  0  0  0
   57.0480   26.9300   45.4060 C   0  0  0  0  0  0  0  0  0  0  0  0
   55.9740   26.5540   45.9690 O   0  0  0  0  0  0  0  0  0  0  0  0
   57.7620   25.9700   44.6810 N   0  0  0  0  0  0  0  0  0  0  0  0
   57.4410   24.6100   44.4860 C   0  0  0  0  0  0  0  0  0  0  0  0
   56.6720   24.2510   43.3660 C   0  0  0  0  0  0  0  0  0  0  0  0
   56.3170   22.9510   43.1040 C   0  0  0  0  0  0  0  0  0  0  0  0
   56.6970   21.9230   43.9300 C   0  0  0  0  0  0  0  0  0  0  0  0
   57.4490   22.2420   45.0340 C   0  0  0  0  0  0  0  0  0  0  0  0
   57.8090   23.5700   45.2970 C   0  0  0  0  0  0  0  0  0  0  0  0
   58.5720   28.6510   46.2960 C   0  0  0  0  0  0  0  0  0  0  0  0
   58.9470   29.9230   46.5000 N   0  0  0  0  0  0  0  0  0  0  0  0
   61.4979   30.4440   50.2195 H   0  0  0  0  0  0  0  0  0  0  0  0
   59.8364   30.8839   49.6973 H   0  0  0  0  0  0  0  0  0  0  0  0
   60.3519   29.1631   49.6973 H   0  0  0  0  0  0  0  0  0  0  0  0
   63.7502   30.8067   47.7866 H   0  0  0  0  0  0  0  0  0  0  0  0
   64.7149   32.8913   46.8369 H   0  0  0  0  0  0  0  0  0  0  0  0
   63.1867   34.7783   46.1631 H   0  0  0  0  0  0  0  0  0  0  0  0
   60.7359   34.4817   46.4880 H   0  0  0  0  0  0  0  0  0  0  0  0
   57.8330   32.9890   46.4545 H   0  0  0  0  0  0  0  0  0  0  0  0
   59.3071   32.6492   45.4452 H   0  0  0  0  0  0  0  0  0  0  0  0
   58.6550   26.2940   44.2170 H   0  0  0  0  0  0  0  0  0  0  0  0
   56.3426   25.0402   42.6742 H   0  0  0  0  0  0  0  0  0  0  0  0
   55.7140   22.7282   42.2114 H   0  0  0  0  0  0  0  0  0  0  0  0
   56.4101   20.8829   43.7159 H   0  0  0  0  0  0  0  0  0  0  0  0
   57.7725   21.4452   45.7199 H   0  0  0  0  0  0  0  0  0  0  0  0
   58.4118   23.7861   46.1914 H   0  0  0  0  0  0  0  0  0  0  0  0
   59.2009   27.8393   46.6905 H   0  0  0  0  0  0  0  0  0  0  0  0
   59.8340   30.1310   47.0320 H   0  0  0  0  0  0  0  0  0  0  0  0
  1  2  1  0
  2  3  1  0
  3  4  2  0
  4  5  1  0
  5  6  2  0
  6  7  1  0
  7  8  2  0
  8  9  1  0
  9 10  1  0
 10 11  1  0
 11 12  2  0
 12 13  1  0
 13 14  2  0
 13 15  1  0
 15 16  1  0
 16 17  2  0
 16 18  1  0
 18 19  1  0
 19 20  2  0
 20 21  1  0
 21 22  2  0
 22 23  1  0
 23 24  2  0
 15 25  2  0
 25 26  1  0
  8  3  1  0
 26 11  1  0
 24 19  1  0
  1 27  1  0
  1 28  1  0
  1 29  1  0
  4 30  1  0
  5 31  1  0
  6 32  1  0
  7 33  1  0
 10 34  1  0
 10 35  1  0
 18 36  1  0
 20 37  1  0
 21 38  1  0
 22 39  1  0
 23 40  1  0
 24 41  1  0
 25 42  1  0
 26 43  1  0
M  END
>  <smiles>  (23) 
COc1ccccc1OCc1nc(=O)c(C(=O)Nc2ccccc2)c[nH]1

>  <score_type>  (23) 
oracle

>  <origin>  (23) 
adg

>  <m_score__min__energy>  (23) 
-7.3399999999999999

>  <m_primary>  (23) 
energy

$$$$
23:0
     RDKit          3D

 48 51  0  0  0  0  0  0  0  0999 V2000
   60.2040   27.1890   49.0170 O   0  0  0  0  0  0  0  0  0  0  0  0
   60.2040   27.9080   47.9810 C   0  0  0  0  0  0  0  0  0  0  0  0
   59.7140   27.3520   46.7500 N   0  0  0  0  0  0  0  0  0  0  0  0
   58.5110   27.3910   46.2340 C   0  0  0  0  0  0  0  0  0  0  0  0
   57.6690   26.3120   46.5380 C   0  0  0  0  0  0  0  0  0  0  0  0
   56.3100   26.3710   46.2380 C   0  0  0  0  0  0  0  0  0  0  0  0
   55.7940   27.4610   45.6200 N   0  0  0  0  0  0  0  0  0  0  0  0
   56.5760   28.4970   45.2210 C   0  0  0  0  0  0  0  0  0  0  0  0
   55.9900   29.5690   44.5360 C   0  0  0  0  0  0  0  0  0  0  0  0
   56.7850   30.5910   44.0220 C   0  0  0  0  0  0  0  0  0  0  0  0
   58.1700   30.5240   44.1450 C   0  0  0  0  0  0  0  0  0  0  0  0
   58.7670   29.4600   44.8270 C   0  0  0  0  0  0  0  0  0  0  0  0
   57.9780   28.4700   45.4580 C   0  0  0  0  0  0  0  0  0  0  0  0
   60.6490   29.3190   48.0670 C   0  0  0  0  0  0  0  0  0  0  0  0
   60.8750   30.0710   46.9000 C   0  0  0  0  0  0  0  0  0  0  0  0
   61.4250   31.3520   46.9820 C   0  0  0  0  0  0  0  0  0  0  0  0
   61.7550   31.9010   48.2260 C   0  0  0  0  0  0  0  0  0  0  0  0
   62.5980   33.4460   48.2950 S   0  0  0  0  0  0  0  0  0  0  0  0
   63.8720   33.2760   49.0720 O   0  0  0  0  0  0  0  0  0  0  0  0
   62.9350   33.9210   46.9090 O   0  0  0  0  0  0  0  0  0  0  0  0
   61.5990   34.6350   49.0760 N   0  0  0  0  0  0  0  0  0  0  0  0
   60.2480   34.1010   49.2640 C   0  0  0  0  0  0  0  0  0  0  0  0
   59.5260   34.0620   47.9460 C   0  0  0  0  0  0  0  0  0  0  0  0
   59.9090   34.9310   46.9070 C   0  0  0  0  0  0  0  0  0  0  0  0
   59.2660   34.8730   45.6660 C   0  0  0  0  0  0  0  0  0  0  0  0
   58.2450   33.9400   45.4510 C   0  0  0  0  0  0  0  0  0  0  0  0
   57.6290   33.8800   44.2450 F   0  0  0  0  0  0  0  0  0  0  0  0
   57.8650   33.0660   46.4760 C   0  0  0  0  0  0  0  0  0  0  0  0
   58.5080   33.1200   47.7180 C   0  0  0  0  0  0  0  0  0  0  0  0
   61.4790   31.1790   49.3960 C   0  0  0  0  0  0  0  0  0  0  0  0
   60.9220   29.8990   49.3180 C   0  0  0  0  0  0  0  0  0  0  0  0
   58.0843   25.4129   47.0166 H   0  0  0  0  0  0  0  0  0  0  0  0
   55.6532   25.5296   46.5038 H   0  0  0  0  0  0  0  0  0  0  0  0
   54.8986   29.6040   44.4035 H   0  0  0  0  0  0  0  0  0  0  0  0
   56.3184   31.4508   43.5190 H   0  0  0  0  0  0  0  0  0  0  0  0
   58.7975   31.3121   43.7034 H   0  0  0  0  0  0  0  0  0  0  0  0
   59.8639   29.3917   44.8736 H   0  0  0  0  0  0  0  0  0  0  0  0
   60.6172   29.6479   45.9179 H   0  0  0  0  0  0  0  0  0  0  0  0
   61.5997   31.9323   46.0640 H   0  0  0  0  0  0  0  0  0  0  0  0
   62.0180   34.8120   50.0190 H   0  0  0  0  0  0  0  0  0  0  0  0
   60.3121   33.0828   49.6752 H   0  0  0  0  0  0  0  0  0  0  0  0
   59.6959   34.7489   49.9607 H   0  0  0  0  0  0  0  0  0  0  0  0
   60.7173   35.6587   47.0716 H   0  0  0  0  0  0  0  0  0  0  0  0
   59.5625   35.5601   44.8598 H   0  0  0  0  0  0  0  0  0  0  0  0
   57.0601   32.3359   46.3053 H   0  0  0  0  0  0  0  0  0  0  0  0
   58.2159   32.4235   48.5177 H   0  0  0  0  0  0  0  0  0  0  0  0
   61.7014   31.6211   50.3784 H   0  0  0  0  0  0  0  0  0  0  0  0
   60.6963   29.3431   50.2400 H   0  0  0  0  0  0  0  0  0  0  0  0
  1  2  2  0
  2  3  1  0
  3  4  2  3
  4  5  1  0
  5  6  2  0
  6  7  1  0
  7  8  1  0
  8  9  2  0
  9 10  1  0
 10 11  2  0
 11 12  1  0
 12 13  2  0
  2 14  1  0
 14 15  2  0
 15 16  1  0
 16 17  2  0
 17 18  1  0
 18 19  2  0
 18 20  2  0
 18 21  1  0
 21 22  1  0
 22 23  1  0
 23 24  2  0
 24 25  1  0
 25 26  2  0
 26 27  1  0
 26 28  1  0
 28 29  2  0
 17 30  1  0
 30 31  2  0
 13  4  1  0
 31 14  1  0
 13  8  1  0
 29 23  1  0
  5 32  1  0
  6 33  1  0
  9 34  1  0
 10 35  1  0
 11 36  1  0
 12 37  1  0
 15 38  1  0
 16 39  1  0
 21 40  1  0
 22 41  1  0
 22 42  1  0
 24 43  1  0
 25 44  1  0
 28 45  1  0
 29 46  1  0
 30 47  1  0
 31 48  1  0
M  CHG  1   7  -1
M  END
>  <UniqueID>  (24) 
20

>  <SMILES>  (24) 
O=C(N=c1cc[n-]c2ccccc12)c1ccc(S(=O)(=O)NCc2ccc(F)cc2)cc1

>  <Energy>  (24) 
71.49001117583545

>  <Genealogy>  (24) 
O=C(N=c1cc[n-]c2ccccc12)c1ccc(S(=O)(=O)NCc2ccc(F)cc2)cc1 (protonated)
O=C(N=c1cc[n-]c2ccccc12)c1ccc(S(=O)(=O)NCc2ccc(F)cc2)cc1 (3D coordinates assigned)
O=C(N=c1cc[n-]c2ccccc12)c1ccc(S(=O)(=O)NCc2ccc(F)cc2)cc1 (optimized conformer: 71.49001117583545 kcal/mol)

>  <smiles>  (24) 
O=C(N=c1cc[nH]c2ccccc12)c1ccc(S(=O)(=O)NCc2ccc(F)cc2)cc1

>  <score_type>  (24) 
oracle

>  <origin>  (24) 
adg

>  <m_score__min__energy>  (24) 
-11.26

>  <m_primary>  (24) 
energy

$$$$
24:0
     RDKit          3D

 60 64  0  0  1  0  0  0  0  0999 V2000
   59.6540   35.7640   46.3500 C   0  0  0  0  0  0  0  0  0  0  0  0
   59.5840   34.2820   46.2310 C   0  0  0  0  0  0  0  0  0  0  0  0
   58.4630   33.7000   45.6990 C   0  0  0  0  0  0  0  0  0  0  0  0
   58.4280   32.3220   45.6010 C   0  0  0  0  0  0  0  0  0  0  0  0
   59.4890   31.5180   46.0220 C   0  0  0  0  0  0  0  0  0  0  0  0
   59.2970   30.0860   45.9050 C   0  0  0  0  0  0  0  0  0  0  0  0
   59.4160   29.5750   44.7300 O   0  0  0  0  0  0  0  0  0  0  0  0
   58.9950   29.1870   46.9310 N   0  0  0  0  0  0  0  0  0  0  0  0
   58.8360   27.8080   46.5420 C   0  0  0  0  0  0  0  0  0  0  0  0
   59.9750   27.0880   46.3000 C   0  0  0  0  0  0  0  0  0  0  0  0
   59.8520   25.7480   45.9930 C   0  0  0  0  0  0  0  0  0  0  0  0
   58.5700   25.1790   45.9420 C   0  0  0  0  0  0  0  0  0  0  0  0
   57.4350   25.9340   46.1930 C   0  0  0  0  0  0  0  0  0  0  0  0
   56.1200   25.2440   46.1980 C   0  0  0  0  0  0  0  0  0  0  0  0
   55.1360   26.0000   46.0390 O   0  0  0  0  0  0  0  0  0  0  0  0
   55.9920   23.8570   46.3610 N   0  0  0  0  0  0  0  0  0  0  0  0
   54.8200   23.0400   46.3590 C   0  0  0  0  0  0  0  0  0  0  0  0
   54.6740   22.0270   47.3930 C   0  0  0  0  0  0  0  0  0  0  0  0
   53.4090   21.5560   47.6880 C   0  0  0  0  0  0  0  0  0  0  0  0
   53.1740   20.5640   48.6150 C   0  0  0  0  0  0  0  0  0  0  0  0
   54.2480   20.0110   49.2810 C   0  0  0  0  0  0  0  0  0  0  0  0
   55.5280   20.4410   49.0260 C   0  0  0  0  0  0  0  0  0  0  0  0
   55.7280   21.4420   48.0900 C   0  0  0  0  0  0  0  0  0  0  0  0
   57.0580   21.8380   47.8880 O   0  0  0  0  0  0  0  0  0  0  0  0
   57.5570   27.2680   46.4960 C   0  0  0  0  0  0  0  0  0  0  0  0
   60.6160   32.1050   46.5560 C   0  0  0  0  0  0  0  0  0  0  0  0
   60.6450   33.4760   46.6540 C   0  0  0  0  0  0  0  0  0  0  0  0
   61.7430   34.1950   47.2360 N   0  0  0  0  0  0  0  0  0  0  0  0
   62.3970   33.6790   48.2430 C   0  0  0  0  0  0  0  0  0  0  0  0
   63.6710   33.3320   48.0350 N   0  0  0  0  0  0  0  0  0  0  0  0
   64.4760   32.7910   48.9710 C   0  0  0  0  0  0  0  0  0  0  0  0
   63.9220   32.6030   50.1810 N   0  0  0  0  0  0  0  0  0  0  0  0
   62.6680   32.9270   50.4510 C   0  0  0  0  0  0  0  0  0  0  0  0
   61.6660   32.7910   51.9600 S   0  0  0  0  0  0  0  0  0  0  0  0
   60.1080   33.5310   51.1740 C   0  0  0  0  0  0  0  0  0  0  0  0
   58.6530   33.7530   51.9770 Cl  0  0  0  0  0  0  0  0  0  0  0  0
   60.5500   33.7870   49.8640 C   0  0  0  0  0  0  0  0  0  0  0  0
   61.7720   33.5070   49.4890 C   0  0  0  0  0  0  0  0  0  0  0  0
   59.6673   36.0463   47.4131 H   0  0  0  0  0  0  0  0  0  0  0  0
   60.5703   36.1281   45.8624 H   0  0  0  0  0  0  0  0  0  0  0  0
   58.7761   36.2129   45.8624 H   0  0  0  0  0  0  0  0  0  0  0  0
   57.6148   34.3127   45.3595 H   0  0  0  0  0  0  0  0  0  0  0  0
   57.5337   31.8422   45.1768 H   0  0  0  0  0  0  0  0  0  0  0  0
   58.8990   29.5270   47.8990 H   0  0  0  0  0  0  0  0  0  0  0  0
   60.9645   27.5660   46.3491 H   0  0  0  0  0  0  0  0  0  0  0  0
   60.7438   25.1363   45.7917 H   0  0  0  0  0  0  0  0  0  0  0  0
   58.4638   24.1117   45.6978 H   0  0  0  0  0  0  0  0  0  0  0  0
   56.9180   23.3370   46.5130 H   0  0  0  0  0  0  0  0  0  0  0  0
   53.9549   23.7143   46.4416 H   0  0  0  0  0  0  0  0  0  0  0  0
   54.8987   22.4614   45.4268 H   0  0  0  0  0  0  0  0  0  0  0  0
   52.5498   21.9932   47.1583 H   0  0  0  0  0  0  0  0  0  0  0  0
   52.1496   20.2197   48.8200 H   0  0  0  0  0  0  0  0  0  0  0  0
   54.0781   19.2177   50.0238 H   0  0  0  0  0  0  0  0  0  0  0  0
   56.3820   19.9963   49.5580 H   0  0  0  0  0  0  0  0  0  0  0  0
   57.7730   21.4720   48.5400 H   0  0  0  0  0  0  0  0  0  0  0  0
   56.6709   27.8885   46.6957 H   0  0  0  0  0  0  0  0  0  0  0  0
   61.4667   31.4948   46.8936 H   0  0  0  0  0  0  0  0  0  0  0  0
   64.0850   33.4830   47.1030 H   0  0  0  0  0  0  0  0  0  0  0  0
   65.5207   32.5204   48.7579 H   0  0  0  0  0  0  0  0  0  0  0  0
   59.8533   34.2324   49.1385 H   0  0  0  0  0  0  0  0  0  0  0  0
  1  2  1  0
  2  3  2  0
  3  4  1  0
  4  5  2  0
  5  6  1  0
  6  7  2  0
  6  8  1  0
  8  9  1  0
  9 10  2  0
 10 11  1  0
 11 12  2  0
 12 13  1  0
 13 14  1  0
 14 15  2  0
 14 16  1  0
 16 17  1  0
 17 18  1  0
 18 19  2  0
 19 20  1  0
 20 21  2  0
 21 22  1  0
 22 23  2  0
 23 24  1  0
 13 25  2  0
  5 26  1  0
 26 27  2  0
 27 28  1  0
 28 29  2  0
 29 30  1  0
 30 31  1  0
 31 32  2  0
 32 33  1  0
 33 34  1  0
 34 35  1  0
 35 36  1  0
 35 37  2  0
 37 38  1  0
 27  2  1  0
 38 29  1  0
 25  9  1  0
 38 33  2  0
 23 18  1  0
  1 39  1  0
  1 40  1  0
  1 41  1  0
  3 42  1  0
  4 43  1  0
  8 44  1  0
 10 45  1  0
 11 46  1  0
 12 47  1  0
 16 48  1  0
 17 49  1  0
 17 50  1  0
 19 51  1  0
 20 52  1  0
 21 53  1  0
 22 54  1  0
 24 55  1  0
 25 56  1  0
 26 57  1  0
 30 58  1  0
 31 59  1  0
 37 60  1  0
M  END
>  <smiles>  (25) 
Cc1ccc(C(=O)Nc2cccc(C(=O)NCc3ccccc3O)c2)cc1N=c1[nH]cnc2sc(Cl)cc12

>  <score_type>  (25) 
oracle

>  <origin>  (25) 
adg

>  <m_score__min__energy>  (25) 
-10.69

>  <m_primary>  (25) 
energy

$$$$
25:0
     RDKit          3D

 46 48  0  0  0  0  0  0  0  0999 V2000
   57.6570   29.7770   51.5770 O   0  0  0  0  0  0  0  0  0  0  0  0
   57.1730   30.9230   51.3670 C   0  0  0  0  0  0  0  0  0  0  0  0
   55.8050   31.1910   51.7140 N   0  0  0  0  0  0  0  0  0  0  0  0
   54.8550   30.1260   52.0240 C   0  0  0  0  0  0  0  0  0  0  0  0
   53.4700   30.6950   52.1650 C   0  0  0  0  0  0  0  0  0  0  0  0
   52.7050   30.4370   53.3150 C   0  0  0  0  0  0  0  0  0  0  0  0
   51.4060   30.9440   53.4230 C   0  0  0  0  0  0  0  0  0  0  0  0
   50.8620   31.7060   52.3850 C   0  0  0  0  0  0  0  0  0  0  0  0
   51.6140   31.9590   51.2340 C   0  0  0  0  0  0  0  0  0  0  0  0
   51.0690   32.7120   50.2010 O   0  0  0  0  0  0  0  0  0  0  0  0
   52.9130   31.4540   51.1220 C   0  0  0  0  0  0  0  0  0  0  0  0
   58.0340   31.9820   50.7970 C   0  0  0  0  0  0  0  0  0  0  0  0
   58.1180   32.1320   49.4010 C   0  0  0  0  0  0  0  0  0  0  0  0
   58.9370   33.1200   48.8370 C   0  0  0  0  0  0  0  0  0  0  0  0
   59.0840   33.2750   47.0860 S   0  0  0  0  0  0  0  0  0  0  0  0
   59.7870   34.5650   46.7760 O   0  0  0  0  0  0  0  0  0  0  0  0
   57.7220   33.3140   46.4520 O   0  0  0  0  0  0  0  0  0  0  0  0
   59.9990   31.9550   46.4110 N   0  0  0  0  0  0  0  0  0  0  0  0
   60.6760   31.1780   47.4510 C   0  0  0  0  0  0  0  0  0  0  0  0
   61.9380   31.8580   47.9150 C   0  0  0  0  0  0  0  0  0  0  0  0
   62.5650   32.8240   47.1100 C   0  0  0  0  0  0  0  0  0  0  0  0
   63.7280   33.4610   47.5510 C   0  0  0  0  0  0  0  0  0  0  0  0
   64.2780   33.1330   48.7940 C   0  0  0  0  0  0  0  0  0  0  0  0
   63.6660   32.1670   49.5960 C   0  0  0  0  0  0  0  0  0  0  0  0
   62.5000   31.5300   49.1600 C   0  0  0  0  0  0  0  0  0  0  0  0
   59.6660   33.9740   49.6710 C   0  0  0  0  0  0  0  0  0  0  0  0
   59.5730   33.8480   51.0580 C   0  0  0  0  0  0  0  0  0  0  0  0
   58.7610   32.8610   51.6240 C   0  0  0  0  0  0  0  0  0  0  0  0
   58.6530   32.8010   52.9760 F   0  0  0  0  0  0  0  0  0  0  0  0
   55.4770   32.1810   51.7820 H   0  0  0  0  0  0  0  0  0  0  0  0
   54.8627   29.3837   51.2122 H   0  0  0  0  0  0  0  0  0  0  0  0
   55.1462   29.6476   52.9707 H   0  0  0  0  0  0  0  0  0  0  0  0
   53.1287   29.8349   54.1322 H   0  0  0  0  0  0  0  0  0  0  0  0
   50.8114   30.7428   54.3263 H   0  0  0  0  0  0  0  0  0  0  0  0
   49.8415   32.1068   52.4739 H   0  0  0  0  0  0  0  0  0  0  0  0
   53.5012   31.6517   50.2137 H   0  0  0  0  0  0  0  0  0  0  0  0
   57.5355   31.4677   48.7456 H   0  0  0  0  0  0  0  0  0  0  0  0
   59.9971   31.0608   48.3085 H   0  0  0  0  0  0  0  0  0  0  0  0
   60.9467   30.1988   47.0291 H   0  0  0  0  0  0  0  0  0  0  0  0
   62.1387   33.0798   46.1288 H   0  0  0  0  0  0  0  0  0  0  0  0
   64.2113   34.2212   46.9197 H   0  0  0  0  0  0  0  0  0  0  0  0
   65.1930   33.6359   49.1404 H   0  0  0  0  0  0  0  0  0  0  0  0
   64.1018   31.9070   50.5719 H   0  0  0  0  0  0  0  0  0  0  0  0
   62.0211   30.7694   49.7942 H   0  0  0  0  0  0  0  0  0  0  0  0
   60.3143   34.7470   49.2327 H   0  0  0  0  0  0  0  0  0  0  0  0
   60.1415   34.5287   51.7088 H   0  0  0  0  0  0  0  0  0  0  0  0
  1  2  2  0
  2  3  1  0
  3  4  1  0
  4  5  1  0
  5  6  2  0
  6  7  1  0
  7  8  2  0
  8  9  1  0
  9 10  1  0
  9 11  2  0
  2 12  1  0
 12 13  2  0
 13 14  1  0
 14 15  1  0
 15 16  2  0
 15 17  2  0
 15 18  1  0
 18 19  1  0
 19 20  1  0
 20 21  2  0
 21 22  1  0
 22 23  2  0
 23 24  1  0
 24 25  2  0
 14 26  2  0
 26 27  1  0
 27 28  2  0
 28 29  1  0
 11  5  1  0
 28 12  1  0
 25 20  1  0
  3 30  1  0
  4 31  1  0
  4 32  1  0
  6 33  1  0
  7 34  1  0
  8 35  1  0
 11 36  1  0
 13 37  1  0
 19 38  1  0
 19 39  1  0
 21 40  1  0
 22 41  1  0
 23 42  1  0
 24 43  1  0
 25 44  1  0
 26 45  1  0
 27 46  1  0
M  CHG  2  10  -1  18  -1
M  END
>  <UniqueID>  (26) 
21

>  <SMILES>  (26) 
O=C(NCc1cccc([O-])c1)c1cc(S(=O)(=O)[N-]Cc2ccccc2)ccc1F

>  <Energy>  (26) 
48.03379320792172

>  <Genealogy>  (26) 
O=C(NCc1cccc([O-])c1)c1cc(S(=O)(=O)[N-]Cc2ccccc2)ccc1F (protonated)
O=C(NCc1cccc([O-])c1)c1cc(S(=O)(=O)[N-]Cc2ccccc2)ccc1F (3D coordinates assigned)
O=C(NCc1cccc([O-])c1)c1cc(S(=O)(=O)[N-]Cc2ccccc2)ccc1F (optimized conformer: 48.03379320792172 kcal/mol)

>  <smiles>  (26) 
O=C(NCc1cccc(O)c1)c1cc(S(=O)(=O)NCc2ccccc2)ccc1F

>  <score_type>  (26) 
oracle

>  <origin>  (26) 
adg

>  <m_score__min__energy>  (26) 
-14.41

>  <m_primary>  (26) 
energy

$$$$
26:0
     RDKit          3D

 58 61  0  0  0  0  0  0  0  0999 V2000
   58.4830   27.0630   43.4110 C   0  0  0  0  0  0  0  0  0  0  0  0
   57.5200   26.3340   44.2550 N   0  0  1  0  0  0  0  0  0  0  0  0
   58.1540   25.1730   44.9240 C   0  0  0  0  0  0  0  0  0  0  0  0
   57.7010   23.8600   44.3260 C   0  0  0  0  0  0  0  0  0  0  0  0
   56.6690   23.8380   43.3720 C   0  0  0  0  0  0  0  0  0  0  0  0
   56.2620   22.6270   42.8020 C   0  0  0  0  0  0  0  0  0  0  0  0
   56.8840   21.4330   43.1770 C   0  0  0  0  0  0  0  0  0  0  0  0
   57.9130   21.4470   44.1210 C   0  0  0  0  0  0  0  0  0  0  0  0
   58.3240   22.6560   44.6940 C   0  0  0  0  0  0  0  0  0  0  0  0
   56.9700   27.2420   45.2430 C   0  0  0  0  0  0  0  0  0  0  0  0
   56.3330   26.7790   46.2300 O   0  0  0  0  0  0  0  0  0  0  0  0
   57.1620   28.7150   45.1450 C   0  0  0  0  0  0  0  0  0  0  0  0
   56.4160   29.4950   44.2420 C   0  0  0  0  0  0  0  0  0  0  0  0
   56.6200   30.8760   44.1610 C   0  0  0  0  0  0  0  0  0  0  0  0
   57.5720   31.5020   44.9790 C   0  0  0  0  0  0  0  0  0  0  0  0
   57.8140   32.9840   44.8590 C   0  0  0  0  0  0  0  0  0  0  0  0
   58.7480   33.4330   45.9050 N   0  0  0  0  0  0  0  0  0  0  0  0
   60.0360   33.7390   45.5570 C   0  0  0  0  0  0  0  0  0  0  0  0
   60.9630   34.1340   46.5220 C   0  0  0  0  0  0  0  0  0  0  0  0
   60.5840   34.1990   47.8640 C   0  0  0  0  0  0  0  0  0  0  0  0
   61.5370   34.6280   48.8520 N   0  0  0  0  0  0  0  0  0  0  0  0
   62.6840   33.8640   49.2610 C   0  0  0  0  0  0  0  0  0  0  0  0
   63.0720   32.7450   48.5050 C   0  0  0  0  0  0  0  0  0  0  0  0
   64.1690   31.9720   48.8980 C   0  0  0  0  0  0  0  0  0  0  0  0
   64.8780   32.3020   50.0570 C   0  0  0  0  0  0  0  0  0  0  0  0
   64.4860   33.3990   50.8280 C   0  0  0  0  0  0  0  0  0  0  0  0
   63.3900   34.1750   50.4380 C   0  0  0  0  0  0  0  0  0  0  0  0
   59.2580   33.9010   48.2090 C   0  0  0  0  0  0  0  0  0  0  0  0
   58.3520   33.5090   47.2180 C   0  0  0  0  0  0  0  0  0  0  0  0
   57.1680   33.2310   47.5500 O   0  0  0  0  0  0  0  0  0  0  0  0
   58.3310   30.7260   45.8660 C   0  0  0  0  0  0  0  0  0  0  0  0
   58.1280   29.3460   45.9480 C   0  0  0  0  0  0  0  0  0  0  0  0
   59.1963   27.6029   44.0511 H   0  0  0  0  0  0  0  0  0  0  0  0
   59.0279   26.3490   42.7759 H   0  0  0  0  0  0  0  0  0  0  0  0
   57.9437   27.7812   42.7759 H   0  0  0  0  0  0  0  0  0  0  0  0
   56.7480   25.9700   43.6490 H   0  0  0  0  0  0  0  0  0  0  0  0
   59.2458   25.2541   44.8177 H   0  0  0  0  0  0  0  0  0  0  0  0
   57.8562   25.1857   45.9828 H   0  0  0  0  0  0  0  0  0  0  0  0
   56.1796   24.7765   43.0725 H   0  0  0  0  0  0  0  0  0  0  0  0
   55.4518   22.6146   42.0581 H   0  0  0  0  0  0  0  0  0  0  0  0
   56.5628   20.4815   42.7282 H   0  0  0  0  0  0  0  0  0  0  0  0
   58.4014   20.5062   44.4148 H   0  0  0  0  0  0  0  0  0  0  0  0
   59.1372   22.6634   45.4347 H   0  0  0  0  0  0  0  0  0  0  0  0
   55.6670   29.0149   43.5952 H   0  0  0  0  0  0  0  0  0  0  0  0
   56.0303   31.4750   43.4515 H   0  0  0  0  0  0  0  0  0  0  0  0
   58.2432   33.2032   43.8702 H   0  0  0  0  0  0  0  0  0  0  0  0
   56.8581   33.5147   44.9795 H   0  0  0  0  0  0  0  0  0  0  0  0
   60.3441   33.6726   44.5031 H   0  0  0  0  0  0  0  0  0  0  0  0
   61.9901   34.3936   46.2261 H   0  0  0  0  0  0  0  0  0  0  0  0
   61.3850   35.5600   49.3020 H   0  0  0  0  0  0  0  0  0  0  0  0
   62.5096   32.4755   47.5989 H   0  0  0  0  0  0  0  0  0  0  0  0
   64.4742   31.1040   48.2951 H   0  0  0  0  0  0  0  0  0  0  0  0
   65.7449   31.6975   50.3619 H   0  0  0  0  0  0  0  0  0  0  0  0
   65.0405   33.6528   51.7435 H   0  0  0  0  0  0  0  0  0  0  0  0
   63.0785   35.0318   51.0536 H   0  0  0  0  0  0  0  0  0  0  0  0
   58.9310   33.9753   49.2566 H   0  0  0  0  0  0  0  0  0  0  0  0
   59.0904   31.2060   46.5008 H   0  0  0  0  0  0  0  0  0  0  0  0
   58.7299   28.7475   46.6477 H   0  0  0  0  0  0  0  0  0  0  0  0
  1  2  1  0
  2  3  1  0
  3  4  1  0
  4  5  2  0
  5  6  1  0
  6  7  2  0
  7  8  1  0
  8  9  2  0
  2 10  1  0
 10 11  2  0
 10 12  1  0
 12 13  2  0
 13 14  1  0
 14 15  2  0
 15 16  1  0
 16 17  1  0
 17 18  1  0
 18 19  2  0
 19 20  1  0
 20 21  1  0
 21 22  1  0
 22 23  2  0
 23 24  1  0
 24 25  2  0
 25 26  1  0
 26 27  2  0
 20 28  2  0
 28 29  1  0
 29 30  2  0
 15 31  1  0
 31 32  2  0
  9  4  1  0
 32 12  1  0
 29 17  1  0
 27 22  1  0
  1 33  1  0
  1 34  1  0
  1 35  1  0
  2 36  1  6
  3 37  1  0
  3 38  1  0
  5 39  1  0
  6 40  1  0
  7 41  1  0
  8 42  1  0
  9 43  1  0
 13 44  1  0
 14 45  1  0
 16 46  1  0
 16 47  1  0
 18 48  1  0
 19 49  1  0
 21 50  1  0
 23 51  1  0
 24 52  1  0
 25 53  1  0
 26 54  1  0
 27 55  1  0
 28 56  1  0
 31 57  1  0
 32 58  1  0
M  CHG  1   2   1
M  END
>  <UniqueID>  (27) 
22

>  <SMILES>  (27) 
C[N@@H+](Cc1ccccc1)C(=O)c1ccc(Cn2ccc(Nc3ccccc3)cc2=O)cc1

>  <Energy>  (27) 
74.47131254698816

>  <Genealogy>  (27) 
C[NH+](Cc1ccccc1)C(=O)c1ccc(Cn2ccc(Nc3ccccc3)cc2=O)cc1 (protonated)
C[N@@H+](Cc1ccccc1)C(=O)c1ccc(Cn2ccc(Nc3ccccc3)cc2=O)cc1 (chirality)
C[N@@H+](Cc1ccccc1)C(=O)c1ccc(Cn2ccc(Nc3ccccc3)cc2=O)cc1 (3D coordinates assigned)
C[N@@H+](Cc1ccccc1)C(=O)c1ccc(Cn2ccc(Nc3ccccc3)cc2=O)cc1 (optimized conformer: 74.47131254698816 kcal/mol)

>  <smiles>  (27) 
CN(Cc1ccccc1)C(=O)c1ccc(Cn2ccc(Nc3ccccc3)cc2=O)cc1

>  <score_type>  (27) 
oracle

>  <origin>  (27) 
adg

>  <m_score__min__energy>  (27) 
-8

>  <m_primary>  (27) 
energy

$$$$
27:0
     RDKit          3D

 51 53  0  0  0  0  0  0  0  0999 V2000
   54.7780   29.3470   44.1100 N   0  0  0  0  0  0  0  0  0  0  0  0
   56.3570   30.0470   44.0610 S   0  0  0  0  0  0  0  0  0  0  0  0
   56.3250   31.4080   44.6980 O   0  0  0  0  0  0  0  0  0  0  0  0
   56.7920   30.1880   42.6280 O   0  0  0  0  0  0  0  0  0  0  0  0
   57.4790   29.0150   44.9410 C   0  0  0  0  0  0  0  0  0  0  0  0
   56.9820   28.0560   45.8300 C   0  0  0  0  0  0  0  0  0  0  0  0
   57.8600   27.2330   46.5410 C   0  0  0  0  0  0  0  0  0  0  0  0
   59.2460   27.3410   46.3490 C   0  0  0  0  0  0  0  0  0  0  0  0
   60.1600   26.4570   47.1000 C   0  0  0  0  0  0  0  0  0  0  0  0
   60.7940   25.5670   46.4730 O   0  0  0  0  0  0  0  0  0  0  0  0
   60.3820   26.5950   48.5120 N   0  0  0  0  0  0  0  0  0  0  0  0
   60.9580   27.7530   49.1970 C   0  0  0  0  0  0  0  0  0  0  0  0
   59.9240   28.8010   49.4870 C   0  0  0  0  0  0  0  0  0  0  0  0
   59.6240   29.0570   50.6820 O   0  0  0  0  0  0  0  0  0  0  0  0
   59.2610   29.4780   48.4140 N   0  0  0  0  0  0  0  0  0  0  0  0
   59.6090   30.7550   47.8610 C   0  0  0  0  0  0  0  0  0  0  0  0
   58.5800   31.6430   47.5280 C   0  0  0  0  0  0  0  0  0  0  0  0
   58.8760   32.9210   47.0490 C   0  0  0  0  0  0  0  0  0  0  0  0
   60.2060   33.3280   46.9150 C   0  0  0  0  0  0  0  0  0  0  0  0
   61.2460   32.4560   47.2620 C   0  0  0  0  0  0  0  0  0  0  0  0
   62.9290   32.9760   47.1610 S   0  0  0  0  0  0  0  0  0  0  0  0
   63.7840   31.7580   46.9500 O   0  0  0  0  0  0  0  0  0  0  0  0
   63.1090   33.8920   45.9830 O   0  0  0  0  0  0  0  0  0  0  0  0
   63.4250   33.7760   48.6400 N   0  0  0  0  0  0  0  0  0  0  0  0
   64.4610   33.0140   49.3610 C   0  0  0  0  0  0  0  0  0  0  0  0
   63.8890   31.7420   50.0280 C   0  0  0  0  0  0  0  0  0  0  0  0
   62.4830   31.7800   50.2100 O   0  0  0  0  0  0  0  0  0  0  0  0
   62.0760   33.0600   50.6370 C   0  0  0  0  0  0  0  0  0  0  0  0
   62.2670   34.0870   49.5060 C   0  0  0  0  0  0  0  0  0  0  0  0
   60.9460   31.1740   47.7400 C   0  0  0  0  0  0  0  0  0  0  0  0
   59.7430   28.3200   45.4750 C   0  0  0  0  0  0  0  0  0  0  0  0
   58.8640   29.1480   44.7690 C   0  0  0  0  0  0  0  0  0  0  0  0
   54.4770   29.3450   45.1090 H   0  0  0  0  0  0  0  0  0  0  0  0
   55.8962   27.9492   45.9700 H   0  0  0  0  0  0  0  0  0  0  0  0
   57.4624   26.4966   47.2549 H   0  0  0  0  0  0  0  0  0  0  0  0
   61.4031   27.4199   50.1462 H   0  0  0  0  0  0  0  0  0  0  0  0
   61.7184   28.1966   48.5374 H   0  0  0  0  0  0  0  0  0  0  0  0
   57.5312   31.3324   47.6443 H   0  0  0  0  0  0  0  0  0  0  0  0
   58.0612   33.6080   46.7769 H   0  0  0  0  0  0  0  0  0  0  0  0
   60.4367   34.3347   46.5364 H   0  0  0  0  0  0  0  0  0  0  0  0
   65.2448   32.7187   48.6479 H   0  0  0  0  0  0  0  0  0  0  0  0
   64.8658   33.6596   50.1543 H   0  0  0  0  0  0  0  0  0  0  0  0
   64.1345   30.8768   49.3947 H   0  0  0  0  0  0  0  0  0  0  0  0
   64.3420   31.6703   51.0278 H   0  0  0  0  0  0  0  0  0  0  0  0
   61.0139   33.0269   50.9214 H   0  0  0  0  0  0  0  0  0  0  0  0
   62.6883   33.3605   51.5000 H   0  0  0  0  0  0  0  0  0  0  0  0
   61.3582   34.1007   48.8864 H   0  0  0  0  0  0  0  0  0  0  0  0
   62.4561   35.0643   49.9741 H   0  0  0  0  0  0  0  0  0  0  0  0
   61.7608   30.4911   48.0223 H   0  0  0  0  0  0  0  0  0  0  0  0
   60.8290   28.4368   45.3445 H   0  0  0  0  0  0  0  0  0  0  0  0
   59.2605   29.9055   44.0770 H   0  0  0  0  0  0  0  0  0  0  0  0
  1  2  1  0
  2  3  2  0
  2  4  2  0
  2  5  1  0
  5  6  2  0
  6  7  1  0
  7  8  2  0
  8  9  1  0
  9 10  2  0
  9 11  1  0
 11 12  1  0
 12 13  1  0
 13 14  2  0
 13 15  1  0
 15 16  1  0
 16 17  2  0
 17 18  1  0
 18 19  2  0
 19 20  1  0
 20 21  1  0
 21 22  2  0
 21 23  2  0
 21 24  1  0
 24 25  1  0
 25 26  1  0
 26 27  1  0
 27 28  1  0
 28 29  1  0
 20 30  2  0
  8 31  1  0
 31 32  2  0
 32  5  1  0
 30 16  1  0
 29 24  1  0
  1 33  1  0
  6 34  1  0
  7 35  1  0
 12 36  1  0
 12 37  1  0
 17 38  1  0
 18 39  1  0
 19 40  1  0
 25 41  1  0
 25 42  1  0
 26 43  1  0
 26 44  1  0
 28 45  1  0
 28 46  1  0
 29 47  1  0
 29 48  1  0
 30 49  1  0
 31 50  1  0
 32 51  1  0
M  CHG  3   1  -1  11  -1  15  -1
M  END
>  <UniqueID>  (28) 
23

>  <SMILES>  (28) 
[NH-]S(=O)(=O)c1ccc(C(=O)[N-]CC(=O)[N-]c2cccc(S(=O)(=O)N3CCOCC3)c2)cc1

>  <Energy>  (28) 
67.93028907924312

>  <Genealogy>  (28) 
[NH-]S(=O)(=O)c1ccc(C(=O)[N-]CC(=O)[N-]c2cccc(S(=O)(=O)N3CCOCC3)c2)cc1 (protonated)
[NH-]S(=O)(=O)c1ccc(C(=O)[N-]CC(=O)[N-]c2cccc(S(=O)(=O)N3CCOCC3)c2)cc1 (3D coordinates assigned)
[NH-]S(=O)(=O)c1ccc(C(=O)[N-]CC(=O)[N-]c2cccc(S(=O)(=O)N3CCOCC3)c2)cc1 (nonaromatic ring conformer: 67.93028907924312 kcal/mol)

>  <smiles>  (28) 
NS(=O)(=O)c1ccc(C(=O)NCC(=O)Nc2cccc(S(=O)(=O)N3CCOCC3)c2)cc1

>  <score_type>  (28) 
oracle

>  <origin>  (28) 
adg

>  <m_score__min__energy>  (28) 
-13.65

>  <m_primary>  (28) 
energy

$$$$
28:0
     RDKit          3D

 46 48  0  0  0  0  0  0  0  0999 V2000
   56.6090   32.9150   52.4680 O   0  0  0  0  0  0  0  0  0  0  0  0
   56.8650   31.9680   51.6750 C   0  0  0  0  0  0  0  0  0  0  0  0
   58.0730   31.9780   50.8980 N   0  0  0  0  0  0  0  0  0  0  0  0
   59.0890   32.9900   51.0070 C   0  0  0  0  0  0  0  0  0  0  0  0
   59.0500   33.8250   51.9500 O   0  0  0  0  0  0  0  0  0  0  0  0
   60.1990   33.0530   50.0220 C   0  0  0  0  0  0  0  0  0  0  0  0
   61.4640   33.5160   50.4300 C   0  0  0  0  0  0  0  0  0  0  0  0
   62.5240   33.5780   49.5240 C   0  0  0  0  0  0  0  0  0  0  0  0
   62.3390   33.1730   48.2040 C   0  0  0  0  0  0  0  0  0  0  0  0
   61.0930   32.7060   47.7820 C   0  0  0  0  0  0  0  0  0  0  0  0
   60.0090   32.6450   48.6820 C   0  0  0  0  0  0  0  0  0  0  0  0
   58.7370   32.2010   48.2770 O   0  0  0  0  0  0  0  0  0  0  0  0
   57.8060   32.9450   47.4910 C   0  0  0  0  0  0  0  0  0  0  0  0
   57.8780   32.5310   46.0430 C   0  0  0  0  0  0  0  0  0  0  0  0
   57.9800   33.5020   45.0320 C   0  0  0  0  0  0  0  0  0  0  0  0
   58.0500   33.1180   43.6890 C   0  0  0  0  0  0  0  0  0  0  0  0
   58.0280   31.7630   43.3460 C   0  0  0  0  0  0  0  0  0  0  0  0
   57.9390   30.7910   44.3460 C   0  0  0  0  0  0  0  0  0  0  0  0
   57.8680   31.1690   45.6900 C   0  0  0  0  0  0  0  0  0  0  0  0
   57.7900   30.2080   46.6470 F   0  0  0  0  0  0  0  0  0  0  0  0
   55.9640   30.8550   51.5660 N   0  0  0  0  0  0  0  0  0  0  0  0
   54.6400   30.8310   52.1230 C   0  0  0  0  0  0  0  0  0  0  0  0
   54.3700   30.0010   53.2200 C   0  0  0  0  0  0  0  0  0  0  0  0
   53.0870   29.9430   53.7660 C   0  0  0  0  0  0  0  0  0  0  0  0
   52.0550   30.7030   53.2140 C   0  0  0  0  0  0  0  0  0  0  0  0
   52.2940   31.5240   52.0970 C   0  0  0  0  0  0  0  0  0  0  0  0
   51.1980   32.3150   51.4960 C   0  0  0  0  0  0  0  0  0  0  0  0
   50.4120   32.9780   52.2250 O   0  0  0  0  0  0  0  0  0  0  0  0
   51.0200   32.3400   50.1180 O   0  0  0  0  0  0  0  0  0  0  0  0
   53.5900   31.5750   51.5520 C   0  0  0  0  0  0  0  0  0  0  0  0
   58.2260   31.1850   50.2350 H   0  0  0  0  0  0  0  0  0  0  0  0
   61.6187   33.8318   51.4723 H   0  0  0  0  0  0  0  0  0  0  0  0
   63.5067   33.9471   49.8527 H   0  0  0  0  0  0  0  0  0  0  0  0
   63.1766   33.2213   47.4926 H   0  0  0  0  0  0  0  0  0  0  0  0
   60.9556   32.3831   46.7395 H   0  0  0  0  0  0  0  0  0  0  0  0
   56.7888   32.7629   47.8682 H   0  0  0  0  0  0  0  0  0  0  0  0
   58.0559   34.0136   47.5654 H   0  0  0  0  0  0  0  0  0  0  0  0
   58.0049   34.5690   45.2983 H   0  0  0  0  0  0  0  0  0  0  0  0
   58.1224   33.8830   42.9018 H   0  0  0  0  0  0  0  0  0  0  0  0
   58.0807   31.4620   42.2893 H   0  0  0  0  0  0  0  0  0  0  0  0
   57.9248   29.7251   44.0748 H   0  0  0  0  0  0  0  0  0  0  0  0
   56.3300   29.9770   51.1320 H   0  0  0  0  0  0  0  0  0  0  0  0
   55.1758   29.3906   53.6538 H   0  0  0  0  0  0  0  0  0  0  0  0
   52.8887   29.2966   54.6337 H   0  0  0  0  0  0  0  0  0  0  0  0
   51.0482   30.6598   53.6551 H   0  0  0  0  0  0  0  0  0  0  0  0
   53.7850   32.2030   50.6702 H   0  0  0  0  0  0  0  0  0  0  0  0
  1  2  2  0
  2  3  1  0
  3  4  1  0
  4  5  2  0
  4  6  1  0
  6  7  2  0
  7  8  1  0
  8  9  2  0
  9 10  1  0
 10 11  2  0
 11 12  1  0
 12 13  1  0
 13 14  1  0
 14 15  2  0
 15 16  1  0
 16 17  2  0
 17 18  1  0
 18 19  2  0
 19 20  1  0
  2 21  1  0
 21 22  1  0
 22 23  2  0
 23 24  1  0
 24 25  2  0
 25 26  1  0
 26 27  1  0
 27 28  2  0
 27 29  1  0
 26 30  2  0
 11  6  1  0
 19 14  1  0
 30 22  1  0
  3 31  1  0
  7 32  1  0
  8 33  1  0
  9 34  1  0
 10 35  1  0
 13 36  1  0
 13 37  1  0
 15 38  1  0
 16 39  1  0
 17 40  1  0
 18 41  1  0
 21 42  1  0
 23 43  1  0
 24 44  1  0
 25 45  1  0
 30 46  1  0
M  CHG  1  29  -1
M  END
>  <UniqueID>  (29) 
24

>  <SMILES>  (29) 
O=C(NC(=O)c1ccccc1OCc1ccccc1F)Nc1cccc(C(=O)[O-])c1

>  <Energy>  (29) 
57.04465085124392

>  <Genealogy>  (29) 
O=C(NC(=O)c1ccccc1OCc1ccccc1F)Nc1cccc(C(=O)[O-])c1 (protonated)
O=C(NC(=O)c1ccccc1OCc1ccccc1F)Nc1cccc(C(=O)[O-])c1 (3D coordinates assigned)
O=C(NC(=O)c1ccccc1OCc1ccccc1F)Nc1cccc(C(=O)[O-])c1 (optimized conformer: 57.04465085124392 kcal/mol)

>  <smiles>  (29) 
O=C(NC(=O)c1ccccc1OCc1ccccc1F)Nc1cccc(C(=O)O)c1

>  <score_type>  (29) 
oracle

>  <origin>  (29) 
adg

>  <m_score__min__energy>  (29) 
-12.460000000000001

>  <m_primary>  (29) 
energy

$$$$
29:0
     RDKit          3D

 33 33  0  0  0  0  0  0  0  0999 V2000
   58.8860   34.3230   46.3780 C   0  0  0  0  0  0  0  0  0  0  0  0
   58.9080   34.3400   44.8510 C   0  0  0  0  0  0  0  0  0  0  0  0
   57.9430   33.3170   44.2340 C   0  0  0  0  0  0  0  0  0  0  0  0
   57.1260   32.5660   45.2940 C   0  0  0  0  0  0  0  0  0  0  0  0
   56.9040   31.2150   44.8880 O   0  0  0  0  0  0  0  0  0  0  0  0
   57.7930   30.1470   45.0910 C   0  0  0  0  0  0  0  0  0  0  0  0
   59.1030   30.3260   45.5780 C   0  0  0  0  0  0  0  0  0  0  0  0
   59.9460   29.2240   45.7520 C   0  0  0  0  0  0  0  0  0  0  0  0
   59.4930   27.9380   45.4520 C   0  0  0  0  0  0  0  0  0  0  0  0
   58.1840   27.7420   44.9850 C   0  0  0  0  0  0  0  0  0  0  0  0
   57.7050   26.3590   44.6300 C   0  0  0  0  0  0  0  0  0  0  0  0
   57.3800   25.5610   45.8960 C   0  0  0  0  0  0  0  0  0  0  0  0
   55.9050   25.5420   46.1380 C   0  0  0  0  0  0  0  0  0  0  0  0
   55.3380   24.4810   46.5130 O   0  0  0  0  0  0  0  0  0  0  0  0
   55.1620   26.7080   45.9970 O   0  0  0  0  0  0  0  0  0  0  0  0
   57.3460   28.8520   44.7970 C   0  0  0  0  0  0  0  0  0  0  0  0
   59.7012   34.9529   46.7635 H   0  0  0  0  0  0  0  0  0  0  0  0
   57.9213   34.7126   46.7352 H   0  0  0  0  0  0  0  0  0  0  0  0
   59.0196   33.2912   46.7352 H   0  0  0  0  0  0  0  0  0  0  0  0
   58.6236   35.3450   44.5059 H   0  0  0  0  0  0  0  0  0  0  0  0
   59.9257   34.0731   44.5299 H   0  0  0  0  0  0  0  0  0  0  0  0
   57.2496   33.8459   43.5636 H   0  0  0  0  0  0  0  0  0  0  0  0
   58.5457   32.5754   43.6892 H   0  0  0  0  0  0  0  0  0  0  0  0
   57.6759   32.5722   46.2467 H   0  0  0  0  0  0  0  0  0  0  0  0
   56.1537   33.0661   45.4148 H   0  0  0  0  0  0  0  0  0  0  0  0
   59.4638   31.3361   45.8221 H   0  0  0  0  0  0  0  0  0  0  0  0
   60.9698   29.3709   46.1266 H   0  0  0  0  0  0  0  0  0  0  0  0
   60.1638   27.0760   45.5820 H   0  0  0  0  0  0  0  0  0  0  0  0
   56.8000   26.4377   44.0097 H   0  0  0  0  0  0  0  0  0  0  0  0
   58.5007   25.8387   44.0767 H   0  0  0  0  0  0  0  0  0  0  0  0
   57.7406   24.5287   45.7759 H   0  0  0  0  0  0  0  0  0  0  0  0
   57.8755   26.0380   46.7545 H   0  0  0  0  0  0  0  0  0  0  0  0
   56.3256   28.7035   44.4141 H   0  0  0  0  0  0  0  0  0  0  0  0
  1  2  1  0
  2  3  1  0
  3  4  1  0
  4  5  1  0
  5  6  1  0
  6  7  2  0
  7  8  1  0
  8  9  2  0
  9 10  1  0
 10 11  1  0
 11 12  1  0
 12 13  1  0
 13 14  2  0
 13 15  1  0
 10 16  2  0
 16  6  1  0
  1 17  1  0
  1 18  1  0
  1 19  1  0
  2 20  1  0
  2 21  1  0
  3 22  1  0
  3 23  1  0
  4 24  1  0
  4 25  1  0
  7 26  1  0
  8 27  1  0
  9 28  1  0
 11 29  1  0
 11 30  1  0
 12 31  1  0
 12 32  1  0
 16 33  1  0
M  CHG  1  15  -1
M  END
>  <UniqueID>  (30) 
25

>  <SMILES>  (30) 
CCCCOc1cccc(CCC(=O)[O-])c1

>  <Energy>  (30) 
21.291190685034685

>  <Genealogy>  (30) 
CCCCOc1cccc(CCC(=O)[O-])c1 (protonated)
CCCCOc1cccc(CCC(=O)[O-])c1 (3D coordinates assigned)
CCCCOc1cccc(CCC(=O)[O-])c1 (optimized conformer: 21.291190685034685 kcal/mol)

>  <smiles>  (30) 
CCCCOc1cccc(CCC(=O)O)c1

>  <score_type>  (30) 
oracle

>  <origin>  (30) 
adg

>  <m_score__min__energy>  (30) 
-8.8599999999999994

>  <m_primary>  (30) 
energy

$$$$
30:0
     RDKit          3D

 54 56  0  0  0  0  0  0  0  0999 V2000
   68.2970   35.3510   51.2740 C   0  0  0  0  0  0  0  0  0  0  0  0
   68.7030   33.9410   50.8630 C   0  0  0  0  0  0  0  0  0  0  0  0
   67.7650   33.4280   49.9230 O   0  0  0  0  0  0  0  0  0  0  0  0
   66.7710   32.5030   50.2700 C   0  0  0  0  0  0  0  0  0  0  0  0
   67.0690   31.2920   50.4470 O   0  0  0  0  0  0  0  0  0  0  0  0
   65.3710   32.9520   50.4230 C   0  0  0  0  0  0  0  0  0  0  0  0
   64.3770   32.4790   49.5490 C   0  0  0  0  0  0  0  0  0  0  0  0
   63.0490   32.8890   49.7000 C   0  0  0  0  0  0  0  0  0  0  0  0
   62.6900   33.7790   50.7180 C   0  0  0  0  0  0  0  0  0  0  0  0
   61.3210   34.2040   50.8020 N   0  0  0  0  0  0  0  0  0  0  0  0
   60.2430   33.8540   49.9250 C   0  0  0  0  0  0  0  0  0  0  0  0
   59.2620   33.2210   50.3990 O   0  0  0  0  0  0  0  0  0  0  0  0
   60.2240   34.2840   48.5530 N   0  0  0  0  0  0  0  0  0  0  0  0
   59.5470   33.5660   47.5020 C   0  0  0  0  0  0  0  0  0  0  0  0
   59.4040   34.1610   46.2370 C   0  0  0  0  0  0  0  0  0  0  0  0
   58.7490   33.4810   45.2020 C   0  0  0  0  0  0  0  0  0  0  0  0
   58.2400   32.1940   45.4150 C   0  0  0  0  0  0  0  0  0  0  0  0
   57.3470   31.3810   44.1340 S   0  0  0  0  0  0  0  0  0  0  0  0
   57.3750   32.2390   42.9020 O   0  0  0  0  0  0  0  0  0  0  0  0
   55.9150   31.1800   44.5360 O   0  0  0  0  0  0  0  0  0  0  0  0
   58.0460   29.8380   43.7660 N   0  0  0  0  0  0  0  0  0  0  0  0
   58.3230   28.8240   44.7400 C   0  0  0  0  0  0  0  0  0  0  0  0
   59.5080   28.8150   45.4900 C   0  0  0  0  0  0  0  0  0  0  0  0
   59.7380   27.8090   46.4330 C   0  0  0  0  0  0  0  0  0  0  0  0
   58.7760   26.8120   46.6430 C   0  0  0  0  0  0  0  0  0  0  0  0
   57.5860   26.8180   45.9080 C   0  0  0  0  0  0  0  0  0  0  0  0
   56.3370   25.6160   46.2500 S   0  0  0  0  0  0  0  0  0  0  0  0
   54.7750   26.3330   46.0070 N   0  0  0  0  0  0  0  0  0  0  0  0
   56.4580   25.1410   47.6690 O   0  0  0  0  0  0  0  0  0  0  0  0
   56.4860   24.4320   45.3290 O   0  0  0  0  0  0  0  0  0  0  0  0
   57.3700   27.8140   44.9430 C   0  0  0  0  0  0  0  0  0  0  0  0
   58.4090   31.5830   46.6640 C   0  0  0  0  0  0  0  0  0  0  0  0
   59.0670   32.2570   47.6970 C   0  0  0  0  0  0  0  0  0  0  0  0
   63.6900   34.2920   51.5640 C   0  0  0  0  0  0  0  0  0  0  0  0
   65.0150   33.8650   51.4290 C   0  0  0  0  0  0  0  0  0  0  0  0
   68.2767   35.4215   52.3716 H   0  0  0  0  0  0  0  0  0  0  0  0
   69.0237   36.0732   50.8736 H   0  0  0  0  0  0  0  0  0  0  0  0
   67.2975   35.5762   50.8736 H   0  0  0  0  0  0  0  0  0  0  0  0
   69.7029   33.9669   50.4053 H   0  0  0  0  0  0  0  0  0  0  0  0
   68.7210   33.2928   51.7515 H   0  0  0  0  0  0  0  0  0  0  0  0
   64.6456   31.7821   48.7414 H   0  0  0  0  0  0  0  0  0  0  0  0
   62.2795   32.5084   49.0122 H   0  0  0  0  0  0  0  0  0  0  0  0
   60.7020   35.1850   48.3180 H   0  0  0  0  0  0  0  0  0  0  0  0
   59.8092   35.1679   46.0582 H   0  0  0  0  0  0  0  0  0  0  0  0
   58.6341   33.9598   44.2184 H   0  0  0  0  0  0  0  0  0  0  0  0
   60.2598   29.6030   45.3356 H   0  0  0  0  0  0  0  0  0  0  0  0
   60.6743   27.8000   47.0103 H   0  0  0  0  0  0  0  0  0  0  0  0
   58.9571   26.0228   47.3876 H   0  0  0  0  0  0  0  0  0  0  0  0
   54.6630   27.0830   46.7280 H   0  0  0  0  0  0  0  0  0  0  0  0
   56.4485   27.8029   44.3424 H   0  0  0  0  0  0  0  0  0  0  0  0
   58.0219   30.5673   46.8330 H   0  0  0  0  0  0  0  0  0  0  0  0
   59.2106   31.7613   48.6684 H   0  0  0  0  0  0  0  0  0  0  0  0
   63.4288   35.0320   52.3348 H   0  0  0  0  0  0  0  0  0  0  0  0
   65.7842   34.2473   52.1161 H   0  0  0  0  0  0  0  0  0  0  0  0
  1  2  1  0
  2  3  1  0
  3  4  1  0
  4  5  2  0
  4  6  1  0
  6  7  2  0
  7  8  1  0
  8  9  2  0
  9 10  1  0
 10 11  1  0
 11 12  2  0
 11 13  1  0
 13 14  1  0
 14 15  2  0
 15 16  1  0
 16 17  2  0
 17 18  1  0
 18 19  2  0
 18 20  2  0
 18 21  1  0
 21 22  1  0
 22 23  2  0
 23 24  1  0
 24 25  2  0
 25 26  1  0
 26 27  1  0
 27 28  1  0
 27 29  2  0
 27 30  2  0
 26 31  2  0
 17 32  1  0
 32 33  2  0
  9 34  1  0
 34 35  2  0
 35  6  1  0
 33 14  1  0
 31 22  1  0
  1 36  1  0
  1 37  1  0
  1 38  1  0
  2 39  1  0
  2 40  1  0
  7 41  1  0
  8 42  1  0
 13 43  1  0
 15 44  1  0
 16 45  1  0
 23 46  1  0
 24 47  1  0
 25 48  1  0
 28 49  1  0
 31 50  1  0
 32 51  1  0
 33 52  1  0
 34 53  1  0
 35 54  1  0
M  CHG  3  10  -1  21  -1  28  -1
M  END
>  <UniqueID>  (31) 
26

>  <SMILES>  (31) 
CCOC(=O)c1ccc([N-]C(=O)Nc2ccc(S(=O)(=O)[N-]c3cccc(S([NH-])(=O)=O)c3)cc2)cc1

>  <Energy>  (31) 
64.15506683272979

>  <Genealogy>  (31) 
CCOC(=O)c1ccc([N-]C(=O)Nc2ccc(S(=O)(=O)[N-]c3cccc(S([NH-])(=O)=O)c3)cc2)cc1 (protonated)
CCOC(=O)c1ccc([N-]C(=O)Nc2ccc(S(=O)(=O)[N-]c3cccc(S([NH-])(=O)=O)c3)cc2)cc1 (3D coordinates assigned)
CCOC(=O)c1ccc([N-]C(=O)Nc2ccc(S(=O)(=O)[N-]c3cccc(S([NH-])(=O)=O)c3)cc2)cc1 (optimized conformer: 64.15506683272979 kcal/mol)

>  <smiles>  (31) 
CCOC(=O)c1ccc(NC(=O)Nc2ccc(S(=O)(=O)Nc3cccc(S(N)(=O)=O)c3)cc2)cc1

>  <score_type>  (31) 
oracle

>  <origin>  (31) 
adg

>  <m_score__min__energy>  (31) 
-14.41

>  <m_primary>  (31) 
energy

$$$$
31:0
     RDKit          3D

 85 87  0  0  0  0  0  0  0  0999 V2000
   58.6746   30.8722   43.0768 H   0  0  0  0  0  0  0  0  0  0  0  0
   58.1020   30.7050   44.0010 C   0  0  0  0  0  0  0  0  0  0  0  0
   58.2580   29.5190   44.6270 C   0  0  0  0  0  0  0  0  0  0  0  0
   59.6550   28.9790   44.7970 C   0  0  0  0  0  0  0  0  0  0  0  0
   59.8857   28.8898   45.8688 H   0  0  0  0  0  0  0  0  0  0  0  0
   59.7256   27.9888   44.3231 H   0  0  0  0  0  0  0  0  0  0  0  0
   60.3732   29.6643   44.3231 H   0  0  0  0  0  0  0  0  0  0  0  0
   57.0860   28.7380   45.1760 C   0  0  0  0  0  0  0  0  0  0  0  0
   57.1152   28.7574   46.2754 H   0  0  0  0  0  0  0  0  0  0  0  0
   56.1469   29.1915   44.8260 H   0  0  0  0  0  0  0  0  0  0  0  0
   57.1430   27.6967   44.8260 H   0  0  0  0  0  0  0  0  0  0  0  0
   57.1990   31.8200   44.4760 C   0  0  0  0  0  0  0  0  0  0  0  0
   56.9699   31.6600   45.5399 H   0  0  0  0  0  0  0  0  0  0  0  0
   56.2880   31.7992   43.8598 H   0  0  0  0  0  0  0  0  0  0  0  0
   57.8430   33.2050   44.3130 C   0  0  0  0  0  0  0  0  0  0  0  0
   57.0835   33.9084   43.9410 H   0  0  0  0  0  0  0  0  0  0  0  0
   58.6784   33.1104   43.6036 H   0  0  0  0  0  0  0  0  0  0  0  0
   58.3970   33.7300   45.6220 C   0  0  0  0  0  0  0  0  0  0  0  0
   58.1000   33.0850   46.7740 C   0  0  0  0  0  0  0  0  0  0  0  0
   57.2253   33.4258   47.3474 H   0  0  0  0  0  0  0  0  0  0  0  0
   58.8980   31.9260   47.3180 C   0  0  0  0  0  0  0  0  0  0  0  0
   58.3227   30.9985   47.1809 H   0  0  0  0  0  0  0  0  0  0  0  0
   59.0926   32.1077   48.3853 H   0  0  0  0  0  0  0  0  0  0  0  0
   60.2460   31.7910   46.5940 C   0  0  0  0  0  0  0  0  0  0  0  0
   60.6446   32.7963   46.3928 H   0  0  0  0  0  0  0  0  0  0  0  0
   60.0781   31.2383   45.6579 H   0  0  0  0  0  0  0  0  0  0  0  0
   61.2540   31.0200   47.4230 C   0  0  0  0  0  0  0  0  0  0  0  0
   62.5450   31.4340   47.4490 C   0  0  0  0  0  0  0  0  0  0  0  0
   63.2701   30.8084   47.9902 H   0  0  0  0  0  0  0  0  0  0  0  0
   63.0590   32.6880   46.7910 C   0  0  0  0  0  0  0  0  0  0  0  0
   62.2600   33.1260   46.1748 H   0  0  0  0  0  0  0  0  0  0  0  0
   63.9254   32.4293   46.1646 H   0  0  0  0  0  0  0  0  0  0  0  0
   63.5860   33.9100   48.0500 S   0  0  0  0  0  0  0  0  0  0  0  0
   62.0770   33.8120   49.0250 C   0  0  0  0  0  0  0  0  0  0  0  0
   60.9590   34.4900   48.5220 C   0  0  0  0  0  0  0  0  0  0  0  0
   61.0318   35.0168   47.5591 H   0  0  0  0  0  0  0  0  0  0  0  0
   59.7560   34.5060   49.2250 C   0  0  0  0  0  0  0  0  0  0  0  0
   58.8942   35.0632   48.8290 H   0  0  0  0  0  0  0  0  0  0  0  0
   59.6460   33.8160   50.4290 C   0  0  0  0  0  0  0  0  0  0  0  0
   58.7051   33.8485   50.9979 H   0  0  0  0  0  0  0  0  0  0  0  0
   60.7300   33.0830   50.9140 C   0  0  0  0  0  0  0  0  0  0  0  0
   60.6245   32.5189   51.8524 H   0  0  0  0  0  0  0  0  0  0  0  0
   61.9580   33.0530   50.2220 C   0  0  0  0  0  0  0  0  0  0  0  0
   63.0070   32.1280   50.7420 C   0  0  0  0  0  0  0  0  0  0  0  0
   63.0920   30.9860   50.2040 O   0  0  0  0  0  0  0  0  0  0  0  0
   63.7700   32.4050   51.9470 N   0  0  1  0  0  0  0  0  0  0  0  0
   63.9010   31.5120   52.4670 H   0  0  0  0  0  0  0  0  0  0  0  0
   65.1390   32.8720   51.6120 C   0  0  0  0  0  0  0  0  0  0  0  0
   65.8287   32.5483   52.4054 H   0  0  0  0  0  0  0  0  0  0  0  0
   65.1132   33.9686   51.5300 H   0  0  0  0  0  0  0  0  0  0  0  0
   65.6270   32.3080   50.2710 C   0  0  0  0  0  0  0  0  0  0  0  0
   66.3366   31.4878   50.4546 H   0  0  0  0  0  0  0  0  0  0  0  0
   64.7679   31.9283   49.6985 H   0  0  0  0  0  0  0  0  0  0  0  0
   66.1263   33.1036   49.6985 H   0  0  0  0  0  0  0  0  0  0  0  0
   63.0780   33.3190   52.9050 C   0  0  0  0  0  0  0  0  0  0  0  0
   63.8364   33.9945   53.3275 H   0  0  0  0  0  0  0  0  0  0  0  0
   62.2955   33.8172   52.3138 H   0  0  0  0  0  0  0  0  0  0  0  0
   62.3300   32.6530   54.0900 C   0  0  0  0  0  0  0  0  0  0  0  0
   62.9302   32.7811   55.0029 H   0  0  0  0  0  0  0  0  0  0  0  0
   61.3474   33.1390   54.1808 H   0  0  0  0  0  0  0  0  0  0  0  0
   62.1020   31.2280   53.8760 N   0  0  0  0  0  0  0  0  0  0  0  0
   61.3470   30.5140   53.0780 C   0  0  0  0  0  0  0  0  0  0  0  0
   62.0140   29.4600   52.4380 C   0  0  0  0  0  0  0  0  0  0  0  0
   63.0986   29.3425   52.5786 H   0  0  0  0  0  0  0  0  0  0  0  0
   61.3300   28.5620   51.6300 C   0  0  0  0  0  0  0  0  0  0  0  0
   61.8740   27.7441   51.1349 H   0  0  0  0  0  0  0  0  0  0  0  0
   59.9980   28.6910   51.4510 N   0  0  0  0  0  0  0  0  0  0  0  0
   59.2890   29.6980   52.0210 C   0  0  0  0  0  0  0  0  0  0  0  0
   57.9120   29.7580   51.7760 C   0  0  0  0  0  0  0  0  0  0  0  0
   57.4337   28.9882   51.1526 H   0  0  0  0  0  0  0  0  0  0  0  0
   57.1450   30.7850   52.3160 C   0  0  0  0  0  0  0  0  0  0  0  0
   55.4210   30.8490   52.0020 Cl  0  0  0  0  0  0  0  0  0  0  0  0
   57.7510   31.7680   53.0910 C   0  0  0  0  0  0  0  0  0  0  0  0
   57.1448   32.5861   53.5072 H   0  0  0  0  0  0  0  0  0  0  0  0
   59.1250   31.7240   53.3450 C   0  0  0  0  0  0  0  0  0  0  0  0
   59.5878   32.5205   53.9462 H   0  0  0  0  0  0  0  0  0  0  0  0
   59.9340   30.6730   52.8430 C   0  0  0  0  0  0  0  0  0  0  0  0
   60.7840   29.8220   48.2180 C   0  0  0  0  0  0  0  0  0  0  0  0
   60.8691   30.0390   49.2930 H   0  0  0  0  0  0  0  0  0  0  0  0
   59.7344   29.6059   47.9696 H   0  0  0  0  0  0  0  0  0  0  0  0
   61.4066   28.9499   47.9696 H   0  0  0  0  0  0  0  0  0  0  0  0
   59.2850   34.9520   45.5970 C   0  0  0  0  0  0  0  0  0  0  0  0
   59.5106   35.2625   46.6279 H   0  0  0  0  0  0  0  0  0  0  0  0
   60.2220   34.7137   45.0725 H   0  0  0  0  0  0  0  0  0  0  0  0
   58.7689   35.7696   45.0725 H   0  0  0  0  0  0  0  0  0  0  0  0
  1  2  1  0
  2  3  2  3
  3  4  1  0
  4  5  1  0
  4  6  1  0
  4  7  1  0
  3  8  1  0
  8  9  1  0
  8 10  1  0
  8 11  1  0
  2 12  1  0
 12 13  1  0
 12 14  1  0
 12 15  1  0
 15 16  1  0
 15 17  1  0
 15 18  1  0
 18 19  2  3
 19 20  1  0
 19 21  1  0
 21 22  1  0
 21 23  1  0
 21 24  1  0
 24 25  1  0
 24 26  1  0
 24 27  1  0
 27 28  2  0
 28 29  1  0
 28 30  1  0
 30 31  1  0
 30 32  1  0
 30 33  1  0
 33 34  1  0
 34 35  2  0
 35 36  1  0
 35 37  1  0
 37 38  1  0
 37 39  2  0
 39 40  1  0
 39 41  1  0
 41 42  1  0
 41 43  2  0
 43 44  1  0
 44 45  2  0
 44 46  1  0
 46 47  1  1
 46 48  1  0
 48 49  1  0
 48 50  1  0
 48 51  1  0
 51 52  1  0
 51 53  1  0
 51 54  1  0
 46 55  1  0
 55 56  1  0
 55 57  1  0
 55 58  1  0
 58 59  1  0
 58 60  1  0
 58 61  1  0
 61 62  2  3
 62 63  1  0
 63 64  1  0
 63 65  2  0
 65 66  1  0
 65 67  1  0
 67 68  1  0
 68 69  2  0
 69 70  1  0
 69 71  1  0
 71 72  1  0
 71 73  2  0
 73 74  1  0
 73 75  1  0
 75 76  1  0
 75 77  2  0
 27 78  1  0
 78 79  1  0
 78 80  1  0
 78 81  1  0
 18 82  1  0
 82 83  1  0
 82 84  1  0
 82 85  1  0
 43 34  1  0
 77 62  1  0
 77 68  1  0
M  CHG  2  46   1  67  -1
M  END
>  <UniqueID>  (32) 
27

>  <SMILES>  (32) 
CC[N@@H+](CCN=c1cc[n-]c2cc(Cl)ccc12)C(=O)c1ccccc1SC/C=C(\C)CCC=C(C)CCC=C(C)C

>  <Energy>  (32) 
103.60973383989537

>  <Genealogy>  (32) 
CC[NH+](CCN=c1cc[n-]c2cc(Cl)ccc12)C(=O)c1ccccc1SCC=C(C)CCC=C(C)CCC=C(C)C (protonated)
CC[N@@H+](CCN=c1cc[n-]c2cc(Cl)ccc12)C(=O)c1ccccc1SCC=C(C)CCC=C(C)CCC=C(C)C (chirality)
CC[N@@H+](CCN=c1cc[n-]c2cc(Cl)ccc12)C(=O)c1ccccc1SC/C=C(\C)CCC=C(C)CCC=C(C)C (cis-trans isomerization)
CC[N@@H+](CCN=c1cc[n-]c2cc(Cl)ccc12)C(=O)c1ccccc1SC/C=C(\C)CCC=C(C)CCC=C(C)C (3D coordinates assigned)
CC[N@@H+](CCN=c1cc[n-]c2cc(Cl)ccc12)C(=O)c1ccccc1SC/C=C(\C)CCC=C(C)CCC=C(C)C (optimized conformer: 103.60973383989537 kcal/mol)

>  <smiles>  (32) 
CCN(CCN=c1cc[nH]c2cc(Cl)ccc12)C(=O)c1ccccc1SCC=C(C)CCC=C(C)CCC=C(C)C

>  <score_type>  (32) 
oracle

>  <origin>  (32) 
adg

>  <m_score__min__energy>  (32) 
-8.7799999999999994

>  <m_primary>  (32) 
energy

$$$$
32:0
     RDKit          3D

 34 35  0  0  0  0  0  0  0  0999 V2000
   64.5390   32.2470   46.7500 H   0  0  0  0  0  0  0  0  0  0  0  0
   63.9520   32.9300   47.2120 O   0  0  0  0  0  0  0  0  0  0  0  0
   62.5630   32.8750   47.1230 C   0  0  0  0  0  0  0  0  0  0  0  0
   61.8740   31.8060   47.7060 C   0  0  0  0  0  0  0  0  0  0  0  0
   62.4307   31.0159   48.2312 H   0  0  0  0  0  0  0  0  0  0  0  0
   60.4800   31.7390   47.6230 C   0  0  0  0  0  0  0  0  0  0  0  0
   59.9447   30.8931   48.0789 H   0  0  0  0  0  0  0  0  0  0  0  0
   59.7590   32.7470   46.9600 C   0  0  0  0  0  0  0  0  0  0  0  0
   58.2610   32.6590   46.8370 C   0  0  0  0  0  0  0  0  0  0  0  0
   57.8825   33.5722   46.3546 H   0  0  0  0  0  0  0  0  0  0  0  0
   57.8255   32.5546   47.8417 H   0  0  0  0  0  0  0  0  0  0  0  0
   57.8710   31.4570   46.0050 C   0  0  0  0  0  0  0  0  0  0  0  0
   57.7440   30.2910   46.5610 N   0  0  0  0  0  0  0  0  0  0  0  0
   58.1290   29.1250   45.9380 O   0  0  0  0  0  0  0  0  0  0  0  0
   59.4210   28.5870   46.1630 C   0  0  0  0  0  0  0  0  0  0  0  0
   59.6032   28.5111   47.2451 H   0  0  0  0  0  0  0  0  0  0  0  0
   59.4859   27.5871   45.7092 H   0  0  0  0  0  0  0  0  0  0  0  0
   60.1764   29.2453   45.7092 H   0  0  0  0  0  0  0  0  0  0  0  0
   57.6930   31.5870   44.5350 C   0  0  0  0  0  0  0  0  0  0  0  0
   58.3470   32.8230   43.5930 S   0  0  0  0  0  0  0  0  0  0  0  0
   57.7430   32.3110   42.1150 C   0  0  0  0  0  0  0  0  0  0  0  0
   57.8977   32.8076   41.1458 H   0  0  0  0  0  0  0  0  0  0  0  0
   57.0140   31.1510   42.3300 C   0  0  0  0  0  0  0  0  0  0  0  0
   56.5105   30.6021   41.5206 H   0  0  0  0  0  0  0  0  0  0  0  0
   56.9750   30.7380   43.6740 C   0  0  0  0  0  0  0  0  0  0  0  0
   56.2650   29.4810   44.0920 C   0  0  0  0  0  0  0  0  0  0  0  0
   55.7007   29.0781   43.2380 H   0  0  0  0  0  0  0  0  0  0  0  0
   57.0040   28.7389   44.4283 H   0  0  0  0  0  0  0  0  0  0  0  0
   55.3830   29.7660   45.1400 O   0  0  0  0  0  0  0  0  0  0  0  0
   55.9180   29.7120   45.9740 H   0  0  0  0  0  0  0  0  0  0  0  0
   60.4560   33.8150   46.3720 C   0  0  0  0  0  0  0  0  0  0  0  0
   59.9023   34.6044   45.8426 H   0  0  0  0  0  0  0  0  0  0  0  0
   61.8500   33.8800   46.4560 C   0  0  0  0  0  0  0  0  0  0  0  0
   62.3885   34.7224   45.9972 H   0  0  0  0  0  0  0  0  0  0  0  0
  1  2  1  0
  2  3  1  0
  3  4  2  0
  4  5  1  0
  4  6  1  0
  6  7  1  0
  6  8  2  0
  8  9  1  0
  9 10  1  0
  9 11  1  0
  9 12  1  0
 12 13  2  0
 13 14  1  0
 14 15  1  0
 15 16  1  0
 15 17  1  0
 15 18  1  0
 12 19  1  0
 19 20  1  0
 20 21  1  0
 21 22  1  0
 21 23  2  0
 23 24  1  0
 23 25  1  0
 25 26  1  0
 26 27  1  0
 26 28  1  0
 26 29  1  0
 29 30  1  0
  8 31  1  0
 31 32  1  0
 31 33  2  0
 33 34  1  0
 33  3  1  0
 25 19  2  0
M  END
>  <UniqueID>  (33) 
28

>  <SMILES>  (33) 
CO/N=C(\Cc1ccc(O)cc1)c1sccc1CO

>  <Energy>  (33) 
55.14401342575784

>  <Genealogy>  (33) 
CO/N=C(\Cc1ccc(O)cc1)c1sccc1CO (cis-trans isomerization)
CO/N=C(\Cc1ccc(O)cc1)c1sccc1CO (3D coordinates assigned)
CO/N=C(\Cc1ccc(O)cc1)c1sccc1CO (optimized conformer: 55.14401342575784 kcal/mol)

>  <smiles>  (33) 
CON=C(Cc1ccc(O)cc1)c1sccc1CO

>  <score_type>  (33) 
oracle

>  <origin>  (33) 
adg

>  <m_score__min__energy>  (33) 
-7.1100000000000003

>  <m_primary>  (33) 
energy

$$$$
33:0
     RDKit          3D

 37 38  0  0  0  0  0  0  0  0999 V2000
   58.1280   27.4240   46.8190 O   0  0  0  0  0  0  0  0  0  0  0  0
   57.6820   28.4830   46.3000 C   0  0  0  0  0  0  0  0  0  0  0  0
   56.5940   28.4250   45.3720 N   0  0  0  0  0  0  0  0  0  0  0  0
   56.6690   28.9400   44.0080 C   0  0  0  0  0  0  0  0  0  0  0  0
   55.8340   30.2100   43.8710 C   0  0  0  0  0  0  0  0  0  0  0  0
   56.3160   31.2140   44.8170 N   0  0  0  0  0  0  0  0  0  0  0  0
   57.7740   31.9390   44.2120 S   0  0  0  0  0  0  0  0  0  0  0  0
   58.7930   30.8690   43.9290 O   0  0  0  0  0  0  0  0  0  0  0  0
   57.4730   32.6610   42.9300 O   0  0  0  0  0  0  0  0  0  0  0  0
   58.4150   33.0900   45.3840 C   0  0  0  0  0  0  0  0  0  0  0  0
   59.1480   34.2010   44.9420 C   0  0  0  0  0  0  0  0  0  0  0  0
   59.6360   35.1330   45.8640 C   0  0  0  0  0  0  0  0  0  0  0  0
   59.3910   34.9610   47.2290 C   0  0  0  0  0  0  0  0  0  0  0  0
   58.6550   33.8590   47.6750 C   0  0  0  0  0  0  0  0  0  0  0  0
   58.1660   32.9250   46.7550 C   0  0  0  0  0  0  0  0  0  0  0  0
   58.2840   29.7500   46.5970 N   0  0  0  0  0  0  0  0  0  0  0  0
   59.2160   29.9660   47.6720 C   0  0  0  0  0  0  0  0  0  0  0  0
   58.9040   29.5960   48.9930 C   0  0  0  0  0  0  0  0  0  0  0  0
   59.8130   29.8360   50.0280 C   0  0  0  0  0  0  0  0  0  0  0  0
   61.0340   30.4580   49.7570 C   0  0  0  0  0  0  0  0  0  0  0  0
   61.3450   30.8480   48.4520 C   0  0  0  0  0  0  0  0  0  0  0  0
   60.4390   30.6110   47.4130 C   0  0  0  0  0  0  0  0  0  0  0  0
   60.7580   30.9950   46.1510 F   0  0  0  0  0  0  0  0  0  0  0  0
   57.7171   29.1675   43.7638 H   0  0  0  0  0  0  0  0  0  0  0  0
   56.2761   28.1790   43.3177 H   0  0  0  0  0  0  0  0  0  0  0  0
   55.9237   30.5990   42.8460 H   0  0  0  0  0  0  0  0  0  0  0  0
   54.7797   29.9806   44.0851 H   0  0  0  0  0  0  0  0  0  0  0  0
   59.3396   34.3398   43.8678 H   0  0  0  0  0  0  0  0  0  0  0  0
   60.2130   36.0018   45.5143 H   0  0  0  0  0  0  0  0  0  0  0  0
   59.7775   35.6932   47.9532 H   0  0  0  0  0  0  0  0  0  0  0  0
   58.4603   33.7263   48.7495 H   0  0  0  0  0  0  0  0  0  0  0  0
   57.5853   32.0597   47.1072 H   0  0  0  0  0  0  0  0  0  0  0  0
   58.0740   30.5450   45.9520 H   0  0  0  0  0  0  0  0  0  0  0  0
   57.9394   29.1151   49.2129 H   0  0  0  0  0  0  0  0  0  0  0  0
   59.5663   29.5347   51.0568 H   0  0  0  0  0  0  0  0  0  0  0  0
   61.7507   30.6408   50.5712 H   0  0  0  0  0  0  0  0  0  0  0  0
   62.3046   31.3426   48.2411 H   0  0  0  0  0  0  0  0  0  0  0  0
  1  2  2  0
  2  3  1  0
  3  4  1  0
  4  5  1  0
  5  6  1  0
  6  7  1  0
  7  8  2  0
  7  9  2  0
  7 10  1  0
 10 11  2  0
 11 12  1  0
 12 13  2  0
 13 14  1  0
 14 15  2  0
  2 16  1  0
 16 17  1  0
 17 18  2  0
 18 19  1  0
 19 20  2  0
 20 21  1  0
 21 22  2  0
 22 23  1  0
 15 10  1  0
 22 17  1  0
  4 24  1  0
  4 25  1  0
  5 26  1  0
  5 27  1  0
 11 28  1  0
 12 29  1  0
 13 30  1  0
 14 31  1  0
 15 32  1  0
 16 33  1  0
 18 34  1  0
 19 35  1  0
 20 36  1  0
 21 37  1  0
M  CHG  2   3  -1   6  -1
M  END
>  <UniqueID>  (34) 
29

>  <SMILES>  (34) 
O=C([N-]CC[N-]S(=O)(=O)c1ccccc1)Nc1ccccc1F

>  <Energy>  (34) 
34.7261153071236

>  <Genealogy>  (34) 
O=C([N-]CC[N-]S(=O)(=O)c1ccccc1)Nc1ccccc1F (protonated)
O=C([N-]CC[N-]S(=O)(=O)c1ccccc1)Nc1ccccc1F (3D coordinates assigned)
O=C([N-]CC[N-]S(=O)(=O)c1ccccc1)Nc1ccccc1F (optimized conformer: 34.7261153071236 kcal/mol)

>  <smiles>  (34) 
O=C(NCCNS(=O)(=O)c1ccccc1)Nc1ccccc1F

>  <score_type>  (34) 
oracle

>  <origin>  (34) 
adg

>  <m_score__min__energy>  (34) 
-11.02

>  <m_primary>  (34) 
energy

$$$$
34:0
     RDKit          3D

 47 49  0  0  0  0  0  0  0  0999 V2000
   54.6050   27.0910   46.6950 H   0  0  0  0  0  0  0  0  0  0  0  0
   55.1540   26.4900   46.0420 N   0  0  0  0  0  0  0  0  0  0  0  0
   56.4750   26.8530   45.6450 C   0  0  0  0  0  0  0  0  0  0  0  0
   57.3410   25.9490   45.5010 O   0  0  0  0  0  0  0  0  0  0  0  0
   56.8460   28.2750   45.4420 C   0  0  0  0  0  0  0  0  0  0  0  0
   55.9230   29.1510   44.8490 C   0  0  0  0  0  0  0  0  0  0  0  0
   54.9159   28.7904   44.5928 H   0  0  0  0  0  0  0  0  0  0  0  0
   56.2630   30.4400   44.5890 N   0  0  0  0  0  0  0  0  0  0  0  0
   57.4900   30.9440   44.8790 C   0  0  0  0  0  0  0  0  0  0  0  0
   57.7290   32.1950   44.5970 N   0  0  0  0  0  0  0  0  0  0  0  0
   58.6250   33.0890   45.2760 C   0  0  0  0  0  0  0  0  0  0  0  0
   58.4570   34.4700   45.1250 C   0  0  0  0  0  0  0  0  0  0  0  0
   57.6297   34.8577   44.5124 H   0  0  0  0  0  0  0  0  0  0  0  0
   59.3370   35.3590   45.7500 C   0  0  0  0  0  0  0  0  0  0  0  0
   59.1922   36.4437   45.6384 H   0  0  0  0  0  0  0  0  0  0  0  0
   60.4000   34.8730   46.5160 C   0  0  0  0  0  0  0  0  0  0  0  0
   61.0841   35.5752   47.0149 H   0  0  0  0  0  0  0  0  0  0  0  0
   60.5950   33.4920   46.6490 C   0  0  0  0  0  0  0  0  0  0  0  0
   61.9370   32.8640   47.6040 S   0  0  0  0  0  0  0  0  0  0  0  0
   62.0100   31.3750   47.4200 O   0  0  0  0  0  0  0  0  0  0  0  0
   63.2300   33.4790   47.1460 O   0  0  0  0  0  0  0  0  0  0  0  0
   61.6940   33.2190   49.2880 N   0  0  0  0  0  0  0  0  0  0  0  0
   62.6470   34.2370   49.7210 C   0  0  0  0  0  0  0  0  0  0  0  0
   62.6761   34.2681   50.8202 H   0  0  0  0  0  0  0  0  0  0  0  0
   63.6471   33.9911   49.3345 H   0  0  0  0  0  0  0  0  0  0  0  0
   62.3357   35.2187   49.3345 H   0  0  0  0  0  0  0  0  0  0  0  0
   59.7240   32.6030   46.0060 C   0  0  0  0  0  0  0  0  0  0  0  0
   59.9007   31.5193   46.0725 H   0  0  0  0  0  0  0  0  0  0  0  0
   58.4350   30.1130   45.5110 C   0  0  0  0  0  0  0  0  0  0  0  0
   59.4277   30.5082   45.7724 H   0  0  0  0  0  0  0  0  0  0  0  0
   58.1110   28.7860   45.8060 C   0  0  0  0  0  0  0  0  0  0  0  0
   59.0620   28.0070   46.4740 O   0  0  0  0  0  0  0  0  0  0  0  0
   59.5930   28.3190   47.7340 C   0  0  0  0  0  0  0  0  0  0  0  0
   60.2500   27.3120   48.4510 C   0  0  0  0  0  0  0  0  0  0  0  0
   60.3398   26.3047   48.0182 H   0  0  0  0  0  0  0  0  0  0  0  0
   60.7930   27.5750   49.7120 C   0  0  0  0  0  0  0  0  0  0  0  0
   61.3026   26.7737   50.2672 H   0  0  0  0  0  0  0  0  0  0  0  0
   60.6900   28.8620   50.2740 C   0  0  0  0  0  0  0  0  0  0  0  0
   61.2170   29.1760   51.5350 O   0  0  0  0  0  0  0  0  0  0  0  0
   62.3340   30.0330   51.7490 C   0  0  0  0  0  0  0  0  0  0  0  0
   62.4980   30.1588   52.8294 H   0  0  0  0  0  0  0  0  0  0  0  0
   63.2301   29.5885   51.2914 H   0  0  0  0  0  0  0  0  0  0  0  0
   62.1367   31.0137   51.2914 H   0  0  0  0  0  0  0  0  0  0  0  0
   60.0400   29.8700   49.5540 C   0  0  0  0  0  0  0  0  0  0  0  0
   59.9561   30.8790   49.9839 H   0  0  0  0  0  0  0  0  0  0  0  0
   59.4960   29.6070   48.2930 C   0  0  0  0  0  0  0  0  0  0  0  0
   58.9905   30.4096   47.7360 H   0  0  0  0  0  0  0  0  0  0  0  0
  1  2  1  0
  2  3  1  0
  3  4  2  0
  3  5  1  0
  5  6  2  0
  6  7  1  0
  6  8  1  0
  8  9  1  0
  9 10  2  0
 10 11  1  0
 11 12  2  0
 12 13  1  0
 12 14  1  0
 14 15  1  0
 14 16  2  0
 16 17  1  0
 16 18  1  0
 18 19  1  0
 19 20  2  0
 19 21  2  0
 19 22  1  0
 22 23  1  0
 23 24  1  0
 23 25  1  0
 23 26  1  0
 18 27  2  0
 27 28  1  0
  9 29  1  0
 29 30  1  0
 29 31  2  0
 31 32  1  0
 32 33  1  0
 33 34  2  0
 34 35  1  0
 34 36  1  0
 36 37  1  0
 36 38  2  0
 38 39  1  0
 39 40  1  0
 40 41  1  0
 40 42  1  0
 40 43  1  0
 38 44  1  0
 44 45  1  0
 44 46  2  0
 46 47  1  0
 31  5  1  0
 46 33  1  0
 27 11  1  0
M  CHG  3   2  -1   8  -1  22  -1
M  END
>  <UniqueID>  (35) 
30

>  <SMILES>  (35) 
C[N-]S(=O)(=O)c1cccc(/N=c2\cc(Oc3ccc(OC)cc3)c(C([NH-])=O)c[n-]2)c1

>  <Energy>  (35) 
67.05467223380398

>  <Genealogy>  (35) 
C[N-]S(=O)(=O)c1cccc(N=c2cc(Oc3ccc(OC)cc3)c(C([NH-])=O)c[n-]2)c1 (protonated)
C[N-]S(=O)(=O)c1cccc(/N=c2\cc(Oc3ccc(OC)cc3)c(C([NH-])=O)c[n-]2)c1 (cis-trans isomerization)
C[N-]S(=O)(=O)c1cccc(/N=c2\cc(Oc3ccc(OC)cc3)c(C([NH-])=O)c[n-]2)c1 (3D coordinates assigned)
C[N-]S(=O)(=O)c1cccc(/N=c2\cc(Oc3ccc(OC)cc3)c(C([NH-])=O)c[n-]2)c1 (optimized conformer: 67.05467223380398 kcal/mol)

>  <smiles>  (35) 
CNS(=O)(=O)c1cccc(N=c2cc(Oc3ccc(OC)cc3)c(C(N)=O)c[nH]2)c1

>  <score_type>  (35) 
oracle

>  <origin>  (35) 
adg

>  <m_score__min__energy>  (35) 
-12.91

>  <m_primary>  (35) 
energy

$$$$
35:0
     RDKit          3D

 50 53  0  0  0  0  0  0  0  0999 V2000
   55.3530   29.4900   52.3750 O   0  0  0  0  0  0  0  0  0  0  0  0
   55.3560   30.6830   51.9620 C   0  0  0  0  0  0  0  0  0  0  0  0
   54.1110   31.3230   51.6410 N   0  0  0  0  0  0  0  0  0  0  0  0
   52.8580   30.5700   51.6070 C   0  0  0  0  0  0  0  0  0  0  0  0
   51.8600   31.1590   52.5710 C   0  0  0  0  0  0  0  0  0  0  0  0
   51.8130   30.7040   53.8990 C   0  0  0  0  0  0  0  0  0  0  0  0
   50.9130   31.2660   54.8090 C   0  0  0  0  0  0  0  0  0  0  0  0
   50.0600   32.2950   54.4040 C   0  0  0  0  0  0  0  0  0  0  0  0
   50.1090   32.7670   53.0890 C   0  0  0  0  0  0  0  0  0  0  0  0
   51.0080   32.2100   52.1730 C   0  0  0  0  0  0  0  0  0  0  0  0
   51.0520   32.7040   50.8740 O   0  0  0  0  0  0  0  0  0  0  0  0
   56.6460   31.4050   51.8370 C   0  0  0  0  0  0  0  0  0  0  0  0
   56.9860   32.4390   52.7270 C   0  0  0  0  0  0  0  0  0  0  0  0
   58.2010   33.1160   52.5920 C   0  0  0  0  0  0  0  0  0  0  0  0
   59.0870   32.7740   51.5700 C   0  0  0  0  0  0  0  0  0  0  0  0
   58.7660   31.7460   50.6710 C   0  0  0  0  0  0  0  0  0  0  0  0
   59.7200   31.3740   49.5630 C   0  0  0  0  0  0  0  0  0  0  0  0
   59.0210   31.3230   48.2260 C   0  0  0  0  0  0  0  0  0  0  0  0
   58.5130   30.1270   47.8240 N   0  0  0  0  0  0  0  0  0  0  0  0
   57.9080   29.9740   46.6490 N   0  0  0  0  0  0  0  0  0  0  0  0
   57.7750   31.0030   45.7790 C   0  0  0  0  0  0  0  0  0  0  0  0
   57.1840   30.8090   44.6820 O   0  0  0  0  0  0  0  0  0  0  0  0
   58.2920   32.2670   46.1050 C   0  0  0  0  0  0  0  0  0  0  0  0
   58.9030   32.4450   47.3700 C   0  0  0  0  0  0  0  0  0  0  0  0
   59.5200   33.7810   47.7490 C   0  0  0  0  0  0  0  0  0  0  0  0
   58.9860   34.9480   46.9160 C   0  0  0  0  0  0  0  0  0  0  0  0
   59.0260   34.6000   45.4330 C   0  0  0  0  0  0  0  0  0  0  0  0
   58.0930   33.4230   45.1450 C   0  0  0  0  0  0  0  0  0  0  0  0
   57.5370   31.0760   50.8010 C   0  0  0  0  0  0  0  0  0  0  0  0
   54.0930   32.3560   51.4820 H   0  0  0  0  0  0  0  0  0  0  0  0
   52.4422   30.6055   50.5892 H   0  0  0  0  0  0  0  0  0  0  0  0
   53.0613   29.5289   51.8983 H   0  0  0  0  0  0  0  0  0  0  0  0
   52.4891   29.8999   54.2252 H   0  0  0  0  0  0  0  0  0  0  0  0
   50.8766   30.8975   55.8448 H   0  0  0  0  0  0  0  0  0  0  0  0
   49.3495   32.7341   55.1198 H   0  0  0  0  0  0  0  0  0  0  0  0
   49.4381   33.5795   52.7732 H   0  0  0  0  0  0  0  0  0  0  0  0
   56.2918   32.7165   53.5339 H   0  0  0  0  0  0  0  0  0  0  0  0
   58.4599   33.9219   53.2945 H   0  0  0  0  0  0  0  0  0  0  0  0
   60.0409   33.3124   51.4687 H   0  0  0  0  0  0  0  0  0  0  0  0
   60.5246   32.1227   49.5175 H   0  0  0  0  0  0  0  0  0  0  0  0
   60.1269   30.3750   49.7784 H   0  0  0  0  0  0  0  0  0  0  0  0
   59.3019   33.9790   48.8088 H   0  0  0  0  0  0  0  0  0  0  0  0
   60.6007   33.7089   47.5567 H   0  0  0  0  0  0  0  0  0  0  0  0
   57.9477   35.1597   47.2113 H   0  0  0  0  0  0  0  0  0  0  0  0
   59.6156   35.8324   47.0935 H   0  0  0  0  0  0  0  0  0  0  0  0
   58.7035   35.4723   44.8456 H   0  0  0  0  0  0  0  0  0  0  0  0
   60.0534   34.3217   45.1557 H   0  0  0  0  0  0  0  0  0  0  0  0
   57.0527   33.7714   45.2253 H   0  0  0  0  0  0  0  0  0  0  0  0
   58.3240   33.0571   44.1337 H   0  0  0  0  0  0  0  0  0  0  0  0
   57.2698   30.2857   50.0841 H   0  0  0  0  0  0  0  0  0  0  0  0
  1  2  2  0
  2  3  1  0
  3  4  1  0
  4  5  1  0
  5  6  2  0
  6  7  1  0
  7  8  2  0
  8  9  1  0
  9 10  2  0
 10 11  1  0
  2 12  1  0
 12 13  2  0
 13 14  1  0
 14 15  2  0
 15 16  1  0
 16 17  1  0
 17 18  1  0
 18 19  2  0
 19 20  1  0
 20 21  1  0
 21 22  2  0
 21 23  1  0
 23 24  2  0
 24 25  1  0
 25 26  1  0
 26 27  1  0
 27 28  1  0
 16 29  2  0
 10  5  1  0
 29 12  1  0
 24 18  1  0
 28 23  1  0
  3 30  1  0
  4 31  1  0
  4 32  1  0
  6 33  1  0
  7 34  1  0
  8 35  1  0
  9 36  1  0
 13 37  1  0
 14 38  1  0
 15 39  1  0
 17 40  1  0
 17 41  1  0
 25 42  1  0
 25 43  1  0
 26 44  1  0
 26 45  1  0
 27 46  1  0
 27 47  1  0
 28 48  1  0
 28 49  1  0
 29 50  1  0
M  CHG  2  11  -1  20  -1
M  END
>  <UniqueID>  (36) 
31

>  <SMILES>  (36) 
O=C(NCc1ccccc1[O-])c1cccc(Cc2n[n-]c(=O)c3c2CCCC3)c1

>  <Energy>  (36) 
56.63002823478978

>  <Genealogy>  (36) 
O=C(NCc1ccccc1[O-])c1cccc(Cc2n[n-]c(=O)c3c2CCCC3)c1 (protonated)
O=C(NCc1ccccc1[O-])c1cccc(Cc2n[n-]c(=O)c3c2CCCC3)c1 (3D coordinates assigned)
O=C(NCc1ccccc1[O-])c1cccc(Cc2n[n-]c(=O)c3c2CCCC3)c1 (nonaromatic ring conformer: 56.63002823478978 kcal/mol)

>  <smiles>  (36) 
O=C(NCc1ccccc1O)c1cccc(Cc2n[nH]c(=O)c3c2CCCC3)c1

>  <score_type>  (36) 
oracle

>  <origin>  (36) 
adg

>  <m_score__min__energy>  (36) 
-15.51

>  <m_primary>  (36) 
energy

$$$$
36:0
     RDKit          3D

 50 53  0  0  0  0  0  0  0  0999 V2000
   55.3600   28.9740   44.8590 N   0  0  0  0  0  0  0  0  0  0  0  0
   56.7150   30.0190   44.6060 S   0  0  0  0  0  0  0  0  0  0  0  0
   56.3040   31.4440   44.8500 O   0  0  0  0  0  0  0  0  0  0  0  0
   57.1830   29.8800   43.1840 O   0  0  0  0  0  0  0  0  0  0  0  0
   58.0080   29.5880   45.7210 C   0  0  0  0  0  0  0  0  0  0  0  0
   58.0060   28.3490   46.3770 C   0  0  0  0  0  0  0  0  0  0  0  0
   59.0400   28.0240   47.2580 C   0  0  0  0  0  0  0  0  0  0  0  0
   60.0830   28.9280   47.4840 C   0  0  0  0  0  0  0  0  0  0  0  0
   60.1030   30.1680   46.8210 C   0  0  0  0  0  0  0  0  0  0  0  0
   61.1430   31.1290   47.0660 N   0  0  0  0  0  0  0  0  0  0  0  0
   61.8240   31.2650   48.3240 C   0  0  0  0  0  0  0  0  0  0  0  0
   61.7090   30.3770   49.2140 O   0  0  0  0  0  0  0  0  0  0  0  0
   62.6910   32.4590   48.5850 C   0  0  0  0  0  0  0  0  0  0  0  0
   61.6990   33.8720   49.1840 S   0  0  0  0  0  0  0  0  0  0  0  0
   60.2120   32.8990   49.4670 C   0  0  0  0  0  0  0  0  0  0  0  0
   59.9810   32.2440   50.6170 N   0  0  0  0  0  0  0  0  0  0  0  0
   58.7200   31.7800   50.4860 C   0  0  0  0  0  0  0  0  0  0  0  0
   58.0130   31.0280   51.5460 C   0  0  0  0  0  0  0  0  0  0  0  0
   58.5900   29.8740   52.1020 C   0  0  0  0  0  0  0  0  0  0  0  0
   57.9120   29.1420   53.0830 C   0  0  0  0  0  0  0  0  0  0  0  0
   56.6530   29.5550   53.5180 C   0  0  0  0  0  0  0  0  0  0  0  0
   56.0700   30.7040   52.9770 C   0  0  0  0  0  0  0  0  0  0  0  0
   56.7450   31.4430   52.0010 C   0  0  0  0  0  0  0  0  0  0  0  0
   58.1410   32.1240   49.3120 N   0  0  0  0  0  0  0  0  0  0  0  0
   59.0900   32.8230   48.6620 C   0  0  0  0  0  0  0  0  0  0  0  0
   58.8620   33.4610   47.3470 C   0  0  0  0  0  0  0  0  0  0  0  0
   57.5720   33.4450   46.7840 C   0  0  0  0  0  0  0  0  0  0  0  0
   57.3380   34.0290   45.5360 C   0  0  0  0  0  0  0  0  0  0  0  0
   58.3890   34.6220   44.8330 C   0  0  0  0  0  0  0  0  0  0  0  0
   59.6750   34.6320   45.3770 C   0  0  0  0  0  0  0  0  0  0  0  0
   59.9140   34.0510   46.6260 C   0  0  0  0  0  0  0  0  0  0  0  0
   59.0510   30.4980   45.9540 C   0  0  0  0  0  0  0  0  0  0  0  0
   54.7900   29.3940   45.6290 H   0  0  0  0  0  0  0  0  0  0  0  0
   57.1903   27.6330   46.1979 H   0  0  0  0  0  0  0  0  0  0  0  0
   59.0340   27.0536   47.7759 H   0  0  0  0  0  0  0  0  0  0  0  0
   60.8912   28.6679   48.1834 H   0  0  0  0  0  0  0  0  0  0  0  0
   61.4770   31.7140   46.2650 H   0  0  0  0  0  0  0  0  0  0  0  0
   63.4418   32.1987   49.3456 H   0  0  0  0  0  0  0  0  0  0  0  0
   63.1800   32.7489   47.6433 H   0  0  0  0  0  0  0  0  0  0  0  0
   59.5829   29.5432   51.7633 H   0  0  0  0  0  0  0  0  0  0  0  0
   58.3726   28.2397   53.5116 H   0  0  0  0  0  0  0  0  0  0  0  0
   56.1192   28.9767   54.2865 H   0  0  0  0  0  0  0  0  0  0  0  0
   55.0765   31.0281   53.3203 H   0  0  0  0  0  0  0  0  0  0  0  0
   56.2848   32.3520   51.5864 H   0  0  0  0  0  0  0  0  0  0  0  0
   56.7432   32.9701   47.3295 H   0  0  0  0  0  0  0  0  0  0  0  0
   56.3251   34.0216   45.1071 H   0  0  0  0  0  0  0  0  0  0  0  0
   58.2037   35.0812   43.8507 H   0  0  0  0  0  0  0  0  0  0  0  0
   60.5021   35.0982   44.8215 H   0  0  0  0  0  0  0  0  0  0  0  0
   60.9305   34.0557   47.0463 H   0  0  0  0  0  0  0  0  0  0  0  0
   59.0433   31.4772   45.4529 H   0  0  0  0  0  0  0  0  0  0  0  0
  1  2  1  0
  2  3  2  0
  2  4  2  0
  2  5  1  0
  5  6  2  0
  6  7  1  0
  7  8  2  0
  8  9  1  0
  9 10  1  0
 10 11  1  0
 11 12  2  0
 11 13  1  0
 13 14  1  0
 14 15  1  0
 15 16  1  0
 16 17  2  0
 17 18  1  0
 18 19  2  0
 19 20  1  0
 20 21  2  0
 21 22  1  0
 22 23  2  0
 17 24  1  0
 24 25  1  0
 25 26  1  0
 26 27  2  0
 27 28  1  0
 28 29  2  0
 29 30  1  0
 30 31  2  0
  9 32  2  0
 32  5  1  0
 25 15  2  0
 31 26  1  0
 23 18  1  0
  1 33  1  0
  6 34  1  0
  7 35  1  0
  8 36  1  0
 10 37  1  0
 13 38  1  0
 13 39  1  0
 19 40  1  0
 20 41  1  0
 21 42  1  0
 22 43  1  0
 23 44  1  0
 27 45  1  0
 28 46  1  0
 29 47  1  0
 30 48  1  0
 31 49  1  0
 32 50  1  0
M  CHG  2   1  -1  24  -1
M  END
>  <UniqueID>  (37) 
32

>  <SMILES>  (37) 
[NH-]S(=O)(=O)c1cccc(NC(=O)CSc2nc(-c3ccccc3)[n-]c2-c2ccccc2)c1

>  <Energy>  (37) 
83.5680269930325

>  <Genealogy>  (37) 
[NH-]S(=O)(=O)c1cccc(NC(=O)CSc2nc(-c3ccccc3)[n-]c2-c2ccccc2)c1 (protonated)
[NH-]S(=O)(=O)c1cccc(NC(=O)CSc2nc(-c3ccccc3)[n-]c2-c2ccccc2)c1 (3D coordinates assigned)
[NH-]S(=O)(=O)c1cccc(NC(=O)CSc2nc(-c3ccccc3)[n-]c2-c2ccccc2)c1 (optimized conformer: 83.5680269930325 kcal/mol)

>  <smiles>  (37) 
NS(=O)(=O)c1cccc(NC(=O)CSc2nc(-c3ccccc3)[nH]c2-c2ccccc2)c1

>  <score_type>  (37) 
oracle

>  <origin>  (37) 
adg

>  <m_score__min__energy>  (37) 
-13.17

>  <m_primary>  (37) 
energy

$$$$
37:0
     RDKit          3D

 42 44  0  0  0  0  0  0  0  0999 V2000
   52.4420   24.3670   45.1760 C   0  0  0  0  0  0  0  0  0  0  0  0
   53.9220   24.2360   45.0380 C   0  0  0  0  0  0  0  0  0  0  0  0
   54.7460   25.0660   45.7310 N   0  0  0  0  0  0  0  0  0  0  0  0
   56.0970   24.9900   45.6000 C   0  0  0  0  0  0  0  0  0  0  0  0
   56.9780   25.9140   46.4060 C   0  0  0  0  0  0  0  0  0  0  0  0
   57.5720   27.0060   45.6020 N   0  0  0  0  0  0  0  0  0  0  0  0
   58.8960   27.4250   46.1160 C   0  0  0  0  0  0  0  0  0  0  0  0
   59.8610   27.8770   44.9970 C   0  0  0  0  0  0  0  0  0  0  0  0
   59.5670   29.2620   44.4780 C   0  0  0  0  0  0  0  0  0  0  0  0
   58.3740   29.8580   44.6690 C   0  0  0  0  0  0  0  0  0  0  0  0
   58.3130   31.2420   45.2010 C   0  0  0  0  0  0  0  0  0  0  0  0
   58.7440   31.5210   46.5100 C   0  0  0  0  0  0  0  0  0  0  0  0
   58.6840   32.8250   47.0110 C   0  0  0  0  0  0  0  0  0  0  0  0
   58.1930   33.8600   46.2130 C   0  0  0  0  0  0  0  0  0  0  0  0
   57.7630   33.5950   44.9110 C   0  0  0  0  0  0  0  0  0  0  0  0
   57.8230   32.2940   44.4050 C   0  0  0  0  0  0  0  0  0  0  0  0
   57.0930   29.1260   44.3170 C   0  0  0  0  0  0  0  0  0  0  0  0
   56.6340   28.1370   45.4130 C   0  0  0  0  0  0  0  0  0  0  0  0
   56.6510   24.0460   44.7270 C   0  0  0  0  0  0  0  0  0  0  0  0
   55.7910   23.2110   44.0140 C   0  0  0  0  0  0  0  0  0  0  0  0
   56.2560   22.3550   43.2170 O   0  0  0  0  0  0  0  0  0  0  0  0
   54.4470   23.3240   44.1780 N   0  0  0  0  0  0  0  0  0  0  0  0
   52.1739   24.3907   46.2426 H   0  0  0  0  0  0  0  0  0  0  0  0
   52.1097   25.2981   44.6936 H   0  0  0  0  0  0  0  0  0  0  0  0
   51.9514   23.5088   44.6936 H   0  0  0  0  0  0  0  0  0  0  0  0
   56.3732   26.3608   47.2089 H   0  0  0  0  0  0  0  0  0  0  0  0
   57.8090   25.3104   46.7999 H   0  0  0  0  0  0  0  0  0  0  0  0
   58.7521   28.2624   46.8146 H   0  0  0  0  0  0  0  0  0  0  0  0
   59.3491   26.5526   46.6096 H   0  0  0  0  0  0  0  0  0  0  0  0
   60.8867   27.8636   45.3942 H   0  0  0  0  0  0  0  0  0  0  0  0
   59.7327   27.1802   44.1556 H   0  0  0  0  0  0  0  0  0  0  0  0
   60.3507   29.8022   43.9266 H   0  0  0  0  0  0  0  0  0  0  0  0
   59.1305   30.7089   47.1434 H   0  0  0  0  0  0  0  0  0  0  0  0
   59.0242   33.0357   48.0356 H   0  0  0  0  0  0  0  0  0  0  0  0
   58.1448   34.8847   46.6100 H   0  0  0  0  0  0  0  0  0  0  0  0
   57.3766   34.4114   44.2831 H   0  0  0  0  0  0  0  0  0  0  0  0
   57.4851   32.0908   43.3781 H   0  0  0  0  0  0  0  0  0  0  0  0
   56.2972   29.8694   44.1618 H   0  0  0  0  0  0  0  0  0  0  0  0
   57.2925   28.5375   43.4093 H   0  0  0  0  0  0  0  0  0  0  0  0
   56.5473   28.6831   46.3639 H   0  0  0  0  0  0  0  0  0  0  0  0
   55.6701   27.7149   45.0924 H   0  0  0  0  0  0  0  0  0  0  0  0
   57.7413   23.9646   44.6060 H   0  0  0  0  0  0  0  0  0  0  0  0
  1  2  1  0
  2  3  2  0
  3  4  1  0
  4  5  1  0
  5  6  1  0
  6  7  1  0
  7  8  1  0
  8  9  1  0
  9 10  2  0
 10 11  1  0
 11 12  2  0
 12 13  1  0
 13 14  2  0
 14 15  1  0
 15 16  2  0
 10 17  1  0
 17 18  1  0
  4 19  2  0
 19 20  1  0
 20 21  2  0
 20 22  1  0
 22  2  1  0
 18  6  1  0
 16 11  1  0
  1 23  1  0
  1 24  1  0
  1 25  1  0
  5 26  1  0
  5 27  1  0
  7 28  1  0
  7 29  1  0
  8 30  1  0
  8 31  1  0
  9 32  1  0
 12 33  1  0
 13 34  1  0
 14 35  1  0
 15 36  1  0
 16 37  1  0
 17 38  1  0
 17 39  1  0
 18 40  1  0
 18 41  1  0
 19 42  1  0
M  CHG  1  22  -1
M  END
>  <UniqueID>  (38) 
33

>  <SMILES>  (38) 
Cc1nc(CN2CCC=C(c3ccccc3)CC2)cc(=O)[n-]1

>  <Energy>  (38) 
57.958014069738574

>  <Genealogy>  (38) 
Cc1nc(CN2CCC=C(c3ccccc3)CC2)cc(=O)[n-]1 (protonated)
Cc1nc(CN2CCC=C(c3ccccc3)CC2)cc(=O)[n-]1 (3D coordinates assigned)
Cc1nc(CN2CCC=C(c3ccccc3)CC2)cc(=O)[n-]1 (nonaromatic ring conformer: 57.958014069738574 kcal/mol)

>  <smiles>  (38) 
Cc1nc(CN2CCC=C(c3ccccc3)CC2)cc(=O)[nH]1

>  <score_type>  (38) 
oracle

>  <origin>  (38) 
adg

>  <m_score__min__energy>  (38) 
-7.8099999999999996

>  <m_primary>  (38) 
energy

$$$$
38:0
     RDKit          3D

 52 55  0  0  0  0  0  0  0  0999 V2000
   54.7320   29.3770   43.3570 O   0  0  0  0  0  0  0  0  0  0  0  0
   55.6850   29.5480   44.1670 C   0  0  0  0  0  0  0  0  0  0  0  0
   55.8870   28.6240   45.2450 N   0  0  0  0  0  0  0  0  0  0  0  0
   56.9440   27.6210   45.2650 C   0  0  0  0  0  0  0  0  0  0  0  0
   58.2850   28.2770   45.4700 C   0  0  0  0  0  0  0  0  0  0  0  0
   59.1810   28.3600   44.3890 C   0  0  0  0  0  0  0  0  0  0  0  0
   60.3930   29.0360   44.5250 C   0  0  0  0  0  0  0  0  0  0  0  0
   60.7380   29.6070   45.7520 C   0  0  0  0  0  0  0  0  0  0  0  0
   59.8830   29.4880   46.8510 C   0  0  0  0  0  0  0  0  0  0  0  0
   60.3730   30.1600   48.3980 Cl  0  0  0  0  0  0  0  0  0  0  0  0
   58.6520   28.8300   46.7130 C   0  0  0  0  0  0  0  0  0  0  0  0
   57.8160   28.7330   47.7830 F   0  0  0  0  0  0  0  0  0  0  0  0
   56.5730   30.7180   44.0190 C   0  0  0  0  0  0  0  0  0  0  0  0
   57.0440   31.1210   42.7640 C   0  0  0  0  0  0  0  0  0  0  0  0
   57.8950   32.2170   42.6760 C   0  0  0  0  0  0  0  0  0  0  0  0
   58.2640   32.8920   43.8370 C   0  0  0  0  0  0  0  0  0  0  0  0
   59.0450   33.8790   43.7570 O   0  0  0  0  0  0  0  0  0  0  0  0
   57.7780   32.4720   45.0500 N   0  0  0  0  0  0  0  0  0  0  0  0
   58.1360   33.1700   46.2930 C   0  0  0  0  0  0  0  0  0  0  0  0
   59.6550   33.4120   46.3840 C   0  0  0  0  0  0  0  0  0  0  0  0
   60.0270   34.5450   47.3470 C   0  0  0  0  0  0  0  0  0  0  0  0
   59.6410   34.2070   48.7150 N   0  0  0  0  0  0  0  0  0  0  0  0
   60.3510   33.9060   49.7770 C   0  0  0  0  0  0  0  0  0  0  0  0
   59.6260   33.8110   50.9760 C   0  0  0  0  0  0  0  0  0  0  0  0
   60.2310   33.3480   52.1390 C   0  0  0  0  0  0  0  0  0  0  0  0
   61.5370   32.9820   52.1300 N   0  0  0  0  0  0  0  0  0  0  0  0
   62.3100   33.0930   51.0180 C   0  0  0  0  0  0  0  0  0  0  0  0
   63.6580   32.7150   51.1010 C   0  0  0  0  0  0  0  0  0  0  0  0
   64.5020   32.8860   50.0070 C   0  0  0  0  0  0  0  0  0  0  0  0
   66.1940   32.4380   50.1180 Cl  0  0  0  0  0  0  0  0  0  0  0  0
   64.0100   33.4640   48.8370 C   0  0  0  0  0  0  0  0  0  0  0  0
   62.6660   33.8360   48.7360 C   0  0  0  0  0  0  0  0  0  0  0  0
   61.7610   33.6090   49.8040 C   0  0  0  0  0  0  0  0  0  0  0  0
   56.9610   31.4150   45.1220 N   0  0  0  0  0  0  0  0  0  0  0  0
   56.7571   26.9134   46.0862 H   0  0  0  0  0  0  0  0  0  0  0  0
   56.9499   27.0888   44.3023 H   0  0  0  0  0  0  0  0  0  0  0  0
   58.9237   27.8882   43.4292 H   0  0  0  0  0  0  0  0  0  0  0  0
   61.0764   29.1194   43.6671 H   0  0  0  0  0  0  0  0  0  0  0  0
   61.6874   30.1531   45.8538 H   0  0  0  0  0  0  0  0  0  0  0  0
   56.7440   30.5762   41.8567 H   0  0  0  0  0  0  0  0  0  0  0  0
   58.2736   32.5482   41.6977 H   0  0  0  0  0  0  0  0  0  0  0  0
   57.6168   34.1393   46.3215 H   0  0  0  0  0  0  0  0  0  0  0  0
   57.8341   32.5405   47.1430 H   0  0  0  0  0  0  0  0  0  0  0  0
   60.1369   32.4858   46.7304 H   0  0  0  0  0  0  0  0  0  0  0  0
   60.0007   33.7065   45.3821 H   0  0  0  0  0  0  0  0  0  0  0  0
   61.1140   34.7094   47.3086 H   0  0  0  0  0  0  0  0  0  0  0  0
   59.4923   35.4572   47.0436 H   0  0  0  0  0  0  0  0  0  0  0  0
   58.5666   34.1065   50.9952 H   0  0  0  0  0  0  0  0  0  0  0  0
   59.6486   33.2783   53.0695 H   0  0  0  0  0  0  0  0  0  0  0  0
   64.0497   32.2821   52.0333 H   0  0  0  0  0  0  0  0  0  0  0  0
   64.6861   33.6289   47.9851 H   0  0  0  0  0  0  0  0  0  0  0  0
   62.3046   34.3126   47.8128 H   0  0  0  0  0  0  0  0  0  0  0  0
  1  2  2  0
  2  3  1  0
  3  4  1  0
  4  5  1  0
  5  6  2  0
  6  7  1  0
  7  8  2  0
  8  9  1  0
  9 10  1  0
  9 11  2  0
 11 12  1  0
  2 13  1  0
 13 14  1  0
 14 15  2  0
 15 16  1  0
 16 17  2  0
 16 18  1  0
 18 19  1  0
 19 20  1  0
 20 21  1  0
 21 22  1  0
 22 23  2  3
 23 24  1  0
 24 25  2  0
 25 26  1  0
 26 27  1  0
 27 28  2  0
 28 29  1  0
 29 30  1  0
 29 31  2  0
 31 32  1  0
 32 33  2  0
 18 34  1  0
 11  5  1  0
 34 13  2  0
 33 23  1  0
 33 27  1  0
  4 35  1  0
  4 36  1  0
  6 37  1  0
  7 38  1  0
  8 39  1  0
 14 40  1  0
 15 41  1  0
 19 42  1  0
 19 43  1  0
 20 44  1  0
 20 45  1  0
 21 46  1  0
 21 47  1  0
 24 48  1  0
 25 49  1  0
 28 50  1  0
 31 51  1  0
 32 52  1  0
M  CHG  2   3  -1  26  -1
M  END
>  <UniqueID>  (39) 
34

>  <SMILES>  (39) 
O=C([N-]Cc1cccc(Cl)c1F)c1ccc(=O)n(CCCN=c2cc[n-]c3cc(Cl)ccc23)n1

>  <Energy>  (39) 
68.17012214554678

>  <Genealogy>  (39) 
O=C([N-]Cc1cccc(Cl)c1F)c1ccc(=O)n(CCCN=c2cc[n-]c3cc(Cl)ccc23)n1 (protonated)
O=C([N-]Cc1cccc(Cl)c1F)c1ccc(=O)n(CCCN=c2cc[n-]c3cc(Cl)ccc23)n1 (3D coordinates assigned)
O=C([N-]Cc1cccc(Cl)c1F)c1ccc(=O)n(CCCN=c2cc[n-]c3cc(Cl)ccc23)n1 (optimized conformer: 68.17012214554678 kcal/mol)

>  <smiles>  (39) 
O=C(NCc1cccc(Cl)c1F)c1ccc(=O)n(CCCN=c2cc[nH]c3cc(Cl)ccc23)n1

>  <score_type>  (39) 
oracle

>  <origin>  (39) 
adg

>  <m_score__min__energy>  (39) 
-12.1

>  <m_primary>  (39) 
energy

$$$$
39:0
     RDKit          3D

 53 56  0  0  0  0  0  0  0  0999 V2000
   56.9140   30.7240   43.2850 C   0  0  0  0  0  0  0  0  0  0  0  0
   56.6240   31.1990   44.5960 O   0  0  0  0  0  0  0  0  0  0  0  0
   57.4540   32.0620   45.3260 C   0  0  0  0  0  0  0  0  0  0  0  0
   58.2770   31.5140   46.3180 C   0  0  0  0  0  0  0  0  0  0  0  0
   59.1220   32.3320   47.0720 C   0  0  0  0  0  0  0  0  0  0  0  0
   59.1480   33.7170   46.8520 C   0  0  0  0  0  0  0  0  0  0  0  0
   60.0900   34.5920   47.6350 C   0  0  0  0  0  0  0  0  0  0  0  0
   61.4580   34.0840   47.5220 N   0  0  0  0  0  0  0  0  0  0  0  0
   62.1130   33.8260   46.3720 C   0  0  0  0  0  0  0  0  0  0  0  0
   63.3740   33.3930   46.5770 N   0  0  0  0  0  0  0  0  0  0  0  0
   63.5150   33.3850   47.9170 C   0  0  0  0  0  0  0  0  0  0  0  0
   62.3450   33.8180   48.5020 C   0  0  0  0  0  0  0  0  0  0  0  0
   62.0780   33.8690   49.9840 C   0  0  0  0  0  0  0  0  0  0  0  0
   62.1310   32.5320   50.6000 N   0  0  0  0  0  0  0  0  0  0  0  0
   60.9300   31.7770   50.3290 C   0  0  0  0  0  0  0  0  0  0  0  0
   59.6770   32.2550   50.7510 C   0  0  0  0  0  0  0  0  0  0  0  0
   58.5150   31.5350   50.4640 C   0  0  0  0  0  0  0  0  0  0  0  0
   58.5900   30.3410   49.7430 C   0  0  0  0  0  0  0  0  0  0  0  0
   59.8250   29.8640   49.2910 C   0  0  0  0  0  0  0  0  0  0  0  0
   59.8610   28.6590   48.5740 O   0  0  0  0  0  0  0  0  0  0  0  0
   59.5460   28.5140   47.2150 C   0  0  0  0  0  0  0  0  0  0  0  0
   58.3130   27.9480   46.8690 C   0  0  0  0  0  0  0  0  0  0  0  0
   57.9560   27.7980   45.5240 C   0  0  0  0  0  0  0  0  0  0  0  0
   58.8250   28.2260   44.5160 C   0  0  0  0  0  0  0  0  0  0  0  0
   60.0490   28.8120   44.8530 C   0  0  0  0  0  0  0  0  0  0  0  0
   60.4090   28.9620   46.1960 C   0  0  0  0  0  0  0  0  0  0  0  0
   60.9970   30.5750   49.6040 C   0  0  0  0  0  0  0  0  0  0  0  0
   58.3330   34.2690   45.8530 C   0  0  0  0  0  0  0  0  0  0  0  0
   57.4880   33.4500   45.0980 C   0  0  0  0  0  0  0  0  0  0  0  0
   57.4861   29.7869   43.3527 H   0  0  0  0  0  0  0  0  0  0  0  0
   55.9734   30.5411   42.7449 H   0  0  0  0  0  0  0  0  0  0  0  0
   57.5065   31.4771   42.7449 H   0  0  0  0  0  0  0  0  0  0  0  0
   58.2579   30.4302   46.5050 H   0  0  0  0  0  0  0  0  0  0  0  0
   59.7700   31.8878   47.8419 H   0  0  0  0  0  0  0  0  0  0  0  0
   60.0486   35.6173   47.2388 H   0  0  0  0  0  0  0  0  0  0  0  0
   59.7902   34.5878   48.6933 H   0  0  0  0  0  0  0  0  0  0  0  0
   61.6673   33.9547   45.3746 H   0  0  0  0  0  0  0  0  0  0  0  0
   64.4223   33.0804   48.4592 H   0  0  0  0  0  0  0  0  0  0  0  0
   62.8353   34.5095   50.4596 H   0  0  0  0  0  0  0  0  0  0  0  0
   61.0656   34.2723   50.1334 H   0  0  0  0  0  0  0  0  0  0  0  0
   62.2860   32.6200   51.6320 H   0  0  0  0  0  0  0  0  0  0  0  0
   62.9530   32.0160   50.2080 H   0  0  0  0  0  0  0  0  0  0  0  0
   59.6114   33.2003   51.3097 H   0  0  0  0  0  0  0  0  0  0  0  0
   57.5389   31.9090   50.8065 H   0  0  0  0  0  0  0  0  0  0  0  0
   57.6728   29.7726   49.5294 H   0  0  0  0  0  0  0  0  0  0  0  0
   57.6211   27.6194   47.6585 H   0  0  0  0  0  0  0  0  0  0  0  0
   56.9902   27.3427   45.2597 H   0  0  0  0  0  0  0  0  0  0  0  0
   58.5462   28.1019   43.4592 H   0  0  0  0  0  0  0  0  0  0  0  0
   60.7299   29.1556   44.0604 H   0  0  0  0  0  0  0  0  0  0  0  0
   61.3690   29.4312   46.4573 H   0  0  0  0  0  0  0  0  0  0  0  0
   61.9738   30.1874   49.2789 H   0  0  0  0  0  0  0  0  0  0  0  0
   58.3587   35.3521   45.6624 H   0  0  0  0  0  0  0  0  0  0  0  0
   56.8466   33.8930   44.3219 H   0  0  0  0  0  0  0  0  0  0  0  0
  1  2  1  0
  2  3  1  0
  3  4  2  0
  4  5  1  0
  5  6  2  0
  6  7  1  0
  7  8  1  0
  8  9  1  0
  9 10  2  0
 10 11  1  0
 11 12  2  0
 12 13  1  0
 13 14  1  0
 14 15  1  0
 15 16  2  0
 16 17  1  0
 17 18  2  0
 18 19  1  0
 19 20  1  0
 20 21  1  0
 21 22  2  0
 22 23  1  0
 23 24  2  0
 24 25  1  0
 25 26  2  0
 19 27  2  0
  6 28  1  0
 28 29  2  0
 29  3  1  0
 12  8  1  0
 27 15  1  0
 26 21  1  0
  1 30  1  0
  1 31  1  0
  1 32  1  0
  4 33  1  0
  5 34  1  0
  7 35  1  0
  7 36  1  0
  9 37  1  0
 11 38  1  0
 13 39  1  0
 13 40  1  0
 14 41  1  0
 14 42  1  0
 16 43  1  0
 17 44  1  0
 18 45  1  0
 22 46  1  0
 23 47  1  0
 24 48  1  0
 25 49  1  0
 26 50  1  0
 27 51  1  0
 28 52  1  0
 29 53  1  0
M  CHG  1  14   1
M  END
>  <UniqueID>  (40) 
35

>  <SMILES>  (40) 
COc1ccc(Cn2cncc2C[NH2+]c2cccc(Oc3ccccc3)c2)cc1

>  <Energy>  (40) 
90.63269520302208

>  <Genealogy>  (40) 
COc1ccc(Cn2cncc2C[NH2+]c2cccc(Oc3ccccc3)c2)cc1 (protonated)
COc1ccc(Cn2cncc2C[NH2+]c2cccc(Oc3ccccc3)c2)cc1 (3D coordinates assigned)
COc1ccc(Cn2cncc2C[NH2+]c2cccc(Oc3ccccc3)c2)cc1 (optimized conformer: 90.63269520302208 kcal/mol)

>  <smiles>  (40) 
COc1ccc(Cn2cncc2CNc2cccc(Oc3ccccc3)c2)cc1

>  <score_type>  (40) 
oracle

>  <origin>  (40) 
adg

>  <m_score__min__energy>  (40) 
-6.9100000000000001

>  <m_primary>  (40) 
energy

$$$$
40:0
     RDKit          3D

 60 63  0  0  0  0  0  0  0  0999 V2000
   59.5006   28.7621   51.4437 H   0  0  0  0  0  0  0  0  0  0  0  0
   58.9300   29.6800   51.2390 C   0  0  0  0  0  0  0  0  0  0  0  0
   57.6160   29.7490   51.5710 N   0  0  0  0  0  0  0  0  0  0  0  0
   56.8740   30.8700   51.3560 C   0  0  0  0  0  0  0  0  0  0  0  0
   55.6020   30.8910   51.6270 N   0  0  0  0  0  0  0  0  0  0  0  0
   54.8790   29.8110   52.2970 C   0  0  0  0  0  0  0  0  0  0  0  0
   54.9793   28.8869   51.7089 H   0  0  0  0  0  0  0  0  0  0  0  0
   55.3025   29.6643   53.3015 H   0  0  0  0  0  0  0  0  0  0  0  0
   53.4190   30.1640   52.4250 C   0  0  0  0  0  0  0  0  0  0  0  0
   52.5940   29.4340   53.2970 C   0  0  0  0  0  0  0  0  0  0  0  0
   53.0029   28.5731   53.8463 H   0  0  0  0  0  0  0  0  0  0  0  0
   51.2550   29.7980   53.4690 C   0  0  0  0  0  0  0  0  0  0  0  0
   50.6129   29.2222   54.1518 H   0  0  0  0  0  0  0  0  0  0  0  0
   50.7310   30.8920   52.7750 C   0  0  0  0  0  0  0  0  0  0  0  0
   49.6772   31.1765   52.9116 H   0  0  0  0  0  0  0  0  0  0  0  0
   51.5460   31.6250   51.9070 C   0  0  0  0  0  0  0  0  0  0  0  0
   51.0260   32.7180   51.2240 O   0  0  0  0  0  0  0  0  0  0  0  0
   52.8850   31.2620   51.7290 C   0  0  0  0  0  0  0  0  0  0  0  0
   53.5223   31.8379   51.0419 H   0  0  0  0  0  0  0  0  0  0  0  0
   57.4760   32.0020   50.7980 C   0  0  0  0  0  0  0  0  0  0  0  0
   56.8947   32.9256   50.6597 H   0  0  0  0  0  0  0  0  0  0  0  0
   58.8300   31.9540   50.4140 C   0  0  0  0  0  0  0  0  0  0  0  0
   59.4680   33.0300   49.7700 O   0  0  0  0  0  0  0  0  0  0  0  0
   59.3150   33.3910   48.3980 C   0  0  0  0  0  0  0  0  0  0  0  0
   58.9761   34.4355   48.3337 H   0  0  0  0  0  0  0  0  0  0  0  0
   60.2831   33.2756   47.8886 H   0  0  0  0  0  0  0  0  0  0  0  0
   58.2810   32.4800   47.7160 C   0  0  0  0  0  0  0  0  0  0  0  0
   58.8011   31.6023   47.3048 H   0  0  0  0  0  0  0  0  0  0  0  0
   57.5381   32.1918   48.4743 H   0  0  0  0  0  0  0  0  0  0  0  0
   57.5640   33.1590   46.6230 N   0  0  0  0  0  0  0  0  0  0  0  0
   56.6040   32.7520   46.5270 H   0  0  0  0  0  0  0  0  0  0  0  0
   58.2550   33.0520   45.3300 C   0  0  0  0  0  0  0  0  0  0  0  0
   58.2324   34.0291   44.8252 H   0  0  0  0  0  0  0  0  0  0  0  0
   59.2953   32.7412   45.5065 H   0  0  0  0  0  0  0  0  0  0  0  0
   57.5850   32.0330   44.4620 C   0  0  0  0  0  0  0  0  0  0  0  0
   56.6530   31.2100   44.8820 O   0  0  0  0  0  0  0  0  0  0  0  0
   56.2700   30.4620   43.8710 C   0  0  0  0  0  0  0  0  0  0  0  0
   55.4997   29.6782   43.9187 H   0  0  0  0  0  0  0  0  0  0  0  0
   56.9820   30.8100   42.7400 C   0  0  0  0  0  0  0  0  0  0  0  0
   56.8901   30.3653   41.7381 H   0  0  0  0  0  0  0  0  0  0  0  0
   57.8310   31.8270   43.1200 C   0  0  0  0  0  0  0  0  0  0  0  0
   58.5534   32.3623   42.4862 H   0  0  0  0  0  0  0  0  0  0  0  0
   59.5600   30.7740   50.6370 C   0  0  0  0  0  0  0  0  0  0  0  0
   60.9410   30.6460   50.1440 C   0  0  0  0  0  0  0  0  0  0  0  0
   61.8670   31.2540   50.7420 O   0  0  0  0  0  0  0  0  0  0  0  0
   61.2480   29.8960   48.9590 N   0  0  0  0  0  0  0  0  0  0  0  0
   61.0410   30.3620   47.5860 C   0  0  0  0  0  0  0  0  0  0  0  0
   60.6725   31.3981   47.6107 H   0  0  0  0  0  0  0  0  0  0  0  0
   62.0000   30.3036   47.0504 H   0  0  0  0  0  0  0  0  0  0  0  0
   60.0370   29.5000   46.8620 C   0  0  0  0  0  0  0  0  0  0  0  0
   59.0280   28.8280   47.5750 C   0  0  0  0  0  0  0  0  0  0  0  0
   58.9999   28.8884   48.6730 H   0  0  0  0  0  0  0  0  0  0  0  0
   58.0600   28.0830   46.8930 C   0  0  0  0  0  0  0  0  0  0  0  0
   57.2666   27.5687   47.4551 H   0  0  0  0  0  0  0  0  0  0  0  0
   58.0990   27.9910   45.5000 C   0  0  0  0  0  0  0  0  0  0  0  0
   57.1530   27.2760   44.8420 F   0  0  0  0  0  0  0  0  0  0  0  0
   59.1120   28.6370   44.7850 C   0  0  0  0  0  0  0  0  0  0  0  0
   59.1465   28.5581   43.6884 H   0  0  0  0  0  0  0  0  0  0  0  0
   60.0810   29.3830   45.4620 C   0  0  0  0  0  0  0  0  0  0  0  0
   60.8821   29.8811   44.8962 H   0  0  0  0  0  0  0  0  0  0  0  0
  1  2  1  0
  2  3  1  0
  3  4  1  0
  4  5  2  0
  5  6  1  0
  6  7  1  0
  6  8  1  0
  6  9  1  0
  9 10  2  0
 10 11  1  0
 10 12  1  0
 12 13  1  0
 12 14  2  0
 14 15  1  0
 14 16  1  0
 16 17  1  0
 16 18  2  0
 18 19  1  0
  4 20  1  0
 20 21  1  0
 20 22  2  0
 22 23  1  0
 23 24  1  0
 24 25  1  0
 24 26  1  0
 24 27  1  0
 27 28  1  0
 27 29  1  0
 27 30  1  0
 30 31  1  0
 30 32  1  0
 32 33  1  0
 32 34  1  0
 32 35  1  0
 35 36  1  0
 36 37  1  0
 37 38  1  0
 37 39  2  0
 39 40  1  0
 39 41  1  0
 41 42  1  0
 22 43  1  0
 43 44  1  0
 44 45  2  0
 44 46  1  0
 46 47  1  0
 47 48  1  0
 47 49  1  0
 47 50  1  0
 50 51  2  0
 51 52  1  0
 51 53  1  0
 53 54  1  0
 53 55  2  0
 55 56  1  0
 55 57  1  0
 57 58  1  0
 57 59  2  0
 59 60  1  0
 43  2  2  0
 59 50  1  0
 18  9  1  0
 41 35  2  0
M  CHG  3   3  -1  17  -1  46  -1
M  END
>  <UniqueID>  (41) 
36

>  <SMILES>  (41) 
O=C([N-]Cc1ccc(F)cc1)c1c[n-]/c(=N\Cc2cccc([O-])c2)cc1OCCNCc1ccco1

>  <Energy>  (41) 
89.13957056720619

>  <Genealogy>  (41) 
O=C([N-]Cc1ccc(F)cc1)c1c[n-]c(=NCc2cccc([O-])c2)cc1OCCNCc1ccco1 (protonated)
O=C([N-]Cc1ccc(F)cc1)c1c[n-]/c(=N\Cc2cccc([O-])c2)cc1OCCNCc1ccco1 (cis-trans isomerization)
O=C([N-]Cc1ccc(F)cc1)c1c[n-]/c(=N\Cc2cccc([O-])c2)cc1OCCNCc1ccco1 (3D coordinates assigned)
O=C([N-]Cc1ccc(F)cc1)c1c[n-]/c(=N\Cc2cccc([O-])c2)cc1OCCNCc1ccco1 (optimized conformer: 89.13957056720619 kcal/mol)

>  <smiles>  (41) 
O=C(NCc1ccc(F)cc1)c1c[nH]c(=NCc2cccc(O)c2)cc1OCCNCc1ccco1

>  <score_type>  (41) 
oracle

>  <origin>  (41) 
adg

>  <m_score__min__energy>  (41) 
-14.25

>  <m_primary>  (41) 
energy

$$$$
41:0
     RDKit          3D

 48 50  0  0  0  0  0  0  0  0999 V2000
   59.0490   26.8900   45.7940 C   0  0  0  0  0  0  0  0  0  0  0  0
   58.5460   28.0840   45.0470 C   0  0  0  0  0  0  0  0  0  0  0  0
   57.5560   28.0300   44.1360 N   0  0  0  0  0  0  0  0  0  0  0  0
   57.3360   29.2930   43.7170 C   0  0  0  0  0  0  0  0  0  0  0  0
   56.2480   29.6750   42.7640 C   0  0  0  0  0  0  0  0  0  0  0  0
   58.2020   30.1660   44.3590 C   0  0  0  0  0  0  0  0  0  0  0  0
   58.1900   31.6650   44.2710 C   0  0  0  0  0  0  0  0  0  0  0  0
   56.9180   32.1810   44.7880 N   0  0  0  0  0  0  0  0  0  0  0  0
   57.0240   33.5940   45.1850 C   0  0  0  0  0  0  0  0  0  0  0  0
   58.0340   33.7960   46.2910 C   0  0  0  0  0  0  0  0  0  0  0  0
   58.0410   32.9400   47.4040 C   0  0  0  0  0  0  0  0  0  0  0  0
   59.0030   33.0940   48.4050 C   0  0  0  0  0  0  0  0  0  0  0  0
   59.9680   34.1090   48.3100 C   0  0  0  0  0  0  0  0  0  0  0  0
   61.0430   34.2310   49.3520 C   0  0  0  0  0  0  0  0  0  0  0  0
   62.2760   33.6220   48.8600 N   0  0  0  0  0  0  0  0  0  0  0  0
   62.4670   33.0960   47.6350 C   0  0  0  0  0  0  0  0  0  0  0  0
   63.7880   32.7060   47.5290 C   0  0  0  0  0  0  0  0  0  0  0  0
   64.3590   33.0400   48.7450 C   0  0  0  0  0  0  0  0  0  0  0  0
   63.4180   33.5990   49.5270 N   0  0  0  0  0  0  0  0  0  0  0  0
   59.9710   34.9520   47.1890 C   0  0  0  0  0  0  0  0  0  0  0  0
   59.0070   34.8020   46.1890 C   0  0  0  0  0  0  0  0  0  0  0  0
   58.9760   29.3920   45.2110 C   0  0  0  0  0  0  0  0  0  0  0  0
   59.9770   29.8950   46.2080 C   0  0  0  0  0  0  0  0  0  0  0  0
   58.9712   27.0746   46.8756 H   0  0  0  0  0  0  0  0  0  0  0  0
   58.4452   26.0099   45.5279 H   0  0  0  0  0  0  0  0  0  0  0  0
   60.1006   26.7073   45.5279 H   0  0  0  0  0  0  0  0  0  0  0  0
   57.0280   27.1780   43.8390 H   0  0  0  0  0  0  0  0  0  0  0  0
   55.3580   29.9875   43.3298 H   0  0  0  0  0  0  0  0  0  0  0  0
   56.5905   30.5066   42.1307 H   0  0  0  0  0  0  0  0  0  0  0  0
   55.9955   28.8118   42.1307 H   0  0  0  0  0  0  0  0  0  0  0  0
   59.0194   32.0728   44.8675 H   0  0  0  0  0  0  0  0  0  0  0  0
   58.3060   31.9689   43.2202 H   0  0  0  0  0  0  0  0  0  0  0  0
   56.6280   31.6130   45.6190 H   0  0  0  0  0  0  0  0  0  0  0  0
   57.3312   34.1867   44.3107 H   0  0  0  0  0  0  0  0  0  0  0  0
   56.0411   33.9171   45.5586 H   0  0  0  0  0  0  0  0  0  0  0  0
   57.2857   32.1447   47.4880 H   0  0  0  0  0  0  0  0  0  0  0  0
   59.0044   32.4167   49.2718 H   0  0  0  0  0  0  0  0  0  0  0  0
   61.2219   35.2942   49.5702 H   0  0  0  0  0  0  0  0  0  0  0  0
   60.7222   33.7150   50.2689 H   0  0  0  0  0  0  0  0  0  0  0  0
   61.7012   32.9942   46.8519 H   0  0  0  0  0  0  0  0  0  0  0  0
   64.2793   32.2329   46.6660 H   0  0  0  0  0  0  0  0  0  0  0  0
   65.4098   32.8753   49.0257 H   0  0  0  0  0  0  0  0  0  0  0  0
   63.5590   33.9690   50.4930 H   0  0  0  0  0  0  0  0  0  0  0  0
   60.7370   35.7360   47.0966 H   0  0  0  0  0  0  0  0  0  0  0  0
   59.0107   35.4748   45.3187 H   0  0  0  0  0  0  0  0  0  0  0  0
   59.6057   29.7084   47.2265 H   0  0  0  0  0  0  0  0  0  0  0  0
   60.9330   29.3702   46.0644 H   0  0  0  0  0  0  0  0  0  0  0  0
   60.1265   30.9753   46.0644 H   0  0  0  0  0  0  0  0  0  0  0  0
  1  2  1  0
  2  3  1  0
  3  4  1  0
  4  5  1  0
  4  6  2  0
  6  7  1  0
  7  8  1  0
  8  9  1  0
  9 10  1  0
 10 11  2  0
 11 12  1  0
 12 13  2  0
 13 14  1  0
 14 15  1  0
 15 16  1  0
 16 17  2  0
 17 18  1  0
 18 19  2  0
 13 20  1  0
 20 21  2  0
  6 22  1  0
 22 23  1  0
 22  2  2  0
 21 10  1  0
 19 15  1  0
  1 24  1  0
  1 25  1  0
  1 26  1  0
  3 27  1  0
  5 28  1  0
  5 29  1  0
  5 30  1  0
  7 31  1  0
  7 32  1  0
  8 33  1  0
  9 34  1  0
  9 35  1  0
 11 36  1  0
 12 37  1  0
 14 38  1  0
 14 39  1  0
 16 40  1  0
 17 41  1  0
 18 42  1  0
 19 43  1  0
 20 44  1  0
 21 45  1  0
 23 46  1  0
 23 47  1  0
 23 48  1  0
M  CHG  1  19   1
M  END
>  <UniqueID>  (42) 
37

>  <SMILES>  (42) 
Cc1[nH]c(C)c(CNCc2ccc(Cn3ccc[nH+]3)cc2)c1C

>  <Energy>  (42) 
98.0386676877229

>  <Genealogy>  (42) 
Cc1[nH]c(C)c(CNCc2ccc(Cn3ccc[nH+]3)cc2)c1C (protonated)
Cc1[nH]c(C)c(CNCc2ccc(Cn3ccc[nH+]3)cc2)c1C (3D coordinates assigned)
Cc1[nH]c(C)c(CNCc2ccc(Cn3ccc[nH+]3)cc2)c1C (optimized conformer: 98.0386676877229 kcal/mol)

>  <smiles>  (42) 
Cc1[nH]c(C)c(CNCc2ccc(Cn3cccn3)cc2)c1C

>  <score_type>  (42) 
oracle

>  <origin>  (42) 
adg

>  <m_score__min__energy>  (42) 
-6.9400000000000004

>  <m_primary>  (42) 
energy

$$$$
42:0
     RDKit          3D

 32 34  0  0  0  0  0  0  0  0999 V2000
   59.0390   27.3580   46.4600 O   0  0  0  0  0  0  0  0  0  0  0  0
   57.8930   27.8760   46.3680 C   0  0  0  0  0  0  0  0  0  0  0  0
   56.7300   27.0730   46.6100 N   0  0  0  0  0  0  0  0  0  0  0  0
   56.4100   25.8470   45.9380 C   0  0  0  0  0  0  0  0  0  0  0  0
   57.4590   25.0280   45.5000 C   0  0  0  0  0  0  0  0  0  0  0  0
   57.1920   23.8300   44.8330 C   0  0  0  0  0  0  0  0  0  0  0  0
   55.8710   23.4480   44.5830 C   0  0  0  0  0  0  0  0  0  0  0  0
   54.8180   24.2720   44.9860 C   0  0  0  0  0  0  0  0  0  0  0  0
   55.0790   25.4770   45.6480 C   0  0  0  0  0  0  0  0  0  0  0  0
   54.0160   26.3110   45.9790 O   0  0  0  0  0  0  0  0  0  0  0  0
   57.7550   29.3030   45.9720 C   0  0  0  0  0  0  0  0  0  0  0  0
   56.6280   29.7290   45.2440 C   0  0  0  0  0  0  0  0  0  0  0  0
   55.6280   28.8320   44.8800 O   0  0  0  0  0  0  0  0  0  0  0  0
   56.5130   31.0230   44.8580 N   0  0  0  0  0  0  0  0  0  0  0  0
   57.4440   31.9590   45.1630 C   0  0  0  0  0  0  0  0  0  0  0  0
   57.2680   33.2670   44.7020 C   0  0  0  0  0  0  0  0  0  0  0  0
   58.2160   34.2460   44.9850 C   0  0  0  0  0  0  0  0  0  0  0  0
   59.3340   33.9330   45.7560 C   0  0  0  0  0  0  0  0  0  0  0  0
   59.5240   32.6350   46.2560 C   0  0  0  0  0  0  0  0  0  0  0  0
   60.6380   32.4040   47.1270 N   0  0  0  0  0  0  0  0  0  0  0  0
   60.4370   32.1990   48.3410 O   0  0  0  0  0  0  0  0  0  0  0  0
   61.9040   32.7460   46.7100 O   0  0  0  0  0  0  0  0  0  0  0  0
   58.5850   31.6130   45.9300 C   0  0  0  0  0  0  0  0  0  0  0  0
   58.7450   30.2540   46.3030 C   0  0  0  0  0  0  0  0  0  0  0  0
   59.8830   29.8400   46.9880 O   0  0  0  0  0  0  0  0  0  0  0  0
   58.5006   25.3306   45.6827 H   0  0  0  0  0  0  0  0  0  0  0  0
   58.0218   23.1870   44.5044 H   0  0  0  0  0  0  0  0  0  0  0  0
   55.6608   22.4985   44.0689 H   0  0  0  0  0  0  0  0  0  0  0  0
   53.7793   23.9727   44.7823 H   0  0  0  0  0  0  0  0  0  0  0  0
   56.3755   33.5238   44.1125 H   0  0  0  0  0  0  0  0  0  0  0  0
   58.0827   35.2677   44.5998 H   0  0  0  0  0  0  0  0  0  0  0  0
   60.0775   34.7134   45.9757 H   0  0  0  0  0  0  0  0  0  0  0  0
  1  2  2  0
  2  3  1  0
  3  4  1  0
  4  5  2  0
  5  6  1  0
  6  7  2  0
  7  8  1  0
  8  9  2  0
  9 10  1  0
  2 11  1  0
 11 12  2  0
 12 13  1  0
 12 14  1  0
 14 15  2  0
 15 16  1  0
 16 17  2  0
 17 18  1  0
 18 19  2  0
 19 20  1  0
 20 21  2  0
 20 22  1  0
 19 23  1  0
 23 24  2  0
 24 25  1  0
  9  4  1  0
 24 11  1  0
 23 15  1  0
  5 26  1  0
  6 27  1  0
  7 28  1  0
  8 29  1  0
 16 30  1  0
 17 31  1  0
 18 32  1  0
M  CHG  6   3  -1  10  -1  13  -1  20   1  22  -1  25  -1
M  END
>  <UniqueID>  (43) 
38

>  <SMILES>  (43) 
O=C([N-]c1ccccc1[O-])c1c([O-])nc2cccc([N+](=O)[O-])c2c1[O-]

>  <Energy>  (43) 
59.64550454292153

>  <Genealogy>  (43) 
O=C([N-]c1ccccc1[O-])c1c([O-])nc2cccc([N+](=O)[O-])c2c1[O-] (protonated)
O=C([N-]c1ccccc1[O-])c1c([O-])nc2cccc([N+](=O)[O-])c2c1[O-] (3D coordinates assigned)
O=C([N-]c1ccccc1[O-])c1c([O-])nc2cccc([N+](=O)[O-])c2c1[O-] (optimized conformer: 59.64550454292153 kcal/mol)

>  <smiles>  (43) 
O=C(Nc1ccccc1O)c1c(O)nc2cccc([N+](=O)[O-])c2c1O

>  <score_type>  (43) 
oracle

>  <origin>  (43) 
adg

>  <m_score__min__energy>  (43) 
-16.780000000000001

>  <m_primary>  (43) 
energy

$$$$
43:0
     RDKit          3D

 55 57  0  0  0  0  0  0  0  0999 V2000
   60.6990   34.3100   46.4780 C   0  0  0  0  0  0  0  0  0  0  0  0
   59.5810   35.0230   46.6400 C   0  0  0  0  0  0  0  0  0  0  0  0
   58.2280   34.3740   46.6870 C   0  0  0  0  0  0  0  0  0  0  0  0
   58.3400   32.9480   46.3910 N   0  0  0  0  0  0  0  0  0  0  0  0
   58.5980   31.9610   47.4020 C   0  0  0  0  0  0  0  0  0  0  0  0
   58.5020   32.2660   48.6210 O   0  0  0  0  0  0  0  0  0  0  0  0
   58.8980   30.5610   47.0370 C   0  0  0  0  0  0  0  0  0  0  0  0
   57.8980   29.8270   46.4790 N   0  0  0  0  0  0  0  0  0  0  0  0
   58.0750   28.5510   46.0420 C   0  0  0  0  0  0  0  0  0  0  0  0
   56.9330   27.8460   45.3550 C   0  0  1  0  0  0  0  0  0  0  0  0
   56.5090   26.5950   46.1490 C   0  0  0  0  0  0  0  0  0  0  0  0
   57.1190   25.3430   45.5710 C   0  0  0  0  0  0  0  0  0  0  0  0
   58.3010   24.8170   46.1150 C   0  0  0  0  0  0  0  0  0  0  0  0
   58.8370   23.6250   45.6160 C   0  0  0  0  0  0  0  0  0  0  0  0
   58.1910   22.9470   44.5790 C   0  0  0  0  0  0  0  0  0  0  0  0
   57.0080   23.4580   44.0390 C   0  0  0  0  0  0  0  0  0  0  0  0
   56.4710   24.6520   44.5320 C   0  0  0  0  0  0  0  0  0  0  0  0
   55.8010   28.7610   45.2180 N   0  0  0  0  0  0  0  0  0  0  0  0
   55.5310   29.5880   44.0790 C   0  0  0  0  0  0  0  0  0  0  0  0
   54.4810   29.3780   43.4150 O   0  0  0  0  0  0  0  0  0  0  0  0
   56.4260   30.7410   43.7090 C   0  0  0  0  0  0  0  0  0  0  0  0
   56.8200   31.4590   44.8480 O   0  0  0  0  0  0  0  0  0  0  0  0
   59.3420   27.9610   46.1430 C   0  0  0  0  0  0  0  0  0  0  0  0
   60.3850   28.6740   46.7290 C   0  0  0  0  0  0  0  0  0  0  0  0
   60.1780   29.9780   47.2010 C   0  0  0  0  0  0  0  0  0  0  0  0
   61.2840   30.6650   47.9090 C   0  0  0  0  0  0  0  0  0  0  0  0
   61.4020   30.5700   49.3060 C   0  0  0  0  0  0  0  0  0  0  0  0
   62.4460   31.2210   49.9710 C   0  0  0  0  0  0  0  0  0  0  0  0
   63.3820   31.9630   49.2470 C   0  0  0  0  0  0  0  0  0  0  0  0
   63.2810   32.0510   47.8560 C   0  0  0  0  0  0  0  0  0  0  0  0
   62.2390   31.4010   47.1870 C   0  0  0  0  0  0  0  0  0  0  0  0
   61.6749   34.8166   46.4479 H   0  0  0  0  0  0  0  0  0  0  0  0
   60.6437   33.2163   46.3747 H   0  0  0  0  0  0  0  0  0  0  0  0
   59.6537   36.1159   46.7418 H   0  0  0  0  0  0  0  0  0  0  0  0
   57.7979   34.5036   47.6911 H   0  0  0  0  0  0  0  0  0  0  0  0
   57.5782   34.8458   45.9353 H   0  0  0  0  0  0  0  0  0  0  0  0
   58.2000   32.6410   45.4030 H   0  0  0  0  0  0  0  0  0  0  0  0
   57.2653   27.5253   44.3566 H   0  0  0  0  0  0  0  0  0  0  0  0
   56.8388   26.7048   47.1926 H   0  0  0  0  0  0  0  0  0  0  0  0
   55.4142   26.5042   46.0928 H   0  0  0  0  0  0  0  0  0  0  0  0
   58.8079   25.3440   46.9368 H   0  0  0  0  0  0  0  0  0  0  0  0
   59.7680   23.2211   46.0405 H   0  0  0  0  0  0  0  0  0  0  0  0
   58.6141   22.0102   44.1874 H   0  0  0  0  0  0  0  0  0  0  0  0
   56.4984   22.9209   43.2254 H   0  0  0  0  0  0  0  0  0  0  0  0
   55.5390   25.0514   44.1055 H   0  0  0  0  0  0  0  0  0  0  0  0
   57.3213   30.3526   43.2014 H   0  0  0  0  0  0  0  0  0  0  0  0
   55.8684   31.4175   43.0446 H   0  0  0  0  0  0  0  0  0  0  0  0
   56.6570   30.8650   45.6270 H   0  0  0  0  0  0  0  0  0  0  0  0
   59.5114   26.9429   45.7625 H   0  0  0  0  0  0  0  0  0  0  0  0
   61.3784   28.2108   46.8222 H   0  0  0  0  0  0  0  0  0  0  0  0
   60.6704   29.9813   49.8788 H   0  0  0  0  0  0  0  0  0  0  0  0
   62.5301   31.1486   51.0654 H   0  0  0  0  0  0  0  0  0  0  0  0
   64.1995   32.4786   49.7723 H   0  0  0  0  0  0  0  0  0  0  0  0
   64.0216   32.6320   47.2868 H   0  0  0  0  0  0  0  0  0  0  0  0
   62.1666   31.4661   46.0913 H   0  0  0  0  0  0  0  0  0  0  0  0
  1  2  2  0
  2  3  1  0
  3  4  1  0
  4  5  1  0
  5  6  2  0
  5  7  1  0
  7  8  2  0
  8  9  1  0
  9 10  1  0
 10 11  1  0
 11 12  1  0
 12 13  2  0
 13 14  1  0
 14 15  2  0
 15 16  1  0
 16 17  2  0
 10 18  1  0
 18 19  1  0
 19 20  2  0
 19 21  1  0
 21 22  1  0
  9 23  2  0
 23 24  1  0
 24 25  2  0
 25 26  1  0
 26 27  2  0
 27 28  1  0
 28 29  2  0
 29 30  1  0
 30 31  2  0
 25  7  1  0
 31 26  1  0
 17 12  1  0
  1 32  1  0
  1 33  1  0
  2 34  1  0
  3 35  1  0
  3 36  1  0
  4 37  1  0
 10 38  1  6
 11 39  1  0
 11 40  1  0
 13 41  1  0
 14 42  1  0
 15 43  1  0
 16 44  1  0
 17 45  1  0
 21 46  1  0
 21 47  1  0
 22 48  1  0
 23 49  1  0
 24 50  1  0
 27 51  1  0
 28 52  1  0
 29 53  1  0
 30 54  1  0
 31 55  1  0
M  CHG  1  18  -1
M  END
>  <UniqueID>  (44) 
39

>  <SMILES>  (44) 
C=CCNC(=O)c1nc([C@@H](Cc2ccccc2)[N-]C(=O)CO)ccc1-c1ccccc1

>  <Energy>  (44) 
57.57663879108298

>  <Genealogy>  (44) 
C=CCNC(=O)c1nc(C(Cc2ccccc2)[N-]C(=O)CO)ccc1-c1ccccc1 (protonated)
C=CCNC(=O)c1nc([C@@H](Cc2ccccc2)[N-]C(=O)CO)ccc1-c1ccccc1 (chirality)
C=CCNC(=O)c1nc([C@@H](Cc2ccccc2)[N-]C(=O)CO)ccc1-c1ccccc1 (3D coordinates assigned)
C=CCNC(=O)c1nc([C@@H](Cc2ccccc2)[N-]C(=O)CO)ccc1-c1ccccc1 (optimized conformer: 57.57663879108298 kcal/mol)

>  <smiles>  (44) 
C=CCNC(=O)c1nc(C(Cc2ccccc2)NC(=O)CO)ccc1-c1ccccc1

>  <score_type>  (44) 
oracle

>  <origin>  (44) 
adg

>  <m_score__min__energy>  (44) 
-10.869999999999999

>  <m_primary>  (44) 
energy

$$$$
44:0
     RDKit          3D

 52 55  0  0  0  0  0  0  0  0999 V2000
   59.0730   28.9820   47.3730 C   0  0  0  0  0  0  0  0  0  0  0  0
   59.9630   28.9940   46.1340 C   0  0  0  0  0  0  0  0  0  0  0  0
   59.2170   28.5950   44.8480 C   0  0  0  0  0  0  0  0  0  0  0  0
   57.8100   29.1450   44.8020 C   0  0  0  0  0  0  0  0  0  0  0  0
   56.6350   28.4860   45.1510 C   0  0  0  0  0  0  0  0  0  0  0  0
   56.4360   27.1560   45.7570 C   0  0  0  0  0  0  0  0  0  0  0  0
   57.4150   26.4470   46.1020 O   0  0  0  0  0  0  0  0  0  0  0  0
   55.1480   26.6830   45.9740 O   0  0  0  0  0  0  0  0  0  0  0  0
   55.6240   29.3810   44.8540 C   0  0  0  0  0  0  0  0  0  0  0  0
   56.1560   30.5180   44.3710 N   0  0  0  0  0  0  0  0  0  0  0  0
   57.4720   30.3750   44.3410 N   0  0  0  0  0  0  0  0  0  0  0  0
   58.3670   31.4510   43.9080 C   0  0  0  0  0  0  0  0  0  0  0  0
   58.5680   32.4630   45.0030 C   0  0  0  0  0  0  0  0  0  0  0  0
   57.8030   33.6380   45.0330 C   0  0  0  0  0  0  0  0  0  0  0  0
   57.9860   34.5700   46.0560 C   0  0  0  0  0  0  0  0  0  0  0  0
   58.9370   34.3420   47.0530 C   0  0  0  0  0  0  0  0  0  0  0  0
   59.7230   33.1770   47.0350 C   0  0  0  0  0  0  0  0  0  0  0  0
   60.7320   32.9330   48.0930 C   0  0  0  0  0  0  0  0  0  0  0  0
   61.7460   33.6800   48.1780 O   0  0  0  0  0  0  0  0  0  0  0  0
   60.5290   31.8860   49.0520 N   0  0  0  0  0  0  0  0  0  0  0  0
   59.5630   31.8700   50.1130 C   0  0  0  0  0  0  0  0  0  0  0  0
   59.3250   33.0570   50.8210 C   0  0  0  0  0  0  0  0  0  0  0  0
   58.3810   33.0920   51.8540 C   0  0  0  0  0  0  0  0  0  0  0  0
   57.6620   31.9390   52.1760 C   0  0  0  0  0  0  0  0  0  0  0  0
   57.8550   30.7620   51.4410 C   0  0  0  0  0  0  0  0  0  0  0  0
   58.8070   30.7210   50.4180 C   0  0  0  0  0  0  0  0  0  0  0  0
   57.0790   29.6380   51.7420 O   0  0  0  0  0  0  0  0  0  0  0  0
   55.9280   29.7400   52.5830 C   0  0  0  0  0  0  0  0  0  0  0  0
   56.1940   30.7210   53.7330 C   0  0  0  0  0  0  0  0  0  0  0  0
   56.7370   31.9420   53.2250 O   0  0  0  0  0  0  0  0  0  0  0  0
   59.5350   32.2440   45.9980 C   0  0  0  0  0  0  0  0  0  0  0  0
   59.7013   28.9905   48.2759 H   0  0  0  0  0  0  0  0  0  0  0  0
   58.4259   29.8715   47.3683 H   0  0  0  0  0  0  0  0  0  0  0  0
   58.4501   28.0754   47.3683 H   0  0  0  0  0  0  0  0  0  0  0  0
   60.3669   30.0088   46.0034 H   0  0  0  0  0  0  0  0  0  0  0  0
   60.7577   28.2507   46.2950 H   0  0  0  0  0  0  0  0  0  0  0  0
   59.7752   28.9806   43.9821 H   0  0  0  0  0  0  0  0  0  0  0  0
   59.1481   27.4973   44.8279 H   0  0  0  0  0  0  0  0  0  0  0  0
   54.5491   29.1922   44.9916 H   0  0  0  0  0  0  0  0  0  0  0  0
   59.3412   31.0196   43.6345 H   0  0  0  0  0  0  0  0  0  0  0  0
   57.9117   31.9573   43.0441 H   0  0  0  0  0  0  0  0  0  0  0  0
   57.0561   33.8259   44.2476 H   0  0  0  0  0  0  0  0  0  0  0  0
   57.3791   35.4872   46.0769 H   0  0  0  0  0  0  0  0  0  0  0  0
   59.0718   35.0794   47.8580 H   0  0  0  0  0  0  0  0  0  0  0  0
   59.8847   33.9680   50.5624 H   0  0  0  0  0  0  0  0  0  0  0  0
   58.2061   34.0247   52.4103 H   0  0  0  0  0  0  0  0  0  0  0  0
   58.9658   29.7917   49.8513 H   0  0  0  0  0  0  0  0  0  0  0  0
   55.0752   30.1000   51.9888 H   0  0  0  0  0  0  0  0  0  0  0  0
   55.7028   28.7487   53.0031 H   0  0  0  0  0  0  0  0  0  0  0  0
   55.2495   30.9330   54.2555 H   0  0  0  0  0  0  0  0  0  0  0  0
   56.9157   30.2698   54.4298 H   0  0  0  0  0  0  0  0  0  0  0  0
   60.1518   31.3338   45.9664 H   0  0  0  0  0  0  0  0  0  0  0  0
  1  2  1  0
  2  3  1  0
  3  4  1  0
  4  5  2  0
  5  6  1  0
  6  7  2  0
  6  8  1  0
  5  9  1  0
  9 10  2  0
 10 11  1  0
 11 12  1  0
 12 13  1  0
 13 14  2  0
 14 15  1  0
 15 16  2  0
 16 17  1  0
 17 18  1  0
 18 19  2  0
 18 20  1  0
 20 21  1  0
 21 22  2  0
 22 23  1  0
 23 24  2  0
 24 25  1  0
 25 26  2  0
 25 27  1  0
 27 28  1  0
 28 29  1  0
 29 30  1  0
 17 31  2  0
 11  4  1  0
 31 13  1  0
 26 21  1  0
 30 24  1  0
  1 32  1  0
  1 33  1  0
  1 34  1  0
  2 35  1  0
  2 36  1  0
  3 37  1  0
  3 38  1  0
  9 39  1  0
 12 40  1  0
 12 41  1  0
 14 42  1  0
 15 43  1  0
 16 44  1  0
 22 45  1  0
 23 46  1  0
 26 47  1  0
 28 48  1  0
 28 49  1  0
 29 50  1  0
 29 51  1  0
 31 52  1  0
M  CHG  2   8  -1  20  -1
M  END
>  <UniqueID>  (45) 
40

>  <SMILES>  (45) 
CCCc1c(C(=O)[O-])cnn1Cc1cccc(C(=O)[N-]c2ccc3c(c2)OCCO3)c1

>  <Energy>  (45) 
85.65766638044326

>  <Genealogy>  (45) 
CCCc1c(C(=O)[O-])cnn1Cc1cccc(C(=O)[N-]c2ccc3c(c2)OCCO3)c1 (protonated)
CCCc1c(C(=O)[O-])cnn1Cc1cccc(C(=O)[N-]c2ccc3c(c2)OCCO3)c1 (3D coordinates assigned)
CCCc1c(C(=O)[O-])cnn1Cc1cccc(C(=O)[N-]c2ccc3c(c2)OCCO3)c1 (nonaromatic ring conformer: 85.65766638044326 kcal/mol)

>  <smiles>  (45) 
CCCc1c(C(=O)O)cnn1Cc1cccc(C(=O)Nc2ccc3c(c2)OCCO3)c1

>  <score_type>  (45) 
oracle

>  <origin>  (45) 
adg

>  <m_score__min__energy>  (45) 
-12.029999999999999

>  <m_primary>  (45) 
energy

$$$$
45:0
     RDKit          3D

 43 45  0  0  0  0  0  0  0  0999 V2000
   56.6330   22.2090   43.0100 C   0  0  0  0  0  0  0  0  0  0  0  0
   56.0940   23.0860   44.0940 C   0  0  0  0  0  0  0  0  0  0  0  0
   54.7220   23.3310   44.1930 C   0  0  0  0  0  0  0  0  0  0  0  0
   54.2660   24.1690   45.2090 C   0  0  0  0  0  0  0  0  0  0  0  0
   55.1520   24.7280   46.0760 N   0  0  0  0  0  0  0  0  0  0  0  0
   56.4840   24.4790   45.9740 C   0  0  0  0  0  0  0  0  0  0  0  0
   57.3640   25.0920   46.8740 O   0  0  0  0  0  0  0  0  0  0  0  0
   57.8430   26.4060   46.7690 C   0  0  0  0  0  0  0  0  0  0  0  0
   58.7400   26.8690   47.7340 C   0  0  0  0  0  0  0  0  0  0  0  0
   59.2520   28.1660   47.6650 C   0  0  0  0  0  0  0  0  0  0  0  0
   58.8780   29.0270   46.6150 C   0  0  0  0  0  0  0  0  0  0  0  0
   59.3800   30.3370   46.5120 O   0  0  0  0  0  0  0  0  0  0  0  0
   59.0280   31.4290   47.3620 C   0  0  0  0  0  0  0  0  0  0  0  0
   59.1090   32.7350   46.6150 C   0  0  0  0  0  0  0  0  0  0  0  0
   59.9720   33.7490   47.0630 C   0  0  0  0  0  0  0  0  0  0  0  0
   60.0440   34.9660   46.3780 C   0  0  0  0  0  0  0  0  0  0  0  0
   59.2510   35.1810   45.2470 C   0  0  0  0  0  0  0  0  0  0  0  0
   58.3830   34.1800   44.8020 C   0  0  0  0  0  0  0  0  0  0  0  0
   58.3060   32.9620   45.4850 C   0  0  0  0  0  0  0  0  0  0  0  0
   57.9810   28.5620   45.6310 C   0  0  0  0  0  0  0  0  0  0  0  0
   57.5900   29.4390   44.4680 C   0  0  0  0  0  0  0  0  0  0  0  0
   56.1760   29.9000   44.6220 C   0  0  0  0  0  0  0  0  0  0  0  0
   55.9010   31.1270   44.5710 O   0  0  0  0  0  0  0  0  0  0  0  0
   55.1670   28.9770   44.8700 O   0  0  0  0  0  0  0  0  0  0  0  0
   57.4850   27.2500   45.7040 C   0  0  0  0  0  0  0  0  0  0  0  0
   56.9450   23.6710   44.9790 N   0  0  0  0  0  0  0  0  0  0  0  0
   57.1590   21.3532   43.4583 H   0  0  0  0  0  0  0  0  0  0  0  0
   55.8031   21.8440   42.3870 H   0  0  0  0  0  0  0  0  0  0  0  0
   57.3335   22.7845   42.3870 H   0  0  0  0  0  0  0  0  0  0  0  0
   54.0168   22.8723   43.4842 H   0  0  0  0  0  0  0  0  0  0  0  0
   53.1907   24.3780   45.3094 H   0  0  0  0  0  0  0  0  0  0  0  0
   59.0460   26.2055   48.5563 H   0  0  0  0  0  0  0  0  0  0  0  0
   59.9527   28.5181   48.4364 H   0  0  0  0  0  0  0  0  0  0  0  0
   58.0004   31.2853   47.7271 H   0  0  0  0  0  0  0  0  0  0  0  0
   59.7328   31.4608   48.2060 H   0  0  0  0  0  0  0  0  0  0  0  0
   60.5933   33.5851   47.9558 H   0  0  0  0  0  0  0  0  0  0  0  0
   60.7253   35.7549   46.7295 H   0  0  0  0  0  0  0  0  0  0  0  0
   59.3101   36.1377   44.7074 H   0  0  0  0  0  0  0  0  0  0  0  0
   57.7589   34.3506   43.9124 H   0  0  0  0  0  0  0  0  0  0  0  0
   57.6152   32.1801   45.1366 H   0  0  0  0  0  0  0  0  0  0  0  0
   58.2557   30.3140   44.4327 H   0  0  0  0  0  0  0  0  0  0  0  0
   57.6799   28.8612   43.5363 H   0  0  0  0  0  0  0  0  0  0  0  0
   56.8092   26.8792   44.9193 H   0  0  0  0  0  0  0  0  0  0  0  0
  1  2  1  0
  2  3  2  0
  3  4  1  0
  4  5  2  0
  5  6  1  0
  6  7  1  0
  7  8  1  0
  8  9  2  0
  9 10  1  0
 10 11  2  0
 11 12  1  0
 12 13  1  0
 13 14  1  0
 14 15  2  0
 15 16  1  0
 16 17  2  0
 17 18  1  0
 18 19  2  0
 11 20  1  0
 20 21  1  0
 21 22  1  0
 22 23  2  0
 22 24  1  0
 20 25  2  0
  6 26  2  0
 26  2  1  0
 25  8  1  0
 19 14  1  0
  1 27  1  0
  1 28  1  0
  1 29  1  0
  3 30  1  0
  4 31  1  0
  9 32  1  0
 10 33  1  0
 13 34  1  0
 13 35  1  0
 15 36  1  0
 16 37  1  0
 17 38  1  0
 18 39  1  0
 19 40  1  0
 21 41  1  0
 21 42  1  0
 25 43  1  0
M  CHG  1  24  -1
M  END
>  <UniqueID>  (46) 
41

>  <SMILES>  (46) 
Cc1ccnc(Oc2ccc(OCc3ccccc3)c(CC(=O)[O-])c2)n1

>  <Energy>  (46) 
48.349692575933744

>  <Genealogy>  (46) 
Cc1ccnc(Oc2ccc(OCc3ccccc3)c(CC(=O)[O-])c2)n1 (protonated)
Cc1ccnc(Oc2ccc(OCc3ccccc3)c(CC(=O)[O-])c2)n1 (3D coordinates assigned)
Cc1ccnc(Oc2ccc(OCc3ccccc3)c(CC(=O)[O-])c2)n1 (optimized conformer: 48.349692575933744 kcal/mol)

>  <smiles>  (46) 
Cc1ccnc(Oc2ccc(OCc3ccccc3)c(CC(=O)O)c2)n1

>  <score_type>  (46) 
oracle

>  <origin>  (46) 
adg

>  <m_score__min__energy>  (46) 
-10.630000000000001

>  <m_primary>  (46) 
energy

$$$$
46:0
     RDKit          3D

 54 56  0  0  0  0  0  0  0  0999 V2000
   57.7710   33.4460   44.2800 C   0  0  0  0  0  0  0  0  0  0  0  0
   57.1570   33.8940   45.6000 C   0  0  0  0  0  0  0  0  0  0  0  0
   58.0810   33.6360   46.7030 N   0  0  0  0  0  0  0  0  0  0  0  0
   57.7890   32.8370   47.7180 N   0  0  0  0  0  0  0  0  0  0  0  0
   58.8420   32.8400   48.5580 C   0  0  0  0  0  0  0  0  0  0  0  0
   58.8970   32.0430   49.8200 C   0  0  0  0  0  0  0  0  0  0  0  0
   59.8330   33.6740   48.0630 C   0  0  0  0  0  0  0  0  0  0  0  0
   61.1950   33.9330   48.6440 C   0  0  0  0  0  0  0  0  0  0  0  0
   62.1930   33.0350   48.0290 N   0  0  0  0  0  0  0  0  0  0  0  0
   63.2890   33.8250   47.4420 C   0  0  0  0  0  0  0  0  0  0  0  0
   62.7220   32.0680   49.0130 C   0  0  0  0  0  0  0  0  0  0  0  0
   61.8710   30.8390   49.0250 C   0  0  0  0  0  0  0  0  0  0  0  0
   61.1120   30.4440   47.9860 N   0  0  0  0  0  0  0  0  0  0  0  0
   60.5230   29.3110   48.4100 C   0  0  0  0  0  0  0  0  0  0  0  0
   59.6300   28.4860   47.5740 C   0  0  0  0  0  0  0  0  0  0  0  0
   59.0630   27.4940   48.1030 O   0  0  0  0  0  0  0  0  0  0  0  0
   59.3970   28.7630   46.1790 N   0  0  0  0  0  0  0  0  0  0  0  0
   58.8060   27.7700   45.2740 C   0  0  0  0  0  0  0  0  0  0  0  0
   58.1200   28.4880   44.1080 C   0  0  0  0  0  0  0  0  0  0  0  0
   57.3690   29.7320   44.6100 C   0  0  0  0  0  0  0  0  0  0  0  0
   58.2230   30.5660   45.5970 C   0  0  0  0  0  0  0  0  0  0  0  0
   59.5290   30.0450   45.7320 O   0  0  0  0  0  0  0  0  0  0  0  0
   60.9690   29.0430   49.6910 C   0  0  0  0  0  0  0  0  0  0  0  0
   61.7910   30.0070   50.0400 O   0  0  0  0  0  0  0  0  0  0  0  0
   59.3060   34.1800   46.8860 C   0  0  0  0  0  0  0  0  0  0  0  0
   60.0010   35.0910   45.9180 C   0  0  0  0  0  0  0  0  0  0  0  0
   58.6448   32.8084   44.4798 H   0  0  0  0  0  0  0  0  0  0  0  0
   57.0264   32.8775   43.7035 H   0  0  0  0  0  0  0  0  0  0  0  0
   58.0852   34.3286   43.7035 H   0  0  0  0  0  0  0  0  0  0  0  0
   56.9407   34.9715   45.5524 H   0  0  0  0  0  0  0  0  0  0  0  0
   56.2282   33.3303   45.7721 H   0  0  0  0  0  0  0  0  0  0  0  0
   58.8502   32.7215   50.6845 H   0  0  0  0  0  0  0  0  0  0  0  0
   58.0447   31.3484   49.8525 H   0  0  0  0  0  0  0  0  0  0  0  0
   59.8367   31.4721   49.8525 H   0  0  0  0  0  0  0  0  0  0  0  0
   61.4792   34.9780   48.4510 H   0  0  0  0  0  0  0  0  0  0  0  0
   61.1638   33.7452   49.7274 H   0  0  0  0  0  0  0  0  0  0  0  0
   63.8971   34.2633   48.2471 H   0  0  0  0  0  0  0  0  0  0  0  0
   63.9194   33.1722   46.8203 H   0  0  0  0  0  0  0  0  0  0  0  0
   62.8690   34.6294   46.8203 H   0  0  0  0  0  0  0  0  0  0  0  0
   63.7522   31.7959   48.7398 H   0  0  0  0  0  0  0  0  0  0  0  0
   62.7118   32.5260   50.0131 H   0  0  0  0  0  0  0  0  0  0  0  0
   61.0050   30.9150   47.0600 H   0  0  0  0  0  0  0  0  0  0  0  0
   59.5967   27.1115   44.8852 H   0  0  0  0  0  0  0  0  0  0  0  0
   58.0654   27.1689   45.8218 H   0  0  0  0  0  0  0  0  0  0  0  0
   58.8799   28.7952   43.3744 H   0  0  0  0  0  0  0  0  0  0  0  0
   57.3989   27.8008   43.6412 H   0  0  0  0  0  0  0  0  0  0  0  0
   57.1077   30.3616   43.7467 H   0  0  0  0  0  0  0  0  0  0  0  0
   56.4680   29.3933   45.1424 H   0  0  0  0  0  0  0  0  0  0  0  0
   58.2887   31.5993   45.2255 H   0  0  0  0  0  0  0  0  0  0  0  0
   57.7374   30.5301   46.5834 H   0  0  0  0  0  0  0  0  0  0  0  0
   60.6862   28.1773   50.3079 H   0  0  0  0  0  0  0  0  0  0  0  0
   60.5768   35.8458   46.4736 H   0  0  0  0  0  0  0  0  0  0  0  0
   60.6820   34.5029   45.2853 H   0  0  0  0  0  0  0  0  0  0  0  0
   59.2538   35.5924   45.2853 H   0  0  0  0  0  0  0  0  0  0  0  0
  1  2  1  0
  2  3  1  0
  3  4  1  0
  4  5  2  0
  5  6  1  0
  5  7  1  0
  7  8  1  0
  8  9  1  0
  9 10  1  0
  9 11  1  0
 11 12  1  0
 12 13  2  0
 13 14  1  0
 14 15  1  0
 15 16  2  0
 15 17  1  0
 17 18  1  0
 18 19  1  0
 19 20  1  0
 20 21  1  0
 21 22  1  0
 14 23  2  0
 23 24  1  0
  7 25  2  0
 25 26  1  0
 25  3  1  0
 24 12  1  0
 22 17  1  0
  1 27  1  0
  1 28  1  0
  1 29  1  0
  2 30  1  0
  2 31  1  0
  6 32  1  0
  6 33  1  0
  6 34  1  0
  8 35  1  0
  8 36  1  0
 10 37  1  0
 10 38  1  0
 10 39  1  0
 11 40  1  0
 11 41  1  0
 13 42  1  0
 18 43  1  0
 18 44  1  0
 19 45  1  0
 19 46  1  0
 20 47  1  0
 20 48  1  0
 21 49  1  0
 21 50  1  0
 23 51  1  0
 26 52  1  0
 26 53  1  0
 26 54  1  0
M  CHG  1  13   1
M  END
>  <UniqueID>  (47) 
42

>  <SMILES>  (47) 
CCn1nc(C)c(CN(C)Cc2[nH+]c(C(=O)N3CCCCO3)co2)c1C

>  <Energy>  (47) 
114.0187195973223

>  <Genealogy>  (47) 
CCn1nc(C)c(CN(C)Cc2[nH+]c(C(=O)N3CCCCO3)co2)c1C (protonated)
CCn1nc(C)c(CN(C)Cc2[nH+]c(C(=O)N3CCCCO3)co2)c1C (3D coordinates assigned)
CCn1nc(C)c(CN(C)Cc2[nH+]c(C(=O)N3CCCCO3)co2)c1C (nonaromatic ring conformer: 114.0187195973223 kcal/mol)

>  <smiles>  (47) 
CCn1nc(C)c(CN(C)Cc2nc(C(=O)N3CCCCO3)co2)c1C

>  <score_type>  (47) 
oracle

>  <origin>  (47) 
adg

>  <m_score__min__energy>  (47) 
-5.9699999999999998

>  <m_primary>  (47) 
energy

$$$$
47:0
     RDKit          3D

 44 46  0  0  0  0  0  0  0  0999 V2000
   58.6818   35.7975   44.1503 H   0  0  0  0  0  0  0  0  0  0  0  0
   58.7320   34.9680   44.8710 C   0  0  0  0  0  0  0  0  0  0  0  0
   59.6400   35.0180   45.9300 C   0  0  0  0  0  0  0  0  0  0  0  0
   60.3123   35.8821   46.0359 H   0  0  0  0  0  0  0  0  0  0  0  0
   59.6970   33.9730   46.8560 C   0  0  0  0  0  0  0  0  0  0  0  0
   60.5650   34.0560   47.8970 F   0  0  0  0  0  0  0  0  0  0  0  0
   58.8510   32.8600   46.7190 C   0  0  0  0  0  0  0  0  0  0  0  0
   58.8660   31.8400   47.7410 C   0  0  0  0  0  0  0  0  0  0  0  0
   58.8790   31.0220   48.5590 N   0  0  0  0  0  0  0  0  0  0  0  0
   57.9560   32.7930   45.6260 C   0  0  0  0  0  0  0  0  0  0  0  0
   57.0630   31.6860   45.4350 N   0  0  0  0  0  0  0  0  0  0  0  0
   57.3810   30.4980   44.7010 C   0  0  0  0  0  0  0  0  0  0  0  0
   57.3810   30.5080   43.4400 O   0  0  0  0  0  0  0  0  0  0  0  0
   57.6740   29.2500   45.4200 C   0  0  0  0  0  0  0  0  0  0  0  0
   57.0510   28.0280   45.2170 C   0  0  0  0  0  0  0  0  0  0  0  0
   56.2493   27.7854   44.5039 H   0  0  0  0  0  0  0  0  0  0  0  0
   57.6760   27.1810   46.1250 C   0  0  0  0  0  0  0  0  0  0  0  0
   57.4560   25.9100   46.3190 N   0  0  0  0  0  0  0  0  0  0  0  0
   56.3580   25.1050   45.8520 C   0  0  0  0  0  0  0  0  0  0  0  0
   55.1690   25.4720   46.0500 O   0  0  0  0  0  0  0  0  0  0  0  0
   56.6380   23.8350   45.1250 C   0  0  0  0  0  0  0  0  0  0  0  0
   56.3950   23.7670   43.7380 C   0  0  0  0  0  0  0  0  0  0  0  0
   56.0024   24.6500   43.2125 H   0  0  0  0  0  0  0  0  0  0  0  0
   56.6450   22.5970   43.0230 C   0  0  0  0  0  0  0  0  0  0  0  0
   56.4501   22.5625   41.9410 H   0  0  0  0  0  0  0  0  0  0  0  0
   57.1410   21.4720   43.6760 C   0  0  0  0  0  0  0  0  0  0  0  0
   57.3360   20.5497   43.1091 H   0  0  0  0  0  0  0  0  0  0  0  0
   57.3910   21.5120   45.0470 C   0  0  0  0  0  0  0  0  0  0  0  0
   57.7844   20.6195   45.5556 H   0  0  0  0  0  0  0  0  0  0  0  0
   57.1440   22.6870   45.7880 C   0  0  0  0  0  0  0  0  0  0  0  0
   57.3940   22.7370   47.1710 O   0  0  0  0  0  0  0  0  0  0  0  0
   56.3900   22.6800   48.1810 C   0  0  0  0  0  0  0  0  0  0  0  0
   56.8655   22.7070   49.1726 H   0  0  0  0  0  0  0  0  0  0  0  0
   55.7139   23.5412   48.0750 H   0  0  0  0  0  0  0  0  0  0  0  0
   55.8157   21.7478   48.0750 H   0  0  0  0  0  0  0  0  0  0  0  0
   58.5980   27.8780   46.8200 N   0  0  0  0  0  0  0  0  0  0  0  0
   59.5090   27.3530   47.8320 C   0  0  0  0  0  0  0  0  0  0  0  0
   59.1148   27.5802   48.8335 H   0  0  0  0  0  0  0  0  0  0  0  0
   59.6010   26.2634   47.7127 H   0  0  0  0  0  0  0  0  0  0  0  0
   60.4979   27.8197   47.7127 H   0  0  0  0  0  0  0  0  0  0  0  0
   58.6040   29.1280   46.3870 N   0  0  0  0  0  0  0  0  0  0  0  0
   59.2350   29.8810   46.7440 H   0  0  0  0  0  0  0  0  0  0  0  0
   57.8870   33.8650   44.7260 C   0  0  0  0  0  0  0  0  0  0  0  0
   57.1620   33.8377   43.8992 H   0  0  0  0  0  0  0  0  0  0  0  0
  1  2  1  0
  2  3  2  0
  3  4  1  0
  3  5  1  0
  5  6  1  0
  5  7  2  0
  7  8  1  0
  8  9  3  0
  7 10  1  0
 10 11  1  0
 11 12  1  0
 12 13  2  0
 12 14  1  0
 14 15  2  0
 15 16  1  0
 15 17  1  0
 17 18  2  0
 18 19  1  0
 19 20  2  0
 19 21  1  0
 21 22  2  0
 22 23  1  0
 22 24  1  0
 24 25  1  0
 24 26  2  0
 26 27  1  0
 26 28  1  0
 28 29  1  0
 28 30  2  0
 30 31  1  0
 31 32  1  0
 32 33  1  0
 32 34  1  0
 32 35  1  0
 17 36  1  0
 36 37  1  0
 37 38  1  0
 37 39  1  0
 37 40  1  0
 36 41  1  0
 41 42  1  0
 10 43  2  0
 43 44  1  0
 43  2  1  0
 41 14  1  0
 30 21  1  0
M  CHG  1  11  -1
M  END
>  <UniqueID>  (48) 
43

>  <SMILES>  (48) 
COc1ccccc1C(=O)/N=c1\cc(C(=O)[N-]c2cccc(F)c2C#N)[nH]n1C

>  <Energy>  (48) 
89.60201050420112

>  <Genealogy>  (48) 
COc1ccccc1C(=O)N=c1cc(C(=O)[N-]c2cccc(F)c2C#N)[nH]n1C (protonated)
COc1ccccc1C(=O)/N=c1\cc(C(=O)[N-]c2cccc(F)c2C#N)[nH]n1C (cis-trans isomerization)
COc1ccccc1C(=O)/N=c1\cc(C(=O)[N-]c2cccc(F)c2C#N)[nH]n1C (3D coordinates assigned)
COc1ccccc1C(=O)/N=c1\cc(C(=O)[N-]c2cccc(F)c2C#N)[nH]n1C (optimized conformer: 89.60201050420112 kcal/mol)

>  <smiles>  (48) 
COc1ccccc1C(=O)N=c1cc(C(=O)Nc2cccc(F)c2C#N)[nH]n1C

>  <score_type>  (48) 
oracle

>  <origin>  (48) 
adg

>  <m_score__min__energy>  (48) 
-9.9199999999999999

>  <m_primary>  (48) 
energy

$$$$
48:0
     RDKit          3D

 31 33  0  0  0  0  0  0  0  0999 V2000
   58.6850   34.7530   47.0054 H   0  0  0  0  0  0  0  0  0  0  0  0
   58.4520   33.8520   46.4190 C   0  0  0  0  0  0  0  0  0  0  0  0
   56.9770   33.5070   45.6870 S   0  0  0  0  0  0  0  0  0  0  0  0
   57.5170   32.0420   45.0540 C   0  0  0  0  0  0  0  0  0  0  0  0
   56.8130   31.1970   44.3590 N   0  0  0  0  0  0  0  0  0  0  0  0
   56.3770   29.9010   44.7950 C   0  0  0  0  0  0  0  0  0  0  0  0
   55.1410   29.6680   44.8540 O   0  0  0  0  0  0  0  0  0  0  0  0
   57.3270   28.8460   45.2240 C   0  0  0  0  0  0  0  0  0  0  0  0
   56.8750   27.5740   45.6290 C   0  0  0  0  0  0  0  0  0  0  0  0
   55.5220   27.2510   45.6180 O   0  0  0  0  0  0  0  0  0  0  0  0
   57.8050   26.6130   46.0290 C   0  0  0  0  0  0  0  0  0  0  0  0
   57.4631   25.6218   46.3616 H   0  0  0  0  0  0  0  0  0  0  0  0
   59.1660   26.9090   46.0070 C   0  0  0  0  0  0  0  0  0  0  0  0
   59.9034   26.1569   46.3242 H   0  0  0  0  0  0  0  0  0  0  0  0
   59.5840   28.1680   45.5790 C   0  0  0  0  0  0  0  0  0  0  0  0
   60.6569   28.4091   45.5520 H   0  0  0  0  0  0  0  0  0  0  0  0
   58.6690   29.1010   45.1940 N   0  0  0  0  0  0  0  0  0  0  0  0
   59.0170   30.0370   44.8860 H   0  0  0  0  0  0  0  0  0  0  0  0
   58.7960   31.7930   45.4010 N   0  0  0  0  0  0  0  0  0  0  0  0
   59.3320   32.7960   46.1540 C   0  0  0  0  0  0  0  0  0  0  0  0
   60.7330   32.7280   46.6470 C   0  0  0  0  0  0  0  0  0  0  0  0
   61.6110   33.8040   46.4140 C   0  0  0  0  0  0  0  0  0  0  0  0
   61.2543   34.6890   45.8667 H   0  0  0  0  0  0  0  0  0  0  0  0
   62.9310   33.7590   46.8710 C   0  0  0  0  0  0  0  0  0  0  0  0
   63.6078   34.6047   46.6794 H   0  0  0  0  0  0  0  0  0  0  0  0
   63.3920   32.6410   47.5710 C   0  0  0  0  0  0  0  0  0  0  0  0
   64.4316   32.6056   47.9287 H   0  0  0  0  0  0  0  0  0  0  0  0
   62.5320   31.5690   47.8160 C   0  0  0  0  0  0  0  0  0  0  0  0
   62.8948   30.6903   48.3694 H   0  0  0  0  0  0  0  0  0  0  0  0
   61.2110   31.6090   47.3600 C   0  0  0  0  0  0  0  0  0  0  0  0
   60.5392   30.7610   47.5589 H   0  0  0  0  0  0  0  0  0  0  0  0
  1  2  1  0
  2  3  1  0
  3  4  1  0
  4  5  2  0
  5  6  1  0
  6  7  2  0
  6  8  1  0
  8  9  2  0
  9 10  1  0
  9 11  1  0
 11 12  1  0
 11 13  2  0
 13 14  1  0
 13 15  1  0
 15 16  1  0
 15 17  2  0
 17 18  1  0
  4 19  1  0
 19 20  1  0
 20 21  1  0
 21 22  2  0
 22 23  1  0
 22 24  1  0
 24 25  1  0
 24 26  2  0
 26 27  1  0
 26 28  1  0
 28 29  1  0
 28 30  2  0
 30 31  1  0
 20  2  2  0
 30 21  1  0
 17  8  1  0
M  CHG  3  10  -1  17   1  19  -1
M  END
>  <UniqueID>  (49) 
44

>  <SMILES>  (49) 
O=C(/N=c1/[n-]c(-c2ccccc2)cs1)c1[nH+]cccc1[O-]

>  <Energy>  (49) 
76.46736740665752

>  <Genealogy>  (49) 
O=C(N=c1[n-]c(-c2ccccc2)cs1)c1[nH+]cccc1[O-] (protonated)
O=C(/N=c1/[n-]c(-c2ccccc2)cs1)c1[nH+]cccc1[O-] (cis-trans isomerization)
O=C(/N=c1/[n-]c(-c2ccccc2)cs1)c1[nH+]cccc1[O-] (3D coordinates assigned)
O=C(/N=c1/[n-]c(-c2ccccc2)cs1)c1[nH+]cccc1[O-] (optimized conformer: 76.46736740665752 kcal/mol)

>  <smiles>  (49) 
O=C(N=c1[nH]c(-c2ccccc2)cs1)c1ncccc1O

>  <score_type>  (49) 
oracle

>  <origin>  (49) 
adg

>  <m_score__min__energy>  (49) 
-11

>  <m_primary>  (49) 
energy

$$$$
49:0
     RDKit          3D

 43 45  0  0  0  0  0  0  0  0999 V2000
   61.3820   29.4450   49.0340 O   0  0  0  0  0  0  0  0  0  0  0  0
   61.0550   30.1440   48.0370 C   0  0  0  0  0  0  0  0  0  0  0  0
   61.8810   31.2460   47.6310 N   0  0  0  0  0  0  0  0  0  0  0  0
   63.1500   31.5710   48.2790 C   0  0  0  0  0  0  0  0  0  0  0  0
   63.4700   33.0560   48.1140 C   0  0  0  0  0  0  0  0  0  0  0  0
   62.1730   33.8890   47.1250 S   0  0  0  0  0  0  0  0  0  0  0  0
   61.2180   34.5720   48.5240 C   0  0  0  0  0  0  0  0  0  0  0  0
   60.3310   33.5130   49.1240 C   0  0  0  0  0  0  0  0  0  0  0  0
   60.6970   32.8590   50.3090 C   0  0  0  0  0  0  0  0  0  0  0  0
   59.8480   31.9080   50.8820 C   0  0  0  0  0  0  0  0  0  0  0  0
   58.6170   31.5940   50.2790 C   0  0  0  0  0  0  0  0  0  0  0  0
   57.7230   30.6490   50.8970 N   0  0  0  0  0  0  0  0  0  0  0  0
   56.5760   30.9940   51.2490 O   0  0  0  0  0  0  0  0  0  0  0  0
   58.1290   29.3570   51.1370 O   0  0  0  0  0  0  0  0  0  0  0  0
   58.2700   32.2280   49.0730 C   0  0  0  0  0  0  0  0  0  0  0  0
   59.1200   33.1770   48.5000 C   0  0  0  0  0  0  0  0  0  0  0  0
   59.8200   29.8320   47.2910 C   0  0  0  0  0  0  0  0  0  0  0  0
   59.0750   28.6780   47.5740 C   0  0  0  0  0  0  0  0  0  0  0  0
   57.9140   28.4160   46.8460 C   0  0  0  0  0  0  0  0  0  0  0  0
   57.2520   27.3750   47.1020 O   0  0  0  0  0  0  0  0  0  0  0  0
   57.5070   29.3180   45.8420 C   0  0  0  0  0  0  0  0  0  0  0  0
   56.3470   29.1290   45.0550 C   0  0  0  0  0  0  0  0  0  0  0  0
   55.5200   28.0240   45.2340 O   0  0  0  0  0  0  0  0  0  0  0  0
   56.0130   30.0640   44.0690 C   0  0  0  0  0  0  0  0  0  0  0  0
   56.8170   31.1850   43.8550 C   0  0  0  0  0  0  0  0  0  0  0  0
   57.9640   31.3820   44.6260 C   0  0  0  0  0  0  0  0  0  0  0  0
   58.3150   30.4580   45.6140 C   0  0  0  0  0  0  0  0  0  0  0  0
   59.4140   30.6610   46.3340 O   0  0  0  0  0  0  0  0  0  0  0  0
   61.6310   31.7810   46.7680 H   0  0  0  0  0  0  0  0  0  0  0  0
   63.0808   31.3324   49.3506 H   0  0  0  0  0  0  0  0  0  0  0  0
   63.9506   30.9802   47.8100 H   0  0  0  0  0  0  0  0  0  0  0  0
   63.5255   33.5263   49.1068 H   0  0  0  0  0  0  0  0  0  0  0  0
   64.4329   33.1553   47.5915 H   0  0  0  0  0  0  0  0  0  0  0  0
   61.9141   34.9392   49.2925 H   0  0  0  0  0  0  0  0  0  0  0  0
   60.5893   35.3965   48.1568 H   0  0  0  0  0  0  0  0  0  0  0  0
   61.6574   33.0956   50.7903 H   0  0  0  0  0  0  0  0  0  0  0  0
   60.1451   31.4012   51.8120 H   0  0  0  0  0  0  0  0  0  0  0  0
   57.3216   31.9747   48.5767 H   0  0  0  0  0  0  0  0  0  0  0  0
   58.8384   33.6635   47.5545 H   0  0  0  0  0  0  0  0  0  0  0  0
   59.4032   27.9854   48.3631 H   0  0  0  0  0  0  0  0  0  0  0  0
   55.1105   29.9147   43.4581 H   0  0  0  0  0  0  0  0  0  0  0  0
   56.5462   31.9144   43.0774 H   0  0  0  0  0  0  0  0  0  0  0  0
   58.5937   32.2676   44.4553 H   0  0  0  0  0  0  0  0  0  0  0  0
  1  2  2  0
  2  3  1  0
  3  4  1  0
  4  5  1  0
  5  6  1  0
  6  7  1  0
  7  8  1  0
  8  9  2  0
  9 10  1  0
 10 11  2  0
 11 12  1  0
 12 13  2  0
 12 14  1  0
 11 15  1  0
 15 16  2  0
  2 17  1  0
 17 18  2  0
 18 19  1  0
 19 20  2  0
 19 21  1  0
 21 22  2  0
 22 23  1  0
 22 24  1  0
 24 25  2  0
 25 26  1  0
 26 27  2  0
 27 28  1  0
 16  8  1  0
 28 17  1  0
 27 21  1  0
  3 29  1  0
  4 30  1  0
  4 31  1  0
  5 32  1  0
  5 33  1  0
  7 34  1  0
  7 35  1  0
  9 36  1  0
 10 37  1  0
 15 38  1  0
 16 39  1  0
 18 40  1  0
 24 41  1  0
 25 42  1  0
 26 43  1  0
M  CHG  3  12   1  14  -1  23  -1
M  END
>  <UniqueID>  (50) 
45

>  <SMILES>  (50) 
O=C(NCCSCc1ccc([N+](=O)[O-])cc1)c1cc(=O)c2c([O-])cccc2o1

>  <Energy>  (50) 
40.86399664183982

>  <Genealogy>  (50) 
O=C(NCCSCc1ccc([N+](=O)[O-])cc1)c1cc(=O)c2c([O-])cccc2o1 (protonated)
O=C(NCCSCc1ccc([N+](=O)[O-])cc1)c1cc(=O)c2c([O-])cccc2o1 (3D coordinates assigned)
O=C(NCCSCc1ccc([N+](=O)[O-])cc1)c1cc(=O)c2c([O-])cccc2o1 (optimized conformer: 40.86399664183982 kcal/mol)

>  <smiles>  (50) 
O=C(NCCSCc1ccc([N+](=O)[O-])cc1)c1cc(=O)c2c(O)cccc2o1

>  <score_type>  (50) 
oracle

>  <origin>  (50) 
adg

>  <m_score__min__energy>  (50) 
-11.390000000000001

>  <m_primary>  (50) 
energy

$$$$
50:0
     RDKit          3D

 45 49  0  0  0  0  0  0  0  0999 V2000
   59.2640   26.9820   47.7800 H   0  0  0  0  0  0  0  0  0  0  0  0
   60.2280   26.8870   47.9940 O   0  0  0  0  0  0  0  0  0  0  0  0
   60.3750   27.2970   49.3260 C   0  0  0  0  0  0  0  0  0  0  0  0
   61.0519   26.6047   49.8481 H   0  0  0  0  0  0  0  0  0  0  0  0
   59.3902   27.2949   49.8162 H   0  0  0  0  0  0  0  0  0  0  0  0
   60.9610   28.7160   49.3750 C   0  0  1  0  0  0  0  0  0  0  0  0
   61.6347   28.7915   48.5087 H   0  0  0  0  0  0  0  0  0  0  0  0
   59.8930   29.7070   49.3480 N   0  0  0  0  0  0  0  0  0  0  0  0
   59.1450   30.0520   48.1700 C   0  0  0  0  0  0  0  0  0  0  0  0
   58.8040   31.3550   47.9340 N   0  0  0  0  0  0  0  0  0  0  0  0
   58.0910   31.7060   46.8280 C   0  0  0  0  0  0  0  0  0  0  0  0
   57.7400   32.9400   46.5830 N   0  0  0  0  0  0  0  0  0  0  0  0
   58.4830   34.1010   46.0550 C   0  0  0  0  0  0  0  0  0  0  0  0
   57.7296   34.3145   45.2824 H   0  0  0  0  0  0  0  0  0  0  0  0
   60.0010   34.0240   46.0800 C   0  0  0  0  0  0  0  0  0  0  0  0
   60.5002   33.1156   46.4483 H   0  0  0  0  0  0  0  0  0  0  0  0
   60.8003   34.1610   45.3368 H   0  0  0  0  0  0  0  0  0  0  0  0
   59.2610   34.9400   47.0560 C   0  0  0  0  0  0  0  0  0  0  0  0
   59.2274   34.6911   48.1269 H   0  0  0  0  0  0  0  0  0  0  0  0
   59.3064   36.0100   47.3070 H   0  0  0  0  0  0  0  0  0  0  0  0
   57.7370   30.7190   45.9700 N   0  0  0  0  0  0  0  0  0  0  0  0
   57.0030   30.8240   44.8740 N   0  0  0  0  0  0  0  0  0  0  0  0
   56.8710   29.5730   44.3730 C   0  0  0  0  0  0  0  0  0  0  0  0
   56.3105   29.3167   43.4619 H   0  0  0  0  0  0  0  0  0  0  0  0
   57.5470   28.6560   45.1770 C   0  0  0  0  0  0  0  0  0  0  0  0
   57.5840   27.3270   44.9830 C   0  0  0  0  0  0  0  0  0  0  0  0
   57.9272   26.9708   44.0005 H   0  0  0  0  0  0  0  0  0  0  0  0
   57.2030   26.3050   45.9770 C   0  0  0  0  0  0  0  0  0  0  0  0
   58.0360   25.4090   46.5330 N   0  0  0  0  0  0  0  0  0  0  0  0
   57.2180   24.6390   47.2820 C   0  0  0  0  0  0  0  0  0  0  0  0
   57.6380   23.6770   47.9750 O   0  0  0  0  0  0  0  0  0  0  0  0
   55.9120   24.9760   47.2220 N   0  0  0  0  0  0  0  0  0  0  0  0
   55.9210   26.0250   46.3830 C   0  0  0  0  0  0  0  0  0  0  0  0
   54.7760   26.7110   45.9940 O   0  0  0  0  0  0  0  0  0  0  0  0
   58.0770   29.4450   46.1840 C   0  0  0  0  0  0  0  0  0  0  0  0
   58.7720   29.0810   47.2860 N   0  0  0  0  0  0  0  0  0  0  0  0
   59.7610   30.4330   50.6000 C   0  0  0  0  0  0  0  0  0  0  0  0
   60.0159   31.4936   50.4578 H   0  0  0  0  0  0  0  0  0  0  0  0
   58.7308   30.3990   50.9840 H   0  0  0  0  0  0  0  0  0  0  0  0
   60.7430   29.7740   51.5600 C   0  0  0  0  0  0  0  0  0  0  0  0
   61.2856   30.5373   52.1370 H   0  0  0  0  0  0  0  0  0  0  0  0
   60.2283   29.1259   52.2846 H   0  0  0  0  0  0  0  0  0  0  0  0
   61.7100   28.9820   50.6850 C   0  0  0  0  0  0  0  0  0  0  0  0
   62.6214   29.5674   50.4936 H   0  0  0  0  0  0  0  0  0  0  0  0
   62.0235   28.0461   51.1706 H   0  0  0  0  0  0  0  0  0  0  0  0
  1  2  1  0
  2  3  1  0
  3  4  1  0
  3  5  1  0
  3  6  1  0
  6  7  1  6
  6  8  1  0
  8  9  1  0
  9 10  2  0
 10 11  1  0
 11 12  2  0
 12 13  1  0
 13 14  1  0
 13 15  1  0
 15 16  1  0
 15 17  1  0
 15 18  1  0
 18 19  1  0
 18 20  1  0
 11 21  1  0
 21 22  1  0
 22 23  2  0
 23 24  1  0
 23 25  1  0
 25 26  2  0
 26 27  1  0
 26 28  1  0
 28 29  1  0
 29 30  1  0
 30 31  2  0
 30 32  1  0
 32 33  1  0
 33 34  1  0
 25 35  1  0
 35 36  2  0
  8 37  1  0
 37 38  1  0
 37 39  1  0
 37 40  1  0
 40 41  1  0
 40 42  1  0
 40 43  1  0
 43 44  1  0
 43 45  1  0
 43  6  1  0
 36  9  1  0
 18 13  1  0
 35 21  1  0
 33 28  2  0
M  CHG  3  29  -1  32  -1  34  -1
M  END
>  <UniqueID>  (51) 
46

>  <SMILES>  (51) 
O=c1[n-]c([O-])c(/C=c2/cnn3/c(=N/C4CC4)nc(N4CCC[C@H]4CO)nc23)[n-]1

>  <Energy>  (51) 
391.5178017684452

>  <Genealogy>  (51) 
O=c1[n-]c([O-])c(C=c2cnn3c(=NC4CC4)nc(N4CCCC4CO)nc23)[n-]1 (protonated)
O=c1[n-]c([O-])c(C=c2cnn3c(=NC4CC4)nc(N4CCC[C@H]4CO)nc23)[n-]1 (chirality)
O=c1[n-]c([O-])c(/C=c2/cnn3/c(=N/C4CC4)nc(N4CCC[C@H]4CO)nc23)[n-]1 (cis-trans isomerization)
O=c1[n-]c([O-])c(/C=c2/cnn3/c(=N/C4CC4)nc(N4CCC[C@H]4CO)nc23)[n-]1 (3D coordinates assigned)
O=c1[n-]c([O-])c(/C=c2/cnn3/c(=N/C4CC4)nc(N4CCC[C@H]4CO)nc23)[n-]1 (nonaromatic ring conformer: 391.5178017684452 kcal/mol)

>  <smiles>  (51) 
O=c1[nH]c(O)c(C=c2cnn3c(=NC4CC4)nc(N4CCCC4CO)nc23)[nH]1

>  <score_type>  (51) 
oracle

>  <origin>  (51) 
adg

>  <m_score__min__energy>  (51) 
-15.539999999999999

>  <m_primary>  (51) 
energy

$$$$
51:0
     RDKit          3D

 39 41  0  0  0  0  0  0  0  0999 V2000
   60.0290   30.9700   46.1210 H   0  0  0  0  0  0  0  0  0  0  0  0
   59.6760   30.5030   45.2970 O   0  0  0  0  0  0  0  0  0  0  0  0
   58.5440   29.6910   45.3400 C   0  0  0  0  0  0  0  0  0  0  0  0
   58.5120   28.4120   45.8590 C   0  0  0  0  0  0  0  0  0  0  0  0
   57.2050   27.9870   45.7780 C   0  0  0  0  0  0  0  0  0  0  0  0
   56.5010   29.0030   45.1660 C   0  0  0  0  0  0  0  0  0  0  0  0
   55.1410   28.9720   44.8720 O   0  0  0  0  0  0  0  0  0  0  0  0
   57.3160   30.0450   44.8920 N   0  0  0  0  0  0  0  0  0  0  0  0
   56.9170   31.3250   44.3030 C   0  0  0  0  0  0  0  0  0  0  0  0
   55.8840   31.2482   43.9329 H   0  0  0  0  0  0  0  0  0  0  0  0
   57.5971   31.5650   43.4724 H   0  0  0  0  0  0  0  0  0  0  0  0
   56.9970   32.4370   45.3500 C   0  0  0  0  0  0  0  0  0  0  0  0
   57.0743   31.9874   46.3509 H   0  0  0  0  0  0  0  0  0  0  0  0
   56.0904   33.0563   45.2825 H   0  0  0  0  0  0  0  0  0  0  0  0
   58.1930   33.3000   45.1040 C   0  0  0  0  0  0  0  0  0  0  0  0
   58.4850   33.6340   43.9230 O   0  0  0  0  0  0  0  0  0  0  0  0
   58.9580   33.7760   46.2230 N   0  0  0  0  0  0  0  0  0  0  0  0
   60.0280   33.2200   46.7080 C   0  0  0  0  0  0  0  0  0  0  0  0
   60.0580   32.0460   47.3690 N   0  0  0  0  0  0  0  0  0  0  0  0
   61.3040   31.8370   47.6830 O   0  0  0  0  0  0  0  0  0  0  0  0
   62.0720   32.8130   47.2530 C   0  0  0  0  0  0  0  0  0  0  0  0
   63.5440   32.8900   47.4720 C   0  0  0  0  0  0  0  0  0  0  0  0
   63.7540   32.9010   48.5517 H   0  0  0  0  0  0  0  0  0  0  0  0
   64.0292   32.0160   47.0130 H   0  0  0  0  0  0  0  0  0  0  0  0
   63.9354   33.8098   47.0130 H   0  0  0  0  0  0  0  0  0  0  0  0
   61.2930   33.7530   46.6100 C   0  0  0  0  0  0  0  0  0  0  0  0
   61.6057   34.6952   46.1363 H   0  0  0  0  0  0  0  0  0  0  0  0
   56.7380   26.6260   46.1950 C   0  0  0  0  0  0  0  0  0  0  0  0
   56.6286   25.9909   45.3036 H   0  0  0  0  0  0  0  0  0  0  0  0
   55.7708   26.7216   46.7102 H   0  0  0  0  0  0  0  0  0  0  0  0
   57.7580   25.9820   47.1570 C   0  0  0  0  0  0  0  0  0  0  0  0
   57.5347   24.9086   47.2466 H   0  0  0  0  0  0  0  0  0  0  0  0
   57.6746   26.4852   48.1316 H   0  0  0  0  0  0  0  0  0  0  0  0
   59.2080   26.1510   46.6510 C   0  0  0  0  0  0  0  0  0  0  0  0
   59.2974   25.6790   45.6615 H   0  0  0  0  0  0  0  0  0  0  0  0
   59.8822   25.6745   47.3778 H   0  0  0  0  0  0  0  0  0  0  0  0
   59.6020   27.6370   46.5330 C   0  0  0  0  0  0  0  0  0  0  0  0
   60.5260   27.7216   45.9422 H   0  0  0  0  0  0  0  0  0  0  0  0
   59.7608   28.0462   47.5416 H   0  0  0  0  0  0  0  0  0  0  0  0
  1  2  1  0
  2  3  1  0
  3  4  2  0
  4  5  1  0
  5  6  2  0
  6  7  1  0
  6  8  1  0
  8  9  1  0
  9 10  1  0
  9 11  1  0
  9 12  1  0
 12 13  1  0
 12 14  1  0
 12 15  1  0
 15 16  2  0
 15 17  1  0
 17 18  2  0
 18 19  1  0
 19 20  1  0
 20 21  1  0
 21 22  1  0
 22 23  1  0
 22 24  1  0
 22 25  1  0
 21 26  2  0
 26 27  1  0
  5 28  1  0
 28 29  1  0
 28 30  1  0
 28 31  1  0
 31 32  1  0
 31 33  1  0
 31 34  1  0
 34 35  1  0
 34 36  1  0
 34 37  1  0
 37 38  1  0
 37 39  1  0
  8  3  1  0
 26 18  1  0
 37  4  1  0
M  CHG  2   7  -1  19  -1
M  END
>  <UniqueID>  (52) 
47

>  <SMILES>  (52) 
Cc1c/c(=N/C(=O)CCn2c([O-])c3c(c2O)CCCC3)[n-]o1

>  <Energy>  (52) 
95.54103623515857

>  <Genealogy>  (52) 
Cc1cc(=NC(=O)CCn2c([O-])c3c(c2O)CCCC3)[n-]o1 (protonated)
Cc1c/c(=N/C(=O)CCn2c([O-])c3c(c2O)CCCC3)[n-]o1 (cis-trans isomerization)
Cc1c/c(=N/C(=O)CCn2c([O-])c3c(c2O)CCCC3)[n-]o1 (3D coordinates assigned)
Cc1c/c(=N/C(=O)CCn2c([O-])c3c(c2O)CCCC3)[n-]o1 (nonaromatic ring conformer: 95.54103623515857 kcal/mol)

>  <smiles>  (52) 
Cc1cc(=NC(=O)CCn2c(O)c3c(c2O)CCCC3)[nH]o1

>  <score_type>  (52) 
oracle

>  <origin>  (52) 
adg

>  <m_score__min__energy>  (52) 
-12.4

>  <m_primary>  (52) 
energy

$$$$
52:0
     RDKit          3D

 54 56  0  0  0  0  0  0  0  0999 V2000
   58.3686   33.5554   49.9955 H   0  0  0  0  0  0  0  0  0  0  0  0
   58.5880   32.7440   50.7050 C   0  0  0  0  0  0  0  0  0  0  0  0
   58.2850   32.9440   51.9940 C   0  0  0  0  0  0  0  0  0  0  0  0
   57.8184   32.1169   52.5492 H   0  0  0  0  0  0  0  0  0  0  0  0
   58.5430   34.2270   52.7270 C   0  0  0  0  0  0  0  0  0  0  0  0
   58.5062   34.0438   53.8110 H   0  0  0  0  0  0  0  0  0  0  0  0
   59.5365   34.6120   52.4538 H   0  0  0  0  0  0  0  0  0  0  0  0
   57.7755   34.9661   52.4538 H   0  0  0  0  0  0  0  0  0  0  0  0
   59.1970   31.5080   50.1700 C   0  0  0  0  0  0  0  0  0  0  0  0
   58.7110   30.2420   50.5250 C   0  0  0  0  0  0  0  0  0  0  0  0
   57.8724   30.1567   51.2317 H   0  0  0  0  0  0  0  0  0  0  0  0
   59.2850   29.0890   49.9870 C   0  0  0  0  0  0  0  0  0  0  0  0
   58.9051   28.1000   50.2830 H   0  0  0  0  0  0  0  0  0  0  0  0
   60.3470   29.1840   49.0680 C   0  0  0  0  0  0  0  0  0  0  0  0
   60.9530   28.0490   48.5090 O   0  0  0  0  0  0  0  0  0  0  0  0
   60.4730   27.3600   47.3580 C   0  0  0  0  0  0  0  0  0  0  0  0
   61.3247   27.0234   46.7486 H   0  0  0  0  0  0  0  0  0  0  0  0
   59.8820   26.4861   47.6694 H   0  0  0  0  0  0  0  0  0  0  0  0
   59.6140   28.2890   46.5510 C   0  0  0  0  0  0  0  0  0  0  0  0
   60.2010   29.1940   45.6520 C   0  0  0  0  0  0  0  0  0  0  0  0
   61.2925   29.2007   45.5157 H   0  0  0  0  0  0  0  0  0  0  0  0
   59.4040   30.0860   44.9300 C   0  0  0  0  0  0  0  0  0  0  0  0
   59.8695   30.7834   44.2180 H   0  0  0  0  0  0  0  0  0  0  0  0
   58.0150   30.0960   45.1090 C   0  0  0  0  0  0  0  0  0  0  0  0
   57.0240   31.2180   44.1800 S   0  0  0  0  0  0  0  0  0  0  0  0
   55.5780   30.8410   44.3530 O   0  0  0  0  0  0  0  0  0  0  0  0
   57.3730   31.1260   42.7190 O   0  0  0  0  0  0  0  0  0  0  0  0
   57.2860   32.8500   44.7520 N   0  0  0  0  0  0  0  0  0  0  0  0
   56.4410   33.4040   44.4750 H   0  0  0  0  0  0  0  0  0  0  0  0
   57.3980   32.8860   46.2320 C   0  0  0  0  0  0  0  0  0  0  0  0
   56.8097   33.7340   46.6126 H   0  0  0  0  0  0  0  0  0  0  0  0
   57.0187   31.9315   46.6257 H   0  0  0  0  0  0  0  0  0  0  0  0
   58.8580   33.0460   46.6940 C   0  0  0  0  0  0  0  0  0  0  0  0
   58.8755   33.0764   47.7934 H   0  0  0  0  0  0  0  0  0  0  0  0
   59.4227   32.1904   46.2953 H   0  0  0  0  0  0  0  0  0  0  0  0
   59.4750   34.2260   46.2000 O   0  0  0  0  0  0  0  0  0  0  0  0
   59.0430   34.5970   44.8950 C   0  0  0  0  0  0  0  0  0  0  0  0
   58.2680   35.3713   44.9949 H   0  0  0  0  0  0  0  0  0  0  0  0
   59.9331   34.9534   44.3558 H   0  0  0  0  0  0  0  0  0  0  0  0
   58.4620   33.4360   44.0720 C   0  0  0  0  0  0  0  0  0  0  0  0
   58.1579   33.8108   43.0835 H   0  0  0  0  0  0  0  0  0  0  0  0
   59.2325   32.6582   43.9648 H   0  0  0  0  0  0  0  0  0  0  0  0
   57.4280   29.2040   46.0170 C   0  0  0  0  0  0  0  0  0  0  0  0
   56.3375   29.2072   46.1613 H   0  0  0  0  0  0  0  0  0  0  0  0
   58.2240   28.3100   46.7400 C   0  0  0  0  0  0  0  0  0  0  0  0
   57.7585   27.6206   47.4597 H   0  0  0  0  0  0  0  0  0  0  0  0
   60.8200   30.4490   48.6850 C   0  0  0  0  0  0  0  0  0  0  0  0
   61.8730   30.5130   47.7580 O   0  0  0  0  0  0  0  0  0  0  0  0
   62.6440   31.6790   47.4910 C   0  0  0  0  0  0  0  0  0  0  0  0
   62.9500   32.1417   48.4409 H   0  0  0  0  0  0  0  0  0  0  0  0
   63.5382   31.4029   46.9129 H   0  0  0  0  0  0  0  0  0  0  0  0
   62.0398   32.3937   46.9129 H   0  0  0  0  0  0  0  0  0  0  0  0
   60.2330   31.6070   49.2320 C   0  0  0  0  0  0  0  0  0  0  0  0
   60.5917   32.5988   48.9195 H   0  0  0  0  0  0  0  0  0  0  0  0
  1  2  1  0
  2  3  2  0
  3  4  1  0
  3  5  1  0
  5  6  1  0
  5  7  1  0
  5  8  1  0
  2  9  1  0
  9 10  2  0
 10 11  1  0
 10 12  1  0
 12 13  1  0
 12 14  2  0
 14 15  1  0
 15 16  1  0
 16 17  1  0
 16 18  1  0
 16 19  1  0
 19 20  2  0
 20 21  1  0
 20 22  1  0
 22 23  1  0
 22 24  2  0
 24 25  1  0
 25 26  2  0
 25 27  2  0
 25 28  1  0
 28 29  1  0
 28 30  1  0
 30 31  1  0
 30 32  1  0
 30 33  1  0
 33 34  1  0
 33 35  1  0
 33 36  1  0
 36 37  1  0
 37 38  1  0
 37 39  1  0
 37 40  1  0
 40 41  1  0
 40 42  1  0
 24 43  1  0
 43 44  1  0
 43 45  2  0
 45 46  1  0
 14 47  1  0
 47 48  1  0
 48 49  1  0
 49 50  1  0
 49 51  1  0
 49 52  1  0
 47 53  2  0
 53 54  1  0
 53  9  1  0
 45 19  1  0
 40 28  1  0
M  CHG  1  28   1
M  END
>  <UniqueID>  (53) 
48

>  <SMILES>  (53) 
C/C=C\c1ccc(OCc2ccc(S(=O)(=O)[NH+]3CCOCC3)cc2)c(OC)c1

>  <Energy>  (53) 
69.49610853490047

>  <Genealogy>  (53) 
CC=Cc1ccc(OCc2ccc(S(=O)(=O)[NH+]3CCOCC3)cc2)c(OC)c1 (protonated)
C/C=C\c1ccc(OCc2ccc(S(=O)(=O)[NH+]3CCOCC3)cc2)c(OC)c1 (cis-trans isomerization)
C/C=C\c1ccc(OCc2ccc(S(=O)(=O)[NH+]3CCOCC3)cc2)c(OC)c1 (3D coordinates assigned)
C/C=C\c1ccc(OCc2ccc(S(=O)(=O)[NH+]3CCOCC3)cc2)c(OC)c1 (nonaromatic ring conformer: 69.49610853490047 kcal/mol)

>  <smiles>  (53) 
CC=Cc1ccc(OCc2ccc(S(=O)(=O)N3CCOCC3)cc2)c(OC)c1

>  <score_type>  (53) 
oracle

>  <origin>  (53) 
adg

>  <m_score__min__energy>  (53) 
-7.2400000000000002

>  <m_primary>  (53) 
energy

$$$$
53:0
     RDKit          3D

 43 44  0  0  0  0  0  0  0  0999 V2000
   54.7690   28.5980   44.5610 H   0  0  0  0  0  0  0  0  0  0  0  0
   55.7140   28.8000   44.8650 O   0  0  0  0  0  0  0  0  0  0  0  0
   56.4550   27.9000   45.6290 C   0  0  0  0  0  0  0  0  0  0  0  0
   57.7660   28.2300   45.9880 C   0  0  0  0  0  0  0  0  0  0  0  0
   58.1898   29.1955   45.6747 H   0  0  0  0  0  0  0  0  0  0  0  0
   58.5480   27.3390   46.7460 C   0  0  0  0  0  0  0  0  0  0  0  0
   59.9810   27.6910   47.0940 C   0  0  0  0  0  0  0  0  0  0  0  0
   60.3318   28.4545   46.3841 H   0  0  0  0  0  0  0  0  0  0  0  0
   60.5614   26.7585   47.0341 H   0  0  0  0  0  0  0  0  0  0  0  0
   60.1560   28.2190   48.4730 N   0  0  0  0  0  0  0  0  0  0  0  0
   60.8880   29.5060   48.5130 C   0  0  0  0  0  0  0  0  0  0  0  0
   61.3472   29.6288   49.5050 H   0  0  0  0  0  0  0  0  0  0  0  0
   61.6616   29.4956   47.7311 H   0  0  0  0  0  0  0  0  0  0  0  0
   59.9560   30.6610   48.2540 C   0  0  0  0  0  0  0  0  0  0  0  0
   58.9416   30.6043   48.6756 H   0  0  0  0  0  0  0  0  0  0  0  0
   60.2770   31.7540   47.5450 C   0  0  0  0  0  0  0  0  0  0  0  0
   61.2793   32.1824   47.6930 H   0  0  0  0  0  0  0  0  0  0  0  0
   59.3800   32.4240   46.5790 C   0  0  0  0  0  0  0  0  0  0  0  0
   59.4350   33.8180   46.4540 C   0  0  0  0  0  0  0  0  0  0  0  0
   60.1375   34.3962   47.0722 H   0  0  0  0  0  0  0  0  0  0  0  0
   58.6010   34.4770   45.5470 C   0  0  0  0  0  0  0  0  0  0  0  0
   58.6387   35.5733   45.4646 H   0  0  0  0  0  0  0  0  0  0  0  0
   57.7200   33.7490   44.7450 C   0  0  0  0  0  0  0  0  0  0  0  0
   57.0586   34.2760   44.0415 H   0  0  0  0  0  0  0  0  0  0  0  0
   57.6730   32.3470   44.8310 C   0  0  0  0  0  0  0  0  0  0  0  0
   56.7740   31.5980   43.9910 N   0  0  0  0  0  0  0  0  0  0  0  0
   57.0520   31.3820   42.7940 O   0  0  0  0  0  0  0  0  0  0  0  0
   55.5940   31.1010   44.4970 O   0  0  0  0  0  0  0  0  0  0  0  0
   58.5170   31.6900   45.7450 C   0  0  0  0  0  0  0  0  0  0  0  0
   58.5019   30.5919   45.8081 H   0  0  0  0  0  0  0  0  0  0  0  0
   60.7600   27.2180   49.3810 C   0  0  0  0  0  0  0  0  0  0  0  0
   61.7074   26.8635   48.9488 H   0  0  0  0  0  0  0  0  0  0  0  0
   60.0579   26.3797   49.5006 H   0  0  0  0  0  0  0  0  0  0  0  0
   61.0330   27.8300   50.7540 C   0  0  0  0  0  0  0  0  0  0  0  0
   60.7188   27.1257   51.5384 H   0  0  0  0  0  0  0  0  0  0  0  0
   62.1086   28.0366   50.8561 H   0  0  0  0  0  0  0  0  0  0  0  0
   60.4681   28.7684   50.8561 H   0  0  0  0  0  0  0  0  0  0  0  0
   57.9840   26.1230   47.1650 C   0  0  0  0  0  0  0  0  0  0  0  0
   58.5775   25.4264   47.7753 H   0  0  0  0  0  0  0  0  0  0  0  0
   56.6730   25.7930   46.8110 C   0  0  0  0  0  0  0  0  0  0  0  0
   56.2413   24.8361   47.1396 H   0  0  0  0  0  0  0  0  0  0  0  0
   55.9080   26.6740   46.0410 C   0  0  0  0  0  0  0  0  0  0  0  0
   54.6080   26.3280   45.6930 O   0  0  0  0  0  0  0  0  0  0  0  0
  1  2  1  0
  2  3  1  0
  3  4  2  0
  4  5  1  0
  4  6  1  0
  6  7  1  0
  7  8  1  0
  7  9  1  0
  7 10  1  0
 10 11  1  0
 11 12  1  0
 11 13  1  0
 11 14  1  0
 14 15  1  0
 14 16  2  0
 16 17  1  0
 16 18  1  0
 18 19  2  0
 19 20  1  0
 19 21  1  0
 21 22  1  0
 21 23  2  0
 23 24  1  0
 23 25  1  0
 25 26  1  0
 26 27  2  0
 26 28  1  0
 25 29  2  0
 29 30  1  0
 10 31  1  0
 31 32  1  0
 31 33  1  0
 31 34  1  0
 34 35  1  0
 34 36  1  0
 34 37  1  0
  6 38  2  0
 38 39  1  0
 38 40  1  0
 40 41  1  0
 40 42  2  0
 42 43  1  0
 42  3  1  0
 29 18  1  0
M  CHG  3  26   1  28  -1  43  -1
M  END
>  <UniqueID>  (54) 
49

>  <SMILES>  (54) 
CCN(C/C=C\c1cccc([N+](=O)[O-])c1)Cc1ccc([O-])c(O)c1

>  <Energy>  (54) 
50.299839638485466

>  <Genealogy>  (54) 
CCN(CC=Cc1cccc([N+](=O)[O-])c1)Cc1ccc([O-])c(O)c1 (protonated)
CCN(C/C=C\c1cccc([N+](=O)[O-])c1)Cc1ccc([O-])c(O)c1 (cis-trans isomerization)
CCN(C/C=C\c1cccc([N+](=O)[O-])c1)Cc1ccc([O-])c(O)c1 (3D coordinates assigned)
CCN(C/C=C\c1cccc([N+](=O)[O-])c1)Cc1ccc([O-])c(O)c1 (optimized conformer: 50.299839638485466 kcal/mol)

>  <smiles>  (54) 
CCN(CC=Cc1cccc([N+](=O)[O-])c1)Cc1ccc(O)c(O)c1

>  <score_type>  (54) 
oracle

>  <origin>  (54) 
adg

>  <m_score__min__energy>  (54) 
-11.57

>  <m_primary>  (54) 
energy

$$$$
54:0
     RDKit          3D

 43 45  0  0  0  0  0  0  0  0999 V2000
   60.4480   28.1980   45.8550 O   0  0  0  0  0  0  0  0  0  0  0  0
   59.2220   27.9060   45.8680 C   0  0  0  0  0  0  0  0  0  0  0  0
   58.7700   26.8020   46.7440 C   0  0  0  0  0  0  0  0  0  0  0  0
   57.4860   26.4980   47.0010 C   0  0  0  0  0  0  0  0  0  0  0  0
   56.7740   25.3200   46.4560 C   0  0  0  0  0  0  0  0  0  0  0  0
   57.3910   24.0570   46.4380 C   0  0  0  0  0  0  0  0  0  0  0  0
   56.7210   22.9520   45.9080 C   0  0  0  0  0  0  0  0  0  0  0  0
   55.4240   23.0910   45.4080 C   0  0  0  0  0  0  0  0  0  0  0  0
   54.7720   21.9820   44.8830 O   0  0  0  0  0  0  0  0  0  0  0  0
   54.7870   24.3430   45.4460 C   0  0  0  0  0  0  0  0  0  0  0  0
   53.4890   24.4990   44.9590 O   0  0  0  0  0  0  0  0  0  0  0  0
   55.4590   25.4520   45.9780 C   0  0  0  0  0  0  0  0  0  0  0  0
   54.8220   26.6880   46.0110 O   0  0  0  0  0  0  0  0  0  0  0  0
   58.2780   28.7040   45.0530 C   0  0  0  0  0  0  0  0  0  0  0  0
   57.8560   28.2280   43.8000 C   0  0  0  0  0  0  0  0  0  0  0  0
   57.0170   29.0000   42.9950 C   0  0  0  0  0  0  0  0  0  0  0  0
   56.6020   30.2610   43.4240 C   0  0  0  0  0  0  0  0  0  0  0  0
   57.0210   30.7560   44.6680 C   0  0  0  0  0  0  0  0  0  0  0  0
   56.6300   32.0590   45.1080 N   0  0  0  0  0  0  0  0  0  0  0  0
   57.5980   33.4760   44.8580 S   0  0  0  0  0  0  0  0  0  0  0  0
   56.7070   34.6840   44.8190 O   0  0  0  0  0  0  0  0  0  0  0  0
   58.3410   33.3710   43.5560 O   0  0  0  0  0  0  0  0  0  0  0  0
   58.7550   33.6330   46.1750 C   0  0  0  0  0  0  0  0  0  0  0  0
   58.3680   33.3390   47.4900 C   0  0  0  0  0  0  0  0  0  0  0  0
   59.2820   33.4750   48.5390 C   0  0  0  0  0  0  0  0  0  0  0  0
   60.5900   33.8960   48.2790 C   0  0  0  0  0  0  0  0  0  0  0  0
   60.9830   34.1820   46.9690 C   0  0  0  0  0  0  0  0  0  0  0  0
   60.0700   34.0500   45.9180 C   0  0  0  0  0  0  0  0  0  0  0  0
   57.8330   29.9660   45.4960 C   0  0  0  0  0  0  0  0  0  0  0  0
   58.2350   30.4590   46.7330 O   0  0  0  0  0  0  0  0  0  0  0  0
   59.5439   26.1829   47.2213 H   0  0  0  0  0  0  0  0  0  0  0  0
   56.9242   27.1728   47.6636 H   0  0  0  0  0  0  0  0  0  0  0  0
   58.4067   23.9384   46.8434 H   0  0  0  0  0  0  0  0  0  0  0  0
   57.2158   21.9699   45.8842 H   0  0  0  0  0  0  0  0  0  0  0  0
   53.0560   25.4090   44.8630 H   0  0  0  0  0  0  0  0  0  0  0  0
   58.1894   27.2395   43.4510 H   0  0  0  0  0  0  0  0  0  0  0  0
   56.6825   28.6137   42.0209 H   0  0  0  0  0  0  0  0  0  0  0  0
   55.9445   30.8688   42.7851 H   0  0  0  0  0  0  0  0  0  0  0  0
   57.3421   33.0003   47.6970 H   0  0  0  0  0  0  0  0  0  0  0  0
   58.9720   33.2506   49.5703 H   0  0  0  0  0  0  0  0  0  0  0  0
   61.3087   34.0019   49.1050 H   0  0  0  0  0  0  0  0  0  0  0  0
   62.0123   34.5115   46.7641 H   0  0  0  0  0  0  0  0  0  0  0  0
   60.3833   34.2735   44.8875 H   0  0  0  0  0  0  0  0  0  0  0  0
  1  2  2  0
  2  3  1  0
  3  4  2  3
  4  5  1  0
  5  6  2  0
  6  7  1  0
  7  8  2  0
  8  9  1  0
  8 10  1  0
 10 11  1  0
 10 12  2  0
 12 13  1  0
  2 14  1  0
 14 15  2  0
 15 16  1  0
 16 17  2  0
 17 18  1  0
 18 19  1  0
 19 20  1  0
 20 21  2  0
 20 22  2  0
 20 23  1  0
 23 24  2  0
 24 25  1  0
 25 26  2  0
 26 27  1  0
 27 28  2  0
 18 29  2  0
 29 30  1  0
 12  5  1  0
 29 14  1  0
 28 23  1  0
  3 31  1  0
  4 32  1  0
  6 33  1  0
  7 34  1  0
 11 35  1  0
 15 36  1  0
 16 37  1  0
 17 38  1  0
 24 39  1  0
 25 40  1  0
 26 41  1  0
 27 42  1  0
 28 43  1  0
M  CHG  4   9  -1  13  -1  19  -1  30  -1
M  END
>  <UniqueID>  (55) 
50

>  <SMILES>  (55) 
O=C(C=Cc1ccc([O-])c(O)c1[O-])c1cccc([N-]S(=O)(=O)c2ccccc2)c1[O-]

>  <Energy>  (55) 
64.11010525627552

>  <Genealogy>  (55) 
O=C(C=Cc1ccc([O-])c(O)c1[O-])c1cccc([N-]S(=O)(=O)c2ccccc2)c1[O-] (protonated)
O=C(C=Cc1ccc([O-])c(O)c1[O-])c1cccc([N-]S(=O)(=O)c2ccccc2)c1[O-] (3D coordinates assigned)
O=C(C=Cc1ccc([O-])c(O)c1[O-])c1cccc([N-]S(=O)(=O)c2ccccc2)c1[O-] (optimized conformer: 64.11010525627552 kcal/mol)

>  <smiles>  (55) 
O=C(C=Cc1ccc(O)c(O)c1O)c1cccc(NS(=O)(=O)c2ccccc2)c1O

>  <score_type>  (55) 
oracle

>  <origin>  (55) 
adg

>  <m_score__min__energy>  (55) 
-17.949999999999999

>  <m_primary>  (55) 
energy

$$$$
55:0
     RDKit          3D

 46 48  0  0  0  0  0  0  0  0999 V2000
   54.7840   26.3400   46.0140 N   0  0  0  0  0  0  0  0  0  0  0  0
   56.1530   25.2960   46.1860 S   0  0  0  0  0  0  0  0  0  0  0  0
   55.9070   24.3430   47.3220 O   0  0  0  0  0  0  0  0  0  0  0  0
   56.3340   24.5230   44.9100 O   0  0  0  0  0  0  0  0  0  0  0  0
   57.6120   26.2400   46.5150 C   0  0  0  0  0  0  0  0  0  0  0  0
   58.6310   25.6970   47.3120 C   0  0  0  0  0  0  0  0  0  0  0  0
   59.7890   26.4320   47.5760 C   0  0  0  0  0  0  0  0  0  0  0  0
   59.9470   27.7080   47.0340 C   0  0  0  0  0  0  0  0  0  0  0  0
   58.9420   28.2590   46.2350 C   0  0  0  0  0  0  0  0  0  0  0  0
   57.7560   27.5420   45.9840 C   0  0  0  0  0  0  0  0  0  0  0  0
   56.7240   28.0790   45.1420 N   0  0  0  0  0  0  0  0  0  0  0  0
   56.5890   29.4420   44.7180 C   0  0  0  0  0  0  0  0  0  0  0  0
   55.4760   30.0290   44.7840 O   0  0  0  0  0  0  0  0  0  0  0  0
   57.7630   30.1400   44.0990 C   0  0  0  0  0  0  0  0  0  0  0  0
   57.8650   31.5200   44.6100 N   0  0  0  0  0  0  0  0  0  0  0  0
   57.9310   32.5540   43.7170 C   0  0  0  0  0  0  0  0  0  0  0  0
   58.0790   33.8670   44.1590 C   0  0  0  0  0  0  0  0  0  0  0  0
   58.1570   34.1250   45.5220 C   0  0  0  0  0  0  0  0  0  0  0  0
   58.0900   33.0790   46.4450 C   0  0  0  0  0  0  0  0  0  0  0  0
   58.1730   33.4110   47.8430 N   0  0  0  0  0  0  0  0  0  0  0  0
   59.2930   32.7620   49.0050 S   0  0  0  0  0  0  0  0  0  0  0  0
   58.8430   31.3820   49.4010 O   0  0  0  0  0  0  0  0  0  0  0  0
   59.3080   33.6410   50.2280 O   0  0  0  0  0  0  0  0  0  0  0  0
   60.9020   32.6400   48.2980 C   0  0  0  0  0  0  0  0  0  0  0  0
   61.6720   33.7970   48.1090 C   0  0  0  0  0  0  0  0  0  0  0  0
   62.9540   33.7050   47.5590 C   0  0  0  0  0  0  0  0  0  0  0  0
   63.4730   32.4580   47.1970 C   0  0  0  0  0  0  0  0  0  0  0  0
   62.7100   31.3030   47.3820 C   0  0  0  0  0  0  0  0  0  0  0  0
   61.4260   31.3910   47.9290 C   0  0  0  0  0  0  0  0  0  0  0  0
   57.9730   31.7550   45.9600 C   0  0  0  0  0  0  0  0  0  0  0  0
   58.0010   30.7830   46.7640 O   0  0  0  0  0  0  0  0  0  0  0  0
   55.1400   27.3220   46.0270 H   0  0  0  0  0  0  0  0  0  0  0  0
   58.5173   24.6865   47.7314 H   0  0  0  0  0  0  0  0  0  0  0  0
   60.5778   26.0042   48.2123 H   0  0  0  0  0  0  0  0  0  0  0  0
   60.8640   28.2809   47.2361 H   0  0  0  0  0  0  0  0  0  0  0  0
   59.0780   29.2597   45.7990 H   0  0  0  0  0  0  0  0  0  0  0  0
   58.6837   29.5918   44.3477 H   0  0  0  0  0  0  0  0  0  0  0  0
   57.6265   30.1713   43.0079 H   0  0  0  0  0  0  0  0  0  0  0  0
   57.8666   32.3468   42.6386 H   0  0  0  0  0  0  0  0  0  0  0  0
   58.1337   34.6929   43.4345 H   0  0  0  0  0  0  0  0  0  0  0  0
   58.2723   35.1599   45.8765 H   0  0  0  0  0  0  0  0  0  0  0  0
   61.2663   34.7789   48.3941 H   0  0  0  0  0  0  0  0  0  0  0  0
   63.5550   34.6143   47.4109 H   0  0  0  0  0  0  0  0  0  0  0  0
   64.4827   32.3868   46.7663 H   0  0  0  0  0  0  0  0  0  0  0  0
   63.1196   30.3227   47.0970 H   0  0  0  0  0  0  0  0  0  0  0  0
   60.8257   30.4802   48.0703 H   0  0  0  0  0  0  0  0  0  0  0  0
  1  2  1  0
  2  3  2  0
  2  4  2  0
  2  5  1  0
  5  6  2  0
  6  7  1  0
  7  8  2  0
  8  9  1  0
  9 10  2  0
 10 11  1  0
 11 12  1  0
 12 13  2  0
 12 14  1  0
 14 15  1  0
 15 16  1  0
 16 17  2  0
 17 18  1  0
 18 19  2  0
 19 20  1  0
 20 21  1  0
 21 22  2  0
 21 23  2  0
 21 24  1  0
 24 25  2  0
 25 26  1  0
 26 27  2  0
 27 28  1  0
 28 29  2  0
 19 30  1  0
 30 31  2  0
 10  5  1  0
 30 15  1  0
 29 24  1  0
  1 32  1  0
  6 33  1  0
  7 34  1  0
  8 35  1  0
  9 36  1  0
 14 37  1  0
 14 38  1  0
 16 39  1  0
 17 40  1  0
 18 41  1  0
 25 42  1  0
 26 43  1  0
 27 44  1  0
 28 45  1  0
 29 46  1  0
M  CHG  3   1  -1  11  -1  20  -1
M  END
>  <UniqueID>  (56) 
51

>  <SMILES>  (56) 
[NH-]S(=O)(=O)c1ccccc1[N-]C(=O)Cn1cccc([N-]S(=O)(=O)c2ccccc2)c1=O

>  <Energy>  (56) 
59.90502103407045

>  <Genealogy>  (56) 
[NH-]S(=O)(=O)c1ccccc1[N-]C(=O)Cn1cccc([N-]S(=O)(=O)c2ccccc2)c1=O (protonated)
[NH-]S(=O)(=O)c1ccccc1[N-]C(=O)Cn1cccc([N-]S(=O)(=O)c2ccccc2)c1=O (3D coordinates assigned)
[NH-]S(=O)(=O)c1ccccc1[N-]C(=O)Cn1cccc([N-]S(=O)(=O)c2ccccc2)c1=O (optimized conformer: 59.90502103407045 kcal/mol)

>  <smiles>  (56) 
NS(=O)(=O)c1ccccc1NC(=O)Cn1cccc(NS(=O)(=O)c2ccccc2)c1=O

>  <score_type>  (56) 
oracle

>  <origin>  (56) 
adg

>  <m_score__min__energy>  (56) 
-16.550000000000001

>  <m_primary>  (56) 
energy

$$$$
56:0
     RDKit          3D

 49 52  0  0  0  0  0  0  0  0999 V2000
   53.7808   25.1480   45.3126 H   0  0  0  0  0  0  0  0  0  0  0  0
   54.7940   24.7910   45.5490 C   0  0  0  0  0  0  0  0  0  0  0  0
   55.5650   25.3670   46.5090 N   0  0  0  0  0  0  0  0  0  0  0  0
   56.7630   24.7520   46.6120 C   0  0  0  0  0  0  0  0  0  0  0  0
   57.6870   25.1010   47.4510 N   0  0  0  0  0  0  0  0  0  0  0  0
   59.0350   26.0990   47.0170 S   0  0  0  0  0  0  0  0  0  0  0  0
   59.8600   25.4170   45.9610 O   0  0  0  0  0  0  0  0  0  0  0  0
   59.8920   26.3510   48.2270 O   0  0  0  0  0  0  0  0  0  0  0  0
   58.4320   27.6280   46.3860 C   0  0  0  0  0  0  0  0  0  0  0  0
   58.9020   28.8440   46.8990 C   0  0  0  0  0  0  0  0  0  0  0  0
   59.6627   28.8466   47.6936 H   0  0  0  0  0  0  0  0  0  0  0  0
   58.4070   30.0540   46.4040 C   0  0  0  0  0  0  0  0  0  0  0  0
   58.7925   31.0059   46.7981 H   0  0  0  0  0  0  0  0  0  0  0  0
   57.4180   30.0590   45.4040 C   0  0  0  0  0  0  0  0  0  0  0  0
   56.8940   31.2820   44.8670 N   0  0  0  0  0  0  0  0  0  0  0  0
   57.6620   32.3830   44.3600 C   0  0  0  0  0  0  0  0  0  0  0  0
   57.7130   32.5580   43.1140 O   0  0  0  0  0  0  0  0  0  0  0  0
   58.3460   33.3440   45.2580 C   0  0  0  0  0  0  0  0  0  0  0  0
   58.9990   34.4750   44.7360 C   0  0  0  0  0  0  0  0  0  0  0  0
   59.0046   34.6512   43.6502 H   0  0  0  0  0  0  0  0  0  0  0  0
   59.6400   35.3750   45.5890 C   0  0  0  0  0  0  0  0  0  0  0  0
   60.1405   36.2622   45.1739 H   0  0  0  0  0  0  0  0  0  0  0  0
   59.6480   35.1530   46.9660 C   0  0  0  0  0  0  0  0  0  0  0  0
   60.1520   35.8691   47.6317 H   0  0  0  0  0  0  0  0  0  0  0  0
   59.0190   34.0250   47.5070 C   0  0  0  0  0  0  0  0  0  0  0  0
   59.0610   33.8450   48.8980 O   0  0  0  0  0  0  0  0  0  0  0  0
   59.9730   32.9820   49.5720 C   0  0  0  0  0  0  0  0  0  0  0  0
   60.2241   33.4072   50.5549 H   0  0  0  0  0  0  0  0  0  0  0  0
   59.5122   31.9930   49.7115 H   0  0  0  0  0  0  0  0  0  0  0  0
   61.2210   32.8460   48.7500 C   0  0  0  0  0  0  0  0  0  0  0  0
   62.1760   33.8750   48.7310 C   0  0  0  0  0  0  0  0  0  0  0  0
   62.0237   34.7752   49.3446 H   0  0  0  0  0  0  0  0  0  0  0  0
   63.3200   33.7600   47.9350 C   0  0  0  0  0  0  0  0  0  0  0  0
   64.0702   34.5645   47.9315 H   0  0  0  0  0  0  0  0  0  0  0  0
   63.5110   32.6240   47.1440 C   0  0  0  0  0  0  0  0  0  0  0  0
   64.4131   32.5331   46.5211 H   0  0  0  0  0  0  0  0  0  0  0  0
   62.5570   31.6040   47.1440 C   0  0  0  0  0  0  0  0  0  0  0  0
   62.7067   30.7124   46.5174 H   0  0  0  0  0  0  0  0  0  0  0  0
   61.4120   31.7140   47.9390 C   0  0  0  0  0  0  0  0  0  0  0  0
   60.6587   30.9125   47.9297 H   0  0  0  0  0  0  0  0  0  0  0  0
   58.3720   33.1180   46.6450 C   0  0  0  0  0  0  0  0  0  0  0  0
   57.8828   32.2249   47.0611 H   0  0  0  0  0  0  0  0  0  0  0  0
   56.9640   28.8420   44.8830 C   0  0  0  0  0  0  0  0  0  0  0  0
   56.2119   28.8375   44.0803 H   0  0  0  0  0  0  0  0  0  0  0  0
   57.4610   27.6310   45.3770 C   0  0  0  0  0  0  0  0  0  0  0  0
   57.0880   26.6788   44.9717 H   0  0  0  0  0  0  0  0  0  0  0  0
   56.9200   23.4800   45.5290 S   0  0  0  0  0  0  0  0  0  0  0  0
   55.3810   23.7160   44.8870 C   0  0  0  0  0  0  0  0  0  0  0  0
   54.9194   23.1233   44.0835 H   0  0  0  0  0  0  0  0  0  0  0  0
  1  2  1  0
  2  3  1  0
  3  4  1  0
  4  5  2  0
  5  6  1  0
  6  7  2  0
  6  8  2  0
  6  9  1  0
  9 10  2  0
 10 11  1  0
 10 12  1  0
 12 13  1  0
 12 14  2  0
 14 15  1  0
 15 16  1  0
 16 17  2  0
 16 18  1  0
 18 19  2  0
 19 20  1  0
 19 21  1  0
 21 22  1  0
 21 23  2  0
 23 24  1  0
 23 25  1  0
 25 26  1  0
 26 27  1  0
 27 28  1  0
 27 29  1  0
 27 30  1  0
 30 31  2  0
 31 32  1  0
 31 33  1  0
 33 34  1  0
 33 35  2  0
 35 36  1  0
 35 37  1  0
 37 38  1  0
 37 39  2  0
 39 40  1  0
 25 41  2  0
 41 42  1  0
 14 43  1  0
 43 44  1  0
 43 45  2  0
 45 46  1  0
  4 47  1  0
 47 48  1  0
 48 49  1  0
 48  2  2  0
 45  9  1  0
 41 18  1  0
 39 30  1  0
M  CHG  2   3  -1  15  -1
M  END
>  <UniqueID>  (57) 
52

>  <SMILES>  (57) 
O=C([N-]c1ccc(S(=O)(=O)/N=c2\[n-]ccs2)cc1)c1cccc(OCc2ccccc2)c1

>  <Energy>  (57) 
93.32111738140291

>  <Genealogy>  (57) 
O=C([N-]c1ccc(S(=O)(=O)N=c2[n-]ccs2)cc1)c1cccc(OCc2ccccc2)c1 (protonated)
O=C([N-]c1ccc(S(=O)(=O)/N=c2\[n-]ccs2)cc1)c1cccc(OCc2ccccc2)c1 (cis-trans isomerization)
O=C([N-]c1ccc(S(=O)(=O)/N=c2\[n-]ccs2)cc1)c1cccc(OCc2ccccc2)c1 (3D coordinates assigned)
O=C([N-]c1ccc(S(=O)(=O)/N=c2\[n-]ccs2)cc1)c1cccc(OCc2ccccc2)c1 (optimized conformer: 93.32111738140291 kcal/mol)

>  <smiles>  (57) 
O=C(Nc1ccc(S(=O)(=O)N=c2[nH]ccs2)cc1)c1cccc(OCc2ccccc2)c1

>  <score_type>  (57) 
oracle

>  <origin>  (57) 
adg

>  <m_score__min__energy>  (57) 
-12.289999999999999

>  <m_primary>  (57) 
energy

$$$$
57:0
     RDKit          3D

 53 53  0  0  0  0  0  0  0  0999 V2000
   56.6340   30.6070   42.9070 C   0  0  0  0  0  0  0  0  0  0  0  0
   56.7990   29.1690   43.3960 C   0  0  0  0  0  0  0  0  0  0  0  0
   56.4550   29.0090   44.8850 C   0  0  0  0  0  0  0  0  0  0  0  0
   57.2180   27.8710   45.5320 C   0  0  0  0  0  0  0  0  0  0  0  0
   58.6280   27.8990   45.5900 C   0  0  0  0  0  0  0  0  0  0  0  0
   59.3030   29.0120   45.0530 O   0  0  0  0  0  0  0  0  0  0  0  0
   60.1240   29.9450   45.7590 C   0  0  0  0  0  0  0  0  0  0  0  0
   59.2860   30.8590   46.6610 C   0  0  0  0  0  0  0  0  0  0  0  0
   60.1400   31.6560   47.6600 C   0  0  0  0  0  0  0  0  0  0  0  0
   59.3810   32.8520   48.2580 C   0  0  0  0  0  0  0  0  0  0  0  0
   59.9670   34.2030   47.8230 C   0  0  0  0  0  0  0  0  0  0  0  0
   60.3510   34.1810   46.3370 C   0  0  0  0  0  0  0  0  0  0  0  0
   59.3020   34.8630   45.4440 C   0  0  0  0  0  0  0  0  0  0  0  0
   57.8860   34.3210   45.6760 C   0  0  0  0  0  0  0  0  0  0  0  0
   57.6360   33.1270   44.8110 C   0  0  0  0  0  0  0  0  0  0  0  0
   58.2300   33.0090   43.7070 O   0  0  0  0  0  0  0  0  0  0  0  0
   56.7880   32.1160   45.2470 O   0  0  0  0  0  0  0  0  0  0  0  0
   59.3110   26.8220   46.1850 C   0  0  0  0  0  0  0  0  0  0  0  0
   58.6110   25.7350   46.7030 C   0  0  0  0  0  0  0  0  0  0  0  0
   57.2100   25.6890   46.6520 C   0  0  0  0  0  0  0  0  0  0  0  0
   56.5130   24.5090   47.2310 C   0  0  0  0  0  0  0  0  0  0  0  0
   55.3120   23.8880   46.5840 C   0  0  0  0  0  0  0  0  0  0  0  0
   56.9370   24.0070   48.3060 O   0  0  0  0  0  0  0  0  0  0  0  0
   56.5150   26.7590   46.0450 C   0  0  0  0  0  0  0  0  0  0  0  0
   55.1280   26.7190   45.9250 O   0  0  0  0  0  0  0  0  0  0  0  0
   56.5566   31.2819   43.7722 H   0  0  0  0  0  0  0  0  0  0  0  0
   57.5056   30.8896   42.2984 H   0  0  0  0  0  0  0  0  0  0  0  0
   55.7210   30.6848   42.2984 H   0  0  0  0  0  0  0  0  0  0  0  0
   56.1341   28.5185   42.8088 H   0  0  0  0  0  0  0  0  0  0  0  0
   57.8555   28.8917   43.2661 H   0  0  0  0  0  0  0  0  0  0  0  0
   56.7037   29.9442   45.4081 H   0  0  0  0  0  0  0  0  0  0  0  0
   55.3817   28.7802   44.9599 H   0  0  0  0  0  0  0  0  0  0  0  0
   60.8425   29.3904   46.3805 H   0  0  0  0  0  0  0  0  0  0  0  0
   60.6470   30.5721   45.0219 H   0  0  0  0  0  0  0  0  0  0  0  0
   58.7337   31.5681   46.0268 H   0  0  0  0  0  0  0  0  0  0  0  0
   58.6076   30.2179   47.2431 H   0  0  0  0  0  0  0  0  0  0  0  0
   60.4440   30.9861   48.4778 H   0  0  0  0  0  0  0  0  0  0  0  0
   61.0112   32.0501   47.1162 H   0  0  0  0  0  0  0  0  0  0  0  0
   58.3318   32.8019   47.9314 H   0  0  0  0  0  0  0  0  0  0  0  0
   59.4697   32.7882   49.3526 H   0  0  0  0  0  0  0  0  0  0  0  0
   59.2177   34.9909   47.9896 H   0  0  0  0  0  0  0  0  0  0  0  0
   60.8716   34.4010   48.4167 H   0  0  0  0  0  0  0  0  0  0  0  0
   61.3113   34.7031   46.2137 H   0  0  0  0  0  0  0  0  0  0  0  0
   60.4183   33.1279   46.0264 H   0  0  0  0  0  0  0  0  0  0  0  0
   59.3054   35.9420   45.6580 H   0  0  0  0  0  0  0  0  0  0  0  0
   59.5703   34.6554   44.3976 H   0  0  0  0  0  0  0  0  0  0  0  0
   57.7769   34.0327   46.7319 H   0  0  0  0  0  0  0  0  0  0  0  0
   57.1579   35.1050   45.4207 H   0  0  0  0  0  0  0  0  0  0  0  0
   60.4094   26.8388   46.2416 H   0  0  0  0  0  0  0  0  0  0  0  0
   59.1647   24.9008   47.1585 H   0  0  0  0  0  0  0  0  0  0  0  0
   54.6206   23.5305   47.3612 H   0  0  0  0  0  0  0  0  0  0  0  0
   54.8045   24.6367   45.9580 H   0  0  0  0  0  0  0  0  0  0  0  0
   55.6295   23.0411   45.9580 H   0  0  0  0  0  0  0  0  0  0  0  0
  1  2  1  0
  2  3  1  0
  3  4  1  0
  4  5  2  0
  5  6  1  0
  6  7  1  0
  7  8  1  0
  8  9  1  0
  9 10  1  0
 10 11  1  0
 11 12  1  0
 12 13  1  0
 13 14  1  0
 14 15  1  0
 15 16  2  0
 15 17  1  0
  5 18  1  0
 18 19  2  0
 19 20  1  0
 20 21  1  0
 21 22  1  0
 21 23  2  0
 20 24  2  0
 24 25  1  0
 24  4  1  0
  1 26  1  0
  1 27  1  0
  1 28  1  0
  2 29  1  0
  2 30  1  0
  3 31  1  0
  3 32  1  0
  7 33  1  0
  7 34  1  0
  8 35  1  0
  8 36  1  0
  9 37  1  0
  9 38  1  0
 10 39  1  0
 10 40  1  0
 11 41  1  0
 11 42  1  0
 12 43  1  0
 12 44  1  0
 13 45  1  0
 13 46  1  0
 14 47  1  0
 14 48  1  0
 18 49  1  0
 19 50  1  0
 22 51  1  0
 22 52  1  0
 22 53  1  0
M  CHG  2  17  -1  25  -1
M  END
>  <UniqueID>  (58) 
53

>  <SMILES>  (58) 
CCCc1c(OCCCCCCCCC(=O)[O-])ccc(C(C)=O)c1[O-]

>  <Energy>  (58) 
37.893724233969834

>  <Genealogy>  (58) 
CCCc1c(OCCCCCCCCC(=O)[O-])ccc(C(C)=O)c1[O-] (protonated)
CCCc1c(OCCCCCCCCC(=O)[O-])ccc(C(C)=O)c1[O-] (3D coordinates assigned)
CCCc1c(OCCCCCCCCC(=O)[O-])ccc(C(C)=O)c1[O-] (optimized conformer: 37.893724233969834 kcal/mol)

>  <smiles>  (58) 
CCCc1c(OCCCCCCCCC(=O)O)ccc(C(C)=O)c1O

>  <score_type>  (58) 
oracle

>  <origin>  (58) 
adg

>  <m_score__min__energy>  (58) 
-12.17

>  <m_primary>  (58) 
energy

$$$$
58:0
     RDKit          3D

 40 42  0  0  0  0  0  0  0  0999 V2000
   59.0580   29.5550   49.3940 C   0  0  0  0  0  0  0  0  0  0  0  0
   60.1910   30.3600   48.8220 C   0  0  0  0  0  0  0  0  0  0  0  0
   60.6370   31.4930   49.5260 C   0  0  0  0  0  0  0  0  0  0  0  0
   61.6750   32.2800   49.0240 C   0  0  0  0  0  0  0  0  0  0  0  0
   62.2800   31.9490   47.8140 C   0  0  0  0  0  0  0  0  0  0  0  0
   61.8590   30.8230   47.1060 C   0  0  0  0  0  0  0  0  0  0  0  0
   60.8250   30.0040   47.6010 C   0  0  0  0  0  0  0  0  0  0  0  0
   60.4240   28.7770   46.8010 C   0  0  0  0  0  0  0  0  0  0  0  0
   59.0340   28.8740   46.2990 N   0  0  0  0  0  0  0  0  0  0  0  0
   58.1710   27.8160   46.4650 C   0  0  0  0  0  0  0  0  0  0  0  0
   58.5410   26.7680   47.0580 O   0  0  0  0  0  0  0  0  0  0  0  0
   56.9070   27.8750   45.9760 N   0  0  0  0  0  0  0  0  0  0  0  0
   56.4520   28.9610   45.3110 C   0  0  0  0  0  0  0  0  0  0  0  0
   55.1480   28.9710   44.8290 O   0  0  0  0  0  0  0  0  0  0  0  0
   57.2910   30.0590   45.1200 C   0  0  0  0  0  0  0  0  0  0  0  0
   56.8070   31.2350   44.3630 C   0  0  0  0  0  0  0  0  0  0  0  0
   56.6820   32.4650   44.8830 C   0  0  0  0  0  0  0  0  0  0  0  0
   57.7500   33.1850   45.6110 C   0  0  0  0  0  0  0  0  0  0  0  0
   57.8790   33.0900   47.0070 C   0  0  0  0  0  0  0  0  0  0  0  0
   58.8660   33.8330   47.6590 C   0  0  0  0  0  0  0  0  0  0  0  0
   59.6890   34.6490   46.9460 N   0  0  0  0  0  0  0  0  0  0  0  0
   59.5750   34.7710   45.5970 C   0  0  0  0  0  0  0  0  0  0  0  0
   58.5970   34.0510   44.9070 C   0  0  0  0  0  0  0  0  0  0  0  0
   58.6100   29.9840   45.6030 C   0  0  0  0  0  0  0  0  0  0  0  0
   59.4050   30.9360   45.3700 O   0  0  0  0  0  0  0  0  0  0  0  0
   59.1033   29.5872   50.4926 H   0  0  0  0  0  0  0  0  0  0  0  0
   58.1005   29.9765   49.0540 H   0  0  0  0  0  0  0  0  0  0  0  0
   59.1409   28.5121   49.0540 H   0  0  0  0  0  0  0  0  0  0  0  0
   60.1632   31.7617   50.4817 H   0  0  0  0  0  0  0  0  0  0  0  0
   62.0156   33.1628   49.5849 H   0  0  0  0  0  0  0  0  0  0  0  0
   63.0911   32.5764   47.4159 H   0  0  0  0  0  0  0  0  0  0  0  0
   62.3403   30.5715   46.1494 H   0  0  0  0  0  0  0  0  0  0  0  0
   61.1052   28.6735   45.9435 H   0  0  0  0  0  0  0  0  0  0  0  0
   60.4860   27.9023   47.4651 H   0  0  0  0  0  0  0  0  0  0  0  0
   56.5325   31.0913   43.3075 H   0  0  0  0  0  0  0  0  0  0  0  0
   55.7155   32.9754   44.7593 H   0  0  0  0  0  0  0  0  0  0  0  0
   57.2077   32.4354   47.5822 H   0  0  0  0  0  0  0  0  0  0  0  0
   58.9781   33.7583   48.7507 H   0  0  0  0  0  0  0  0  0  0  0  0
   60.2548   35.4386   45.0472 H   0  0  0  0  0  0  0  0  0  0  0  0
   58.4925   34.1632   43.8177 H   0  0  0  0  0  0  0  0  0  0  0  0
  1  2  1  0
  2  3  2  0
  3  4  1  0
  4  5  2  0
  5  6  1  0
  6  7  2  0
  7  8  1  0
  8  9  1  0
  9 10  1  0
 10 11  2  0
 10 12  1  0
 12 13  1  0
 13 14  1  0
 13 15  2  0
 15 16  1  0
 16 17  2  3
 17 18  1  0
 18 19  2  0
 19 20  1  0
 20 21  2  0
 21 22  1  0
 22 23  2  0
 15 24  1  0
 24 25  2  0
  7  2  1  0
 24  9  1  0
 23 18  1  0
  1 26  1  0
  1 27  1  0
  1 28  1  0
  3 29  1  0
  4 30  1  0
  5 31  1  0
  6 32  1  0
  8 33  1  0
  8 34  1  0
 16 35  1  0
 17 36  1  0
 19 37  1  0
 20 38  1  0
 22 39  1  0
 23 40  1  0
M  CHG  2  12  -1  14  -1
M  END
>  <UniqueID>  (59) 
54

>  <SMILES>  (59) 
Cc1ccccc1Cn1c(=O)[n-]c([O-])c(C=Cc2ccncc2)c1=O

>  <Energy>  (59) 
60.489662614223796

>  <Genealogy>  (59) 
Cc1ccccc1Cn1c(=O)[n-]c([O-])c(C=Cc2ccncc2)c1=O (protonated)
Cc1ccccc1Cn1c(=O)[n-]c([O-])c(C=Cc2ccncc2)c1=O (3D coordinates assigned)
Cc1ccccc1Cn1c(=O)[n-]c([O-])c(C=Cc2ccncc2)c1=O (optimized conformer: 60.489662614223796 kcal/mol)

>  <smiles>  (59) 
Cc1ccccc1Cn1c(=O)[nH]c(O)c(C=Cc2ccncc2)c1=O

>  <score_type>  (59) 
oracle

>  <origin>  (59) 
adg

>  <m_score__min__energy>  (59) 
-14.18

>  <m_primary>  (59) 
energy

$$$$
59:0
     RDKit          3D

 37 39  0  0  0  0  0  0  0  0999 V2000
   56.7460   30.4010   43.8760 C   0  0  0  0  0  0  0  0  0  0  0  0
   56.5990   31.4190   44.8600 O   0  0  0  0  0  0  0  0  0  0  0  0
   57.5750   32.3820   45.1620 C   0  0  0  0  0  0  0  0  0  0  0  0
   57.5680   33.6630   44.5740 C   0  0  0  0  0  0  0  0  0  0  0  0
   58.5780   34.5820   44.8710 C   0  0  0  0  0  0  0  0  0  0  0  0
   59.6070   34.2330   45.7470 C   0  0  0  0  0  0  0  0  0  0  0  0
   59.6220   32.9680   46.3380 C   0  0  0  0  0  0  0  0  0  0  0  0
   58.6000   32.0490   46.0690 C   0  0  0  0  0  0  0  0  0  0  0  0
   58.6480   30.7530   46.6780 N   0  0  0  0  0  0  0  0  0  0  0  0
   59.4880   30.4280   47.8020 C   0  0  0  0  0  0  0  0  0  0  0  0
   60.4060   31.5740   48.5380 S   0  0  0  0  0  0  0  0  0  0  0  0
   59.4980   29.0960   48.3390 N   0  0  0  0  0  0  0  0  0  0  0  0
   59.3230   27.9100   47.5470 C   0  0  0  0  0  0  0  0  0  0  0  0
   60.4220   27.1320   47.1480 C   0  0  0  0  0  0  0  0  0  0  0  0
   60.2270   25.9670   46.4010 C   0  0  0  0  0  0  0  0  0  0  0  0
   58.9350   25.5600   46.0600 C   0  0  0  0  0  0  0  0  0  0  0  0
   57.8230   26.3130   46.4710 C   0  0  0  0  0  0  0  0  0  0  0  0
   56.4550   25.8830   46.1230 C   0  0  0  0  0  0  0  0  0  0  0  0
   55.3990   26.7160   46.0080 N   0  0  0  0  0  0  0  0  0  0  0  0
   54.3590   25.9610   45.6870 N   0  0  0  0  0  0  0  0  0  0  0  0
   54.8240   24.7010   45.6210 C   0  0  0  0  0  0  0  0  0  0  0  0
   53.8990   23.4070   45.2540 S   0  0  0  0  0  0  0  0  0  0  0  0
   56.1050   24.6410   45.8860 O   0  0  0  0  0  0  0  0  0  0  0  0
   58.0260   27.4840   47.2210 C   0  0  0  0  0  0  0  0  0  0  0  0
   56.8863   29.4292   44.3719 H   0  0  0  0  0  0  0  0  0  0  0  0
   55.8437   30.3652   43.2478 H   0  0  0  0  0  0  0  0  0  0  0  0
   57.6216   30.6219   43.2478 H   0  0  0  0  0  0  0  0  0  0  0  0
   56.7631   33.9408   43.8776 H   0  0  0  0  0  0  0  0  0  0  0  0
   58.5620   35.5822   44.4136 H   0  0  0  0  0  0  0  0  0  0  0  0
   60.4062   34.9546   45.9718 H   0  0  0  0  0  0  0  0  0  0  0  0
   60.4409   32.6918   47.0185 H   0  0  0  0  0  0  0  0  0  0  0  0
   58.1050   29.9910   46.2140 H   0  0  0  0  0  0  0  0  0  0  0  0
   59.6520   28.9830   49.3670 H   0  0  0  0  0  0  0  0  0  0  0  0
   61.4408   27.4409   47.4246 H   0  0  0  0  0  0  0  0  0  0  0  0
   61.0930   25.3691   46.0808 H   0  0  0  0  0  0  0  0  0  0  0  0
   58.7878   24.6454   45.4668 H   0  0  0  0  0  0  0  0  0  0  0  0
   57.1594   28.0728   47.5560 H   0  0  0  0  0  0  0  0  0  0  0  0
  1  2  1  0
  2  3  1  0
  3  4  2  0
  4  5  1  0
  5  6  2  0
  6  7  1  0
  7  8  2  0
  8  9  1  0
  9 10  1  0
 10 11  2  0
 10 12  1  0
 12 13  1  0
 13 14  2  0
 14 15  1  0
 15 16  2  0
 16 17  1  0
 17 18  1  0
 18 19  2  0
 19 20  1  0
 20 21  1  0
 21 22  2  0
 21 23  1  0
 17 24  2  0
  8  3  1  0
 24 13  1  0
 23 18  1  0
  1 25  1  0
  1 26  1  0
  1 27  1  0
  4 28  1  0
  5 29  1  0
  6 30  1  0
  7 31  1  0
  9 32  1  0
 12 33  1  0
 14 34  1  0
 15 35  1  0
 16 36  1  0
 24 37  1  0
M  CHG  1  20  -1
M  END
>  <UniqueID>  (60) 
55

>  <SMILES>  (60) 
COc1ccccc1NC(=S)Nc1cccc(-c2n[n-]c(=S)o2)c1

>  <Energy>  (60) 
85.06865817991475

>  <Genealogy>  (60) 
COc1ccccc1NC(=S)Nc1cccc(-c2n[n-]c(=S)o2)c1 (protonated)
COc1ccccc1NC(=S)Nc1cccc(-c2n[n-]c(=S)o2)c1 (3D coordinates assigned)
COc1ccccc1NC(=S)Nc1cccc(-c2n[n-]c(=S)o2)c1 (optimized conformer: 85.06865817991475 kcal/mol)

>  <smiles>  (60) 
COc1ccccc1NC(=S)Nc1cccc(-c2n[nH]c(=S)o2)c1

>  <score_type>  (60) 
oracle

>  <origin>  (60) 
adg

>  <m_score__min__energy>  (60) 
-10.68

>  <m_primary>  (60) 
energy

$$$$
60:0
     RDKit          3D

 38 40  0  0  0  0  0  0  0  0999 V2000
   54.7850   26.2970   45.9900 N   0  0  0  0  0  0  0  0  0  0  0  0
   56.4600   25.9200   45.7980 S   0  0  0  0  0  0  0  0  0  0  0  0
   56.6430   25.0370   44.5960 O   0  0  0  0  0  0  0  0  0  0  0  0
   56.9540   25.1880   47.0150 O   0  0  0  0  0  0  0  0  0  0  0  0
   57.3720   27.4110   45.5850 C   0  0  0  0  0  0  0  0  0  0  0  0
   58.7700   27.4030   45.6920 C   0  0  0  0  0  0  0  0  0  0  0  0
   59.4930   28.5870   45.5200 C   0  0  0  0  0  0  0  0  0  0  0  0
   58.8240   29.7840   45.2560 C   0  0  0  0  0  0  0  0  0  0  0  0
   57.4210   29.8100   45.1860 C   0  0  0  0  0  0  0  0  0  0  0  0
   56.7140   31.0170   44.8840 N   0  0  0  0  0  0  0  0  0  0  0  0
   57.2620   32.3430   44.8910 C   0  0  0  0  0  0  0  0  0  0  0  0
   57.4090   32.9390   43.7910 O   0  0  0  0  0  0  0  0  0  0  0  0
   57.4820   33.0980   46.1770 C   0  0  0  0  0  0  0  0  0  0  0  0
   58.8810   33.0130   46.6000 N   0  0  0  0  0  0  0  0  0  0  0  0
   59.4220   32.1100   47.4460 C   0  0  0  0  0  0  0  0  0  0  0  0
   58.7010   31.1210   48.1040 O   0  0  0  0  0  0  0  0  0  0  0  0
   60.7830   32.3110   47.5590 C   0  0  0  0  0  0  0  0  0  0  0  0
   61.0910   33.3720   46.7450 C   0  0  0  0  0  0  0  0  0  0  0  0
   59.9060   33.7790   46.1650 C   0  0  0  0  0  0  0  0  0  0  0  0
   59.7730   34.8200   45.2530 O   0  0  0  0  0  0  0  0  0  0  0  0
   62.4720   33.9080   46.5490 C   0  0  0  0  0  0  0  0  0  0  0  0
   63.4840   33.1740   47.4070 C   0  0  0  0  0  0  0  0  0  0  0  0
   63.1810   32.1290   48.2100 C   0  0  0  0  0  0  0  0  0  0  0  0
   61.7880   31.5510   48.3620 C   0  0  0  0  0  0  0  0  0  0  0  0
   56.7040   28.6160   45.3280 C   0  0  0  0  0  0  0  0  0  0  0  0
   54.7250   27.0810   46.6780 H   0  0  0  0  0  0  0  0  0  0  0  0
   59.2986   26.4637   45.9116 H   0  0  0  0  0  0  0  0  0  0  0  0
   60.5905   28.5758   45.5927 H   0  0  0  0  0  0  0  0  0  0  0  0
   59.3976   30.7099   45.1023 H   0  0  0  0  0  0  0  0  0  0  0  0
   57.2154   34.1543   46.0246 H   0  0  0  0  0  0  0  0  0  0  0  0
   56.8506   32.6513   46.9592 H   0  0  0  0  0  0  0  0  0  0  0  0
   62.7519   33.7945   45.4913 H   0  0  0  0  0  0  0  0  0  0  0  0
   62.4745   34.9674   46.8452 H   0  0  0  0  0  0  0  0  0  0  0  0
   64.5300   33.5127   47.3742 H   0  0  0  0  0  0  0  0  0  0  0  0
   63.9960   31.6699   48.7888 H   0  0  0  0  0  0  0  0  0  0  0  0
   61.7974   30.5046   48.0229 H   0  0  0  0  0  0  0  0  0  0  0  0
   61.5023   31.6197   49.4220 H   0  0  0  0  0  0  0  0  0  0  0  0
   55.6078   28.6236   45.2372 H   0  0  0  0  0  0  0  0  0  0  0  0
  1  2  1  0
  2  3  2  0
  2  4  2  0
  2  5  1  0
  5  6  2  0
  6  7  1  0
  7  8  2  0
  8  9  1  0
  9 10  1  0
 10 11  1  0
 11 12  2  0
 11 13  1  0
 13 14  1  0
 14 15  1  0
 15 16  1  0
 15 17  2  0
 17 18  1  0
 18 19  2  0
 19 20  1  0
 18 21  1  0
 21 22  1  0
 22 23  2  0
 23 24  1  0
  9 25  2  0
 25  5  1  0
 19 14  1  0
 24 17  1  0
  1 26  1  0
  6 27  1  0
  7 28  1  0
  8 29  1  0
 13 30  1  0
 13 31  1  0
 21 32  1  0
 21 33  1  0
 22 34  1  0
 23 35  1  0
 24 36  1  0
 24 37  1  0
 25 38  1  0
M  CHG  4   1  -1  10  -1  16  -1  20  -1
M  END
>  <UniqueID>  (61) 
56

>  <SMILES>  (61) 
[NH-]S(=O)(=O)c1cccc([N-]C(=O)Cn2c([O-])c3c(c2[O-])CC=CC3)c1

>  <Energy>  (61) 
77.37737205521564

>  <Genealogy>  (61) 
[NH-]S(=O)(=O)c1cccc([N-]C(=O)Cn2c([O-])c3c(c2[O-])CC=CC3)c1 (protonated)
[NH-]S(=O)(=O)c1cccc([N-]C(=O)Cn2c([O-])c3c(c2[O-])CC=CC3)c1 (3D coordinates assigned)
[NH-]S(=O)(=O)c1cccc([N-]C(=O)Cn2c([O-])c3c(c2[O-])CC=CC3)c1 (nonaromatic ring conformer: 77.37737205521564 kcal/mol)

>  <smiles>  (61) 
NS(=O)(=O)c1cccc(NC(=O)Cn2c(O)c3c(c2O)CC=CC3)c1

>  <score_type>  (61) 
oracle

>  <origin>  (61) 
adg

>  <m_score__min__energy>  (61) 
-16.129999999999999

>  <m_primary>  (61) 
energy

$$$$
61:0
     RDKit          3D

 47 49  0  0  0  0  0  0  0  0999 V2000
   65.4950   32.2580   50.0490 C   0  0  0  0  0  0  0  0  0  0  0  0
   64.2710   32.9350   49.5090 C   0  0  0  0  0  0  0  0  0  0  0  0
   63.8550   32.7200   48.1870 C   0  0  0  0  0  0  0  0  0  0  0  0
   62.7160   33.3640   47.6930 C   0  0  0  0  0  0  0  0  0  0  0  0
   61.9740   34.2210   48.5140 C   0  0  0  0  0  0  0  0  0  0  0  0
   60.8460   34.8600   47.9780 O   0  0  0  0  0  0  0  0  0  0  0  0
   59.8550   34.2370   47.2040 C   0  0  0  0  0  0  0  0  0  0  0  0
   59.9160   34.2200   45.7990 C   0  0  0  0  0  0  0  0  0  0  0  0
   58.9040   33.6050   45.0570 C   0  0  0  0  0  0  0  0  0  0  0  0
   57.8050   33.0100   45.7060 C   0  0  0  0  0  0  0  0  0  0  0  0
   56.7320   32.3890   44.9750 N   0  0  0  0  0  0  0  0  0  0  0  0
   56.8120   30.7940   44.2910 S   0  0  0  0  0  0  0  0  0  0  0  0
   57.0310   30.9130   42.8080 O   0  0  0  0  0  0  0  0  0  0  0  0
   55.5000   30.1040   44.5390 O   0  0  0  0  0  0  0  0  0  0  0  0
   58.1610   29.8770   44.9890 C   0  0  0  0  0  0  0  0  0  0  0  0
   58.9010   30.4590   46.0300 C   0  0  0  0  0  0  0  0  0  0  0  0
   59.9670   29.7720   46.6260 C   0  0  0  0  0  0  0  0  0  0  0  0
   60.7100   30.3760   47.7820 C   0  0  0  0  0  0  0  0  0  0  0  0
   60.2900   28.4850   46.1810 C   0  0  0  0  0  0  0  0  0  0  0  0
   59.5780   27.9030   45.1320 C   0  0  0  0  0  0  0  0  0  0  0  0
   58.5270   28.5940   44.5100 C   0  0  0  0  0  0  0  0  0  0  0  0
   57.7900   27.9240   43.3810 C   0  0  0  0  0  0  0  0  0  0  0  0
   57.7450   33.0460   47.1080 C   0  0  0  0  0  0  0  0  0  0  0  0
   58.7590   33.6590   47.8480 C   0  0  0  0  0  0  0  0  0  0  0  0
   62.4040   34.4530   49.8320 C   0  0  0  0  0  0  0  0  0  0  0  0
   63.5430   33.8120   50.3260 C   0  0  0  0  0  0  0  0  0  0  0  0
   65.4675   32.2732   51.1486 H   0  0  0  0  0  0  0  0  0  0  0  0
   65.5230   31.2161   49.6973 H   0  0  0  0  0  0  0  0  0  0  0  0
   66.3925   32.7880   49.6973 H   0  0  0  0  0  0  0  0  0  0  0  0
   64.4268   32.0422   47.5361 H   0  0  0  0  0  0  0  0  0  0  0  0
   62.4013   33.1959   46.6525 H   0  0  0  0  0  0  0  0  0  0  0  0
   60.7640   34.6928   45.2819 H   0  0  0  0  0  0  0  0  0  0  0  0
   58.9663   33.5856   43.9589 H   0  0  0  0  0  0  0  0  0  0  0  0
   55.8520   32.9270   44.8140 H   0  0  0  0  0  0  0  0  0  0  0  0
   58.6407   31.4679   46.3827 H   0  0  0  0  0  0  0  0  0  0  0  0
   60.2717   30.0197   48.7259 H   0  0  0  0  0  0  0  0  0  0  0  0
   61.7679   30.0785   47.7336 H   0  0  0  0  0  0  0  0  0  0  0  0
   60.6348   31.4724   47.7336 H   0  0  0  0  0  0  0  0  0  0  0  0
   61.1094   27.9296   46.6608 H   0  0  0  0  0  0  0  0  0  0  0  0
   59.8432   26.8921   44.7889 H   0  0  0  0  0  0  0  0  0  0  0  0
   57.0351   27.2377   43.7921 H   0  0  0  0  0  0  0  0  0  0  0  0
   57.2941   28.6870   42.7630 H   0  0  0  0  0  0  0  0  0  0  0  0
   58.5024   27.3578   42.7630 H   0  0  0  0  0  0  0  0  0  0  0  0
   56.8916   32.5873   47.6288 H   0  0  0  0  0  0  0  0  0  0  0  0
   58.6936   33.6866   48.9457 H   0  0  0  0  0  0  0  0  0  0  0  0
   61.8409   35.1428   50.4778 H   0  0  0  0  0  0  0  0  0  0  0  0
   63.8700   33.9960   51.3600 H   0  0  0  0  0  0  0  0  0  0  0  0
  1  2  1  0
  2  3  2  0
  3  4  1  0
  4  5  2  0
  5  6  1  0
  6  7  1  0
  7  8  2  0
  8  9  1  0
  9 10  2  0
 10 11  1  0
 11 12  1  0
 12 13  2  0
 12 14  2  0
 12 15  1  0
 15 16  2  0
 16 17  1  0
 17 18  1  0
 17 19  2  0
 19 20  1  0
 20 21  2  0
 21 22  1  0
 10 23  1  0
 23 24  2  0
  5 25  1  0
 25 26  2  0
 26  2  1  0
 24  7  1  0
 21 15  1  0
  1 27  1  0
  1 28  1  0
  1 29  1  0
  3 30  1  0
  4 31  1  0
  8 32  1  0
  9 33  1  0
 11 34  1  0
 16 35  1  0
 18 36  1  0
 18 37  1  0
 18 38  1  0
 19 39  1  0
 20 40  1  0
 22 41  1  0
 22 42  1  0
 22 43  1  0
 23 44  1  0
 24 45  1  0
 25 46  1  0
 26 47  1  0
M  END
>  <UniqueID>  (62) 
57

>  <SMILES>  (62) 
Cc1ccc(Oc2ccc(NS(=O)(=O)c3cc(C)ccc3C)cc2)cc1

>  <Energy>  (62) 
58.388521858472025

>  <Genealogy>  (62) 
Cc1ccc(Oc2ccc(NS(=O)(=O)c3cc(C)ccc3C)cc2)cc1 (3D coordinates assigned)
Cc1ccc(Oc2ccc(NS(=O)(=O)c3cc(C)ccc3C)cc2)cc1 (optimized conformer: 58.388521858472025 kcal/mol)

>  <smiles>  (62) 
Cc1ccc(Oc2ccc(NS(=O)(=O)c3cc(C)ccc3C)cc2)cc1

>  <score_type>  (62) 
oracle

>  <origin>  (62) 
adg

>  <m_score__min__energy>  (62) 
-9.0999999999999996

>  <m_primary>  (62) 
energy

$$$$
62:0
     RDKit          3D

 37 38  0  0  0  0  0  0  0  0999 V2000
   55.9040   25.1380   47.4910 O   0  0  0  0  0  0  0  0  0  0  0  0
   55.5280   25.3840   46.0560 S   0  0  0  0  0  0  0  0  0  0  0  0
   54.0330   25.3100   45.9370 O   0  0  0  0  0  0  0  0  0  0  0  0
   56.0590   26.9670   45.5760 N   0  0  0  0  0  0  0  0  0  0  0  0
   57.3150   27.2960   46.2490 C   0  0  0  0  0  0  0  0  0  0  0  0
   58.1700   28.2020   45.3530 C   0  0  0  0  0  0  0  0  0  0  0  0
   57.5790   28.4070   44.0190 N   0  0  0  0  0  0  0  0  0  0  0  0
   56.5340   29.7990   43.9880 S   0  0  0  0  0  0  0  0  0  0  0  0
   56.0750   30.0410   42.5780 O   0  0  0  0  0  0  0  0  0  0  0  0
   55.3310   29.5530   44.8570 O   0  0  0  0  0  0  0  0  0  0  0  0
   57.4080   31.2210   44.5520 C   0  0  0  0  0  0  0  0  0  0  0  0
   57.7420   32.2520   43.6620 C   0  0  0  0  0  0  0  0  0  0  0  0
   58.4350   33.3780   44.1200 C   0  0  0  0  0  0  0  0  0  0  0  0
   58.7990   33.4770   45.4670 C   0  0  0  0  0  0  0  0  0  0  0  0
   59.6670   34.8890   46.0400 Cl  0  0  0  0  0  0  0  0  0  0  0  0
   58.4710   32.4480   46.3560 C   0  0  0  0  0  0  0  0  0  0  0  0
   57.7790   31.3220   45.8990 C   0  0  0  0  0  0  0  0  0  0  0  0
   56.2510   24.1550   45.0210 C   0  0  0  0  0  0  0  0  0  0  0  0
   55.5870   23.7160   43.8650 C   0  0  0  0  0  0  0  0  0  0  0  0
   56.1590   22.7270   43.0590 C   0  0  0  0  0  0  0  0  0  0  0  0
   57.3930   22.1680   43.4060 C   0  0  0  0  0  0  0  0  0  0  0  0
   57.9460   21.2080   42.6240 F   0  0  0  0  0  0  0  0  0  0  0  0
   58.0550   22.5970   44.5600 C   0  0  0  0  0  0  0  0  0  0  0  0
   57.4850   23.5870   45.3680 C   0  0  0  0  0  0  0  0  0  0  0  0
   57.0967   27.8181   47.1923 H   0  0  0  0  0  0  0  0  0  0  0  0
   57.8677   26.3675   46.4552 H   0  0  0  0  0  0  0  0  0  0  0  0
   58.2782   29.1805   45.8437 H   0  0  0  0  0  0  0  0  0  0  0  0
   59.1420   27.7066   45.2122 H   0  0  0  0  0  0  0  0  0  0  0  0
   57.0190   27.5740   43.7260 H   0  0  0  0  0  0  0  0  0  0  0  0
   57.4587   32.1754   42.6019 H   0  0  0  0  0  0  0  0  0  0  0  0
   58.6938   34.1862   43.4201 H   0  0  0  0  0  0  0  0  0  0  0  0
   58.7576   32.5246   47.4152 H   0  0  0  0  0  0  0  0  0  0  0  0
   57.5251   30.5129   46.5996 H   0  0  0  0  0  0  0  0  0  0  0  0
   54.6142   24.1511   43.5924 H   0  0  0  0  0  0  0  0  0  0  0  0
   55.6380   22.3884   42.1513 H   0  0  0  0  0  0  0  0  0  0  0  0
   59.0250   22.1559   44.8332 H   0  0  0  0  0  0  0  0  0  0  0  0
   58.0062   23.9204   46.2775 H   0  0  0  0  0  0  0  0  0  0  0  0
  1  2  2  0
  2  3  2  0
  2  4  1  0
  4  5  1  0
  5  6  1  0
  6  7  1  0
  7  8  1  0
  8  9  2  0
  8 10  2  0
  8 11  1  0
 11 12  2  0
 12 13  1  0
 13 14  2  0
 14 15  1  0
 14 16  1  0
 16 17  2  0
  2 18  1  0
 18 19  2  0
 19 20  1  0
 20 21  2  0
 21 22  1  0
 21 23  1  0
 23 24  2  0
 17 11  1  0
 24 18  1  0
  5 25  1  0
  5 26  1  0
  6 27  1  0
  6 28  1  0
  7 29  1  0
 12 30  1  0
 13 31  1  0
 16 32  1  0
 17 33  1  0
 19 34  1  0
 20 35  1  0
 23 36  1  0
 24 37  1  0
M  CHG  1   4  -1
M  END
>  <UniqueID>  (63) 
58

>  <SMILES>  (63) 
O=S(=O)([N-]CCNS(=O)(=O)c1ccc(Cl)cc1)c1ccc(F)cc1

>  <Energy>  (63) 
34.55126016260432

>  <Genealogy>  (63) 
O=S(=O)([N-]CCNS(=O)(=O)c1ccc(Cl)cc1)c1ccc(F)cc1 (protonated)
O=S(=O)([N-]CCNS(=O)(=O)c1ccc(Cl)cc1)c1ccc(F)cc1 (3D coordinates assigned)
O=S(=O)([N-]CCNS(=O)(=O)c1ccc(Cl)cc1)c1ccc(F)cc1 (optimized conformer: 34.55126016260432 kcal/mol)

>  <smiles>  (63) 
O=S(=O)(NCCNS(=O)(=O)c1ccc(Cl)cc1)c1ccc(F)cc1

>  <score_type>  (63) 
oracle

>  <origin>  (63) 
adg

>  <m_score__min__energy>  (63) 
-10.98

>  <m_primary>  (63) 
energy

$$$$
63:0
     RDKit          3D

 62 66  0  0  0  0  0  0  0  0999 V2000
   58.3342   33.6273   56.0573 H   0  0  0  0  0  0  0  0  0  0  0  0
   58.8950   34.2130   55.3140 C   0  0  0  0  0  0  0  0  0  0  0  0
   59.2630   35.4570   55.6630 C   0  0  0  0  0  0  0  0  0  0  0  0
   59.8804   35.5736   56.5659 H   0  0  0  0  0  0  0  0  0  0  0  0
   58.8910   36.6970   54.9080 C   0  0  0  0  0  0  0  0  0  0  0  0
   58.6499   37.5008   55.6192 H   0  0  0  0  0  0  0  0  0  0  0  0
   59.7353   37.0082   54.2753 H   0  0  0  0  0  0  0  0  0  0  0  0
   58.0148   36.4921   54.2753 H   0  0  0  0  0  0  0  0  0  0  0  0
   59.1800   33.5620   54.0130 C   0  0  0  0  0  0  0  0  0  0  0  0
   58.3460   32.5270   53.5680 C   0  0  0  0  0  0  0  0  0  0  0  0
   57.4468   32.2624   54.1437 H   0  0  0  0  0  0  0  0  0  0  0  0
   58.6430   31.8500   52.4300 N   0  0  0  0  0  0  0  0  0  0  0  0
   59.7370   32.1510   51.6750 C   0  0  0  0  0  0  0  0  0  0  0  0
   60.5970   33.1740   52.0750 C   0  0  0  0  0  0  0  0  0  0  0  0
   60.3320   33.8580   53.2710 C   0  0  0  0  0  0  0  0  0  0  0  0
   61.0306   34.6292   53.6277 H   0  0  0  0  0  0  0  0  0  0  0  0
   61.8440   33.4290   51.3410 C   0  0  0  0  0  0  0  0  0  0  0  0
   62.9210   33.4780   52.0000 O   0  0  0  0  0  0  0  0  0  0  0  0
   61.8550   33.6870   49.9160 N   0  0  0  0  0  0  0  0  0  0  0  0
   62.9090   34.5800   49.4060 C   0  0  0  0  0  0  0  0  0  0  0  0
   63.4455   35.0345   50.2519 H   0  0  0  0  0  0  0  0  0  0  0  0
   63.6150   34.0010   48.7926 H   0  0  0  0  0  0  0  0  0  0  0  0
   62.4538   35.3715   48.7926 H   0  0  0  0  0  0  0  0  0  0  0  0
   60.8410   33.1850   48.9890 C   0  0  0  0  0  0  0  0  0  0  0  0
   60.0620   32.0250   49.2390 C   0  0  0  0  0  0  0  0  0  0  0  0
   59.2620   31.5320   48.2550 N   0  0  0  0  0  0  0  0  0  0  0  0
   59.1670   32.1090   47.0340 C   0  0  0  0  0  0  0  0  0  0  0  0
   58.4120   31.6110   46.1000 N   0  0  0  0  0  0  0  0  0  0  0  0
   58.0560   30.2350   45.8500 C   0  0  0  0  0  0  0  0  0  0  0  0
   56.9590   29.8570   45.0510 C   0  0  0  0  0  0  0  0  0  0  0  0
   56.3556   30.6284   44.5502 H   0  0  0  0  0  0  0  0  0  0  0  0
   56.6330   28.5070   44.8910 C   0  0  0  0  0  0  0  0  0  0  0  0
   55.8018   28.2203   44.2300 H   0  0  0  0  0  0  0  0  0  0  0  0
   57.3570   27.5180   45.5660 C   0  0  0  0  0  0  0  0  0  0  0  0
   56.9840   26.1410   45.4050 N   0  0  0  0  0  0  0  0  0  0  0  0
   57.6170   25.5290   44.8380 H   0  0  0  0  0  0  0  0  0  0  0  0
   55.6630   25.6510   45.6670 C   0  0  0  0  0  0  0  0  0  0  0  0
   54.8350   26.3450   46.3190 O   0  0  0  0  0  0  0  0  0  0  0  0
   55.3010   24.3480   45.1950 N   0  0  0  0  0  0  0  0  0  0  0  0
   56.1750   23.3780   44.5920 C   0  0  0  0  0  0  0  0  0  0  0  0
   55.8660   22.9110   43.3080 C   0  0  0  0  0  0  0  0  0  0  0  0
   54.9882   23.3110   42.7793 H   0  0  0  0  0  0  0  0  0  0  0  0
   56.6630   21.9410   42.6920 C   0  0  0  0  0  0  0  0  0  0  0  0
   56.4183   21.5922   41.6779 H   0  0  0  0  0  0  0  0  0  0  0  0
   57.7700   21.4140   43.3630 C   0  0  0  0  0  0  0  0  0  0  0  0
   58.4038   20.6596   42.8739 H   0  0  0  0  0  0  0  0  0  0  0  0
   58.0690   21.8480   44.6560 C   0  0  0  0  0  0  0  0  0  0  0  0
   58.9340   21.4260   45.1887 H   0  0  0  0  0  0  0  0  0  0  0  0
   57.2730   22.8180   45.2780 C   0  0  0  0  0  0  0  0  0  0  0  0
   57.5420   23.1470   46.5650 F   0  0  0  0  0  0  0  0  0  0  0  0
   58.4400   27.8900   46.3740 C   0  0  0  0  0  0  0  0  0  0  0  0
   59.0254   27.1188   46.8961 H   0  0  0  0  0  0  0  0  0  0  0  0
   58.7780   29.2380   46.5180 C   0  0  0  0  0  0  0  0  0  0  0  0
   59.6222   29.5199   47.1645 H   0  0  0  0  0  0  0  0  0  0  0  0
   59.8550   33.2480   46.7900 N   0  0  0  0  0  0  0  0  0  0  0  0
   60.6750   33.7920   47.7240 C   0  0  0  0  0  0  0  0  0  0  0  0
   61.2189   34.7198   47.4929 H   0  0  0  0  0  0  0  0  0  0  0  0
   60.0440   31.3690   50.5160 N   0  0  0  0  0  0  0  0  0  0  0  0
   59.8480   29.9200   50.5720 C   0  0  0  0  0  0  0  0  0  0  0  0
   59.8042   29.5962   51.6224 H   0  0  0  0  0  0  0  0  0  0  0  0
   58.9062   29.6576   50.0679 H   0  0  0  0  0  0  0  0  0  0  0  0
   60.6863   29.4168   50.0679 H   0  0  0  0  0  0  0  0  0  0  0  0
  1  2  1  0
  2  3  2  0
  3  4  1  0
  3  5  1  0
  5  6  1  0
  5  7  1  0
  5  8  1  0
  2  9  1  0
  9 10  2  0
 10 11  1  0
 10 12  1  0
 12 13  2  0
 13 14  1  0
 14 15  2  0
 15 16  1  0
 14 17  1  0
 17 18  2  0
 17 19  1  0
 19 20  1  0
 20 21  1  0
 20 22  1  0
 20 23  1  0
 19 24  1  0
 24 25  1  0
 25 26  2  0
 26 27  1  0
 27 28  2  3
 28 29  1  0
 29 30  2  0
 30 31  1  0
 30 32  1  0
 32 33  1  0
 32 34  2  0
 34 35  1  0
 35 36  1  0
 35 37  1  0
 37 38  2  0
 37 39  1  0
 39 40  1  0
 40 41  2  0
 41 42  1  0
 41 43  1  0
 43 44  1  0
 43 45  2  0
 45 46  1  0
 45 47  1  0
 47 48  1  0
 47 49  2  0
 49 50  1  0
 34 51  1  0
 51 52  1  0
 51 53  2  0
 53 54  1  0
 27 55  1  0
 55 56  1  0
 56 57  1  0
 25 58  1  0
 58 59  1  0
 59 60  1  0
 59 61  1  0
 59 62  1  0
 15  9  1  0
 56 24  2  0
 58 13  1  0
 53 29  1  0
 49 40  1  0
M  CHG  2  39  -1  55  -1
M  END
>  <UniqueID>  (64) 
59

>  <SMILES>  (64) 
C/C=C\c1cnc2c(c1)C(=O)N(C)c1c[n-]c(=Nc3ccc(NC(=O)[N-]c4ccccc4F)cc3)nc1N2C

>  <Energy>  (64) 
115.07927858528511

>  <Genealogy>  (64) 
CC=Cc1cnc2c(c1)C(=O)N(C)c1c[n-]c(=Nc3ccc(NC(=O)[N-]c4ccccc4F)cc3)nc1N2C (protonated)
C/C=C\c1cnc2c(c1)C(=O)N(C)c1c[n-]c(=Nc3ccc(NC(=O)[N-]c4ccccc4F)cc3)nc1N2C (cis-trans isomerization)
C/C=C\c1cnc2c(c1)C(=O)N(C)c1c[n-]c(=Nc3ccc(NC(=O)[N-]c4ccccc4F)cc3)nc1N2C (3D coordinates assigned)
C/C=C\c1cnc2c(c1)C(=O)N(C)c1c[n-]c(=Nc3ccc(NC(=O)[N-]c4ccccc4F)cc3)nc1N2C (nonaromatic ring conformer: 115.07927858528511 kcal/mol)

>  <smiles>  (64) 
CC=Cc1cnc2c(c1)C(=O)N(C)c1c[nH]c(=Nc3ccc(NC(=O)Nc4ccccc4F)cc3)nc1N2C

>  <score_type>  (64) 
oracle

>  <origin>  (64) 
adg

>  <m_score__min__energy>  (64) 
-10.41

>  <m_primary>  (64) 
energy

$$$$
64:0
     RDKit          3D

 51 53  0  0  0  0  0  0  0  0999 V2000
   54.8510   29.5090   45.8750 H   0  0  0  0  0  0  0  0  0  0  0  0
   55.1360   29.3170   44.8890 N   0  0  0  0  0  0  0  0  0  0  0  0
   56.8530   29.1190   44.8870 S   0  0  0  0  0  0  0  0  0  0  0  0
   57.5010   30.3980   45.3310 O   0  0  0  0  0  0  0  0  0  0  0  0
   57.2940   28.7910   43.4890 O   0  0  0  0  0  0  0  0  0  0  0  0
   57.3180   27.8170   45.9830 C   0  0  0  0  0  0  0  0  0  0  0  0
   58.5770   27.8460   46.5990 C   0  0  0  0  0  0  0  0  0  0  0  0
   59.2817   28.6556   46.3582 H   0  0  0  0  0  0  0  0  0  0  0  0
   58.9490   26.8520   47.5210 C   0  0  0  0  0  0  0  0  0  0  0  0
   60.2520   26.9180   48.2270 C   0  0  0  0  0  0  0  0  0  0  0  0
   61.3040   26.6050   47.6100 O   0  0  0  0  0  0  0  0  0  0  0  0
   60.3620   27.3680   49.5860 N   0  0  0  0  0  0  0  0  0  0  0  0
   60.5800   28.7200   50.0190 C   0  0  0  0  0  0  0  0  0  0  0  0
   60.2790   29.0660   51.3420 C   0  0  0  0  0  0  0  0  0  0  0  0
   59.8566   28.3122   52.0228 H   0  0  0  0  0  0  0  0  0  0  0  0
   60.5130   30.3650   51.8010 C   0  0  0  0  0  0  0  0  0  0  0  0
   60.2804   30.6282   52.8434 H   0  0  0  0  0  0  0  0  0  0  0  0
   61.0410   31.3300   50.9410 C   0  0  0  0  0  0  0  0  0  0  0  0
   61.2418   32.3460   51.3117 H   0  0  0  0  0  0  0  0  0  0  0  0
   61.3150   31.0050   49.6070 C   0  0  0  0  0  0  0  0  0  0  0  0
   61.9740   32.2120   48.5090 S   0  0  0  0  0  0  0  0  0  0  0  0
   61.5860   33.5970   48.9460 O   0  0  0  0  0  0  0  0  0  0  0  0
   63.4730   32.1030   48.5140 O   0  0  0  0  0  0  0  0  0  0  0  0
   61.3900   31.9330   46.8970 N   0  0  0  0  0  0  0  0  0  0  0  0
   61.8900   31.2050   46.3360 H   0  0  0  0  0  0  0  0  0  0  0  0
   60.3960   32.5880   46.3650 C   0  0  0  0  0  0  0  0  0  0  0  0
   59.0700   32.0410   46.3310 N   0  0  0  0  0  0  0  0  0  0  0  0
   58.9450   31.0600   45.9950 H   0  0  0  0  0  0  0  0  0  0  0  0
   57.9580   32.6270   47.0820 C   0  0  0  0  0  0  0  0  0  0  0  0
   58.3594   33.0894   47.9958 H   0  0  0  0  0  0  0  0  0  0  0  0
   57.2512   31.8139   47.3042 H   0  0  0  0  0  0  0  0  0  0  0  0
   57.1850   33.6990   46.2910 C   0  0  0  0  0  0  0  0  0  0  0  0
   56.6447   34.3416   47.0018 H   0  0  0  0  0  0  0  0  0  0  0  0
   56.4934   33.1805   45.6107 H   0  0  0  0  0  0  0  0  0  0  0  0
   58.1140   34.5800   45.4350 C   0  0  0  0  0  0  0  0  0  0  0  0
   57.5907   35.5227   45.2169 H   0  0  0  0  0  0  0  0  0  0  0  0
   58.3493   34.0031   44.5285 H   0  0  0  0  0  0  0  0  0  0  0  0
   59.4580   34.9180   46.1050 C   0  0  0  0  0  0  0  0  0  0  0  0
   59.3043   34.9152   47.1942 H   0  0  0  0  0  0  0  0  0  0  0  0
   59.7590   35.8968   45.7034 H   0  0  0  0  0  0  0  0  0  0  0  0
   60.6130   33.9570   45.7870 C   0  0  0  0  0  0  0  0  0  0  0  0
   61.5427   34.3725   46.2030 H   0  0  0  0  0  0  0  0  0  0  0  0
   60.6709   33.8534   44.6934 H   0  0  0  0  0  0  0  0  0  0  0  0
   61.0690   29.7070   49.1440 C   0  0  0  0  0  0  0  0  0  0  0  0
   61.2592   29.4574   48.0897 H   0  0  0  0  0  0  0  0  0  0  0  0
   58.0660   25.7880   47.7670 C   0  0  0  0  0  0  0  0  0  0  0  0
   58.3543   24.9894   48.4664 H   0  0  0  0  0  0  0  0  0  0  0  0
   56.8250   25.7370   47.1300 C   0  0  0  0  0  0  0  0  0  0  0  0
   56.1428   24.8969   47.3271 H   0  0  0  0  0  0  0  0  0  0  0  0
   56.4450   26.7480   46.2430 C   0  0  0  0  0  0  0  0  0  0  0  0
   55.2030   26.6760   45.6230 O   0  0  0  0  0  0  0  0  0  0  0  0
  1  2  1  0
  2  3  1  0
  3  4  2  0
  3  5  2  0
  3  6  1  0
  6  7  2  0
  7  8  1  0
  7  9  1  0
  9 10  1  0
 10 11  2  0
 10 12  1  0
 12 13  1  0
 13 14  2  0
 14 15  1  0
 14 16  1  0
 16 17  1  0
 16 18  2  0
 18 19  1  0
 18 20  1  0
 20 21  1  0
 21 22  2  0
 21 23  2  0
 21 24  1  0
 24 25  1  0
 24 26  2  0
 26 27  1  0
 27 28  1  0
 27 29  1  0
 29 30  1  0
 29 31  1  0
 29 32  1  0
 32 33  1  0
 32 34  1  0
 32 35  1  0
 35 36  1  0
 35 37  1  0
 35 38  1  0
 38 39  1  0
 38 40  1  0
 38 41  1  0
 41 42  1  0
 41 43  1  0
 20 44  2  0
 44 45  1  0
  9 46  2  0
 46 47  1  0
 46 48  1  0
 48 49  1  0
 48 50  2  0
 50 51  1  0
 50  6  1  0
 44 13  1  0
 41 26  1  0
M  CHG  4   2  -1  12  -1  24   1  51  -1
M  END
>  <UniqueID>  (65) 
60

>  <SMILES>  (65) 
[NH-]S(=O)(=O)c1cc(C(=O)[N-]c2cccc(S(=O)(=O)/[NH+]=C3/CCCCCN3)c2)ccc1[O-]

>  <Energy>  (65) 
65.90529779892819

>  <Genealogy>  (65) 
[NH-]S(=O)(=O)c1cc(C(=O)[N-]c2cccc(S(=O)(=O)[NH+]=C3CCCCCN3)c2)ccc1[O-] (protonated)
[NH-]S(=O)(=O)c1cc(C(=O)[N-]c2cccc(S(=O)(=O)/[NH+]=C3/CCCCCN3)c2)ccc1[O-] (cis-trans isomerization)
[NH-]S(=O)(=O)c1cc(C(=O)[N-]c2cccc(S(=O)(=O)/[NH+]=C3/CCCCCN3)c2)ccc1[O-] (3D coordinates assigned)
[NH-]S(=O)(=O)c1cc(C(=O)[N-]c2cccc(S(=O)(=O)/[NH+]=C3/CCCCCN3)c2)ccc1[O-] (nonaromatic ring conformer: 65.90529779892819 kcal/mol)

>  <smiles>  (65) 
NS(=O)(=O)c1cc(C(=O)Nc2cccc(S(=O)(=O)N=C3CCCCCN3)c2)ccc1O

>  <score_type>  (65) 
oracle

>  <origin>  (65) 
adg

>  <m_score__min__energy>  (65) 
-12.949999999999999

>  <m_primary>  (65) 
energy

$$$$
65:0
     RDKit          3D

 66 69  0  0  0  0  0  0  0  0999 V2000
   58.8570   30.7460   44.5230 C   0  0  0  0  0  0  0  0  0  0  0  0
   57.9840   29.5900   44.9400 C   0  0  0  0  0  0  0  0  0  0  0  0
   56.6570   29.5650   44.5010 C   0  0  0  0  0  0  0  0  0  0  0  0
   55.8420   28.5530   44.8730 N   0  0  0  0  0  0  0  0  0  0  0  0
   56.2650   27.5330   45.6560 C   0  0  0  0  0  0  0  0  0  0  0  0
   55.3890   26.6280   45.9950 N   0  0  0  0  0  0  0  0  0  0  0  0
   55.5640   25.1790   46.1150 C   0  0  0  0  0  0  0  0  0  0  0  0
   55.5190   24.5330   44.7300 C   0  0  0  0  0  0  0  0  0  0  0  0
   56.6670   23.5790   44.5300 C   0  0  0  0  0  0  0  0  0  0  0  0
   57.8660   23.7480   45.2440 C   0  0  0  0  0  0  0  0  0  0  0  0
   58.9550   22.9010   45.0080 C   0  0  0  0  0  0  0  0  0  0  0  0
   58.8540   21.8770   44.0640 C   0  0  0  0  0  0  0  0  0  0  0  0
   57.6650   21.7000   43.3520 C   0  0  0  0  0  0  0  0  0  0  0  0
   56.5760   22.5500   43.5780 C   0  0  0  0  0  0  0  0  0  0  0  0
   57.6190   27.5210   46.0760 C   0  0  0  0  0  0  0  0  0  0  0  0
   58.0590   26.5740   46.7860 O   0  0  0  0  0  0  0  0  0  0  0  0
   58.4600   28.5470   45.7070 N   0  0  0  0  0  0  0  0  0  0  0  0
   59.8590   28.5300   46.1890 C   0  0  0  0  0  0  0  0  0  0  0  0
   60.0520   29.4500   47.3660 C   0  0  0  0  0  0  0  0  0  0  0  0
   61.1780   29.5210   47.9290 O   0  0  0  0  0  0  0  0  0  0  0  0
   58.9710   30.2370   47.8890 N   0  0  0  0  0  0  0  0  0  0  0  0
   59.0830   31.6090   48.3800 C   0  0  0  0  0  0  0  0  0  0  0  0
   58.8760   32.6010   47.2610 C   0  0  0  0  0  0  0  0  0  0  0  0
   57.6310   33.2470   47.1320 C   0  0  0  0  0  0  0  0  0  0  0  0
   57.4230   34.1890   46.1240 C   0  0  0  0  0  0  0  0  0  0  0  0
   58.4490   34.4870   45.2230 C   0  0  0  0  0  0  0  0  0  0  0  0
   59.6780   33.8380   45.3220 C   0  0  0  0  0  0  0  0  0  0  0  0
   59.9080   32.8990   46.3420 C   0  0  0  0  0  0  0  0  0  0  0  0
   61.1390   32.2370   46.4380 O   0  0  0  0  0  0  0  0  0  0  0  0
   62.1530   32.5470   47.3610 C   0  0  0  0  0  0  0  0  0  0  0  0
   63.0620   33.5660   47.0500 C   0  0  0  0  0  0  0  0  0  0  0  0
   64.1110   33.8730   47.9230 C   0  0  0  0  0  0  0  0  0  0  0  0
   64.2710   33.1510   49.1060 C   0  0  0  0  0  0  0  0  0  0  0  0
   63.3770   32.1200   49.4260 C   0  0  0  0  0  0  0  0  0  0  0  0
   63.6250   31.1650   50.8850 S   0  0  0  0  0  0  0  0  0  0  0  0
   62.6020   29.7700   50.8340 N   0  0  0  0  0  0  0  0  0  0  0  0
   65.0650   30.7370   50.9630 O   0  0  0  0  0  0  0  0  0  0  0  0
   63.2950   31.9830   52.1040 O   0  0  0  0  0  0  0  0  0  0  0  0
   62.3190   31.8210   48.5560 C   0  0  0  0  0  0  0  0  0  0  0  0
   59.2422   31.2561   45.4182 H   0  0  0  0  0  0  0  0  0  0  0  0
   59.6996   30.3715   43.9233 H   0  0  0  0  0  0  0  0  0  0  0  0
   58.2662   31.4540   43.9233 H   0  0  0  0  0  0  0  0  0  0  0  0
   56.2764   30.3684   43.8532 H   0  0  0  0  0  0  0  0  0  0  0  0
   56.5355   24.9666   46.5851 H   0  0  0  0  0  0  0  0  0  0  0  0
   54.7535   24.7663   46.7336 H   0  0  0  0  0  0  0  0  0  0  0  0
   54.5731   23.9818   44.6229 H   0  0  0  0  0  0  0  0  0  0  0  0
   55.5953   25.3289   43.9746 H   0  0  0  0  0  0  0  0  0  0  0  0
   57.9488   24.5501   45.9921 H   0  0  0  0  0  0  0  0  0  0  0  0
   59.8918   23.0422   45.5670 H   0  0  0  0  0  0  0  0  0  0  0  0
   59.7097   21.2104   43.8811 H   0  0  0  0  0  0  0  0  0  0  0  0
   57.5844   20.8904   42.6117 H   0  0  0  0  0  0  0  0  0  0  0  0
   55.6454   22.4117   43.0080 H   0  0  0  0  0  0  0  0  0  0  0  0
   60.1200   27.5049   46.4908 H   0  0  0  0  0  0  0  0  0  0  0  0
   60.5084   28.8767   45.3716 H   0  0  0  0  0  0  0  0  0  0  0  0
   58.3213   31.7771   49.1556 H   0  0  0  0  0  0  0  0  0  0  0  0
   60.0919   31.7524   48.7942 H   0  0  0  0  0  0  0  0  0  0  0  0
   56.8165   33.0070   47.8313 H   0  0  0  0  0  0  0  0  0  0  0  0
   56.4512   34.6973   46.0384 H   0  0  0  0  0  0  0  0  0  0  0  0
   58.2859   35.2357   44.4338 H   0  0  0  0  0  0  0  0  0  0  0  0
   60.4739   34.0622   44.5966 H   0  0  0  0  0  0  0  0  0  0  0  0
   62.9502   34.1294   46.1119 H   0  0  0  0  0  0  0  0  0  0  0  0
   64.8109   34.6850   47.6763 H   0  0  0  0  0  0  0  0  0  0  0  0
   65.0997   33.3911   49.7884 H   0  0  0  0  0  0  0  0  0  0  0  0
   61.8120   29.9460   51.4960 H   0  0  0  0  0  0  0  0  0  0  0  0
   62.1880   29.7310   49.8740 H   0  0  0  0  0  0  0  0  0  0  0  0
   61.6146   31.0147   48.8084 H   0  0  0  0  0  0  0  0  0  0  0  0
  1  2  1  0
  2  3  2  0
  3  4  1  0
  4  5  1  0
  5  6  2  3
  6  7  1  0
  7  8  1  0
  8  9  1  0
  9 10  2  0
 10 11  1  0
 11 12  2  0
 12 13  1  0
 13 14  2  0
  5 15  1  0
 15 16  2  0
 15 17  1  0
 17 18  1  0
 18 19  1  0
 19 20  2  0
 19 21  1  0
 21 22  1  0
 22 23  1  0
 23 24  2  0
 24 25  1  0
 25 26  2  0
 26 27  1  0
 27 28  2  0
 28 29  1  0
 29 30  1  0
 30 31  2  0
 31 32  1  0
 32 33  2  0
 33 34  1  0
 34 35  1  0
 35 36  1  0
 35 37  2  0
 35 38  2  0
 34 39  2  0
 17  2  1  0
 28 23  1  0
 39 30  1  0
 14  9  1  0
  1 40  1  0
  1 41  1  0
  1 42  1  0
  3 43  1  0
  7 44  1  0
  7 45  1  0
  8 46  1  0
  8 47  1  0
 10 48  1  0
 11 49  1  0
 12 50  1  0
 13 51  1  0
 14 52  1  0
 18 53  1  0
 18 54  1  0
 22 55  1  0
 22 56  1  0
 24 57  1  0
 25 58  1  0
 26 59  1  0
 27 60  1  0
 31 61  1  0
 32 62  1  0
 33 63  1  0
 36 64  1  0
 36 65  1  0
 39 66  1  0
M  CHG  2   4  -1  21  -1
M  END
>  <UniqueID>  (66) 
61

>  <SMILES>  (66) 
Cc1c[n-]c(=NCCc2ccccc2)c(=O)n1CC(=O)[N-]Cc1ccccc1Oc1cccc(S(N)(=O)=O)c1

>  <Energy>  (66) 
78.2657225318266

>  <Genealogy>  (66) 
Cc1c[n-]c(=NCCc2ccccc2)c(=O)n1CC(=O)[N-]Cc1ccccc1Oc1cccc(S(N)(=O)=O)c1 (protonated)
Cc1c[n-]c(=NCCc2ccccc2)c(=O)n1CC(=O)[N-]Cc1ccccc1Oc1cccc(S(N)(=O)=O)c1 (3D coordinates assigned)
Cc1c[n-]c(=NCCc2ccccc2)c(=O)n1CC(=O)[N-]Cc1ccccc1Oc1cccc(S(N)(=O)=O)c1 (optimized conformer: 78.2657225318266 kcal/mol)

>  <smiles>  (66) 
Cc1c[nH]c(=NCCc2ccccc2)c(=O)n1CC(=O)NCc1ccccc1Oc1cccc(S(N)(=O)=O)c1

>  <score_type>  (66) 
oracle

>  <origin>  (66) 
adg

>  <m_score__min__energy>  (66) 
-12.539999999999999

>  <m_primary>  (66) 
energy

$$$$
66:0
     RDKit          3D

 48 50  0  0  0  0  0  0  0  0999 V2000
   55.4850   23.6200   46.7120 C   0  0  0  0  0  0  0  0  0  0  0  0
   56.2440   24.7950   47.1110 N   0  0  0  0  0  0  0  0  0  0  0  0
   56.2520   26.0110   46.3540 C   0  0  0  0  0  0  0  0  0  0  0  0
   55.1560   26.4850   45.9310 O   0  0  0  0  0  0  0  0  0  0  0  0
   57.5260   26.7220   46.0600 C   0  0  0  0  0  0  0  0  0  0  0  0
   58.7440   26.0260   46.2100 C   0  0  0  0  0  0  0  0  0  0  0  0
   59.9630   26.6570   45.9680 C   0  0  0  0  0  0  0  0  0  0  0  0
   59.9930   27.9970   45.5860 C   0  0  0  0  0  0  0  0  0  0  0  0
   58.8000   28.7050   45.4290 C   0  0  0  0  0  0  0  0  0  0  0  0
   57.5590   28.0770   45.6410 C   0  0  0  0  0  0  0  0  0  0  0  0
   56.3380   28.8250   45.5250 N   0  0  0  0  0  0  0  0  0  0  0  0
   55.9080   29.6030   44.3980 C   0  0  0  0  0  0  0  0  0  0  0  0
   54.7860   29.3790   43.8620 O   0  0  0  0  0  0  0  0  0  0  0  0
   56.7520   30.7210   43.9130 C   0  0  0  0  0  0  0  0  0  0  0  0
   56.9960   30.8870   42.5370 C   0  0  0  0  0  0  0  0  0  0  0  0
   57.7650   31.9590   42.0830 C   0  0  0  0  0  0  0  0  0  0  0  0
   58.3080   32.8730   42.9890 C   0  0  0  0  0  0  0  0  0  0  0  0
   58.0860   32.7230   44.3630 C   0  0  0  0  0  0  0  0  0  0  0  0
   58.6570   33.6880   45.2560 N   0  0  0  0  0  0  0  0  0  0  0  0
   58.5660   33.6250   46.9860 S   0  0  0  0  0  0  0  0  0  0  0  0
   57.1340   33.4520   47.4100 O   0  0  0  0  0  0  0  0  0  0  0  0
   59.1240   34.8910   47.5760 O   0  0  0  0  0  0  0  0  0  0  0  0
   59.5170   32.2330   47.5710 C   0  0  0  0  0  0  0  0  0  0  0  0
   60.9800   32.4710   47.3330 C   0  0  0  0  0  0  0  0  0  0  0  0
   61.4090   33.5960   46.6070 C   0  0  0  0  0  0  0  0  0  0  0  0
   62.7740   33.8320   46.4120 C   0  0  0  0  0  0  0  0  0  0  0  0
   63.7190   32.9520   46.9460 C   0  0  0  0  0  0  0  0  0  0  0  0
   63.3020   31.8380   47.6810 C   0  0  0  0  0  0  0  0  0  0  0  0
   61.9360   31.6000   47.8790 C   0  0  0  0  0  0  0  0  0  0  0  0
   57.3080   31.6440   44.8200 C   0  0  0  0  0  0  0  0  0  0  0  0
   55.1393   23.0849   47.6087 H   0  0  0  0  0  0  0  0  0  0  0  0
   54.6164   23.9306   46.1128 H   0  0  0  0  0  0  0  0  0  0  0  0
   56.1253   22.9560   46.1128 H   0  0  0  0  0  0  0  0  0  0  0  0
   58.7314   24.9713   46.5221 H   0  0  0  0  0  0  0  0  0  0  0  0
   60.9030   26.0964   46.0787 H   0  0  0  0  0  0  0  0  0  0  0  0
   60.9566   28.4968   45.4082 H   0  0  0  0  0  0  0  0  0  0  0  0
   58.8306   29.7650   45.1365 H   0  0  0  0  0  0  0  0  0  0  0  0
   56.5786   30.1685   41.8162 H   0  0  0  0  0  0  0  0  0  0  0  0
   57.9447   32.0851   41.0051 H   0  0  0  0  0  0  0  0  0  0  0  0
   58.9130   33.7148   42.6210 H   0  0  0  0  0  0  0  0  0  0  0  0
   59.3408   32.0991   48.6485 H   0  0  0  0  0  0  0  0  0  0  0  0
   59.2058   31.3298   47.0257 H   0  0  0  0  0  0  0  0  0  0  0  0
   60.6678   34.2939   46.1904 H   0  0  0  0  0  0  0  0  0  0  0  0
   63.1035   34.7106   45.8381 H   0  0  0  0  0  0  0  0  0  0  0  0
   64.7920   33.1358   46.7880 H   0  0  0  0  0  0  0  0  0  0  0  0
   64.0471   31.1482   48.1039 H   0  0  0  0  0  0  0  0  0  0  0  0
   61.6111   30.7273   48.4645 H   0  0  0  0  0  0  0  0  0  0  0  0
   57.1317   31.5195   45.8986 H   0  0  0  0  0  0  0  0  0  0  0  0
  1  2  1  0
  2  3  1  0
  3  4  2  0
  3  5  1  0
  5  6  2  0
  6  7  1  0
  7  8  2  0
  8  9  1  0
  9 10  2  0
 10 11  1  0
 11 12  1  0
 12 13  2  0
 12 14  1  0
 14 15  2  0
 15 16  1  0
 16 17  2  0
 17 18  1  0
 18 19  1  0
 19 20  1  0
 20 21  2  0
 20 22  2  0
 20 23  1  0
 23 24  1  0
 24 25  2  0
 25 26  1  0
 26 27  2  0
 27 28  1  0
 28 29  2  0
 18 30  2  0
 10  5  1  0
 30 14  1  0
 29 24  1  0
  1 31  1  0
  1 32  1  0
  1 33  1  0
  6 34  1  0
  7 35  1  0
  8 36  1  0
  9 37  1  0
 15 38  1  0
 16 39  1  0
 17 40  1  0
 23 41  1  0
 23 42  1  0
 25 43  1  0
 26 44  1  0
 27 45  1  0
 28 46  1  0
 29 47  1  0
 30 48  1  0
M  CHG  3   2  -1  11  -1  19  -1
M  END
>  <UniqueID>  (67) 
62

>  <SMILES>  (67) 
C[N-]C(=O)c1ccccc1[N-]C(=O)c1cccc([N-]S(=O)(=O)Cc2ccccc2)c1

>  <Energy>  (67) 
53.22483782598175

>  <Genealogy>  (67) 
C[N-]C(=O)c1ccccc1[N-]C(=O)c1cccc([N-]S(=O)(=O)Cc2ccccc2)c1 (protonated)
C[N-]C(=O)c1ccccc1[N-]C(=O)c1cccc([N-]S(=O)(=O)Cc2ccccc2)c1 (3D coordinates assigned)
C[N-]C(=O)c1ccccc1[N-]C(=O)c1cccc([N-]S(=O)(=O)Cc2ccccc2)c1 (optimized conformer: 53.22483782598175 kcal/mol)

>  <smiles>  (67) 
CNC(=O)c1ccccc1NC(=O)c1cccc(NS(=O)(=O)Cc2ccccc2)c1

>  <score_type>  (67) 
oracle

>  <origin>  (67) 
adg

>  <m_score__min__energy>  (67) 
-15.27

>  <m_primary>  (67) 
energy

$$$$
67:0
     RDKit          3D

 38 41  0  0  0  0  0  0  0  0999 V2000
   62.6130   33.8280   46.0060 O   0  0  0  0  0  0  0  0  0  0  0  0
   62.6570   33.3170   47.1540 C   0  0  0  0  0  0  0  0  0  0  0  0
   63.7710   32.3630   47.4770 C   0  0  0  0  0  0  0  0  0  0  0  0
   64.2320   32.5750   48.9160 C   0  0  0  0  0  0  0  0  0  0  0  0
   63.1180   32.5470   49.8060 O   0  0  0  0  0  0  0  0  0  0  0  0
   61.9060   33.1820   49.5040 C   0  0  0  0  0  0  0  0  0  0  0  0
   60.9750   33.3740   50.5200 C   0  0  0  0  0  0  0  0  0  0  0  0
   59.7770   34.0180   50.2380 C   0  0  0  0  0  0  0  0  0  0  0  0
   59.5100   34.4470   48.9780 N   0  0  0  0  0  0  0  0  0  0  0  0
   60.3820   34.2620   47.9410 C   0  0  0  0  0  0  0  0  0  0  0  0
   59.9750   34.7740   46.5740 C   0  0  0  0  0  0  0  0  0  0  0  0
   59.2430   33.7270   45.7680 C   0  0  0  0  0  0  0  0  0  0  0  0
   58.6650   34.0500   44.5280 C   0  0  0  0  0  0  0  0  0  0  0  0
   57.9590   33.0890   43.7990 C   0  0  0  0  0  0  0  0  0  0  0  0
   57.8030   31.7920   44.3070 C   0  0  0  0  0  0  0  0  0  0  0  0
   57.0980   30.8200   43.5820 C   0  0  0  0  0  0  0  0  0  0  0  0
   56.9420   29.5320   44.1030 C   0  0  0  0  0  0  0  0  0  0  0  0
   57.4860   29.2070   45.3490 C   0  0  0  0  0  0  0  0  0  0  0  0
   58.1910   30.1670   46.0800 C   0  0  0  0  0  0  0  0  0  0  0  0
   58.3550   31.4640   45.5670 C   0  0  0  0  0  0  0  0  0  0  0  0
   59.0610   32.4350   46.2930 C   0  0  0  0  0  0  0  0  0  0  0  0
   61.6270   33.6130   48.1910 C   0  0  0  0  0  0  0  0  0  0  0  0
   63.4134   31.3297   47.3566 H   0  0  0  0  0  0  0  0  0  0  0  0
   64.6145   32.5451   46.7948 H   0  0  0  0  0  0  0  0  0  0  0  0
   64.9362   31.7763   49.1920 H   0  0  0  0  0  0  0  0  0  0  0  0
   64.7235   33.5562   48.9915 H   0  0  0  0  0  0  0  0  0  0  0  0
   61.1862   33.0183   51.5393 H   0  0  0  0  0  0  0  0  0  0  0  0
   59.0413   34.1811   51.0393 H   0  0  0  0  0  0  0  0  0  0  0  0
   58.5980   34.9320   48.8140 H   0  0  0  0  0  0  0  0  0  0  0  0
   59.3167   35.6457   46.7036 H   0  0  0  0  0  0  0  0  0  0  0  0
   60.8909   35.0423   46.0271 H   0  0  0  0  0  0  0  0  0  0  0  0
   58.7694   35.0692   44.1275 H   0  0  0  0  0  0  0  0  0  0  0  0
   57.5243   33.3514   42.8232 H   0  0  0  0  0  0  0  0  0  0  0  0
   56.6670   31.0716   42.6017 H   0  0  0  0  0  0  0  0  0  0  0  0
   56.3896   28.7722   43.5308 H   0  0  0  0  0  0  0  0  0  0  0  0
   57.3588   28.1927   45.7553 H   0  0  0  0  0  0  0  0  0  0  0  0
   58.6184   29.9062   47.0594 H   0  0  0  0  0  0  0  0  0  0  0  0
   59.4754   32.1838   47.2805 H   0  0  0  0  0  0  0  0  0  0  0  0
  1  2  2  0
  2  3  1  0
  3  4  1  0
  4  5  1  0
  5  6  1  0
  6  7  2  0
  7  8  1  0
  8  9  2  0
  9 10  1  0
 10 11  1  0
 11 12  1  0
 12 13  2  0
 13 14  1  0
 14 15  2  0
 15 16  1  0
 16 17  2  0
 17 18  1  0
 18 19  2  0
 19 20  1  0
 20 21  2  0
 10 22  2  0
 22  2  1  0
 22  6  1  0
 21 12  1  0
 20 15  1  0
  3 23  1  0
  3 24  1  0
  4 25  1  0
  4 26  1  0
  7 27  1  0
  8 28  1  0
  9 29  1  0
 11 30  1  0
 11 31  1  0
 13 32  1  0
 14 33  1  0
 16 34  1  0
 17 35  1  0
 18 36  1  0
 19 37  1  0
 21 38  1  0
M  CHG  1   9   1
M  END
>  <UniqueID>  (68) 
63

>  <SMILES>  (68) 
O=C1CCOc2cc[nH+]c(Cc3ccc4ccccc4c3)c21

>  <Energy>  (68) 
49.93027468743677

>  <Genealogy>  (68) 
O=C1CCOc2cc[nH+]c(Cc3ccc4ccccc4c3)c21 (protonated)
O=C1CCOc2cc[nH+]c(Cc3ccc4ccccc4c3)c21 (3D coordinates assigned)
O=C1CCOc2cc[nH+]c(Cc3ccc4ccccc4c3)c21 (nonaromatic ring conformer: 49.93027468743677 kcal/mol)

>  <smiles>  (68) 
O=C1CCOc2ccnc(Cc3ccc4ccccc4c3)c21

>  <score_type>  (68) 
oracle

>  <origin>  (68) 
adg

>  <m_score__min__energy>  (68) 
-6.54

>  <m_primary>  (68) 
energy

$$$$
68:0
     RDKit          3D

 37 39  0  0  0  0  0  0  0  0999 V2000
   60.7560   27.1880   49.6830 O   0  0  0  0  0  0  0  0  0  0  0  0
   60.4710   28.2580   49.1060 C   0  0  0  0  0  0  0  0  0  0  0  0
   61.0190   29.5100   49.7430 C   0  0  0  0  0  0  0  0  0  0  0  0
   59.6800   30.6690   50.0390 S   0  0  0  0  0  0  0  0  0  0  0  0
   59.2420   31.4730   48.5080 C   0  0  0  0  0  0  0  0  0  0  0  0
   58.4840   30.8400   47.5800 N   0  0  0  0  0  0  0  0  0  0  0  0
   58.1820   31.4820   46.4470 C   0  0  0  0  0  0  0  0  0  0  0  0
   57.4880   30.9310   45.5760 O   0  0  0  0  0  0  0  0  0  0  0  0
   58.6230   32.7630   46.2140 C   0  0  0  0  0  0  0  0  0  0  0  0
   58.3030   33.4010   45.0520 C   0  0  0  0  0  0  0  0  0  0  0  0
   58.7650   34.6890   44.8470 C   0  0  0  0  0  0  0  0  0  0  0  0
   59.5400   35.3240   45.8070 C   0  0  0  0  0  0  0  0  0  0  0  0
   59.8620   34.6670   46.9880 C   0  0  0  0  0  0  0  0  0  0  0  0
   59.3960   33.3930   47.1710 C   0  0  0  0  0  0  0  0  0  0  0  0
   59.6810   32.7280   48.2890 N   0  0  0  0  0  0  0  0  0  0  0  0
   59.6950   28.3320   47.9370 N   0  0  0  0  0  0  0  0  0  0  0  0
   59.1240   27.2450   47.2420 C   0  0  0  0  0  0  0  0  0  0  0  0
   59.9910   26.3270   46.6730 C   0  0  0  0  0  0  0  0  0  0  0  0
   59.5070   25.2380   45.9790 C   0  0  0  0  0  0  0  0  0  0  0  0
   58.1600   24.9980   45.8080 C   0  0  0  0  0  0  0  0  0  0  0  0
   57.2930   25.9080   46.3700 C   0  0  0  0  0  0  0  0  0  0  0  0
   55.8770   25.7320   46.2400 N   0  0  0  0  0  0  0  0  0  0  0  0
   55.1590   26.7100   45.9800 O   0  0  0  0  0  0  0  0  0  0  0  0
   55.3380   24.4830   46.4040 O   0  0  0  0  0  0  0  0  0  0  0  0
   57.7880   27.0140   47.0770 C   0  0  0  0  0  0  0  0  0  0  0  0
   61.5002   29.2544   50.6986 H   0  0  0  0  0  0  0  0  0  0  0  0
   61.7584   29.9692   49.0704 H   0  0  0  0  0  0  0  0  0  0  0  0
   57.6877   32.8999   44.2902 H   0  0  0  0  0  0  0  0  0  0  0  0
   58.5154   35.2149   43.9136 H   0  0  0  0  0  0  0  0  0  0  0  0
   59.8998   36.3488   45.6327 H   0  0  0  0  0  0  0  0  0  0  0  0
   60.4762   35.1584   47.7570 H   0  0  0  0  0  0  0  0  0  0  0  0
   60.2630   33.1860   49.0250 H   0  0  0  0  0  0  0  0  0  0  0  0
   59.5350   29.3170   47.5590 H   0  0  0  0  0  0  0  0  0  0  0  0
   61.0771   26.4680   46.7757 H   0  0  0  0  0  0  0  0  0  0  0  0
   60.2270   24.5299   45.5428 H   0  0  0  0  0  0  0  0  0  0  0  0
   57.7960   24.1226   45.2501 H   0  0  0  0  0  0  0  0  0  0  0  0
   57.0714   27.7237   47.5161 H   0  0  0  0  0  0  0  0  0  0  0  0
  1  2  2  0
  2  3  1  0
  3  4  1  0
  4  5  1  0
  5  6  2  0
  6  7  1  0
  7  8  2  0
  7  9  1  0
  9 10  2  0
 10 11  1  0
 11 12  2  0
 12 13  1  0
 13 14  2  0
 14 15  1  0
  2 16  1  0
 16 17  1  0
 17 18  2  0
 18 19  1  0
 19 20  2  0
 20 21  1  0
 21 22  1  0
 22 23  2  0
 22 24  1  0
 21 25  2  0
 15  5  1  0
 25 17  1  0
 14  9  1  0
  3 26  1  0
  3 27  1  0
 10 28  1  0
 11 29  1  0
 12 30  1  0
 13 31  1  0
 15 32  1  0
 16 33  1  0
 18 34  1  0
 19 35  1  0
 20 36  1  0
 25 37  1  0
M  CHG  2  22   1  24  -1
M  END
>  <smiles>  (69) 
O=C(CSc1nc(=O)c2ccccc2[nH]1)Nc1cccc([N+](=O)[O-])c1

>  <score_type>  (69) 
oracle

>  <origin>  (69) 
adg

>  <m_score__min__energy>  (69) 
-9.5

>  <m_primary>  (69) 
energy

$$$$
69:0
     RDKit          3D

 51 54  0  0  1  0  0  0  0  0999 V2000
   56.0160   21.9470   42.5450 O   0  0  0  0  0  0  0  0  0  0  0  0
   56.3640   22.8120   43.5690 C   0  0  0  0  0  0  0  0  0  0  0  0
   55.4140   23.6710   44.0350 C   0  0  0  0  0  0  0  0  0  0  0  0
   55.7470   24.5320   45.0490 C   0  0  0  0  0  0  0  0  0  0  0  0
   57.0170   24.5660   45.6240 C   0  0  0  0  0  0  0  0  0  0  0  0
   57.2270   25.5470   46.7050 C   0  0  0  0  0  0  0  0  0  0  0  0
   58.4350   26.4290   46.3690 C   0  0  0  0  0  0  0  0  0  0  0  0
   58.4110   26.7290   44.9490 N   0  0  0  0  0  0  0  0  0  0  0  0
   58.0310   27.9000   44.5610 C   0  0  0  0  0  0  0  0  0  0  0  0
   58.2530   29.0280   45.2590 N   0  0  0  0  0  0  0  0  0  0  0  0
   57.7490   30.0920   44.6170 C   0  0  0  0  0  0  0  0  0  0  0  0
   57.8000   31.4790   45.0690 C   0  0  0  0  0  0  0  0  0  0  0  0
   57.4300   32.4920   44.2100 C   0  0  0  0  0  0  0  0  0  0  0  0
   57.4790   33.8020   44.6390 C   0  0  0  0  0  0  0  0  0  0  0  0
   57.8850   34.0400   45.8760 N   0  0  0  0  0  0  0  0  0  0  0  0
   58.2580   33.0990   46.7570 C   0  0  0  0  0  0  0  0  0  0  0  0
   58.6200   33.4420   47.8880 N   0  0  0  0  0  0  0  0  0  0  0  0
   59.7350   33.5820   48.6750 C   0  0  0  0  0  0  0  0  0  0  0  0
   61.1070   33.5730   48.1660 C   0  0  0  0  0  0  0  0  0  0  0  0
   62.1820   33.2430   49.0080 C   0  0  0  0  0  0  0  0  0  0  0  0
   63.4760   33.1910   48.5360 C   0  0  0  0  0  0  0  0  0  0  0  0
   63.7730   33.4610   47.2170 C   0  0  0  0  0  0  0  0  0  0  0  0
   62.7320   33.7890   46.3740 C   0  0  0  0  0  0  0  0  0  0  0  0
   61.4300   33.8460   46.8250 C   0  0  0  0  0  0  0  0  0  0  0  0
   58.2170   31.7810   46.3490 C   0  0  0  0  0  0  0  0  0  0  0  0
   57.1990   29.6000   43.4840 N   0  0  0  0  0  0  0  0  0  0  0  0
   57.3700   28.2680   43.4500 N   0  0  0  0  0  0  0  0  0  0  0  0
   57.9710   23.7030   45.1530 C   0  0  0  0  0  0  0  0  0  0  0  0
   57.6410   22.8300   44.1300 C   0  0  0  0  0  0  0  0  0  0  0  0
   56.2770   22.2100   41.5990 H   0  0  0  0  0  0  0  0  0  0  0  0
   54.4009   23.6736   43.6065 H   0  0  0  0  0  0  0  0  0  0  0  0
   54.9799   25.2251   45.4247 H   0  0  0  0  0  0  0  0  0  0  0  0
   56.3309   26.1766   46.8076 H   0  0  0  0  0  0  0  0  0  0  0  0
   57.4131   25.0160   47.6502 H   0  0  0  0  0  0  0  0  0  0  0  0
   58.3826   27.3641   46.9459 H   0  0  0  0  0  0  0  0  0  0  0  0
   59.3664   25.9029   46.6254 H   0  0  0  0  0  0  0  0  0  0  0  0
   57.0976   32.2568   43.1882 H   0  0  0  0  0  0  0  0  0  0  0  0
   57.1886   34.6264   43.9712 H   0  0  0  0  0  0  0  0  0  0  0  0
   57.9260   35.0160   46.2070 H   0  0  0  0  0  0  0  0  0  0  0  0
   59.6156   34.5462   49.1908 H   0  0  0  0  0  0  0  0  0  0  0  0
   59.7149   32.6343   49.2331 H   0  0  0  0  0  0  0  0  0  0  0  0
   61.9867   33.0212   50.0676 H   0  0  0  0  0  0  0  0  0  0  0  0
   64.2902   32.9281   49.2274 H   0  0  0  0  0  0  0  0  0  0  0  0
   64.8084   33.4162   46.8484 H   0  0  0  0  0  0  0  0  0  0  0  0
   62.9451   34.0102   45.3177 H   0  0  0  0  0  0  0  0  0  0  0  0
   60.6273   34.1106   46.1209 H   0  0  0  0  0  0  0  0  0  0  0  0
   58.5145   30.9777   47.0390 H   0  0  0  0  0  0  0  0  0  0  0  0
   56.7100   30.1540   42.7370 H   0  0  0  0  0  0  0  0  0  0  0  0
   57.0530   27.6070   42.6990 H   0  0  0  0  0  0  0  0  0  0  0  0
   58.9843   23.7035   45.5811 H   0  0  0  0  0  0  0  0  0  0  0  0
   58.4040   22.1342   43.7508 H   0  0  0  0  0  0  0  0  0  0  0  0
  1  2  1  0
  2  3  2  0
  3  4  1  0
  4  5  2  0
  5  6  1  0
  6  7  1  0
  7  8  1  0
  8  9  2  0
  9 10  1  0
 10 11  2  0
 11 12  1  0
 12 13  1  0
 13 14  2  0
 14 15  1  0
 15 16  1  0
 16 17  2  0
 17 18  1  0
 18 19  1  0
 19 20  2  0
 20 21  1  0
 21 22  2  0
 22 23  1  0
 23 24  2  0
 16 25  1  0
 11 26  1  0
 26 27  1  0
  5 28  1  0
 28 29  2  0
 29  2  1  0
 27  9  1  0
 25 12  2  0
 24 19  1  0
  1 30  1  0
  3 31  1  0
  4 32  1  0
  6 33  1  0
  6 34  1  0
  7 35  1  0
  7 36  1  0
 13 37  1  0
 14 38  1  0
 15 39  1  0
 18 40  1  0
 18 41  1  0
 20 42  1  0
 21 43  1  0
 22 44  1  0
 23 45  1  0
 24 46  1  0
 25 47  1  0
 26 48  1  0
 27 49  1  0
 28 50  1  0
 29 51  1  0
M  END
>  <smiles>  (70) 
Oc1ccc(CCN=c2nc(-c3cc[nH]c(=NCc4ccccc4)c3)[nH][nH]2)cc1

>  <score_type>  (70) 
oracle

>  <origin>  (70) 
adg

>  <m_score__min__energy>  (70) 
-9.8900000000000006

>  <m_primary>  (70) 
energy

$$$$
70:0
     RDKit          3D

 55 58  0  0  0  0  0  0  0  0999 V2000
   55.1810   27.0960   45.0450 H   0  0  0  0  0  0  0  0  0  0  0  0
   55.1430   26.6660   46.0010 N   0  0  0  0  0  0  0  0  0  0  0  0
   56.4100   25.4850   46.0730 S   0  0  0  0  0  0  0  0  0  0  0  0
   56.1160   24.5480   47.2150 O   0  0  0  0  0  0  0  0  0  0  0  0
   56.4250   24.7200   44.7770 O   0  0  0  0  0  0  0  0  0  0  0  0
   57.9900   26.2540   46.3240 C   0  0  0  0  0  0  0  0  0  0  0  0
   58.7340   25.8880   47.4590 C   0  0  0  0  0  0  0  0  0  0  0  0
   58.3085   25.1779   48.1834 H   0  0  0  0  0  0  0  0  0  0  0  0
   60.0080   26.4170   47.6760 C   0  0  0  0  0  0  0  0  0  0  0  0
   60.5793   26.1220   48.5685 H   0  0  0  0  0  0  0  0  0  0  0  0
   60.5590   27.3190   46.7640 C   0  0  0  0  0  0  0  0  0  0  0  0
   61.5662   27.7270   46.9345 H   0  0  0  0  0  0  0  0  0  0  0  0
   59.8330   27.7030   45.6370 C   0  0  0  0  0  0  0  0  0  0  0  0
   60.2790   28.4036   44.9157 H   0  0  0  0  0  0  0  0  0  0  0  0
   58.5320   27.2030   45.4110 C   0  0  0  0  0  0  0  0  0  0  0  0
   57.8010   27.6600   44.1640 C   0  0  0  0  0  0  0  0  0  0  0  0
   58.4818   27.5851   43.3033 H   0  0  0  0  0  0  0  0  0  0  0  0
   56.9206   27.0154   44.0251 H   0  0  0  0  0  0  0  0  0  0  0  0
   57.3300   29.0770   44.2900 C   0  0  0  0  0  0  0  0  0  0  0  0
   58.3250   30.4330   44.3170 S   0  0  0  0  0  0  0  0  0  0  0  0
   57.0250   31.4880   44.4530 C   0  0  0  0  0  0  0  0  0  0  0  0
   57.1590   32.7790   44.5230 N   0  0  0  0  0  0  0  0  0  0  0  0
   58.2940   33.4890   45.0390 C   0  0  0  0  0  0  0  0  0  0  0  0
   59.0210   34.1930   44.2820 O   0  0  0  0  0  0  0  0  0  0  0  0
   58.6250   33.3810   46.5030 C   0  0  0  0  0  0  0  0  0  0  0  0
   57.7065   33.1559   47.0648 H   0  0  0  0  0  0  0  0  0  0  0  0
   59.5910   32.1910   46.7740 C   0  0  0  0  0  0  0  0  0  0  0  0
   59.0914   31.4811   47.4496 H   0  0  0  0  0  0  0  0  0  0  0  0
   59.8308   31.7346   45.8023 H   0  0  0  0  0  0  0  0  0  0  0  0
   60.9170   32.6270   47.4160 C   0  0  0  0  0  0  0  0  0  0  0  0
   61.4739   31.7367   47.7433 H   0  0  0  0  0  0  0  0  0  0  0  0
   61.5104   33.1860   46.6775 H   0  0  0  0  0  0  0  0  0  0  0  0
   60.6510   33.4900   48.5770 N   0  0  0  0  0  0  0  0  0  0  0  0
   61.2600   33.2220   49.8560 C   0  0  0  0  0  0  0  0  0  0  0  0
   60.5810   33.3740   50.9070 O   0  0  0  0  0  0  0  0  0  0  0  0
   62.6690   32.7720   49.9660 C   0  0  0  0  0  0  0  0  0  0  0  0
   63.6800   33.4330   49.2460 C   0  0  0  0  0  0  0  0  0  0  0  0
   63.4224   34.2834   48.5976 H   0  0  0  0  0  0  0  0  0  0  0  0
   65.0110   33.0160   49.3490 C   0  0  0  0  0  0  0  0  0  0  0  0
   65.7975   33.5440   48.7898 H   0  0  0  0  0  0  0  0  0  0  0  0
   65.3420   31.9290   50.1620 C   0  0  0  0  0  0  0  0  0  0  0  0
   66.3902   31.6070   50.2492 H   0  0  0  0  0  0  0  0  0  0  0  0
   64.3430   31.2510   50.8640 C   0  0  0  0  0  0  0  0  0  0  0  0
   64.6047   30.3902   51.4969 H   0  0  0  0  0  0  0  0  0  0  0  0
   63.0110   31.6640   50.7640 C   0  0  0  0  0  0  0  0  0  0  0  0
   62.2267   31.1206   51.3114 H   0  0  0  0  0  0  0  0  0  0  0  0
   59.6770   34.5880   48.4690 C   0  0  0  0  0  0  0  0  0  0  0  0
   58.8312   34.3834   49.1419 H   0  0  0  0  0  0  0  0  0  0  0  0
   60.1802   35.5255   48.7480 H   0  0  0  0  0  0  0  0  0  0  0  0
   59.1510   34.7310   47.0360 C   0  0  0  0  0  0  0  0  0  0  0  0
   58.3325   35.4658   47.0248 H   0  0  0  0  0  0  0  0  0  0  0  0
   59.9771   35.0648   46.3909 H   0  0  0  0  0  0  0  0  0  0  0  0
   55.8370   30.8400   44.4810 N   0  0  0  0  0  0  0  0  0  0  0  0
   56.0040   29.4940   44.3870 C   0  0  0  0  0  0  0  0  0  0  0  0
   55.1590   28.7897   44.3875 H   0  0  0  0  0  0  0  0  0  0  0  0
  1  2  1  0
  2  3  1  0
  3  4  2  0
  3  5  2  0
  3  6  1  0
  6  7  2  0
  7  8  1  0
  7  9  1  0
  9 10  1  0
  9 11  2  0
 11 12  1  0
 11 13  1  0
 13 14  1  0
 13 15  2  0
 15 16  1  0
 16 17  1  0
 16 18  1  0
 16 19  1  0
 19 20  1  0
 20 21  1  0
 21 22  2  0
 22 23  1  0
 23 24  2  0
 23 25  1  0
 25 26  1  0
 25 27  1  0
 27 28  1  0
 27 29  1  0
 27 30  1  0
 30 31  1  0
 30 32  1  0
 30 33  1  0
 33 34  1  0
 34 35  2  0
 34 36  1  0
 36 37  2  0
 37 38  1  0
 37 39  1  0
 39 40  1  0
 39 41  2  0
 41 42  1  0
 41 43  1  0
 43 44  1  0
 43 45  2  0
 45 46  1  0
 33 47  1  0
 47 48  1  0
 47 49  1  0
 47 50  1  0
 50 51  1  0
 50 52  1  0
 21 53  1  0
 53 54  1  0
 54 55  1  0
 15  6  1  0
 54 19  2  0
 50 25  1  0
 45 36  1  0
M  CHG  2   2  -1  53  -1
M  END
>  <UniqueID>  (71) 
64

>  <SMILES>  (71) 
[NH-]S(=O)(=O)c1ccccc1Cc1c[n-]/c(=N\C(=O)C2CCN(C(=O)c3ccccc3)CC2)s1

>  <Energy>  (71) 
99.57251599476518

>  <Genealogy>  (71) 
[NH-]S(=O)(=O)c1ccccc1Cc1c[n-]c(=NC(=O)C2CCN(C(=O)c3ccccc3)CC2)s1 (protonated)
[NH-]S(=O)(=O)c1ccccc1Cc1c[n-]/c(=N\C(=O)C2CCN(C(=O)c3ccccc3)CC2)s1 (cis-trans isomerization)
[NH-]S(=O)(=O)c1ccccc1Cc1c[n-]/c(=N\C(=O)C2CCN(C(=O)c3ccccc3)CC2)s1 (3D coordinates assigned)
[NH-]S(=O)(=O)c1ccccc1Cc1c[n-]/c(=N\C(=O)C2CCN(C(=O)c3ccccc3)CC2)s1 (nonaromatic ring conformer: 99.57251599476518 kcal/mol)

>  <smiles>  (71) 
NS(=O)(=O)c1ccccc1Cc1c[nH]c(=NC(=O)C2CCN(C(=O)c3ccccc3)CC2)s1

>  <score_type>  (71) 
oracle

>  <origin>  (71) 
adg

>  <m_score__min__energy>  (71) 
-14.93

>  <m_primary>  (71) 
energy

$$$$
71:0
     RDKit          3D

 51 54  0  0  0  0  0  0  0  0999 V2000
   55.2270   29.3330   44.5810 O   0  0  0  0  0  0  0  0  0  0  0  0
   56.3940   29.7800   44.4300 C   0  0  0  0  0  0  0  0  0  0  0  0
   57.5220   28.8410   44.1040 C   0  0  0  0  0  0  0  0  0  0  0  0
   58.3290   28.5240   45.3340 C   0  0  0  0  0  0  0  0  0  0  0  0
   57.7260   27.8970   46.4340 C   0  0  0  0  0  0  0  0  0  0  0  0
   58.4390   27.7180   47.6230 C   0  0  0  0  0  0  0  0  0  0  0  0
   59.7660   28.1660   47.7340 C   0  0  0  0  0  0  0  0  0  0  0  0
   60.5100   28.0150   49.0110 C   0  0  0  0  0  0  0  0  0  0  0  0
   60.7330   26.7370   49.5600 C   0  0  0  0  0  0  0  0  0  0  0  0
   61.4310   26.5950   50.7640 C   0  0  0  0  0  0  0  0  0  0  0  0
   61.9180   27.7220   51.4290 C   0  0  0  0  0  0  0  0  0  0  0  0
   61.7050   28.9950   50.8920 C   0  0  0  0  0  0  0  0  0  0  0  0
   61.0050   29.1420   49.6910 C   0  0  0  0  0  0  0  0  0  0  0  0
   60.3740   28.7760   46.6220 C   0  0  0  0  0  0  0  0  0  0  0  0
   59.6620   28.9530   45.4340 C   0  0  0  0  0  0  0  0  0  0  0  0
   56.6210   31.1910   44.4950 N   0  0  0  0  0  0  0  0  0  0  0  0
   57.6680   31.7990   45.2670 C   0  0  0  0  0  0  0  0  0  0  0  0
   58.0100   31.3250   46.5450 C   0  0  0  0  0  0  0  0  0  0  0  0
   59.0760   31.8950   47.2450 C   0  0  0  0  0  0  0  0  0  0  0  0
   59.8000   32.9640   46.6930 C   0  0  0  0  0  0  0  0  0  0  0  0
   60.9020   33.5440   47.4170 N   0  0  0  0  0  0  0  0  0  0  0  0
   60.6640   34.2270   48.6940 C   0  0  0  0  0  0  0  0  0  0  0  0
   61.9130   34.1190   49.5740 C   0  0  0  0  0  0  0  0  0  0  0  0
   63.0610   34.5630   48.8770 O   0  0  0  0  0  0  0  0  0  0  0  0
   63.3180   33.7050   47.7820 C   0  0  0  0  0  0  0  0  0  0  0  0
   62.1860   33.7830   46.7530 C   0  0  0  0  0  0  0  0  0  0  0  0
   59.4390   33.4500   45.4240 C   0  0  0  0  0  0  0  0  0  0  0  0
   58.3760   32.8750   44.7210 C   0  0  0  0  0  0  0  0  0  0  0  0
   57.1071   27.9079   43.6950 H   0  0  0  0  0  0  0  0  0  0  0  0
   58.1799   29.3244   43.3668 H   0  0  0  0  0  0  0  0  0  0  0  0
   56.6867   27.5443   46.3608 H   0  0  0  0  0  0  0  0  0  0  0  0
   57.9572   27.2224   48.4787 H   0  0  0  0  0  0  0  0  0  0  0  0
   60.3558   25.8449   49.0386 H   0  0  0  0  0  0  0  0  0  0  0  0
   61.5965   25.5935   51.1877 H   0  0  0  0  0  0  0  0  0  0  0  0
   62.4687   27.6083   52.3744 H   0  0  0  0  0  0  0  0  0  0  0  0
   62.0891   29.8829   51.4156 H   0  0  0  0  0  0  0  0  0  0  0  0
   60.8401   30.1467   49.2747 H   0  0  0  0  0  0  0  0  0  0  0  0
   61.4180   29.1161   46.6887 H   0  0  0  0  0  0  0  0  0  0  0  0
   60.1485   29.4315   44.5712 H   0  0  0  0  0  0  0  0  0  0  0  0
   57.4361   30.5020   46.9958 H   0  0  0  0  0  0  0  0  0  0  0  0
   59.3502   31.5036   48.2358 H   0  0  0  0  0  0  0  0  0  0  0  0
   60.4390   35.2872   48.5059 H   0  0  0  0  0  0  0  0  0  0  0  0
   59.8129   33.7559   49.2076 H   0  0  0  0  0  0  0  0  0  0  0  0
   61.7752   34.7383   50.4726 H   0  0  0  0  0  0  0  0  0  0  0  0
   62.0567   33.0646   49.8527 H   0  0  0  0  0  0  0  0  0  0  0  0
   64.2620   34.0042   47.3031 H   0  0  0  0  0  0  0  0  0  0  0  0
   63.3875   32.6716   48.1523 H   0  0  0  0  0  0  0  0  0  0  0  0
   62.1792   34.7812   46.2910 H   0  0  0  0  0  0  0  0  0  0  0  0
   62.3440   33.0196   45.9769 H   0  0  0  0  0  0  0  0  0  0  0  0
   59.9967   34.2884   44.9812 H   0  0  0  0  0  0  0  0  0  0  0  0
   58.0950   33.2706   43.7338 H   0  0  0  0  0  0  0  0  0  0  0  0
  1  2  2  0
  2  3  1  0
  3  4  1  0
  4  5  2  0
  5  6  1  0
  6  7  2  0
  7  8  1  0
  8  9  2  0
  9 10  1  0
 10 11  2  0
 11 12  1  0
 12 13  2  0
  7 14  1  0
 14 15  2  0
  2 16  1  0
 16 17  1  0
 17 18  2  0
 18 19  1  0
 19 20  2  0
 20 21  1  0
 21 22  1  0
 22 23  1  0
 23 24  1  0
 24 25  1  0
 25 26  1  0
 20 27  1  0
 27 28  2  0
 15  4  1  0
 28 17  1  0
 13  8  1  0
 26 21  1  0
  3 29  1  0
  3 30  1  0
  5 31  1  0
  6 32  1  0
  9 33  1  0
 10 34  1  0
 11 35  1  0
 12 36  1  0
 13 37  1  0
 14 38  1  0
 15 39  1  0
 18 40  1  0
 19 41  1  0
 22 42  1  0
 22 43  1  0
 23 44  1  0
 23 45  1  0
 25 46  1  0
 25 47  1  0
 26 48  1  0
 26 49  1  0
 27 50  1  0
 28 51  1  0
M  CHG  1  16  -1
M  END
>  <UniqueID>  (72) 
65

>  <SMILES>  (72) 
O=C(Cc1ccc(-c2ccccc2)cc1)[N-]c1ccc(N2CCOCC2)cc1

>  <Energy>  (72) 
67.83922719850189

>  <Genealogy>  (72) 
O=C(Cc1ccc(-c2ccccc2)cc1)[N-]c1ccc(N2CCOCC2)cc1 (protonated)
O=C(Cc1ccc(-c2ccccc2)cc1)[N-]c1ccc(N2CCOCC2)cc1 (3D coordinates assigned)
O=C(Cc1ccc(-c2ccccc2)cc1)[N-]c1ccc(N2CCOCC2)cc1 (nonaromatic ring conformer: 67.83922719850189 kcal/mol)

>  <smiles>  (72) 
O=C(Cc1ccc(-c2ccccc2)cc1)Nc1ccc(N2CCOCC2)cc1

>  <score_type>  (72) 
oracle

>  <origin>  (72) 
adg

>  <m_score__min__energy>  (72) 
-10.15

>  <m_primary>  (72) 
energy

$$$$
72:0
     RDKit          3D

 23 24  0  0  0  0  0  0  0  0999 V2000
   55.1880   29.3470   44.8710 O   0  0  0  0  0  0  0  0  0  0  0  0
   56.3700   30.1050   44.3390 S   0  0  0  0  0  0  0  0  0  0  0  0
   56.3510   30.0570   42.8370 O   0  0  0  0  0  0  0  0  0  0  0  0
   56.2710   31.7550   44.8610 N   0  0  0  0  0  0  0  0  0  0  0  0
   57.3910   32.5940   45.1690 C   0  0  0  0  0  0  0  0  0  0  0  0
   58.0240   33.3880   44.1930 C   0  0  0  0  0  0  0  0  0  0  0  0
   59.1180   34.1870   44.5380 C   0  0  0  0  0  0  0  0  0  0  0  0
   59.5900   34.2030   45.8540 C   0  0  0  0  0  0  0  0  0  0  0  0
   58.9650   33.4190   46.8280 C   0  0  0  0  0  0  0  0  0  0  0  0
   59.6070   33.4410   48.6270 Br  0  0  0  0  0  0  0  0  0  0  0  0
   57.8690   32.6190   46.4860 C   0  0  0  0  0  0  0  0  0  0  0  0
   57.8410   29.3720   44.9520 C   0  0  0  0  0  0  0  0  0  0  0  0
   59.1290   29.6820   44.5430 C   0  0  0  0  0  0  0  0  0  0  0  0
   60.1050   28.9210   45.1980 C   0  0  0  0  0  0  0  0  0  0  0  0
   59.5830   28.0170   46.1170 C   0  0  0  0  0  0  0  0  0  0  0  0
   57.9060   28.1640   46.1150 S   0  0  0  0  0  0  0  0  0  0  0  0
   57.6565   33.3794   43.1563 H   0  0  0  0  0  0  0  0  0  0  0  0
   59.6090   34.8050   43.7718 H   0  0  0  0  0  0  0  0  0  0  0  0
   60.4519   34.8316   46.1225 H   0  0  0  0  0  0  0  0  0  0  0  0
   57.3792   32.0054   47.2565 H   0  0  0  0  0  0  0  0  0  0  0  0
   59.3596   30.4447   43.7846 H   0  0  0  0  0  0  0  0  0  0  0  0
   61.1825   29.0280   45.0041 H   0  0  0  0  0  0  0  0  0  0  0  0
   60.1670   27.3234   46.7397 H   0  0  0  0  0  0  0  0  0  0  0  0
  1  2  2  0
  2  3  2  0
  2  4  1  0
  4  5  1  0
  5  6  2  0
  6  7  1  0
  7  8  2  0
  8  9  1  0
  9 10  1  0
  9 11  2  0
  2 12  1  0
 12 13  2  0
 13 14  1  0
 14 15  2  0
 15 16  1  0
 11  5  1  0
 16 12  1  0
  6 17  1  0
  7 18  1  0
  8 19  1  0
 11 20  1  0
 13 21  1  0
 14 22  1  0
 15 23  1  0
M  CHG  1   4  -1
M  END
>  <UniqueID>  (73) 
66

>  <SMILES>  (73) 
O=S(=O)([N-]c1cccc(Br)c1)c1cccs1

>  <Energy>  (73) 
52.41323509311509

>  <Genealogy>  (73) 
O=S(=O)([N-]c1cccc(Br)c1)c1cccs1 (protonated)
O=S(=O)([N-]c1cccc(Br)c1)c1cccs1 (3D coordinates assigned)
O=S(=O)([N-]c1cccc(Br)c1)c1cccs1 (optimized conformer: 52.41323509311509 kcal/mol)

>  <smiles>  (73) 
O=S(=O)(Nc1cccc(Br)c1)c1cccs1

>  <score_type>  (73) 
oracle

>  <origin>  (73) 
adg

>  <m_score__min__energy>  (73) 
-8.6099999999999994

>  <m_primary>  (73) 
energy

$$$$
73:0
     RDKit          3D

 36 38  0  0  0  0  0  0  0  0999 V2000
   60.7650   26.7180   45.9940 O   0  0  0  0  0  0  0  0  0  0  0  0
   59.9200   27.2990   46.7270 C   0  0  0  0  0  0  0  0  0  0  0  0
   60.4230   28.2300   47.8020 C   0  0  0  0  0  0  0  0  0  0  0  0
   59.9660   29.6010   47.5610 N   0  0  0  0  0  0  0  0  0  0  0  0
   59.5440   30.4870   48.4920 C   0  0  0  0  0  0  0  0  0  0  0  0
   59.4780   30.2220   49.8560 O   0  0  0  0  0  0  0  0  0  0  0  0
   59.2020   31.6850   47.9010 C   0  0  0  0  0  0  0  0  0  0  0  0
   59.3990   31.5240   46.5500 C   0  0  0  0  0  0  0  0  0  0  0  0
   59.9000   30.2510   46.3730 C   0  0  0  0  0  0  0  0  0  0  0  0
   60.2970   29.7180   45.1480 O   0  0  0  0  0  0  0  0  0  0  0  0
   59.2210   32.6180   45.5420 C   0  0  0  0  0  0  0  0  0  0  0  0
   58.3300   33.7370   46.1200 C   0  0  0  0  0  0  0  0  0  0  0  0
   58.7450   34.1140   47.5590 C   0  0  0  0  0  0  0  0  0  0  0  0
   58.6200   32.9180   48.5240 C   0  0  0  0  0  0  0  0  0  0  0  0
   58.4730   27.0630   46.4950 C   0  0  0  0  0  0  0  0  0  0  0  0
   57.8790   25.8670   46.9420 C   0  0  0  0  0  0  0  0  0  0  0  0
   56.5220   25.6220   46.7200 C   0  0  0  0  0  0  0  0  0  0  0  0
   55.7370   26.5680   46.0570 C   0  0  0  0  0  0  0  0  0  0  0  0
   54.3870   26.3180   45.8380 O   0  0  0  0  0  0  0  0  0  0  0  0
   56.3110   27.7670   45.6190 C   0  0  0  0  0  0  0  0  0  0  0  0
   55.5330   28.7160   44.9660 O   0  0  0  0  0  0  0  0  0  0  0  0
   57.6700   28.0150   45.8390 C   0  0  0  0  0  0  0  0  0  0  0  0
   60.0456   27.8907   48.7780 H   0  0  0  0  0  0  0  0  0  0  0  0
   61.5229   28.2187   47.7908 H   0  0  0  0  0  0  0  0  0  0  0  0
   60.5540   28.7450   45.0470 H   0  0  0  0  0  0  0  0  0  0  0  0
   60.2049   33.0353   45.2815 H   0  0  0  0  0  0  0  0  0  0  0  0
   58.7386   32.2034   44.6445 H   0  0  0  0  0  0  0  0  0  0  0  0
   58.4160   34.6273   45.4797 H   0  0  0  0  0  0  0  0  0  0  0  0
   57.2937   33.3692   46.1480 H   0  0  0  0  0  0  0  0  0  0  0  0
   59.7904   34.4561   47.5498 H   0  0  0  0  0  0  0  0  0  0  0  0
   58.0714   34.9090   47.9115 H   0  0  0  0  0  0  0  0  0  0  0  0
   59.1608   33.1444   49.4547 H   0  0  0  0  0  0  0  0  0  0  0  0
   57.5559   32.7420   48.7403 H   0  0  0  0  0  0  0  0  0  0  0  0
   58.4889   25.1195   47.4704 H   0  0  0  0  0  0  0  0  0  0  0  0
   56.0703   24.6814   47.0683 H   0  0  0  0  0  0  0  0  0  0  0  0
   58.1145   28.9612   45.4968 H   0  0  0  0  0  0  0  0  0  0  0  0
  1  2  2  0
  2  3  1  0
  3  4  1  0
  4  5  1  0
  5  6  1  0
  5  7  2  0
  7  8  1  0
  8  9  2  0
  9 10  1  0
  8 11  1  0
 11 12  1  0
 12 13  1  0
 13 14  1  0
  2 15  1  0
 15 16  2  0
 16 17  1  0
 17 18  2  0
 18 19  1  0
 18 20  1  0
 20 21  1  0
 20 22  2  0
  9  4  1  0
 22 15  1  0
 14  7  1  0
  3 23  1  0
  3 24  1  0
 10 25  1  0
 11 26  1  0
 11 27  1  0
 12 28  1  0
 12 29  1  0
 13 30  1  0
 13 31  1  0
 14 32  1  0
 14 33  1  0
 16 34  1  0
 17 35  1  0
 22 36  1  0
M  CHG  3   6  -1  19  -1  21  -1
M  END
>  <UniqueID>  (74) 
67

>  <SMILES>  (74) 
O=C(Cn1c([O-])c2c(c1O)CCCC2)c1ccc([O-])c([O-])c1

>  <Energy>  (74) 
67.02137698836164

>  <Genealogy>  (74) 
O=C(Cn1c([O-])c2c(c1O)CCCC2)c1ccc([O-])c([O-])c1 (protonated)
O=C(Cn1c([O-])c2c(c1O)CCCC2)c1ccc([O-])c([O-])c1 (3D coordinates assigned)
O=C(Cn1c([O-])c2c(c1O)CCCC2)c1ccc([O-])c([O-])c1 (nonaromatic ring conformer: 67.02137698836164 kcal/mol)

>  <smiles>  (74) 
O=C(Cn1c(O)c2c(c1O)CCCC2)c1ccc(O)c(O)c1

>  <score_type>  (74) 
oracle

>  <origin>  (74) 
adg

>  <m_score__min__energy>  (74) 
-16.09

>  <m_primary>  (74) 
energy

$$$$
74:0
     RDKit          3D

 43 46  0  0  0  0  0  0  0  0999 V2000
   64.2257   31.3045   51.3199 H   0  0  0  0  0  0  0  0  0  0  0  0
   63.3310   30.8690   50.8510 C   0  0  0  0  0  0  0  0  0  0  0  0
   62.8830   31.3530   49.6630 N   0  0  0  0  0  0  0  0  0  0  0  0
   61.7790   30.8510   49.0480 C   0  0  0  0  0  0  0  0  0  0  0  0
   61.3240   31.5330   47.4910 Cl  0  0  0  0  0  0  0  0  0  0  0  0
   61.0650   29.7850   49.6420 C   0  0  0  0  0  0  0  0  0  0  0  0
   59.8480   29.2190   49.0150 C   0  0  0  0  0  0  0  0  0  0  0  0
   58.7600   29.8500   49.1030 O   0  0  0  0  0  0  0  0  0  0  0  0
   59.8850   27.9500   48.3410 N   0  0  0  0  0  0  0  0  0  0  0  0
   60.7050   27.3190   48.4830 H   0  0  0  0  0  0  0  0  0  0  0  0
   58.8130   27.4730   47.5120 C   0  0  0  0  0  0  0  0  0  0  0  0
   58.5180   26.1040   47.4820 C   0  0  0  0  0  0  0  0  0  0  0  0
   59.0929   25.4061   48.1085 H   0  0  0  0  0  0  0  0  0  0  0  0
   57.4970   25.6210   46.6600 C   0  0  0  0  0  0  0  0  0  0  0  0
   57.2687   24.5451   46.6442 H   0  0  0  0  0  0  0  0  0  0  0  0
   56.7650   26.5000   45.8580 C   0  0  0  0  0  0  0  0  0  0  0  0
   55.9662   26.1115   45.2092 H   0  0  0  0  0  0  0  0  0  0  0  0
   57.0420   27.8730   45.8750 C   0  0  0  0  0  0  0  0  0  0  0  0
   56.3070   28.7340   44.9860 N   0  0  0  0  0  0  0  0  0  0  0  0
   56.7220   29.8380   44.4350 C   0  0  0  0  0  0  0  0  0  0  0  0
   57.2480   30.8490   45.1810 N   0  0  0  0  0  0  0  0  0  0  0  0
   57.6870   32.0050   44.6140 C   0  0  0  0  0  0  0  0  0  0  0  0
   58.2660   33.0630   45.4760 C   0  0  0  0  0  0  0  0  0  0  0  0
   58.1310   32.9870   46.8720 C   0  0  0  0  0  0  0  0  0  0  0  0
   57.5752   32.1514   47.3224 H   0  0  0  0  0  0  0  0  0  0  0  0
   58.6830   33.9400   47.6710 N   0  0  0  0  0  0  0  0  0  0  0  0
   59.3810   34.9860   47.1560 C   0  0  0  0  0  0  0  0  0  0  0  0
   59.8156   35.7406   47.8281 H   0  0  0  0  0  0  0  0  0  0  0  0
   59.5470   35.1040   45.7760 C   0  0  0  0  0  0  0  0  0  0  0  0
   60.1122   35.9486   45.3551 H   0  0  0  0  0  0  0  0  0  0  0  0
   58.9890   34.1400   44.9340 C   0  0  0  0  0  0  0  0  0  0  0  0
   59.1154   34.2234   43.8445 H   0  0  0  0  0  0  0  0  0  0  0  0
   57.5710   32.1660   43.2250 C   0  0  0  0  0  0  0  0  0  0  0  0
   57.9144   33.0900   42.7368 H   0  0  0  0  0  0  0  0  0  0  0  0
   57.0120   31.1320   42.4760 C   0  0  0  0  0  0  0  0  0  0  0  0
   56.9054   31.2379   41.3863 H   0  0  0  0  0  0  0  0  0  0  0  0
   56.5990   29.9940   43.0910 N   0  0  0  0  0  0  0  0  0  0  0  0
   58.0940   28.3510   46.6820 C   0  0  0  0  0  0  0  0  0  0  0  0
   58.3546   29.4195   46.6623 H   0  0  0  0  0  0  0  0  0  0  0  0
   61.5230   29.2800   50.8700 C   0  0  0  0  0  0  0  0  0  0  0  0
   60.9847   28.4536   51.3571 H   0  0  0  0  0  0  0  0  0  0  0  0
   62.6580   29.8220   51.4750 C   0  0  0  0  0  0  0  0  0  0  0  0
   63.0175   29.4256   52.4360 H   0  0  0  0  0  0  0  0  0  0  0  0
  1  2  1  0
  2  3  2  0
  3  4  1  0
  4  5  1  0
  4  6  2  0
  6  7  1  0
  7  8  2  0
  7  9  1  0
  9 10  1  0
  9 11  1  0
 11 12  2  0
 12 13  1  0
 12 14  1  0
 14 15  1  0
 14 16  2  0
 16 17  1  0
 16 18  1  0
 18 19  1  0
 19 20  2  0
 20 21  1  0
 21 22  2  0
 22 23  1  0
 23 24  2  0
 24 25  1  0
 24 26  1  0
 26 27  2  0
 27 28  1  0
 27 29  1  0
 29 30  1  0
 29 31  2  0
 31 32  1  0
 22 33  1  0
 33 34  1  0
 33 35  2  0
 35 36  1  0
 35 37  1  0
 18 38  2  0
 38 39  1  0
  6 40  1  0
 40 41  1  0
 40 42  2  0
 42 43  1  0
 42  2  1  0
 38 11  1  0
 37 20  1  0
 31 23  1  0
M  CHG  1  37  -1
M  END
>  <UniqueID>  (75) 
68

>  <SMILES>  (75) 
O=C(Nc1cccc(/N=c2\nc(-c3cccnc3)cc[n-]2)c1)c1cccnc1Cl

>  <Energy>  (75) 
67.43859046380148

>  <Genealogy>  (75) 
O=C(Nc1cccc(N=c2nc(-c3cccnc3)cc[n-]2)c1)c1cccnc1Cl (protonated)
O=C(Nc1cccc(/N=c2\nc(-c3cccnc3)cc[n-]2)c1)c1cccnc1Cl (cis-trans isomerization)
O=C(Nc1cccc(/N=c2\nc(-c3cccnc3)cc[n-]2)c1)c1cccnc1Cl (3D coordinates assigned)
O=C(Nc1cccc(/N=c2\nc(-c3cccnc3)cc[n-]2)c1)c1cccnc1Cl (optimized conformer: 67.43859046380148 kcal/mol)

>  <smiles>  (75) 
O=C(Nc1cccc(N=c2nc(-c3cccnc3)cc[nH]2)c1)c1cccnc1Cl

>  <score_type>  (75) 
oracle

>  <origin>  (75) 
adg

>  <m_score__min__energy>  (75) 
-10.6

>  <m_primary>  (75) 
energy

$$$$
75:0
     RDKit          3D

 38 40  0  0  0  0  0  0  0  0999 V2000
   57.4490   20.3530   45.2470 N   0  0  0  0  0  0  0  0  0  0  0  0
   57.3760   21.4510   43.9150 S   0  0  0  0  0  0  0  0  0  0  0  0
   58.6740   21.4180   43.1590 O   0  0  0  0  0  0  0  0  0  0  0  0
   56.2660   21.0400   42.9880 O   0  0  0  0  0  0  0  0  0  0  0  0
   57.0800   23.0790   44.5170 C   0  0  0  0  0  0  0  0  0  0  0  0
   55.7700   23.5190   44.7530 C   0  0  0  0  0  0  0  0  0  0  0  0
   55.5380   24.8090   45.2420 C   0  0  0  0  0  0  0  0  0  0  0  0
   56.6120   25.6630   45.5220 C   0  0  0  0  0  0  0  0  0  0  0  0
   56.3370   26.9890   45.9950 N   0  0  0  0  0  0  0  0  0  0  0  0
   56.5310   28.2090   45.2680 C   0  0  0  0  0  0  0  0  0  0  0  0
   55.5450   28.9730   45.0890 O   0  0  0  0  0  0  0  0  0  0  0  0
   57.8820   28.6230   44.7530 C   0  0  0  0  0  0  0  0  0  0  0  0
   58.1290   30.0280   45.0600 N   0  0  0  0  0  0  0  0  0  0  0  0
   59.0770   30.5280   46.0080 C   0  0  0  0  0  0  0  0  0  0  0  0
   59.7810   29.7760   46.7330 O   0  0  0  0  0  0  0  0  0  0  0  0
   59.1440   31.9950   46.0410 C   0  0  0  0  0  0  0  0  0  0  0  0
   59.9570   32.7890   46.8530 C   0  0  0  0  0  0  0  0  0  0  0  0
   59.8740   34.1850   46.7310 C   0  0  0  0  0  0  0  0  0  0  0  0
   58.9850   34.7670   45.8050 C   0  0  0  0  0  0  0  0  0  0  0  0
   58.1750   33.9570   44.9940 C   0  0  0  0  0  0  0  0  0  0  0  0
   58.2720   32.5730   45.1300 C   0  0  0  0  0  0  0  0  0  0  0  0
   57.3860   31.3590   44.2510 S   0  0  0  0  0  0  0  0  0  0  0  0
   57.7050   31.3650   42.7830 O   0  0  0  0  0  0  0  0  0  0  0  0
   55.9090   31.4160   44.5190 O   0  0  0  0  0  0  0  0  0  0  0  0
   57.9230   25.2280   45.2650 C   0  0  0  0  0  0  0  0  0  0  0  0
   58.1550   23.9400   44.7760 C   0  0  0  0  0  0  0  0  0  0  0  0
   57.2150   19.4050   44.8750 H   0  0  0  0  0  0  0  0  0  0  0  0
   58.4450   20.3170   45.5580 H   0  0  0  0  0  0  0  0  0  0  0  0
   54.9218   22.8477   44.5530 H   0  0  0  0  0  0  0  0  0  0  0  0
   54.5068   25.1543   45.4074 H   0  0  0  0  0  0  0  0  0  0  0  0
   58.6575   28.0051   45.2293 H   0  0  0  0  0  0  0  0  0  0  0  0
   57.9086   28.4837   43.6622 H   0  0  0  0  0  0  0  0  0  0  0  0
   60.6489   32.3294   47.5741 H   0  0  0  0  0  0  0  0  0  0  0  0
   60.5060   34.8279   47.3613 H   0  0  0  0  0  0  0  0  0  0  0  0
   58.9257   35.8619   45.7174 H   0  0  0  0  0  0  0  0  0  0  0  0
   57.4798   34.4038   44.2680 H   0  0  0  0  0  0  0  0  0  0  0  0
   58.7705   25.9045   45.4496 H   0  0  0  0  0  0  0  0  0  0  0  0
   59.1853   23.6004   44.5936 H   0  0  0  0  0  0  0  0  0  0  0  0
  1  2  1  0
  2  3  2  0
  2  4  2  0
  2  5  1  0
  5  6  2  0
  6  7  1  0
  7  8  2  0
  8  9  1  0
  9 10  1  0
 10 11  2  0
 10 12  1  0
 12 13  1  0
 13 14  1  0
 14 15  2  0
 14 16  1  0
 16 17  2  0
 17 18  1  0
 18 19  2  0
 19 20  1  0
 20 21  2  0
 21 22  1  0
 22 23  2  0
 22 24  2  0
  8 25  1  0
 25 26  2  0
 26  5  1  0
 22 13  1  0
 21 16  1  0
  1 27  1  0
  1 28  1  0
  6 29  1  0
  7 30  1  0
 12 31  1  0
 12 32  1  0
 17 33  1  0
 18 34  1  0
 19 35  1  0
 20 36  1  0
 25 37  1  0
 26 38  1  0
M  CHG  1   9  -1
M  END
>  <UniqueID>  (76) 
69

>  <SMILES>  (76) 
NS(=O)(=O)c1ccc([N-]C(=O)CN2C(=O)c3ccccc3S2(=O)=O)cc1

>  <Energy>  (76) 
64.51083581634647

>  <Genealogy>  (76) 
NS(=O)(=O)c1ccc([N-]C(=O)CN2C(=O)c3ccccc3S2(=O)=O)cc1 (protonated)
NS(=O)(=O)c1ccc([N-]C(=O)CN2C(=O)c3ccccc3S2(=O)=O)cc1 (3D coordinates assigned)
NS(=O)(=O)c1ccc([N-]C(=O)CN2C(=O)c3ccccc3S2(=O)=O)cc1 (nonaromatic ring conformer: 64.51083581634647 kcal/mol)

>  <smiles>  (76) 
NS(=O)(=O)c1ccc(NC(=O)CN2C(=O)c3ccccc3S2(=O)=O)cc1

>  <score_type>  (76) 
oracle

>  <origin>  (76) 
adg

>  <m_score__min__energy>  (76) 
-11.779999999999999

>  <m_primary>  (76) 
energy

$$$$
76:0
     RDKit          3D

 55 58  0  0  0  0  0  0  0  0999 V2000
   59.1030   27.6710   45.8310 O   0  0  0  0  0  0  0  0  0  0  0  0
   58.0000   28.0670   46.2920 C   0  0  0  0  0  0  0  0  0  0  0  0
   56.9890   27.1320   46.7070 N   0  0  0  0  0  0  0  0  0  0  0  0
   56.4840   26.1590   46.0050 C   0  0  0  0  0  0  0  0  0  0  0  0
   57.3260   25.4160   45.1660 C   0  0  0  0  0  0  0  0  0  0  0  0
   56.7920   24.3680   44.4120 C   0  0  0  0  0  0  0  0  0  0  0  0
   55.4300   24.0770   44.4930 C   0  0  0  0  0  0  0  0  0  0  0  0
   54.6170   24.8400   45.3350 C   0  0  0  0  0  0  0  0  0  0  0  0
   55.1560   25.8540   46.0640 N   0  0  0  0  0  0  0  0  0  0  0  0
   57.7470   29.4700   46.3740 N   0  0  0  0  0  0  0  0  0  0  0  0
   57.5840   30.4740   44.9700 S   0  0  0  0  0  0  0  0  0  0  0  0
   58.3860   29.8710   43.8520 O   0  0  0  0  0  0  0  0  0  0  0  0
   56.1340   30.5030   44.5760 O   0  0  0  0  0  0  0  0  0  0  0  0
   58.1380   32.1260   45.2880 C   0  0  0  0  0  0  0  0  0  0  0  0
   57.4060   33.2090   44.7700 C   0  0  0  0  0  0  0  0  0  0  0  0
   57.8160   34.5220   45.0080 C   0  0  0  0  0  0  0  0  0  0  0  0
   58.9690   34.7720   45.7500 C   0  0  0  0  0  0  0  0  0  0  0  0
   59.7120   33.7090   46.2630 C   0  0  0  0  0  0  0  0  0  0  0  0
   59.2990   32.3830   46.0570 C   0  0  0  0  0  0  0  0  0  0  0  0
   60.2950   31.0850   46.7190 S   0  0  0  0  0  0  0  0  0  0  0  0
   60.5960   29.8440   45.6290 O   0  0  0  0  0  0  0  0  0  0  0  0
   61.6980   31.5230   47.7000 C   0  0  0  0  0  0  0  0  0  0  0  0
   62.6260   32.4100   47.1350 C   0  0  0  0  0  0  0  0  0  0  0  0
   63.7540   32.8090   47.8530 C   0  0  0  0  0  0  0  0  0  0  0  0
   63.9640   32.3350   49.1460 C   0  0  0  0  0  0  0  0  0  0  0  0
   63.0430   31.4620   49.7290 C   0  0  0  0  0  0  0  0  0  0  0  0
   61.9030   31.0450   49.0190 C   0  0  0  0  0  0  0  0  0  0  0  0
   60.9290   30.1150   49.6900 C   0  0  0  0  0  0  0  0  0  0  0  0
   59.6210   30.6770   49.6360 O   0  0  0  0  0  0  0  0  0  0  0  0
   59.1320   31.6430   50.5270 C   0  0  0  0  0  0  0  0  0  0  0  0
   59.7630   32.8890   50.7150 C   0  0  0  0  0  0  0  0  0  0  0  0
   59.2420   33.8100   51.6280 C   0  0  0  0  0  0  0  0  0  0  0  0
   58.0910   33.5000   52.3580 C   0  0  0  0  0  0  0  0  0  0  0  0
   57.4590   32.2680   52.1750 C   0  0  0  0  0  0  0  0  0  0  0  0
   57.9780   31.3430   51.2630 C   0  0  0  0  0  0  0  0  0  0  0  0
   58.3976   25.6559   45.1018 H   0  0  0  0  0  0  0  0  0  0  0  0
   57.4443   23.7734   43.7556 H   0  0  0  0  0  0  0  0  0  0  0  0
   55.0008   23.2557   43.9003 H   0  0  0  0  0  0  0  0  0  0  0  0
   53.5416   24.6208   45.4083 H   0  0  0  0  0  0  0  0  0  0  0  0
   56.5023   33.0200   44.1720 H   0  0  0  0  0  0  0  0  0  0  0  0
   57.2276   35.3614   44.6089 H   0  0  0  0  0  0  0  0  0  0  0  0
   59.2929   35.8075   45.9310 H   0  0  0  0  0  0  0  0  0  0  0  0
   60.6300   33.9113   46.8342 H   0  0  0  0  0  0  0  0  0  0  0  0
   59.7140   29.4160   45.4920 H   0  0  0  0  0  0  0  0  0  0  0  0
   62.4632   32.7944   46.1173 H   0  0  0  0  0  0  0  0  0  0  0  0
   64.4790   33.4993   47.3970 H   0  0  0  0  0  0  0  0  0  0  0  0
   64.8560   32.6486   49.7082 H   0  0  0  0  0  0  0  0  0  0  0  0
   63.2108   31.0972   50.7531 H   0  0  0  0  0  0  0  0  0  0  0  0
   60.9327   29.1445   49.1722 H   0  0  0  0  0  0  0  0  0  0  0  0
   61.2232   29.9716   50.7402 H   0  0  0  0  0  0  0  0  0  0  0  0
   60.6682   33.1374   50.1415 H   0  0  0  0  0  0  0  0  0  0  0  0
   59.7387   34.7808   51.7724 H   0  0  0  0  0  0  0  0  0  0  0  0
   57.6830   34.2262   53.0765 H   0  0  0  0  0  0  0  0  0  0  0  0
   56.5524   32.0249   52.7485 H   0  0  0  0  0  0  0  0  0  0  0  0
   57.4770   30.3738   51.1227 H   0  0  0  0  0  0  0  0  0  0  0  0
  1  2  2  0
  2  3  1  0
  3  4  2  3
  4  5  1  0
  5  6  2  0
  6  7  1  0
  7  8  2  0
  8  9  1  0
  2 10  1  0
 10 11  1  0
 11 12  2  0
 11 13  2  0
 11 14  1  0
 14 15  2  0
 15 16  1  0
 16 17  2  0
 17 18  1  0
 18 19  2  0
 19 20  1  0
 20 21  1  6
 20 22  1  0
 22 23  2  0
 23 24  1  0
 24 25  2  0
 25 26  1  0
 26 27  2  0
 27 28  1  0
 28 29  1  0
 29 30  1  0
 30 31  2  0
 31 32  1  0
 32 33  2  0
 33 34  1  0
 34 35  2  0
  9  4  1  0
 19 14  1  0
 27 22  1  0
 35 30  1  0
  5 36  1  0
  6 37  1  0
  7 38  1  0
  8 39  1  0
 15 40  1  0
 16 41  1  0
 17 42  1  0
 18 43  1  0
 21 44  1  0
 23 45  1  0
 24 46  1  0
 25 47  1  0
 26 48  1  0
 28 49  1  0
 28 50  1  0
 31 51  1  0
 32 52  1  0
 33 53  1  0
 34 54  1  0
 35 55  1  0
M  CHG  3   9  -1  10  -1  20   1
M  END
>  <UniqueID>  (77) 
70

>  <SMILES>  (77) 
O=C(N=c1cccc[n-]1)[N-]S(=O)(=O)c1ccccc1[S@+](O)c1ccccc1COc1ccccc1

>  <Energy>  (77) 
64.81216803360309

>  <Genealogy>  (77) 
O=C(N=c1cccc[n-]1)[N-]S(=O)(=O)c1ccccc1[S+](O)c1ccccc1COc1ccccc1 (protonated)
O=C(N=c1cccc[n-]1)[N-]S(=O)(=O)c1ccccc1[S@+](O)c1ccccc1COc1ccccc1 (chirality)
O=C(N=c1cccc[n-]1)[N-]S(=O)(=O)c1ccccc1[S@+](O)c1ccccc1COc1ccccc1 (3D coordinates assigned)
O=C(N=c1cccc[n-]1)[N-]S(=O)(=O)c1ccccc1[S@+](O)c1ccccc1COc1ccccc1 (optimized conformer: 64.81216803360309 kcal/mol)

>  <smiles>  (77) 
O=C(N=c1cccc[nH]1)NS(=O)(=O)c1ccccc1[S+]([O-])c1ccccc1COc1ccccc1

>  <score_type>  (77) 
oracle

>  <origin>  (77) 
adg

>  <m_score__min__energy>  (77) 
-10.9

>  <m_primary>  (77) 
energy

$$$$
77:0
     RDKit          3D

 41 43  0  0  0  0  0  0  0  0999 V2000
   55.8880   30.2860   43.9020 N   0  0  0  0  0  0  0  0  0  0  0  0
   56.5880   31.0390   44.4320 C   0  0  0  0  0  0  0  0  0  0  0  0
   57.4570   31.9770   45.0990 C   0  0  0  0  0  0  0  0  0  0  0  0
   56.9580   33.2430   45.4360 C   0  0  0  0  0  0  0  0  0  0  0  0
   57.7960   34.1990   46.0160 C   0  0  0  0  0  0  0  0  0  0  0  0
   59.1400   33.9000   46.2500 C   0  0  0  0  0  0  0  0  0  0  0  0
   59.6460   32.6420   45.9170 C   0  0  0  0  0  0  0  0  0  0  0  0
   58.8070   31.6640   45.3630 C   0  0  0  0  0  0  0  0  0  0  0  0
   59.4900   30.0450   44.9640 S   0  0  0  0  0  0  0  0  0  0  0  0
   59.7650   29.5840   46.6860 C   0  0  0  0  0  0  0  0  0  0  0  0
   60.8310   30.1850   47.3710 C   0  0  0  0  0  0  0  0  0  0  0  0
   61.0610   29.8960   48.7170 C   0  0  0  0  0  0  0  0  0  0  0  0
   60.2320   29.0000   49.3910 C   0  0  0  0  0  0  0  0  0  0  0  0
   59.1760   28.3820   48.7180 C   0  0  0  0  0  0  0  0  0  0  0  0
   58.9440   28.6510   47.3610 C   0  0  0  0  0  0  0  0  0  0  0  0
   57.8310   27.9620   46.6860 C   0  0  0  0  0  0  0  0  0  0  0  0
   57.0010   28.6400   46.0260 O   0  0  0  0  0  0  0  0  0  0  0  0
   57.6440   26.5470   46.7960 N   0  0  0  0  0  0  0  0  0  0  0  0
   57.8730   25.6040   45.7050 C   0  0  0  0  0  0  0  0  0  0  0  0
   56.6610   24.7360   45.4330 C   0  0  0  0  0  0  0  0  0  0  0  0
   56.7990   23.3790   45.0650 C   0  0  0  0  0  0  0  0  0  0  0  0
   55.6730   22.5890   44.8220 C   0  0  0  0  0  0  0  0  0  0  0  0
   54.3960   23.1300   44.9520 C   0  0  0  0  0  0  0  0  0  0  0  0
   54.2390   24.4620   45.3380 C   0  0  0  0  0  0  0  0  0  0  0  0
   55.3560   25.2670   45.5910 C   0  0  0  0  0  0  0  0  0  0  0  0
   55.1330   26.5820   46.0050 O   0  0  0  0  0  0  0  0  0  0  0  0
   55.9024   33.4848   45.2430 H   0  0  0  0  0  0  0  0  0  0  0  0
   57.3970   35.1873   46.2883 H   0  0  0  0  0  0  0  0  0  0  0  0
   59.8010   34.6569   46.6974 H   0  0  0  0  0  0  0  0  0  0  0  0
   60.7087   32.4166   46.0901 H   0  0  0  0  0  0  0  0  0  0  0  0
   61.4909   30.8895   46.8435 H   0  0  0  0  0  0  0  0  0  0  0  0
   61.8973   30.3757   49.2467 H   0  0  0  0  0  0  0  0  0  0  0  0
   60.4100   28.7798   50.4539 H   0  0  0  0  0  0  0  0  0  0  0  0
   58.5219   27.6797   49.2555 H   0  0  0  0  0  0  0  0  0  0  0  0
   58.1152   26.1696   44.7932 H   0  0  0  0  0  0  0  0  0  0  0  0
   58.7018   24.9432   45.9990 H   0  0  0  0  0  0  0  0  0  0  0  0
   57.8031   22.9402   44.9689 H   0  0  0  0  0  0  0  0  0  0  0  0
   55.7951   21.5363   44.5270 H   0  0  0  0  0  0  0  0  0  0  0  0
   53.5117   22.5076   44.7505 H   0  0  0  0  0  0  0  0  0  0  0  0
   53.2284   24.8831   45.4444 H   0  0  0  0  0  0  0  0  0  0  0  0
   55.7680   27.0920   46.6050 H   0  0  0  0  0  0  0  0  0  0  0  0
  1  2  3  0
  2  3  1  0
  3  4  2  0
  4  5  1  0
  5  6  2  0
  6  7  1  0
  7  8  2  0
  8  9  1  0
  9 10  1  0
 10 11  2  0
 11 12  1  0
 12 13  2  0
 13 14  1  0
 14 15  2  0
 15 16  1  0
 16 17  2  0
 16 18  1  0
 18 19  1  0
 19 20  1  0
 20 21  2  0
 21 22  1  0
 22 23  2  0
 23 24  1  0
 24 25  2  0
 25 26  1  0
  8  3  1  0
 15 10  1  0
 25 20  1  0
  4 27  1  0
  5 28  1  0
  6 29  1  0
  7 30  1  0
 11 31  1  0
 12 32  1  0
 13 33  1  0
 14 34  1  0
 19 35  1  0
 19 36  1  0
 21 37  1  0
 22 38  1  0
 23 39  1  0
 24 40  1  0
 26 41  1  0
M  CHG  1  18  -1
M  END
>  <UniqueID>  (78) 
71

>  <SMILES>  (78) 
N#Cc1ccccc1Sc1ccccc1C(=O)[N-]Cc1ccccc1O

>  <Energy>  (78) 
48.81482035003898

>  <Genealogy>  (78) 
N#Cc1ccccc1Sc1ccccc1C(=O)[N-]Cc1ccccc1O (protonated)
N#Cc1ccccc1Sc1ccccc1C(=O)[N-]Cc1ccccc1O (3D coordinates assigned)
N#Cc1ccccc1Sc1ccccc1C(=O)[N-]Cc1ccccc1O (optimized conformer: 48.81482035003898 kcal/mol)

>  <smiles>  (78) 
N#Cc1ccccc1Sc1ccccc1C(=O)NCc1ccccc1O

>  <score_type>  (78) 
oracle

>  <origin>  (78) 
adg

>  <m_score__min__energy>  (78) 
-11.5

>  <m_primary>  (78) 
energy

$$$$
78:0
     RDKit          3D

 32 33  0  0  0  0  0  0  0  0999 V2000
   59.7190   26.0810   47.2870 O   0  0  0  0  0  0  0  0  0  0  0  0
   58.8160   26.9590   47.2930 C   0  0  0  0  0  0  0  0  0  0  0  0
   59.1930   28.4060   47.3010 C   0  0  0  0  0  0  0  0  0  0  0  0
   58.0550   29.2160   47.0220 O   0  0  0  0  0  0  0  0  0  0  0  0
   58.1200   30.4240   46.3170 C   0  0  0  0  0  0  0  0  0  0  0  0
   58.5620   31.4640   46.8800 O   0  0  0  0  0  0  0  0  0  0  0  0
   57.6170   30.5030   44.9300 C   0  0  0  0  0  0  0  0  0  0  0  0
   58.2070   31.4290   44.0490 C   0  0  0  0  0  0  0  0  0  0  0  0
   57.7140   31.5920   42.7520 C   0  0  0  0  0  0  0  0  0  0  0  0
   56.6260   30.8360   42.3180 C   0  0  0  0  0  0  0  0  0  0  0  0
   56.0410   29.8990   43.1720 C   0  0  0  0  0  0  0  0  0  0  0  0
   56.5380   29.7070   44.4680 C   0  0  0  0  0  0  0  0  0  0  0  0
   55.9600   28.7010   45.2450 O   0  0  0  0  0  0  0  0  0  0  0  0
   57.4360   26.5870   47.1940 N   0  0  0  0  0  0  0  0  0  0  0  0
   56.9150   25.5360   46.3690 C   0  0  0  0  0  0  0  0  0  0  0  0
   57.7480   24.4540   46.0570 C   0  0  0  0  0  0  0  0  0  0  0  0
   57.2830   23.4120   45.2510 C   0  0  0  0  0  0  0  0  0  0  0  0
   55.9860   23.4510   44.7350 C   0  0  0  0  0  0  0  0  0  0  0  0
   55.1570   24.5420   45.0120 C   0  0  0  0  0  0  0  0  0  0  0  0
   55.6190   25.5920   45.8130 C   0  0  0  0  0  0  0  0  0  0  0  0
   54.7980   26.6950   46.0190 O   0  0  0  0  0  0  0  0  0  0  0  0
   59.5930   28.6711   48.2908 H   0  0  0  0  0  0  0  0  0  0  0  0
   59.9547   28.5811   46.5269 H   0  0  0  0  0  0  0  0  0  0  0  0
   59.0647   32.0302   44.3851 H   0  0  0  0  0  0  0  0  0  0  0  0
   58.1848   32.3176   42.0725 H   0  0  0  0  0  0  0  0  0  0  0  0
   56.2282   30.9778   41.3023 H   0  0  0  0  0  0  0  0  0  0  0  0
   55.1822   29.3061   42.8243 H   0  0  0  0  0  0  0  0  0  0  0  0
   56.4800   28.1450   45.9090 H   0  0  0  0  0  0  0  0  0  0  0  0
   58.7753   24.4246   46.4493 H   0  0  0  0  0  0  0  0  0  0  0  0
   57.9395   22.5595   45.0225 H   0  0  0  0  0  0  0  0  0  0  0  0
   55.6169   22.6238   44.1110 H   0  0  0  0  0  0  0  0  0  0  0  0
   54.1381   24.5751   44.5988 H   0  0  0  0  0  0  0  0  0  0  0  0
  1  2  2  0
  2  3  1  0
  3  4  1  0
  4  5  1  0
  5  6  2  0
  5  7  1  0
  7  8  2  0
  8  9  1  0
  9 10  2  0
 10 11  1  0
 11 12  2  0
 12 13  1  0
  2 14  1  0
 14 15  1  0
 15 16  2  0
 16 17  1  0
 17 18  2  0
 18 19  1  0
 19 20  2  0
 20 21  1  0
 12  7  1  0
 20 15  1  0
  3 22  1  0
  3 23  1  0
  8 24  1  0
  9 25  1  0
 10 26  1  0
 11 27  1  0
 13 28  1  0
 16 29  1  0
 17 30  1  0
 18 31  1  0
 19 32  1  0
M  CHG  2  14  -1  21  -1
M  END
>  <UniqueID>  (79) 
72

>  <SMILES>  (79) 
O=C(COC(=O)c1ccccc1O)[N-]c1ccccc1[O-]

>  <Energy>  (79) 
41.125033584093636

>  <Genealogy>  (79) 
O=C(COC(=O)c1ccccc1O)[N-]c1ccccc1[O-] (protonated)
O=C(COC(=O)c1ccccc1O)[N-]c1ccccc1[O-] (3D coordinates assigned)
O=C(COC(=O)c1ccccc1O)[N-]c1ccccc1[O-] (optimized conformer: 41.125033584093636 kcal/mol)

>  <smiles>  (79) 
O=C(COC(=O)c1ccccc1O)Nc1ccccc1O

>  <score_type>  (79) 
oracle

>  <origin>  (79) 
adg

>  <m_score__min__energy>  (79) 
-12.949999999999999

>  <m_primary>  (79) 
energy

$$$$
79:0
     RDKit          3D

 55 58  0  0  1  0  0  0  0  0999 V2000
   62.0450   25.1730   52.3660 C   0  0  0  0  0  0  0  0  0  0  0  0
   61.1370   25.5140   51.3450 O   0  0  0  0  0  0  0  0  0  0  0  0
   61.1610   26.7960   50.8010 C   0  0  0  0  0  0  0  0  0  0  0  0
   61.8000   27.7390   51.5040 N   0  0  0  0  0  0  0  0  0  0  0  0
   61.8190   28.9680   50.9750 C   0  0  0  0  0  0  0  0  0  0  0  0
   62.4290   29.8930   51.6350 N   0  0  0  0  0  0  0  0  0  0  0  0
   63.4000   30.7210   51.0530 C   0  0  0  0  0  0  0  0  0  0  0  0
   63.2040   31.6380   50.0660 C   0  0  0  0  0  0  0  0  0  0  0  0
   64.3910   32.2080   49.8050 N   0  0  0  0  0  0  0  0  0  0  0  0
   65.3360   31.6990   50.5750 N   0  0  0  0  0  0  0  0  0  0  0  0
   66.7320   32.1130   50.5270 C   0  0  0  0  0  0  0  0  0  0  0  0
   64.7550   30.7740   51.3620 C   0  0  0  0  0  0  0  0  0  0  0  0
   61.2030   29.2560   49.7490 C   0  0  0  0  0  0  0  0  0  0  0  0
   60.5410   28.2550   49.0330 C   0  0  0  0  0  0  0  0  0  0  0  0
   59.9090   28.5760   47.7650 C   0  0  0  0  0  0  0  0  0  0  0  0
   60.2080   29.7770   47.1400 C   0  0  0  0  0  0  0  0  0  0  0  0
   59.6250   30.1350   45.9180 C   0  0  0  0  0  0  0  0  0  0  0  0
   58.7310   29.3120   45.2790 C   0  0  0  0  0  0  0  0  0  0  0  0
   58.1680   29.7190   44.0420 N   0  0  0  0  0  0  0  0  0  0  0  0
   57.1510   31.1090   43.8860 S   0  0  0  0  0  0  0  0  0  0  0  0
   55.8050   30.7600   44.4750 O   0  0  0  0  0  0  0  0  0  0  0  0
   56.9970   31.4030   42.4340 O   0  0  0  0  0  0  0  0  0  0  0  0
   57.8390   32.4800   44.7510 C   0  0  0  0  0  0  0  0  0  0  0  0
   58.6410   33.3830   44.1100 C   0  0  0  0  0  0  0  0  0  0  0  0
   59.1410   34.4330   44.8650 C   0  0  0  0  0  0  0  0  0  0  0  0
   58.8560   34.5800   46.2110 C   0  0  0  0  0  0  0  0  0  0  0  0
   59.3450   35.6080   46.9540 F   0  0  0  0  0  0  0  0  0  0  0  0
   58.0440   33.6560   46.8390 C   0  0  0  0  0  0  0  0  0  0  0  0
   57.5550   32.6250   46.0860 C   0  0  0  0  0  0  0  0  0  0  0  0
   58.4290   28.1220   45.8890 C   0  0  0  0  0  0  0  0  0  0  0  0
   59.0110   27.7600   47.1150 C   0  0  0  0  0  0  0  0  0  0  0  0
   58.6380   26.5570   47.6260 O   0  0  0  0  0  0  0  0  0  0  0  0
   57.8750   25.6410   46.8920 C   0  0  0  0  0  0  0  0  0  0  0  0
   60.5530   27.0480   49.6080 N   0  0  0  0  0  0  0  0  0  0  0  0
   61.5775   25.3486   53.3461 H   0  0  0  0  0  0  0  0  0  0  0  0
   62.3176   24.1112   52.2747 H   0  0  0  0  0  0  0  0  0  0  0  0
   62.9491   25.7928   52.2747 H   0  0  0  0  0  0  0  0  0  0  0  0
   62.2483   31.8694   49.5729 H   0  0  0  0  0  0  0  0  0  0  0  0
   67.1161   32.2269   51.5514 H   0  0  0  0  0  0  0  0  0  0  0  0
   67.3223   31.3513   49.9967 H   0  0  0  0  0  0  0  0  0  0  0  0
   66.8116   33.0734   49.9967 H   0  0  0  0  0  0  0  0  0  0  0  0
   65.2657   30.1633   52.1211 H   0  0  0  0  0  0  0  0  0  0  0  0
   61.2411   30.2792   49.3470 H   0  0  0  0  0  0  0  0  0  0  0  0
   60.9212   30.4661   47.6160 H   0  0  0  0  0  0  0  0  0  0  0  0
   59.8898   31.0990   45.4590 H   0  0  0  0  0  0  0  0  0  0  0  0
   58.4150   29.1080   43.2090 H   0  0  0  0  0  0  0  0  0  0  0  0
   58.8794   33.2808   43.0410 H   0  0  0  0  0  0  0  0  0  0  0  0
   59.7879   35.1763   44.3761 H   0  0  0  0  0  0  0  0  0  0  0  0
   57.7993   33.7464   47.9076 H   0  0  0  0  0  0  0  0  0  0  0  0
   56.9065   31.8802   46.5705 H   0  0  0  0  0  0  0  0  0  0  0  0
   57.7159   27.4362   45.4082 H   0  0  0  0  0  0  0  0  0  0  0  0
   57.3272   24.9833   47.5829 H   0  0  0  0  0  0  0  0  0  0  0  0
   57.1591   26.1848   46.2582 H   0  0  0  0  0  0  0  0  0  0  0  0
   58.5393   25.0352   46.2582 H   0  0  0  0  0  0  0  0  0  0  0  0
   60.0990   26.2280   49.1750 H   0  0  0  0  0  0  0  0  0  0  0  0
  1  2  1  0
  2  3  1  0
  3  4  2  0
  4  5  1  0
  5  6  2  0
  6  7  1  0
  7  8  1  0
  8  9  2  0
  9 10  1  0
 10 11  1  0
 10 12  1  0
  5 13  1  0
 13 14  2  0
 14 15  1  0
 15 16  2  0
 16 17  1  0
 17 18  2  0
 18 19  1  0
 19 20  1  0
 20 21  2  0
 20 22  2  0
 20 23  1  0
 23 24  2  0
 24 25  1  0
 25 26  2  0
 26 27  1  0
 26 28  1  0
 28 29  2  0
 18 30  1  0
 30 31  2  0
 31 32  1  0
 32 33  1  0
 14 34  1  0
 34  3  1  0
 12  7  2  0
 31 15  1  0
 29 23  1  0
  1 35  1  0
  1 36  1  0
  1 37  1  0
  8 38  1  0
 11 39  1  0
 11 40  1  0
 11 41  1  0
 12 42  1  0
 13 43  1  0
 16 44  1  0
 17 45  1  0
 19 46  1  0
 24 47  1  0
 25 48  1  0
 28 49  1  0
 29 50  1  0
 30 51  1  0
 33 52  1  0
 33 53  1  0
 33 54  1  0
 34 55  1  0
M  END
>  <smiles>  (80) 
COc1nc(=Nc2cnn(C)c2)cc(-c2ccc(NS(=O)(=O)c3ccc(F)cc3)cc2OC)[nH]1

>  <score_type>  (80) 
oracle

>  <origin>  (80) 
adg

>  <m_score__min__energy>  (80) 
-9.7400000000000002

>  <m_primary>  (80) 
energy

$$$$
80:0
     RDKit          3D

 51 54  0  0  0  0  0  0  0  0999 V2000
   56.3730   32.4667   44.4441 H   0  0  0  0  0  0  0  0  0  0  0  0
   56.7970   31.5200   44.8100 C   0  0  0  0  0  0  0  0  0  0  0  0
   56.2830   30.3070   44.4690 N   0  0  0  0  0  0  0  0  0  0  0  0
   56.9750   29.2970   45.0430 C   0  0  0  0  0  0  0  0  0  0  0  0
   56.7080   28.0370   44.8810 N   0  0  0  0  0  0  0  0  0  0  0  0
   56.3420   27.1000   45.9040 C   0  0  0  0  0  0  0  0  0  0  0  0
   55.1520   26.7050   46.0220 O   0  0  0  0  0  0  0  0  0  0  0  0
   57.3340   26.5810   46.7970 N   0  0  0  0  0  0  0  0  0  0  0  0
   58.3870   25.6250   46.4450 C   0  0  1  0  0  0  0  0  0  0  0  0
   58.6857   25.0585   47.3393 H   0  0  0  0  0  0  0  0  0  0  0  0
   57.8700   24.5750   45.4710 C   0  0  0  0  0  0  0  0  0  0  0  0
   57.4120   24.8950   44.1740 C   0  0  0  0  0  0  0  0  0  0  0  0
   57.4351   25.9392   43.8288 H   0  0  0  0  0  0  0  0  0  0  0  0
   56.9290   23.8930   43.3250 C   0  0  0  0  0  0  0  0  0  0  0  0
   56.5767   24.1522   42.3157 H   0  0  0  0  0  0  0  0  0  0  0  0
   56.8930   22.5660   43.7550 C   0  0  0  0  0  0  0  0  0  0  0  0
   56.5198   21.7793   43.0828 H   0  0  0  0  0  0  0  0  0  0  0  0
   57.3310   22.2380   45.0390 C   0  0  0  0  0  0  0  0  0  0  0  0
   57.2978   21.1925   45.3795 H   0  0  0  0  0  0  0  0  0  0  0  0
   57.8120   23.2350   45.8940 C   0  0  0  0  0  0  0  0  0  0  0  0
   58.1481   22.9685   46.9069 H   0  0  0  0  0  0  0  0  0  0  0  0
   59.6530   26.3610   45.9860 C   0  0  0  0  0  0  0  0  0  0  0  0
   60.2236   26.6927   46.8660 H   0  0  0  0  0  0  0  0  0  0  0  0
   60.2728   25.6824   45.3815 H   0  0  0  0  0  0  0  0  0  0  0  0
   59.3700   27.2354   45.3815 H   0  0  0  0  0  0  0  0  0  0  0  0
   58.2420   29.8520   45.9900 S   0  0  0  0  0  0  0  0  0  0  0  0
   57.9040   31.4710   45.6600 C   0  0  0  0  0  0  0  0  0  0  0  0
   58.6960   32.6060   46.1750 C   0  0  0  0  0  0  0  0  0  0  0  0
   60.0470   32.4800   46.2470 N   0  0  0  0  0  0  0  0  0  0  0  0
   60.8420   33.4920   46.6870 C   0  0  0  0  0  0  0  0  0  0  0  0
   62.1360   33.3560   46.7480 N   0  0  0  0  0  0  0  0  0  0  0  0
   62.9020   32.8680   47.8660 C   0  0  0  0  0  0  0  0  0  0  0  0
   64.1220   33.4550   48.2530 C   0  0  0  0  0  0  0  0  0  0  0  0
   64.5257   34.3046   47.6828 H   0  0  0  0  0  0  0  0  0  0  0  0
   64.8220   32.9640   49.3570 C   0  0  0  0  0  0  0  0  0  0  0  0
   65.7821   33.4201   49.6402 H   0  0  0  0  0  0  0  0  0  0  0  0
   64.3140   31.8980   50.1060 C   0  0  0  0  0  0  0  0  0  0  0  0
   65.0570   31.4420   51.2040 O   0  0  0  0  0  0  0  0  0  0  0  0
   66.4610   31.1870   51.1780 C   0  0  0  0  0  0  0  0  0  0  0  0
   66.8403   31.1181   52.2082 H   0  0  0  0  0  0  0  0  0  0  0  0
   66.6519   30.2395   50.6529 H   0  0  0  0  0  0  0  0  0  0  0  0
   66.9729   32.0069   50.6529 H   0  0  0  0  0  0  0  0  0  0  0  0
   63.0740   31.3330   49.7430 C   0  0  0  0  0  0  0  0  0  0  0  0
   62.6572   30.5014   50.3301 H   0  0  0  0  0  0  0  0  0  0  0  0
   62.3730   31.8270   48.6390 C   0  0  0  0  0  0  0  0  0  0  0  0
   61.3969   31.3940   48.3751 H   0  0  0  0  0  0  0  0  0  0  0  0
   60.2750   34.6560   47.0990 N   0  0  0  0  0  0  0  0  0  0  0  0
   58.9300   34.8320   47.0550 C   0  0  0  0  0  0  0  0  0  0  0  0
   58.4891   35.7819   47.3916 H   0  0  0  0  0  0  0  0  0  0  0  0
   58.1050   33.8090   46.5830 C   0  0  0  0  0  0  0  0  0  0  0  0
   57.0146   33.9447   46.5326 H   0  0  0  0  0  0  0  0  0  0  0  0
  1  2  1  0
  2  3  1  0
  3  4  1  0
  4  5  2  0
  5  6  1  0
  6  7  2  0
  6  8  1  0
  8  9  1  0
  9 10  1  1
  9 11  1  0
 11 12  2  0
 12 13  1  0
 12 14  1  0
 14 15  1  0
 14 16  2  0
 16 17  1  0
 16 18  1  0
 18 19  1  0
 18 20  2  0
 20 21  1  0
  9 22  1  0
 22 23  1  0
 22 24  1  0
 22 25  1  0
  4 26  1  0
 26 27  1  0
 27 28  1  0
 28 29  2  0
 29 30  1  0
 30 31  2  3
 31 32  1  0
 32 33  2  0
 33 34  1  0
 33 35  1  0
 35 36  1  0
 35 37  2  0
 37 38  1  0
 38 39  1  0
 39 40  1  0
 39 41  1  0
 39 42  1  0
 37 43  1  0
 43 44  1  0
 43 45  2  0
 45 46  1  0
 30 47  1  0
 47 48  1  0
 48 49  1  0
 48 50  2  0
 50 51  1  0
 27  2  2  0
 50 28  1  0
 20 11  1  0
 45 32  1  0
M  CHG  3   3  -1   8  -1  47  -1
M  END
>  <UniqueID>  (81) 
73

>  <SMILES>  (81) 
COc1ccc(N=c2nc(-c3c[n-]/c(=N\C(=O)[N-][C@H](C)c4ccccc4)s3)cc[n-]2)cc1

>  <Energy>  (81) 
93.56390651648577

>  <Genealogy>  (81) 
COc1ccc(N=c2nc(-c3c[n-]c(=NC(=O)[N-]C(C)c4ccccc4)s3)cc[n-]2)cc1 (protonated)
COc1ccc(N=c2nc(-c3c[n-]c(=NC(=O)[N-][C@H](C)c4ccccc4)s3)cc[n-]2)cc1 (chirality)
COc1ccc(N=c2nc(-c3c[n-]/c(=N\C(=O)[N-][C@H](C)c4ccccc4)s3)cc[n-]2)cc1 (cis-trans isomerization)
COc1ccc(N=c2nc(-c3c[n-]/c(=N\C(=O)[N-][C@H](C)c4ccccc4)s3)cc[n-]2)cc1 (3D coordinates assigned)
COc1ccc(N=c2nc(-c3c[n-]/c(=N\C(=O)[N-][C@H](C)c4ccccc4)s3)cc[n-]2)cc1 (optimized conformer: 93.56390651648577 kcal/mol)

>  <smiles>  (81) 
COc1ccc(N=c2nc(-c3c[nH]c(=NC(=O)NC(C)c4ccccc4)s3)cc[nH]2)cc1

>  <score_type>  (81) 
oracle

>  <origin>  (81) 
adg

>  <m_score__min__energy>  (81) 
-12.789999999999999

>  <m_primary>  (81) 
energy

$$$$
81:0
     RDKit          3D

 53 56  0  0  0  0  0  0  0  0999 V2000
   58.5950   32.7390   49.5080 H   0  0  0  0  0  0  0  0  0  0  0  0
   58.4410   32.1340   48.7090 O   0  0  0  0  0  0  0  0  0  0  0  0
   58.3360   32.6460   47.4160 C   0  0  0  0  0  0  0  0  0  0  0  0
   57.7490   31.8790   46.4010 C   0  0  0  0  0  0  0  0  0  0  0  0
   57.3885   30.8638   46.6236 H   0  0  0  0  0  0  0  0  0  0  0  0
   57.6170   32.3960   45.1010 C   0  0  0  0  0  0  0  0  0  0  0  0
   56.9960   31.6060   44.0150 C   0  0  0  0  0  0  0  0  0  0  0  0
   56.1683   32.0654   43.4548 H   0  0  0  0  0  0  0  0  0  0  0  0
   57.3750   30.3670   43.6680 C   0  0  0  0  0  0  0  0  0  0  0  0
   57.5669   30.1606   42.6047 H   0  0  0  0  0  0  0  0  0  0  0  0
   57.5490   29.2630   44.6370 C   0  0  0  0  0  0  0  0  0  0  0  0
   56.4430   28.6200   45.2040 C   0  0  0  0  0  0  0  0  0  0  0  0
   55.1500   28.9630   44.8280 O   0  0  0  0  0  0  0  0  0  0  0  0
   56.6310   27.6470   46.1250 N   0  0  0  0  0  0  0  0  0  0  0  0
   57.8740   27.2780   46.5280 C   0  0  0  0  0  0  0  0  0  0  0  0
   57.9840   26.3750   47.4000 O   0  0  0  0  0  0  0  0  0  0  0  0
   58.9850   27.8810   45.9920 N   0  0  0  0  0  0  0  0  0  0  0  0
   60.3300   27.5610   46.5100 C   0  0  0  0  0  0  0  0  0  0  0  0
   60.4105   26.4754   46.6681 H   0  0  0  0  0  0  0  0  0  0  0  0
   61.0850   27.8893   45.7805 H   0  0  0  0  0  0  0  0  0  0  0  0
   60.5630   28.2740   47.8170 C   0  0  0  0  0  0  0  0  0  0  0  0
   60.7170   29.6710   47.8480 C   0  0  0  0  0  0  0  0  0  0  0  0
   60.7164   30.2426   46.9081 H   0  0  0  0  0  0  0  0  0  0  0  0
   60.8710   30.3380   49.0680 C   0  0  0  0  0  0  0  0  0  0  0  0
   60.9946   31.4309   49.0847 H   0  0  0  0  0  0  0  0  0  0  0  0
   60.8680   29.6180   50.2650 C   0  0  0  0  0  0  0  0  0  0  0  0
   60.9868   30.1440   51.2238 H   0  0  0  0  0  0  0  0  0  0  0  0
   60.7140   28.2290   50.2440 C   0  0  0  0  0  0  0  0  0  0  0  0
   60.7155   27.6619   51.1866 H   0  0  0  0  0  0  0  0  0  0  0  0
   60.5580   27.5590   49.0260 C   0  0  0  0  0  0  0  0  0  0  0  0
   60.4307   26.4664   49.0150 H   0  0  0  0  0  0  0  0  0  0  0  0
   58.8310   28.8550   45.0350 C   0  0  0  0  0  0  0  0  0  0  0  0
   59.8410   29.4120   44.5210 O   0  0  0  0  0  0  0  0  0  0  0  0
   58.1350   33.6650   44.8160 C   0  0  0  0  0  0  0  0  0  0  0  0
   58.0782   34.0606   43.7912 H   0  0  0  0  0  0  0  0  0  0  0  0
   58.7240   34.4330   45.8250 C   0  0  0  0  0  0  0  0  0  0  0  0
   59.1155   35.4343   45.5921 H   0  0  0  0  0  0  0  0  0  0  0  0
   58.8190   33.9320   47.1380 C   0  0  0  0  0  0  0  0  0  0  0  0
   59.3850   34.6730   48.1890 O   0  0  0  0  0  0  0  0  0  0  0  0
   60.2260   34.1420   49.2130 C   0  0  0  0  0  0  0  0  0  0  0  0
   60.3484   34.8950   50.0055 H   0  0  0  0  0  0  0  0  0  0  0  0
   59.7574   33.2327   49.6173 H   0  0  0  0  0  0  0  0  0  0  0  0
   61.5800   33.7820   48.6610 C   0  0  0  0  0  0  0  0  0  0  0  0
   61.7880   33.7040   47.2730 C   0  0  0  0  0  0  0  0  0  0  0  0
   60.9582   33.9108   46.5811 H   0  0  0  0  0  0  0  0  0  0  0  0
   63.0480   33.3640   46.7700 C   0  0  0  0  0  0  0  0  0  0  0  0
   63.2083   33.3105   45.6831 H   0  0  0  0  0  0  0  0  0  0  0  0
   64.1040   33.0920   47.6440 C   0  0  0  0  0  0  0  0  0  0  0  0
   65.0948   32.8286   47.2453 H   0  0  0  0  0  0  0  0  0  0  0  0
   63.9000   33.1550   49.0250 C   0  0  0  0  0  0  0  0  0  0  0  0
   64.7300   32.9369   49.7131 H   0  0  0  0  0  0  0  0  0  0  0  0
   62.6420   33.4950   49.5340 C   0  0  0  0  0  0  0  0  0  0  0  0
   62.4841   33.5377   50.6218 H   0  0  0  0  0  0  0  0  0  0  0  0
  1  2  1  0
  2  3  1  0
  3  4  2  0
  4  5  1  0
  4  6  1  0
  6  7  1  0
  7  8  1  0
  7  9  2  0
  9 10  1  0
  9 11  1  0
 11 12  2  0
 12 13  1  0
 12 14  1  0
 14 15  1  0
 15 16  2  0
 15 17  1  0
 17 18  1  0
 18 19  1  0
 18 20  1  0
 18 21  1  0
 21 22  2  0
 22 23  1  0
 22 24  1  0
 24 25  1  0
 24 26  2  0
 26 27  1  0
 26 28  1  0
 28 29  1  0
 28 30  2  0
 30 31  1  0
 17 32  1  0
 32 33  2  0
  6 34  2  0
 34 35  1  0
 34 36  1  0
 36 37  1  0
 36 38  2  0
 38 39  1  0
 39 40  1  0
 40 41  1  0
 40 42  1  0
 40 43  1  0
 43 44  2  0
 44 45  1  0
 44 46  1  0
 46 47  1  0
 46 48  2  0
 48 49  1  0
 48 50  1  0
 50 51  1  0
 50 52  2  0
 52 53  1  0
 38  3  1  0
 52 43  1  0
 32 11  1  0
 30 21  1  0
M  CHG  2  13  -1  14  -1
M  END
>  <UniqueID>  (82) 
74

>  <SMILES>  (82) 
O=c1[n-]c([O-])c(/C=C\c2ccc(OCc3ccccc3)c(O)c2)c(=O)n1Cc1ccccc1

>  <Energy>  (82) 
72.07245238179543

>  <Genealogy>  (82) 
O=c1[n-]c([O-])c(C=Cc2ccc(OCc3ccccc3)c(O)c2)c(=O)n1Cc1ccccc1 (protonated)
O=c1[n-]c([O-])c(/C=C\c2ccc(OCc3ccccc3)c(O)c2)c(=O)n1Cc1ccccc1 (cis-trans isomerization)
O=c1[n-]c([O-])c(/C=C\c2ccc(OCc3ccccc3)c(O)c2)c(=O)n1Cc1ccccc1 (3D coordinates assigned)
O=c1[n-]c([O-])c(/C=C\c2ccc(OCc3ccccc3)c(O)c2)c(=O)n1Cc1ccccc1 (optimized conformer: 72.07245238179543 kcal/mol)

>  <smiles>  (82) 
O=c1[nH]c(O)c(C=Cc2ccc(OCc3ccccc3)c(O)c2)c(=O)n1Cc1ccccc1

>  <score_type>  (82) 
oracle

>  <origin>  (82) 
adg

>  <m_score__min__energy>  (82) 
-13.58

>  <m_primary>  (82) 
energy

$$$$
82:0
     RDKit          3D

 45 47  0  0  0  0  0  0  0  0999 V2000
   58.9130   34.8750   46.2900 O   0  0  0  0  0  0  0  0  0  0  0  0
   58.3540   33.8100   45.9150 C   0  0  0  0  0  0  0  0  0  0  0  0
   57.7770   33.7260   44.5330 C   0  0  0  0  0  0  0  0  0  0  0  0
   57.6320   32.2690   44.0790 C   0  0  0  0  0  0  0  0  0  0  0  0
   56.6290   31.5660   44.8850 N   0  0  0  0  0  0  0  0  0  0  0  0
   56.5670   29.8750   44.4800 S   0  0  0  0  0  0  0  0  0  0  0  0
   56.8690   29.7090   43.0190 O   0  0  0  0  0  0  0  0  0  0  0  0
   55.1910   29.3390   44.7620 O   0  0  0  0  0  0  0  0  0  0  0  0
   57.7620   28.9830   45.4170 C   0  0  0  0  0  0  0  0  0  0  0  0
   58.3500   27.8210   44.8920 C   0  0  0  0  0  0  0  0  0  0  0  0
   59.2910   27.1070   45.6410 C   0  0  0  0  0  0  0  0  0  0  0  0
   59.6470   27.5530   46.9170 C   0  0  0  0  0  0  0  0  0  0  0  0
   59.0900   28.7310   47.4310 C   0  0  0  0  0  0  0  0  0  0  0  0
   58.1390   29.4390   46.6890 C   0  0  0  0  0  0  0  0  0  0  0  0
   59.4960   29.1820   48.6910 O   0  0  0  0  0  0  0  0  0  0  0  0
   60.6460   28.6310   49.3370 C   0  0  0  0  0  0  0  0  0  0  0  0
   60.7200   27.1180   49.0910 C   0  0  0  0  0  0  0  0  0  0  0  0
   60.5590   26.8350   47.6970 O   0  0  0  0  0  0  0  0  0  0  0  0
   58.2300   32.6990   46.8160 N   0  0  0  0  0  0  0  0  0  0  0  0
   58.7690   32.7260   48.1740 C   0  0  0  0  0  0  0  0  0  0  0  0
   60.2700   32.8270   48.1380 C   0  0  0  0  0  0  0  0  0  0  0  0
   61.0280   31.8070   47.5400 C   0  0  0  0  0  0  0  0  0  0  0  0
   62.4220   31.9040   47.4850 C   0  0  0  0  0  0  0  0  0  0  0  0
   63.0680   33.0220   48.0230 C   0  0  0  0  0  0  0  0  0  0  0  0
   64.4190   33.1150   47.9690 F   0  0  0  0  0  0  0  0  0  0  0  0
   62.3200   34.0430   48.6160 C   0  0  0  0  0  0  0  0  0  0  0  0
   60.9250   33.9490   48.6730 C   0  0  0  0  0  0  0  0  0  0  0  0
   56.7859   34.2033   44.5286 H   0  0  0  0  0  0  0  0  0  0  0  0
   58.4589   34.2401   43.8396 H   0  0  0  0  0  0  0  0  0  0  0  0
   57.3232   32.2500   43.0234 H   0  0  0  0  0  0  0  0  0  0  0  0
   58.6009   31.7639   44.2057 H   0  0  0  0  0  0  0  0  0  0  0  0
   58.0695   27.4708   43.8877 H   0  0  0  0  0  0  0  0  0  0  0  0
   59.7497   26.1969   45.2270 H   0  0  0  0  0  0  0  0  0  0  0  0
   57.6870   30.3526   47.1025 H   0  0  0  0  0  0  0  0  0  0  0  0
   61.5518   29.1088   48.9355 H   0  0  0  0  0  0  0  0  0  0  0  0
   60.5716   28.8148   50.4190 H   0  0  0  0  0  0  0  0  0  0  0  0
   61.6977   26.7427   49.4273 H   0  0  0  0  0  0  0  0  0  0  0  0
   59.9141   26.6233   49.6529 H   0  0  0  0  0  0  0  0  0  0  0  0
   57.7270   31.8400   46.4970 H   0  0  0  0  0  0  0  0  0  0  0  0
   58.3595   33.5951   48.7098 H   0  0  0  0  0  0  0  0  0  0  0  0
   58.4851   31.7971   48.6903 H   0  0  0  0  0  0  0  0  0  0  0  0
   60.5230   30.9280   47.1130 H   0  0  0  0  0  0  0  0  0  0  0  0
   63.0109   31.1006   47.0184 H   0  0  0  0  0  0  0  0  0  0  0  0
   62.8288   34.9219   49.0386 H   0  0  0  0  0  0  0  0  0  0  0  0
   60.3395   34.7558   49.1380 H   0  0  0  0  0  0  0  0  0  0  0  0
  1  2  2  0
  2  3  1  0
  3  4  1  0
  4  5  1  0
  5  6  1  0
  6  7  2  0
  6  8  2  0
  6  9  1  0
  9 10  2  0
 10 11  1  0
 11 12  2  0
 12 13  1  0
 13 14  2  0
 13 15  1  0
 15 16  1  0
 16 17  1  0
 17 18  1  0
  2 19  1  0
 19 20  1  0
 20 21  1  0
 21 22  2  0
 22 23  1  0
 23 24  2  0
 24 25  1  0
 24 26  1  0
 26 27  2  0
 14  9  1  0
 27 21  1  0
 18 12  1  0
  3 28  1  0
  3 29  1  0
  4 30  1  0
  4 31  1  0
 10 32  1  0
 11 33  1  0
 14 34  1  0
 16 35  1  0
 16 36  1  0
 17 37  1  0
 17 38  1  0
 19 39  1  0
 20 40  1  0
 20 41  1  0
 22 42  1  0
 23 43  1  0
 26 44  1  0
 27 45  1  0
M  CHG  1   5  -1
M  END
>  <UniqueID>  (83) 
75

>  <SMILES>  (83) 
O=C(CC[N-]S(=O)(=O)c1ccc2c(c1)OCCO2)NCc1ccc(F)cc1

>  <Energy>  (83) 
41.43817742997983

>  <Genealogy>  (83) 
O=C(CC[N-]S(=O)(=O)c1ccc2c(c1)OCCO2)NCc1ccc(F)cc1 (protonated)
O=C(CC[N-]S(=O)(=O)c1ccc2c(c1)OCCO2)NCc1ccc(F)cc1 (3D coordinates assigned)
O=C(CC[N-]S(=O)(=O)c1ccc2c(c1)OCCO2)NCc1ccc(F)cc1 (nonaromatic ring conformer: 41.43817742997983 kcal/mol)

>  <smiles>  (83) 
O=C(CCNS(=O)(=O)c1ccc2c(c1)OCCO2)NCc1ccc(F)cc1

>  <score_type>  (83) 
oracle

>  <origin>  (83) 
adg

>  <m_score__min__energy>  (83) 
-9.2599999999999998

>  <m_primary>  (83) 
energy

$$$$
83:0
     RDKit          3D

 58 61  0  0  1  0  0  0  0  0999 V2000
   64.1240   34.5230   51.9960 C   0  0  0  0  0  0  0  0  0  0  0  0
   63.6620   33.7220   50.9190 O   0  0  0  0  0  0  0  0  0  0  0  0
   62.4740   33.0080   50.9630 C   0  0  0  0  0  0  0  0  0  0  0  0
   61.3000   33.5120   51.4960 C   0  0  0  0  0  0  0  0  0  0  0  0
   60.1320   32.7530   51.5150 C   0  0  0  0  0  0  0  0  0  0  0  0
   60.1220   31.4530   50.9930 C   0  0  0  0  0  0  0  0  0  0  0  0
   61.2810   30.9610   50.4700 C   0  0  0  0  0  0  0  0  0  0  0  0
   61.4170   29.5940   49.8800 C   0  0  0  0  0  0  0  0  0  0  0  0
   60.6440   29.4890   48.6070 C   0  0  0  0  0  0  0  0  0  0  0  0
   60.7300   30.4300   47.7810 O   0  0  0  0  0  0  0  0  0  0  0  0
   59.8400   28.3500   48.3540 N   0  0  0  0  0  0  0  0  0  0  0  0
   59.0790   28.1570   47.1740 C   0  0  0  0  0  0  0  0  0  0  0  0
   59.2070   27.0090   46.4090 C   0  0  0  0  0  0  0  0  0  0  0  0
   58.4980   26.8120   45.2500 C   0  0  0  0  0  0  0  0  0  0  0  0
   57.6310   27.8100   44.8530 C   0  0  0  0  0  0  0  0  0  0  0  0
   57.5070   28.9510   45.6160 C   0  0  0  0  0  0  0  0  0  0  0  0
   56.5980   29.9160   45.1190 O   0  0  0  0  0  0  0  0  0  0  0  0
   57.1820   31.0220   44.4660 C   0  0  0  0  0  0  0  0  0  0  0  0
   57.2510   30.9860   43.1070 N   0  0  0  0  0  0  0  0  0  0  0  0
   57.7880   31.9840   42.3810 C   0  0  0  0  0  0  0  0  0  0  0  0
   58.2780   33.0670   43.0250 N   0  0  0  0  0  0  0  0  0  0  0  0
   58.2190   33.1230   44.3690 C   0  0  0  0  0  0  0  0  0  0  0  0
   58.6930   34.1450   44.9620 N   0  0  0  0  0  0  0  0  0  0  0  0
   59.4610   34.1570   46.1520 C   0  0  0  0  0  0  0  0  0  0  0  0
   58.9040   34.3950   47.3940 C   0  0  0  0  0  0  0  0  0  0  0  0
   59.7570   34.3560   48.4990 C   0  0  0  0  0  0  0  0  0  0  0  0
   61.1030   34.0870   48.3230 C   0  0  0  0  0  0  0  0  0  0  0  0
   61.6620   33.8500   47.0900 C   0  0  0  0  0  0  0  0  0  0  0  0
   63.0740   33.5560   46.8910 C   0  0  0  0  0  0  0  0  0  0  0  0
   63.8540   32.8490   47.8520 N   0  0  0  0  0  0  0  0  0  0  0  0
   63.6790   33.9220   45.8360 O   0  0  0  0  0  0  0  0  0  0  0  0
   60.8260   33.8870   46.0000 C   0  0  0  0  0  0  0  0  0  0  0  0
   57.6710   32.1100   45.1400 C   0  0  0  0  0  0  0  0  0  0  0  0
   57.6040   32.1750   46.4800 F   0  0  0  0  0  0  0  0  0  0  0  0
   58.2100   29.1670   46.7840 C   0  0  0  0  0  0  0  0  0  0  0  0
   62.4310   31.7340   50.4600 C   0  0  0  0  0  0  0  0  0  0  0  0
   63.8502   34.0483   52.9498 H   0  0  0  0  0  0  0  0  0  0  0  0
   65.2179   34.6220   51.9364 H   0  0  0  0  0  0  0  0  0  0  0  0
   63.6619   35.5194   51.9364 H   0  0  0  0  0  0  0  0  0  0  0  0
   61.2892   34.5302   51.9120 H   0  0  0  0  0  0  0  0  0  0  0  0
   59.2116   33.1772   51.9427 H   0  0  0  0  0  0  0  0  0  0  0  0
   59.2046   30.8461   51.0048 H   0  0  0  0  0  0  0  0  0  0  0  0
   62.4789   29.3932   49.6752 H   0  0  0  0  0  0  0  0  0  0  0  0
   61.0206   28.8589   50.5959 H   0  0  0  0  0  0  0  0  0  0  0  0
   59.8110   27.6170   49.0790 H   0  0  0  0  0  0  0  0  0  0  0  0
   59.9032   26.2256   46.7430 H   0  0  0  0  0  0  0  0  0  0  0  0
   58.6166   25.8919   44.6590 H   0  0  0  0  0  0  0  0  0  0  0  0
   57.0415   27.6951   43.9314 H   0  0  0  0  0  0  0  0  0  0  0  0
   57.8275   31.9196   41.2836 H   0  0  0  0  0  0  0  0  0  0  0  0
   58.6880   33.8230   42.4320 H   0  0  0  0  0  0  0  0  0  0  0  0
   57.8306   34.6069   47.5078 H   0  0  0  0  0  0  0  0  0  0  0  0
   59.3594   34.5389   49.5082 H   0  0  0  0  0  0  0  0  0  0  0  0
   61.7543   34.0618   49.2091 H   0  0  0  0  0  0  0  0  0  0  0  0
   64.4680   32.0740   47.4580 H   0  0  0  0  0  0  0  0  0  0  0  0
   63.8330   33.0660   48.8810 H   0  0  0  0  0  0  0  0  0  0  0  0
   61.2346   33.7021   44.9956 H   0  0  0  0  0  0  0  0  0  0  0  0
   58.0885   30.0880   47.3730 H   0  0  0  0  0  0  0  0  0  0  0  0
   63.3488   31.3066   50.0298 H   0  0  0  0  0  0  0  0  0  0  0  0
  1  2  1  0
  2  3  1  0
  3  4  2  0
  4  5  1  0
  5  6  2  0
  6  7  1  0
  7  8  1  0
  8  9  1  0
  9 10  2  0
  9 11  1  0
 11 12  1  0
 12 13  2  0
 13 14  1  0
 14 15  2  0
 15 16  1  0
 16 17  1  0
 17 18  1  0
 18 19  1  0
 19 20  2  0
 20 21  1  0
 21 22  1  0
 22 23  2  0
 23 24  1  0
 24 25  2  0
 25 26  1  0
 26 27  2  0
 27 28  1  0
 28 29  1  0
 29 30  1  0
 29 31  2  0
 28 32  2  0
 22 33  1  0
 33 34  1  0
 16 35  2  0
  7 36  2  0
 36  3  1  0
 35 12  1  0
 33 18  2  0
 32 24  1  0
  1 37  1  0
  1 38  1  0
  1 39  1  0
  4 40  1  0
  5 41  1  0
  6 42  1  0
  8 43  1  0
  8 44  1  0
 11 45  1  0
 13 46  1  0
 14 47  1  0
 15 48  1  0
 20 49  1  0
 21 50  1  0
 25 51  1  0
 26 52  1  0
 27 53  1  0
 30 54  1  0
 30 55  1  0
 32 56  1  0
 35 57  1  0
 36 58  1  0
M  END
>  <smiles>  (84) 
COc1cccc(CC(=O)Nc2cccc(Oc3nc[nH]c(=Nc4cccc(C(N)=O)c4)c3F)c2)c1

>  <score_type>  (84) 
oracle

>  <origin>  (84) 
adg

>  <m_score__min__energy>  (84) 
-10.050000000000001

>  <m_primary>  (84) 
energy

$$$$
84:0
     RDKit          3D

 50 52  0  0  0  0  0  0  0  0999 V2000
   55.3390   30.4830   45.2350 H   0  0  0  0  0  0  0  0  0  0  0  0
   55.7170   29.7560   44.6390 O   0  0  0  0  0  0  0  0  0  0  0  0
   56.4860   28.6960   45.1230 C   0  0  0  0  0  0  0  0  0  0  0  0
   55.8410   27.6090   45.6200 N   0  0  0  0  0  0  0  0  0  0  0  0
   56.4970   26.5320   46.1210 C   0  0  0  0  0  0  0  0  0  0  0  0
   55.8290   25.5610   46.5690 O   0  0  0  0  0  0  0  0  0  0  0  0
   57.9030   26.5050   46.1280 C   0  0  0  0  0  0  0  0  0  0  0  0
   58.6080   25.3930   46.6300 C   0  0  0  0  0  0  0  0  0  0  0  0
   58.0558   24.5348   47.0405 H   0  0  0  0  0  0  0  0  0  0  0  0
   60.0020   25.3750   46.6090 C   0  0  0  0  0  0  0  0  0  0  0  0
   60.5457   24.5058   47.0076 H   0  0  0  0  0  0  0  0  0  0  0  0
   60.7080   26.4560   46.0840 C   0  0  0  0  0  0  0  0  0  0  0  0
   61.8076   26.4334   46.0636 H   0  0  0  0  0  0  0  0  0  0  0  0
   60.0270   27.5670   45.5840 C   0  0  0  0  0  0  0  0  0  0  0  0
   60.5949   28.4118   45.1672 H   0  0  0  0  0  0  0  0  0  0  0  0
   58.6160   27.6170   45.6080 C   0  0  0  0  0  0  0  0  0  0  0  0
   57.8960   28.7360   45.1170 C   0  0  0  0  0  0  0  0  0  0  0  0
   58.5870   29.9300   44.5780 C   0  0  0  0  0  0  0  0  0  0  0  0
   59.2852   29.8013   43.7378 H   0  0  0  0  0  0  0  0  0  0  0  0
   58.3950   31.1670   45.0750 C   0  0  0  0  0  0  0  0  0  0  0  0
   57.8100   32.2290   44.4060 C   0  0  0  0  0  0  0  0  0  0  0  0
   57.4195   32.2226   43.3776 H   0  0  0  0  0  0  0  0  0  0  0  0
   57.8120   33.2970   45.2800 C   0  0  0  0  0  0  0  0  0  0  0  0
   57.1610   34.6170   44.9890 C   0  0  0  0  0  0  0  0  0  0  0  0
   56.9129   35.1200   45.9353 H   0  0  0  0  0  0  0  0  0  0  0  0
   57.8519   35.2467   44.4092 H   0  0  0  0  0  0  0  0  0  0  0  0
   56.2409   34.4521   44.4092 H   0  0  0  0  0  0  0  0  0  0  0  0
   58.3730   32.9440   46.4630 N   0  0  0  0  0  0  0  0  0  0  0  0
   58.5470   33.8150   47.6380 C   0  0  0  0  0  0  0  0  0  0  0  0
   57.7049   34.5209   47.6872 H   0  0  0  0  0  0  0  0  0  0  0  0
   58.5796   33.1802   48.5357 H   0  0  0  0  0  0  0  0  0  0  0  0
   59.8630   34.6110   47.5620 C   0  0  0  0  0  0  0  0  0  0  0  0
   60.0496   34.8752   46.5106 H   0  0  0  0  0  0  0  0  0  0  0  0
   59.7412   35.4984   48.2005 H   0  0  0  0  0  0  0  0  0  0  0  0
   61.0820   33.8360   48.0930 C   0  0  0  0  0  0  0  0  0  0  0  0
   61.7728   34.5486   48.5674 H   0  0  0  0  0  0  0  0  0  0  0  0
   60.7135   33.0879   48.8103 H   0  0  0  0  0  0  0  0  0  0  0  0
   61.8080   33.1120   47.0250 N   0  0  0  0  0  0  0  0  0  0  0  0
   62.9980   33.8590   46.5760 C   0  0  0  0  0  0  0  0  0  0  0  0
   63.5612   34.2125   47.4523 H   0  0  0  0  0  0  0  0  0  0  0  0
   63.6376   33.2001   45.9704 H   0  0  0  0  0  0  0  0  0  0  0  0
   62.6826   34.7215   45.9704 H   0  0  0  0  0  0  0  0  0  0  0  0
   62.2230   31.7880   47.5200 C   0  0  0  0  0  0  0  0  0  0  0  0
   62.2221   31.7910   48.6200 H   0  0  0  0  0  0  0  0  0  0  0  0
   61.5214   31.0236   47.1548 H   0  0  0  0  0  0  0  0  0  0  0  0
   63.2354   31.5608   47.1548 H   0  0  0  0  0  0  0  0  0  0  0  0
   58.7280   31.6360   46.3490 C   0  0  0  0  0  0  0  0  0  0  0  0
   59.2770   30.9110   47.3370 C   0  0  0  0  0  0  0  0  0  0  0  0
   59.4999   31.3816   48.3060 H   0  0  0  0  0  0  0  0  0  0  0  0
   59.5039   29.8465   47.1774 H   0  0  0  0  0  0  0  0  0  0  0  0
  1  2  1  0
  2  3  1  0
  3  4  1  0
  4  5  1  0
  5  6  2  0
  5  7  1  0
  7  8  2  0
  8  9  1  0
  8 10  1  0
 10 11  1  0
 10 12  2  0
 12 13  1  0
 12 14  1  0
 14 15  1  0
 14 16  2  0
 16 17  1  0
 17 18  1  0
 18 19  1  0
 18 20  2  0
 20 21  1  0
 21 22  1  0
 21 23  2  0
 23 24  1  0
 24 25  1  0
 24 26  1  0
 24 27  1  0
 23 28  1  0
 28 29  1  0
 29 30  1  0
 29 31  1  0
 29 32  1  0
 32 33  1  0
 32 34  1  0
 32 35  1  0
 35 36  1  0
 35 37  1  0
 35 38  1  0
 38 39  1  0
 39 40  1  0
 39 41  1  0
 39 42  1  0
 38 43  1  0
 43 44  1  0
 43 45  1  0
 43 46  1  0
 28 47  1  0
 47 48  2  0
 48 49  1  0
 48 50  1  0
 17  3  2  0
 47 20  1  0
 16  7  1  0
M  CHG  1   4  -1
M  END
>  <UniqueID>  (85) 
76

>  <SMILES>  (85) 
C=c1/c(=C/c2c(O)[n-]c(=O)c3ccccc23)cc(C)n1CCCN(C)C

>  <Energy>  (85) 
93.31685128199183

>  <Genealogy>  (85) 
C=c1c(=Cc2c(O)[n-]c(=O)c3ccccc23)cc(C)n1CCCN(C)C (protonated)
C=c1/c(=C/c2c(O)[n-]c(=O)c3ccccc23)cc(C)n1CCCN(C)C (cis-trans isomerization)
C=c1/c(=C/c2c(O)[n-]c(=O)c3ccccc23)cc(C)n1CCCN(C)C (3D coordinates assigned)
C=c1/c(=C/c2c(O)[n-]c(=O)c3ccccc23)cc(C)n1CCCN(C)C (optimized conformer: 93.31685128199183 kcal/mol)

>  <smiles>  (85) 
C=c1c(=Cc2c(O)[nH]c(=O)c3ccccc23)cc(C)n1CCCN(C)C

>  <score_type>  (85) 
oracle

>  <origin>  (85) 
adg

>  <m_score__min__energy>  (85) 
-11.6

>  <m_primary>  (85) 
energy

$$$$
85:0
     RDKit          3D

 53 54  0  0  0  0  0  0  0  0999 V2000
   62.2800   31.7400   51.1780 C   0  0  0  0  0  0  0  0  0  0  0  0
   63.5100   31.3600   50.3520 C   0  0  0  0  0  0  0  0  0  0  0  0
   64.0460   32.5210   49.4910 C   0  0  1  0  0  0  0  0  0  0  0  0
   65.5570   32.7260   49.6980 C   0  0  0  0  0  0  0  0  0  0  0  0
   63.7340   32.2260   48.0790 N   0  0  0  0  0  0  0  0  0  0  0  0
   62.1180   32.7080   47.6360 S   0  0  0  0  0  0  0  0  0  0  0  0
   61.5870   33.6900   48.6420 O   0  0  0  0  0  0  0  0  0  0  0  0
   62.1580   33.3760   46.2900 O   0  0  0  0  0  0  0  0  0  0  0  0
   61.0600   31.3030   47.5350 C   0  0  0  0  0  0  0  0  0  0  0  0
   60.1540   31.0450   48.5690 C   0  0  0  0  0  0  0  0  0  0  0  0
   59.2500   29.9850   48.4650 C   0  0  0  0  0  0  0  0  0  0  0  0
   59.2410   29.1740   47.3180 C   0  0  0  0  0  0  0  0  0  0  0  0
   58.1930   28.1110   47.1520 C   0  0  0  0  0  0  0  0  0  0  0  0
   57.2430   28.3900   45.6630 S   0  0  0  0  0  0  0  0  0  0  0  0
   56.0730   27.4420   45.6300 O   0  0  0  0  0  0  0  0  0  0  0  0
   58.1230   28.1130   44.4740 O   0  0  0  0  0  0  0  0  0  0  0  0
   56.7090   30.0470   45.5850 N   0  0  0  0  0  0  0  0  0  0  0  0
   57.3470   30.7430   44.4680 C   0  0  0  0  0  0  0  0  0  0  0  0
   57.8560   32.0810   44.9370 C   0  0  0  0  0  0  0  0  0  0  0  0
   57.7940   32.4000   46.3030 C   0  0  0  0  0  0  0  0  0  0  0  0
   58.2580   33.6330   46.7650 C   0  0  0  0  0  0  0  0  0  0  0  0
   58.7980   34.5560   45.8700 C   0  0  0  0  0  0  0  0  0  0  0  0
   58.8880   34.2450   44.5110 C   0  0  0  0  0  0  0  0  0  0  0  0
   58.4270   33.0010   44.0300 C   0  0  0  0  0  0  0  0  0  0  0  0
   58.5190   32.6530   42.6710 O   0  0  0  0  0  0  0  0  0  0  0  0
   57.4080   32.3140   41.8470 C   0  0  0  0  0  0  0  0  0  0  0  0
   60.1640   29.4230   46.2920 C   0  0  0  0  0  0  0  0  0  0  0  0
   61.0750   30.4760   46.4040 C   0  0  0  0  0  0  0  0  0  0  0  0
   62.5202   31.6658   52.2489 H   0  0  0  0  0  0  0  0  0  0  0  0
   61.9827   32.7719   50.9396 H   0  0  0  0  0  0  0  0  0  0  0  0
   61.4525   31.0556   50.9396 H   0  0  0  0  0  0  0  0  0  0  0  0
   64.3064   31.0376   51.0389 H   0  0  0  0  0  0  0  0  0  0  0  0
   63.2066   30.5565   49.6647 H   0  0  0  0  0  0  0  0  0  0  0  0
   63.5612   33.4610   49.7934 H   0  0  0  0  0  0  0  0  0  0  0  0
   65.7788   32.7561   50.7750 H   0  0  0  0  0  0  0  0  0  0  0  0
   66.1069   31.8942   49.2335 H   0  0  0  0  0  0  0  0  0  0  0  0
   65.8654   33.6742   49.2335 H   0  0  0  0  0  0  0  0  0  0  0  0
   64.4040   32.7170   47.4470 H   0  0  0  0  0  0  0  0  0  0  0  0
   60.1533   31.6793   49.4677 H   0  0  0  0  0  0  0  0  0  0  0  0
   58.5431   29.7848   49.2837 H   0  0  0  0  0  0  0  0  0  0  0  0
   58.6822   27.1278   47.0897 H   0  0  0  0  0  0  0  0  0  0  0  0
   57.5142   28.1444   48.0169 H   0  0  0  0  0  0  0  0  0  0  0  0
   58.1881   30.1413   44.0930 H   0  0  0  0  0  0  0  0  0  0  0  0
   56.6145   30.8910   43.6608 H   0  0  0  0  0  0  0  0  0  0  0  0
   57.3765   31.6726   47.0148 H   0  0  0  0  0  0  0  0  0  0  0  0
   58.1976   33.8766   47.8360 H   0  0  0  0  0  0  0  0  0  0  0  0
   59.1538   35.5309   46.2348 H   0  0  0  0  0  0  0  0  0  0  0  0
   59.3212   34.9748   43.8111 H   0  0  0  0  0  0  0  0  0  0  0  0
   56.5480   32.0516   42.4807 H   0  0  0  0  0  0  0  0  0  0  0  0
   57.1468   33.1733   41.2119 H   0  0  0  0  0  0  0  0  0  0  0  0
   57.6710   31.4552   41.2119 H   0  0  0  0  0  0  0  0  0  0  0  0
   60.1706   28.7863   45.3950 H   0  0  0  0  0  0  0  0  0  0  0  0
   61.8061   30.6564   45.6022 H   0  0  0  0  0  0  0  0  0  0  0  0
  1  2  1  0
  2  3  1  0
  3  4  1  0
  3  5  1  0
  5  6  1  0
  6  7  2  0
  6  8  2  0
  6  9  1  0
  9 10  2  0
 10 11  1  0
 11 12  2  0
 12 13  1  0
 13 14  1  0
 14 15  2  0
 14 16  2  0
 14 17  1  0
 17 18  1  0
 18 19  1  0
 19 20  2  0
 20 21  1  0
 21 22  2  0
 22 23  1  0
 23 24  2  0
 24 25  1  0
 25 26  1  0
 12 27  1  0
 27 28  2  0
 28  9  1  0
 24 19  1  0
  1 29  1  0
  1 30  1  0
  1 31  1  0
  2 32  1  0
  2 33  1  0
  3 34  1  1
  4 35  1  0
  4 36  1  0
  4 37  1  0
  5 38  1  0
 10 39  1  0
 11 40  1  0
 13 41  1  0
 13 42  1  0
 18 43  1  0
 18 44  1  0
 20 45  1  0
 21 46  1  0
 22 47  1  0
 23 48  1  0
 26 49  1  0
 26 50  1  0
 26 51  1  0
 27 52  1  0
 28 53  1  0
M  CHG  1  17  -1
M  END
>  <UniqueID>  (86) 
77

>  <SMILES>  (86) 
CC[C@@H](C)NS(=O)(=O)c1ccc(CS(=O)(=O)[N-]Cc2ccccc2OC)cc1

>  <Energy>  (86) 
35.35709323527008

>  <Genealogy>  (86) 
CCC(C)NS(=O)(=O)c1ccc(CS(=O)(=O)[N-]Cc2ccccc2OC)cc1 (protonated)
CC[C@@H](C)NS(=O)(=O)c1ccc(CS(=O)(=O)[N-]Cc2ccccc2OC)cc1 (chirality)
CC[C@@H](C)NS(=O)(=O)c1ccc(CS(=O)(=O)[N-]Cc2ccccc2OC)cc1 (3D coordinates assigned)
CC[C@@H](C)NS(=O)(=O)c1ccc(CS(=O)(=O)[N-]Cc2ccccc2OC)cc1 (optimized conformer: 35.35709323527008 kcal/mol)

>  <smiles>  (86) 
CCC(C)NS(=O)(=O)c1ccc(CS(=O)(=O)NCc2ccccc2OC)cc1

>  <score_type>  (86) 
oracle

>  <origin>  (86) 
adg

>  <m_score__min__energy>  (86) 
-10.44

>  <m_primary>  (86) 
energy

$$$$
86:0
     RDKit          3D

 47 47  0  0  0  0  0  0  0  0999 V2000
   57.1745   33.6204   44.3799 H   0  0  0  0  0  0  0  0  0  0  0  0
   57.8680   34.1190   45.0730 C   0  0  0  0  0  0  0  0  0  0  0  0
   58.4800   34.9643   44.7253 H   0  0  0  0  0  0  0  0  0  0  0  0
   57.9670   33.6980   46.3370 C   0  0  0  0  0  0  0  0  0  0  0  0
   57.3477   32.8514   46.6683 H   0  0  0  0  0  0  0  0  0  0  0  0
   58.9030   34.3500   47.3220 C   0  0  0  0  0  0  0  0  0  0  0  0
   59.4300   35.1746   46.8196 H   0  0  0  0  0  0  0  0  0  0  0  0
   58.3047   34.7191   48.1681 H   0  0  0  0  0  0  0  0  0  0  0  0
   59.9420   33.3560   47.8700 C   0  0  0  0  0  0  0  0  0  0  0  0
   60.6006   33.0527   47.0428 H   0  0  0  0  0  0  0  0  0  0  0  0
   60.4845   33.8736   48.6749 H   0  0  0  0  0  0  0  0  0  0  0  0
   59.3270   32.0860   48.4910 C   0  0  0  0  0  0  0  0  0  0  0  0
   58.8879   31.4886   47.6784 H   0  0  0  0  0  0  0  0  0  0  0  0
   60.1474   31.5770   49.0181 H   0  0  0  0  0  0  0  0  0  0  0  0
   58.2340   32.3330   49.5430 C   0  0  0  0  0  0  0  0  0  0  0  0
   57.6315   33.1971   49.2263 H   0  0  0  0  0  0  0  0  0  0  0  0
   57.6312   31.4156   49.6129 H   0  0  0  0  0  0  0  0  0  0  0  0
   58.8010   32.6180   50.9420 C   0  0  0  0  0  0  0  0  0  0  0  0
   59.4591   31.7882   51.2394 H   0  0  0  0  0  0  0  0  0  0  0  0
   59.3640   33.5623   50.9065 H   0  0  0  0  0  0  0  0  0  0  0  0
   57.6740   32.7590   51.9730 C   0  0  0  0  0  0  0  0  0  0  0  0
   58.1225   32.8353   52.9745 H   0  0  0  0  0  0  0  0  0  0  0  0
   57.0990   33.6595   51.7113 H   0  0  0  0  0  0  0  0  0  0  0  0
   56.6980   31.5700   51.9620 C   0  0  0  0  0  0  0  0  0  0  0  0
   55.8154   31.8391   52.5609 H   0  0  0  0  0  0  0  0  0  0  0  0
   56.4450   31.3702   50.9103 H   0  0  0  0  0  0  0  0  0  0  0  0
   57.3000   30.2710   52.5370 C   0  0  0  0  0  0  0  0  0  0  0  0
   57.6372   29.6377   51.7032 H   0  0  0  0  0  0  0  0  0  0  0  0
   58.1377   30.5494   53.1934 H   0  0  0  0  0  0  0  0  0  0  0  0
   56.2850   29.4820   53.3780 C   0  0  0  0  0  0  0  0  0  0  0  0
   56.6972   28.4864   53.5992 H   0  0  0  0  0  0  0  0  0  0  0  0
   56.0953   30.0353   54.3096 H   0  0  0  0  0  0  0  0  0  0  0  0
   54.9570   29.3200   52.6250 C   0  0  0  0  0  0  0  0  0  0  0  0
   55.1261   29.5173   51.5561 H   0  0  0  0  0  0  0  0  0  0  0  0
   54.5950   28.2932   52.7819 H   0  0  0  0  0  0  0  0  0  0  0  0
   53.9110   30.2720   53.1380 C   0  0  0  0  0  0  0  0  0  0  0  0
   53.6388   30.1865   54.2003 H   0  0  0  0  0  0  0  0  0  0  0  0
   53.2780   31.2160   52.4230 C   0  0  0  0  0  0  0  0  0  0  0  0
   53.3850   32.2534   52.7727 H   0  0  0  0  0  0  0  0  0  0  0  0
   52.4510   31.0060   51.2130 C   0  0  0  0  0  0  0  0  0  0  0  0
   52.6410   29.8230   50.0160 S   0  0  0  0  0  0  0  0  0  0  0  0
   51.4020   30.4390   49.0660 C   0  0  0  0  0  0  0  0  0  0  0  0
   51.0320   29.9490   47.9680 O   0  0  0  0  0  0  0  0  0  0  0  0
   50.8460   31.5380   49.6150 N   0  0  0  0  0  0  0  0  0  0  0  0
   50.0660   32.0800   49.1800 H   0  0  0  0  0  0  0  0  0  0  0  0
   51.4310   31.8620   50.7980 C   0  0  0  0  0  0  0  0  0  0  0  0
   51.0290   32.9720   51.5310 O   0  0  0  0  0  0  0  0  0  0  0  0
  1  2  1  0
  2  3  1  0
  2  4  2  0
  4  5  1  0
  4  6  1  0
  6  7  1  0
  6  8  1  0
  6  9  1  0
  9 10  1  0
  9 11  1  0
  9 12  1  0
 12 13  1  0
 12 14  1  0
 12 15  1  0
 15 16  1  0
 15 17  1  0
 15 18  1  0
 18 19  1  0
 18 20  1  0
 18 21  1  0
 21 22  1  0
 21 23  1  0
 21 24  1  0
 24 25  1  0
 24 26  1  0
 24 27  1  0
 27 28  1  0
 27 29  1  0
 27 30  1  0
 30 31  1  0
 30 32  1  0
 30 33  1  0
 33 34  1  0
 33 35  1  0
 33 36  1  0
 36 37  1  0
 36 38  2  0
 38 39  1  0
 38 40  1  0
 40 41  1  0
 41 42  1  0
 42 43  2  0
 42 44  1  0
 44 45  1  0
 44 46  1  0
 46 47  1  0
 46 40  2  0
M  CHG  1  47  -1
M  END
>  <UniqueID>  (87) 
78

>  <SMILES>  (87) 
C=CCCCCCCCCCC/C=C\c1sc(=O)[nH]c1[O-]

>  <Energy>  (87) 
63.436689373773085

>  <Genealogy>  (87) 
C=CCCCCCCCCCCC=Cc1sc(=O)[nH]c1[O-] (protonated)
C=CCCCCCCCCCC/C=C\c1sc(=O)[nH]c1[O-] (cis-trans isomerization)
C=CCCCCCCCCCC/C=C\c1sc(=O)[nH]c1[O-] (3D coordinates assigned)
C=CCCCCCCCCCC/C=C\c1sc(=O)[nH]c1[O-] (optimized conformer: 63.436689373773085 kcal/mol)

>  <smiles>  (87) 
C=CCCCCCCCCCCC=Cc1sc(=O)[nH]c1O

>  <score_type>  (87) 
oracle

>  <origin>  (87) 
adg

>  <m_score__min__energy>  (87) 
-10.48

>  <m_primary>  (87) 
energy

$$$$
87:0
     RDKit          3D

 48 50  0  0  0  0  0  0  0  0999 V2000
   58.9430   29.4280   44.6600 C   0  0  0  0  0  0  0  0  0  0  0  0
   57.7590   29.1110   44.1400 C   0  0  0  0  0  0  0  0  0  0  0  0
   56.4990   29.7270   44.6070 C   0  0  0  0  0  0  0  0  0  0  0  0
   55.5480   28.9990   44.9980 O   0  0  0  0  0  0  0  0  0  0  0  0
   56.3010   31.1460   44.5550 N   0  0  0  0  0  0  0  0  0  0  0  0
   57.2260   32.1470   45.0010 C   0  0  0  0  0  0  0  0  0  0  0  0
   57.6360   33.1380   44.1020 C   0  0  0  0  0  0  0  0  0  0  0  0
   58.5100   34.1480   44.5130 C   0  0  0  0  0  0  0  0  0  0  0  0
   58.9770   34.1830   45.8310 C   0  0  0  0  0  0  0  0  0  0  0  0
   60.0130   35.5150   46.3270 Cl  0  0  0  0  0  0  0  0  0  0  0  0
   58.5640   33.1950   46.7460 C   0  0  0  0  0  0  0  0  0  0  0  0
   58.9970   33.2000   48.0770 O   0  0  0  0  0  0  0  0  0  0  0  0
   59.5220   32.0840   48.7450 C   0  0  0  0  0  0  0  0  0  0  0  0
   60.6660   32.1710   49.5550 C   0  0  0  0  0  0  0  0  0  0  0  0
   61.1330   31.0130   50.1740 C   0  0  0  0  0  0  0  0  0  0  0  0
   60.4870   29.8350   49.9840 N   0  0  0  0  0  0  0  0  0  0  0  0
   59.3760   29.7600   49.1980 C   0  0  0  0  0  0  0  0  0  0  0  0
   58.7680   28.6280   48.9930 N   0  0  0  0  0  0  0  0  0  0  0  0
   59.0440   27.6770   47.9500 C   0  0  0  0  0  0  0  0  0  0  0  0
   60.3620   27.2340   47.7760 C   0  0  0  0  0  0  0  0  0  0  0  0
   60.6780   26.3410   46.7510 C   0  0  0  0  0  0  0  0  0  0  0  0
   59.6850   25.8940   45.8770 C   0  0  0  0  0  0  0  0  0  0  0  0
   58.3630   26.3460   46.0190 C   0  0  0  0  0  0  0  0  0  0  0  0
   57.3050   25.9140   45.0440 C   0  0  0  0  0  0  0  0  0  0  0  0
   55.8750   25.2760   45.9020 S   0  0  0  0  0  0  0  0  0  0  0  0
   55.2470   23.8320   45.0740 C   0  0  0  0  0  0  0  0  0  0  0  0
   56.2690   24.9060   47.3040 O   0  0  0  0  0  0  0  0  0  0  0  0
   54.8010   26.3280   45.9520 O   0  0  0  0  0  0  0  0  0  0  0  0
   58.0510   27.2520   47.0470 C   0  0  0  0  0  0  0  0  0  0  0  0
   58.9160   30.8790   48.5810 N   0  0  0  0  0  0  0  0  0  0  0  0
   57.6700   32.2010   46.3330 C   0  0  0  0  0  0  0  0  0  0  0  0
   59.8565   28.9452   44.2826 H   0  0  0  0  0  0  0  0  0  0  0  0
   59.0077   30.1727   45.4670 H   0  0  0  0  0  0  0  0  0  0  0  0
   57.7169   28.3638   43.3338 H   0  0  0  0  0  0  0  0  0  0  0  0
   57.2681   33.1219   43.0655 H   0  0  0  0  0  0  0  0  0  0  0  0
   58.8320   34.9186   43.7971 H   0  0  0  0  0  0  0  0  0  0  0  0
   61.1820   33.1319   49.6977 H   0  0  0  0  0  0  0  0  0  0  0  0
   62.0250   31.0540   50.8164 H   0  0  0  0  0  0  0  0  0  0  0  0
   61.1526   27.5924   48.4516 H   0  0  0  0  0  0  0  0  0  0  0  0
   61.7129   25.9881   46.6313 H   0  0  0  0  0  0  0  0  0  0  0  0
   59.9390   25.1856   45.0747 H   0  0  0  0  0  0  0  0  0  0  0  0
   57.0034   26.7775   44.4329 H   0  0  0  0  0  0  0  0  0  0  0  0
   57.7172   25.1186   44.4057 H   0  0  0  0  0  0  0  0  0  0  0  0
   54.9251   23.0918   45.8213 H   0  0  0  0  0  0  0  0  0  0  0  0
   54.3902   24.1139   44.4444 H   0  0  0  0  0  0  0  0  0  0  0  0
   56.0374   23.3975   44.4444 H   0  0  0  0  0  0  0  0  0  0  0  0
   57.0235   27.6318   47.1468 H   0  0  0  0  0  0  0  0  0  0  0  0
   57.3115   31.4551   47.0577 H   0  0  0  0  0  0  0  0  0  0  0  0
  1  2  2  0
  2  3  1  0
  3  4  2  0
  3  5  1  0
  5  6  1  0
  6  7  2  0
  7  8  1  0
  8  9  2  0
  9 10  1  0
  9 11  1  0
 11 12  1  0
 12 13  1  0
 13 14  1  0
 14 15  2  0
 15 16  1  0
 16 17  1  0
 17 18  2  3
 18 19  1  0
 19 20  2  0
 20 21  1  0
 21 22  2  0
 22 23  1  0
 23 24  1  0
 24 25  1  0
 25 26  1  0
 25 27  2  0
 25 28  2  0
 23 29  2  0
 17 30  1  0
 11 31  2  0
 31  6  1  0
 30 13  2  0
 29 19  1  0
  1 32  1  0
  1 33  1  0
  2 34  1  0
  7 35  1  0
  8 36  1  0
 14 37  1  0
 15 38  1  0
 20 39  1  0
 21 40  1  0
 22 41  1  0
 24 42  1  0
 24 43  1  0
 26 44  1  0
 26 45  1  0
 26 46  1  0
 29 47  1  0
 31 48  1  0
M  CHG  2   5  -1  16  -1
M  END
>  <UniqueID>  (88) 
79

>  <SMILES>  (88) 
C=CC(=O)[N-]c1ccc(Cl)c(Oc2cc[n-]c(=Nc3cccc(CS(C)(=O)=O)c3)n2)c1

>  <Energy>  (88) 
60.85822060371556

>  <Genealogy>  (88) 
C=CC(=O)[N-]c1ccc(Cl)c(Oc2cc[n-]c(=Nc3cccc(CS(C)(=O)=O)c3)n2)c1 (protonated)
C=CC(=O)[N-]c1ccc(Cl)c(Oc2cc[n-]c(=Nc3cccc(CS(C)(=O)=O)c3)n2)c1 (3D coordinates assigned)
C=CC(=O)[N-]c1ccc(Cl)c(Oc2cc[n-]c(=Nc3cccc(CS(C)(=O)=O)c3)n2)c1 (optimized conformer: 60.85822060371556 kcal/mol)

>  <smiles>  (88) 
C=CC(=O)Nc1ccc(Cl)c(Oc2cc[nH]c(=Nc3cccc(CS(C)(=O)=O)c3)n2)c1

>  <score_type>  (88) 
oracle

>  <origin>  (88) 
adg

>  <m_score__min__energy>  (88) 
-12.99

>  <m_primary>  (88) 
energy

$$$$
88:0
     RDKit          3D

 53 56  0  0  0  0  0  0  0  0999 V2000
   57.7470   26.6740   47.1970 H   0  0  0  0  0  0  0  0  0  0  0  0
   58.2050   27.3390   47.8080 O   0  0  0  0  0  0  0  0  0  0  0  0
   59.1380   28.2540   47.3250 C   0  0  0  0  0  0  0  0  0  0  0  0
   59.5440   29.3340   48.1230 C   0  0  0  0  0  0  0  0  0  0  0  0
   59.1036   29.4732   49.1213 H   0  0  0  0  0  0  0  0  0  0  0  0
   60.5100   30.2380   47.6530 C   0  0  0  0  0  0  0  0  0  0  0  0
   60.9620   31.3280   48.4710 N   0  0  0  0  0  0  0  0  0  0  0  0
   61.9580   32.1390   48.2260 C   0  0  0  0  0  0  0  0  0  0  0  0
   61.9480   33.0150   47.1200 C   0  0  0  0  0  0  0  0  0  0  0  0
   61.0799   33.0375   46.4448 H   0  0  0  0  0  0  0  0  0  0  0  0
   63.0370   33.8520   46.8820 C   0  0  0  0  0  0  0  0  0  0  0  0
   63.0225   34.5378   46.0221 H   0  0  0  0  0  0  0  0  0  0  0  0
   64.1150   33.8250   47.7060 N   0  0  0  0  0  0  0  0  0  0  0  0
   64.1770   32.9910   48.7750 C   0  0  0  0  0  0  0  0  0  0  0  0
   65.3160   32.9950   49.5910 C   0  0  0  0  0  0  0  0  0  0  0  0
   66.1500   33.6763   49.3666 H   0  0  0  0  0  0  0  0  0  0  0  0
   65.3940   32.1360   50.6880 C   0  0  0  0  0  0  0  0  0  0  0  0
   66.2909   32.1402   51.3248 H   0  0  0  0  0  0  0  0  0  0  0  0
   64.3370   31.2710   50.9800 C   0  0  0  0  0  0  0  0  0  0  0  0
   64.4046   30.5974   51.8470 H   0  0  0  0  0  0  0  0  0  0  0  0
   63.1950   31.2570   50.1770 C   0  0  0  0  0  0  0  0  0  0  0  0
   62.3670   30.5730   50.4148 H   0  0  0  0  0  0  0  0  0  0  0  0
   63.0980   32.1160   49.0620 C   0  0  0  0  0  0  0  0  0  0  0  0
   61.1170   30.0190   46.4110 C   0  0  0  0  0  0  0  0  0  0  0  0
   61.9201   30.6874   46.0671 H   0  0  0  0  0  0  0  0  0  0  0  0
   60.7050   28.9530   45.6070 C   0  0  0  0  0  0  0  0  0  0  0  0
   61.1759   28.7932   44.6258 H   0  0  0  0  0  0  0  0  0  0  0  0
   59.6950   28.0870   46.0450 C   0  0  0  0  0  0  0  0  0  0  0  0
   59.2640   27.0320   45.1830 N   0  0  0  0  0  0  0  0  0  0  0  0
   57.7220   27.0530   44.3920 S   0  0  0  0  0  0  0  0  0  0  0  0
   57.7690   26.0980   43.2350 O   0  0  0  0  0  0  0  0  0  0  0  0
   56.6440   26.6110   45.3430 O   0  0  0  0  0  0  0  0  0  0  0  0
   57.3910   28.6940   43.7540 C   0  0  0  0  0  0  0  0  0  0  0  0
   56.7957   28.6059   42.8332 H   0  0  0  0  0  0  0  0  0  0  0  0
   58.3540   29.1862   43.5530 H   0  0  0  0  0  0  0  0  0  0  0  0
   56.6370   29.5260   44.7420 C   0  0  0  0  0  0  0  0  0  0  0  0
   55.3770   29.5310   44.7220 O   0  0  0  0  0  0  0  0  0  0  0  0
   57.3510   30.2680   45.7370 N   0  0  0  0  0  0  0  0  0  0  0  0
   57.7670   31.6340   45.6040 C   0  0  0  0  0  0  0  0  0  0  0  0
   58.0360   32.3680   46.7670 C   0  0  0  0  0  0  0  0  0  0  0  0
   57.9177   31.8928   47.7520 H   0  0  0  0  0  0  0  0  0  0  0  0
   58.4530   33.6980   46.6850 C   0  0  0  0  0  0  0  0  0  0  0  0
   58.6506   34.2701   47.6035 H   0  0  0  0  0  0  0  0  0  0  0  0
   58.6190   34.3010   45.4390 C   0  0  0  0  0  0  0  0  0  0  0  0
   58.9310   35.3539   45.3757 H   0  0  0  0  0  0  0  0  0  0  0  0
   58.3900   33.5710   44.2720 C   0  0  0  0  0  0  0  0  0  0  0  0
   58.5327   34.0498   43.2920 H   0  0  0  0  0  0  0  0  0  0  0  0
   57.9770   32.2240   44.3390 C   0  0  0  0  0  0  0  0  0  0  0  0
   57.8000   31.4470   43.1820 O   0  0  0  0  0  0  0  0  0  0  0  0
   57.6380   31.9740   41.8710 C   0  0  0  0  0  0  0  0  0  0  0  0
   57.3153   33.0237   41.9350 H   0  0  0  0  0  0  0  0  0  0  0  0
   58.5952   31.9169   41.3320 H   0  0  0  0  0  0  0  0  0  0  0  0
   56.8782   31.3891   41.3320 H   0  0  0  0  0  0  0  0  0  0  0  0
  1  2  1  0
  2  3  1  0
  3  4  2  0
  4  5  1  0
  4  6  1  0
  6  7  1  0
  7  8  2  0
  8  9  1  0
  9 10  1  0
  9 11  2  0
 11 12  1  0
 11 13  1  0
 13 14  1  0
 14 15  2  0
 15 16  1  0
 15 17  1  0
 17 18  1  0
 17 19  2  0
 19 20  1  0
 19 21  1  0
 21 22  1  0
 21 23  2  0
  6 24  2  0
 24 25  1  0
 24 26  1  0
 26 27  1  0
 26 28  2  0
 28 29  1  0
 29 30  1  0
 30 31  2  0
 30 32  2  0
 30 33  1  0
 33 34  1  0
 33 35  1  0
 33 36  1  0
 36 37  2  0
 36 38  1  0
 38 39  1  0
 39 40  2  0
 40 41  1  0
 40 42  1  0
 42 43  1  0
 42 44  2  0
 44 45  1  0
 44 46  1  0
 46 47  1  0
 46 48  2  0
 48 49  1  0
 49 50  1  0
 50 51  1  0
 50 52  1  0
 50 53  1  0
 28  3  1  0
 48 39  1  0
 23  8  1  0
 23 14  1  0
M  CHG  3  13  -1  29  -1  38  -1
M  END
>  <UniqueID>  (89) 
80

>  <SMILES>  (89) 
COc1ccccc1[N-]C(=O)CS(=O)(=O)[N-]c1ccc(/N=c2\cc[n-]c3ccccc23)cc1O

>  <Energy>  (89) 
77.07428918718131

>  <Genealogy>  (89) 
COc1ccccc1[N-]C(=O)CS(=O)(=O)[N-]c1ccc(N=c2cc[n-]c3ccccc23)cc1O (protonated)
COc1ccccc1[N-]C(=O)CS(=O)(=O)[N-]c1ccc(/N=c2\cc[n-]c3ccccc23)cc1O (cis-trans isomerization)
COc1ccccc1[N-]C(=O)CS(=O)(=O)[N-]c1ccc(/N=c2\cc[n-]c3ccccc23)cc1O (3D coordinates assigned)
COc1ccccc1[N-]C(=O)CS(=O)(=O)[N-]c1ccc(/N=c2\cc[n-]c3ccccc23)cc1O (optimized conformer: 77.07428918718131 kcal/mol)

>  <smiles>  (89) 
COc1ccccc1NC(=O)CS(=O)(=O)Nc1ccc(N=c2cc[nH]c3ccccc23)cc1O

>  <score_type>  (89) 
oracle

>  <origin>  (89) 
adg

>  <m_score__min__energy>  (89) 
-13.130000000000001

>  <m_primary>  (89) 
energy

$$$$
89:0
     RDKit          3D

 26 28  0  0  0  0  0  0  0  0999 V2000
   61.7420   30.8210   52.0610 O   0  0  0  0  0  0  0  0  0  0  0  0
   61.0870   31.8970   52.0890 C   0  0  0  0  0  0  0  0  0  0  0  0
   61.7760   33.1050   52.1120 O   0  0  0  0  0  0  0  0  0  0  0  0
   59.6080   31.8770   52.0990 C   0  0  0  0  0  0  0  0  0  0  0  0
   58.8790   33.0950   52.1970 C   0  0  0  0  0  0  0  0  0  0  0  0
   57.4700   33.0930   52.2070 C   0  0  0  0  0  0  0  0  0  0  0  0
   56.8290   31.8630   52.1160 C   0  0  0  0  0  0  0  0  0  0  0  0
   55.5130   31.6030   52.1100 N   0  0  0  0  0  0  0  0  0  0  0  0
   55.4620   30.2510   52.0070 C   0  0  0  0  0  0  0  0  0  0  0  0
   54.1910   29.4690   51.9910 C   0  0  0  0  0  0  0  0  0  0  0  0
   53.0700   30.3350   51.5180 C   0  0  0  0  0  0  0  0  0  0  0  0
   52.7000   31.4690   52.1530 N   0  0  0  0  0  0  0  0  0  0  0  0
   51.7180   31.9430   51.3700 C   0  0  0  0  0  0  0  0  0  0  0  0
   51.0180   33.1130   51.6290 O   0  0  0  0  0  0  0  0  0  0  0  0
   51.5200   31.1180   50.2940 C   0  0  0  0  0  0  0  0  0  0  0  0
   52.3840   30.0920   50.3780 N   0  0  0  0  0  0  0  0  0  0  0  0
   56.6650   29.6990   51.9580 O   0  0  0  0  0  0  0  0  0  0  0  0
   57.5180   30.6920   52.0240 C   0  0  0  0  0  0  0  0  0  0  0  0
   58.9080   30.6500   52.0100 C   0  0  0  0  0  0  0  0  0  0  0  0
   59.4217   34.0493   52.2658 H   0  0  0  0  0  0  0  0  0  0  0  0
   56.8987   34.0298   52.2839 H   0  0  0  0  0  0  0  0  0  0  0  0
   54.7190   32.2790   52.1770 H   0  0  0  0  0  0  0  0  0  0  0  0
   54.2996   28.6095   51.3131 H   0  0  0  0  0  0  0  0  0  0  0  0
   53.9707   29.1132   53.0083 H   0  0  0  0  0  0  0  0  0  0  0  0
   50.7786   31.2699   49.4957 H   0  0  0  0  0  0  0  0  0  0  0  0
   59.4462   29.6938   51.9322 H   0  0  0  0  0  0  0  0  0  0  0  0
  1  2  2  0
  2  3  1  0
  2  4  1  0
  4  5  2  0
  5  6  1  0
  6  7  2  0
  7  8  1  0
  8  9  2  0
  9 10  1  0
 10 11  1  0
 11 12  2  0
 12 13  1  0
 13 14  1  0
 13 15  2  0
 15 16  1  0
  9 17  1  0
 17 18  1  0
 18 19  2  0
 19  4  1  0
 18  7  1  0
 16 11  1  0
  5 20  1  0
  6 21  1  0
  8 22  1  0
 10 23  1  0
 10 24  1  0
 15 25  1  0
 19 26  1  0
M  CHG  4   3  -1   8   1  14  -1  16  -1
M  END
>  <UniqueID>  (90) 
81

>  <SMILES>  (90) 
O=C([O-])c1ccc2[nH+]c(Cc3nc([O-])c[n-]3)oc2c1

>  <Energy>  (90) 
93.80805701611993

>  <Genealogy>  (90) 
O=C([O-])c1ccc2[nH+]c(Cc3nc([O-])c[n-]3)oc2c1 (protonated)
O=C([O-])c1ccc2[nH+]c(Cc3nc([O-])c[n-]3)oc2c1 (3D coordinates assigned)
O=C([O-])c1ccc2[nH+]c(Cc3nc([O-])c[n-]3)oc2c1 (optimized conformer: 93.80805701611993 kcal/mol)

>  <smiles>  (90) 
O=C(O)c1ccc2nc(Cc3nc(O)c[nH]3)oc2c1

>  <score_type>  (90) 
oracle

>  <origin>  (90) 
adg

>  <m_score__min__energy>  (90) 
-10.82

>  <m_primary>  (90) 
energy

$$$$
90:0
     RDKit          3D

 40 42  0  0  0  0  0  0  0  0999 V2000
   58.6268   27.6799   48.0057 H   0  0  0  0  0  0  0  0  0  0  0  0
   58.8960   28.7190   48.2460 C   0  0  0  0  0  0  0  0  0  0  0  0
   58.4600   29.2830   49.4000 N   0  0  0  0  0  0  0  0  0  0  0  0
   58.7580   30.5630   49.7560 C   0  0  0  0  0  0  0  0  0  0  0  0
   58.2730   30.9990   50.8870 N   0  0  0  0  0  0  0  0  0  0  0  0
   57.1680   30.4940   51.6470 C   0  0  0  0  0  0  0  0  0  0  0  0
   57.1960   29.2990   52.0420 O   0  0  0  0  0  0  0  0  0  0  0  0
   55.9970   31.3080   51.8370 N   0  0  0  0  0  0  0  0  0  0  0  0
   54.7650   30.8940   51.9010 C   0  0  0  0  0  0  0  0  0  0  0  0
   53.7270   31.6930   51.5250 N   0  0  0  0  0  0  0  0  0  0  0  0
   52.4320   31.2740   51.5650 C   0  0  0  0  0  0  0  0  0  0  0  0
   51.3590   32.1910   51.1450 C   0  0  0  0  0  0  0  0  0  0  0  0
   50.7680   32.9030   51.9990 O   0  0  0  0  0  0  0  0  0  0  0  0
   50.9870   32.2820   49.8090 O   0  0  0  0  0  0  0  0  0  0  0  0
   52.1420   29.9740   52.0050 C   0  0  0  0  0  0  0  0  0  0  0  0
   51.1013   29.6198   52.0440 H   0  0  0  0  0  0  0  0  0  0  0  0
   53.1880   29.1340   52.3930 C   0  0  0  0  0  0  0  0  0  0  0  0
   52.9731   28.1124   52.7397 H   0  0  0  0  0  0  0  0  0  0  0  0
   54.5050   29.5900   52.3410 C   0  0  0  0  0  0  0  0  0  0  0  0
   55.3325   28.9311   52.6430 H   0  0  0  0  0  0  0  0  0  0  0  0
   59.6050   31.3330   48.9100 C   0  0  0  0  0  0  0  0  0  0  0  0
   60.0310   32.6140   49.3010 O   0  0  0  0  0  0  0  0  0  0  0  0
   59.3310   33.8390   49.0780 C   0  0  0  0  0  0  0  0  0  0  0  0
   58.4154   33.8482   49.6876 H   0  0  0  0  0  0  0  0  0  0  0  0
   59.9848   34.6773   49.3604 H   0  0  0  0  0  0  0  0  0  0  0  0
   58.9600   33.9810   47.6260 C   0  0  0  0  0  0  0  0  0  0  0  0
   59.7980   34.6770   46.7380 C   0  0  0  0  0  0  0  0  0  0  0  0
   60.7300   35.1311   47.1057 H   0  0  0  0  0  0  0  0  0  0  0  0
   59.4510   34.7940   45.3890 C   0  0  0  0  0  0  0  0  0  0  0  0
   60.1069   35.3449   44.6989 H   0  0  0  0  0  0  0  0  0  0  0  0
   58.2720   34.2120   44.9160 C   0  0  0  0  0  0  0  0  0  0  0  0
   57.9990   34.3077   43.8547 H   0  0  0  0  0  0  0  0  0  0  0  0
   57.4390   33.5080   45.7910 C   0  0  0  0  0  0  0  0  0  0  0  0
   56.5123   33.0482   45.4170 H   0  0  0  0  0  0  0  0  0  0  0  0
   57.7830   33.3880   47.1410 C   0  0  0  0  0  0  0  0  0  0  0  0
   57.1295   32.8272   47.8254 H   0  0  0  0  0  0  0  0  0  0  0  0
   60.0390   30.7590   47.6990 C   0  0  0  0  0  0  0  0  0  0  0  0
   60.6640   31.3461   47.0101 H   0  0  0  0  0  0  0  0  0  0  0  0
   59.6830   29.4540   47.3670 C   0  0  0  0  0  0  0  0  0  0  0  0
   60.0211   29.0097   46.4192 H   0  0  0  0  0  0  0  0  0  0  0  0
  1  2  1  0
  2  3  1  0
  3  4  1  0
  4  5  2  3
  5  6  1  0
  6  7  2  0
  6  8  1  0
  8  9  2  0
  9 10  1  0
 10 11  1  0
 11 12  1  0
 12 13  2  0
 12 14  1  0
 11 15  2  0
 15 16  1  0
 15 17  1  0
 17 18  1  0
 17 19  2  0
 19 20  1  0
  4 21  1  0
 21 22  1  0
 22 23  1  0
 23 24  1  0
 23 25  1  0
 23 26  1  0
 26 27  2  0
 27 28  1  0
 27 29  1  0
 29 30  1  0
 29 31  2  0
 31 32  1  0
 31 33  1  0
 33 34  1  0
 33 35  2  0
 35 36  1  0
 21 37  2  0
 37 38  1  0
 37 39  1  0
 39 40  1  0
 39  2  2  0
 19  9  1  0
 35 26  1  0
M  CHG  3   3  -1  10  -1  14  -1
M  END
>  <UniqueID>  (91) 
82

>  <SMILES>  (91) 
O=C(N=c1[n-]cccc1OCc1ccccc1)/N=c1/cccc(C(=O)[O-])[n-]1

>  <Energy>  (91) 
57.19909697348835

>  <Genealogy>  (91) 
O=C(N=c1cccc(C(=O)[O-])[n-]1)N=c1[n-]cccc1OCc1ccccc1 (protonated)
O=C(N=c1[n-]cccc1OCc1ccccc1)/N=c1/cccc(C(=O)[O-])[n-]1 (cis-trans isomerization)
O=C(N=c1[n-]cccc1OCc1ccccc1)/N=c1/cccc(C(=O)[O-])[n-]1 (3D coordinates assigned)
O=C(N=c1[n-]cccc1OCc1ccccc1)/N=c1/cccc(C(=O)[O-])[n-]1 (optimized conformer: 57.19909697348835 kcal/mol)

>  <smiles>  (91) 
O=C(N=c1cccc(C(=O)O)[nH]1)N=c1[nH]cccc1OCc1ccccc1

>  <score_type>  (91) 
oracle

>  <origin>  (91) 
adg

>  <m_score__min__energy>  (91) 
-13.83

>  <m_primary>  (91) 
energy

$$$$
91:0
     RDKit          3D

 39 41  0  0  1  0  0  0  0  0999 V2000
   59.7070   28.4070   49.5330 O   0  0  0  0  0  0  0  0  0  0  0  0
   59.4760   29.1740   48.5520 C   0  0  0  0  0  0  0  0  0  0  0  0
   59.9260   28.8390   47.1620 C   0  0  0  0  0  0  0  0  0  0  0  0
   58.9400   27.8890   46.5850 C   0  0  0  0  0  0  0  0  0  0  0  0
   57.9750   28.4300   45.6350 C   0  0  0  0  0  0  0  0  0  0  0  0
   56.6520   28.4630   45.8860 N   0  0  0  0  0  0  0  0  0  0  0  0
   55.7900   28.9570   45.0110 N   0  0  0  0  0  0  0  0  0  0  0  0
   56.2400   29.4490   43.8230 C   0  0  0  0  0  0  0  0  0  0  0  0
   55.3890   29.9110   43.0190 O   0  0  0  0  0  0  0  0  0  0  0  0
   57.5660   29.4290   43.5460 N   0  0  0  0  0  0  0  0  0  0  0  0
   58.4530   28.9270   44.4300 C   0  0  0  0  0  0  0  0  0  0  0  0
   59.6600   28.9360   44.1170 O   0  0  0  0  0  0  0  0  0  0  0  0
   58.7630   30.3710   48.8490 N   0  0  0  0  0  0  0  0  0  0  0  0
   59.4460   31.3560   49.3490 C   0  0  0  0  0  0  0  0  0  0  0  0
   60.4860   32.0930   48.6190 C   0  0  0  0  0  0  0  0  0  0  0  0
   59.9100   33.2510   47.8910 C   0  0  0  0  0  0  0  0  0  0  0  0
   60.0030   34.5940   48.1680 C   0  0  0  0  0  0  0  0  0  0  0  0
   59.3200   35.2810   47.2330 N   0  0  0  0  0  0  0  0  0  0  0  0
   58.7820   34.4200   46.3470 C   0  0  0  0  0  0  0  0  0  0  0  0
   58.0010   34.5590   45.2090 C   0  0  0  0  0  0  0  0  0  0  0  0
   57.6030   33.4430   44.5070 C   0  0  0  0  0  0  0  0  0  0  0  0
   57.9630   32.1670   44.9040 C   0  0  0  0  0  0  0  0  0  0  0  0
   58.7390   32.0130   46.0340 C   0  0  0  0  0  0  0  0  0  0  0  0
   59.1350   33.1280   46.7350 C   0  0  0  0  0  0  0  0  0  0  0  0
   59.9676   29.7529   46.5512 H   0  0  0  0  0  0  0  0  0  0  0  0
   60.9297   28.3893   47.1797 H   0  0  0  0  0  0  0  0  0  0  0  0
   59.5043   27.0976   46.0700 H   0  0  0  0  0  0  0  0  0  0  0  0
   58.3378   27.5488   47.4404 H   0  0  0  0  0  0  0  0  0  0  0  0
   54.7690   28.9580   45.2570 H   0  0  0  0  0  0  0  0  0  0  0  0
   57.8570   29.8240   42.6100 H   0  0  0  0  0  0  0  0  0  0  0  0
   59.2321   31.6575   50.3850 H   0  0  0  0  0  0  0  0  0  0  0  0
   61.2379   32.4567   49.3348 H   0  0  0  0  0  0  0  0  0  0  0  0
   60.9460   31.4137   47.8862 H   0  0  0  0  0  0  0  0  0  0  0  0
   60.5471   35.0358   49.0158 H   0  0  0  0  0  0  0  0  0  0  0  0
   59.2340   36.3310   47.2140 H   0  0  0  0  0  0  0  0  0  0  0  0
   57.6997   35.5603   44.8674 H   0  0  0  0  0  0  0  0  0  0  0  0
   56.9828   33.5691   43.6073 H   0  0  0  0  0  0  0  0  0  0  0  0
   57.6354   31.2893   44.3274 H   0  0  0  0  0  0  0  0  0  0  0  0
   59.0378   31.0094   46.3707 H   0  0  0  0  0  0  0  0  0  0  0  0
  1  2  2  0
  2  3  1  0
  3  4  1  0
  4  5  1  0
  5  6  2  0
  6  7  1  0
  7  8  1  0
  8  9  2  0
  8 10  1  0
 10 11  1  0
 11 12  2  0
  2 13  1  0
 13 14  2  0
 14 15  1  0
 15 16  1  0
 16 17  2  0
 17 18  1  0
 18 19  1  0
 19 20  2  0
 20 21  1  0
 21 22  2  0
 22 23  1  0
 23 24  2  0
 11  5  1  0
 24 16  1  0
 24 19  1  0
  3 25  1  0
  3 26  1  0
  4 27  1  0
  4 28  1  0
  7 29  1  0
 10 30  1  0
 14 31  1  0
 15 32  1  0
 15 33  1  0
 17 34  1  0
 18 35  1  0
 20 36  1  0
 21 37  1  0
 22 38  1  0
 23 39  1  0
M  END
>  <smiles>  (92) 
O=C(CCc1n[nH]c(=O)[nH]c1=O)N=CCc1c[nH]c2ccccc12

>  <score_type>  (92) 
oracle

>  <origin>  (92) 
adg

>  <m_score__min__energy>  (92) 
-8.6699999999999999

>  <m_primary>  (92) 
energy

$$$$
92:0
     RDKit          3D

 64 67  0  0  0  0  0  0  0  0999 V2000
   56.6840   30.5110   43.8370 C   0  0  0  0  0  0  0  0  0  0  0  0
   56.9650   30.4420   45.2310 O   0  0  0  0  0  0  0  0  0  0  0  0
   58.2290   30.1780   45.7820 C   0  0  0  0  0  0  0  0  0  0  0  0
   59.1800   31.2010   45.9680 C   0  0  0  0  0  0  0  0  0  0  0  0
   60.4470   30.9160   46.4930 C   0  0  0  0  0  0  0  0  0  0  0  0
   61.4230   32.0310   46.7740 C   0  0  0  0  0  0  0  0  0  0  0  0
   61.0100   32.7980   47.9610 N   0  0  0  0  0  0  0  0  0  0  0  0
   61.3230   32.2950   49.3060 C   0  0  0  0  0  0  0  0  0  0  0  0
   60.1150   31.6590   49.9410 C   0  0  0  0  0  0  0  0  0  0  0  0
   59.9650   30.2620   49.9420 C   0  0  0  0  0  0  0  0  0  0  0  0
   58.8430   29.6730   50.5280 C   0  0  0  0  0  0  0  0  0  0  0  0
   57.8590   30.4690   51.1220 C   0  0  0  0  0  0  0  0  0  0  0  0
   56.7490   29.8660   51.7020 O   0  0  0  0  0  0  0  0  0  0  0  0
   57.9940   31.8670   51.1200 C   0  0  0  0  0  0  0  0  0  0  0  0
   57.0210   32.6860   51.6940 O   0  0  0  0  0  0  0  0  0  0  0  0
   59.1210   32.4560   50.5340 C   0  0  0  0  0  0  0  0  0  0  0  0
   60.3160   34.0530   47.8180 C   0  0  0  0  0  0  0  0  0  0  0  0
   60.4890   34.9610   48.6720 O   0  0  0  0  0  0  0  0  0  0  0  0
   59.3910   34.2910   46.6940 C   0  0  0  0  0  0  0  0  0  0  0  0
   59.6790   34.9790   45.5340 C   0  0  0  0  0  0  0  0  0  0  0  0
   58.5970   34.9720   44.7290 N   0  0  0  0  0  0  0  0  0  0  0  0
   57.6680   34.2760   45.4180 C   0  0  0  0  0  0  0  0  0  0  0  0
   58.1210   33.8500   46.6140 N   0  0  0  0  0  0  0  0  0  0  0  0
   57.3680   33.0930   47.6080 C   0  0  0  0  0  0  0  0  0  0  0  0
   60.7750   29.5910   46.8150 C   0  0  0  0  0  0  0  0  0  0  0  0
   59.8370   28.5730   46.6490 C   0  0  0  0  0  0  0  0  0  0  0  0
   58.5520   28.8580   46.1640 C   0  0  0  0  0  0  0  0  0  0  0  0
   57.5320   27.7420   46.0610 C   0  0  0  0  0  0  0  0  0  0  0  0
   58.0910   26.3650   46.4700 C   0  0  0  0  0  0  0  0  0  0  0  0
   57.1720   25.5380   47.3880 C   0  0  0  0  0  0  0  0  0  0  0  0
   56.2660   24.6590   46.6410 N   0  0  0  0  0  0  0  0  0  0  0  0
   55.1440   25.0290   45.9900 C   0  0  0  0  0  0  0  0  0  0  0  0
   54.7030   26.3410   45.8770 O   0  0  0  0  0  0  0  0  0  0  0  0
   54.4920   23.9320   45.4620 C   0  0  0  0  0  0  0  0  0  0  0  0
   55.2420   22.8290   45.8250 C   0  0  0  0  0  0  0  0  0  0  0  0
   56.3090   23.3140   46.5560 C   0  0  0  0  0  0  0  0  0  0  0  0
   57.2880   22.5240   47.1460 O   0  0  0  0  0  0  0  0  0  0  0  0
   55.6255   30.7709   43.6888 H   0  0  0  0  0  0  0  0  0  0  0  0
   57.3189   31.2799   43.3726 H   0  0  0  0  0  0  0  0  0  0  0  0
   56.8905   29.5355   43.3726 H   0  0  0  0  0  0  0  0  0  0  0  0
   58.9243   32.2361   45.6976 H   0  0  0  0  0  0  0  0  0  0  0  0
   62.4203   31.6018   46.9505 H   0  0  0  0  0  0  0  0  0  0  0  0
   61.4463   32.7072   45.9067 H   0  0  0  0  0  0  0  0  0  0  0  0
   62.1259   31.5468   49.2320 H   0  0  0  0  0  0  0  0  0  0  0  0
   61.6411   33.1425   49.9310 H   0  0  0  0  0  0  0  0  0  0  0  0
   60.7359   29.6288   49.4785 H   0  0  0  0  0  0  0  0  0  0  0  0
   58.7328   28.5786   50.5223 H   0  0  0  0  0  0  0  0  0  0  0  0
   56.0650   32.3760   51.8200 H   0  0  0  0  0  0  0  0  0  0  0  0
   59.2291   33.5507   50.5378 H   0  0  0  0  0  0  0  0  0  0  0  0
   60.6412   35.4587   45.3016 H   0  0  0  0  0  0  0  0  0  0  0  0
   56.6525   34.0781   45.0444 H   0  0  0  0  0  0  0  0  0  0  0  0
   57.6771   33.4037   48.6169 H   0  0  0  0  0  0  0  0  0  0  0  0
   56.2928   33.2856   47.4783 H   0  0  0  0  0  0  0  0  0  0  0  0
   57.5663   32.0188   47.4783 H   0  0  0  0  0  0  0  0  0  0  0  0
   61.7775   29.3537   47.2005 H   0  0  0  0  0  0  0  0  0  0  0  0
   60.1071   27.5368   46.9007 H   0  0  0  0  0  0  0  0  0  0  0  0
   56.6831   27.9832   46.7177 H   0  0  0  0  0  0  0  0  0  0  0  0
   57.2323   27.6712   45.0050 H   0  0  0  0  0  0  0  0  0  0  0  0
   58.2712   25.7837   45.5537 H   0  0  0  0  0  0  0  0  0  0  0  0
   59.0060   26.5630   47.0475 H   0  0  0  0  0  0  0  0  0  0  0  0
   57.7983   24.9190   48.0472 H   0  0  0  0  0  0  0  0  0  0  0  0
   56.5522   26.2442   47.9599 H   0  0  0  0  0  0  0  0  0  0  0  0
   53.5637   23.9353   44.8719 H   0  0  0  0  0  0  0  0  0  0  0  0
   55.0316   21.7773   45.5810 H   0  0  0  0  0  0  0  0  0  0  0  0
  1  2  1  0
  2  3  1  0
  3  4  2  0
  4  5  1  0
  5  6  1  0
  6  7  1  0
  7  8  1  0
  8  9  1  0
  9 10  2  0
 10 11  1  0
 11 12  2  0
 12 13  1  0
 12 14  1  0
 14 15  1  0
 14 16  2  0
  7 17  1  0
 17 18  2  0
 17 19  1  0
 19 20  2  0
 20 21  1  0
 21 22  2  0
 22 23  1  0
 23 24  1  0
  5 25  2  0
 25 26  1  0
 26 27  2  0
 27 28  1  0
 28 29  1  0
 29 30  1  0
 30 31  1  0
 31 32  1  0
 32 33  1  0
 32 34  2  0
 34 35  1  0
 35 36  2  0
 36 37  1  0
 27  3  1  0
 36 31  1  0
 16  9  1  0
 23 19  1  0
  1 38  1  0
  1 39  1  0
  1 40  1  0
  4 41  1  0
  6 42  1  0
  6 43  1  0
  8 44  1  0
  8 45  1  0
 10 46  1  0
 11 47  1  0
 15 48  1  0
 16 49  1  0
 20 50  1  0
 22 51  1  0
 24 52  1  0
 24 53  1  0
 24 54  1  0
 25 55  1  0
 26 56  1  0
 28 57  1  0
 28 58  1  0
 29 59  1  0
 29 60  1  0
 30 61  1  0
 30 62  1  0
 34 63  1  0
 35 64  1  0
M  CHG  3  13  -1  33  -1  37  -1
M  END
>  <UniqueID>  (93) 
83

>  <SMILES>  (93) 
COc1cc(CN(Cc2ccc([O-])c(O)c2)C(=O)c2cncn2C)ccc1CCCn1c([O-])ccc1[O-]

>  <Energy>  (93) 
117.18862616195861

>  <Genealogy>  (93) 
COc1cc(CN(Cc2ccc([O-])c(O)c2)C(=O)c2cncn2C)ccc1CCCn1c([O-])ccc1[O-] (protonated)
COc1cc(CN(Cc2ccc([O-])c(O)c2)C(=O)c2cncn2C)ccc1CCCn1c([O-])ccc1[O-] (3D coordinates assigned)
COc1cc(CN(Cc2ccc([O-])c(O)c2)C(=O)c2cncn2C)ccc1CCCn1c([O-])ccc1[O-] (optimized conformer: 117.18862616195861 kcal/mol)

>  <smiles>  (93) 
COc1cc(CN(Cc2ccc(O)c(O)c2)C(=O)c2cncn2C)ccc1CCCn1c(O)ccc1O

>  <score_type>  (93) 
oracle

>  <origin>  (93) 
adg

>  <m_score__min__energy>  (93) 
-16.379999999999999

>  <m_primary>  (93) 
energy

$$$$
