0:0
     RDKit          3D

 61 64  0  0  0  0  0  0  0  0999 V2000
   60.7080   27.0760   45.9760 C   0  0  0  0  0  0  0  0  0  0  0  0
   59.3420   27.5900   45.9310 N   0  0  0  0  0  0  0  0  0  0  0  0
   58.9890   28.8510   45.6150 C   0  0  0  0  0  0  0  0  0  0  0  0
   57.6130   28.9450   45.5950 C   0  0  0  0  0  0  0  0  0  0  0  0
   56.8890   30.1220   45.2220 N   0  0  0  0  0  0  0  0  0  0  0  0
   57.4370   31.2880   44.5870 C   0  0  0  0  0  0  0  0  0  0  0  0
   57.1360   31.5660   43.3950 O   0  0  0  0  0  0  0  0  0  0  0  0
   58.3420   32.1490   45.3120 N   0  0  2  0  0  0  0  0  0  0  0  0
   58.1370   31.9830   46.7740 C   0  0  0  0  0  0  0  0  0  0  0  0
   58.6590   33.1790   47.5990 C   0  0  0  0  0  0  0  0  0  0  0  0
   59.7980   33.9290   46.8730 C   0  0  1  0  0  0  0  0  0  0  0  0
   60.9850   33.0550   46.6550 N   0  0  0  0  0  0  0  0  0  0  0  0
   62.2240   33.8180   46.4110 C   0  0  0  0  0  0  0  0  0  0  0  0
   63.3770   33.0970   47.1040 C   0  0  0  0  0  0  0  0  0  0  0  0
   62.7600   31.8720   47.7360 C   0  0  0  0  0  0  0  0  0  0  0  0
   61.2830   32.1950   47.8070 C   0  0  0  0  0  0  0  0  0  0  0  0
   59.2370   34.4730   45.5280 C   0  0  0  0  0  0  0  0  0  0  0  0
   58.1700   33.5530   44.8890 C   0  0  0  0  0  0  0  0  0  0  0  0
   57.0990   27.6930   45.8830 C   0  0  0  0  0  0  0  0  0  0  0  0
   58.2010   26.8810   46.0900 C   0  0  0  0  0  0  0  0  0  0  0  0
   58.1410   25.4000   46.3430 C   0  0  0  0  0  0  0  0  0  0  0  0
   58.0770   24.6440   45.0750 N   0  0  0  0  0  0  0  0  0  0  0  0
   58.4780   23.2200   45.2690 C   0  0  0  0  0  0  0  0  0  0  0  0
   57.3370   22.2090   45.0780 C   0  0  0  0  0  0  0  0  0  0  0  0
   56.6810   22.4480   43.7540 C   0  0  0  0  0  0  0  0  0  0  0  0
   56.2440   21.5120   43.1010 O   0  0  0  0  0  0  0  0  0  0  0  0
   56.5530   23.8520   43.2450 C   0  0  0  0  0  0  0  0  0  0  0  0
   56.7690   24.8420   44.3960 C   0  0  0  0  0  0  0  0  0  0  0  0
   61.0211   26.9582   47.0239 H   0  0  0  0  0  0  0  0  0  0  0  0
   60.7497   26.1007   45.4690 H   0  0  0  0  0  0  0  0  0  0  0  0
   61.3823   27.7819   45.4690 H   0  0  0  0  0  0  0  0  0  0  0  0
   59.6872   29.6749   45.4061 H   0  0  0  0  0  0  0  0  0  0  0  0
   59.3180   31.8540   45.0730 H   0  0  0  0  0  0  0  0  0  0  0  0
   57.0598   31.8692   46.9657 H   0  0  0  0  0  0  0  0  0  0  0  0
   58.7072   31.0957   47.0862 H   0  0  0  0  0  0  0  0  0  0  0  0
   57.8286   33.8786   47.7749 H   0  0  0  0  0  0  0  0  0  0  0  0
   59.0585   32.7896   48.5470 H   0  0  0  0  0  0  0  0  0  0  0  0
   60.1463   34.7641   47.4985 H   0  0  0  0  0  0  0  0  0  0  0  0
   62.4180   33.8759   45.3298 H   0  0  0  0  0  0  0  0  0  0  0  0
   62.1237   34.8393   46.8072 H   0  0  0  0  0  0  0  0  0  0  0  0
   64.1454   32.8072   46.3722 H   0  0  0  0  0  0  0  0  0  0  0  0
   63.8718   33.7373   47.8491 H   0  0  0  0  0  0  0  0  0  0  0  0
   62.9352   30.9818   47.1140 H   0  0  0  0  0  0  0  0  0  0  0  0
   63.1897   31.6452   48.7229 H   0  0  0  0  0  0  0  0  0  0  0  0
   60.6895   31.2704   47.7538 H   0  0  0  0  0  0  0  0  0  0  0  0
   61.0323   32.6981   48.7525 H   0  0  0  0  0  0  0  0  0  0  0  0
   58.7826   35.4576   45.7127 H   0  0  0  0  0  0  0  0  0  0  0  0
   60.0803   34.5291   44.8240 H   0  0  0  0  0  0  0  0  0  0  0  0
   57.1713   33.8984   45.1943 H   0  0  0  0  0  0  0  0  0  0  0  0
   58.2838   33.6003   43.7959 H   0  0  0  0  0  0  0  0  0  0  0  0
   56.0390   27.4040   45.9362 H   0  0  0  0  0  0  0  0  0  0  0  0
   59.0399   25.0940   46.8983 H   0  0  0  0  0  0  0  0  0  0  0  0
   57.2332   25.1823   46.9248 H   0  0  0  0  0  0  0  0  0  0  0  0
   59.2718   22.9841   44.5449 H   0  0  0  0  0  0  0  0  0  0  0  0
   58.8097   23.1262   46.3136 H   0  0  0  0  0  0  0  0  0  0  0  0
   57.7427   21.1870   45.1079 H   0  0  0  0  0  0  0  0  0  0  0  0
   56.5975   22.3313   45.8831 H   0  0  0  0  0  0  0  0  0  0  0  0
   57.3082   24.0282   42.4649 H   0  0  0  0  0  0  0  0  0  0  0  0
   55.5466   23.9964   42.8250 H   0  0  0  0  0  0  0  0  0  0  0  0
   56.7308   25.8652   43.9940 H   0  0  0  0  0  0  0  0  0  0  0  0
   55.9759   24.6714   45.1389 H   0  0  0  0  0  0  0  0  0  0  0  0
  1  2  1  0
  2  3  1  0
  3  4  2  0
  4  5  1  0
  5  6  1  0
  6  7  2  0
  6  8  1  0
  8  9  1  0
  9 10  1  0
 10 11  1  0
 11 12  1  0
 12 13  1  0
 13 14  1  0
 14 15  1  0
 15 16  1  0
 11 17  1  0
 17 18  1  0
  4 19  1  0
 19 20  2  0
 20 21  1  0
 21 22  1  0
 22 23  1  0
 23 24  1  0
 24 25  1  0
 25 26  2  0
 25 27  1  0
 27 28  1  0
 20  2  1  0
 28 22  1  0
 18  8  1  0
 16 12  1  0
  1 29  1  0
  1 30  1  0
  1 31  1  0
  3 32  1  0
  8 33  1  1
  9 34  1  0
  9 35  1  0
 10 36  1  0
 10 37  1  0
 11 38  1  1
 13 39  1  0
 13 40  1  0
 14 41  1  0
 14 42  1  0
 15 43  1  0
 15 44  1  0
 16 45  1  0
 16 46  1  0
 17 47  1  0
 17 48  1  0
 18 49  1  0
 18 50  1  0
 19 51  1  0
 21 52  1  0
 21 53  1  0
 23 54  1  0
 23 55  1  0
 24 56  1  0
 24 57  1  0
 27 58  1  0
 27 59  1  0
 28 60  1  0
 28 61  1  0
M  CHG  2   5  -1   8   1
M  END
>  <UniqueID>  (1) 
1

>  <SMILES>  (1) 
Cn1cc([N-]C(=O)[NH+]2CCC(N3CCCC3)CC2)cc1CN1CCC(=O)CC1

>  <Energy>  (1) 
108.56965685262844

>  <Genealogy>  (1) 
Cn1cc([N-]C(=O)[NH+]2CCC(N3CCCC3)CC2)cc1CN1CCC(=O)CC1 (protonated)
Cn1cc([N-]C(=O)[NH+]2CCC(N3CCCC3)CC2)cc1CN1CCC(=O)CC1 (3D coordinates assigned)
Cn1cc([N-]C(=O)[NH+]2CCC(N3CCCC3)CC2)cc1CN1CCC(=O)CC1 (nonaromatic ring conformer: 108.56965685262844 kcal/mol)

>  <smiles>  (1) 
Cn1cc(NC(=O)N2CCC(N3CCCC3)CC2)cc1CN1CCC(=O)CC1

>  <score_type>  (1) 
oracle

>  <origin>  (1) 
adg

>  <m_score__min__energy>  (1) 
-8.8399999999999999

>  <m_primary>  (1) 
energy

$$$$
1:0
     RDKit          3D

 55 59  0  0  0  0  0  0  0  0999 V2000
   59.2450   26.8960   47.8620 H   0  0  0  0  0  0  0  0  0  0  0  0
   58.6740   26.1780   47.4350 O   0  0  0  0  0  0  0  0  0  0  0  0
   57.4700   26.4860   46.8060 C   0  0  0  0  0  0  0  0  0  0  0  0
   56.4120   25.6600   46.7900 N   0  0  0  0  0  0  0  0  0  0  0  0
   55.5070   26.3470   46.0630 C   0  0  0  0  0  0  0  0  0  0  0  0
   54.3590   25.8990   45.8080 O   0  0  0  0  0  0  0  0  0  0  0  0
   55.9320   27.5500   45.6190 N   0  0  0  0  0  0  0  0  0  0  0  0
   57.1780   27.6440   46.1210 C   0  0  0  0  0  0  0  0  0  0  0  0
   58.1220   28.7260   45.7980 C   0  0  0  0  0  0  0  0  0  0  0  0
   59.1844   28.5544   46.0257 H   0  0  0  0  0  0  0  0  0  0  0  0
   57.7900   29.9120   45.2450 C   0  0  0  0  0  0  0  0  0  0  0  0
   57.1710   30.1800   44.0030 C   0  0  0  0  0  0  0  0  0  0  0  0
   56.7090   29.3160   43.0970 C   0  0  0  0  0  0  0  0  0  0  0  0
   56.8675   28.2363   43.2357 H   0  0  0  0  0  0  0  0  0  0  0  0
   56.1697   29.6835   42.2115 H   0  0  0  0  0  0  0  0  0  0  0  0
   56.9920   31.4760   43.8560 O   0  0  0  0  0  0  0  0  0  0  0  0
   57.4210   32.0770   44.9340 C   0  0  0  0  0  0  0  0  0  0  0  0
   57.3830   33.4440   45.1860 C   0  0  0  0  0  0  0  0  0  0  0  0
   56.9682   34.1438   44.4456 H   0  0  0  0  0  0  0  0  0  0  0  0
   57.8880   33.9060   46.4100 C   0  0  0  0  0  0  0  0  0  0  0  0
   57.8502   34.9794   46.6475 H   0  0  0  0  0  0  0  0  0  0  0  0
   58.4430   33.0030   47.3360 C   0  0  0  0  0  0  0  0  0  0  0  0
   58.8408   33.3798   48.2898 H   0  0  0  0  0  0  0  0  0  0  0  0
   58.4960   31.6200   47.0570 C   0  0  0  0  0  0  0  0  0  0  0  0
   59.2160   30.7390   47.9930 C   0  0  0  0  0  0  0  0  0  0  0  0
   60.4190   30.1330   47.6080 C   0  0  0  0  0  0  0  0  0  0  0  0
   60.8296   30.3181   46.6044 H   0  0  0  0  0  0  0  0  0  0  0  0
   61.0990   29.2940   48.4950 C   0  0  0  0  0  0  0  0  0  0  0  0
   62.0514   28.8349   48.1915 H   0  0  0  0  0  0  0  0  0  0  0  0
   60.5740   29.0330   49.7720 C   0  0  0  0  0  0  0  0  0  0  0  0
   61.2980   28.1620   50.7220 C   0  0  0  0  0  0  0  0  0  0  0  0
   61.0970   26.9170   50.6900 O   0  0  0  0  0  0  0  0  0  0  0  0
   62.2380   28.7020   51.6690 N   0  0  0  0  0  0  0  0  0  0  0  0
   63.2230   29.7030   51.2340 C   0  0  0  0  0  0  0  0  0  0  0  0
   63.6474   29.3934   50.2675 H   0  0  0  0  0  0  0  0  0  0  0  0
   62.7161   30.6746   51.1395 H   0  0  0  0  0  0  0  0  0  0  0  0
   64.3590   29.8420   52.2600 C   0  0  0  0  0  0  0  0  0  0  0  0
   65.1847   30.4046   51.7999 H   0  0  0  0  0  0  0  0  0  0  0  0
   63.9571   30.3670   53.1391 H   0  0  0  0  0  0  0  0  0  0  0  0
   64.8710   28.5270   52.7110 N   0  0  0  0  0  0  0  0  0  0  0  0
   65.7750   27.9280   51.7150 C   0  0  0  0  0  0  0  0  0  0  0  0
   66.5849   27.3913   52.2308 H   0  0  0  0  0  0  0  0  0  0  0  0
   65.2116   27.2239   51.0851 H   0  0  0  0  0  0  0  0  0  0  0  0
   66.2038   28.7213   51.0851 H   0  0  0  0  0  0  0  0  0  0  0  0
   63.8230   27.5650   53.1520 C   0  0  0  0  0  0  0  0  0  0  0  0
   63.9223   26.6462   52.5553 H   0  0  0  0  0  0  0  0  0  0  0  0
   63.9815   27.3883   54.2261 H   0  0  0  0  0  0  0  0  0  0  0  0
   62.3900   28.0940   52.9920 C   0  0  0  0  0  0  0  0  0  0  0  0
   61.6783   27.2618   53.0968 H   0  0  0  0  0  0  0  0  0  0  0  0
   62.1895   28.8485   53.7670 H   0  0  0  0  0  0  0  0  0  0  0  0
   59.3670   29.6420   50.1530 C   0  0  0  0  0  0  0  0  0  0  0  0
   58.9553   29.4586   51.1564 H   0  0  0  0  0  0  0  0  0  0  0  0
   58.6860   30.4790   49.2660 C   0  0  0  0  0  0  0  0  0  0  0  0
   57.7314   30.9357   49.5663 H   0  0  0  0  0  0  0  0  0  0  0  0
   57.9310   31.1720   45.8400 C   0  0  0  0  0  0  0  0  0  0  0  0
  1  2  1  0
  2  3  1  0
  3  4  1  0
  4  5  1  0
  5  6  2  0
  5  7  1  0
  7  8  1  0
  8  9  1  0
  9 10  1  0
  9 11  2  0
 11 12  1  0
 12 13  2  0
 13 14  1  0
 13 15  1  0
 12 16  1  0
 16 17  1  0
 17 18  2  0
 18 19  1  0
 18 20  1  0
 20 21  1  0
 20 22  2  0
 22 23  1  0
 22 24  1  0
 24 25  1  0
 25 26  2  0
 26 27  1  0
 26 28  1  0
 28 29  1  0
 28 30  2  0
 30 31  1  0
 31 32  2  0
 31 33  1  0
 33 34  1  0
 34 35  1  0
 34 36  1  0
 34 37  1  0
 37 38  1  0
 37 39  1  0
 37 40  1  0
 40 41  1  0
 41 42  1  0
 41 43  1  0
 41 44  1  0
 40 45  1  0
 45 46  1  0
 45 47  1  0
 45 48  1  0
 48 49  1  0
 48 50  1  0
 30 51  1  0
 51 52  1  0
 51 53  2  0
 53 54  1  0
 24 55  2  0
  8  3  2  0
 55 11  1  0
 55 17  1  0
 53 25  1  0
 48 33  1  0
M  CHG  2   4  -1   7  -1
M  END
>  <UniqueID>  (2) 
2

>  <SMILES>  (2) 
C=c1oc2cccc(-c3ccc(C(=O)N4CCN(C)CC4)cc3)c2/c1=C/c1[n-]c(=O)[n-]c1O

>  <Energy>  (2) 
158.08920209195918

>  <Genealogy>  (2) 
C=c1oc2cccc(-c3ccc(C(=O)N4CCN(C)CC4)cc3)c2c1=Cc1[n-]c(=O)[n-]c1O (protonated)
C=c1oc2cccc(-c3ccc(C(=O)N4CCN(C)CC4)cc3)c2/c1=C/c1[n-]c(=O)[n-]c1O (cis-trans isomerization)
C=c1oc2cccc(-c3ccc(C(=O)N4CCN(C)CC4)cc3)c2/c1=C/c1[n-]c(=O)[n-]c1O (3D coordinates assigned)
C=c1oc2cccc(-c3ccc(C(=O)N4CCN(C)CC4)cc3)c2/c1=C/c1[n-]c(=O)[n-]c1O (nonaromatic ring conformer: 158.08920209195918 kcal/mol)

>  <smiles>  (2) 
C=c1oc2cccc(-c3ccc(C(=O)N4CCN(C)CC4)cc3)c2c1=Cc1[nH]c(=O)[nH]c1O

>  <score_type>  (2) 
oracle

>  <origin>  (2) 
adg

>  <m_score__min__energy>  (2) 
-12.59

>  <m_primary>  (2) 
energy

$$$$
2:0
     RDKit          3D

 57 60  0  0  0  0  0  0  0  0999 V2000
   57.6510   32.6920   52.0160 C   0  0  0  0  0  0  0  0  0  0  0  0
   58.7420   32.7660   51.2500 C   0  0  0  0  0  0  0  0  0  0  0  0
   59.3270   31.6320   50.4730 C   0  0  0  0  0  0  0  0  0  0  0  0
   58.5250   30.7300   49.7390 C   0  0  0  0  0  0  0  0  0  0  0  0
   59.0980   29.6380   49.0840 C   0  0  0  0  0  0  0  0  0  0  0  0
   60.4740   29.4240   49.1510 C   0  0  0  0  0  0  0  0  0  0  0  0
   61.2850   30.3130   49.8560 C   0  0  0  0  0  0  0  0  0  0  0  0
   60.7300   31.4390   50.4810 C   0  0  0  0  0  0  0  0  0  0  0  0
   61.5770   32.3100   51.1770 O   0  0  0  0  0  0  0  0  0  0  0  0
   62.1690   33.5150   50.6600 C   0  0  1  0  0  0  0  0  0  0  0  0
   63.3470   33.3050   49.7140 C   0  0  0  0  0  0  0  0  0  0  0  0
   62.6750   34.0170   48.6170 N   0  0  1  0  0  0  0  0  0  0  0  0
   62.3910   33.0640   47.1820 S   0  0  0  0  0  0  0  0  0  0  0  0
   62.6510   31.6120   47.4810 O   0  0  0  0  0  0  0  0  0  0  0  0
   63.2930   33.4760   46.0530 O   0  0  0  0  0  0  0  0  0  0  0  0
   60.7130   33.2410   46.6810 C   0  0  0  0  0  0  0  0  0  0  0  0
   60.1350   34.5110   46.5580 C   0  0  0  0  0  0  0  0  0  0  0  0
   58.8180   34.6370   46.1070 C   0  0  0  0  0  0  0  0  0  0  0  0
   58.0820   33.5010   45.7590 C   0  0  0  0  0  0  0  0  0  0  0  0
   58.6490   32.2200   45.8770 C   0  0  0  0  0  0  0  0  0  0  0  0
   57.8800   31.0130   45.4870 C   0  0  0  0  0  0  0  0  0  0  0  0
   56.6540   31.1150   45.2150 O   0  0  0  0  0  0  0  0  0  0  0  0
   58.5090   29.7200   45.4170 N   0  0  0  0  0  0  0  0  0  0  0  0
   57.8230   28.5590   46.0030 C   0  0  0  0  0  0  0  0  0  0  0  0
   58.7510   27.3370   46.0830 C   0  0  0  0  0  0  0  0  0  0  0  0
   60.1780   27.7690   46.4380 C   0  0  0  0  0  0  0  0  0  0  0  0
   60.7760   28.6950   45.3620 C   0  0  0  0  0  0  0  0  0  0  0  0
   59.7160   29.5200   44.6040 C   0  0  0  0  0  0  0  0  0  0  0  0
   59.9590   32.1020   46.3750 C   0  0  0  0  0  0  0  0  0  0  0  0
   61.4820   34.1670   49.4610 C   0  0  0  0  0  0  0  0  0  0  0  0
   57.2941   33.5836   52.5524 H   0  0  0  0  0  0  0  0  0  0  0  0
   57.1091   31.7395   52.1107 H   0  0  0  0  0  0  0  0  0  0  0  0
   59.2506   33.7393   51.1859 H   0  0  0  0  0  0  0  0  0  0  0  0
   57.4381   30.8895   49.6829 H   0  0  0  0  0  0  0  0  0  0  0  0
   58.4621   28.9449   48.5137 H   0  0  0  0  0  0  0  0  0  0  0  0
   60.9202   28.5536   48.6476 H   0  0  0  0  0  0  0  0  0  0  0  0
   62.3676   30.1296   49.9223 H   0  0  0  0  0  0  0  0  0  0  0  0
   62.2515   34.0246   51.6313 H   0  0  0  0  0  0  0  0  0  0  0  0
   63.5490   32.2467   49.4922 H   0  0  0  0  0  0  0  0  0  0  0  0
   64.3495   33.6311   50.0280 H   0  0  0  0  0  0  0  0  0  0  0  0
   63.1240   34.9400   48.4080 H   0  0  0  0  0  0  0  0  0  0  0  0
   60.7169   35.4081   46.8160 H   0  0  0  0  0  0  0  0  0  0  0  0
   58.3593   35.6335   46.0257 H   0  0  0  0  0  0  0  0  0  0  0  0
   57.0515   33.6100   45.3901 H   0  0  0  0  0  0  0  0  0  0  0  0
   57.4851   28.8181   47.0173 H   0  0  0  0  0  0  0  0  0  0  0  0
   56.9690   28.3019   45.3591 H   0  0  0  0  0  0  0  0  0  0  0  0
   58.3781   26.6492   46.8562 H   0  0  0  0  0  0  0  0  0  0  0  0
   58.7642   26.8356   45.1040 H   0  0  0  0  0  0  0  0  0  0  0  0
   60.1601   28.3039   47.3990 H   0  0  0  0  0  0  0  0  0  0  0  0
   60.8042   26.8669   46.5013 H   0  0  0  0  0  0  0  0  0  0  0  0
   61.4751   29.3901   45.8499 H   0  0  0  0  0  0  0  0  0  0  0  0
   61.2760   28.0521   44.6226 H   0  0  0  0  0  0  0  0  0  0  0  0
   60.1420   30.5015   44.3487 H   0  0  0  0  0  0  0  0  0  0  0  0
   59.4333   28.9683   43.6953 H   0  0  0  0  0  0  0  0  0  0  0  0
   60.3958   31.1038   46.5257 H   0  0  0  0  0  0  0  0  0  0  0  0
   60.6107   33.6046   49.0943 H   0  0  0  0  0  0  0  0  0  0  0  0
   61.0320   35.1638   49.5790 H   0  0  0  0  0  0  0  0  0  0  0  0
  1  2  2  0
  2  3  1  0
  3  4  2  0
  4  5  1  0
  5  6  2  0
  6  7  1  0
  7  8  2  0
  8  9  1  0
  9 10  1  0
 10 11  1  0
 11 12  1  0
 12 13  1  0
 13 14  2  0
 13 15  2  0
 13 16  1  0
 16 17  2  0
 17 18  1  0
 18 19  2  0
 19 20  1  0
 20 21  1  0
 21 22  2  0
 21 23  1  0
 23 24  1  0
 24 25  1  0
 25 26  1  0
 26 27  1  0
 27 28  1  0
 20 29  2  0
 12 30  1  0
  8  3  1  0
 30 10  1  0
 29 16  1  0
 28 23  1  0
  1 31  1  0
  1 32  1  0
  2 33  1  0
  4 34  1  0
  5 35  1  0
  6 36  1  0
  7 37  1  0
 10 38  1  1
 11 39  1  0
 11 40  1  0
 12 41  1  6
 17 42  1  0
 18 43  1  0
 19 44  1  0
 24 45  1  0
 24 46  1  0
 25 47  1  0
 25 48  1  0
 26 49  1  0
 26 50  1  0
 27 51  1  0
 27 52  1  0
 28 53  1  0
 28 54  1  0
 29 55  1  0
 30 56  1  0
 30 57  1  0
M  CHG  1  12   1
M  END
>  <UniqueID>  (3) 
3

>  <SMILES>  (3) 
C=Cc1ccccc1OC1C[NH+](S(=O)(=O)c2cccc(C(=O)N3CCCCC3)c2)C1

>  <Energy>  (3) 
150.61130166741847

>  <Genealogy>  (3) 
C=Cc1ccccc1OC1C[NH+](S(=O)(=O)c2cccc(C(=O)N3CCCCC3)c2)C1 (protonated)
C=Cc1ccccc1OC1C[NH+](S(=O)(=O)c2cccc(C(=O)N3CCCCC3)c2)C1 (3D coordinates assigned)
C=Cc1ccccc1OC1C[NH+](S(=O)(=O)c2cccc(C(=O)N3CCCCC3)c2)C1 (nonaromatic ring conformer: 150.61130166741847 kcal/mol)

>  <smiles>  (3) 
C=Cc1ccccc1OC1CN(S(=O)(=O)c2cccc(C(=O)N3CCCCC3)c2)C1

>  <score_type>  (3) 
oracle

>  <origin>  (3) 
adg

>  <m_score__min__energy>  (3) 
-8.4900000000000002

>  <m_primary>  (3) 
energy

$$$$
3:0
     RDKit          3D

 54 57  0  0  0  0  0  0  0  0999 V2000
   57.7310   25.7370   43.5900 C   0  0  0  0  0  0  0  0  0  0  0  0
   57.6430   24.8250   44.7860 C   0  0  0  0  0  0  0  0  0  0  0  0
   58.3800   23.6760   44.7950 N   0  0  0  0  0  0  0  0  0  0  0  0
   58.2980   22.7930   45.8250 C   0  0  0  0  0  0  0  0  0  0  0  0
   58.9810   21.7370   45.8070 O   0  0  0  0  0  0  0  0  0  0  0  0
   57.4780   23.0470   46.8740 N   0  0  0  0  0  0  0  0  0  0  0  0
   56.7350   24.1790   46.9310 C   0  0  0  0  0  0  0  0  0  0  0  0
   55.9980   24.3760   47.9340 O   0  0  0  0  0  0  0  0  0  0  0  0
   56.8060   25.1240   45.8890 C   0  0  0  0  0  0  0  0  0  0  0  0
   56.0100   26.3720   45.9590 C   0  0  0  0  0  0  0  0  0  0  0  0
   54.7530   26.3110   46.0200 O   0  0  0  0  0  0  0  0  0  0  0  0
   56.6670   27.6460   45.9850 N   0  0  0  0  0  0  0  0  0  0  0  0
   56.6770   28.5720   44.8590 C   0  0  0  0  0  0  0  0  0  0  0  0
   57.4430   29.8090   45.2340 C   0  0  0  0  0  0  0  0  0  0  0  0
   57.2230   31.0130   44.5470 C   0  0  0  0  0  0  0  0  0  0  0  0
   57.8690   32.1830   44.9550 C   0  0  0  0  0  0  0  0  0  0  0  0
   58.7130   32.1680   46.0680 C   0  0  0  0  0  0  0  0  0  0  0  0
   58.9150   30.9790   46.7880 C   0  0  0  0  0  0  0  0  0  0  0  0
   59.7660   30.9670   47.9990 C   0  0  0  0  0  0  0  0  0  0  0  0
   60.1460   29.8690   48.4880 O   0  0  0  0  0  0  0  0  0  0  0  0
   60.1470   32.1960   48.6460 N   0  0  0  0  0  0  0  0  0  0  0  0
   59.1070   32.9220   49.4070 C   0  0  0  0  0  0  0  0  0  0  0  0
   59.3680   32.9400   50.9200 C   0  0  0  0  0  0  0  0  0  0  0  0
   60.7100   33.5980   51.2820 C   0  0  0  0  0  0  0  0  0  0  0  0
   61.9400   32.7490   50.9370 C   0  0  0  0  0  0  0  0  0  0  0  0
   62.3750   32.9550   49.5100 C   0  0  0  0  0  0  0  0  0  0  0  0
   63.6790   33.4070   49.2460 C   0  0  0  0  0  0  0  0  0  0  0  0
   64.1020   33.6220   47.9340 C   0  0  0  0  0  0  0  0  0  0  0  0
   63.2330   33.3810   46.8710 C   0  0  0  0  0  0  0  0  0  0  0  0
   61.9400   32.9170   47.1160 C   0  0  0  0  0  0  0  0  0  0  0  0
   61.4910   32.6970   48.4320 C   0  0  0  0  0  0  0  0  0  0  0  0
   58.2980   29.7970   46.3460 C   0  0  0  0  0  0  0  0  0  0  0  0
   57.8315   26.7784   43.9296 H   0  0  0  0  0  0  0  0  0  0  0  0
   58.6069   25.4630   42.9836 H   0  0  0  0  0  0  0  0  0  0  0  0
   56.8189   25.6355   42.9836 H   0  0  0  0  0  0  0  0  0  0  0  0
   59.0140   23.4560   43.9930 H   0  0  0  0  0  0  0  0  0  0  0  0
   57.1572   28.0917   43.9937 H   0  0  0  0  0  0  0  0  0  0  0  0
   55.6434   28.8454   44.6002 H   0  0  0  0  0  0  0  0  0  0  0  0
   56.5401   31.0357   43.6849 H   0  0  0  0  0  0  0  0  0  0  0  0
   57.7124   33.1186   44.3981 H   0  0  0  0  0  0  0  0  0  0  0  0
   59.2217   33.0914   46.3820 H   0  0  0  0  0  0  0  0  0  0  0  0
   59.0702   33.9604   49.0460 H   0  0  0  0  0  0  0  0  0  0  0  0
   58.1551   32.3950   49.2452 H   0  0  0  0  0  0  0  0  0  0  0  0
   58.5579   33.4996   51.4104 H   0  0  0  0  0  0  0  0  0  0  0  0
   59.4062   31.8957   51.2634 H   0  0  0  0  0  0  0  0  0  0  0  0
   60.7849   34.5509   50.7376 H   0  0  0  0  0  0  0  0  0  0  0  0
   60.7130   33.7296   52.3741 H   0  0  0  0  0  0  0  0  0  0  0  0
   62.7666   33.0302   51.6060 H   0  0  0  0  0  0  0  0  0  0  0  0
   61.6730   31.6896   51.0651 H   0  0  0  0  0  0  0  0  0  0  0  0
   64.3716   33.5928   50.0801 H   0  0  0  0  0  0  0  0  0  0  0  0
   65.1227   33.9822   47.7381 H   0  0  0  0  0  0  0  0  0  0  0  0
   63.5670   33.5568   45.8378 H   0  0  0  0  0  0  0  0  0  0  0  0
   61.2637   32.7208   46.2710 H   0  0  0  0  0  0  0  0  0  0  0  0
   58.4872   28.8525   46.8772 H   0  0  0  0  0  0  0  0  0  0  0  0
  1  2  1  0
  2  3  1  0
  3  4  1  0
  4  5  2  0
  4  6  1  0
  6  7  1  0
  7  8  2  0
  7  9  1  0
  9 10  1  0
 10 11  2  0
 10 12  1  0
 12 13  1  0
 13 14  1  0
 14 15  2  0
 15 16  1  0
 16 17  2  0
 17 18  1  0
 18 19  1  0
 19 20  2  0
 19 21  1  0
 21 22  1  0
 22 23  1  0
 23 24  1  0
 24 25  1  0
 25 26  1  0
 26 27  2  0
 27 28  1  0
 28 29  2  0
 29 30  1  0
 30 31  2  0
 18 32  2  0
  9  2  2  0
 32 14  1  0
 31 21  1  0
 31 26  1  0
  1 33  1  0
  1 34  1  0
  1 35  1  0
  3 36  1  0
 13 37  1  0
 13 38  1  0
 15 39  1  0
 16 40  1  0
 17 41  1  0
 22 42  1  0
 22 43  1  0
 23 44  1  0
 23 45  1  0
 24 46  1  0
 24 47  1  0
 25 48  1  0
 25 49  1  0
 27 50  1  0
 28 51  1  0
 29 52  1  0
 30 53  1  0
 32 54  1  0
M  CHG  2   6  -1  12  -1
M  END
>  <UniqueID>  (4) 
4

>  <SMILES>  (4) 
Cc1[nH]c(=O)[n-]c(=O)c1C(=O)[N-]Cc1cccc(C(=O)N2CCCCc3ccccc32)c1

>  <Energy>  (4) 
75.07643414779213

>  <Genealogy>  (4) 
Cc1[nH]c(=O)[n-]c(=O)c1C(=O)[N-]Cc1cccc(C(=O)N2CCCCc3ccccc32)c1 (protonated)
Cc1[nH]c(=O)[n-]c(=O)c1C(=O)[N-]Cc1cccc(C(=O)N2CCCCc3ccccc32)c1 (3D coordinates assigned)
Cc1[nH]c(=O)[n-]c(=O)c1C(=O)[N-]Cc1cccc(C(=O)N2CCCCc3ccccc32)c1 (nonaromatic ring conformer: 75.07643414779213 kcal/mol)

>  <smiles>  (4) 
Cc1[nH]c(=O)[nH]c(=O)c1C(=O)NCc1cccc(C(=O)N2CCCCc3ccccc32)c1

>  <score_type>  (4) 
oracle

>  <origin>  (4) 
adg

>  <m_score__min__energy>  (4) 
-11.050000000000001

>  <m_primary>  (4) 
energy

$$$$
4:0
     RDKit          3D

 50 53  0  0  0  0  0  0  0  0999 V2000
   61.6700   30.0880   49.3130 O   0  0  0  0  0  0  0  0  0  0  0  0
   60.4280   30.0400   49.5250 C   0  0  0  0  0  0  0  0  0  0  0  0
   59.7690   28.7190   49.7640 C   0  0  0  0  0  0  0  0  0  0  0  0
   60.6210   27.3910   48.8460 S   0  0  0  0  0  0  0  0  0  0  0  0
   59.2190   27.0140   47.7980 C   0  0  0  0  0  0  0  0  0  0  0  0
   58.1560   27.8240   47.6640 N   0  0  0  0  0  0  0  0  0  0  0  0
   57.3240   27.2140   46.8400 N   0  0  0  0  0  0  0  0  0  0  0  0
   57.9030   26.0480   46.4940 C   0  0  0  0  0  0  0  0  0  0  0  0
   57.2830   25.0600   45.5860 C   0  0  0  0  0  0  0  0  0  0  0  0
   57.4830   25.1440   44.1960 C   0  0  0  0  0  0  0  0  0  0  0  0
   56.8990   24.2050   43.3390 C   0  0  0  0  0  0  0  0  0  0  0  0
   56.1100   23.1760   43.8600 C   0  0  0  0  0  0  0  0  0  0  0  0
   55.5310   22.2440   43.0080 O   0  0  0  0  0  0  0  0  0  0  0  0
   55.9060   23.0840   45.2400 C   0  0  0  0  0  0  0  0  0  0  0  0
   56.4870   24.0200   46.1000 C   0  0  0  0  0  0  0  0  0  0  0  0
   59.1080   25.8820   47.0780 N   0  0  0  0  0  0  0  0  0  0  0  0
   59.6430   31.2380   49.5740 N   0  0  0  0  0  0  0  0  0  0  0  0
   59.5580   32.2500   48.5610 C   0  0  0  0  0  0  0  0  0  0  0  0
   60.2300   33.4610   48.7670 C   0  0  0  0  0  0  0  0  0  0  0  0
   60.1680   34.4780   47.8110 C   0  0  0  0  0  0  0  0  0  0  0  0
   59.4190   34.2980   46.6470 C   0  0  0  0  0  0  0  0  0  0  0  0
   58.7090   33.1070   46.4430 C   0  0  0  0  0  0  0  0  0  0  0  0
   57.7350   32.8980   44.9840 S   0  0  0  0  0  0  0  0  0  0  0  0
   56.2910   32.7740   45.3840 O   0  0  0  0  0  0  0  0  0  0  0  0
   57.8680   34.1240   44.1240 O   0  0  0  0  0  0  0  0  0  0  0  0
   58.1980   31.4890   44.0540 N   0  0  0  0  0  0  0  0  0  0  0  0
   57.3160   31.2500   42.8910 C   0  0  0  0  0  0  0  0  0  0  0  0
   56.3110   30.1110   43.1260 C   0  0  0  0  0  0  0  0  0  0  0  0
   55.9630   30.0390   44.4890 O   0  0  0  0  0  0  0  0  0  0  0  0
   57.0670   29.5770   45.2420 C   0  0  0  0  0  0  0  0  0  0  0  0
   58.3930   30.2950   44.8970 C   0  0  0  0  0  0  0  0  0  0  0  0
   58.7790   32.0850   47.4010 C   0  0  0  0  0  0  0  0  0  0  0  0
   59.7998   28.4904   50.8395 H   0  0  0  0  0  0  0  0  0  0  0  0
   58.7280   28.7768   49.4134 H   0  0  0  0  0  0  0  0  0  0  0  0
   58.1022   25.9527   43.7806 H   0  0  0  0  0  0  0  0  0  0  0  0
   57.0611   24.2768   42.2534 H   0  0  0  0  0  0  0  0  0  0  0  0
   55.2865   22.2727   45.6500 H   0  0  0  0  0  0  0  0  0  0  0  0
   56.3210   23.9432   47.1847 H   0  0  0  0  0  0  0  0  0  0  0  0
   60.8112   33.6128   49.6885 H   0  0  0  0  0  0  0  0  0  0  0  0
   60.7097   35.4211   47.9757 H   0  0  0  0  0  0  0  0  0  0  0  0
   59.3859   35.0932   45.8877 H   0  0  0  0  0  0  0  0  0  0  0  0
   56.7568   32.1732   42.6791 H   0  0  0  0  0  0  0  0  0  0  0  0
   57.9563   30.9560   42.0463 H   0  0  0  0  0  0  0  0  0  0  0  0
   55.4056   30.2973   42.5298 H   0  0  0  0  0  0  0  0  0  0  0  0
   56.7722   29.1591   42.8239 H   0  0  0  0  0  0  0  0  0  0  0  0
   56.8520   29.7366   46.3089 H   0  0  0  0  0  0  0  0  0  0  0  0
   57.2023   28.5129   44.9983 H   0  0  0  0  0  0  0  0  0  0  0  0
   58.8792   30.6031   45.8344 H   0  0  0  0  0  0  0  0  0  0  0  0
   59.0126   29.5869   44.3271 H   0  0  0  0  0  0  0  0  0  0  0  0
   58.2219   31.1495   47.2446 H   0  0  0  0  0  0  0  0  0  0  0  0
  1  2  2  0
  2  3  1  0
  3  4  1  0
  4  5  1  0
  5  6  2  0
  6  7  1  0
  7  8  1  0
  8  9  1  0
  9 10  2  0
 10 11  1  0
 11 12  2  0
 12 13  1  0
 12 14  1  0
 14 15  2  0
  8 16  2  0
  2 17  1  0
 17 18  1  0
 18 19  2  0
 19 20  1  0
 20 21  2  0
 21 22  1  0
 22 23  1  0
 23 24  2  0
 23 25  2  0
 23 26  1  0
 26 27  1  0
 27 28  1  0
 28 29  1  0
 29 30  1  0
 30 31  1  0
 22 32  2  0
 16  5  1  0
 32 18  1  0
 15  9  1  0
 31 26  1  0
  3 33  1  0
  3 34  1  0
 10 35  1  0
 11 36  1  0
 14 37  1  0
 15 38  1  0
 19 39  1  0
 20 40  1  0
 21 41  1  0
 27 42  1  0
 27 43  1  0
 28 44  1  0
 28 45  1  0
 30 46  1  0
 30 47  1  0
 31 48  1  0
 31 49  1  0
 32 50  1  0
M  CHG  3   7  -1  13  -1  17  -1
M  END
>  <UniqueID>  (5) 
5

>  <SMILES>  (5) 
O=C(CSc1n[n-]c(-c2ccc([O-])cc2)n1)[N-]c1cccc(S(=O)(=O)N2CCOCC2)c1

>  <Energy>  (5) 
93.15752376913919

>  <Genealogy>  (5) 
O=C(CSc1n[n-]c(-c2ccc([O-])cc2)n1)[N-]c1cccc(S(=O)(=O)N2CCOCC2)c1 (protonated)
O=C(CSc1n[n-]c(-c2ccc([O-])cc2)n1)[N-]c1cccc(S(=O)(=O)N2CCOCC2)c1 (3D coordinates assigned)
O=C(CSc1n[n-]c(-c2ccc([O-])cc2)n1)[N-]c1cccc(S(=O)(=O)N2CCOCC2)c1 (nonaromatic ring conformer: 93.15752376913919 kcal/mol)

>  <smiles>  (5) 
O=C(CSc1n[nH]c(-c2ccc(O)cc2)n1)Nc1cccc(S(=O)(=O)N2CCOCC2)c1

>  <score_type>  (5) 
oracle

>  <origin>  (5) 
adg

>  <m_score__min__energy>  (5) 
-15.34

>  <m_primary>  (5) 
energy

$$$$
5:0
     RDKit          3D

 46 48  0  0  0  0  0  0  0  0999 V2000
   58.5750   30.1980   47.5740 C   0  0  0  0  0  0  0  0  0  0  0  0
   58.3840   30.4280   46.2660 C   0  0  0  0  0  0  0  0  0  0  0  0
   58.4460   29.4850   45.2250 C   0  0  0  0  0  0  0  0  0  0  0  0
   58.5250   28.1400   45.2520 C   0  0  0  0  0  0  0  0  0  0  0  0
   57.4750   27.2280   45.7270 C   0  0  0  0  0  0  0  0  0  0  0  0
   57.7510   25.6550   46.2620 S   0  0  0  0  0  0  0  0  0  0  0  0
   56.1090   25.3270   46.4060 C   0  0  0  0  0  0  0  0  0  0  0  0
   55.6370   24.2310   46.8090 O   0  0  0  0  0  0  0  0  0  0  0  0
   55.3350   26.3660   46.0300 N   0  0  0  0  0  0  0  0  0  0  0  0
   56.0950   27.4210   45.6350 C   0  0  0  0  0  0  0  0  0  0  0  0
   55.5220   28.5920   45.1530 O   0  0  0  0  0  0  0  0  0  0  0  0
   58.4010   30.2060   44.0450 C   0  0  0  0  0  0  0  0  0  0  0  0
   58.2600   31.5330   44.3930 C   0  0  0  0  0  0  0  0  0  0  0  0
   58.1410   32.6580   43.4080 C   0  0  0  0  0  0  0  0  0  0  0  0
   58.2280   31.6720   45.7390 N   0  0  0  0  0  0  0  0  0  0  0  0
   58.1550   32.9470   46.4680 C   0  0  0  0  0  0  0  0  0  0  0  0
   59.4750   33.2570   47.1090 C   0  0  0  0  0  0  0  0  0  0  0  0
   59.6350   34.3640   47.6920 O   0  0  0  0  0  0  0  0  0  0  0  0
   60.5480   32.3050   47.0550 N   0  0  0  0  0  0  0  0  0  0  0  0
   61.8420   32.5810   47.6120 C   0  0  0  0  0  0  0  0  0  0  0  0
   62.6320   33.5600   47.0000 C   0  0  0  0  0  0  0  0  0  0  0  0
   63.8810   33.8880   47.5200 C   0  0  0  0  0  0  0  0  0  0  0  0
   64.3550   33.2430   48.6610 C   0  0  0  0  0  0  0  0  0  0  0  0
   63.5900   32.2470   49.2890 C   0  0  0  0  0  0  0  0  0  0  0  0
   64.1510   31.5650   50.5110 C   0  0  0  0  0  0  0  0  0  0  0  0
   62.3360   31.8740   48.7380 C   0  0  0  0  0  0  0  0  0  0  0  0
   61.5360   30.7480   49.3510 C   0  0  0  0  0  0  0  0  0  0  0  0
   58.4989   31.0254   48.2948 H   0  0  0  0  0  0  0  0  0  0  0  0
   58.8077   29.1820   47.9256 H   0  0  0  0  0  0  0  0  0  0  0  0
   59.4573   27.6847   44.8864 H   0  0  0  0  0  0  0  0  0  0  0  0
   58.4653   29.7989   43.0251 H   0  0  0  0  0  0  0  0  0  0  0  0
   58.0403   33.6102   43.9494 H   0  0  0  0  0  0  0  0  0  0  0  0
   59.0409   32.6889   42.7761 H   0  0  0  0  0  0  0  0  0  0  0  0
   57.2546   32.4999   42.7761 H   0  0  0  0  0  0  0  0  0  0  0  0
   57.8949   33.7523   45.7653 H   0  0  0  0  0  0  0  0  0  0  0  0
   57.3869   32.8675   47.2514 H   0  0  0  0  0  0  0  0  0  0  0  0
   60.4550   31.4760   46.4260 H   0  0  0  0  0  0  0  0  0  0  0  0
   62.2633   34.0748   46.1006 H   0  0  0  0  0  0  0  0  0  0  0  0
   64.4950   34.6577   47.0295 H   0  0  0  0  0  0  0  0  0  0  0  0
   65.3374   33.5167   49.0733 H   0  0  0  0  0  0  0  0  0  0  0  0
   63.7534   32.0483   51.4156 H   0  0  0  0  0  0  0  0  0  0  0  0
   63.8608   30.5040   50.5045 H   0  0  0  0  0  0  0  0  0  0  0  0
   65.2481   31.6451   50.5045 H   0  0  0  0  0  0  0  0  0  0  0  0
   61.5855   30.8177   50.4477 H   0  0  0  0  0  0  0  0  0  0  0  0
   60.4879   30.8235   49.0258 H   0  0  0  0  0  0  0  0  0  0  0  0
   61.9522   29.7831   49.0258 H   0  0  0  0  0  0  0  0  0  0  0  0
  1  2  2  0
  2  3  1  0
  3  4  2  3
  4  5  1  0
  5  6  1  0
  6  7  1  0
  7  8  2  0
  7  9  1  0
  9 10  1  0
 10 11  1  0
  3 12  1  0
 12 13  2  0
 13 14  1  0
 13 15  1  0
 15 16  1  0
 16 17  1  0
 17 18  2  0
 17 19  1  0
 19 20  1  0
 20 21  2  0
 21 22  1  0
 22 23  2  0
 23 24  1  0
 24 25  1  0
 24 26  2  0
 26 27  1  0
 15  2  1  0
 26 20  1  0
 10  5  2  0
  1 28  1  0
  1 29  1  0
  4 30  1  0
 12 31  1  0
 14 32  1  0
 14 33  1  0
 14 34  1  0
 16 35  1  0
 16 36  1  0
 19 37  1  0
 21 38  1  0
 22 39  1  0
 23 40  1  0
 25 41  1  0
 25 42  1  0
 25 43  1  0
 27 44  1  0
 27 45  1  0
 27 46  1  0
M  CHG  2   9  -1  11  -1
M  END
>  <UniqueID>  (6) 
6

>  <SMILES>  (6) 
C=c1c(=Cc2sc(=O)[n-]c2[O-])cc(C)n1CC(=O)Nc1cccc(C)c1C

>  <Energy>  (6) 
124.41048503839612

>  <Genealogy>  (6) 
C=c1c(=Cc2sc(=O)[n-]c2[O-])cc(C)n1CC(=O)Nc1cccc(C)c1C (protonated)
C=c1c(=Cc2sc(=O)[n-]c2[O-])cc(C)n1CC(=O)Nc1cccc(C)c1C (3D coordinates assigned)
C=c1c(=Cc2sc(=O)[n-]c2[O-])cc(C)n1CC(=O)Nc1cccc(C)c1C (optimized conformer: 124.41048503839612 kcal/mol)

>  <smiles>  (6) 
C=c1c(=Cc2sc(=O)[nH]c2O)cc(C)n1CC(=O)Nc1cccc(C)c1C

>  <score_type>  (6) 
oracle

>  <origin>  (6) 
adg

>  <m_score__min__energy>  (6) 
-14.539999999999999

>  <m_primary>  (6) 
energy

$$$$
6:0
     RDKit          3D

 68 73  0  0  0  0  0  0  0  0999 V2000
   60.6690   28.7390   45.7600 C   0  0  0  0  0  0  0  0  0  0  0  0
   60.5440   28.9660   47.2410 C   0  0  0  0  0  0  0  0  0  0  0  0
   59.8420   28.0300   48.0170 C   0  0  0  0  0  0  0  0  0  0  0  0
   59.7290   28.1940   49.3980 C   0  0  0  0  0  0  0  0  0  0  0  0
   60.3110   29.3010   50.0280 C   0  0  0  0  0  0  0  0  0  0  0  0
   60.1620   29.5100   51.7760 S   0  0  0  0  0  0  0  0  0  0  0  0
   59.6560   28.2310   52.3820 O   0  0  0  0  0  0  0  0  0  0  0  0
   61.5190   29.7930   52.3560 O   0  0  0  0  0  0  0  0  0  0  0  0
   59.0750   30.8120   52.1880 N   0  0  0  0  0  0  0  0  0  0  0  0
   58.7490   30.7790   53.6200 C   0  0  0  0  0  0  0  0  0  0  0  0
   57.8000   31.9450   53.9700 C   0  0  0  0  0  0  0  0  0  0  0  0
   57.3660   32.6480   52.8180 O   0  0  0  0  0  0  0  0  0  0  0  0
   56.7960   31.7440   51.8920 C   0  0  0  0  0  0  0  0  0  0  0  0
   57.8430   30.7300   51.3850 C   0  0  0  0  0  0  0  0  0  0  0  0
   60.9970   30.2490   49.2600 C   0  0  0  0  0  0  0  0  0  0  0  0
   61.0980   30.1060   47.8690 C   0  0  0  0  0  0  0  0  0  0  0  0
   61.7990   31.1110   47.1220 N   0  0  0  0  0  0  0  0  0  0  0  0
   63.0470   31.6620   47.5580 C   0  0  0  0  0  0  0  0  0  0  0  0
   63.5870   31.2600   48.6240 O   0  0  0  0  0  0  0  0  0  0  0  0
   63.7240   32.7190   46.7440 C   0  0  0  0  0  0  0  0  0  0  0  0
   62.6790   34.2120   46.6330 S   0  0  0  0  0  0  0  0  0  0  0  0
   61.7680   33.8790   48.1530 C   0  0  0  0  0  0  0  0  0  0  0  0
   62.4510   33.9550   49.3360 N   0  0  0  0  0  0  0  0  0  0  0  0
   61.7770   33.7370   50.4860 C   0  0  0  0  0  0  0  0  0  0  0  0
   60.4420   33.4540   50.5110 C   0  0  0  0  0  0  0  0  0  0  0  0
   59.9960   33.2830   51.7760 N   0  0  0  0  0  0  0  0  0  0  0  0
   61.0930   33.4640   52.5490 C   0  0  0  0  0  0  0  0  0  0  0  0
   61.1670   33.3870   53.9390 C   0  0  0  0  0  0  0  0  0  0  0  0
   62.4200   33.5980   54.5460 C   0  0  0  0  0  0  0  0  0  0  0  0
   63.5620   33.8720   53.7600 C   0  0  0  0  0  0  0  0  0  0  0  0
   63.4670   33.9440   52.3580 C   0  0  0  0  0  0  0  0  0  0  0  0
   62.2130   33.7420   51.7880 C   0  0  0  0  0  0  0  0  0  0  0  0
   59.7380   33.3620   49.3190 C   0  0  0  0  0  0  0  0  0  0  0  0
   58.5070   33.0840   49.3290 O   0  0  0  0  0  0  0  0  0  0  0  0
   60.4170   33.5670   48.1380 N   0  0  0  0  0  0  0  0  0  0  0  0
   59.7080   33.4540   46.8890 C   0  0  0  0  0  0  0  0  0  0  0  0
   59.1330   32.2300   46.5100 C   0  0  0  0  0  0  0  0  0  0  0  0
   58.4400   32.1240   45.3000 C   0  0  0  0  0  0  0  0  0  0  0  0
   58.3110   33.2390   44.4650 C   0  0  0  0  0  0  0  0  0  0  0  0
   57.6380   33.1360   43.2940 F   0  0  0  0  0  0  0  0  0  0  0  0
   58.8760   34.4620   44.8420 C   0  0  0  0  0  0  0  0  0  0  0  0
   59.5700   34.5710   46.0500 C   0  0  0  0  0  0  0  0  0  0  0  0
   61.1923   27.7888   45.5776 H   0  0  0  0  0  0  0  0  0  0  0  0
   59.6663   28.6978   45.3094 H   0  0  0  0  0  0  0  0  0  0  0  0
   61.2398   29.5643   45.3094 H   0  0  0  0  0  0  0  0  0  0  0  0
   59.3768   27.1593   47.5318 H   0  0  0  0  0  0  0  0  0  0  0  0
   59.1803   27.4504   49.9946 H   0  0  0  0  0  0  0  0  0  0  0  0
   58.2580   29.8245   53.8603 H   0  0  0  0  0  0  0  0  0  0  0  0
   59.6755   30.8783   54.2046 H   0  0  0  0  0  0  0  0  0  0  0  0
   56.9194   31.5407   54.4906 H   0  0  0  0  0  0  0  0  0  0  0  0
   58.3535   32.6506   54.6070 H   0  0  0  0  0  0  0  0  0  0  0  0
   55.9759   31.1984   52.3816 H   0  0  0  0  0  0  0  0  0  0  0  0
   56.4211   32.3173   51.0313 H   0  0  0  0  0  0  0  0  0  0  0  0
   57.4287   29.7139   51.4612 H   0  0  0  0  0  0  0  0  0  0  0  0
   58.0857   30.9643   50.3380 H   0  0  0  0  0  0  0  0  0  0  0  0
   61.4618   31.1155   49.7531 H   0  0  0  0  0  0  0  0  0  0  0  0
   61.4800   31.3080   46.1470 H   0  0  0  0  0  0  0  0  0  0  0  0
   64.6814   32.9822   47.2175 H   0  0  0  0  0  0  0  0  0  0  0  0
   63.8956   32.3299   45.7295 H   0  0  0  0  0  0  0  0  0  0  0  0
   59.0250   33.0540   52.0870 H   0  0  0  0  0  0  0  0  0  0  0  0
   60.2741   33.1682   54.5430 H   0  0  0  0  0  0  0  0  0  0  0  0
   62.5106   33.5491   55.6412 H   0  0  0  0  0  0  0  0  0  0  0  0
   64.5345   34.0305   54.2489 H   0  0  0  0  0  0  0  0  0  0  0  0
   64.3500   34.1520   51.7359 H   0  0  0  0  0  0  0  0  0  0  0  0
   59.2280   31.3525   47.1665 H   0  0  0  0  0  0  0  0  0  0  0  0
   57.9955   31.1622   45.0043 H   0  0  0  0  0  0  0  0  0  0  0  0
   58.7738   35.3394   44.1864 H   0  0  0  0  0  0  0  0  0  0  0  0
   60.0097   35.5354   46.3445 H   0  0  0  0  0  0  0  0  0  0  0  0
  1  2  1  0
  2  3  2  0
  3  4  1  0
  4  5  2  0
  5  6  1  0
  6  7  2  0
  6  8  2  0
  6  9  1  0
  9 10  1  0
 10 11  1  0
 11 12  1  0
 12 13  1  0
 13 14  1  0
  5 15  1  0
 15 16  2  0
 16 17  1  0
 17 18  1  0
 18 19  2  0
 18 20  1  0
 20 21  1  0
 21 22  1  0
 22 23  2  0
 23 24  1  0
 24 25  2  0
 25 26  1  0
 26 27  1  0
 27 28  2  0
 28 29  1  0
 29 30  2  0
 30 31  1  0
 31 32  2  0
 25 33  1  0
 33 34  2  0
 33 35  1  0
 35 36  1  0
 36 37  2  0
 37 38  1  0
 38 39  2  0
 39 40  1  0
 39 41  1  0
 41 42  2  0
 16  2  1  0
 35 22  1  0
 42 36  1  0
 14  9  1  0
 32 24  1  0
 32 27  1  0
  1 43  1  0
  1 44  1  0
  1 45  1  0
  3 46  1  0
  4 47  1  0
 10 48  1  0
 10 49  1  0
 11 50  1  0
 11 51  1  0
 13 52  1  0
 13 53  1  0
 14 54  1  0
 14 55  1  0
 15 56  1  0
 17 57  1  0
 20 58  1  0
 20 59  1  0
 26 60  1  0
 28 61  1  0
 29 62  1  0
 30 63  1  0
 31 64  1  0
 37 65  1  0
 38 66  1  0
 41 67  1  0
 42 68  1  0
M  END
>  <UniqueID>  (7) 
7

>  <SMILES>  (7) 
Cc1ccc(S(=O)(=O)N2CCOCC2)cc1NC(=O)CSc1nc2c([nH]c3ccccc32)c(=O)n1-c1ccc(F)cc1

>  <Energy>  (7) 
134.77618282686578

>  <Genealogy>  (7) 
Cc1ccc(S(=O)(=O)N2CCOCC2)cc1NC(=O)CSc1nc2c([nH]c3ccccc32)c(=O)n1-c1ccc(F)cc1 (3D coordinates assigned)
Cc1ccc(S(=O)(=O)N2CCOCC2)cc1NC(=O)CSc1nc2c([nH]c3ccccc32)c(=O)n1-c1ccc(F)cc1 (nonaromatic ring conformer: 134.77618282686578 kcal/mol)

>  <smiles>  (7) 
Cc1ccc(S(=O)(=O)N2CCOCC2)cc1NC(=O)CSc1nc2c([nH]c3ccccc32)c(=O)n1-c1ccc(F)cc1

>  <score_type>  (7) 
oracle

>  <origin>  (7) 
adg

>  <m_score__min__energy>  (7) 
-11.94

>  <m_primary>  (7) 
energy

$$$$
7:0
     RDKit          3D

 61 64  0  0  0  0  0  0  0  0999 V2000
   54.3290   24.4760   45.6110 C   0  0  0  0  0  0  0  0  0  0  0  0
   55.4060   25.2790   46.0390 O   0  0  0  0  0  0  0  0  0  0  0  0
   56.6440   24.7220   45.6310 C   0  0  2  0  0  0  0  0  0  0  0  0
   57.5260   24.4980   46.8660 C   0  0  0  0  0  0  0  0  0  0  0  0
   58.0640   25.7980   47.5020 C   0  0  0  0  0  0  0  0  0  0  0  0
   57.6800   27.0740   46.7400 C   0  0  0  0  0  0  0  0  0  0  0  0
   57.8530   26.8910   45.2910 N   0  0  0  0  0  0  0  0  0  0  0  0
   58.3830   27.9730   44.4930 C   0  0  0  0  0  0  0  0  0  0  0  0
   59.6300   28.1450   44.4170 O   0  0  0  0  0  0  0  0  0  0  0  0
   57.4900   28.9280   43.7550 C   0  0  0  0  0  0  0  0  0  0  0  0
   58.0590   30.2720   43.7740 N   0  0  0  0  0  0  0  0  0  0  0  0
   57.4590   31.3580   44.4960 C   0  0  0  0  0  0  0  0  0  0  0  0
   56.2590   31.2770   44.8710 O   0  0  0  0  0  0  0  0  0  0  0  0
   58.1760   32.5820   44.7120 N   0  0  0  0  0  0  0  0  0  0  0  0
   58.5830   33.0780   45.8480 C   0  0  0  0  0  0  0  0  0  0  0  0
   58.3910   32.4220   47.0820 C   0  0  0  0  0  0  0  0  0  0  0  0
   58.8610   33.0040   48.2690 C   0  0  0  0  0  0  0  0  0  0  0  0
   58.7180   32.3040   49.5690 C   0  0  0  0  0  0  0  0  0  0  0  0
   57.7970   32.6500   50.3580 O   0  0  0  0  0  0  0  0  0  0  0  0
   59.6460   31.2340   49.9890 C   0  0  0  0  0  0  0  0  0  0  0  0
   61.0070   31.1540   49.7500 C   0  0  0  0  0  0  0  0  0  0  0  0
   61.8230   32.0790   48.9370 C   0  0  0  0  0  0  0  0  0  0  0  0
   61.9440   31.8770   47.5450 C   0  0  0  0  0  0  0  0  0  0  0  0
   61.1670   30.5160   46.7410 Cl  0  0  0  0  0  0  0  0  0  0  0  0
   62.7190   32.7520   46.7760 C   0  0  0  0  0  0  0  0  0  0  0  0
   63.3730   33.8290   47.3770 C   0  0  0  0  0  0  0  0  0  0  0  0
   63.2500   34.0430   48.7500 C   0  0  0  0  0  0  0  0  0  0  0  0
   62.4770   33.1790   49.5340 C   0  0  0  0  0  0  0  0  0  0  0  0
   62.3080   33.5390   51.2490 Cl  0  0  0  0  0  0  0  0  0  0  0  0
   61.5060   30.0640   50.3640 N   0  0  0  0  0  0  0  0  0  0  0  0
   60.5150   29.4810   50.9740 O   0  0  0  0  0  0  0  0  0  0  0  0
   59.3910   30.1360   50.7960 C   0  0  0  0  0  0  0  0  0  0  0  0
   58.0850   29.7220   51.3930 C   0  0  0  0  0  0  0  0  0  0  0  0
   59.5120   34.2450   48.2040 C   0  0  0  0  0  0  0  0  0  0  0  0
   59.6540   34.8840   46.9720 C   0  0  0  0  0  0  0  0  0  0  0  0
   59.1900   34.2950   45.8380 N   0  0  0  0  0  0  0  0  0  0  0  0
   57.3570   25.6630   44.6440 C   0  0  0  0  0  0  0  0  0  0  0  0
   53.7965   24.0790   46.4878 H   0  0  0  0  0  0  0  0  0  0  0  0
   53.6383   25.0813   45.0056 H   0  0  0  0  0  0  0  0  0  0  0  0
   54.7120   23.6412   45.0056 H   0  0  0  0  0  0  0  0  0  0  0  0
   56.4596   23.7622   45.1262 H   0  0  0  0  0  0  0  0  0  0  0  0
   56.9320   23.9639   47.6222 H   0  0  0  0  0  0  0  0  0  0  0  0
   58.4019   23.9239   46.5297 H   0  0  0  0  0  0  0  0  0  0  0  0
   57.6653   25.8730   48.5245 H   0  0  0  0  0  0  0  0  0  0  0  0
   59.1618   25.7323   47.4778 H   0  0  0  0  0  0  0  0  0  0  0  0
   56.6276   27.3159   46.9495 H   0  0  0  0  0  0  0  0  0  0  0  0
   58.3353   27.8927   47.0720 H   0  0  0  0  0  0  0  0  0  0  0  0
   57.3841   28.5936   42.7124 H   0  0  0  0  0  0  0  0  0  0  0  0
   56.5059   28.9494   44.2460 H   0  0  0  0  0  0  0  0  0  0  0  0
   58.9320   30.4530   43.2300 H   0  0  0  0  0  0  0  0  0  0  0  0
   57.8720   31.4527   47.1137 H   0  0  0  0  0  0  0  0  0  0  0  0
   62.8135   32.5904   45.6920 H   0  0  0  0  0  0  0  0  0  0  0  0
   63.9858   34.5094   46.7675 H   0  0  0  0  0  0  0  0  0  0  0  0
   63.7633   34.8954   49.2189 H   0  0  0  0  0  0  0  0  0  0  0  0
   58.1595   29.7456   52.4902 H   0  0  0  0  0  0  0  0  0  0  0  0
   57.2957   30.4140   51.0641 H   0  0  0  0  0  0  0  0  0  0  0  0
   57.8385   28.7017   51.0641 H   0  0  0  0  0  0  0  0  0  0  0  0
   59.9079   34.7111   49.1183 H   0  0  0  0  0  0  0  0  0  0  0  0
   60.1431   35.8678   46.9180 H   0  0  0  0  0  0  0  0  0  0  0  0
   56.6487   25.9440   43.8506 H   0  0  0  0  0  0  0  0  0  0  0  0
   58.2266   25.1248   44.2388 H   0  0  0  0  0  0  0  0  0  0  0  0
  1  2  1  0
  2  3  1  0
  3  4  1  0
  4  5  1  0
  5  6  1  0
  6  7  1  0
  7  8  1  0
  8  9  2  0
  8 10  1  0
 10 11  1  0
 11 12  1  0
 12 13  2  0
 12 14  1  0
 14 15  2  3
 15 16  1  0
 16 17  2  0
 17 18  1  0
 18 19  2  0
 18 20  1  0
 20 21  1  0
 21 22  1  0
 22 23  2  0
 23 24  1  0
 23 25  1  0
 25 26  2  0
 26 27  1  0
 27 28  2  0
 28 29  1  0
 21 30  2  0
 30 31  1  0
 31 32  1  0
 32 33  1  0
 17 34  1  0
 34 35  2  0
 35 36  1  0
  7 37  1  0
 37  3  1  0
 36 15  1  0
 32 20  2  0
 28 22  1  0
  1 38  1  0
  1 39  1  0
  1 40  1  0
  3 41  1  6
  4 42  1  0
  4 43  1  0
  5 44  1  0
  5 45  1  0
  6 46  1  0
  6 47  1  0
 10 48  1  0
 10 49  1  0
 11 50  1  0
 16 51  1  0
 25 52  1  0
 26 53  1  0
 27 54  1  0
 33 55  1  0
 33 56  1  0
 33 57  1  0
 34 58  1  0
 35 59  1  0
 37 60  1  0
 37 61  1  0
M  CHG  1  36  -1
M  END
>  <UniqueID>  (8) 
8

>  <SMILES>  (8) 
CO[C@@H]1CCCN(C(=O)CNC(=O)N=c2cc(C(=O)c3c(-c4c(Cl)cccc4Cl)noc3C)cc[n-]2)C1

>  <Energy>  (8) 
117.26615407289405

>  <Genealogy>  (8) 
COC1CCCN(C(=O)CNC(=O)N=c2cc(C(=O)c3c(-c4c(Cl)cccc4Cl)noc3C)cc[n-]2)C1 (protonated)
CO[C@@H]1CCCN(C(=O)CNC(=O)N=c2cc(C(=O)c3c(-c4c(Cl)cccc4Cl)noc3C)cc[n-]2)C1 (chirality)
CO[C@@H]1CCCN(C(=O)CNC(=O)N=c2cc(C(=O)c3c(-c4c(Cl)cccc4Cl)noc3C)cc[n-]2)C1 (3D coordinates assigned)
CO[C@@H]1CCCN(C(=O)CNC(=O)N=c2cc(C(=O)c3c(-c4c(Cl)cccc4Cl)noc3C)cc[n-]2)C1 (nonaromatic ring conformer: 117.26615407289405 kcal/mol)

>  <smiles>  (8) 
COC1CCCN(C(=O)CNC(=O)N=c2cc(C(=O)c3c(-c4c(Cl)cccc4Cl)noc3C)cc[nH]2)C1

>  <score_type>  (8) 
oracle

>  <origin>  (8) 
adg

>  <m_score__min__energy>  (8) 
-11.710000000000001

>  <m_primary>  (8) 
energy

$$$$
8:0
     RDKit          3D

 57 60  0  0  0  0  0  0  0  0999 V2000
   58.3700   32.5790   49.7210 O   0  0  0  0  0  0  0  0  0  0  0  0
   59.5830   32.4260   50.0280 C   0  0  0  0  0  0  0  0  0  0  0  0
   60.4940   33.6120   50.0440 C   0  0  0  0  0  0  0  0  0  0  0  0
   61.5720   33.4480   49.0090 C   0  0  0  0  0  0  0  0  0  0  0  0
   62.8090   32.8800   49.3580 C   0  0  0  0  0  0  0  0  0  0  0  0
   63.8020   32.7000   48.3880 C   0  0  0  0  0  0  0  0  0  0  0  0
   63.5630   33.0760   47.0630 C   0  0  0  0  0  0  0  0  0  0  0  0
   62.3290   33.6310   46.7050 C   0  0  0  0  0  0  0  0  0  0  0  0
   61.3340   33.8120   47.6710 C   0  0  0  0  0  0  0  0  0  0  0  0
   60.1190   31.1510   50.2520 O   0  0  0  0  0  0  0  0  0  0  0  0
   60.1820   30.1140   49.3090 C   0  0  0  0  0  0  0  0  0  0  0  0
   59.8250   28.7870   49.6190 C   0  0  0  0  0  0  0  0  0  0  0  0
   59.9160   27.7870   48.6460 C   0  0  0  0  0  0  0  0  0  0  0  0
   60.3990   28.0860   47.3650 C   0  0  0  0  0  0  0  0  0  0  0  0
   60.4400   27.0260   46.3390 C   0  0  0  0  0  0  0  0  0  0  0  0
   59.5220   26.0590   46.1830 C   0  0  0  0  0  0  0  0  0  0  0  0
   58.3020   26.1450   45.3420 C   0  0  0  0  0  0  0  0  0  0  0  0
   57.7890   25.1110   44.8340 O   0  0  0  0  0  0  0  0  0  0  0  0
   57.6490   27.4530   45.1000 C   0  0  0  0  0  0  0  0  0  0  0  0
   56.3110   27.6460   45.4580 C   0  0  0  0  0  0  0  0  0  0  0  0
   55.5750   26.6110   46.0260 O   0  0  0  0  0  0  0  0  0  0  0  0
   55.7150   28.8430   45.2360 N   0  0  0  0  0  0  0  0  0  0  0  0
   56.3930   29.8800   44.6760 C   0  0  0  0  0  0  0  0  0  0  0  0
   55.7850   30.9680   44.4760 O   0  0  0  0  0  0  0  0  0  0  0  0
   57.7170   29.7420   44.3330 N   0  0  0  0  0  0  0  0  0  0  0  0
   58.4730   30.8800   43.7670 C   0  0  0  0  0  0  0  0  0  0  0  0
   58.3920   32.0840   44.6750 C   0  0  0  0  0  0  0  0  0  0  0  0
   58.4650   33.3810   44.1360 C   0  0  0  0  0  0  0  0  0  0  0  0
   58.4190   34.5000   44.9720 C   0  0  0  0  0  0  0  0  0  0  0  0
   58.3020   34.3370   46.3550 C   0  0  0  0  0  0  0  0  0  0  0  0
   58.2260   33.0540   46.9020 C   0  0  0  0  0  0  0  0  0  0  0  0
   58.2690   31.9300   46.0700 C   0  0  0  0  0  0  0  0  0  0  0  0
   58.1830   30.6960   46.6260 F   0  0  0  0  0  0  0  0  0  0  0  0
   58.3470   28.5390   44.5400 C   0  0  0  0  0  0  0  0  0  0  0  0
   59.5680   28.4060   44.2440 O   0  0  0  0  0  0  0  0  0  0  0  0
   60.7480   29.4110   47.0520 C   0  0  0  0  0  0  0  0  0  0  0  0
   60.6530   30.4120   48.0240 C   0  0  0  0  0  0  0  0  0  0  0  0
   59.9134   34.5200   49.8241 H   0  0  0  0  0  0  0  0  0  0  0  0
   60.9582   33.6967   51.0377 H   0  0  0  0  0  0  0  0  0  0  0  0
   62.9978   32.5755   50.3980 H   0  0  0  0  0  0  0  0  0  0  0  0
   64.7713   32.2623   48.6686 H   0  0  0  0  0  0  0  0  0  0  0  0
   64.3446   32.9357   46.3018 H   0  0  0  0  0  0  0  0  0  0  0  0
   62.1414   33.9254   45.6619 H   0  0  0  0  0  0  0  0  0  0  0  0
   60.3624   34.2403   47.3838 H   0  0  0  0  0  0  0  0  0  0  0  0
   59.4732   28.5365   50.6307 H   0  0  0  0  0  0  0  0  0  0  0  0
   59.6066   26.7594   48.8875 H   0  0  0  0  0  0  0  0  0  0  0  0
   61.2932   27.0285   45.6448 H   0  0  0  0  0  0  0  0  0  0  0  0
   59.6890   25.1180   46.7276 H   0  0  0  0  0  0  0  0  0  0  0  0
   54.7110   28.9660   45.4990 H   0  0  0  0  0  0  0  0  0  0  0  0
   59.5270   30.5888   43.6478 H   0  0  0  0  0  0  0  0  0  0  0  0
   58.0354   31.1437   42.7929 H   0  0  0  0  0  0  0  0  0  0  0  0
   58.5590   33.5157   43.0483 H   0  0  0  0  0  0  0  0  0  0  0  0
   58.4750   35.5104   44.5408 H   0  0  0  0  0  0  0  0  0  0  0  0
   58.2698   35.2184   47.0123 H   0  0  0  0  0  0  0  0  0  0  0  0
   58.1320   32.9269   47.9906 H   0  0  0  0  0  0  0  0  0  0  0  0
   61.0970   29.6614   46.0393 H   0  0  0  0  0  0  0  0  0  0  0  0
   60.9506   31.4418   47.7773 H   0  0  0  0  0  0  0  0  0  0  0  0
  1  2  2  0
  2  3  1  0
  3  4  1  0
  4  5  2  0
  5  6  1  0
  6  7  2  0
  7  8  1  0
  8  9  2  0
  2 10  1  0
 10 11  1  0
 11 12  2  0
 12 13  1  0
 13 14  2  0
 14 15  1  0
 15 16  2  3
 16 17  1  0
 17 18  2  0
 17 19  1  0
 19 20  2  0
 20 21  1  0
 20 22  1  0
 22 23  1  0
 23 24  2  0
 23 25  1  0
 25 26  1  0
 26 27  1  0
 27 28  2  0
 28 29  1  0
 29 30  2  0
 30 31  1  0
 31 32  2  0
 32 33  1  0
 25 34  1  0
 34 35  2  0
 14 36  1  0
 36 37  2  0
  9  4  1  0
 37 11  1  0
 34 19  1  0
 32 27  1  0
  3 38  1  0
  3 39  1  0
  5 40  1  0
  6 41  1  0
  7 42  1  0
  8 43  1  0
  9 44  1  0
 12 45  1  0
 13 46  1  0
 15 47  1  0
 16 48  1  0
 22 49  1  0
 26 50  1  0
 26 51  1  0
 28 52  1  0
 29 53  1  0
 30 54  1  0
 31 55  1  0
 36 56  1  0
 37 57  1  0
M  CHG  1  21  -1
M  END
>  <UniqueID>  (9) 
9

>  <SMILES>  (9) 
O=C(Cc1ccccc1)Oc1ccc(C=CC(=O)c2c([O-])[nH]c(=O)n(Cc3ccccc3F)c2=O)cc1

>  <Energy>  (9) 
83.98044843308664

>  <Genealogy>  (9) 
O=C(Cc1ccccc1)Oc1ccc(C=CC(=O)c2c([O-])[nH]c(=O)n(Cc3ccccc3F)c2=O)cc1 (protonated)
O=C(Cc1ccccc1)Oc1ccc(C=CC(=O)c2c([O-])[nH]c(=O)n(Cc3ccccc3F)c2=O)cc1 (3D coordinates assigned)
O=C(Cc1ccccc1)Oc1ccc(C=CC(=O)c2c([O-])[nH]c(=O)n(Cc3ccccc3F)c2=O)cc1 (optimized conformer: 83.98044843308664 kcal/mol)

>  <smiles>  (9) 
O=C(Cc1ccccc1)Oc1ccc(C=CC(=O)c2c(O)[nH]c(=O)n(Cc3ccccc3F)c2=O)cc1

>  <score_type>  (9) 
oracle

>  <origin>  (9) 
adg

>  <m_score__min__energy>  (9) 
-12.81

>  <m_primary>  (9) 
energy

$$$$
9:0
     RDKit          3D

 57 60  0  0  0  0  0  0  0  0999 V2000
   57.7450   27.7190   42.9770 C   0  0  0  0  0  0  0  0  0  0  0  0
   57.6690   28.4320   44.1120 C   0  0  0  0  0  0  0  0  0  0  0  0
   57.8220   27.9460   45.4210 C   0  0  0  0  0  0  0  0  0  0  0  0
   57.8730   26.6870   45.8990 C   0  0  0  0  0  0  0  0  0  0  0  0
   56.9470   25.5990   45.5480 C   0  0  0  0  0  0  0  0  0  0  0  0
   57.3510   24.3410   45.2690 N   0  0  0  0  0  0  0  0  0  0  0  0
   56.1950   23.6520   45.1480 C   0  0  0  0  0  0  0  0  0  0  0  0
   56.1580   22.4200   44.8880 O   0  0  0  0  0  0  0  0  0  0  0  0
   55.0900   24.4030   45.3530 N   0  0  0  0  0  0  0  0  0  0  0  0
   53.6980   23.9600   45.4040 C   0  0  0  0  0  0  0  0  0  0  0  0
   53.4930   23.0430   46.5780 C   0  0  0  0  0  0  0  0  0  0  0  0
   52.3180   22.2870   46.6970 C   0  0  0  0  0  0  0  0  0  0  0  0
   52.1220   21.4700   47.8120 C   0  0  0  0  0  0  0  0  0  0  0  0
   53.1030   21.4230   48.8050 C   0  0  0  0  0  0  0  0  0  0  0  0
   54.2310   22.1720   48.6840 N   0  0  0  0  0  0  0  0  0  0  0  0
   54.4440   22.9750   47.6060 C   0  0  0  0  0  0  0  0  0  0  0  0
   55.5700   25.6250   45.6340 C   0  0  0  0  0  0  0  0  0  0  0  0
   54.7870   26.7150   45.9970 O   0  0  0  0  0  0  0  0  0  0  0  0
   57.9240   29.0580   46.2360 C   0  0  0  0  0  0  0  0  0  0  0  0
   57.7650   30.1660   45.4280 C   0  0  0  0  0  0  0  0  0  0  0  0
   57.8670   31.5600   45.9120 C   0  0  0  0  0  0  0  0  0  0  0  0
   56.9670   32.3870   45.6010 O   0  0  0  0  0  0  0  0  0  0  0  0
   59.0080   32.0060   46.6690 N   0  0  0  0  0  0  0  0  0  0  0  0
   59.5000   33.3780   46.4800 C   0  0  0  0  0  0  0  0  0  0  0  0
   60.6500   33.7170   47.4380 C   0  0  0  0  0  0  0  0  0  0  0  0
   61.6110   32.6040   47.5160 N   0  0  0  0  0  0  0  0  0  0  0  0
   63.0340   32.8410   47.6140 C   0  0  0  0  0  0  0  0  0  0  0  0
   63.5940   34.2100   47.8560 C   0  0  0  0  0  0  0  0  0  0  0  0
   63.8380   31.8780   47.4820 O   0  0  0  0  0  0  0  0  0  0  0  0
   61.1230   31.2200   47.6270 C   0  0  0  0  0  0  0  0  0  0  0  0
   59.5970   31.1620   47.7150 C   0  0  0  0  0  0  0  0  0  0  0  0
   57.5870   29.7880   44.1410 N   0  0  0  0  0  0  0  0  0  0  0  0
   57.4110   30.6840   42.9920 C   0  0  0  0  0  0  0  0  0  0  0  0
   57.6065   28.2155   42.0053 H   0  0  0  0  0  0  0  0  0  0  0  0
   57.9458   26.6383   43.0188 H   0  0  0  0  0  0  0  0  0  0  0  0
   58.6762   26.4527   46.6131 H   0  0  0  0  0  0  0  0  0  0  0  0
   53.0405   24.8359   45.5067 H   0  0  0  0  0  0  0  0  0  0  0  0
   53.4569   23.4192   44.4769 H   0  0  0  0  0  0  0  0  0  0  0  0
   51.5500   22.3377   45.9111 H   0  0  0  0  0  0  0  0  0  0  0  0
   51.2050   20.8699   47.9074 H   0  0  0  0  0  0  0  0  0  0  0  0
   52.9628   20.7793   49.6859 H   0  0  0  0  0  0  0  0  0  0  0  0
   55.3652   23.5726   47.5410 H   0  0  0  0  0  0  0  0  0  0  0  0
   58.0987   29.0596   47.3220 H   0  0  0  0  0  0  0  0  0  0  0  0
   59.8567   33.4873   45.4452 H   0  0  0  0  0  0  0  0  0  0  0  0
   58.6693   34.0674   46.6912 H   0  0  0  0  0  0  0  0  0  0  0  0
   61.1687   34.6165   47.0748 H   0  0  0  0  0  0  0  0  0  0  0  0
   60.2332   33.8938   48.4405 H   0  0  0  0  0  0  0  0  0  0  0  0
   63.6676   34.3899   48.9387 H   0  0  0  0  0  0  0  0  0  0  0  0
   64.5940   34.2824   47.4035 H   0  0  0  0  0  0  0  0  0  0  0  0
   62.9314   34.9625   47.4035 H   0  0  0  0  0  0  0  0  0  0  0  0
   61.4505   30.6547   46.7420 H   0  0  0  0  0  0  0  0  0  0  0  0
   61.5358   30.7844   48.5489 H   0  0  0  0  0  0  0  0  0  0  0  0
   59.2622   30.1232   47.5780 H   0  0  0  0  0  0  0  0  0  0  0  0
   59.2752   31.5272   48.7014 H   0  0  0  0  0  0  0  0  0  0  0  0
   57.2105   31.7045   43.3502 H   0  0  0  0  0  0  0  0  0  0  0  0
   58.3266   30.6826   42.3823 H   0  0  0  0  0  0  0  0  0  0  0  0
   56.5640   30.3364   42.3823 H   0  0  0  0  0  0  0  0  0  0  0  0
  1  2  2  0
  2  3  1  0
  3  4  2  3
  4  5  1  0
  5  6  1  0
  6  7  1  0
  7  8  2  0
  7  9  1  0
  9 10  1  0
 10 11  1  0
 11 12  2  0
 12 13  1  0
 13 14  2  0
 14 15  1  0
 15 16  2  0
  9 17  1  0
 17 18  1  0
  3 19  1  0
 19 20  2  0
 20 21  1  0
 21 22  2  0
 21 23  1  0
 23 24  1  0
 24 25  1  0
 25 26  1  0
 26 27  1  0
 27 28  1  0
 27 29  2  0
 26 30  1  0
 30 31  1  0
 20 32  1  0
 32 33  1  0
 32  2  1  0
 17  5  2  0
 31 23  1  0
 16 11  1  0
  1 34  1  0
  1 35  1  0
  4 36  1  0
 10 37  1  0
 10 38  1  0
 12 39  1  0
 13 40  1  0
 14 41  1  0
 16 42  1  0
 19 43  1  0
 24 44  1  0
 24 45  1  0
 25 46  1  0
 25 47  1  0
 28 48  1  0
 28 49  1  0
 28 50  1  0
 30 51  1  0
 30 52  1  0
 31 53  1  0
 31 54  1  0
 33 55  1  0
 33 56  1  0
 33 57  1  0
M  CHG  2   6  -1  18  -1
M  END
>  <UniqueID>  (10) 
10

>  <SMILES>  (10) 
C=c1c(=Cc2[n-]c(=O)n(Cc3cccnc3)c2[O-])cc(C(=O)N2CCN(C(C)=O)CC2)n1C

>  <Energy>  (10) 
136.91020849175936

>  <Genealogy>  (10) 
C=c1c(=Cc2[n-]c(=O)n(Cc3cccnc3)c2[O-])cc(C(=O)N2CCN(C(C)=O)CC2)n1C (protonated)
C=c1c(=Cc2[n-]c(=O)n(Cc3cccnc3)c2[O-])cc(C(=O)N2CCN(C(C)=O)CC2)n1C (3D coordinates assigned)
C=c1c(=Cc2[n-]c(=O)n(Cc3cccnc3)c2[O-])cc(C(=O)N2CCN(C(C)=O)CC2)n1C (nonaromatic ring conformer: 136.91020849175936 kcal/mol)

>  <smiles>  (10) 
C=c1c(=Cc2[nH]c(=O)n(Cc3cccnc3)c2O)cc(C(=O)N2CCN(C(C)=O)CC2)n1C

>  <score_type>  (10) 
oracle

>  <origin>  (10) 
adg

>  <m_score__min__energy>  (10) 
-14.390000000000001

>  <m_primary>  (10) 
energy

$$$$
10:0
     RDKit          3D

 56 58  0  0  0  0  0  0  0  0999 V2000
   58.0280   29.1220   44.1850 C   0  0  0  0  0  0  0  0  0  0  0  0
   57.2320   30.2750   43.5810 C   0  0  0  0  0  0  0  0  0  0  0  0
   57.8690   31.6270   43.9320 C   0  0  0  0  0  0  0  0  0  0  0  0
   57.1110   32.3490   45.0580 C   0  0  0  0  0  0  0  0  0  0  0  0
   57.9370   33.4010   45.7690 C   0  0  0  0  0  0  0  0  0  0  0  0
   57.5540   34.6050   45.7330 O   0  0  0  0  0  0  0  0  0  0  0  0
   59.0990   33.0440   46.5540 N   0  0  0  0  0  0  0  0  0  0  0  0
   59.5050   31.6330   46.6910 C   0  0  0  0  0  0  0  0  0  0  0  0
   60.6760   31.4610   47.6660 C   0  0  0  0  0  0  0  0  0  0  0  0
   60.4550   32.2800   48.8610 N   0  0  0  0  0  0  0  0  0  0  0  0
   60.8120   31.7620   50.1530 C   0  0  0  0  0  0  0  0  0  0  0  0
   61.9210   31.1760   50.2990 O   0  0  0  0  0  0  0  0  0  0  0  0
   59.8840   31.8610   51.3000 C   0  0  0  0  0  0  0  0  0  0  0  0
   60.3800   32.0610   52.6000 C   0  0  0  0  0  0  0  0  0  0  0  0
   59.5020   32.1830   53.6800 C   0  0  0  0  0  0  0  0  0  0  0  0
   58.1230   32.1200   53.4730 C   0  0  0  0  0  0  0  0  0  0  0  0
   57.6050   31.9520   52.1810 C   0  0  0  0  0  0  0  0  0  0  0  0
   56.1790   31.8760   51.9980 N   0  0  0  0  0  0  0  0  0  0  0  0
   55.4140   30.6660   52.1380 C   0  0  0  0  0  0  0  0  0  0  0  0
   55.9900   29.5490   52.0330 O   0  0  0  0  0  0  0  0  0  0  0  0
   53.9470   30.7150   52.3530 C   0  0  0  0  0  0  0  0  0  0  0  0
   53.3050   29.7770   53.1860 C   0  0  0  0  0  0  0  0  0  0  0  0
   51.9200   29.8260   53.3740 C   0  0  0  0  0  0  0  0  0  0  0  0
   51.1620   30.8100   52.7340 C   0  0  0  0  0  0  0  0  0  0  0  0
   51.7850   31.7420   51.8970 C   0  0  0  0  0  0  0  0  0  0  0  0
   51.0270   32.7160   51.2560 O   0  0  0  0  0  0  0  0  0  0  0  0
   53.1690   31.6920   51.7040 C   0  0  0  0  0  0  0  0  0  0  0  0
   58.4930   31.8100   51.0990 C   0  0  0  0  0  0  0  0  0  0  0  0
   60.0470   33.6880   48.7280 C   0  0  0  0  0  0  0  0  0  0  0  0
   59.8740   34.0790   47.2570 C   0  0  0  0  0  0  0  0  0  0  0  0
   57.9860   29.1828   45.2825 H   0  0  0  0  0  0  0  0  0  0  0  0
   57.5968   28.1657   43.8540 H   0  0  0  0  0  0  0  0  0  0  0  0
   59.0750   29.1862   43.8540 H   0  0  0  0  0  0  0  0  0  0  0  0
   57.2085   30.1617   42.4871 H   0  0  0  0  0  0  0  0  0  0  0  0
   56.2124   30.2506   43.9931 H   0  0  0  0  0  0  0  0  0  0  0  0
   58.9065   31.4569   44.2553 H   0  0  0  0  0  0  0  0  0  0  0  0
   57.8294   32.2629   43.0353 H   0  0  0  0  0  0  0  0  0  0  0  0
   56.2259   32.8370   44.6238 H   0  0  0  0  0  0  0  0  0  0  0  0
   56.8450   31.5882   45.8066 H   0  0  0  0  0  0  0  0  0  0  0  0
   58.6475   31.0516   47.0607 H   0  0  0  0  0  0  0  0  0  0  0  0
   59.8324   31.2776   45.7028 H   0  0  0  0  0  0  0  0  0  0  0  0
   60.7549   30.4035   47.9582 H   0  0  0  0  0  0  0  0  0  0  0  0
   61.6064   31.7816   47.1744 H   0  0  0  0  0  0  0  0  0  0  0  0
   61.4654   32.1218   52.7679 H   0  0  0  0  0  0  0  0  0  0  0  0
   59.8983   32.3290   54.6957 H   0  0  0  0  0  0  0  0  0  0  0  0
   57.4378   32.2027   54.3296 H   0  0  0  0  0  0  0  0  0  0  0  0
   55.6900   32.7230   51.6300 H   0  0  0  0  0  0  0  0  0  0  0  0
   53.8975   29.0006   53.6921 H   0  0  0  0  0  0  0  0  0  0  0  0
   51.4272   29.0897   54.0259 H   0  0  0  0  0  0  0  0  0  0  0  0
   50.0737   30.8519   52.8885 H   0  0  0  0  0  0  0  0  0  0  0  0
   53.6538   32.4223   51.0394 H   0  0  0  0  0  0  0  0  0  0  0  0
   58.0950   31.6574   50.0849 H   0  0  0  0  0  0  0  0  0  0  0  0
   59.0918   33.8357   49.2531 H   0  0  0  0  0  0  0  0  0  0  0  0
   60.8329   34.3208   49.1661 H   0  0  0  0  0  0  0  0  0  0  0  0
   59.3414   35.0395   47.1946 H   0  0  0  0  0  0  0  0  0  0  0  0
   60.8642   34.1731   46.7873 H   0  0  0  0  0  0  0  0  0  0  0  0
  1  2  1  0
  2  3  1  0
  3  4  1  0
  4  5  1  0
  5  6  2  0
  5  7  1  0
  7  8  1  0
  8  9  1  0
  9 10  1  0
 10 11  1  0
 11 12  2  0
 11 13  1  0
 13 14  2  0
 14 15  1  0
 15 16  2  0
 16 17  1  0
 17 18  1  0
 18 19  1  0
 19 20  2  0
 19 21  1  0
 21 22  2  0
 22 23  1  0
 23 24  2  0
 24 25  1  0
 25 26  1  0
 25 27  2  0
 17 28  2  0
 10 29  1  0
 29 30  1  0
 30  7  1  0
 28 13  1  0
 27 21  1  0
  1 31  1  0
  1 32  1  0
  1 33  1  0
  2 34  1  0
  2 35  1  0
  3 36  1  0
  3 37  1  0
  4 38  1  0
  4 39  1  0
  8 40  1  0
  8 41  1  0
  9 42  1  0
  9 43  1  0
 14 44  1  0
 15 45  1  0
 16 46  1  0
 18 47  1  0
 22 48  1  0
 23 49  1  0
 24 50  1  0
 27 51  1  0
 28 52  1  0
 29 53  1  0
 29 54  1  0
 30 55  1  0
 30 56  1  0
M  CHG  1  26  -1
M  END
>  <UniqueID>  (11) 
11

>  <SMILES>  (11) 
CCCCC(=O)N1CCN(C(=O)c2cccc(NC(=O)c3cccc([O-])c3)c2)CC1

>  <Energy>  (11) 
63.15542504071365

>  <Genealogy>  (11) 
CCCCC(=O)N1CCN(C(=O)c2cccc(NC(=O)c3cccc([O-])c3)c2)CC1 (protonated)
CCCCC(=O)N1CCN(C(=O)c2cccc(NC(=O)c3cccc([O-])c3)c2)CC1 (3D coordinates assigned)
CCCCC(=O)N1CCN(C(=O)c2cccc(NC(=O)c3cccc([O-])c3)c2)CC1 (nonaromatic ring conformer: 63.15542504071365 kcal/mol)

>  <smiles>  (11) 
CCCCC(=O)N1CCN(C(=O)c2cccc(NC(=O)c3cccc(O)c3)c2)CC1

>  <score_type>  (11) 
oracle

>  <origin>  (11) 
adg

>  <m_score__min__energy>  (11) 
-13.42

>  <m_primary>  (11) 
energy

$$$$
11:0
     RDKit          3D

 54 58  0  0  0  0  0  0  0  0999 V2000
   54.1760   25.3520   45.6190 O   0  0  0  0  0  0  0  0  0  0  0  0
   55.4260   25.1950   45.5790 C   0  0  0  0  0  0  0  0  0  0  0  0
   56.2560   26.0490   46.3810 N   0  0  0  0  0  0  0  0  0  0  0  0
   56.6580   27.2410   46.0520 C   0  0  0  0  0  0  0  0  0  0  0  0
   57.8630   27.7260   46.5680 C   0  0  0  0  0  0  0  0  0  0  0  0
   58.2820   29.0180   46.2430 C   0  0  0  0  0  0  0  0  0  0  0  0
   57.4880   29.8310   45.4160 C   0  0  0  0  0  0  0  0  0  0  0  0
   57.9040   31.2170   45.0830 C   0  0  0  0  0  0  0  0  0  0  0  0
   57.7670   31.7000   43.7710 C   0  0  0  0  0  0  0  0  0  0  0  0
   58.1570   33.0010   43.4540 C   0  0  0  0  0  0  0  0  0  0  0  0
   58.7060   33.8290   44.4350 C   0  0  0  0  0  0  0  0  0  0  0  0
   58.8780   33.3570   45.7470 C   0  0  0  0  0  0  0  0  0  0  0  0
   59.5120   34.2240   46.7680 C   0  0  0  0  0  0  0  0  0  0  0  0
   58.9000   35.2540   47.1570 O   0  0  0  0  0  0  0  0  0  0  0  0
   60.8150   33.9310   47.3060 N   0  0  0  0  0  0  0  0  0  0  0  0
   61.9130   33.5240   46.4200 C   0  0  0  0  0  0  0  0  0  0  0  0
   62.8420   32.5280   47.1330 C   0  0  0  0  0  0  0  0  0  0  0  0
   63.1620   32.9080   48.5450 N   0  0  0  0  0  0  0  0  0  0  0  0
   64.5390   32.7160   49.0760 C   0  0  0  0  0  0  0  0  0  0  0  0
   64.9300   33.3810   50.3890 C   0  0  0  0  0  0  0  0  0  0  0  0
   64.6630   31.8750   50.3420 C   0  0  0  0  0  0  0  0  0  0  0  0
   62.6270   34.2120   48.9730 C   0  0  0  0  0  0  0  0  0  0  0  0
   61.1200   34.2980   48.6960 C   0  0  0  0  0  0  0  0  0  0  0  0
   58.4470   32.0580   46.0710 C   0  0  0  0  0  0  0  0  0  0  0  0
   56.2830   29.3050   44.9220 C   0  0  0  0  0  0  0  0  0  0  0  0
   55.9020   28.0410   45.2480 N   0  0  0  0  0  0  0  0  0  0  0  0
   55.9890   24.1020   44.7640 C   0  0  0  0  0  0  0  0  0  0  0  0
   55.5330   23.6720   43.5200 C   0  0  0  0  0  0  0  0  0  0  0  0
   56.3080   22.6420   42.9730 C   0  0  0  0  0  0  0  0  0  0  0  0
   57.3780   22.2610   43.7730 C   0  0  0  0  0  0  0  0  0  0  0  0
   57.3610   23.2100   45.1610 S   0  0  0  0  0  0  0  0  0  0  0  0
   58.4775   27.0940   47.2260 H   0  0  0  0  0  0  0  0  0  0  0  0
   59.2359   29.4003   46.6353 H   0  0  0  0  0  0  0  0  0  0  0  0
   57.3497   31.0484   42.9892 H   0  0  0  0  0  0  0  0  0  0  0  0
   58.0316   33.3760   42.4275 H   0  0  0  0  0  0  0  0  0  0  0  0
   59.0054   34.8561   44.1793 H   0  0  0  0  0  0  0  0  0  0  0  0
   61.4946   33.0482   45.5208 H   0  0  0  0  0  0  0  0  0  0  0  0
   62.4945   34.4157   46.1428 H   0  0  0  0  0  0  0  0  0  0  0  0
   62.3538   31.5423   47.1408 H   0  0  0  0  0  0  0  0  0  0  0  0
   63.7922   32.5216   46.5788 H   0  0  0  0  0  0  0  0  0  0  0  0
   64.9817   32.7053   48.0691 H   0  0  0  0  0  0  0  0  0  0  0  0
   65.9548   33.7539   50.5331 H   0  0  0  0  0  0  0  0  0  0  0  0
   64.5409   34.2222   50.9814 H   0  0  0  0  0  0  0  0  0  0  0  0
   65.4956   31.1645   50.4517 H   0  0  0  0  0  0  0  0  0  0  0  0
   64.0025   31.1836   50.8857 H   0  0  0  0  0  0  0  0  0  0  0  0
   62.8036   34.3383   50.0514 H   0  0  0  0  0  0  0  0  0  0  0  0
   63.1362   35.0059   48.4070 H   0  0  0  0  0  0  0  0  0  0  0  0
   60.5907   33.6115   49.3731 H   0  0  0  0  0  0  0  0  0  0  0  0
   60.7930   35.3349   48.8630 H   0  0  0  0  0  0  0  0  0  0  0  0
   58.5354   31.6966   47.1062 H   0  0  0  0  0  0  0  0  0  0  0  0
   55.6448   29.9181   44.2687 H   0  0  0  0  0  0  0  0  0  0  0  0
   54.6524   24.0988   43.0177 H   0  0  0  0  0  0  0  0  0  0  0  0
   56.0898   22.1776   42.0000 H   0  0  0  0  0  0  0  0  0  0  0  0
   58.1101   21.4741   43.5388 H   0  0  0  0  0  0  0  0  0  0  0  0
  1  2  2  0
  2  3  1  0
  3  4  2  3
  4  5  1  0
  5  6  2  0
  6  7  1  0
  7  8  1  0
  8  9  2  0
  9 10  1  0
 10 11  2  0
 11 12  1  0
 12 13  1  0
 13 14  2  0
 13 15  1  0
 15 16  1  0
 16 17  1  0
 17 18  1  0
 18 19  1  0
 19 20  1  0
 20 21  1  0
 18 22  1  0
 22 23  1  0
 12 24  2  0
  7 25  2  0
 25 26  1  0
  2 27  1  0
 27 28  2  0
 28 29  1  0
 29 30  2  0
 30 31  1  0
 26  4  1  0
 31 27  1  0
 24  8  1  0
 23 15  1  0
 21 19  1  0
  5 32  1  0
  6 33  1  0
  9 34  1  0
 10 35  1  0
 11 36  1  0
 16 37  1  0
 16 38  1  0
 17 39  1  0
 17 40  1  0
 19 41  1  0
 20 42  1  0
 20 43  1  0
 21 44  1  0
 21 45  1  0
 22 46  1  0
 22 47  1  0
 23 48  1  0
 23 49  1  0
 24 50  1  0
 25 51  1  0
 28 52  1  0
 29 53  1  0
 30 54  1  0
M  CHG  1  26  -1
M  END
>  <UniqueID>  (12) 
12

>  <SMILES>  (12) 
O=C(N=c1ccc(-c2cccc(C(=O)N3CCN(C4CC4)CC3)c2)c[n-]1)c1cccs1

>  <Energy>  (12) 
384.36253134479847

>  <Genealogy>  (12) 
O=C(N=c1ccc(-c2cccc(C(=O)N3CCN(C4CC4)CC3)c2)c[n-]1)c1cccs1 (protonated)
O=C(N=c1ccc(-c2cccc(C(=O)N3CCN(C4CC4)CC3)c2)c[n-]1)c1cccs1 (3D coordinates assigned)
O=C(N=c1ccc(-c2cccc(C(=O)N3CCN(C4CC4)CC3)c2)c[n-]1)c1cccs1 (nonaromatic ring conformer: 384.36253134479847 kcal/mol)

>  <smiles>  (12) 
O=C(N=c1ccc(-c2cccc(C(=O)N3CCN(C4CC4)CC3)c2)c[nH]1)c1cccs1

>  <score_type>  (12) 
oracle

>  <origin>  (12) 
adg

>  <m_score__min__energy>  (12) 
-12.470000000000001

>  <m_primary>  (12) 
energy

$$$$
12:0
     RDKit          3D

 32 33  0  0  0  0  0  0  0  0999 V2000
   56.0493   30.6151   44.7325 H   0  0  0  0  0  0  0  0  0  0  0  0
   57.0710   30.9670   44.5270 C   0  0  0  0  0  0  0  0  0  0  0  0
   57.2730   32.2930   44.4510 C   0  0  0  0  0  0  0  0  0  0  0  0
   56.8044   32.8325   43.6147 H   0  0  0  0  0  0  0  0  0  0  0  0
   58.0800   33.0820   45.4100 C   0  0  0  0  0  0  0  0  0  0  0  0
   58.8170   34.1800   44.9410 C   0  0  0  0  0  0  0  0  0  0  0  0
   58.7840   34.4451   43.8739 H   0  0  0  0  0  0  0  0  0  0  0  0
   59.5930   34.9390   45.8220 C   0  0  0  0  0  0  0  0  0  0  0  0
   60.1796   35.7896   45.4447 H   0  0  0  0  0  0  0  0  0  0  0  0
   59.6240   34.6180   47.1810 C   0  0  0  0  0  0  0  0  0  0  0  0
   60.2413   35.2108   47.8721 H   0  0  0  0  0  0  0  0  0  0  0  0
   58.8710   33.5440   47.6630 C   0  0  0  0  0  0  0  0  0  0  0  0
   58.8908   33.2966   48.7346 H   0  0  0  0  0  0  0  0  0  0  0  0
   58.0930   32.7840   46.7860 C   0  0  0  0  0  0  0  0  0  0  0  0
   57.4885   31.9499   47.1719 H   0  0  0  0  0  0  0  0  0  0  0  0
   58.1300   29.9470   44.3530 C   0  0  0  0  0  0  0  0  0  0  0  0
   58.9315   30.1801   43.6365 H   0  0  0  0  0  0  0  0  0  0  0  0
   58.2080   28.7430   44.9970 C   0  0  0  0  0  0  0  0  0  0  0  0
   57.0300   28.0350   45.3860 C   0  0  0  0  0  0  0  0  0  0  0  0
   55.8890   28.5520   45.2290 O   0  0  0  0  0  0  0  0  0  0  0  0
   57.1180   26.7770   46.0120 C   0  0  0  0  0  0  0  0  0  0  0  0
   55.9080   25.9860   46.3720 C   0  0  0  0  0  0  0  0  0  0  0  0
   54.7690   26.3490   45.9760 O   0  0  0  0  0  0  0  0  0  0  0  0
   56.0060   24.8430   47.1580 O   0  0  0  0  0  0  0  0  0  0  0  0
   58.3820   26.2720   46.3190 C   0  0  0  0  0  0  0  0  0  0  0  0
   58.4692   25.2996   46.8257 H   0  0  0  0  0  0  0  0  0  0  0  0
   59.5020   26.9620   46.0020 N   0  0  0  0  0  0  0  0  0  0  0  0
   60.4150   26.5220   46.2620 H   0  0  0  0  0  0  0  0  0  0  0  0
   59.4730   28.1580   45.3400 C   0  0  0  0  0  0  0  0  0  0  0  0
   60.6620   28.6970   44.9970 C   0  0  0  0  0  0  0  0  0  0  0  0
   60.6966   29.6580   44.4629 H   0  0  0  0  0  0  0  0  0  0  0  0
   61.5963   28.1752   45.2516 H   0  0  0  0  0  0  0  0  0  0  0  0
  1  2  1  0
  2  3  2  0
  3  4  1  0
  3  5  1  0
  5  6  2  0
  6  7  1  0
  6  8  1  0
  8  9  1  0
  8 10  2  0
 10 11  1  0
 10 12  1  0
 12 13  1  0
 12 14  2  0
 14 15  1  0
  2 16  1  0
 16 17  1  0
 16 18  2  0
 18 19  1  0
 19 20  2  0
 19 21  1  0
 21 22  1  0
 22 23  2  0
 22 24  1  0
 21 25  2  0
 25 26  1  0
 25 27  1  0
 27 28  1  0
 27 29  1  0
 29 30  2  0
 30 31  1  0
 30 32  1  0
 14  5  1  0
 29 18  1  0
M  CHG  1  24  -1
M  END
>  <UniqueID>  (13) 
13

>  <SMILES>  (13) 
C=c1[nH]cc(C(=O)[O-])c(=O)/c1=C\C=Cc1ccccc1

>  <Energy>  (13) 
62.20199073079641

>  <Genealogy>  (13) 
C=c1[nH]cc(C(=O)[O-])c(=O)c1=CC=Cc1ccccc1 (protonated)
C=c1[nH]cc(C(=O)[O-])c(=O)/c1=C\C=Cc1ccccc1 (cis-trans isomerization)
C=c1[nH]cc(C(=O)[O-])c(=O)/c1=C\C=Cc1ccccc1 (3D coordinates assigned)
C=c1[nH]cc(C(=O)[O-])c(=O)/c1=C\C=Cc1ccccc1 (optimized conformer: 62.20199073079641 kcal/mol)

>  <smiles>  (13) 
C=c1[nH]cc(C(=O)O)c(=O)c1=CC=Cc1ccccc1

>  <score_type>  (13) 
oracle

>  <origin>  (13) 
adg

>  <m_score__min__energy>  (13) 
-11.109999999999999

>  <m_primary>  (13) 
energy

$$$$
13:0
     RDKit          3D

 32 33  0  0  0  0  0  0  0  0999 V2000
   52.0080   26.1080   53.0740 C   0  0  0  0  0  0  0  0  0  0  0  0
   52.5860   27.3080   53.0770 C   0  0  0  0  0  0  0  0  0  0  0  0
   53.7400   27.6350   53.7480 C   0  0  0  0  0  0  0  0  0  0  0  0
   54.0250   28.9750   53.4660 C   0  0  0  0  0  0  0  0  0  0  0  0
   55.4120   29.6220   53.7000 C   0  0  0  0  0  0  0  0  0  0  0  0
   55.6830   30.7320   52.6500 C   0  0  0  0  0  0  0  0  0  0  0  0
   55.4550   30.3040   55.0850 C   0  0  0  0  0  0  0  0  0  0  0  0
   56.5510   28.5850   53.5770 C   0  0  0  0  0  0  0  0  0  0  0  0
   52.9400   29.4060   52.6600 C   0  0  0  0  0  0  0  0  0  0  0  0
   52.6510   30.6280   52.1810 C   0  0  0  0  0  0  0  0  0  0  0  0
   51.7950   30.8910   51.0210 C   0  0  0  0  0  0  0  0  0  0  0  0
   51.7690   30.1210   49.9190 N   0  0  0  0  0  0  0  0  0  0  0  0
   51.0430   30.8500   49.0450 C   0  0  0  0  0  0  0  0  0  0  0  0
   50.7750   30.4470   47.8830 O   0  0  0  0  0  0  0  0  0  0  0  0
   50.6390   32.0520   49.5090 N   0  0  0  0  0  0  0  0  0  0  0  0
   51.1410   32.0690   50.7540 C   0  0  0  0  0  0  0  0  0  0  0  0
   51.0190   33.1460   51.6230 O   0  0  0  0  0  0  0  0  0  0  0  0
   52.1190   28.3660   52.4000 N   0  0  0  0  0  0  0  0  0  0  0  0
   51.0818   25.9451   52.5034 H   0  0  0  0  0  0  0  0  0  0  0  0
   52.4569   25.2799   53.6421 H   0  0  0  0  0  0  0  0  0  0  0  0
   54.3314   26.9653   54.3896 H   0  0  0  0  0  0  0  0  0  0  0  0
   55.9135   31.6760   53.1655 H   0  0  0  0  0  0  0  0  0  0  0  0
   56.5363   30.4404   52.0201 H   0  0  0  0  0  0  0  0  0  0  0  0
   54.7913   30.8664   52.0201 H   0  0  0  0  0  0  0  0  0  0  0  0
   55.4067   29.5377   55.8727 H   0  0  0  0  0  0  0  0  0  0  0  0
   56.3908   30.8735   55.1844 H   0  0  0  0  0  0  0  0  0  0  0  0
   54.5981   30.9865   55.1844 H   0  0  0  0  0  0  0  0  0  0  0  0
   56.8823   28.2834   54.5816 H   0  0  0  0  0  0  0  0  0  0  0  0
   56.1861   27.7026   53.0309 H   0  0  0  0  0  0  0  0  0  0  0  0
   57.3954   29.0308   53.0309 H   0  0  0  0  0  0  0  0  0  0  0  0
   53.0893   31.4946   52.6977 H   0  0  0  0  0  0  0  0  0  0  0  0
   51.2450   28.3900   51.8250 H   0  0  0  0  0  0  0  0  0  0  0  0
  1  2  2  0
  2  3  1  0
  3  4  2  0
  4  5  1  0
  5  6  1  0
  5  7  1  0
  5  8  1  0
  4  9  1  0
  9 10  2  3
 10 11  1  0
 11 12  1  0
 12 13  1  0
 13 14  2  0
 13 15  1  0
 15 16  1  0
 16 17  1  0
  9 18  1  0
 18  2  1  0
 16 11  2  0
  1 19  1  0
  1 20  1  0
  3 21  1  0
  6 22  1  0
  6 23  1  0
  6 24  1  0
  7 25  1  0
  7 26  1  0
  7 27  1  0
  8 28  1  0
  8 29  1  0
  8 30  1  0
 10 31  1  0
 18 32  1  0
M  CHG  3  12  -1  15  -1  17  -1
M  END
>  <UniqueID>  (14) 
14

>  <SMILES>  (14) 
C=c1cc(C(C)(C)C)c(=Cc2[n-]c(=O)[n-]c2[O-])[nH]1

>  <Energy>  (14) 
108.42372095629318

>  <Genealogy>  (14) 
C=c1cc(C(C)(C)C)c(=Cc2[n-]c(=O)[n-]c2[O-])[nH]1 (protonated)
C=c1cc(C(C)(C)C)c(=Cc2[n-]c(=O)[n-]c2[O-])[nH]1 (3D coordinates assigned)
C=c1cc(C(C)(C)C)c(=Cc2[n-]c(=O)[n-]c2[O-])[nH]1 (optimized conformer: 108.42372095629318 kcal/mol)

>  <smiles>  (14) 
C=c1cc(C(C)(C)C)c(=Cc2[nH]c(=O)[nH]c2O)[nH]1

>  <score_type>  (14) 
oracle

>  <origin>  (14) 
adg

>  <m_score__min__energy>  (14) 
-15.449999999999999

>  <m_primary>  (14) 
energy

$$$$
14:0
     RDKit          3D

 88 94  0  0  0  0  0  0  0  0999 V2000
   66.9897   30.7151   51.4027 H   0  0  0  0  0  0  0  0  0  0  0  0
   65.9800   30.3730   51.6740 C   0  0  0  0  0  0  0  0  0  0  0  0
   65.8472   29.4221   52.2108 H   0  0  0  0  0  0  0  0  0  0  0  0
   64.9070   31.1180   51.3490 C   0  0  0  0  0  0  0  0  0  0  0  0
   63.6420   30.6530   51.7090 C   0  0  0  0  0  0  0  0  0  0  0  0
   63.5474   29.7486   52.3280 H   0  0  0  0  0  0  0  0  0  0  0  0
   62.5010   31.3260   51.2900 C   0  0  0  0  0  0  0  0  0  0  0  0
   61.1810   30.8540   51.7710 C   0  0  0  0  0  0  0  0  0  0  0  0
   60.4590   31.6850   52.3880 O   0  0  0  0  0  0  0  0  0  0  0  0
   60.6780   29.5170   51.4690 N   0  0  0  0  0  0  0  0  0  0  0  0
   60.9230   28.9060   52.2830 H   0  0  0  0  0  0  0  0  0  0  0  0
   61.3140   28.9160   50.2770 C   0  0  0  0  0  0  0  0  0  0  0  0
   62.4063   28.9697   50.3950 H   0  0  0  0  0  0  0  0  0  0  0  0
   60.9664   27.8751   50.2014 H   0  0  0  0  0  0  0  0  0  0  0  0
   60.9210   29.6380   48.9710 C   0  0  0  0  0  0  0  0  0  0  0  0
   61.3960   30.6301   48.9626 H   0  0  0  0  0  0  0  0  0  0  0  0
   61.2623   29.0115   48.1337 H   0  0  0  0  0  0  0  0  0  0  0  0
   59.4610   29.8140   48.8240 N   0  0  0  0  0  0  0  0  0  0  0  0
   58.7700   28.8230   47.9710 C   0  0  0  0  0  0  0  0  0  0  0  0
   59.4617   27.9908   47.7734 H   0  0  0  0  0  0  0  0  0  0  0  0
   57.8713   28.4973   48.5153 H   0  0  0  0  0  0  0  0  0  0  0  0
   58.3120   29.3830   46.6560 C   0  0  0  0  0  0  0  0  0  0  0  0
   57.5110   28.7140   45.7320 C   0  0  0  0  0  0  0  0  0  0  0  0
   57.0965   27.6985   45.8155 H   0  0  0  0  0  0  0  0  0  0  0  0
   57.3520   29.6020   44.6920 C   0  0  0  0  0  0  0  0  0  0  0  0
   56.6620   29.4740   43.4900 C   0  0  0  0  0  0  0  0  0  0  0  0
   56.1165   28.5513   43.2428 H   0  0  0  0  0  0  0  0  0  0  0  0
   56.6860   30.5650   42.6020 C   0  0  0  0  0  0  0  0  0  0  0  0
   56.1517   30.5002   41.6427 H   0  0  0  0  0  0  0  0  0  0  0  0
   57.3920   31.7440   42.9340 C   0  0  0  0  0  0  0  0  0  0  0  0
   57.4046   32.5899   42.2310 H   0  0  0  0  0  0  0  0  0  0  0  0
   58.0790   31.8420   44.1590 C   0  0  0  0  0  0  0  0  0  0  0  0
   58.6331   32.7530   44.4291 H   0  0  0  0  0  0  0  0  0  0  0  0
   58.0330   30.7450   45.0180 C   0  0  0  0  0  0  0  0  0  0  0  0
   58.6180   30.6290   46.2200 N   0  0  0  0  0  0  0  0  0  0  0  0
   59.1950   31.3470   46.7140 H   0  0  0  0  0  0  0  0  0  0  0  0
   58.7420   30.2300   50.0450 C   0  0  0  0  0  0  0  0  0  0  0  0
   58.9082   31.3062   50.2002 H   0  0  0  0  0  0  0  0  0  0  0  0
   57.6775   29.9963   49.8959 H   0  0  0  0  0  0  0  0  0  0  0  0
   59.2070   29.4760   51.3020 C   0  0  0  0  0  0  0  0  0  0  0  0
   58.7377   29.9357   52.1843 H   0  0  0  0  0  0  0  0  0  0  0  0
   58.9096   28.4227   51.1923 H   0  0  0  0  0  0  0  0  0  0  0  0
   62.6380   32.3870   50.3840 C   0  0  0  0  0  0  0  0  0  0  0  0
   61.6060   33.0050   50.0030 O   0  0  0  0  0  0  0  0  0  0  0  0
   63.8810   32.7540   49.9130 N   0  0  0  0  0  0  0  0  0  0  0  0
   63.9060   33.5250   48.6430 C   0  0  0  0  0  0  0  0  0  0  0  0
   63.4959   34.5285   48.8296 H   0  0  0  0  0  0  0  0  0  0  0  0
   64.9498   33.5768   48.2996 H   0  0  0  0  0  0  0  0  0  0  0  0
   63.0740   32.8460   47.5320 C   0  0  0  0  0  0  0  0  0  0  0  0
   63.7400   32.1964   46.9451 H   0  0  0  0  0  0  0  0  0  0  0  0
   62.2716   32.2794   48.0271 H   0  0  0  0  0  0  0  0  0  0  0  0
   62.4020   33.8450   46.5770 C   0  0  0  0  0  0  0  0  0  0  0  0
   62.7674   34.8572   46.8047 H   0  0  0  0  0  0  0  0  0  0  0  0
   62.6553   33.5578   45.5458 H   0  0  0  0  0  0  0  0  0  0  0  0
   60.9450   33.8250   46.7120 N   0  0  0  0  0  0  0  0  0  0  0  0
   60.2250   33.1160   47.6040 C   0  0  0  0  0  0  0  0  0  0  0  0
   60.6671   32.4349   48.3460 H   0  0  0  0  0  0  0  0  0  0  0  0
   58.8980   33.3380   47.4820 N   0  0  0  0  0  0  0  0  0  0  0  0
   58.7960   34.2260   46.4720 C   0  0  0  0  0  0  0  0  0  0  0  0
   57.8537   34.6404   46.0843 H   0  0  0  0  0  0  0  0  0  0  0  0
   60.0520   34.5340   46.0010 C   0  0  0  0  0  0  0  0  0  0  0  0
   60.2838   35.2362   45.1867 H   0  0  0  0  0  0  0  0  0  0  0  0
   65.0130   32.3320   50.6070 C   0  0  0  0  0  0  0  0  0  0  0  0
   66.1240   33.1280   50.7890 C   0  0  0  0  0  0  0  0  0  0  0  0
   66.1980   34.1400   51.8110 N   0  0  0  0  0  0  0  0  0  0  0  0
   65.1090   35.0650   52.1790 C   0  0  0  0  0  0  0  0  0  0  0  0
   65.5336   36.0653   52.3495 H   0  0  0  0  0  0  0  0  0  0  0  0
   64.3801   35.0806   51.3553 H   0  0  0  0  0  0  0  0  0  0  0  0
   64.3800   34.6090   53.4550 C   0  0  2  0  0  0  0  0  0  0  0  0
   64.3608   35.4743   54.1339 H   0  0  0  0  0  0  0  0  0  0  0  0
   65.0650   33.5190   54.0270 O   0  0  0  0  0  0  0  0  0  0  0  0
   64.0990   32.6740   54.6130 C   0  0  0  0  0  0  0  0  0  0  0  0
   64.2342   32.6661   55.7046 H   0  0  0  0  0  0  0  0  0  0  0  0
   64.2197   31.6544   54.2182 H   0  0  0  0  0  0  0  0  0  0  0  0
   62.7040   33.1810   54.2800 C   0  0  0  0  0  0  0  0  0  0  0  0
   62.2402   33.6593   55.1553 H   0  0  0  0  0  0  0  0  0  0  0  0
   62.0164   32.3766   53.9797 H   0  0  0  0  0  0  0  0  0  0  0  0
   62.9450   34.1780   53.1910 C   0  0  0  0  0  0  0  0  0  0  0  0
   62.2528   35.0292   53.2703 H   0  0  0  0  0  0  0  0  0  0  0  0
   62.7864   33.7726   52.1808 H   0  0  0  0  0  0  0  0  0  0  0  0
   67.5470   34.5700   51.8540 C   0  0  0  0  0  0  0  0  0  0  0  0
   67.9690   35.4240   52.6800 O   0  0  0  0  0  0  0  0  0  0  0  0
   68.3980   33.9640   50.8100 C   0  0  0  0  0  0  0  0  0  0  0  0
   69.1954   33.3528   51.2579 H   0  0  0  0  0  0  0  0  0  0  0  0
   68.9106   34.7113   50.1865 H   0  0  0  0  0  0  0  0  0  0  0  0
   67.4180   33.0910   50.0150 C   0  0  0  0  0  0  0  0  0  0  0  0
   67.7934   32.0595   49.9433 H   0  0  0  0  0  0  0  0  0  0  0  0
   67.2880   33.4576   48.9861 H   0  0  0  0  0  0  0  0  0  0  0  0
  1  2  1  0
  2  3  1  0
  2  4  2  0
  4  5  1  0
  5  6  1  0
  5  7  2  0
  7  8  1  0
  8  9  2  0
  8 10  1  0
 10 11  1  0
 10 12  1  0
 12 13  1  0
 12 14  1  0
 12 15  1  0
 15 16  1  0
 15 17  1  0
 15 18  1  0
 18 19  1  0
 19 20  1  0
 19 21  1  0
 19 22  1  0
 22 23  2  0
 23 24  1  0
 23 25  1  0
 25 26  2  0
 26 27  1  0
 26 28  1  0
 28 29  1  0
 28 30  2  0
 30 31  1  0
 30 32  1  0
 32 33  1  0
 32 34  2  0
 34 35  1  0
 35 36  1  0
 18 37  1  0
 37 38  1  0
 37 39  1  0
 37 40  1  0
 40 41  1  0
 40 42  1  0
  7 43  1  0
 43 44  2  0
 43 45  1  0
 45 46  1  0
 46 47  1  0
 46 48  1  0
 46 49  1  0
 49 50  1  0
 49 51  1  0
 49 52  1  0
 52 53  1  0
 52 54  1  0
 52 55  1  0
 55 56  1  0
 56 57  1  0
 56 58  2  0
 58 59  1  0
 59 60  1  0
 59 61  2  0
 61 62  1  0
 45 63  1  0
 63 64  2  0
 64 65  1  0
 65 66  1  0
 66 67  1  0
 66 68  1  0
 66 69  1  0
 69 70  1  1
 69 71  1  0
 71 72  1  0
 72 73  1  0
 72 74  1  0
 72 75  1  0
 75 76  1  0
 75 77  1  0
 75 78  1  0
 78 79  1  0
 78 80  1  0
 65 81  1  0
 81 82  2  0
 81 83  1  0
 83 84  1  0
 83 85  1  0
 83 86  1  0
 86 87  1  0
 86 88  1  0
 63  4  1  0
 86 64  1  0
 40 10  1  0
 61 55  1  0
 78 69  1  0
 35 22  1  0
 34 25  1  0
M  CHG  1  10   1
M  END
>  <UniqueID>  (15) 
15

>  <SMILES>  (15) 
C=c1cc(C(=O)[NH+]2CCN(Cc3cc4ccccc4[nH]3)CC2)c(=O)n(CCCn2ccnc2)/c1=C1\CCC(=O)N1C[C@H]1CCCO1

>  <Energy>  (15) 
227.0047070864934

>  <Genealogy>  (15) 
C=c1cc(C(=O)[NH+]2CCN(Cc3cc4ccccc4[nH]3)CC2)c(=O)n(CCCn2ccnc2)c1=C1CCC(=O)N1CC1CCCO1 (protonated)
C=c1cc(C(=O)[NH+]2CCN(Cc3cc4ccccc4[nH]3)CC2)c(=O)n(CCCn2ccnc2)c1=C1CCC(=O)N1C[C@H]1CCCO1 (chirality)
C=c1cc(C(=O)[NH+]2CCN(Cc3cc4ccccc4[nH]3)CC2)c(=O)n(CCCn2ccnc2)/c1=C1\CCC(=O)N1C[C@H]1CCCO1 (cis-trans isomerization)
C=c1cc(C(=O)[NH+]2CCN(Cc3cc4ccccc4[nH]3)CC2)c(=O)n(CCCn2ccnc2)/c1=C1\CCC(=O)N1C[C@H]1CCCO1 (3D coordinates assigned)
C=c1cc(C(=O)[NH+]2CCN(Cc3cc4ccccc4[nH]3)CC2)c(=O)n(CCCn2ccnc2)/c1=C1\CCC(=O)N1C[C@H]1CCCO1 (nonaromatic ring conformer: 227.0047070864934 kcal/mol)

>  <smiles>  (15) 
C=c1cc(C(=O)N2CCN(Cc3cc4ccccc4[nH]3)CC2)c(=O)n(CCCn2ccnc2)c1=C1CCC(=O)N1CC1CCCO1

>  <score_type>  (15) 
oracle

>  <origin>  (15) 
adg

>  <m_score__min__energy>  (15) 
-9.3599999999999994

>  <m_primary>  (15) 
energy

$$$$
15:0
     RDKit          3D

 27 28  0  0  0  0  0  0  0  0999 V2000
   55.4470   29.6290   44.7460 O   0  0  0  0  0  0  0  0  0  0  0  0
   56.7070   29.6380   44.8320 C   0  0  0  0  0  0  0  0  0  0  0  0
   57.4490   28.3290   44.7480 C   0  0  0  0  0  0  0  0  0  0  0  0
   57.5880   27.6830   46.1030 C   0  0  0  0  0  0  0  0  0  0  0  0
   58.0600   28.3740   47.0470 O   0  0  0  0  0  0  0  0  0  0  0  0
   57.1980   26.2680   46.3620 C   0  0  0  0  0  0  0  0  0  0  0  0
   55.8590   25.8290   46.2820 C   0  0  0  0  0  0  0  0  0  0  0  0
   54.8260   26.7120   45.9950 O   0  0  0  0  0  0  0  0  0  0  0  0
   55.5570   24.5260   46.5120 N   0  0  0  0  0  0  0  0  0  0  0  0
   56.5180   23.6250   46.8290 C   0  0  0  0  0  0  0  0  0  0  0  0
   56.2090   22.4230   47.0360 O   0  0  0  0  0  0  0  0  0  0  0  0
   57.8120   24.0180   46.9240 N   0  0  0  0  0  0  0  0  0  0  0  0
   58.1730   25.3070   46.7020 C   0  0  0  0  0  0  0  0  0  0  0  0
   59.3900   25.6240   46.7870 O   0  0  0  0  0  0  0  0  0  0  0  0
   57.4090   30.9330   44.9990 C   0  0  0  0  0  0  0  0  0  0  0  0
   58.1100   31.1990   46.1880 C   0  0  0  0  0  0  0  0  0  0  0  0
   58.7810   32.4150   46.3610 C   0  0  0  0  0  0  0  0  0  0  0  0
   58.7540   33.3800   45.3510 C   0  0  0  0  0  0  0  0  0  0  0  0
   59.5950   34.9030   45.5680 Cl  0  0  0  0  0  0  0  0  0  0  0  0
   58.0490   33.1310   44.1690 C   0  0  0  0  0  0  0  0  0  0  0  0
   57.3780   31.9170   43.9920 C   0  0  0  0  0  0  0  0  0  0  0  0
   56.8979   27.6482   44.0826 H   0  0  0  0  0  0  0  0  0  0  0  0
   58.4574   28.5292   44.3567 H   0  0  0  0  0  0  0  0  0  0  0  0
   58.1314   30.4453   46.9890 H   0  0  0  0  0  0  0  0  0  0  0  0
   59.3304   32.6112   47.2935 H   0  0  0  0  0  0  0  0  0  0  0  0
   58.0223   33.8928   43.3759 H   0  0  0  0  0  0  0  0  0  0  0  0
   56.8229   31.7296   43.0610 H   0  0  0  0  0  0  0  0  0  0  0  0
  1  2  2  0
  2  3  1  0
  3  4  1  0
  4  5  2  0
  4  6  1  0
  6  7  2  0
  7  8  1  0
  7  9  1  0
  9 10  1  0
 10 11  2  0
 10 12  1  0
 12 13  1  0
 13 14  2  0
  2 15  1  0
 15 16  2  0
 16 17  1  0
 17 18  2  0
 18 19  1  0
 18 20  1  0
 20 21  2  0
 13  6  1  0
 21 15  1  0
  3 22  1  0
  3 23  1  0
 16 24  1  0
 17 25  1  0
 20 26  1  0
 21 27  1  0
M  CHG  3   8  -1   9  -1  12  -1
M  END
>  <UniqueID>  (16) 
16

>  <SMILES>  (16) 
O=C(CC(=O)c1c([O-])[n-]c(=O)[n-]c1=O)c1ccc(Cl)cc1

>  <Energy>  (16) 
37.1929176868161

>  <Genealogy>  (16) 
O=C(CC(=O)c1c([O-])[n-]c(=O)[n-]c1=O)c1ccc(Cl)cc1 (protonated)
O=C(CC(=O)c1c([O-])[n-]c(=O)[n-]c1=O)c1ccc(Cl)cc1 (3D coordinates assigned)
O=C(CC(=O)c1c([O-])[n-]c(=O)[n-]c1=O)c1ccc(Cl)cc1 (optimized conformer: 37.1929176868161 kcal/mol)

>  <smiles>  (16) 
O=C(CC(=O)c1c(O)[nH]c(=O)[nH]c1=O)c1ccc(Cl)cc1

>  <score_type>  (16) 
oracle

>  <origin>  (16) 
adg

>  <m_score__min__energy>  (16) 
-15.26

>  <m_primary>  (16) 
energy

$$$$
16:0
     RDKit          3D

 54 57  0  0  0  0  0  0  0  0999 V2000
   58.4920   32.0830   50.2940 O   0  0  0  0  0  0  0  0  0  0  0  0
   58.3280   30.8450   50.4670 C   0  0  0  0  0  0  0  0  0  0  0  0
   59.3680   29.8850   49.9770 C   0  0  0  0  0  0  0  0  0  0  0  0
   59.3180   29.7700   48.4740 C   0  0  0  0  0  0  0  0  0  0  0  0
   58.5740   28.7380   47.8770 C   0  0  0  0  0  0  0  0  0  0  0  0
   58.5440   28.6000   46.4880 C   0  0  0  0  0  0  0  0  0  0  0  0
   59.2560   29.4880   45.6810 C   0  0  0  0  0  0  0  0  0  0  0  0
   60.0040   30.5150   46.2590 C   0  0  0  0  0  0  0  0  0  0  0  0
   60.0500   30.6640   47.6600 C   0  0  0  0  0  0  0  0  0  0  0  0
   60.8080   31.6740   48.2780 O   0  0  0  0  0  0  0  0  0  0  0  0
   60.4000   33.0330   48.4410 C   0  0  0  0  0  0  0  0  0  0  0  0
   59.5490   33.4780   47.2770 C   0  0  0  0  0  0  0  0  0  0  0  0
   58.1630   33.2430   47.3000 C   0  0  0  0  0  0  0  0  0  0  0  0
   57.3610   33.6400   46.2260 C   0  0  0  0  0  0  0  0  0  0  0  0
   57.9330   34.2750   45.1220 C   0  0  0  0  0  0  0  0  0  0  0  0
   59.3110   34.5020   45.0810 C   0  0  0  0  0  0  0  0  0  0  0  0
   60.1210   34.1010   46.1500 C   0  0  0  0  0  0  0  0  0  0  0  0
   61.4590   34.3220   46.0800 F   0  0  0  0  0  0  0  0  0  0  0  0
   57.1930   30.3510   51.1870 N   0  0  0  0  0  0  0  0  0  0  0  0
   57.2620   29.5890   52.4000 C   0  0  0  0  0  0  0  0  0  0  0  0
   58.5240   29.3300   52.9460 C   0  0  0  0  0  0  0  0  0  0  0  0
   58.6560   28.6200   54.1510 C   0  0  0  0  0  0  0  0  0  0  0  0
   59.9930   28.3820   54.7360 C   0  0  0  0  0  0  0  0  0  0  0  0
   60.1510   28.3670   55.9840 O   0  0  0  0  0  0  0  0  0  0  0  0
   61.0960   28.1760   53.9140 O   0  0  0  0  0  0  0  0  0  0  0  0
   57.4970   28.1620   54.8000 C   0  0  0  0  0  0  0  0  0  0  0  0
   56.2380   28.3880   54.2420 C   0  0  0  0  0  0  0  0  0  0  0  0
   56.1080   29.0710   53.0210 C   0  0  0  0  0  0  0  0  0  0  0  0
   54.8230   29.2570   52.4090 N   0  0  0  0  0  0  0  0  0  0  0  0
   53.6740   29.8740   53.0040 C   0  0  0  0  0  0  0  0  0  0  0  0
   53.4510   29.6870   54.2290 O   0  0  0  0  0  0  0  0  0  0  0  0
   52.7830   30.7700   52.2450 C   0  0  0  0  0  0  0  0  0  0  0  0
   52.7920   30.9530   50.8720 C   0  0  0  0  0  0  0  0  0  0  0  0
   51.8250   31.8940   50.6030 C   0  0  0  0  0  0  0  0  0  0  0  0
   51.2900   32.2380   51.8240 C   0  0  0  0  0  0  0  0  0  0  0  0
   50.2800   33.1740   52.0090 O   0  0  0  0  0  0  0  0  0  0  0  0
   51.8670   31.5660   52.8360 N   0  0  0  0  0  0  0  0  0  0  0  0
   60.3628   30.2444   50.2792 H   0  0  0  0  0  0  0  0  0  0  0  0
   59.1717   28.8953   50.4152 H   0  0  0  0  0  0  0  0  0  0  0  0
   58.0116   28.0343   48.5082 H   0  0  0  0  0  0  0  0  0  0  0  0
   57.9581   27.7899   46.0292 H   0  0  0  0  0  0  0  0  0  0  0  0
   59.2278   29.3785   44.5868 H   0  0  0  0  0  0  0  0  0  0  0  0
   60.5614   31.2128   45.6169 H   0  0  0  0  0  0  0  0  0  0  0  0
   59.8184   33.1264   49.3700 H   0  0  0  0  0  0  0  0  0  0  0  0
   61.2968   33.6683   48.4865 H   0  0  0  0  0  0  0  0  0  0  0  0
   57.7072   32.7440   48.1679 H   0  0  0  0  0  0  0  0  0  0  0  0
   56.2775   33.4518   46.2508 H   0  0  0  0  0  0  0  0  0  0  0  0
   57.2980   34.5970   44.2835 H   0  0  0  0  0  0  0  0  0  0  0  0
   59.7602   34.9967   44.2072 H   0  0  0  0  0  0  0  0  0  0  0  0
   59.4245   29.6870   52.4249 H   0  0  0  0  0  0  0  0  0  0  0  0
   57.5826   27.6217   55.7543 H   0  0  0  0  0  0  0  0  0  0  0  0
   55.3387   28.0279   54.7631 H   0  0  0  0  0  0  0  0  0  0  0  0
   53.4420   30.4473   50.1428 H   0  0  0  0  0  0  0  0  0  0  0  0
   51.5388   32.2893   49.6172 H   0  0  0  0  0  0  0  0  0  0  0  0
  1  2  2  0
  2  3  1  0
  3  4  1  0
  4  5  2  0
  5  6  1  0
  6  7  2  0
  7  8  1  0
  8  9  2  0
  9 10  1  0
 10 11  1  0
 11 12  1  0
 12 13  2  0
 13 14  1  0
 14 15  2  0
 15 16  1  0
 16 17  2  0
 17 18  1  0
  2 19  1  0
 19 20  1  0
 20 21  2  0
 21 22  1  0
 22 23  1  0
 23 24  2  0
 23 25  1  0
 22 26  2  0
 26 27  1  0
 27 28  2  0
 28 29  1  0
 29 30  1  0
 30 31  2  0
 30 32  1  0
 32 33  2  0
 33 34  1  0
 34 35  2  0
 35 36  1  0
 35 37  1  0
  9  4  1  0
 17 12  1  0
 28 20  1  0
 37 32  1  0
  3 38  1  0
  3 39  1  0
  5 40  1  0
  6 41  1  0
  7 42  1  0
  8 43  1  0
 11 44  1  0
 11 45  1  0
 13 46  1  0
 14 47  1  0
 15 48  1  0
 16 49  1  0
 21 50  1  0
 26 51  1  0
 27 52  1  0
 33 53  1  0
 34 54  1  0
M  CHG  5  19  -1  25  -1  29  -1  36  -1  37  -1
M  END
>  <UniqueID>  (17) 
17

>  <SMILES>  (17) 
O=C(Cc1ccccc1OCc1ccccc1F)[N-]c1cc(C(=O)[O-])ccc1[N-]C(=O)c1ccc([O-])[n-]1

>  <Energy>  (17) 
91.9923857101163

>  <Genealogy>  (17) 
O=C(Cc1ccccc1OCc1ccccc1F)[N-]c1cc(C(=O)[O-])ccc1[N-]C(=O)c1ccc([O-])[n-]1 (protonated)
O=C(Cc1ccccc1OCc1ccccc1F)[N-]c1cc(C(=O)[O-])ccc1[N-]C(=O)c1ccc([O-])[n-]1 (3D coordinates assigned)
O=C(Cc1ccccc1OCc1ccccc1F)[N-]c1cc(C(=O)[O-])ccc1[N-]C(=O)c1ccc([O-])[n-]1 (optimized conformer: 91.9923857101163 kcal/mol)

>  <smiles>  (17) 
O=C(Cc1ccccc1OCc1ccccc1F)Nc1cc(C(=O)O)ccc1NC(=O)c1ccc(O)[nH]1

>  <score_type>  (17) 
oracle

>  <origin>  (17) 
adg

>  <m_score__min__energy>  (17) 
-17.329999999999998

>  <m_primary>  (17) 
energy

$$$$
17:0
     RDKit          3D

 54 57  0  0  0  0  0  0  0  0999 V2000
   59.8360   25.1190   46.3590 O   0  0  0  0  0  0  0  0  0  0  0  0
   59.1760   25.9210   47.0700 C   0  0  0  0  0  0  0  0  0  0  0  0
   58.1180   25.4340   47.9080 N   0  0  0  0  0  0  0  0  0  0  0  0
   57.0610   24.5450   47.5170 C   0  0  0  0  0  0  0  0  0  0  0  0
   56.6740   23.4820   48.3580 C   0  0  0  0  0  0  0  0  0  0  0  0
   55.6640   22.6020   47.9690 C   0  0  0  0  0  0  0  0  0  0  0  0
   55.0260   22.7700   46.7410 C   0  0  0  0  0  0  0  0  0  0  0  0
   55.3790   23.8330   45.9050 C   0  0  0  0  0  0  0  0  0  0  0  0
   56.3800   24.7460   46.2880 C   0  0  0  0  0  0  0  0  0  0  0  0
   56.7040   25.8820   45.3860 C   0  0  0  0  0  0  0  0  0  0  0  0
   57.4180   25.6750   44.3660 O   0  0  0  0  0  0  0  0  0  0  0  0
   56.1540   27.1880   45.6390 N   0  0  0  0  0  0  0  0  0  0  0  0
   56.5040   28.3090   45.0730 C   0  0  0  0  0  0  0  0  0  0  0  0
   57.8130   28.4580   44.5980 C   0  0  0  0  0  0  0  0  0  0  0  0
   58.1940   29.6550   43.9870 C   0  0  0  0  0  0  0  0  0  0  0  0
   57.2680   30.6930   43.8530 C   0  0  0  0  0  0  0  0  0  0  0  0
   57.7790   32.3430   43.0350 Br  0  0  0  0  0  0  0  0  0  0  0  0
   55.9700   30.5110   44.3370 C   0  0  0  0  0  0  0  0  0  0  0  0
   55.6190   29.3370   44.9290 N   0  0  0  0  0  0  0  0  0  0  0  0
   59.4370   27.3760   46.9860 C   0  0  0  0  0  0  0  0  0  0  0  0
   58.7180   28.2820   47.7850 C   0  0  0  0  0  0  0  0  0  0  0  0
   59.0050   29.6490   47.7390 C   0  0  0  0  0  0  0  0  0  0  0  0
   60.0230   30.1360   46.9010 C   0  0  0  0  0  0  0  0  0  0  0  0
   60.3740   31.6070   46.8960 C   0  0  0  0  0  0  0  0  0  0  0  0
   59.4020   32.4800   47.6080 N   0  0  0  0  0  0  0  0  0  0  0  0
   59.9510   33.8010   47.9990 C   0  0  0  0  0  0  0  0  0  0  0  0
   59.7560   34.8980   46.9250 C   0  0  0  0  0  0  0  0  0  0  0  0
   59.1310   34.4150   45.7570 O   0  0  0  0  0  0  0  0  0  0  0  0
   57.8910   33.8370   46.0930 C   0  0  0  0  0  0  0  0  0  0  0  0
   58.0710   32.5680   46.9490 C   0  0  0  0  0  0  0  0  0  0  0  0
   60.7070   29.2390   46.0660 C   0  0  0  0  0  0  0  0  0  0  0  0
   60.4190   27.8730   46.1100 C   0  0  0  0  0  0  0  0  0  0  0  0
   57.1725   23.3453   49.3290 H   0  0  0  0  0  0  0  0  0  0  0  0
   55.3707   21.7747   48.6319 H   0  0  0  0  0  0  0  0  0  0  0  0
   54.2424   22.0639   46.4290 H   0  0  0  0  0  0  0  0  0  0  0  0
   54.8696   23.9575   44.9380 H   0  0  0  0  0  0  0  0  0  0  0  0
   58.5371   27.6370   44.7055 H   0  0  0  0  0  0  0  0  0  0  0  0
   59.2206   29.7803   43.6122 H   0  0  0  0  0  0  0  0  0  0  0  0
   55.2298   31.3188   44.2393 H   0  0  0  0  0  0  0  0  0  0  0  0
   57.9242   27.9125   48.4509 H   0  0  0  0  0  0  0  0  0  0  0  0
   58.4300   30.3489   48.3631 H   0  0  0  0  0  0  0  0  0  0  0  0
   61.3569   31.7265   47.3752 H   0  0  0  0  0  0  0  0  0  0  0  0
   60.3646   31.9253   45.8431 H   0  0  0  0  0  0  0  0  0  0  0  0
   59.2320   31.9760   48.5150 H   0  0  0  0  0  0  0  0  0  0  0  0
   59.4495   34.1260   48.9225 H   0  0  0  0  0  0  0  0  0  0  0  0
   61.0351   33.6717   48.1335 H   0  0  0  0  0  0  0  0  0  0  0  0
   59.1343   35.6996   47.3504 H   0  0  0  0  0  0  0  0  0  0  0  0
   60.7537   35.2629   46.6397 H   0  0  0  0  0  0  0  0  0  0  0  0
   57.2976   34.5692   46.6602 H   0  0  0  0  0  0  0  0  0  0  0  0
   57.3790   33.5543   45.1614 H   0  0  0  0  0  0  0  0  0  0  0  0
   57.2953   32.5613   47.7289 H   0  0  0  0  0  0  0  0  0  0  0  0
   57.9884   31.7060   46.2707 H   0  0  0  0  0  0  0  0  0  0  0  0
   61.4744   29.6140   45.3728 H   0  0  0  0  0  0  0  0  0  0  0  0
   60.9651   27.1795   45.4536 H   0  0  0  0  0  0  0  0  0  0  0  0
  1  2  2  0
  2  3  1  0
  3  4  1  0
  4  5  2  0
  5  6  1  0
  6  7  2  0
  7  8  1  0
  8  9  2  0
  9 10  1  0
 10 11  2  0
 10 12  1  0
 12 13  2  3
 13 14  1  0
 14 15  2  0
 15 16  1  0
 16 17  1  0
 16 18  2  0
 18 19  1  0
  2 20  1  0
 20 21  2  0
 21 22  1  0
 22 23  2  0
 23 24  1  0
 24 25  1  0
 25 26  1  0
 26 27  1  0
 27 28  1  0
 28 29  1  0
 29 30  1  0
 23 31  1  0
 31 32  2  0
  9  4  1  0
 19 13  1  0
 32 20  1  0
 30 25  1  0
  5 33  1  0
  6 34  1  0
  7 35  1  0
  8 36  1  0
 14 37  1  0
 15 38  1  0
 18 39  1  0
 21 40  1  0
 22 41  1  0
 24 42  1  0
 24 43  1  0
 25 44  1  0
 26 45  1  0
 26 46  1  0
 27 47  1  0
 27 48  1  0
 29 49  1  0
 29 50  1  0
 30 51  1  0
 30 52  1  0
 31 53  1  0
 32 54  1  0
M  CHG  3   3  -1  19  -1  25   1
M  END
>  <UniqueID>  (18) 
18

>  <SMILES>  (18) 
O=C([N-]c1ccccc1C(=O)N=c1ccc(Br)c[n-]1)c1ccc(C[NH+]2CCOCC2)cc1

>  <Energy>  (18) 
83.56820516238847

>  <Genealogy>  (18) 
O=C([N-]c1ccccc1C(=O)N=c1ccc(Br)c[n-]1)c1ccc(C[NH+]2CCOCC2)cc1 (protonated)
O=C([N-]c1ccccc1C(=O)N=c1ccc(Br)c[n-]1)c1ccc(C[NH+]2CCOCC2)cc1 (3D coordinates assigned)
O=C([N-]c1ccccc1C(=O)N=c1ccc(Br)c[n-]1)c1ccc(C[NH+]2CCOCC2)cc1 (nonaromatic ring conformer: 83.56820516238847 kcal/mol)

>  <smiles>  (18) 
O=C(Nc1ccccc1C(=O)N=c1ccc(Br)c[nH]1)c1ccc(CN2CCOCC2)cc1

>  <score_type>  (18) 
oracle

>  <origin>  (18) 
adg

>  <m_score__min__energy>  (18) 
-11.550000000000001

>  <m_primary>  (18) 
energy

$$$$
18:0
     RDKit          3D

 52 56  0  0  0  0  0  0  0  0999 V2000
   56.6550   29.3510   43.4930 C   0  0  0  0  0  0  0  0  0  0  0  0
   57.2240   29.3520   44.7000 C   0  0  0  0  0  0  0  0  0  0  0  0
   57.4060   30.4660   45.3720 O   0  0  0  0  0  0  0  0  0  0  0  0
   58.0860   30.2060   46.4640 C   0  0  0  0  0  0  0  0  0  0  0  0
   58.4920   31.2140   47.4640 C   0  0  0  0  0  0  0  0  0  0  0  0
   58.1310   32.4110   47.2900 O   0  0  0  0  0  0  0  0  0  0  0  0
   59.2790   30.8690   48.6280 N   0  0  0  0  0  0  0  0  0  0  0  0
   60.1960   29.7220   48.5970 C   0  0  0  0  0  0  0  0  0  0  0  0
   61.2170   29.8060   49.7330 C   0  0  0  0  0  0  0  0  0  0  0  0
   60.5260   29.9430   51.0290 N   0  0  0  0  0  0  0  0  0  0  0  0
   61.5090   30.0030   52.1320 C   0  0  0  0  0  0  0  0  0  0  0  0
   62.7960   30.6070   51.6540 C   0  0  0  0  0  0  0  0  0  0  0  0
   64.0530   30.0230   51.7960 C   0  0  0  0  0  0  0  0  0  0  0  0
   64.9300   30.9340   51.2480 C   0  0  0  0  0  0  0  0  0  0  0  0
   66.3160   30.8880   51.1060 C   0  0  0  0  0  0  0  0  0  0  0  0
   66.9500   31.9880   50.4970 C   0  0  0  0  0  0  0  0  0  0  0  0
   66.1920   33.0940   50.0520 C   0  0  0  0  0  0  0  0  0  0  0  0
   64.7930   33.1110   50.2120 C   0  0  0  0  0  0  0  0  0  0  0  0
   64.1930   32.0080   50.8170 C   0  0  0  0  0  0  0  0  0  0  0  0
   62.8850   31.8210   51.0620 N   0  0  0  0  0  0  0  0  0  0  0  0
   59.5550   31.0740   51.0810 C   0  0  0  0  0  0  0  0  0  0  0  0
   59.3690   31.8170   49.7460 C   0  0  0  0  0  0  0  0  0  0  0  0
   58.3740   28.8550   46.5240 C   0  0  0  0  0  0  0  0  0  0  0  0
   57.7850   28.2830   45.4100 C   0  0  0  0  0  0  0  0  0  0  0  0
   57.7980   26.9600   45.1660 C   0  0  0  0  0  0  0  0  0  0  0  0
   57.2200   25.9220   46.0340 C   0  0  0  0  0  0  0  0  0  0  0  0
   57.8820   24.8370   46.4790 N   0  0  0  0  0  0  0  0  0  0  0  0
   56.9190   24.1180   47.0970 C   0  0  0  0  0  0  0  0  0  0  0  0
   57.1550   23.0200   47.6680 O   0  0  0  0  0  0  0  0  0  0  0  0
   55.6840   24.6600   47.0460 N   0  0  0  0  0  0  0  0  0  0  0  0
   55.8910   25.7940   46.3560 C   0  0  0  0  0  0  0  0  0  0  0  0
   54.8820   26.6900   46.0220 O   0  0  0  0  0  0  0  0  0  0  0  0
   56.5146   28.4036   42.9519 H   0  0  0  0  0  0  0  0  0  0  0  0
   56.3264   30.2976   43.0391 H   0  0  0  0  0  0  0  0  0  0  0  0
   59.6151   28.7940   48.7033 H   0  0  0  0  0  0  0  0  0  0  0  0
   60.7361   29.7308   47.6388 H   0  0  0  0  0  0  0  0  0  0  0  0
   61.8274   28.8909   49.7415 H   0  0  0  0  0  0  0  0  0  0  0  0
   61.8598   30.6844   49.5740 H   0  0  0  0  0  0  0  0  0  0  0  0
   61.1011   30.6179   52.9478 H   0  0  0  0  0  0  0  0  0  0  0  0
   61.7058   28.9817   52.4901 H   0  0  0  0  0  0  0  0  0  0  0  0
   64.2928   29.0486   52.2466 H   0  0  0  0  0  0  0  0  0  0  0  0
   66.8950   30.0214   51.4579 H   0  0  0  0  0  0  0  0  0  0  0  0
   68.0423   31.9861   50.3669 H   0  0  0  0  0  0  0  0  0  0  0  0
   66.6980   33.9476   49.5773 H   0  0  0  0  0  0  0  0  0  0  0  0
   64.1930   33.9673   49.8705 H   0  0  0  0  0  0  0  0  0  0  0  0
   62.1020   32.4780   50.8420 H   0  0  0  0  0  0  0  0  0  0  0  0
   58.5781   30.6743   51.3908 H   0  0  0  0  0  0  0  0  0  0  0  0
   59.9651   31.8061   51.7922 H   0  0  0  0  0  0  0  0  0  0  0  0
   58.4443   32.4111   49.7900 H   0  0  0  0  0  0  0  0  0  0  0  0
   60.2381   32.4714   49.5834 H   0  0  0  0  0  0  0  0  0  0  0  0
   58.9552   28.3381   47.3018 H   0  0  0  0  0  0  0  0  0  0  0  0
   58.2828   26.6253   44.2370 H   0  0  0  0  0  0  0  0  0  0  0  0
  1  2  2  0
  2  3  1  0
  3  4  1  0
  4  5  1  0
  5  6  2  0
  5  7  1  0
  7  8  1  0
  8  9  1  0
  9 10  1  0
 10 11  1  0
 11 12  1  0
 12 13  2  0
 13 14  1  0
 14 15  2  0
 15 16  1  0
 16 17  2  0
 17 18  1  0
 18 19  2  0
 19 20  1  0
 10 21  1  0
 21 22  1  0
  4 23  2  0
 23 24  1  0
 24 25  2  3
 25 26  1  0
 26 27  1  0
 27 28  1  0
 28 29  2  0
 28 30  1  0
 30 31  1  0
 31 32  1  0
 24  2  1  0
 31 26  2  0
 22  7  1  0
 20 12  1  0
 19 14  1  0
  1 33  1  0
  1 34  1  0
  8 35  1  0
  8 36  1  0
  9 37  1  0
  9 38  1  0
 11 39  1  0
 11 40  1  0
 13 41  1  0
 15 42  1  0
 16 43  1  0
 17 44  1  0
 18 45  1  0
 20 46  1  0
 21 47  1  0
 21 48  1  0
 22 49  1  0
 22 50  1  0
 23 51  1  0
 25 52  1  0
M  CHG  3  27  -1  30  -1  32  -1
M  END
>  <UniqueID>  (19) 
19

>  <SMILES>  (19) 
C=c1oc(C(=O)N2CCN(Cc3cc4ccccc4[nH]3)CC2)cc1=Cc1[n-]c(=O)[n-]c1[O-]

>  <Energy>  (19) 
164.3274923694636

>  <Genealogy>  (19) 
C=c1oc(C(=O)N2CCN(Cc3cc4ccccc4[nH]3)CC2)cc1=Cc1[n-]c(=O)[n-]c1[O-] (protonated)
C=c1oc(C(=O)N2CCN(Cc3cc4ccccc4[nH]3)CC2)cc1=Cc1[n-]c(=O)[n-]c1[O-] (3D coordinates assigned)
C=c1oc(C(=O)N2CCN(Cc3cc4ccccc4[nH]3)CC2)cc1=Cc1[n-]c(=O)[n-]c1[O-] (nonaromatic ring conformer: 164.3274923694636 kcal/mol)

>  <smiles>  (19) 
C=c1oc(C(=O)N2CCN(Cc3cc4ccccc4[nH]3)CC2)cc1=Cc1[nH]c(=O)[nH]c1O

>  <score_type>  (19) 
oracle

>  <origin>  (19) 
adg

>  <m_score__min__energy>  (19) 
-18.32

>  <m_primary>  (19) 
energy

$$$$
19:0
     RDKit          3D

 72 76  0  0  0  0  0  0  0  0999 V2000
   60.9010   26.3440   46.8520 C   0  0  0  0  0  0  0  0  0  0  0  0
   59.7410   26.7750   46.3340 C   0  0  0  0  0  0  0  0  0  0  0  0
   58.8240   25.9500   45.7730 N   0  0  0  0  0  0  0  0  0  0  0  0
   58.8880   24.4950   45.6250 C   0  0  0  0  0  0  0  0  0  0  0  0
   57.7960   26.7480   45.4390 C   0  0  0  0  0  0  0  0  0  0  0  0
   56.7190   26.3390   44.9160 O   0  0  0  0  0  0  0  0  0  0  0  0
   58.0770   28.0490   45.8010 C   0  0  0  0  0  0  0  0  0  0  0  0
   57.1950   29.0650   45.6900 C   0  0  0  0  0  0  0  0  0  0  0  0
   57.1830   30.0810   44.6160 C   0  0  0  0  0  0  0  0  0  0  0  0
   57.0190   29.8540   43.2610 C   0  0  0  0  0  0  0  0  0  0  0  0
   56.7370   28.6250   42.6710 O   0  0  0  0  0  0  0  0  0  0  0  0
   57.2220   30.9870   42.5580 N   0  0  0  0  0  0  0  0  0  0  0  0
   57.5460   31.8810   43.5130 C   0  0  0  0  0  0  0  0  0  0  0  0
   57.8350   33.0790   43.2490 O   0  0  0  0  0  0  0  0  0  0  0  0
   57.5550   31.3690   44.7650 N   0  0  0  0  0  0  0  0  0  0  0  0
   57.9890   32.0580   45.9870 C   0  0  0  0  0  0  0  0  0  0  0  0
   57.4450   33.4880   46.0660 C   0  0  0  0  0  0  0  0  0  0  0  0
   58.5570   34.5290   45.8660 C   0  0  0  0  0  0  0  0  0  0  0  0
   59.9780   34.0170   46.0390 C   0  0  0  0  0  0  0  0  0  0  0  0
   59.3460   34.8840   47.1170 C   0  0  0  0  0  0  0  0  0  0  0  0
   59.3390   28.0790   46.3280 N   0  0  0  0  0  0  0  0  0  0  0  0
   60.2580   29.2330   46.3960 C   0  0  0  0  0  0  0  0  0  0  0  0
   60.0130   30.0340   47.6500 C   0  0  0  0  0  0  0  0  0  0  0  0
   58.8900   29.7540   48.4430 C   0  0  0  0  0  0  0  0  0  0  0  0
   58.6580   30.4670   49.6200 C   0  0  0  0  0  0  0  0  0  0  0  0
   59.5350   31.4800   50.0070 C   0  0  0  0  0  0  0  0  0  0  0  0
   60.6530   31.7920   49.2170 C   0  0  0  0  0  0  0  0  0  0  0  0
   61.5370   32.9110   49.6090 C   0  0  0  0  0  0  0  0  0  0  0  0
   61.1010   34.0910   49.4890 O   0  0  0  0  0  0  0  0  0  0  0  0
   62.8660   32.6910   50.1300 N   0  0  0  0  0  0  0  0  0  0  0  0
   63.1610   31.4740   50.9020 C   0  0  0  0  0  0  0  0  0  0  0  0
   64.4470   31.6090   51.7250 C   0  0  0  0  0  0  0  0  0  0  0  0
   65.5350   32.1560   50.8980 N   0  0  0  0  0  0  0  0  0  0  0  0
   66.9090   31.7480   51.0860 C   0  0  0  0  0  0  0  0  0  0  0  0
   67.2760   30.5650   51.9300 C   0  0  0  0  0  0  0  0  0  0  0  0
   67.8370   32.3860   50.5080 O   0  0  0  0  0  0  0  0  0  0  0  0
   65.2570   33.2910   49.9970 C   0  0  0  0  0  0  0  0  0  0  0  0
   63.8220   33.8060   50.1410 C   0  0  0  0  0  0  0  0  0  0  0  0
   60.8810   31.0730   48.0330 C   0  0  0  0  0  0  0  0  0  0  0  0
   61.6065   27.0627   47.2945 H   0  0  0  0  0  0  0  0  0  0  0  0
   61.1467   25.2719   46.8342 H   0  0  0  0  0  0  0  0  0  0  0  0
   58.9086   24.0258   46.6197 H   0  0  0  0  0  0  0  0  0  0  0  0
   58.0044   24.1435   45.0720 H   0  0  0  0  0  0  0  0  0  0  0  0
   59.7990   24.2224   45.0720 H   0  0  0  0  0  0  0  0  0  0  0  0
   56.4186   29.1437   46.4652 H   0  0  0  0  0  0  0  0  0  0  0  0
   56.6490   27.7880   43.2410 H   0  0  0  0  0  0  0  0  0  0  0  0
   57.6294   31.4929   46.8596 H   0  0  0  0  0  0  0  0  0  0  0  0
   59.0875   32.1136   45.9728 H   0  0  0  0  0  0  0  0  0  0  0  0
   56.6840   33.6240   45.2834 H   0  0  0  0  0  0  0  0  0  0  0  0
   57.0116   33.6360   47.0661 H   0  0  0  0  0  0  0  0  0  0  0  0
   58.0254   35.0980   45.0890 H   0  0  0  0  0  0  0  0  0  0  0  0
   60.1584   32.9485   46.2282 H   0  0  0  0  0  0  0  0  0  0  0  0
   60.9008   34.0672   45.4424 H   0  0  0  0  0  0  0  0  0  0  0  0
   59.0691   34.4426   48.0857 H   0  0  0  0  0  0  0  0  0  0  0  0
   59.6220   35.8209   47.6230 H   0  0  0  0  0  0  0  0  0  0  0  0
   61.2960   28.8689   46.3967 H   0  0  0  0  0  0  0  0  0  0  0  0
   60.0816   29.8785   45.5230 H   0  0  0  0  0  0  0  0  0  0  0  0
   58.1869   28.9663   48.1346 H   0  0  0  0  0  0  0  0  0  0  0  0
   57.7829   30.2299   50.2429 H   0  0  0  0  0  0  0  0  0  0  0  0
   59.3497   32.0379   50.9367 H   0  0  0  0  0  0  0  0  0  0  0  0
   62.3221   31.2757   51.5853 H   0  0  0  0  0  0  0  0  0  0  0  0
   63.3006   30.6474   50.1898 H   0  0  0  0  0  0  0  0  0  0  0  0
   64.2638   32.2838   52.5742 H   0  0  0  0  0  0  0  0  0  0  0  0
   64.7427   30.6135   52.0877 H   0  0  0  0  0  0  0  0  0  0  0  0
   67.1927   30.8334   52.9935 H   0  0  0  0  0  0  0  0  0  0  0  0
   66.5945   29.7306   51.7080 H   0  0  0  0  0  0  0  0  0  0  0  0
   68.3101   30.2628   51.7080 H   0  0  0  0  0  0  0  0  0  0  0  0
   65.9526   34.1097   50.2336 H   0  0  0  0  0  0  0  0  0  0  0  0
   65.3878   32.9408   48.9625 H   0  0  0  0  0  0  0  0  0  0  0  0
   63.7282   34.3525   51.0910 H   0  0  0  0  0  0  0  0  0  0  0  0
   63.5987   34.4713   49.2939 H   0  0  0  0  0  0  0  0  0  0  0  0
   61.7448   31.3238   47.3999 H   0  0  0  0  0  0  0  0  0  0  0  0
  1  2  2  0
  2  3  1  0
  3  4  1  0
  3  5  1  0
  5  6  2  0
  5  7  1  0
  7  8  2  3
  8  9  1  0
  9 10  2  0
 10 11  1  0
 10 12  1  0
 12 13  1  0
 13 14  2  0
 13 15  1  0
 15 16  1  0
 16 17  1  0
 17 18  1  0
 18 19  1  0
 19 20  1  0
  7 21  1  0
 21 22  1  0
 22 23  1  0
 23 24  2  0
 24 25  1  0
 25 26  2  0
 26 27  1  0
 27 28  1  0
 28 29  2  0
 28 30  1  0
 30 31  1  0
 31 32  1  0
 32 33  1  0
 33 34  1  0
 34 35  1  0
 34 36  2  0
 33 37  1  0
 37 38  1  0
 27 39  2  0
 21  2  1  0
 39 23  1  0
 15  9  1  0
 20 18  1  0
 38 30  1  0
  1 40  1  0
  1 41  1  0
  4 42  1  0
  4 43  1  0
  4 44  1  0
  8 45  1  0
 11 46  1  0
 16 47  1  0
 16 48  1  0
 17 49  1  0
 17 50  1  0
 18 51  1  0
 19 52  1  0
 19 53  1  0
 20 54  1  0
 20 55  1  0
 22 56  1  0
 22 57  1  0
 24 58  1  0
 25 59  1  0
 26 60  1  0
 31 61  1  0
 31 62  1  0
 32 63  1  0
 32 64  1  0
 35 65  1  0
 35 66  1  0
 35 67  1  0
 37 68  1  0
 37 69  1  0
 38 70  1  0
 38 71  1  0
 39 72  1  0
M  CHG  1  12  -1
M  END
>  <UniqueID>  (20) 
20

>  <SMILES>  (20) 
C=c1n(C)c(=O)c(=Cc2c(O)[n-]c(=O)n2CCC2CC2)n1Cc1cccc(C(=O)N2CCN(C(C)=O)CC2)c1

>  <Energy>  (20) 
420.2081902045101

>  <Genealogy>  (20) 
C=c1n(C)c(=O)c(=Cc2c(O)[n-]c(=O)n2CCC2CC2)n1Cc1cccc(C(=O)N2CCN(C(C)=O)CC2)c1 (protonated)
C=c1n(C)c(=O)c(=Cc2c(O)[n-]c(=O)n2CCC2CC2)n1Cc1cccc(C(=O)N2CCN(C(C)=O)CC2)c1 (3D coordinates assigned)
C=c1n(C)c(=O)c(=Cc2c(O)[n-]c(=O)n2CCC2CC2)n1Cc1cccc(C(=O)N2CCN(C(C)=O)CC2)c1 (nonaromatic ring conformer: 420.2081902045101 kcal/mol)

>  <smiles>  (20) 
C=c1n(C)c(=O)c(=Cc2c(O)[nH]c(=O)n2CCC2CC2)n1Cc1cccc(C(=O)N2CCN(C(C)=O)CC2)c1

>  <score_type>  (20) 
oracle

>  <origin>  (20) 
adg

>  <m_score__min__energy>  (20) 
-11.51

>  <m_primary>  (20) 
energy

$$$$
20:0
     RDKit          3D

 44 46  0  0  0  0  0  0  0  0999 V2000
   55.8080   28.6620   43.8990 H   0  0  0  0  0  0  0  0  0  0  0  0
   55.6130   28.5630   44.8880 O   0  0  0  0  0  0  0  0  0  0  0  0
   56.1080   27.4860   45.6190 C   0  0  0  0  0  0  0  0  0  0  0  0
   55.3910   26.3840   45.8930 N   0  0  0  0  0  0  0  0  0  0  0  0
   56.2630   25.6250   46.5890 C   0  0  0  0  0  0  0  0  0  0  0  0
   55.9660   24.4850   47.0310 O   0  0  0  0  0  0  0  0  0  0  0  0
   57.4820   26.1790   46.7650 N   0  0  0  0  0  0  0  0  0  0  0  0
   57.3670   27.3780   46.1650 C   0  0  0  0  0  0  0  0  0  0  0  0
   58.4790   28.3210   45.9740 C   0  0  0  0  0  0  0  0  0  0  0  0
   59.3306   27.9775   45.3684 H   0  0  0  0  0  0  0  0  0  0  0  0
   58.5450   29.5680   46.4760 C   0  0  0  0  0  0  0  0  0  0  0  0
   59.0640   29.8440   47.7320 C   0  0  0  0  0  0  0  0  0  0  0  0
   59.5034   29.1182   48.4321 H   0  0  0  0  0  0  0  0  0  0  0  0
   58.9250   31.2000   47.9370 C   0  0  0  0  0  0  0  0  0  0  0  0
   59.3310   31.9080   49.1940 C   0  0  0  0  0  0  0  0  0  0  0  0
   58.9976   31.3267   50.0663 H   0  0  0  0  0  0  0  0  0  0  0  0
   60.4258   32.0117   49.2191 H   0  0  0  0  0  0  0  0  0  0  0  0
   58.8676   32.9053   49.2191 H   0  0  0  0  0  0  0  0  0  0  0  0
   58.3850   31.7840   46.8460 N   0  0  0  0  0  0  0  0  0  0  0  0
   58.1410   33.1900   46.6720 C   0  0  0  0  0  0  0  0  0  0  0  0
   56.9760   33.6320   46.8610 O   0  0  0  0  0  0  0  0  0  0  0  0
   59.1970   34.0850   46.2610 N   0  0  0  0  0  0  0  0  0  0  0  0
   59.4990   34.2090   44.8310 C   0  0  0  0  0  0  0  0  0  0  0  0
   60.5098   34.6240   44.7044 H   0  0  0  0  0  0  0  0  0  0  0  0
   59.4480   33.2171   44.3581 H   0  0  0  0  0  0  0  0  0  0  0  0
   58.7657   34.8788   44.3581 H   0  0  0  0  0  0  0  0  0  0  0  0
   59.9820   34.8450   47.2480 C   0  0  0  0  0  0  0  0  0  0  0  0
   60.1766   35.8529   46.8527 H   0  0  0  0  0  0  0  0  0  0  0  0
   59.4062   34.9004   48.1836 H   0  0  0  0  0  0  0  0  0  0  0  0
   61.2990   34.1660   47.5360 C   0  0  0  0  0  0  0  0  0  0  0  0
   62.1420   33.7990   46.4730 C   0  0  0  0  0  0  0  0  0  0  0  0
   61.8471   34.0249   45.4376 H   0  0  0  0  0  0  0  0  0  0  0  0
   63.3540   33.1480   46.7250 C   0  0  0  0  0  0  0  0  0  0  0  0
   64.0039   32.8539   45.8876 H   0  0  0  0  0  0  0  0  0  0  0  0
   63.7400   32.8710   48.0370 C   0  0  0  0  0  0  0  0  0  0  0  0
   64.6891   32.3502   48.2319 H   0  0  0  0  0  0  0  0  0  0  0  0
   62.9230   33.2540   49.1030 C   0  0  0  0  0  0  0  0  0  0  0  0
   63.2333   33.0406   50.1365 H   0  0  0  0  0  0  0  0  0  0  0  0
   61.7100   33.9090   48.8590 C   0  0  0  0  0  0  0  0  0  0  0  0
   60.9370   34.2750   49.9130 F   0  0  0  0  0  0  0  0  0  0  0  0
   58.1520   30.8050   45.9350 C   0  0  0  0  0  0  0  0  0  0  0  0
   57.7510   31.0540   44.6790 C   0  0  0  0  0  0  0  0  0  0  0  0
   57.4690   32.0755   44.3840 H   0  0  0  0  0  0  0  0  0  0  0  0
   57.7042   30.2366   43.9443 H   0  0  0  0  0  0  0  0  0  0  0  0
  1  2  1  0
  2  3  1  0
  3  4  1  0
  4  5  1  0
  5  6  2  0
  5  7  1  0
  7  8  1  0
  8  9  1  0
  9 10  1  0
  9 11  2  0
 11 12  1  0
 12 13  1  0
 12 14  2  0
 14 15  1  0
 15 16  1  0
 15 17  1  0
 15 18  1  0
 14 19  1  0
 19 20  1  0
 20 21  2  0
 20 22  1  0
 22 23  1  0
 23 24  1  0
 23 25  1  0
 23 26  1  0
 22 27  1  0
 27 28  1  0
 27 29  1  0
 27 30  1  0
 30 31  2  0
 31 32  1  0
 31 33  1  0
 33 34  1  0
 33 35  2  0
 35 36  1  0
 35 37  1  0
 37 38  1  0
 37 39  2  0
 39 40  1  0
 19 41  1  0
 41 42  2  0
 42 43  1  0
 42 44  1  0
  8  3  2  0
 41 11  1  0
 39 30  1  0
M  CHG  2   4  -1   7  -1
M  END
>  <UniqueID>  (21) 
21

>  <SMILES>  (21) 
C=c1/c(=C\c2[n-]c(=O)[n-]c2O)cc(C)n1C(=O)N(C)Cc1ccccc1F

>  <Energy>  (21) 
115.09754637067483

>  <Genealogy>  (21) 
C=c1c(=Cc2[n-]c(=O)[n-]c2O)cc(C)n1C(=O)N(C)Cc1ccccc1F (protonated)
C=c1/c(=C\c2[n-]c(=O)[n-]c2O)cc(C)n1C(=O)N(C)Cc1ccccc1F (cis-trans isomerization)
C=c1/c(=C\c2[n-]c(=O)[n-]c2O)cc(C)n1C(=O)N(C)Cc1ccccc1F (3D coordinates assigned)
C=c1/c(=C\c2[n-]c(=O)[n-]c2O)cc(C)n1C(=O)N(C)Cc1ccccc1F (optimized conformer: 115.09754637067483 kcal/mol)

>  <smiles>  (21) 
C=c1c(=Cc2[nH]c(=O)[nH]c2O)cc(C)n1C(=O)N(C)Cc1ccccc1F

>  <score_type>  (21) 
oracle

>  <origin>  (21) 
adg

>  <m_score__min__energy>  (21) 
-12.609999999999999

>  <m_primary>  (21) 
energy

$$$$
21:0
     RDKit          3D

 51 54  0  0  0  0  0  0  0  0999 V2000
   59.8970   29.0100   44.5590 C   0  0  0  0  0  0  0  0  0  0  0  0
   58.6610   28.6780   44.9400 C   0  0  0  0  0  0  0  0  0  0  0  0
   57.5080   29.3270   44.5800 N   0  0  0  0  0  0  0  0  0  0  0  0
   57.3590   30.5340   43.7640 C   0  0  0  0  0  0  0  0  0  0  0  0
   57.7660   31.7520   44.5520 C   0  0  0  0  0  0  0  0  0  0  0  0
   58.1100   32.9390   43.8840 C   0  0  0  0  0  0  0  0  0  0  0  0
   58.4730   34.0760   44.6120 C   0  0  0  0  0  0  0  0  0  0  0  0
   58.4970   34.0380   46.0080 C   0  0  0  0  0  0  0  0  0  0  0  0
   58.1570   32.8600   46.6800 C   0  0  0  0  0  0  0  0  0  0  0  0
   57.7930   31.7200   45.9570 C   0  0  0  0  0  0  0  0  0  0  0  0
   56.5030   28.6490   45.2060 C   0  0  0  0  0  0  0  0  0  0  0  0
   55.1510   28.9640   45.1370 O   0  0  0  0  0  0  0  0  0  0  0  0
   57.0730   27.6200   45.9080 C   0  0  0  0  0  0  0  0  0  0  0  0
   56.6050   26.6360   46.7040 N   0  0  0  0  0  0  0  0  0  0  0  0
   57.7600   25.9900   47.0580 C   0  0  0  0  0  0  0  0  0  0  0  0
   57.7570   24.9180   47.8610 C   0  0  0  0  0  0  0  0  0  0  0  0
   56.5610   23.6190   47.7770 S   0  0  0  0  0  0  0  0  0  0  0  0
   55.2320   24.1370   48.2520 O   0  0  0  0  0  0  0  0  0  0  0  0
   56.9980   22.4870   48.6650 O   0  0  0  0  0  0  0  0  0  0  0  0
   56.3820   23.0170   46.1460 N   0  0  0  0  0  0  0  0  0  0  0  0
   55.9770   24.1010   45.2330 C   0  0  0  0  0  0  0  0  0  0  0  0
   55.7180   23.5580   43.8090 C   0  0  0  0  0  0  0  0  0  0  0  0
   56.2770   22.2020   43.6270 N   0  0  0  0  0  0  0  0  0  0  0  0
   56.2680   21.8320   42.2040 C   0  0  0  0  0  0  0  0  0  0  0  0
   57.6460   22.1310   44.1690 C   0  0  0  0  0  0  0  0  0  0  0  0
   57.6330   22.3690   45.6940 C   0  0  0  0  0  0  0  0  0  0  0  0
   58.8590   26.6250   46.4550 C   0  0  0  0  0  0  0  0  0  0  0  0
   60.0800   26.3320   46.5410 O   0  0  0  0  0  0  0  0  0  0  0  0
   58.3700   27.6410   45.7450 N   0  0  0  0  0  0  0  0  0  0  0  0
   60.7572   28.4193   44.9071 H   0  0  0  0  0  0  0  0  0  0  0  0
   60.0550   29.8742   43.8971 H   0  0  0  0  0  0  0  0  0  0  0  0
   57.9965   30.4496   42.8716 H   0  0  0  0  0  0  0  0  0  0  0  0
   56.3051   30.6365   43.4662 H   0  0  0  0  0  0  0  0  0  0  0  0
   58.0937   32.9739   42.7847 H   0  0  0  0  0  0  0  0  0  0  0  0
   58.7405   35.0031   44.0839 H   0  0  0  0  0  0  0  0  0  0  0  0
   58.7831   34.9341   46.5782 H   0  0  0  0  0  0  0  0  0  0  0  0
   58.1759   32.8301   47.7794 H   0  0  0  0  0  0  0  0  0  0  0  0
   57.5269   30.7950   46.4895 H   0  0  0  0  0  0  0  0  0  0  0  0
   58.5488   24.8411   48.6207 H   0  0  0  0  0  0  0  0  0  0  0  0
   55.6200   22.2980   46.1730 H   0  0  0  0  0  0  0  0  0  0  0  0
   55.0559   24.5665   45.6135 H   0  0  0  0  0  0  0  0  0  0  0  0
   56.7903   24.8400   45.1838 H   0  0  0  0  0  0  0  0  0  0  0  0
   54.6326   23.5218   43.6340 H   0  0  0  0  0  0  0  0  0  0  0  0
   56.2126   24.2301   43.0923 H   0  0  0  0  0  0  0  0  0  0  0  0
   56.2414   20.7363   42.1102 H   0  0  0  0  0  0  0  0  0  0  0  0
   55.3801   22.2633   41.7186 H   0  0  0  0  0  0  0  0  0  0  0  0
   57.1758   22.2196   41.7186 H   0  0  0  0  0  0  0  0  0  0  0  0
   58.0673   21.1364   43.9608 H   0  0  0  0  0  0  0  0  0  0  0  0
   58.2601   22.9087   43.6913 H   0  0  0  0  0  0  0  0  0  0  0  0
   57.7352   21.4003   46.2050 H   0  0  0  0  0  0  0  0  0  0  0  0
   58.4695   23.0400   45.9391 H   0  0  0  0  0  0  0  0  0  0  0  0
  1  2  2  0
  2  3  1  0
  3  4  1  0
  4  5  1  0
  5  6  2  0
  6  7  1  0
  7  8  2  0
  8  9  1  0
  9 10  2  0
  3 11  1  0
 11 12  1  0
 11 13  2  0
 13 14  1  0
 14 15  1  0
 15 16  2  3
 16 17  1  0
 17 18  2  0
 17 19  2  0
 17 20  1  0
 20 21  1  0
 21 22  1  0
 22 23  1  0
 23 24  1  0
 23 25  1  0
 25 26  1  0
 15 27  1  0
 27 28  2  0
 27 29  1  0
 29  2  1  0
 10  5  1  0
 29 13  1  0
 26 20  1  0
  1 30  1  0
  1 31  1  0
  4 32  1  0
  4 33  1  0
  6 34  1  0
  7 35  1  0
  8 36  1  0
  9 37  1  0
 10 38  1  0
 16 39  1  0
 20 40  1  0
 21 41  1  0
 21 42  1  0
 22 43  1  0
 22 44  1  0
 24 45  1  0
 24 46  1  0
 24 47  1  0
 25 48  1  0
 25 49  1  0
 26 50  1  0
 26 51  1  0
M  CHG  3  12  -1  14  -1  20   1
M  END
>  <UniqueID>  (22) 
22

>  <SMILES>  (22) 
C=c1n(Cc2ccccc2)c([O-])c2[n-]c(=CS(=O)(=O)[NH+]3CCN(C)CC3)c(=O)n12

>  <Energy>  (22) 
157.87053807204384

>  <Genealogy>  (22) 
C=c1n(Cc2ccccc2)c([O-])c2[n-]c(=CS(=O)(=O)[NH+]3CCN(C)CC3)c(=O)n12 (protonated)
C=c1n(Cc2ccccc2)c([O-])c2[n-]c(=CS(=O)(=O)[NH+]3CCN(C)CC3)c(=O)n12 (3D coordinates assigned)
C=c1n(Cc2ccccc2)c([O-])c2[n-]c(=CS(=O)(=O)[NH+]3CCN(C)CC3)c(=O)n12 (nonaromatic ring conformer: 157.87053807204384 kcal/mol)

>  <smiles>  (22) 
C=c1n(Cc2ccccc2)c(O)c2[nH]c(=CS(=O)(=O)N3CCN(C)CC3)c(=O)n12

>  <score_type>  (22) 
oracle

>  <origin>  (22) 
adg

>  <m_score__min__energy>  (22) 
-13.140000000000001

>  <m_primary>  (22) 
energy

$$$$
22:0
     RDKit          3D

 59 62  0  0  0  0  0  0  0  0999 V2000
   61.4280   31.7360   47.0660 C   0  0  0  0  0  0  0  0  0  0  0  0
   60.6220   30.4770   47.0400 C   0  0  0  0  0  0  0  0  0  0  0  0
   60.7590   29.5280   48.0560 C   0  0  0  0  0  0  0  0  0  0  0  0
   60.0030   28.3570   48.0070 C   0  0  0  0  0  0  0  0  0  0  0  0
   59.1140   28.1340   46.9410 C   0  0  0  0  0  0  0  0  0  0  0  0
   58.3430   26.9620   46.8520 C   0  0  0  0  0  0  0  0  0  0  0  0
   58.4340   26.0830   47.7530 O   0  0  0  0  0  0  0  0  0  0  0  0
   57.4730   26.7760   45.7570 C   0  0  0  0  0  0  0  0  0  0  0  0
   56.6380   25.5500   45.6140 C   0  0  0  0  0  0  0  0  0  0  0  0
   57.1290   24.4970   45.1270 O   0  0  0  0  0  0  0  0  0  0  0  0
   55.2520   25.5820   45.9840 N   0  0  0  0  0  0  0  0  0  0  0  0
   54.3460   24.4680   46.0010 C   0  0  0  0  0  0  0  0  0  0  0  0
   54.6780   23.3460   46.7670 C   0  0  0  0  0  0  0  0  0  0  0  0
   53.8400   22.2270   46.7880 C   0  0  0  0  0  0  0  0  0  0  0  0
   52.6540   22.2090   46.0340 C   0  0  0  0  0  0  0  0  0  0  0  0
   51.7780   21.0130   46.0580 C   0  0  0  0  0  0  0  0  0  0  0  0
   50.6000   20.9660   46.8700 N   0  0  0  0  0  0  0  0  0  0  0  0
   52.0740   20.0060   45.3600 O   0  0  0  0  0  0  0  0  0  0  0  0
   52.3400   23.3270   45.2400 C   0  0  0  0  0  0  0  0  0  0  0  0
   53.1790   24.4440   45.2190 C   0  0  0  0  0  0  0  0  0  0  0  0
   57.3980   27.7850   44.7820 C   0  0  0  0  0  0  0  0  0  0  0  0
   58.1390   28.9310   44.8800 N   0  0  0  0  0  0  0  0  0  0  0  0
   58.0270   29.9330   43.8040 C   0  0  0  0  0  0  0  0  0  0  0  0
   57.0680   31.0210   44.1850 C   0  0  0  0  0  0  0  0  0  0  0  0
   55.8870   30.7330   44.5280 O   0  0  0  0  0  0  0  0  0  0  0  0
   57.4840   32.3880   44.1030 N   0  0  0  0  0  0  0  0  0  0  0  0
   58.2350   33.0660   45.1540 C   0  0  0  0  0  0  0  0  0  0  0  0
   57.5520   32.8720   46.5100 C   0  0  0  0  0  0  0  0  0  0  0  0
   58.4910   33.2260   47.6320 C   0  0  0  0  0  0  0  0  0  0  0  0
   59.3870   34.3000   47.4960 C   0  0  0  0  0  0  0  0  0  0  0  0
   60.2770   34.6070   48.5280 C   0  0  0  0  0  0  0  0  0  0  0  0
   60.2870   33.8390   49.6960 C   0  0  0  0  0  0  0  0  0  0  0  0
   59.4110   32.7610   49.8320 C   0  0  0  0  0  0  0  0  0  0  0  0
   58.5200   32.4490   48.8030 C   0  0  0  0  0  0  0  0  0  0  0  0
   59.0000   29.1160   45.9310 C   0  0  0  0  0  0  0  0  0  0  0  0
   59.7600   30.2470   46.0140 N   0  0  0  0  0  0  0  0  0  0  0  0
   61.6159   32.0296   48.1093 H   0  0  0  0  0  0  0  0  0  0  0  0
   62.3869   31.5681   46.5539 H   0  0  0  0  0  0  0  0  0  0  0  0
   60.8741   32.5366   46.5539 H   0  0  0  0  0  0  0  0  0  0  0  0
   61.4573   29.7029   48.8877 H   0  0  0  0  0  0  0  0  0  0  0  0
   60.1026   27.6060   48.8045 H   0  0  0  0  0  0  0  0  0  0  0  0
   55.6059   23.3439   47.3577 H   0  0  0  0  0  0  0  0  0  0  0  0
   54.1111   21.3537   47.3995 H   0  0  0  0  0  0  0  0  0  0  0  0
   50.3910   21.7020   47.5780 H   0  0  0  0  0  0  0  0  0  0  0  0
   49.9700   20.1350   46.8250 H   0  0  0  0  0  0  0  0  0  0  0  0
   51.4249   23.3217   44.6296 H   0  0  0  0  0  0  0  0  0  0  0  0
   52.9248   25.3082   44.5876 H   0  0  0  0  0  0  0  0  0  0  0  0
   56.7280   27.6504   43.9200 H   0  0  0  0  0  0  0  0  0  0  0  0
   59.0173   30.3743   43.6181 H   0  0  0  0  0  0  0  0  0  0  0  0
   57.6524   29.4353   42.8974 H   0  0  0  0  0  0  0  0  0  0  0  0
   59.2524   32.6500   45.1981 H   0  0  0  0  0  0  0  0  0  0  0  0
   58.2751   34.1414   44.9260 H   0  0  0  0  0  0  0  0  0  0  0  0
   56.6644   33.5196   46.5636 H   0  0  0  0  0  0  0  0  0  0  0  0
   57.2598   31.8164   46.6120 H   0  0  0  0  0  0  0  0  0  0  0  0
   59.3875   34.9006   46.5744 H   0  0  0  0  0  0  0  0  0  0  0  0
   60.9707   35.4540   48.4214 H   0  0  0  0  0  0  0  0  0  0  0  0
   60.9862   34.0846   50.5089 H   0  0  0  0  0  0  0  0  0  0  0  0
   59.4225   32.1564   50.7509 H   0  0  0  0  0  0  0  0  0  0  0  0
   57.8384   31.5922   48.9092 H   0  0  0  0  0  0  0  0  0  0  0  0
  1  2  1  0
  2  3  2  0
  3  4  1  0
  4  5  2  0
  5  6  1  0
  6  7  2  0
  6  8  1  0
  8  9  1  0
  9 10  2  0
  9 11  1  0
 11 12  1  0
 12 13  2  0
 13 14  1  0
 14 15  2  0
 15 16  1  0
 16 17  1  0
 16 18  2  0
 15 19  1  0
 19 20  2  0
  8 21  2  0
 21 22  1  0
 22 23  1  0
 23 24  1  0
 24 25  2  0
 24 26  1  0
 26 27  1  0
 27 28  1  0
 28 29  1  0
 29 30  2  0
 30 31  1  0
 31 32  2  0
 32 33  1  0
 33 34  2  0
 22 35  1  0
 35 36  2  0
 36  2  1  0
 35  5  1  0
 20 12  1  0
 34 29  1  0
  1 37  1  0
  1 38  1  0
  1 39  1  0
  3 40  1  0
  4 41  1  0
 13 42  1  0
 14 43  1  0
 17 44  1  0
 17 45  1  0
 19 46  1  0
 20 47  1  0
 21 48  1  0
 23 49  1  0
 23 50  1  0
 27 51  1  0
 27 52  1  0
 28 53  1  0
 28 54  1  0
 30 55  1  0
 31 56  1  0
 32 57  1  0
 33 58  1  0
 34 59  1  0
M  CHG  2  11  -1  26  -1
M  END
>  <UniqueID>  (23) 
23

>  <SMILES>  (23) 
Cc1ccc2c(=O)c(C(=O)[N-]c3ccc(C(N)=O)cc3)cn(CC(=O)[N-]CCc3ccccc3)c2n1

>  <Energy>  (23) 
71.5161338588661

>  <Genealogy>  (23) 
Cc1ccc2c(=O)c(C(=O)[N-]c3ccc(C(N)=O)cc3)cn(CC(=O)[N-]CCc3ccccc3)c2n1 (protonated)
Cc1ccc2c(=O)c(C(=O)[N-]c3ccc(C(N)=O)cc3)cn(CC(=O)[N-]CCc3ccccc3)c2n1 (3D coordinates assigned)
Cc1ccc2c(=O)c(C(=O)[N-]c3ccc(C(N)=O)cc3)cn(CC(=O)[N-]CCc3ccccc3)c2n1 (optimized conformer: 71.5161338588661 kcal/mol)

>  <smiles>  (23) 
Cc1ccc2c(=O)c(C(=O)Nc3ccc(C(N)=O)cc3)cn(CC(=O)NCCc3ccccc3)c2n1

>  <score_type>  (23) 
oracle

>  <origin>  (23) 
adg

>  <m_score__min__energy>  (23) 
-11.74

>  <m_primary>  (23) 
energy

$$$$
23:0
     RDKit          3D

 51 53  0  0  0  0  0  0  0  0999 V2000
   55.5340   28.6270   45.1040 O   0  0  0  0  0  0  0  0  0  0  0  0
   56.4390   29.3890   44.6710 C   0  0  0  0  0  0  0  0  0  0  0  0
   56.1590   30.7690   44.4320 N   0  0  0  0  0  0  0  0  0  0  0  0
   56.6430   31.7440   45.2480 O   0  0  0  0  0  0  0  0  0  0  0  0
   57.5650   32.4850   44.4820 C   0  0  0  0  0  0  0  0  0  0  0  0
   58.2850   33.4480   45.3810 C   0  0  0  0  0  0  0  0  0  0  0  0
   58.1630   33.3320   46.7770 C   0  0  0  0  0  0  0  0  0  0  0  0
   58.8100   34.2440   47.6210 C   0  0  0  0  0  0  0  0  0  0  0  0
   59.5760   35.2790   47.0760 C   0  0  0  0  0  0  0  0  0  0  0  0
   59.6980   35.4050   45.6890 C   0  0  0  0  0  0  0  0  0  0  0  0
   59.0510   34.4970   44.8420 C   0  0  0  0  0  0  0  0  0  0  0  0
   57.7810   28.8580   44.4070 C   0  0  0  0  0  0  0  0  0  0  0  0
   57.9350   27.9570   43.5380 O   0  0  0  0  0  0  0  0  0  0  0  0
   58.9040   29.3650   45.1420 N   0  0  0  0  0  0  0  0  0  0  0  0
   59.7460   28.5950   46.0640 C   0  0  2  0  0  0  0  0  0  0  0  0
   59.6160   27.0700   45.7940 C   0  0  0  0  0  0  0  0  0  0  0  0
   59.5920   26.2240   47.0760 C   0  0  0  0  0  0  0  0  0  0  0  0
   60.6290   26.7250   48.0830 C   0  0  0  0  0  0  0  0  0  0  0  0
   60.3930   28.1930   48.4990 C   0  0  0  0  0  0  0  0  0  0  0  0
   59.4650   28.9800   47.5440 C   0  0  1  0  0  0  0  0  0  0  0  0
   59.6280   30.4640   47.8080 C   0  0  0  0  0  0  0  0  0  0  0  0
   58.7410   31.1040   48.4340 O   0  0  0  0  0  0  0  0  0  0  0  0
   60.6950   31.1940   47.1850 N   0  0  0  0  0  0  0  0  0  0  0  0
   61.4510   32.0970   47.7450 C   0  0  0  0  0  0  0  0  0  0  0  0
   62.6540   32.5380   47.1560 C   0  0  0  0  0  0  0  0  0  0  0  0
   63.4270   33.5010   47.8060 C   0  0  0  0  0  0  0  0  0  0  0  0
   63.0130   34.0090   49.0360 C   0  0  0  0  0  0  0  0  0  0  0  0
   61.8290   33.5390   49.6050 C   0  0  0  0  0  0  0  0  0  0  0  0
   61.0820   32.6010   48.9590 N   0  0  0  0  0  0  0  0  0  0  0  0
   58.2908   31.8020   44.0164 H   0  0  0  0  0  0  0  0  0  0  0  0
   57.0334   33.0387   43.6940 H   0  0  0  0  0  0  0  0  0  0  0  0
   57.5569   32.5217   47.2083 H   0  0  0  0  0  0  0  0  0  0  0  0
   58.7154   34.1458   48.7125 H   0  0  0  0  0  0  0  0  0  0  0  0
   60.0833   35.9950   47.7394 H   0  0  0  0  0  0  0  0  0  0  0  0
   60.3031   36.2186   45.2625 H   0  0  0  0  0  0  0  0  0  0  0  0
   59.1422   34.6046   43.7511 H   0  0  0  0  0  0  0  0  0  0  0  0
   60.7978   28.8569   45.8763 H   0  0  0  0  0  0  0  0  0  0  0  0
   58.6818   26.8920   45.2411 H   0  0  0  0  0  0  0  0  0  0  0  0
   60.5032   26.7648   45.2198 H   0  0  0  0  0  0  0  0  0  0  0  0
   58.5915   26.2858   47.5291 H   0  0  0  0  0  0  0  0  0  0  0  0
   59.8326   25.1832   46.8136 H   0  0  0  0  0  0  0  0  0  0  0  0
   60.5815   26.0924   48.9816 H   0  0  0  0  0  0  0  0  0  0  0  0
   61.6156   26.6706   47.5996 H   0  0  0  0  0  0  0  0  0  0  0  0
   59.9415   28.1992   49.5020 H   0  0  0  0  0  0  0  0  0  0  0  0
   61.3731   28.6917   48.4704 H   0  0  0  0  0  0  0  0  0  0  0  0
   58.4139   28.7168   47.7337 H   0  0  0  0  0  0  0  0  0  0  0  0
   62.9811   32.1255   46.1902 H   0  0  0  0  0  0  0  0  0  0  0  0
   64.3613   33.8584   47.3484 H   0  0  0  0  0  0  0  0  0  0  0  0
   63.6133   34.7723   49.5527 H   0  0  0  0  0  0  0  0  0  0  0  0
   61.4975   33.9275   50.5792 H   0  0  0  0  0  0  0  0  0  0  0  0
   60.1980   32.2720   49.4090 H   0  0  0  0  0  0  0  0  0  0  0  0
  1  2  2  0
  2  3  1  0
  3  4  1  0
  4  5  1  0
  5  6  1  0
  6  7  2  0
  7  8  1  0
  8  9  2  0
  9 10  1  0
 10 11  2  0
  2 12  1  0
 12 13  2  0
 12 14  1  0
 14 15  1  0
 15 16  1  0
 16 17  1  0
 17 18  1  0
 18 19  1  0
 19 20  1  0
 20 21  1  0
 21 22  2  0
 21 23  1  0
 23 24  2  3
 24 25  1  0
 25 26  2  0
 26 27  1  0
 27 28  2  0
 28 29  1  0
 11  6  1  0
 20 15  1  0
 29 24  1  0
  5 30  1  0
  5 31  1  0
  7 32  1  0
  8 33  1  0
  9 34  1  0
 10 35  1  0
 11 36  1  0
 15 37  1  6
 16 38  1  0
 16 39  1  0
 17 40  1  0
 17 41  1  0
 18 42  1  0
 18 43  1  0
 19 44  1  0
 19 45  1  0
 20 46  1  1
 25 47  1  0
 26 48  1  0
 27 49  1  0
 28 50  1  0
 29 51  1  0
M  CHG  2   3  -1  14  -1
M  END
>  <UniqueID>  (24) 
24

>  <SMILES>  (24) 
O=C([N-]OCc1ccccc1)C(=O)[N-][C@@H]1CCCC[C@H]1C(=O)N=c1cccc[nH]1

>  <Energy>  (24) 
62.263550420906796

>  <Genealogy>  (24) 
O=C([N-]OCc1ccccc1)C(=O)[N-]C1CCCCC1C(=O)N=c1cccc[nH]1 (protonated)
O=C([N-]OCc1ccccc1)C(=O)[N-][C@@H]1CCCC[C@H]1C(=O)N=c1cccc[nH]1 (chirality)
O=C([N-]OCc1ccccc1)C(=O)[N-][C@@H]1CCCC[C@H]1C(=O)N=c1cccc[nH]1 (3D coordinates assigned)
O=C([N-]OCc1ccccc1)C(=O)[N-][C@@H]1CCCC[C@H]1C(=O)N=c1cccc[nH]1 (nonaromatic ring conformer: 62.263550420906796 kcal/mol)

>  <smiles>  (24) 
O=C(NOCc1ccccc1)C(=O)NC1CCCCC1C(=O)N=c1cccc[nH]1

>  <score_type>  (24) 
oracle

>  <origin>  (24) 
adg

>  <m_score__min__energy>  (24) 
-11.98

>  <m_primary>  (24) 
energy

$$$$
24:0
     RDKit          3D

 62 65  0  0  0  0  0  0  0  0999 V2000
   55.3020   29.8950   52.3960 C   0  0  0  0  0  0  0  0  0  0  0  0
   56.8220   29.9280   52.5420 C   0  0  0  0  0  0  0  0  0  0  0  0
   57.3430   31.3020   52.8870 C   0  0  0  0  0  0  0  0  0  0  0  0
   57.0520   31.8110   54.0050 O   0  0  0  0  0  0  0  0  0  0  0  0
   58.1530   32.0540   51.9580 N   0  0  0  0  0  0  0  0  0  0  0  0
   59.0610   33.0840   52.4900 C   0  0  0  0  0  0  0  0  0  0  0  0
   59.8490   33.7880   51.3770 C   0  0  0  0  0  0  0  0  0  0  0  0
   60.3250   32.8060   50.3980 N   0  0  0  0  0  0  0  0  0  0  0  0
   61.6560   32.9110   49.8780 C   0  0  0  0  0  0  0  0  0  0  0  0
   62.6790   32.1340   50.4400 C   0  0  0  0  0  0  0  0  0  0  0  0
   63.9790   32.2100   49.9340 C   0  0  0  0  0  0  0  0  0  0  0  0
   64.2660   33.0710   48.8720 C   0  0  0  0  0  0  0  0  0  0  0  0
   63.2550   33.8560   48.3140 C   0  0  0  0  0  0  0  0  0  0  0  0
   61.9370   33.7690   48.7990 C   0  0  0  0  0  0  0  0  0  0  0  0
   60.8880   34.5850   48.2550 N   0  0  0  0  0  0  0  0  0  0  0  0
   60.0040   34.2120   47.1890 C   0  0  0  0  0  0  0  0  0  0  0  0
   59.4320   35.1200   46.5300 O   0  0  0  0  0  0  0  0  0  0  0  0
   59.7190   32.7940   46.8740 C   0  0  0  0  0  0  0  0  0  0  0  0
   60.7660   31.8690   46.7220 C   0  0  0  0  0  0  0  0  0  0  0  0
   60.4920   30.5410   46.3880 C   0  0  0  0  0  0  0  0  0  0  0  0
   59.1700   30.1210   46.1930 C   0  0  0  0  0  0  0  0  0  0  0  0
   58.8910   28.7250   45.8110 C   0  0  0  0  0  0  0  0  0  0  0  0
   59.5580   27.7000   46.5010 C   0  0  0  0  0  0  0  0  0  0  0  0
   59.3240   26.3620   46.1800 C   0  0  0  0  0  0  0  0  0  0  0  0
   58.4260   26.0340   45.1650 C   0  0  0  0  0  0  0  0  0  0  0  0
   57.7630   27.0420   44.4630 C   0  0  0  0  0  0  0  0  0  0  0  0
   57.9880   28.3950   44.7690 C   0  0  0  0  0  0  0  0  0  0  0  0
   57.1530   29.6380   43.8150 S   0  0  0  0  0  0  0  0  0  0  0  0
   56.5660   28.9830   42.3240 N   0  0  0  0  0  0  0  0  0  0  0  0
   55.9750   30.1670   44.5850 O   0  0  0  0  0  0  0  0  0  0  0  0
   58.0910   30.7780   43.5360 O   0  0  0  0  0  0  0  0  0  0  0  0
   58.1190   31.0290   46.3880 C   0  0  0  0  0  0  0  0  0  0  0  0
   58.3920   32.3570   46.7270 C   0  0  0  0  0  0  0  0  0  0  0  0
   59.4340   31.7580   49.8840 C   0  0  0  0  0  0  0  0  0  0  0  0
   58.0380   31.8690   50.5030 C   0  0  0  0  0  0  0  0  0  0  0  0
   54.8380   29.8849   53.3933 H   0  0  0  0  0  0  0  0  0  0  0  0
   54.9672   30.7861   51.8448 H   0  0  0  0  0  0  0  0  0  0  0  0
   55.0061   28.9902   51.8448 H   0  0  0  0  0  0  0  0  0  0  0  0
   57.1144   29.2298   53.3402 H   0  0  0  0  0  0  0  0  0  0  0  0
   57.2558   29.6412   51.5727 H   0  0  0  0  0  0  0  0  0  0  0  0
   58.4675   33.8339   53.0335 H   0  0  0  0  0  0  0  0  0  0  0  0
   59.7831   32.5885   53.1556 H   0  0  0  0  0  0  0  0  0  0  0  0
   59.1961   34.5163   50.8738 H   0  0  0  0  0  0  0  0  0  0  0  0
   60.7141   34.3037   51.8193 H   0  0  0  0  0  0  0  0  0  0  0  0
   62.4572   31.4622   51.2823 H   0  0  0  0  0  0  0  0  0  0  0  0
   64.7766   31.5918   50.3718 H   0  0  0  0  0  0  0  0  0  0  0  0
   65.2900   33.1306   48.4747 H   0  0  0  0  0  0  0  0  0  0  0  0
   63.4902   34.5464   47.4906 H   0  0  0  0  0  0  0  0  0  0  0  0
   61.8072   32.1928   46.8669 H   0  0  0  0  0  0  0  0  0  0  0  0
   61.3173   29.8222   46.2776 H   0  0  0  0  0  0  0  0  0  0  0  0
   60.2700   27.9533   47.3003 H   0  0  0  0  0  0  0  0  0  0  0  0
   59.8485   25.5655   46.7282 H   0  0  0  0  0  0  0  0  0  0  0  0
   58.2396   24.9787   44.9170 H   0  0  0  0  0  0  0  0  0  0  0  0
   57.0575   26.7747   43.6625 H   0  0  0  0  0  0  0  0  0  0  0  0
   56.6220   27.9420   42.3900 H   0  0  0  0  0  0  0  0  0  0  0  0
   55.5560   29.2370   42.2430 H   0  0  0  0  0  0  0  0  0  0  0  0
   57.0772   30.6950   46.2738 H   0  0  0  0  0  0  0  0  0  0  0  0
   57.5632   33.0640   46.8796 H   0  0  0  0  0  0  0  0  0  0  0  0
   59.3519   31.8601   48.7918 H   0  0  0  0  0  0  0  0  0  0  0  0
   59.8572   30.7781   50.1500 H   0  0  0  0  0  0  0  0  0  0  0  0
   57.5117   32.7302   50.0656 H   0  0  0  0  0  0  0  0  0  0  0  0
   57.4742   30.9473   50.2968 H   0  0  0  0  0  0  0  0  0  0  0  0
  1  2  1  0
  2  3  1  0
  3  4  2  0
  3  5  1  0
  5  6  1  0
  6  7  1  0
  7  8  1  0
  8  9  1  0
  9 10  2  0
 10 11  1  0
 11 12  2  0
 12 13  1  0
 13 14  2  0
 14 15  1  0
 15 16  1  0
 16 17  2  0
 16 18  1  0
 18 19  2  0
 19 20  1  0
 20 21  2  0
 21 22  1  0
 22 23  2  0
 23 24  1  0
 24 25  2  0
 25 26  1  0
 26 27  2  0
 27 28  1  0
 28 29  1  0
 28 30  2  0
 28 31  2  0
 21 32  1  0
 32 33  2  0
  8 34  1  0
 34 35  1  0
 35  5  1  0
 14  9  1  0
 33 18  1  0
 27 22  1  0
  1 36  1  0
  1 37  1  0
  1 38  1  0
  2 39  1  0
  2 40  1  0
  6 41  1  0
  6 42  1  0
  7 43  1  0
  7 44  1  0
 10 45  1  0
 11 46  1  0
 12 47  1  0
 13 48  1  0
 19 49  1  0
 20 50  1  0
 23 51  1  0
 24 52  1  0
 25 53  1  0
 26 54  1  0
 29 55  1  0
 29 56  1  0
 32 57  1  0
 33 58  1  0
 34 59  1  0
 34 60  1  0
 35 61  1  0
 35 62  1  0
M  CHG  1  15  -1
M  END
>  <UniqueID>  (25) 
25

>  <SMILES>  (25) 
CCC(=O)N1CCN(c2ccccc2[N-]C(=O)c2ccc(-c3ccccc3S(N)(=O)=O)cc2)CC1

>  <Energy>  (25) 
83.14481077310575

>  <Genealogy>  (25) 
CCC(=O)N1CCN(c2ccccc2[N-]C(=O)c2ccc(-c3ccccc3S(N)(=O)=O)cc2)CC1 (protonated)
CCC(=O)N1CCN(c2ccccc2[N-]C(=O)c2ccc(-c3ccccc3S(N)(=O)=O)cc2)CC1 (3D coordinates assigned)
CCC(=O)N1CCN(c2ccccc2[N-]C(=O)c2ccc(-c3ccccc3S(N)(=O)=O)cc2)CC1 (nonaromatic ring conformer: 83.14481077310575 kcal/mol)

>  <smiles>  (25) 
CCC(=O)N1CCN(c2ccccc2NC(=O)c2ccc(-c3ccccc3S(N)(=O)=O)cc2)CC1

>  <score_type>  (25) 
oracle

>  <origin>  (25) 
adg

>  <m_score__min__energy>  (25) 
-10.859999999999999

>  <m_primary>  (25) 
energy

$$$$
25:0
     RDKit          3D

 50 52  0  0  0  0  0  0  0  0999 V2000
   59.8190   27.2270   47.8600 C   0  0  0  0  0  0  0  0  0  0  0  0
   59.0660   28.2550   48.2520 C   0  0  0  0  0  0  0  0  0  0  0  0
   59.3920   29.6780   47.9870 C   0  0  0  0  0  0  0  0  0  0  0  0
   59.2730   30.6830   48.9680 C   0  0  0  0  0  0  0  0  0  0  0  0
   59.6010   32.0080   48.6680 C   0  0  0  0  0  0  0  0  0  0  0  0
   60.0580   32.3540   47.3890 C   0  0  0  0  0  0  0  0  0  0  0  0
   60.4230   33.7830   47.0790 C   0  0  0  0  0  0  0  0  0  0  0  0
   59.2380   34.5540   46.6420 N   0  0  0  0  0  0  0  0  0  0  0  0
   59.2610   34.8780   45.1950 C   0  0  0  0  0  0  0  0  0  0  0  0
   58.9310   33.6570   44.3210 C   0  0  0  0  0  0  0  0  0  0  0  0
   57.7900   32.9150   44.8640 N   0  0  0  0  0  0  0  0  0  0  0  0
   57.3080   31.7490   44.1710 C   0  0  0  0  0  0  0  0  0  0  0  0
   57.3580   31.7040   42.9130 O   0  0  0  0  0  0  0  0  0  0  0  0
   56.7400   30.6430   44.8820 N   0  0  0  0  0  0  0  0  0  0  0  0
   57.2560   29.3060   44.8600 C   0  0  0  0  0  0  0  0  0  0  0  0
   58.4190   29.0360   44.1320 C   0  0  0  0  0  0  0  0  0  0  0  0
   58.9360   27.7400   44.0860 C   0  0  0  0  0  0  0  0  0  0  0  0
   58.3000   26.7050   44.7770 C   0  0  0  0  0  0  0  0  0  0  0  0
   57.1420   26.9600   45.5330 C   0  0  0  0  0  0  0  0  0  0  0  0
   56.4660   25.8780   46.2880 C   0  0  0  0  0  0  0  0  0  0  0  0
   57.2110   24.9310   47.0590 N   0  0  0  0  0  0  0  0  0  0  0  0
   55.2110   25.7750   46.2430 O   0  0  0  0  0  0  0  0  0  0  0  0
   56.6370   28.2720   45.5840 C   0  0  0  0  0  0  0  0  0  0  0  0
   57.0220   33.5020   45.9650 C   0  0  0  0  0  0  0  0  0  0  0  0
   57.9630   33.9350   47.1010 C   0  0  0  0  0  0  0  0  0  0  0  0
   60.1930   31.3560   46.4140 C   0  0  0  0  0  0  0  0  0  0  0  0
   59.8650   30.0300   46.7120 C   0  0  0  0  0  0  0  0  0  0  0  0
   59.5100   26.1978   48.0949 H   0  0  0  0  0  0  0  0  0  0  0  0
   60.7493   27.4081   47.3017 H   0  0  0  0  0  0  0  0  0  0  0  0
   58.1430   28.0338   48.8080 H   0  0  0  0  0  0  0  0  0  0  0  0
   58.9196   30.4227   49.9766 H   0  0  0  0  0  0  0  0  0  0  0  0
   59.4998   32.7844   49.4407 H   0  0  0  0  0  0  0  0  0  0  0  0
   60.8424   34.2504   47.9821 H   0  0  0  0  0  0  0  0  0  0  0  0
   61.1610   33.7854   46.2633 H   0  0  0  0  0  0  0  0  0  0  0  0
   58.5199   35.6663   44.9967 H   0  0  0  0  0  0  0  0  0  0  0  0
   60.2778   35.2110   44.9397 H   0  0  0  0  0  0  0  0  0  0  0  0
   58.6871   33.9980   43.3040 H   0  0  0  0  0  0  0  0  0  0  0  0
   59.8063   32.9910   44.3048 H   0  0  0  0  0  0  0  0  0  0  0  0
   58.9287   29.8483   43.5932 H   0  0  0  0  0  0  0  0  0  0  0  0
   59.8464   27.5329   43.5043 H   0  0  0  0  0  0  0  0  0  0  0  0
   58.7078   25.6845   44.7292 H   0  0  0  0  0  0  0  0  0  0  0  0
   56.7090   24.2070   47.6190 H   0  0  0  0  0  0  0  0  0  0  0  0
   58.2520   24.8840   47.0130 H   0  0  0  0  0  0  0  0  0  0  0  0
   55.7496   28.4909   46.1960 H   0  0  0  0  0  0  0  0  0  0  0  0
   56.4712   34.3797   45.5957 H   0  0  0  0  0  0  0  0  0  0  0  0
   56.3180   32.7500   46.3508 H   0  0  0  0  0  0  0  0  0  0  0  0
   57.4317   34.6663   47.7279 H   0  0  0  0  0  0  0  0  0  0  0  0
   58.2370   33.0205   47.6474 H   0  0  0  0  0  0  0  0  0  0  0  0
   60.5586   31.6173   45.4100 H   0  0  0  0  0  0  0  0  0  0  0  0
   59.9785   29.2545   45.9402 H   0  0  0  0  0  0  0  0  0  0  0  0
  1  2  2  0
  2  3  1  0
  3  4  2  0
  4  5  1  0
  5  6  2  0
  6  7  1  0
  7  8  1  0
  8  9  1  0
  9 10  1  0
 10 11  1  0
 11 12  1  0
 12 13  2  0
 12 14  1  0
 14 15  1  0
 15 16  2  0
 16 17  1  0
 17 18  2  0
 18 19  1  0
 19 20  1  0
 20 21  1  0
 20 22  2  0
 19 23  2  0
 11 24  1  0
 24 25  1  0
  6 26  1  0
 26 27  2  0
 27  3  1  0
 25  8  1  0
 23 15  1  0
  1 28  1  0
  1 29  1  0
  2 30  1  0
  4 31  1  0
  5 32  1  0
  7 33  1  0
  7 34  1  0
  9 35  1  0
  9 36  1  0
 10 37  1  0
 10 38  1  0
 16 39  1  0
 17 40  1  0
 18 41  1  0
 21 42  1  0
 21 43  1  0
 23 44  1  0
 24 45  1  0
 24 46  1  0
 25 47  1  0
 25 48  1  0
 26 49  1  0
 27 50  1  0
M  CHG  1  14  -1
M  END
>  <UniqueID>  (26) 
26

>  <SMILES>  (26) 
C=Cc1ccc(CN2CCN(C(=O)[N-]c3cccc(C(N)=O)c3)CC2)cc1

>  <Energy>  (26) 
65.66723001882197

>  <Genealogy>  (26) 
C=Cc1ccc(CN2CCN(C(=O)[N-]c3cccc(C(N)=O)c3)CC2)cc1 (protonated)
C=Cc1ccc(CN2CCN(C(=O)[N-]c3cccc(C(N)=O)c3)CC2)cc1 (3D coordinates assigned)
C=Cc1ccc(CN2CCN(C(=O)[N-]c3cccc(C(N)=O)c3)CC2)cc1 (nonaromatic ring conformer: 65.66723001882197 kcal/mol)

>  <smiles>  (26) 
C=Cc1ccc(CN2CCN(C(=O)Nc3cccc(C(N)=O)c3)CC2)cc1

>  <score_type>  (26) 
oracle

>  <origin>  (26) 
adg

>  <m_score__min__energy>  (26) 
-10.16

>  <m_primary>  (26) 
energy

$$$$
26:0
     RDKit          3D

 55 57  0  0  0  0  0  0  0  0999 V2000
   55.4140   29.3510   44.8340 O   0  0  0  0  0  0  0  0  0  0  0  0
   56.6360   29.4100   45.1270 C   0  0  0  0  0  0  0  0  0  0  0  0
   57.2070   30.6450   45.5720 N   0  0  0  0  0  0  0  0  0  0  0  0
   58.2540   31.3690   44.8570 C   0  0  0  0  0  0  0  0  0  0  0  0
   57.6460   32.3730   43.8690 C   0  0  0  0  0  0  0  0  0  0  0  0
   57.8080   33.7640   44.3490 N   0  0  0  0  0  0  0  0  0  0  0  0
   56.9990   34.0230   45.5580 C   0  0  0  0  0  0  0  0  0  0  0  0
   57.6690   33.4390   46.8110 C   0  0  0  0  0  0  0  0  0  0  0  0
   59.0710   33.9010   46.9980 N   0  0  0  0  0  0  0  0  0  0  0  0
   59.9970   32.7880   47.2980 C   0  0  0  0  0  0  0  0  0  0  0  0
   60.9580   33.1650   48.4090 C   0  0  0  0  0  0  0  0  0  0  0  0
   60.5370   33.0910   49.7580 C   0  0  0  0  0  0  0  0  0  0  0  0
   58.9030   32.5970   50.1970 Cl  0  0  0  0  0  0  0  0  0  0  0  0
   61.4230   33.4190   50.7910 C   0  0  0  0  0  0  0  0  0  0  0  0
   62.7230   33.8260   50.5020 C   0  0  0  0  0  0  0  0  0  0  0  0
   63.1490   33.9100   49.1790 C   0  0  0  0  0  0  0  0  0  0  0  0
   62.2820   33.5840   48.1290 C   0  0  0  0  0  0  0  0  0  0  0  0
   62.9100   33.7190   46.4870 Cl  0  0  0  0  0  0  0  0  0  0  0  0
   59.5710   34.7430   45.8880 C   0  0  0  0  0  0  0  0  0  0  0  0
   59.2410   34.1390   44.5110 C   0  0  0  0  0  0  0  0  0  0  0  0
   57.4930   28.2120   45.0320 C   0  0  0  0  0  0  0  0  0  0  0  0
   57.6090   27.6420   43.9150 O   0  0  0  0  0  0  0  0  0  0  0  0
   58.2020   27.6600   46.1540 N   0  0  0  0  0  0  0  0  0  0  0  0
   57.7740   26.5570   47.0120 C   0  0  0  0  0  0  0  0  0  0  0  0
   57.1750   25.4340   46.1970 C   0  0  0  0  0  0  0  0  0  0  0  0
   57.9350   24.2780   45.9500 C   0  0  0  0  0  0  0  0  0  0  0  0
   57.4010   23.2240   45.2080 C   0  0  0  0  0  0  0  0  0  0  0  0
   56.0970   23.3030   44.7180 C   0  0  0  0  0  0  0  0  0  0  0  0
   55.3240   24.4360   44.9740 C   0  0  0  0  0  0  0  0  0  0  0  0
   55.8500   25.5000   45.7210 C   0  0  0  0  0  0  0  0  0  0  0  0
   55.0570   26.6150   45.9890 O   0  0  0  0  0  0  0  0  0  0  0  0
   58.8780   31.9106   45.5831 H   0  0  0  0  0  0  0  0  0  0  0  0
   58.8615   30.6449   44.2943 H   0  0  0  0  0  0  0  0  0  0  0  0
   58.1492   32.2685   42.8964 H   0  0  0  0  0  0  0  0  0  0  0  0
   56.5708   32.1607   43.7751 H   0  0  0  0  0  0  0  0  0  0  0  0
   56.8834   35.1094   45.6863 H   0  0  0  0  0  0  0  0  0  0  0  0
   56.0186   33.5407   45.4307 H   0  0  0  0  0  0  0  0  0  0  0  0
   57.0823   33.7380   47.6922 H   0  0  0  0  0  0  0  0  0  0  0  0
   57.6999   32.3467   46.6849 H   0  0  0  0  0  0  0  0  0  0  0  0
   59.4138   31.9089   47.6097 H   0  0  0  0  0  0  0  0  0  0  0  0
   60.5793   32.5628   46.3924 H   0  0  0  0  0  0  0  0  0  0  0  0
   61.0902   33.3548   51.8375 H   0  0  0  0  0  0  0  0  0  0  0  0
   63.4137   34.0813   51.3192 H   0  0  0  0  0  0  0  0  0  0  0  0
   64.1760   34.2354   48.9567 H   0  0  0  0  0  0  0  0  0  0  0  0
   59.1066   35.7376   45.9599 H   0  0  0  0  0  0  0  0  0  0  0  0
   60.6655   34.8071   45.9770 H   0  0  0  0  0  0  0  0  0  0  0  0
   59.4961   34.8783   43.7374 H   0  0  0  0  0  0  0  0  0  0  0  0
   59.8280   33.2135   44.4170 H   0  0  0  0  0  0  0  0  0  0  0  0
   58.6439   26.1744   47.5659 H   0  0  0  0  0  0  0  0  0  0  0  0
   57.0076   26.9318   47.7064 H   0  0  0  0  0  0  0  0  0  0  0  0
   58.9590   24.2035   46.3448 H   0  0  0  0  0  0  0  0  0  0  0  0
   58.0091   22.3292   45.0090 H   0  0  0  0  0  0  0  0  0  0  0  0
   55.6787   22.4726   44.1303 H   0  0  0  0  0  0  0  0  0  0  0  0
   54.2958   24.4950   44.5876 H   0  0  0  0  0  0  0  0  0  0  0  0
   55.1440   27.4690   45.4510 H   0  0  0  0  0  0  0  0  0  0  0  0
  1  2  2  0
  2  3  1  0
  3  4  1  0
  4  5  1  0
  5  6  1  0
  6  7  1  0
  7  8  1  0
  8  9  1  0
  9 10  1  0
 10 11  1  0
 11 12  2  0
 12 13  1  0
 12 14  1  0
 14 15  2  0
 15 16  1  0
 16 17  2  0
 17 18  1  0
  9 19  1  0
 19 20  1  0
  2 21  1  0
 21 22  2  0
 21 23  1  0
 23 24  1  0
 24 25  1  0
 25 26  2  0
 26 27  1  0
 27 28  2  0
 28 29  1  0
 29 30  2  0
 30 31  1  0
 20  6  1  0
 30 25  1  0
 17 11  1  0
  4 32  1  0
  4 33  1  0
  5 34  1  0
  5 35  1  0
  7 36  1  0
  7 37  1  0
  8 38  1  0
  8 39  1  0
 10 40  1  0
 10 41  1  0
 14 42  1  0
 15 43  1  0
 16 44  1  0
 19 45  1  0
 19 46  1  0
 20 47  1  0
 20 48  1  0
 24 49  1  0
 24 50  1  0
 26 51  1  0
 27 52  1  0
 28 53  1  0
 29 54  1  0
 31 55  1  0
M  CHG  2   3  -1  23  -1
M  END
>  <UniqueID>  (27) 
27

>  <SMILES>  (27) 
O=C([N-]CCN1CCN(Cc2c(Cl)cccc2Cl)CC1)C(=O)[N-]Cc1ccccc1O

>  <Energy>  (27) 
71.43079638637683

>  <Genealogy>  (27) 
O=C([N-]CCN1CCN(Cc2c(Cl)cccc2Cl)CC1)C(=O)[N-]Cc1ccccc1O (protonated)
O=C([N-]CCN1CCN(Cc2c(Cl)cccc2Cl)CC1)C(=O)[N-]Cc1ccccc1O (3D coordinates assigned)
O=C([N-]CCN1CCN(Cc2c(Cl)cccc2Cl)CC1)C(=O)[N-]Cc1ccccc1O (nonaromatic ring conformer: 71.43079638637683 kcal/mol)

>  <smiles>  (27) 
O=C(NCCN1CCN(Cc2c(Cl)cccc2Cl)CC1)C(=O)NCc1ccccc1O

>  <score_type>  (27) 
oracle

>  <origin>  (27) 
adg

>  <m_score__min__energy>  (27) 
-13.380000000000001

>  <m_primary>  (27) 
energy

$$$$
27:0
     RDKit          3D

 55 57  0  0  0  0  0  0  0  0999 V2000
   59.2870   35.2060   45.4070 C   0  0  0  0  0  0  0  0  0  0  0  0
   58.6280   33.9020   45.0460 C   0  0  0  0  0  0  0  0  0  0  0  0
   58.6590   33.4680   43.7110 C   0  0  0  0  0  0  0  0  0  0  0  0
   58.0690   32.2560   43.3460 C   0  0  0  0  0  0  0  0  0  0  0  0
   57.4450   31.4550   44.3080 C   0  0  0  0  0  0  0  0  0  0  0  0
   56.6670   29.9450   43.8310 S   0  0  0  0  0  0  0  0  0  0  0  0
   55.5380   29.6610   44.7850 O   0  0  0  0  0  0  0  0  0  0  0  0
   56.1070   30.0790   42.4410 O   0  0  0  0  0  0  0  0  0  0  0  0
   57.7960   28.6210   43.8850 N   0  0  0  0  0  0  0  0  0  0  0  0
   58.1030   28.2180   45.2630 C   0  0  0  0  0  0  0  0  0  0  0  0
   59.4530   28.6860   45.7210 C   0  0  0  0  0  0  0  0  0  0  0  0
   60.2540   29.2170   44.9050 O   0  0  0  0  0  0  0  0  0  0  0  0
   59.8300   28.4980   47.0850 N   0  0  0  0  0  0  0  0  0  0  0  0
   60.7390   29.3830   47.8120 C   0  0  0  0  0  0  0  0  0  0  0  0
   60.3180   30.8710   47.6570 C   0  0  2  0  0  0  0  0  0  0  0  0
   61.4850   31.7880   47.3890 C   0  0  0  0  0  0  0  0  0  0  0  0
   61.3900   33.0170   46.7500 C   0  0  0  0  0  0  0  0  0  0  0  0
   62.5910   33.7300   46.7230 C   0  0  0  0  0  0  0  0  0  0  0  0
   63.6470   33.0710   47.3430 C   0  0  0  0  0  0  0  0  0  0  0  0
   63.0750   31.6140   47.9500 S   0  0  0  0  0  0  0  0  0  0  0  0
   59.5480   31.3900   48.8130 N   0  0  0  0  0  0  0  0  0  0  0  0
   58.8720   30.3330   49.5890 C   0  0  0  0  0  0  0  0  0  0  0  0
   58.2760   30.9070   50.8870 C   0  0  0  0  0  0  0  0  0  0  0  0
   58.0620   32.2980   50.7630 O   0  0  0  0  0  0  0  0  0  0  0  0
   59.3050   32.9790   50.6730 C   0  0  0  0  0  0  0  0  0  0  0  0
   60.2900   32.3080   49.6960 C   0  0  0  0  0  0  0  0  0  0  0  0
   57.4160   31.8780   45.6410 C   0  0  0  0  0  0  0  0  0  0  0  0
   58.0220   33.0840   46.0270 C   0  0  0  0  0  0  0  0  0  0  0  0
   57.9770   33.4990   47.4750 C   0  0  0  0  0  0  0  0  0  0  0  0
   59.3353   35.3017   46.5018 H   0  0  0  0  0  0  0  0  0  0  0  0
   60.3053   35.2296   44.9915 H   0  0  0  0  0  0  0  0  0  0  0  0
   58.7021   36.0398   44.9915 H   0  0  0  0  0  0  0  0  0  0  0  0
   59.1517   34.0873   42.9470 H   0  0  0  0  0  0  0  0  0  0  0  0
   58.0952   31.9294   42.2959 H   0  0  0  0  0  0  0  0  0  0  0  0
   58.6730   28.9170   43.3960 H   0  0  0  0  0  0  0  0  0  0  0  0
   57.3391   28.6422   45.9312 H   0  0  0  0  0  0  0  0  0  0  0  0
   58.1073   27.1184   45.2922 H   0  0  0  0  0  0  0  0  0  0  0  0
   60.7239   29.1151   48.8788 H   0  0  0  0  0  0  0  0  0  0  0  0
   61.7501   29.2618   47.3960 H   0  0  0  0  0  0  0  0  0  0  0  0
   59.6587   30.8702   46.7765 H   0  0  0  0  0  0  0  0  0  0  0  0
   60.4566   33.3939   46.3066 H   0  0  0  0  0  0  0  0  0  0  0  0
   62.6920   34.7203   46.2550 H   0  0  0  0  0  0  0  0  0  0  0  0
   64.6799   33.4409   47.4221 H   0  0  0  0  0  0  0  0  0  0  0  0
   58.0638   29.8999   48.9813 H   0  0  0  0  0  0  0  0  0  0  0  0
   59.6096   29.5599   49.8504 H   0  0  0  0  0  0  0  0  0  0  0  0
   57.3166   30.4107   51.0947 H   0  0  0  0  0  0  0  0  0  0  0  0
   58.9827   30.7289   51.7110 H   0  0  0  0  0  0  0  0  0  0  0  0
   59.1173   34.0073   50.3304 H   0  0  0  0  0  0  0  0  0  0  0  0
   59.7655   32.9565   51.6717 H   0  0  0  0  0  0  0  0  0  0  0  0
   60.7890   33.0784   49.0898 H   0  0  0  0  0  0  0  0  0  0  0  0
   61.0462   31.7449   50.2626 H   0  0  0  0  0  0  0  0  0  0  0  0
   56.9118   31.2576   46.3966 H   0  0  0  0  0  0  0  0  0  0  0  0
   58.0735   32.6093   48.1146 H   0  0  0  0  0  0  0  0  0  0  0  0
   58.8053   34.1921   47.6837 H   0  0  0  0  0  0  0  0  0  0  0  0
   57.0194   33.9985   47.6837 H   0  0  0  0  0  0  0  0  0  0  0  0
  1  2  1  0
  2  3  2  0
  3  4  1  0
  4  5  2  0
  5  6  1  0
  6  7  2  0
  6  8  2  0
  6  9  1  0
  9 10  1  0
 10 11  1  0
 11 12  2  0
 11 13  1  0
 13 14  1  0
 14 15  1  0
 15 16  1  0
 16 17  2  0
 17 18  1  0
 18 19  2  0
 19 20  1  0
 15 21  1  0
 21 22  1  0
 22 23  1  0
 23 24  1  0
 24 25  1  0
 25 26  1  0
  5 27  1  0
 27 28  2  0
 28 29  1  0
 28  2  1  0
 20 16  1  0
 26 21  1  0
  1 30  1  0
  1 31  1  0
  1 32  1  0
  3 33  1  0
  4 34  1  0
  9 35  1  0
 10 36  1  0
 10 37  1  0
 14 38  1  0
 14 39  1  0
 15 40  1  6
 17 41  1  0
 18 42  1  0
 19 43  1  0
 22 44  1  0
 22 45  1  0
 23 46  1  0
 23 47  1  0
 25 48  1  0
 25 49  1  0
 26 50  1  0
 26 51  1  0
 27 52  1  0
 29 53  1  0
 29 54  1  0
 29 55  1  0
M  CHG  1  13  -1
M  END
>  <UniqueID>  (28) 
28

>  <SMILES>  (28) 
Cc1ccc(S(=O)(=O)NCC(=O)[N-]C[C@H](c2cccs2)N2CCOCC2)cc1C

>  <Energy>  (28) 
92.01602377958832

>  <Genealogy>  (28) 
Cc1ccc(S(=O)(=O)NCC(=O)[N-]CC(c2cccs2)N2CCOCC2)cc1C (protonated)
Cc1ccc(S(=O)(=O)NCC(=O)[N-]C[C@H](c2cccs2)N2CCOCC2)cc1C (chirality)
Cc1ccc(S(=O)(=O)NCC(=O)[N-]C[C@H](c2cccs2)N2CCOCC2)cc1C (3D coordinates assigned)
Cc1ccc(S(=O)(=O)NCC(=O)[N-]C[C@H](c2cccs2)N2CCOCC2)cc1C (nonaromatic ring conformer: 92.01602377958832 kcal/mol)

>  <smiles>  (28) 
Cc1ccc(S(=O)(=O)NCC(=O)NCC(c2cccs2)N2CCOCC2)cc1C

>  <score_type>  (28) 
oracle

>  <origin>  (28) 
adg

>  <m_score__min__energy>  (28) 
-11.279999999999999

>  <m_primary>  (28) 
energy

$$$$
28:0
     RDKit          3D

 52 55  0  0  0  0  0  0  0  0999 V2000
   58.4470   33.2450   44.2320 C   0  0  0  0  0  0  0  0  0  0  0  0
   58.9400   33.2250   45.4780 C   0  0  0  0  0  0  0  0  0  0  0  0
   59.0900   34.4290   46.0870 N   0  0  0  0  0  0  0  0  0  0  0  0
   59.3870   34.5610   47.4000 C   0  0  0  0  0  0  0  0  0  0  0  0
   59.4930   33.4340   48.2130 C   0  0  0  0  0  0  0  0  0  0  0  0
   59.8090   33.6230   49.6460 C   0  0  0  0  0  0  0  0  0  0  0  0
   58.8790   33.5300   50.4940 O   0  0  0  0  0  0  0  0  0  0  0  0
   61.1640   33.8280   50.0960 N   0  0  0  0  0  0  0  0  0  0  0  0
   61.5390   33.3940   51.4510 C   0  0  0  0  0  0  0  0  0  0  0  0
   63.0140   33.6800   51.7450 C   0  0  0  0  0  0  0  0  0  0  0  0
   63.8330   33.3040   50.5840 N   0  0  0  0  0  0  0  0  0  0  0  0
   64.9360   32.3880   50.7270 C   0  0  0  0  0  0  0  0  0  0  0  0
   64.7110   31.0600   51.1330 C   0  0  0  0  0  0  0  0  0  0  0  0
   65.7810   30.1680   51.2570 C   0  0  0  0  0  0  0  0  0  0  0  0
   67.0820   30.5920   50.9730 C   0  0  0  0  0  0  0  0  0  0  0  0
   67.3150   31.9070   50.5630 C   0  0  0  0  0  0  0  0  0  0  0  0
   66.2470   32.8020   50.4360 C   0  0  0  0  0  0  0  0  0  0  0  0
   63.4760   33.8090   49.2490 C   0  0  0  0  0  0  0  0  0  0  0  0
   62.1390   34.5600   49.2710 C   0  0  0  0  0  0  0  0  0  0  0  0
   59.3640   32.1550   47.6310 C   0  0  0  0  0  0  0  0  0  0  0  0
   59.4290   31.0050   48.4280 O   0  0  0  0  0  0  0  0  0  0  0  0
   59.1820   32.0250   46.2260 C   0  0  0  0  0  0  0  0  0  0  0  0
   59.2660   30.7790   45.6820 C   0  0  0  0  0  0  0  0  0  0  0  0
   58.2070   29.7460   45.6930 C   0  0  0  0  0  0  0  0  0  0  0  0
   58.4750   28.4920   46.2610 C   0  0  0  0  0  0  0  0  0  0  0  0
   57.5030   27.4860   46.2420 C   0  0  0  0  0  0  0  0  0  0  0  0
   56.2650   27.7180   45.6350 C   0  0  0  0  0  0  0  0  0  0  0  0
   55.3030   26.7160   45.6220 O   0  0  0  0  0  0  0  0  0  0  0  0
   56.0000   28.9570   45.0370 C   0  0  0  0  0  0  0  0  0  0  0  0
   54.7760   29.1870   44.4210 O   0  0  0  0  0  0  0  0  0  0  0  0
   56.9710   29.9630   45.0550 C   0  0  0  0  0  0  0  0  0  0  0  0
   58.3011   32.3030   43.6831 H   0  0  0  0  0  0  0  0  0  0  0  0
   58.1883   34.2034   43.7582 H   0  0  0  0  0  0  0  0  0  0  0  0
   59.5455   35.5619   47.8278 H   0  0  0  0  0  0  0  0  0  0  0  0
   60.9181   33.9315   52.1829 H   0  0  0  0  0  0  0  0  0  0  0  0
   61.3777   32.3082   51.5221 H   0  0  0  0  0  0  0  0  0  0  0  0
   63.1442   34.7524   51.9523 H   0  0  0  0  0  0  0  0  0  0  0  0
   63.3313   33.0933   52.6197 H   0  0  0  0  0  0  0  0  0  0  0  0
   63.6880   30.7214   51.3541 H   0  0  0  0  0  0  0  0  0  0  0  0
   65.5984   29.1319   51.5783 H   0  0  0  0  0  0  0  0  0  0  0  0
   67.9230   29.8900   51.0723 H   0  0  0  0  0  0  0  0  0  0  0  0
   68.3396   32.2393   50.3397 H   0  0  0  0  0  0  0  0  0  0  0  0
   66.4345   33.8347   50.1068 H   0  0  0  0  0  0  0  0  0  0  0  0
   64.2647   34.4933   48.9031 H   0  0  0  0  0  0  0  0  0  0  0  0
   63.3777   32.9493   48.5698 H   0  0  0  0  0  0  0  0  0  0  0  0
   62.2922   35.5642   49.6930 H   0  0  0  0  0  0  0  0  0  0  0  0
   61.7538   34.6418   48.2439 H   0  0  0  0  0  0  0  0  0  0  0  0
   59.2930   31.0120   49.4310 H   0  0  0  0  0  0  0  0  0  0  0  0
   60.2123   30.5155   45.1869 H   0  0  0  0  0  0  0  0  0  0  0  0
   59.4541   28.2985   46.7236 H   0  0  0  0  0  0  0  0  0  0  0  0
   57.7131   26.5108   46.7054 H   0  0  0  0  0  0  0  0  0  0  0  0
   56.7681   30.9284   44.5684 H   0  0  0  0  0  0  0  0  0  0  0  0
  1  2  2  0
  2  3  1  0
  3  4  2  0
  4  5  1  0
  5  6  1  0
  6  7  2  0
  6  8  1  0
  8  9  1  0
  9 10  1  0
 10 11  1  0
 11 12  1  0
 12 13  2  0
 13 14  1  0
 14 15  2  0
 15 16  1  0
 16 17  2  0
 11 18  1  0
 18 19  1  0
  5 20  2  0
 20 21  1  0
 20 22  1  0
 22 23  2  3
 23 24  1  0
 24 25  2  0
 25 26  1  0
 26 27  2  0
 27 28  1  0
 27 29  1  0
 29 30  1  0
 29 31  2  0
 22  2  1  0
 31 24  1  0
 19  8  1  0
 17 12  1  0
  1 32  1  0
  1 33  1  0
  4 34  1  0
  9 35  1  0
  9 36  1  0
 10 37  1  0
 10 38  1  0
 13 39  1  0
 14 40  1  0
 15 41  1  0
 16 42  1  0
 17 43  1  0
 18 44  1  0
 18 45  1  0
 19 46  1  0
 19 47  1  0
 21 48  1  0
 23 49  1  0
 25 50  1  0
 26 51  1  0
 31 52  1  0
M  CHG  2  28  -1  30  -1
M  END
>  <UniqueID>  (29) 
29

>  <SMILES>  (29) 
C=c1ncc(C(=O)N2CCN(c3ccccc3)CC2)c(O)c1=Cc1ccc([O-])c([O-])c1

>  <Energy>  (29) 
91.32904808593848

>  <Genealogy>  (29) 
C=c1ncc(C(=O)N2CCN(c3ccccc3)CC2)c(O)c1=Cc1ccc([O-])c([O-])c1 (protonated)
C=c1ncc(C(=O)N2CCN(c3ccccc3)CC2)c(O)c1=Cc1ccc([O-])c([O-])c1 (3D coordinates assigned)
C=c1ncc(C(=O)N2CCN(c3ccccc3)CC2)c(O)c1=Cc1ccc([O-])c([O-])c1 (nonaromatic ring conformer: 91.32904808593848 kcal/mol)

>  <smiles>  (29) 
C=c1ncc(C(=O)N2CCN(c3ccccc3)CC2)c(O)c1=Cc1ccc(O)c(O)c1

>  <score_type>  (29) 
oracle

>  <origin>  (29) 
adg

>  <m_score__min__energy>  (29) 
-16.309999999999999

>  <m_primary>  (29) 
energy

$$$$
29:0
     RDKit          3D

 63 66  0  0  0  0  0  0  0  0999 V2000
   66.1540   32.8320   49.7810 C   0  0  0  0  0  0  0  0  0  0  0  0
   64.9620   32.1580   50.3950 C   0  0  0  0  0  0  0  0  0  0  0  0
   65.0370   31.7980   51.6010 O   0  0  0  0  0  0  0  0  0  0  0  0
   63.7510   31.9000   49.6450 N   0  0  0  0  0  0  0  0  0  0  0  0
   63.6910   32.0530   48.1790 C   0  0  0  0  0  0  0  0  0  0  0  0
   62.3890   32.7530   47.7720 C   0  0  0  0  0  0  0  0  0  0  0  0
   61.2280   32.2050   48.4900 N   0  0  0  0  0  0  0  0  0  0  0  0
   59.9640   32.8880   48.4160 C   0  0  0  0  0  0  0  0  0  0  0  0
   59.3430   33.1580   49.4810 O   0  0  0  0  0  0  0  0  0  0  0  0
   59.3730   33.2770   47.1150 C   0  0  0  0  0  0  0  0  0  0  0  0
   59.4680   34.6020   46.6570 C   0  0  0  0  0  0  0  0  0  0  0  0
   58.9350   34.9580   45.4180 C   0  0  0  0  0  0  0  0  0  0  0  0
   58.3130   33.9970   44.6160 C   0  0  0  0  0  0  0  0  0  0  0  0
   58.2270   32.6670   45.0470 C   0  0  0  0  0  0  0  0  0  0  0  0
   57.4410   31.4560   44.0270 S   0  0  0  0  0  0  0  0  0  0  0  0
   57.3860   31.9610   42.6100 O   0  0  0  0  0  0  0  0  0  0  0  0
   56.0340   31.2260   44.5020 O   0  0  0  0  0  0  0  0  0  0  0  0
   58.3430   29.9710   44.0230 N   0  0  0  0  0  0  0  0  0  0  0  0
   58.3140   29.0450   45.1190 C   0  0  0  0  0  0  0  0  0  0  0  0
   59.2590   29.1120   46.1570 C   0  0  0  0  0  0  0  0  0  0  0  0
   59.2500   28.1560   47.1760 C   0  0  0  0  0  0  0  0  0  0  0  0
   58.3070   27.1270   47.1660 C   0  0  0  0  0  0  0  0  0  0  0  0
   57.3450   27.0630   46.1480 C   0  0  0  0  0  0  0  0  0  0  0  0
   56.1920   25.7340   46.0870 S   0  0  0  0  0  0  0  0  0  0  0  0
   56.2890   24.9290   47.3550 O   0  0  0  0  0  0  0  0  0  0  0  0
   54.7960   26.2850   45.9780 O   0  0  0  0  0  0  0  0  0  0  0  0
   56.5660   24.7090   44.7220 N   0  0  0  0  0  0  0  0  0  0  0  0
   55.4880   23.7580   44.4480 C   0  0  0  0  0  0  0  0  0  0  0  0
   56.1330   22.5640   43.7620 C   0  0  0  0  0  0  0  0  0  0  0  0
   57.6100   22.6500   44.1110 C   0  0  0  0  0  0  0  0  0  0  0  0
   57.7440   23.8860   44.9870 C   0  0  0  0  0  0  0  0  0  0  0  0
   57.3400   28.0370   45.1390 C   0  0  0  0  0  0  0  0  0  0  0  0
   58.7510   32.3140   46.3020 C   0  0  0  0  0  0  0  0  0  0  0  0
   61.4050   31.0830   49.4180 C   0  0  0  0  0  0  0  0  0  0  0  0
   62.5760   31.3700   50.3630 C   0  0  0  0  0  0  0  0  0  0  0  0
   66.8146   33.2055   50.5773 H   0  0  0  0  0  0  0  0  0  0  0  0
   66.7026   32.1104   49.1578 H   0  0  0  0  0  0  0  0  0  0  0  0
   65.8185   33.6741   49.1578 H   0  0  0  0  0  0  0  0  0  0  0  0
   64.5478   32.6545   47.8412 H   0  0  0  0  0  0  0  0  0  0  0  0
   63.7238   31.0572   47.7128 H   0  0  0  0  0  0  0  0  0  0  0  0
   62.4750   33.8257   47.9998 H   0  0  0  0  0  0  0  0  0  0  0  0
   62.2343   32.5892   46.6953 H   0  0  0  0  0  0  0  0  0  0  0  0
   59.9648   35.3618   47.2782 H   0  0  0  0  0  0  0  0  0  0  0  0
   59.0045   35.9994   45.0707 H   0  0  0  0  0  0  0  0  0  0  0  0
   57.8895   34.2862   43.6429 H   0  0  0  0  0  0  0  0  0  0  0  0
   59.1420   29.9180   43.3520 H   0  0  0  0  0  0  0  0  0  0  0  0
   60.0070   29.9184   46.1673 H   0  0  0  0  0  0  0  0  0  0  0  0
   59.9887   28.2145   47.9890 H   0  0  0  0  0  0  0  0  0  0  0  0
   58.3186   26.3644   47.9587 H   0  0  0  0  0  0  0  0  0  0  0  0
   55.0095   23.4443   45.3875 H   0  0  0  0  0  0  0  0  0  0  0  0
   54.7096   24.2090   43.8151 H   0  0  0  0  0  0  0  0  0  0  0  0
   55.7023   21.6244   44.1385 H   0  0  0  0  0  0  0  0  0  0  0  0
   55.9673   22.5771   42.6746 H   0  0  0  0  0  0  0  0  0  0  0  0
   57.9290   21.7520   44.6603 H   0  0  0  0  0  0  0  0  0  0  0  0
   58.2408   22.7141   43.2121 H   0  0  0  0  0  0  0  0  0  0  0  0
   57.7763   23.5985   46.0483 H   0  0  0  0  0  0  0  0  0  0  0  0
   58.6715   24.4339   44.7645 H   0  0  0  0  0  0  0  0  0  0  0  0
   56.5662   28.0098   44.3576 H   0  0  0  0  0  0  0  0  0  0  0  0
   58.6737   31.2739   46.6516 H   0  0  0  0  0  0  0  0  0  0  0  0
   60.4856   30.9476   50.0066 H   0  0  0  0  0  0  0  0  0  0  0  0
   61.6168   30.1682   48.8451 H   0  0  0  0  0  0  0  0  0  0  0  0
   62.2547   32.1090   51.1118 H   0  0  0  0  0  0  0  0  0  0  0  0
   62.8683   30.4219   50.8381 H   0  0  0  0  0  0  0  0  0  0  0  0
  1  2  1  0
  2  3  2  0
  2  4  1  0
  4  5  1  0
  5  6  1  0
  6  7  1  0
  7  8  1  0
  8  9  2  0
  8 10  1  0
 10 11  2  0
 11 12  1  0
 12 13  2  0
 13 14  1  0
 14 15  1  0
 15 16  2  0
 15 17  2  0
 15 18  1  0
 18 19  1  0
 19 20  2  0
 20 21  1  0
 21 22  2  0
 22 23  1  0
 23 24  1  0
 24 25  2  0
 24 26  2  0
 24 27  1  0
 27 28  1  0
 28 29  1  0
 29 30  1  0
 30 31  1  0
 23 32  2  0
 14 33  2  0
  7 34  1  0
 34 35  1  0
 35  4  1  0
 33 10  1  0
 32 19  1  0
 31 27  1  0
  1 36  1  0
  1 37  1  0
  1 38  1  0
  5 39  1  0
  5 40  1  0
  6 41  1  0
  6 42  1  0
 11 43  1  0
 12 44  1  0
 13 45  1  0
 18 46  1  0
 20 47  1  0
 21 48  1  0
 22 49  1  0
 28 50  1  0
 28 51  1  0
 29 52  1  0
 29 53  1  0
 30 54  1  0
 30 55  1  0
 31 56  1  0
 31 57  1  0
 32 58  1  0
 33 59  1  0
 34 60  1  0
 34 61  1  0
 35 62  1  0
 35 63  1  0
M  END
>  <UniqueID>  (30) 
30

>  <SMILES>  (30) 
CC(=O)N1CCN(C(=O)c2cccc(S(=O)(=O)Nc3cccc(S(=O)(=O)N4CCCC4)c3)c2)CC1

>  <Energy>  (30) 
75.15220580848663

>  <Genealogy>  (30) 
CC(=O)N1CCN(C(=O)c2cccc(S(=O)(=O)Nc3cccc(S(=O)(=O)N4CCCC4)c3)c2)CC1 (3D coordinates assigned)
CC(=O)N1CCN(C(=O)c2cccc(S(=O)(=O)Nc3cccc(S(=O)(=O)N4CCCC4)c3)c2)CC1 (nonaromatic ring conformer: 75.15220580848663 kcal/mol)

>  <smiles>  (30) 
CC(=O)N1CCN(C(=O)c2cccc(S(=O)(=O)Nc3cccc(S(=O)(=O)N4CCCC4)c3)c2)CC1

>  <score_type>  (30) 
oracle

>  <origin>  (30) 
adg

>  <m_score__min__energy>  (30) 
-11.98

>  <m_primary>  (30) 
energy

$$$$
30:0
     RDKit          3D

 50 53  0  0  0  0  0  0  0  0999 V2000
   57.8780   30.4900   53.1660 C   0  0  0  0  0  0  0  0  0  0  0  0
   58.2570   30.8340   51.7560 C   0  0  0  0  0  0  0  0  0  0  0  0
   58.5750   29.8250   50.8360 C   0  0  0  0  0  0  0  0  0  0  0  0
   58.8990   30.1540   49.5160 C   0  0  0  0  0  0  0  0  0  0  0  0
   58.8860   31.4920   49.0890 C   0  0  0  0  0  0  0  0  0  0  0  0
   59.2280   31.8320   47.6520 C   0  0  0  0  0  0  0  0  0  0  0  0
   59.8660   30.7210   46.9000 N   0  0  0  0  0  0  0  0  0  0  0  0
   59.2750   30.4870   45.5610 C   0  0  0  0  0  0  0  0  0  0  0  0
   58.2000   29.4240   45.6100 C   0  0  0  0  0  0  0  0  0  0  0  0
   58.5310   28.1180   46.0080 C   0  0  0  0  0  0  0  0  0  0  0  0
   57.5460   27.1200   46.0360 C   0  0  0  0  0  0  0  0  0  0  0  0
   57.8040   25.8030   46.4500 C   0  0  0  0  0  0  0  0  0  0  0  0
   58.9570   25.4520   46.8190 O   0  0  0  0  0  0  0  0  0  0  0  0
   56.7960   24.8920   46.4550 N   0  0  0  0  0  0  0  0  0  0  0  0
   55.5390   25.2280   46.0630 C   0  0  0  0  0  0  0  0  0  0  0  0
   54.6250   24.3640   46.0770 O   0  0  0  0  0  0  0  0  0  0  0  0
   55.2680   26.4940   45.6530 N   0  0  0  0  0  0  0  0  0  0  0  0
   56.2370   27.4430   45.6330 C   0  0  0  0  0  0  0  0  0  0  0  0
   55.9450   28.7030   45.2210 N   0  0  0  0  0  0  0  0  0  0  0  0
   56.8800   29.6880   45.1910 C   0  0  0  0  0  0  0  0  0  0  0  0
   56.5500   30.8340   44.7820 O   0  0  0  0  0  0  0  0  0  0  0  0
   61.3430   30.8070   46.8590 C   0  0  0  0  0  0  0  0  0  0  0  0
   61.8250   32.0290   47.6590 C   0  0  2  0  0  0  0  0  0  0  0  0
   62.3000   33.1450   46.7450 C   0  0  0  0  0  0  0  0  0  0  0  0
   63.3290   33.8340   47.5840 C   0  0  0  0  0  0  0  0  0  0  0  0
   63.8210   32.7300   48.5000 C   0  0  0  0  0  0  0  0  0  0  0  0
   62.8810   31.6790   48.5250 O   0  0  0  0  0  0  0  0  0  0  0  0
   58.5730   32.5000   50.0160 C   0  0  0  0  0  0  0  0  0  0  0  0
   58.2500   32.1720   51.3360 C   0  0  0  0  0  0  0  0  0  0  0  0
   58.5072   31.0611   53.8645 H   0  0  0  0  0  0  0  0  0  0  0  0
   56.8208   30.7434   53.3337 H   0  0  0  0  0  0  0  0  0  0  0  0
   58.0281   29.4133   53.3337 H   0  0  0  0  0  0  0  0  0  0  0  0
   58.5696   28.7718   51.1533 H   0  0  0  0  0  0  0  0  0  0  0  0
   59.1664   29.3578   48.8057 H   0  0  0  0  0  0  0  0  0  0  0  0
   58.2993   32.1116   47.1330 H   0  0  0  0  0  0  0  0  0  0  0  0
   59.9598   32.6525   47.6863 H   0  0  0  0  0  0  0  0  0  0  0  0
   58.8334   31.4259   45.1957 H   0  0  0  0  0  0  0  0  0  0  0  0
   60.0723   30.1420   44.8863 H   0  0  0  0  0  0  0  0  0  0  0  0
   59.5645   27.8777   46.2982 H   0  0  0  0  0  0  0  0  0  0  0  0
   61.7727   29.8937   47.2963 H   0  0  0  0  0  0  0  0  0  0  0  0
   61.6681   30.9109   45.8133 H   0  0  0  0  0  0  0  0  0  0  0  0
   60.9633   32.3836   48.2436 H   0  0  0  0  0  0  0  0  0  0  0  0
   62.7439   32.7419   45.8228 H   0  0  0  0  0  0  0  0  0  0  0  0
   61.4914   33.8103   46.4082 H   0  0  0  0  0  0  0  0  0  0  0  0
   64.1477   34.2256   46.9624 H   0  0  0  0  0  0  0  0  0  0  0  0
   62.9316   34.7030   48.1288 H   0  0  0  0  0  0  0  0  0  0  0  0
   64.7846   32.3500   48.1298 H   0  0  0  0  0  0  0  0  0  0  0  0
   63.9477   33.1298   49.5169 H   0  0  0  0  0  0  0  0  0  0  0  0
   58.5821   33.5540   49.7013 H   0  0  0  0  0  0  0  0  0  0  0  0
   57.9889   32.9678   52.0491 H   0  0  0  0  0  0  0  0  0  0  0  0
  1  2  1  0
  2  3  2  0
  3  4  1  0
  4  5  2  0
  5  6  1  0
  6  7  1  0
  7  8  1  0
  8  9  1  0
  9 10  2  0
 10 11  1  0
 11 12  1  0
 12 13  2  0
 12 14  1  0
 14 15  1  0
 15 16  2  0
 15 17  1  0
 17 18  1  0
 18 19  1  0
 19 20  1  0
 20 21  2  0
  7 22  1  0
 22 23  1  0
 23 24  1  0
 24 25  1  0
 25 26  1  0
 26 27  1  0
  5 28  1  0
 28 29  2  0
 29  2  1  0
 20  9  1  0
 27 23  1  0
 18 11  2  0
  1 30  1  0
  1 31  1  0
  1 32  1  0
  3 33  1  0
  4 34  1  0
  6 35  1  0
  6 36  1  0
  8 37  1  0
  8 38  1  0
 10 39  1  0
 22 40  1  0
 22 41  1  0
 23 42  1  1
 24 43  1  0
 24 44  1  0
 25 45  1  0
 25 46  1  0
 26 47  1  0
 26 48  1  0
 28 49  1  0
 29 50  1  0
M  CHG  3  14  -1  17  -1  19  -1
M  END
>  <UniqueID>  (31) 
31

>  <SMILES>  (31) 
Cc1ccc(CN(Cc2cc3c(=O)[n-]c(=O)[n-]c3[n-]c2=O)C[C@@H]2CCCO2)cc1

>  <Energy>  (31) 
63.283705230087755

>  <Genealogy>  (31) 
Cc1ccc(CN(Cc2cc3c(=O)[n-]c(=O)[n-]c3[n-]c2=O)CC2CCCO2)cc1 (protonated)
Cc1ccc(CN(Cc2cc3c(=O)[n-]c(=O)[n-]c3[n-]c2=O)C[C@@H]2CCCO2)cc1 (chirality)
Cc1ccc(CN(Cc2cc3c(=O)[n-]c(=O)[n-]c3[n-]c2=O)C[C@@H]2CCCO2)cc1 (3D coordinates assigned)
Cc1ccc(CN(Cc2cc3c(=O)[n-]c(=O)[n-]c3[n-]c2=O)C[C@@H]2CCCO2)cc1 (nonaromatic ring conformer: 63.283705230087755 kcal/mol)

>  <smiles>  (31) 
Cc1ccc(CN(Cc2cc3c(=O)[nH]c(=O)[nH]c3[nH]c2=O)CC2CCCO2)cc1

>  <score_type>  (31) 
oracle

>  <origin>  (31) 
adg

>  <m_score__min__energy>  (31) 
-15.800000000000001

>  <m_primary>  (31) 
energy

$$$$
31:0
     RDKit          3D

 45 48  0  0  0  0  0  0  0  0999 V2000
   55.6980   29.4380   44.8670 O   0  0  0  0  0  0  0  0  0  0  0  0
   56.7140   30.0070   44.3790 C   0  0  0  0  0  0  0  0  0  0  0  0
   56.8390   31.4980   44.4750 C   0  0  0  0  0  0  0  0  0  0  0  0
   57.8450   31.8480   45.4790 N   0  0  0  0  0  0  0  0  0  0  0  0
   58.3810   31.0040   46.3900 C   0  0  0  0  0  0  0  0  0  0  0  0
   59.3620   31.6510   47.1380 C   0  0  0  0  0  0  0  0  0  0  0  0
   60.1700   31.0480   48.2180 C   0  0  0  0  0  0  0  0  0  0  0  0
   61.1420   30.2980   47.9410 O   0  0  0  0  0  0  0  0  0  0  0  0
   59.8050   31.2750   49.6580 C   0  0  0  0  0  0  0  0  0  0  0  0
   58.4760   31.9820   49.8940 C   0  0  0  0  0  0  0  0  0  0  0  0
   58.5890   30.4860   50.1200 C   0  0  0  0  0  0  0  0  0  0  0  0
   59.4170   32.9460   46.6380 C   0  0  0  0  0  0  0  0  0  0  0  0
   60.2130   34.0430   46.9840 C   0  0  0  0  0  0  0  0  0  0  0  0
   60.0390   35.2390   46.2670 C   0  0  0  0  0  0  0  0  0  0  0  0
   59.0850   35.3210   45.2310 C   0  0  0  0  0  0  0  0  0  0  0  0
   58.2950   34.2070   44.9030 C   0  0  0  0  0  0  0  0  0  0  0  0
   58.4840   33.0280   45.6300 C   0  0  0  0  0  0  0  0  0  0  0  0
   57.7580   29.2300   43.7760 N   0  0  0  0  0  0  0  0  0  0  0  0
   57.7730   27.7710   43.8710 C   0  0  0  0  0  0  0  0  0  0  0  0
   58.3460   27.3340   45.1930 C   0  0  0  0  0  0  0  0  0  0  0  0
   59.7220   27.4680   45.4470 C   0  0  0  0  0  0  0  0  0  0  0  0
   60.2500   27.0940   46.6850 C   0  0  0  0  0  0  0  0  0  0  0  0
   59.4090   26.5930   47.6830 C   0  0  0  0  0  0  0  0  0  0  0  0
   58.0380   26.4690   47.4450 C   0  0  0  0  0  0  0  0  0  0  0  0
   57.5030   26.8410   46.2070 C   0  0  0  0  0  0  0  0  0  0  0  0
   56.1660   26.7290   46.0000 F   0  0  0  0  0  0  0  0  0  0  0  0
   57.1420   31.9026   43.4980 H   0  0  0  0  0  0  0  0  0  0  0  0
   55.8689   31.9255   44.7687 H   0  0  0  0  0  0  0  0  0  0  0  0
   58.0837   29.9532   46.5218 H   0  0  0  0  0  0  0  0  0  0  0  0
   60.8339   31.4231   50.0179 H   0  0  0  0  0  0  0  0  0  0  0  0
   58.3588   32.6604   50.7519 H   0  0  0  0  0  0  0  0  0  0  0  0
   57.8224   32.6303   49.2919 H   0  0  0  0  0  0  0  0  0  0  0  0
   58.5530   30.0804   51.1419 H   0  0  0  0  0  0  0  0  0  0  0  0
   58.0502   29.6016   49.7491 H   0  0  0  0  0  0  0  0  0  0  0  0
   60.9538   33.9715   47.7940 H   0  0  0  0  0  0  0  0  0  0  0  0
   60.6515   36.1182   46.5155 H   0  0  0  0  0  0  0  0  0  0  0  0
   58.9591   36.2629   44.6769 H   0  0  0  0  0  0  0  0  0  0  0  0
   57.5486   34.2607   44.0968 H   0  0  0  0  0  0  0  0  0  0  0  0
   58.5370   29.7280   43.2890 H   0  0  0  0  0  0  0  0  0  0  0  0
   56.7445   27.3918   43.7792 H   0  0  0  0  0  0  0  0  0  0  0  0
   58.3995   27.3684   43.0614 H   0  0  0  0  0  0  0  0  0  0  0  0
   60.3861   27.8692   44.6673 H   0  0  0  0  0  0  0  0  0  0  0  0
   61.3289   27.1938   46.8748 H   0  0  0  0  0  0  0  0  0  0  0  0
   59.8270   26.2962   48.6562 H   0  0  0  0  0  0  0  0  0  0  0  0
   57.3775   26.0779   48.2329 H   0  0  0  0  0  0  0  0  0  0  0  0
  1  2  2  0
  2  3  1  0
  3  4  1  0
  4  5  1  0
  5  6  2  0
  6  7  1  0
  7  8  2  0
  7  9  1  0
  9 10  1  0
 10 11  1  0
  6 12  1  0
 12 13  2  0
 13 14  1  0
 14 15  2  0
 15 16  1  0
 16 17  2  0
  2 18  1  0
 18 19  1  0
 19 20  1  0
 20 21  2  0
 21 22  1  0
 22 23  2  0
 23 24  1  0
 24 25  2  0
 25 26  1  0
 17  4  1  0
 25 20  1  0
 11  9  1  0
 17 12  1  0
  3 27  1  0
  3 28  1  0
  5 29  1  0
  9 30  1  0
 10 31  1  0
 10 32  1  0
 11 33  1  0
 11 34  1  0
 13 35  1  0
 14 36  1  0
 15 37  1  0
 16 38  1  0
 18 39  1  0
 19 40  1  0
 19 41  1  0
 21 42  1  0
 22 43  1  0
 23 44  1  0
 24 45  1  0
M  END
>  <UniqueID>  (32) 
32

>  <SMILES>  (32) 
O=C(Cn1cc(C(=O)C2CC2)c2ccccc21)NCc1ccccc1F

>  <Energy>  (32) 
341.38886388049843

>  <Genealogy>  (32) 
O=C(Cn1cc(C(=O)C2CC2)c2ccccc21)NCc1ccccc1F (3D coordinates assigned)
O=C(Cn1cc(C(=O)C2CC2)c2ccccc21)NCc1ccccc1F (nonaromatic ring conformer: 341.38886388049843 kcal/mol)

>  <smiles>  (32) 
O=C(Cn1cc(C(=O)C2CC2)c2ccccc21)NCc1ccccc1F

>  <score_type>  (32) 
oracle

>  <origin>  (32) 
adg

>  <m_score__min__energy>  (32) 
-8.3300000000000001

>  <m_primary>  (32) 
energy

$$$$
32:0
     RDKit          3D

 30 32  0  0  0  0  0  0  0  0999 V2000
   60.5600   23.4020   55.5510 H   0  0  0  0  0  0  0  0  0  0  0  0
   60.9340   24.3290   55.2470 N   0  0  0  0  0  0  0  0  0  0  0  0
   60.1940   25.3890   55.2690 C   0  0  0  0  0  0  0  0  0  0  0  0
   60.4310   26.4210   56.1010 N   0  0  0  0  0  0  0  0  0  0  0  0
   59.4530   27.2960   55.8060 C   0  0  0  0  0  0  0  0  0  0  0  0
   59.3101   28.2762   56.2844 H   0  0  0  0  0  0  0  0  0  0  0  0
   58.6550   26.7690   54.8060 C   0  0  0  0  0  0  0  0  0  0  0  0
   57.4650   27.3970   54.1820 C   0  0  0  0  0  0  0  0  0  0  0  0
   56.1860   26.8270   54.3060 C   0  0  0  0  0  0  0  0  0  0  0  0
   56.0571   25.8961   54.8777 H   0  0  0  0  0  0  0  0  0  0  0  0
   55.0780   27.4320   53.7100 C   0  0  0  0  0  0  0  0  0  0  0  0
   54.0829   26.9769   53.8226 H   0  0  0  0  0  0  0  0  0  0  0  0
   55.2210   28.6160   52.9680 C   0  0  0  0  0  0  0  0  0  0  0  0
   54.0720   29.2530   52.3790 N   0  0  0  0  0  0  0  0  0  0  0  0
   53.7700   28.9430   51.4300 H   0  0  0  0  0  0  0  0  0  0  0  0
   53.2650   30.2190   53.0730 C   0  0  0  0  0  0  0  0  0  0  0  0
   53.3610   30.3410   54.3240 O   0  0  0  0  0  0  0  0  0  0  0  0
   52.2910   31.0540   52.3430 C   0  0  0  0  0  0  0  0  0  0  0  0
   51.3570   31.9230   52.8830 C   0  0  0  0  0  0  0  0  0  0  0  0
   51.2281   32.1128   53.9588 H   0  0  0  0  0  0  0  0  0  0  0  0
   50.6280   32.5040   51.9100 N   0  0  0  0  0  0  0  0  0  0  0  0
   51.1070   31.9960   50.7590 C   0  0  0  0  0  0  0  0  0  0  0  0
   50.6160   32.3450   49.5080 O   0  0  0  0  0  0  0  0  0  0  0  0
   52.1280   31.0980   50.9740 C   0  0  0  0  0  0  0  0  0  0  0  0
   52.6931   30.5357   50.2160 H   0  0  0  0  0  0  0  0  0  0  0  0
   56.4960   29.2010   52.8540 C   0  0  0  0  0  0  0  0  0  0  0  0
   56.7470   30.6810   51.9340 Cl  0  0  0  0  0  0  0  0  0  0  0  0
   57.6050   28.5900   53.4520 C   0  0  0  0  0  0  0  0  0  0  0  0
   58.5990   29.0498   53.3491 H   0  0  0  0  0  0  0  0  0  0  0  0
   59.1270   25.5540   54.4630 N   0  0  0  0  0  0  0  0  0  0  0  0
  1  2  1  0
  2  3  2  0
  3  4  1  0
  4  5  1  0
  5  6  1  0
  5  7  2  0
  7  8  1  0
  8  9  2  0
  9 10  1  0
  9 11  1  0
 11 12  1  0
 11 13  2  0
 13 14  1  0
 14 15  1  0
 14 16  1  0
 16 17  2  0
 16 18  1  0
 18 19  2  0
 19 20  1  0
 19 21  1  0
 21 22  1  0
 22 23  1  0
 22 24  2  0
 24 25  1  0
 13 26  1  0
 26 27  1  0
 26 28  2  0
 28 29  1  0
  7 30  1  0
 30  3  1  0
 28  8  1  0
 24 18  1  0
M  CHG  4   4  -1  21  -1  23  -1  30  -1
M  END
>  <UniqueID>  (33) 
33

>  <SMILES>  (33) 
[H]/N=c1/[n-]cc(-c2ccc(NC(=O)c3c[n-]c([O-])c3)c(Cl)c2)[n-]1

>  <Energy>  (33) 
91.83600783405693

>  <Genealogy>  (33) 
N=c1[n-]cc(-c2ccc(NC(=O)c3c[n-]c([O-])c3)c(Cl)c2)[n-]1 (protonated)
[H]/N=c1/[n-]cc(-c2ccc(NC(=O)c3c[n-]c([O-])c3)c(Cl)c2)[n-]1 (cis-trans isomerization)
[H]/N=c1/[n-]cc(-c2ccc(NC(=O)c3c[n-]c([O-])c3)c(Cl)c2)[n-]1 (3D coordinates assigned)
[H]/N=c1/[n-]cc(-c2ccc(NC(=O)c3c[n-]c([O-])c3)c(Cl)c2)[n-]1 (optimized conformer: 91.83600783405693 kcal/mol)

>  <smiles>  (33) 
N=c1[nH]cc(-c2ccc(NC(=O)c3c[nH]c(O)c3)c(Cl)c2)[nH]1

>  <score_type>  (33) 
oracle

>  <origin>  (33) 
adg

>  <m_score__min__energy>  (33) 
-13.609999999999999

>  <m_primary>  (33) 
energy

$$$$
33:0
     RDKit          3D

 38 40  0  0  1  0  0  0  0  0999 V2000
   56.4360   30.7120   44.6210 O   0  0  0  0  0  0  0  0  0  0  0  0
   57.5860   30.8830   45.1400 C   0  0  0  0  0  0  0  0  0  0  0  0
   58.4330   29.8250   45.5080 N   0  0  0  0  0  0  0  0  0  0  0  0
   57.8770   28.6670   45.7250 C   0  0  0  0  0  0  0  0  0  0  0  0
   56.8500   28.0280   45.2220 N   0  0  0  0  0  0  0  0  0  0  0  0
   56.5010   26.8700   45.6280 N   0  0  0  0  0  0  0  0  0  0  0  0
   57.1920   26.2480   46.6070 C   0  0  0  0  0  0  0  0  0  0  0  0
   57.0510   24.8310   47.3450 S   0  0  0  0  0  0  0  0  0  0  0  0
   58.5460   27.4980   47.0180 S   0  0  0  0  0  0  0  0  0  0  0  0
   58.0660   32.2430   45.3800 C   0  0  0  0  0  0  0  0  0  0  0  0
   57.7900   33.2930   44.5310 C   0  0  0  0  0  0  0  0  0  0  0  0
   58.2900   34.5230   44.8680 C   0  0  0  0  0  0  0  0  0  0  0  0
   59.0490   34.7380   46.0110 C   0  0  0  0  0  0  0  0  0  0  0  0
   59.3320   33.6950   46.8650 C   0  0  0  0  0  0  0  0  0  0  0  0
   60.1080   33.8030   48.1010 C   0  0  0  0  0  0  0  0  0  0  0  0
   61.4810   34.2210   47.9200 N   0  0  0  0  0  0  0  0  0  0  0  0
   62.1520   33.5960   46.8240 C   0  0  0  0  0  0  0  0  0  0  0  0
   62.8290   32.3020   47.1280 C   0  0  0  0  0  0  0  0  0  0  0  0
   63.8700   32.5070   48.0290 O   0  0  0  0  0  0  0  0  0  0  0  0
   63.6530   33.5780   48.8700 C   0  0  0  0  0  0  0  0  0  0  0  0
   62.1750   33.7650   49.1420 C   0  0  0  0  0  0  0  0  0  0  0  0
   58.8260   32.4560   46.5220 C   0  0  0  0  0  0  0  0  0  0  0  0
   56.2790   28.5190   44.4240 H   0  0  0  0  0  0  0  0  0  0  0  0
   55.6560   26.3410   45.2170 H   0  0  0  0  0  0  0  0  0  0  0  0
   57.1920   33.1491   43.6190 H   0  0  0  0  0  0  0  0  0  0  0  0
   58.0816   35.3761   44.2056 H   0  0  0  0  0  0  0  0  0  0  0  0
   59.4262   35.7466   46.2355 H   0  0  0  0  0  0  0  0  0  0  0  0
   59.6107   34.5348   48.7546 H   0  0  0  0  0  0  0  0  0  0  0  0
   60.1462   32.7918   48.5324 H   0  0  0  0  0  0  0  0  0  0  0  0
   61.4084   33.4103   46.0350 H   0  0  0  0  0  0  0  0  0  0  0  0
   62.9534   34.2899   46.5303 H   0  0  0  0  0  0  0  0  0  0  0  0
   62.1003   31.6044   47.5665 H   0  0  0  0  0  0  0  0  0  0  0  0
   63.2363   31.8813   46.1968 H   0  0  0  0  0  0  0  0  0  0  0  0
   64.1739   33.3988   49.8221 H   0  0  0  0  0  0  0  0  0  0  0  0
   64.0374   34.4874   48.3850 H   0  0  0  0  0  0  0  0  0  0  0  0
   61.7425   32.8079   49.4689 H   0  0  0  0  0  0  0  0  0  0  0  0
   62.0497   34.5240   49.9283 H   0  0  0  0  0  0  0  0  0  0  0  0
   59.0344   31.6013   47.1824 H   0  0  0  0  0  0  0  0  0  0  0  0
  1  2  2  0
  2  3  1  0
  3  4  2  0
  4  5  1  0
  5  6  1  0
  6  7  1  0
  7  8  2  0
  7  9  1  0
  2 10  1  0
 10 11  2  0
 11 12  1  0
 12 13  2  0
 13 14  1  0
 14 15  1  0
 15 16  1  0
 16 17  1  0
 17 18  1  0
 18 19  1  0
 19 20  1  0
 20 21  1  0
 14 22  2  0
  9  4  1  0
 22 10  1  0
 21 16  1  0
  5 23  1  0
  6 24  1  0
 11 25  1  0
 12 26  1  0
 13 27  1  0
 15 28  1  0
 15 29  1  0
 17 30  1  0
 17 31  1  0
 18 32  1  0
 18 33  1  0
 20 34  1  0
 20 35  1  0
 21 36  1  0
 21 37  1  0
 22 38  1  0
M  END
>  <smiles>  (34) 
O=C(N=c1[nH][nH]c(=S)s1)c1cccc(CN2CCOCC2)c1

>  <score_type>  (34) 
oracle

>  <origin>  (34) 
adg

>  <m_score__min__energy>  (34) 
-8.4800000000000004

>  <m_primary>  (34) 
energy

$$$$
34:0
     RDKit          3D

 66 69  0  0  0  0  0  0  0  0999 V2000
   56.3340   32.0670   44.8690 O   0  0  0  0  0  0  0  0  0  0  0  0
   57.3610   32.1470   44.1390 C   0  0  0  0  0  0  0  0  0  0  0  0
   58.2040   33.3940   44.1310 C   0  0  0  0  0  0  0  0  0  0  0  0
   58.8500   33.6740   45.4650 C   0  0  0  0  0  0  0  0  0  0  0  0
   59.7040   34.7770   45.6260 C   0  0  0  0  0  0  0  0  0  0  0  0
   60.3080   35.0210   46.8620 C   0  0  0  0  0  0  0  0  0  0  0  0
   60.0720   34.1660   47.9420 C   0  0  0  0  0  0  0  0  0  0  0  0
   59.2170   33.0610   47.7980 C   0  0  0  0  0  0  0  0  0  0  0  0
   59.0000   32.1330   48.8750 N   0  0  0  0  0  0  0  0  0  0  0  0
   59.0510   32.4850   50.2670 C   0  0  0  0  0  0  0  0  0  0  0  0
   58.9200   33.7280   50.6360 N   0  0  0  0  0  0  0  0  0  0  0  0
   58.9380   34.1550   52.0360 C   0  0  0  0  0  0  0  0  0  0  0  0
   58.3620   33.0660   52.9530 C   0  0  1  0  0  0  0  0  0  0  0  0
   56.9930   32.9070   52.6860 O   0  0  0  0  0  0  0  0  0  0  0  0
   59.1090   31.7510   52.6850 C   0  0  0  0  0  0  0  0  0  0  0  0
   59.1000   31.4440   51.2570 N   0  0  0  0  0  0  0  0  0  0  0  0
   58.6210   32.8150   46.5530 C   0  0  0  0  0  0  0  0  0  0  0  0
   57.7170   31.0560   43.2800 N   0  0  0  0  0  0  0  0  0  0  0  0
   56.8620   29.8740   43.1530 C   0  0  0  0  0  0  0  0  0  0  0  0
   56.6750   29.1740   44.4780 C   0  0  0  0  0  0  0  0  0  0  0  0
   55.5100   28.8600   44.8480 O   0  0  0  0  0  0  0  0  0  0  0  0
   57.7880   28.9160   45.3570 N   0  0  0  0  0  0  0  0  0  0  0  0
   57.7060   27.7580   46.2600 C   0  0  0  0  0  0  0  0  0  0  0  0
   58.9240   27.6730   47.1720 C   0  0  0  0  0  0  0  0  0  0  0  0
   59.2100   29.0190   47.6760 N   0  0  0  0  0  0  0  0  0  0  0  0
   60.3160   28.9430   49.0260 S   0  0  0  0  0  0  0  0  0  0  0  0
   61.1130   27.6690   48.9490 O   0  0  0  0  0  0  0  0  0  0  0  0
   59.5330   28.9260   50.3110 O   0  0  0  0  0  0  0  0  0  0  0  0
   61.4240   30.3190   49.0350 C   0  0  0  0  0  0  0  0  0  0  0  0
   61.9300   30.8230   47.8290 C   0  0  0  0  0  0  0  0  0  0  0  0
   62.7920   31.9260   47.8350 C   0  0  0  0  0  0  0  0  0  0  0  0
   63.1570   32.5250   49.0440 C   0  0  0  0  0  0  0  0  0  0  0  0
   62.6590   32.0220   50.2500 C   0  0  0  0  0  0  0  0  0  0  0  0
   61.7940   30.9230   50.2470 C   0  0  0  0  0  0  0  0  0  0  0  0
   59.7690   29.8660   46.6050 C   0  0  0  0  0  0  0  0  0  0  0  0
   59.0220   29.7160   45.2570 C   0  0  0  0  0  0  0  0  0  0  0  0
   58.9949   33.2782   43.3753 H   0  0  0  0  0  0  0  0  0  0  0  0
   57.5397   34.2402   43.9017 H   0  0  0  0  0  0  0  0  0  0  0  0
   59.8977   35.4500   44.7777 H   0  0  0  0  0  0  0  0  0  0  0  0
   60.9718   35.8894   46.9855 H   0  0  0  0  0  0  0  0  0  0  0  0
   60.5582   34.3594   48.9096 H   0  0  0  0  0  0  0  0  0  0  0  0
   58.7480   31.1470   48.6340 H   0  0  0  0  0  0  0  0  0  0  0  0
   59.9758   34.3643   52.3346 H   0  0  0  0  0  0  0  0  0  0  0  0
   58.3182   35.0584   52.1340 H   0  0  0  0  0  0  0  0  0  0  0  0
   58.4868   33.3516   54.0079 H   0  0  0  0  0  0  0  0  0  0  0  0
   56.8680   33.0870   51.7160 H   0  0  0  0  0  0  0  0  0  0  0  0
   60.1494   31.8483   53.0286 H   0  0  0  0  0  0  0  0  0  0  0  0
   58.6068   30.9373   53.2288 H   0  0  0  0  0  0  0  0  0  0  0  0
   59.1470   30.4430   50.9510 H   0  0  0  0  0  0  0  0  0  0  0  0
   57.9668   31.9397   46.4266 H   0  0  0  0  0  0  0  0  0  0  0  0
   58.6130   31.1220   42.7420 H   0  0  0  0  0  0  0  0  0  0  0  0
   55.8780   30.1852   42.7724 H   0  0  0  0  0  0  0  0  0  0  0  0
   57.3489   29.1718   42.4603 H   0  0  0  0  0  0  0  0  0  0  0  0
   56.8017   27.8511   46.8793 H   0  0  0  0  0  0  0  0  0  0  0  0
   57.6692   26.8450   45.6476 H   0  0  0  0  0  0  0  0  0  0  0  0
   58.7132   26.9967   48.0136 H   0  0  0  0  0  0  0  0  0  0  0  0
   59.7894   27.2821   46.6168 H   0  0  0  0  0  0  0  0  0  0  0  0
   61.6492   30.3509   46.8759 H   0  0  0  0  0  0  0  0  0  0  0  0
   63.1829   32.3222   46.8862 H   0  0  0  0  0  0  0  0  0  0  0  0
   63.8352   33.3911   49.0468 H   0  0  0  0  0  0  0  0  0  0  0  0
   62.9479   32.4912   51.2020 H   0  0  0  0  0  0  0  0  0  0  0  0
   61.4024   30.5307   51.1972 H   0  0  0  0  0  0  0  0  0  0  0  0
   59.7087   30.9173   46.9231 H   0  0  0  0  0  0  0  0  0  0  0  0
   60.8077   29.5431   46.4411 H   0  0  0  0  0  0  0  0  0  0  0  0
   58.7583   30.7193   44.8910 H   0  0  0  0  0  0  0  0  0  0  0  0
   59.6973   29.1864   44.5689 H   0  0  0  0  0  0  0  0  0  0  0  0
  1  2  2  0
  2  3  1  0
  3  4  1  0
  4  5  2  0
  5  6  1  0
  6  7  2  0
  7  8  1  0
  8  9  1  0
  9 10  1  0
 10 11  2  0
 11 12  1  0
 12 13  1  0
 13 14  1  0
 13 15  1  0
 15 16  1  0
  8 17  2  0
  2 18  1  0
 18 19  1  0
 19 20  1  0
 20 21  2  0
 20 22  1  0
 22 23  1  0
 23 24  1  0
 24 25  1  0
 25 26  1  0
 26 27  2  0
 26 28  2  0
 26 29  1  0
 29 30  2  0
 30 31  1  0
 31 32  2  0
 32 33  1  0
 33 34  2  0
 25 35  1  0
 35 36  1  0
 17  4  1  0
 36 22  1  0
 16 10  1  0
 34 29  1  0
  3 37  1  0
  3 38  1  0
  5 39  1  0
  6 40  1  0
  7 41  1  0
  9 42  1  0
 12 43  1  0
 12 44  1  0
 13 45  1  1
 14 46  1  0
 15 47  1  0
 15 48  1  0
 16 49  1  0
 17 50  1  0
 18 51  1  0
 19 52  1  0
 19 53  1  0
 23 54  1  0
 23 55  1  0
 24 56  1  0
 24 57  1  0
 30 58  1  0
 31 59  1  0
 32 60  1  0
 33 61  1  0
 34 62  1  0
 35 63  1  0
 35 64  1  0
 36 65  1  0
 36 66  1  0
M  END
>  <UniqueID>  (35) 
34

>  <SMILES>  (35) 
O=C(Cc1cccc(NC2=NC[C@@H](O)CN2)c1)NCC(=O)N1CCN(S(=O)(=O)c2ccccc2)CC1

>  <Energy>  (35) 
73.46040708037046

>  <Genealogy>  (35) 
O=C(Cc1cccc(NC2=NC[C@@H](O)CN2)c1)NCC(=O)N1CCN(S(=O)(=O)c2ccccc2)CC1 (chirality)
O=C(Cc1cccc(NC2=NC[C@@H](O)CN2)c1)NCC(=O)N1CCN(S(=O)(=O)c2ccccc2)CC1 (3D coordinates assigned)
O=C(Cc1cccc(NC2=NC[C@@H](O)CN2)c1)NCC(=O)N1CCN(S(=O)(=O)c2ccccc2)CC1 (nonaromatic ring conformer: 73.46040708037046 kcal/mol)

>  <smiles>  (35) 
O=C(Cc1cccc(NC2=NCC(O)CN2)c1)NCC(=O)N1CCN(S(=O)(=O)c2ccccc2)CC1

>  <score_type>  (35) 
oracle

>  <origin>  (35) 
adg

>  <m_score__min__energy>  (35) 
-9.5800000000000001

>  <m_primary>  (35) 
energy

$$$$
35:0
     RDKit          3D

 44 46  0  0  0  0  0  0  0  0999 V2000
   51.2780   24.0000   44.4990 C   0  0  0  0  0  0  0  0  0  0  0  0
   52.4790   24.1550   45.0510 C   0  0  0  0  0  0  0  0  0  0  0  0
   53.3260   23.0180   45.4660 C   0  0  0  0  0  0  0  0  0  0  0  0
   52.7790   21.9080   45.6960 O   0  0  0  0  0  0  0  0  0  0  0  0
   54.7560   23.1160   45.5520 N   0  0  0  0  0  0  0  0  0  0  0  0
   55.4740   24.2020   45.4720 C   0  0  0  0  0  0  0  0  0  0  0  0
   56.4500   24.3940   44.4730 C   0  0  0  0  0  0  0  0  0  0  0  0
   57.1900   25.5900   44.4370 C   0  0  0  0  0  0  0  0  0  0  0  0
   58.1410   25.8430   43.4340 O   0  0  0  0  0  0  0  0  0  0  0  0
   58.1450   26.9910   42.5920 C   0  0  0  0  0  0  0  0  0  0  0  0
   56.9510   26.5730   45.4150 C   0  0  0  0  0  0  0  0  0  0  0  0
   57.6760   27.8140   45.4300 N   0  0  0  0  0  0  0  0  0  0  0  0
   57.0390   29.0930   45.2860 C   0  0  0  0  0  0  0  0  0  0  0  0
   55.8330   29.1630   44.9240 O   0  0  0  0  0  0  0  0  0  0  0  0
   57.7870   30.3370   45.5260 C   0  0  0  0  0  0  0  0  0  0  0  0
   57.3090   31.5600   45.1950 N   0  0  0  0  0  0  0  0  0  0  0  0
   58.1870   32.5450   45.5220 C   0  0  0  0  0  0  0  0  0  0  0  0
   59.3430   32.1140   46.1460 C   0  0  0  0  0  0  0  0  0  0  0  0
   59.3110   30.4390   46.2520 S   0  0  0  0  0  0  0  0  0  0  0  0
   60.4730   33.0250   46.5190 C   0  0  0  0  0  0  0  0  0  0  0  0
   60.0280   34.4350   46.6100 N   0  0  0  0  0  0  0  0  0  0  0  0
   59.3660   34.7170   47.8950 C   0  0  0  0  0  0  0  0  0  0  0  0
   59.1960   34.8370   45.4490 C   0  0  0  0  0  0  0  0  0  0  0  0
   57.9050   33.9990   45.3100 C   0  0  0  0  0  0  0  0  0  0  0  0
   55.9410   26.3600   46.3600 C   0  0  0  0  0  0  0  0  0  0  0  0
   55.2420   25.1970   46.3680 N   0  0  0  0  0  0  0  0  0  0  0  0
   50.6884   24.8819   44.2082 H   0  0  0  0  0  0  0  0  0  0  0  0
   50.8750   22.9900   44.3335 H   0  0  0  0  0  0  0  0  0  0  0  0
   52.8582   25.1760   45.2052 H   0  0  0  0  0  0  0  0  0  0  0  0
   56.6326   23.6102   43.7231 H   0  0  0  0  0  0  0  0  0  0  0  0
   58.1482   27.9000   43.2114 H   0  0  0  0  0  0  0  0  0  0  0  0
   59.0431   26.9769   41.9570 H   0  0  0  0  0  0  0  0  0  0  0  0
   57.2468   26.9831   41.9570 H   0  0  0  0  0  0  0  0  0  0  0  0
   58.7180   27.7670   45.3870 H   0  0  0  0  0  0  0  0  0  0  0  0
   60.8756   32.7139   47.4942 H   0  0  0  0  0  0  0  0  0  0  0  0
   61.2433   32.9566   45.7367 H   0  0  0  0  0  0  0  0  0  0  0  0
   60.0337   34.4326   48.7216 H   0  0  0  0  0  0  0  0  0  0  0  0
   59.1369   35.7908   47.9616 H   0  0  0  0  0  0  0  0  0  0  0  0
   58.4329   34.1382   47.9616 H   0  0  0  0  0  0  0  0  0  0  0  0
   58.9162   35.8941   45.5680 H   0  0  0  0  0  0  0  0  0  0  0  0
   59.7953   34.6695   44.5420 H   0  0  0  0  0  0  0  0  0  0  0  0
   57.1738   34.3370   46.0591 H   0  0  0  0  0  0  0  0  0  0  0  0
   57.5053   34.1351   44.2943 H   0  0  0  0  0  0  0  0  0  0  0  0
   55.7124   27.1402   47.1009 H   0  0  0  0  0  0  0  0  0  0  0  0
  1  2  2  0
  2  3  1  0
  3  4  2  0
  3  5  1  0
  5  6  2  3
  6  7  1  0
  7  8  2  0
  8  9  1  0
  9 10  1  0
  8 11  1  0
 11 12  1  0
 12 13  1  0
 13 14  2  0
 13 15  1  0
 15 16  2  0
 16 17  1  0
 17 18  2  0
 18 19  1  0
 18 20  1  0
 20 21  1  0
 21 22  1  0
 21 23  1  0
 23 24  1  0
 11 25  2  0
 25 26  1  0
 26  6  1  0
 19 15  1  0
 24 17  1  0
  1 27  1  0
  1 28  1  0
  2 29  1  0
  7 30  1  0
 10 31  1  0
 10 32  1  0
 10 33  1  0
 12 34  1  0
 20 35  1  0
 20 36  1  0
 22 37  1  0
 22 38  1  0
 22 39  1  0
 23 40  1  0
 23 41  1  0
 24 42  1  0
 24 43  1  0
 25 44  1  0
M  CHG  1  26  -1
M  END
>  <UniqueID>  (36) 
35

>  <SMILES>  (36) 
C=CC(=O)N=c1cc(OC)c(NC(=O)c2nc3c(s2)CN(C)CC3)c[n-]1

>  <Energy>  (36) 
92.30994812899577

>  <Genealogy>  (36) 
C=CC(=O)N=c1cc(OC)c(NC(=O)c2nc3c(s2)CN(C)CC3)c[n-]1 (protonated)
C=CC(=O)N=c1cc(OC)c(NC(=O)c2nc3c(s2)CN(C)CC3)c[n-]1 (3D coordinates assigned)
C=CC(=O)N=c1cc(OC)c(NC(=O)c2nc3c(s2)CN(C)CC3)c[n-]1 (nonaromatic ring conformer: 92.30994812899577 kcal/mol)

>  <smiles>  (36) 
C=CC(=O)N=c1cc(OC)c(NC(=O)c2nc3c(s2)CN(C)CC3)c[nH]1

>  <score_type>  (36) 
oracle

>  <origin>  (36) 
adg

>  <m_score__min__energy>  (36) 
-9.3599999999999994

>  <m_primary>  (36) 
energy

$$$$
36:0
     RDKit          3D

 43 45  0  0  0  0  0  0  0  0999 V2000
   55.8350   27.6060   45.0170 H   0  0  0  0  0  0  0  0  0  0  0  0
   55.5250   28.5930   44.8710 N   0  0  0  0  0  0  0  0  0  0  0  0
   56.3650   29.5750   44.9230 C   0  0  0  0  0  0  0  0  0  0  0  0
   56.0640   30.8190   44.5000 N   0  0  0  0  0  0  0  0  0  0  0  0
   57.2220   31.4710   44.7550 C   0  0  0  0  0  0  0  0  0  0  0  0
   57.4090   32.7410   44.5430 N   0  0  0  0  0  0  0  0  0  0  0  0
   58.1530   33.6500   45.3700 C   0  0  0  0  0  0  0  0  0  0  0  0
   58.9500   34.6790   44.8280 C   0  0  0  0  0  0  0  0  0  0  0  0
   58.9978   34.8192   43.7380 H   0  0  0  0  0  0  0  0  0  0  0  0
   59.6800   35.5220   45.6720 C   0  0  0  0  0  0  0  0  0  0  0  0
   60.2893   36.3323   45.2452 H   0  0  0  0  0  0  0  0  0  0  0  0
   59.6370   35.3370   47.0560 C   0  0  0  0  0  0  0  0  0  0  0  0
   60.2041   36.0074   47.7186 H   0  0  0  0  0  0  0  0  0  0  0  0
   58.8740   34.3010   47.5980 C   0  0  0  0  0  0  0  0  0  0  0  0
   58.8486   34.1493   48.6872 H   0  0  0  0  0  0  0  0  0  0  0  0
   58.1420   33.4560   46.7580 C   0  0  0  0  0  0  0  0  0  0  0  0
   57.5533   32.6331   47.1897 H   0  0  0  0  0  0  0  0  0  0  0  0
   58.1640   30.6870   45.3130 N   0  0  0  0  0  0  0  0  0  0  0  0
   57.6210   29.4850   45.4120 N   0  0  0  0  0  0  0  0  0  0  0  0
   58.3240   28.3560   45.9660 C   0  0  0  0  0  0  0  0  0  0  0  0
   57.7110   27.2650   46.1160 O   0  0  0  0  0  0  0  0  0  0  0  0
   59.7740   28.4190   46.3550 C   0  0  0  0  0  0  0  0  0  0  0  0
   60.1095   29.4666   46.3469 H   0  0  0  0  0  0  0  0  0  0  0  0
   60.3691   27.8347   45.6377 H   0  0  0  0  0  0  0  0  0  0  0  0
   59.9500   27.8620   47.6980 N   0  0  0  0  0  0  0  0  0  0  0  0
   59.1420   27.2250   47.8940 H   0  0  0  0  0  0  0  0  0  0  0  0
   59.8870   29.1340   48.8800 S   0  0  0  0  0  0  0  0  0  0  0  0
   60.4160   28.6210   50.1890 O   0  0  0  0  0  0  0  0  0  0  0  0
   58.4660   29.5850   49.0830 O   0  0  0  0  0  0  0  0  0  0  0  0
   60.8800   30.4890   48.3480 C   0  0  0  0  0  0  0  0  0  0  0  0
   62.0320   30.8340   49.0660 C   0  0  0  0  0  0  0  0  0  0  0  0
   62.3004   30.2732   49.9735 H   0  0  0  0  0  0  0  0  0  0  0  0
   62.8420   31.8880   48.6340 C   0  0  0  0  0  0  0  0  0  0  0  0
   63.7384   32.1616   49.2098 H   0  0  0  0  0  0  0  0  0  0  0  0
   62.5160   32.5990   47.4680 C   0  0  0  0  0  0  0  0  0  0  0  0
   63.3660   33.7520   47.0240 C   0  0  0  0  0  0  0  0  0  0  0  0
   63.7560   34.2810   47.9060 H   0  0  0  0  0  0  0  0  0  0  0  0
   64.2057   33.3774   46.4201 H   0  0  0  0  0  0  0  0  0  0  0  0
   62.7598   34.4433   46.4201 H   0  0  0  0  0  0  0  0  0  0  0  0
   61.3530   32.2610   46.7590 C   0  0  0  0  0  0  0  0  0  0  0  0
   61.0773   32.8279   45.8576 H   0  0  0  0  0  0  0  0  0  0  0  0
   60.5430   31.2070   47.1930 C   0  0  0  0  0  0  0  0  0  0  0  0
   59.6387   30.9408   46.6260 H   0  0  0  0  0  0  0  0  0  0  0  0
  1  2  1  0
  2  3  2  3
  3  4  1  0
  4  5  1  0
  5  6  2  0
  6  7  1  0
  7  8  2  0
  8  9  1  0
  8 10  1  0
 10 11  1  0
 10 12  2  0
 12 13  1  0
 12 14  1  0
 14 15  1  0
 14 16  2  0
 16 17  1  0
  5 18  1  0
 18 19  1  0
 19 20  1  0
 20 21  2  0
 20 22  1  0
 22 23  1  0
 22 24  1  0
 22 25  1  0
 25 26  1  0
 25 27  1  0
 27 28  2  0
 27 29  2  0
 27 30  1  0
 30 31  2  0
 31 32  1  0
 31 33  1  0
 33 34  1  0
 33 35  2  0
 35 36  1  0
 36 37  1  0
 36 38  1  0
 36 39  1  0
 35 40  1  0
 40 41  1  0
 40 42  2  0
 42 43  1  0
 19  3  1  0
 42 30  1  0
 16  7  1  0
M  CHG  2   4  -1  18  -1
M  END
>  <UniqueID>  (37) 
36

>  <SMILES>  (37) 
Cc1ccc(S(=O)(=O)NCC(=O)n2[n-]/c(=N/c3ccccc3)[n-]c2=N)cc1

>  <Energy>  (37) 
82.27034365233439

>  <Genealogy>  (37) 
Cc1ccc(S(=O)(=O)NCC(=O)n2[n-]c(=Nc3ccccc3)[n-]c2=N)cc1 (protonated)
Cc1ccc(S(=O)(=O)NCC(=O)n2[n-]/c(=N/c3ccccc3)[n-]c2=N)cc1 (cis-trans isomerization)
Cc1ccc(S(=O)(=O)NCC(=O)n2[n-]/c(=N/c3ccccc3)[n-]c2=N)cc1 (3D coordinates assigned)
Cc1ccc(S(=O)(=O)NCC(=O)n2[n-]/c(=N/c3ccccc3)[n-]c2=N)cc1 (optimized conformer: 82.27034365233439 kcal/mol)

>  <smiles>  (37) 
Cc1ccc(S(=O)(=O)NCC(=O)n2[nH]c(=Nc3ccccc3)[nH]c2=N)cc1

>  <score_type>  (37) 
oracle

>  <origin>  (37) 
adg

>  <m_score__min__energy>  (37) 
-11.869999999999999

>  <m_primary>  (37) 
energy

$$$$
37:0
     RDKit          3D

 43 45  0  0  0  0  0  0  0  0999 V2000
   56.7300   30.4440   44.8680 O   0  0  0  0  0  0  0  0  0  0  0  0
   57.4510   31.3800   45.3100 C   0  0  0  0  0  0  0  0  0  0  0  0
   56.9920   32.8000   45.1480 C   0  0  0  0  0  0  0  0  0  0  0  0
   58.0090   33.7290   45.6670 N   0  0  0  0  0  0  0  0  0  0  0  0
   58.6830   34.5330   44.7890 C   0  0  0  0  0  0  0  0  0  0  0  0
   59.6570   35.4190   45.2390 C   0  0  0  0  0  0  0  0  0  0  0  0
   59.9590   35.4780   46.5950 C   0  0  0  0  0  0  0  0  0  0  0  0
   59.2890   34.6450   47.5040 C   0  0  0  0  0  0  0  0  0  0  0  0
   59.6010   34.6650   48.9140 N   0  0  0  0  0  0  0  0  0  0  0  0
   60.3520   33.6200   49.6080 C   0  0  0  0  0  0  0  0  0  0  0  0
   61.4500   33.0870   48.7260 C   0  0  0  0  0  0  0  0  0  0  0  0
   62.5900   33.8560   48.4480 C   0  0  0  0  0  0  0  0  0  0  0  0
   63.5930   33.3280   47.6300 C   0  0  0  0  0  0  0  0  0  0  0  0
   63.4620   32.0780   47.1090 N   0  0  0  0  0  0  0  0  0  0  0  0
   62.3660   31.3120   47.3620 C   0  0  0  0  0  0  0  0  0  0  0  0
   61.3400   31.8020   48.1720 C   0  0  0  0  0  0  0  0  0  0  0  0
   58.3030   33.7660   47.0100 C   0  0  0  0  0  0  0  0  0  0  0  0
   57.6820   33.0150   47.8130 O   0  0  0  0  0  0  0  0  0  0  0  0
   58.6620   31.0960   46.0270 N   0  0  0  0  0  0  0  0  0  0  0  0
   59.2670   29.7930   46.1020 C   0  0  0  0  0  0  0  0  0  0  0  0
   59.5630   29.1020   44.9160 C   0  0  0  0  0  0  0  0  0  0  0  0
   60.1340   27.8260   44.9630 C   0  0  0  0  0  0  0  0  0  0  0  0
   60.4000   27.2230   46.1950 C   0  0  0  0  0  0  0  0  0  0  0  0
   60.0870   27.8910   47.3830 C   0  0  0  0  0  0  0  0  0  0  0  0
   60.3960   27.1220   48.9290 Cl  0  0  0  0  0  0  0  0  0  0  0  0
   59.5140   29.1690   47.3390 C   0  0  0  0  0  0  0  0  0  0  0  0
   56.8226   33.0069   44.0810 H   0  0  0  0  0  0  0  0  0  0  0  0
   56.0584   32.9404   45.7125 H   0  0  0  0  0  0  0  0  0  0  0  0
   58.4523   34.4784   43.7149 H   0  0  0  0  0  0  0  0  0  0  0  0
   60.1851   36.0691   44.5260 H   0  0  0  0  0  0  0  0  0  0  0  0
   60.7253   36.1797   46.9562 H   0  0  0  0  0  0  0  0  0  0  0  0
   59.3510   35.5110   49.4750 H   0  0  0  0  0  0  0  0  0  0  0  0
   60.7944   34.0393   50.5237 H   0  0  0  0  0  0  0  0  0  0  0  0
   59.6671   32.7972   49.8608 H   0  0  0  0  0  0  0  0  0  0  0  0
   62.6937   34.8664   48.8704 H   0  0  0  0  0  0  0  0  0  0  0  0
   64.4900   33.9243   47.4071 H   0  0  0  0  0  0  0  0  0  0  0  0
   62.2884   30.3045   46.9273 H   0  0  0  0  0  0  0  0  0  0  0  0
   60.4518   31.1855   48.3746 H   0  0  0  0  0  0  0  0  0  0  0  0
   59.0730   31.8620   46.6080 H   0  0  0  0  0  0  0  0  0  0  0  0
   59.3444   29.5673   43.9435 H   0  0  0  0  0  0  0  0  0  0  0  0
   60.3739   27.2967   44.0290 H   0  0  0  0  0  0  0  0  0  0  0  0
   60.8558   26.2225   46.2305 H   0  0  0  0  0  0  0  0  0  0  0  0
   59.2563   29.6864   48.2749 H   0  0  0  0  0  0  0  0  0  0  0  0
  1  2  2  0
  2  3  1  0
  3  4  1  0
  4  5  1  0
  5  6  2  0
  6  7  1  0
  7  8  2  0
  8  9  1  0
  9 10  1  0
 10 11  1  0
 11 12  2  0
 12 13  1  0
 13 14  2  0
 14 15  1  0
 15 16  2  0
  8 17  1  0
 17 18  2  0
  2 19  1  0
 19 20  1  0
 20 21  2  0
 21 22  1  0
 22 23  2  0
 23 24  1  0
 24 25  1  0
 24 26  2  0
 17  4  1  0
 26 20  1  0
 16 11  1  0
  3 27  1  0
  3 28  1  0
  5 29  1  0
  6 30  1  0
  7 31  1  0
  9 32  1  0
 10 33  1  0
 10 34  1  0
 12 35  1  0
 13 36  1  0
 15 37  1  0
 16 38  1  0
 19 39  1  0
 21 40  1  0
 22 41  1  0
 23 42  1  0
 26 43  1  0
M  END
>  <UniqueID>  (38) 
37

>  <SMILES>  (38) 
O=C(Cn1cccc(NCc2ccncc2)c1=O)Nc1cccc(Cl)c1

>  <Energy>  (38) 
50.89313419136808

>  <Genealogy>  (38) 
O=C(Cn1cccc(NCc2ccncc2)c1=O)Nc1cccc(Cl)c1 (3D coordinates assigned)
O=C(Cn1cccc(NCc2ccncc2)c1=O)Nc1cccc(Cl)c1 (optimized conformer: 50.89313419136808 kcal/mol)

>  <smiles>  (38) 
O=C(Cn1cccc(NCc2ccncc2)c1=O)Nc1cccc(Cl)c1

>  <score_type>  (38) 
oracle

>  <origin>  (38) 
adg

>  <m_score__min__energy>  (38) 
-8.0600000000000005

>  <m_primary>  (38) 
energy

$$$$
38:0
     RDKit          3D

 42 45  0  0  0  0  0  0  0  0999 V2000
   54.9376   27.9045   54.4695 H   0  0  0  0  0  0  0  0  0  0  0  0
   54.3490   28.6750   53.9500 C   0  0  0  0  0  0  0  0  0  0  0  0
   53.2499   28.6360   53.9729 H   0  0  0  0  0  0  0  0  0  0  0  0
   54.9720   29.6630   53.2880 C   0  0  0  0  0  0  0  0  0  0  0  0
   54.3590   30.7050   52.5860 C   0  0  0  0  0  0  0  0  0  0  0  0
   53.0390   30.9600   52.4920 C   0  0  0  0  0  0  0  0  0  0  0  0
   52.4816   31.1393   53.4232 H   0  0  0  0  0  0  0  0  0  0  0  0
   52.2930   31.0140   51.2180 C   0  0  0  0  0  0  0  0  0  0  0  0
   51.3600   31.9630   50.8690 C   0  0  0  0  0  0  0  0  0  0  0  0
   51.0230   33.0840   51.6180 O   0  0  0  0  0  0  0  0  0  0  0  0
   50.7980   31.6610   49.6830 N   0  0  0  0  0  0  0  0  0  0  0  0
   51.4060   30.5020   49.3510 C   0  0  0  0  0  0  0  0  0  0  0  0
   51.1410   29.8690   48.2960 O   0  0  0  0  0  0  0  0  0  0  0  0
   52.3080   30.0750   50.2570 N   0  0  0  0  0  0  0  0  0  0  0  0
   52.8450   29.1790   50.2350 H   0  0  0  0  0  0  0  0  0  0  0  0
   55.3880   31.4730   52.0570 C   0  0  0  0  0  0  0  0  0  0  0  0
   55.2805   32.3867   51.4540 H   0  0  0  0  0  0  0  0  0  0  0  0
   56.5720   30.8700   52.4330 C   0  0  0  0  0  0  0  0  0  0  0  0
   57.9260   31.4810   52.2120 C   0  0  0  0  0  0  0  0  0  0  0  0
   57.9334   32.5058   52.6118 H   0  0  0  0  0  0  0  0  0  0  0  0
   58.6854   30.8752   52.7280 H   0  0  0  0  0  0  0  0  0  0  0  0
   58.2350   31.5170   50.7500 C   0  0  0  0  0  0  0  0  0  0  0  0
   58.1420   32.6070   50.0090 O   0  0  0  0  0  0  0  0  0  0  0  0
   58.5130   32.2850   48.7950 C   0  0  0  0  0  0  0  0  0  0  0  0
   58.5780   33.1130   47.6760 C   0  0  0  0  0  0  0  0  0  0  0  0
   58.2965   34.1746   47.7371 H   0  0  0  0  0  0  0  0  0  0  0  0
   59.0160   32.5450   46.4650 C   0  0  0  0  0  0  0  0  0  0  0  0
   59.0800   33.1689   45.5613 H   0  0  0  0  0  0  0  0  0  0  0  0
   59.3740   31.1800   46.4010 C   0  0  0  0  0  0  0  0  0  0  0  0
   59.7132   30.7477   45.4481 H   0  0  0  0  0  0  0  0  0  0  0  0
   59.2990   30.3690   47.5510 C   0  0  0  0  0  0  0  0  0  0  0  0
   59.5769   29.3052   47.5165 H   0  0  0  0  0  0  0  0  0  0  0  0
   58.8610   30.9610   48.7320 C   0  0  0  0  0  0  0  0  0  0  0  0
   58.6890   30.4390   49.9920 C   0  0  0  0  0  0  0  0  0  0  0  0
   58.8686   29.4064   50.3258 H   0  0  0  0  0  0  0  0  0  0  0  0
   56.3210   29.7730   53.1860 N   0  0  0  0  0  0  0  0  0  0  0  0
   57.3010   28.9330   53.8190 C   0  0  0  0  0  0  0  0  0  0  0  0
   58.0130   28.1660   53.1190 O   0  0  0  0  0  0  0  0  0  0  0  0
   57.4970   28.9650   55.3010 C   0  0  0  0  0  0  0  0  0  0  0  0
   56.5306   28.8072   55.8022 H   0  0  0  0  0  0  0  0  0  0  0  0
   58.1970   28.1692   55.5955 H   0  0  0  0  0  0  0  0  0  0  0  0
   57.9076   29.9421   55.5955 H   0  0  0  0  0  0  0  0  0  0  0  0
  1  2  1  0
  2  3  1  0
  2  4  2  0
  4  5  1  0
  5  6  2  0
  6  7  1  0
  6  8  1  0
  8  9  2  0
  9 10  1  0
  9 11  1  0
 11 12  1  0
 12 13  2  0
 12 14  1  0
 14 15  1  0
  5 16  1  0
 16 17  1  0
 16 18  2  0
 18 19  1  0
 19 20  1  0
 19 21  1  0
 19 22  1  0
 22 23  1  0
 23 24  1  0
 24 25  2  0
 25 26  1  0
 25 27  1  0
 27 28  1  0
 27 29  2  0
 29 30  1  0
 29 31  1  0
 31 32  1  0
 31 33  2  0
 33 34  1  0
 34 35  1  0
 18 36  1  0
 36 37  1  0
 37 38  2  0
 37 39  1  0
 39 40  1  0
 39 41  1  0
 39 42  1  0
 36  4  1  0
 14  8  1  0
 34 22  2  0
 33 24  1  0
M  CHG  2  10  -1  11  -1
M  END
>  <UniqueID>  (39) 
38

>  <SMILES>  (39) 
C=c1/c(=C/c2[nH]c(=O)[n-]c2[O-])cc(Cc2cc3ccccc3o2)n1C(C)=O

>  <Energy>  (39) 
147.32388071290882

>  <Genealogy>  (39) 
C=c1c(=Cc2[nH]c(=O)[n-]c2[O-])cc(Cc2cc3ccccc3o2)n1C(C)=O (protonated)
C=c1/c(=C/c2[nH]c(=O)[n-]c2[O-])cc(Cc2cc3ccccc3o2)n1C(C)=O (cis-trans isomerization)
C=c1/c(=C/c2[nH]c(=O)[n-]c2[O-])cc(Cc2cc3ccccc3o2)n1C(C)=O (3D coordinates assigned)
C=c1/c(=C/c2[nH]c(=O)[n-]c2[O-])cc(Cc2cc3ccccc3o2)n1C(C)=O (optimized conformer: 147.32388071290882 kcal/mol)

>  <smiles>  (39) 
C=c1c(=Cc2[nH]c(=O)[nH]c2O)cc(Cc2cc3ccccc3o2)n1C(C)=O

>  <score_type>  (39) 
oracle

>  <origin>  (39) 
adg

>  <m_score__min__energy>  (39) 
-14.81

>  <m_primary>  (39) 
energy

$$$$
39:0
     RDKit          3D

 42 44  0  0  0  0  0  0  0  0999 V2000
   54.7920   24.5150   45.3750 C   0  0  0  0  0  0  0  0  0  0  0  0
   55.0350   25.8780   45.7140 O   0  0  0  0  0  0  0  0  0  0  0  0
   56.2940   26.4010   46.0470 C   0  0  0  0  0  0  0  0  0  0  0  0
   57.3090   25.6070   46.6100 C   0  0  0  0  0  0  0  0  0  0  0  0
   58.5460   26.1680   46.9240 C   0  0  0  0  0  0  0  0  0  0  0  0
   58.7870   27.5200   46.6840 C   0  0  0  0  0  0  0  0  0  0  0  0
   57.7900   28.3360   46.1210 C   0  0  0  0  0  0  0  0  0  0  0  0
   58.0780   29.7720   45.8750 C   0  0  0  0  0  0  0  0  0  0  0  0
   57.5130   30.5040   44.8850 N   0  0  0  0  0  0  0  0  0  0  0  0
   58.0880   31.7100   45.0570 C   0  0  0  0  0  0  0  0  0  0  0  0
   57.7410   33.1240   44.0100 S   0  0  0  0  0  0  0  0  0  0  0  0
   57.7520   32.1430   42.4780 C   0  0  0  0  0  0  0  0  0  0  0  0
   58.9410   31.7080   46.0970 N   0  0  0  0  0  0  0  0  0  0  0  0
   59.7660   32.8100   46.5840 C   0  0  0  0  0  0  0  0  0  0  0  0
   59.3180   33.2300   47.9500 C   0  0  0  0  0  0  0  0  0  0  0  0
   59.1740   34.4580   48.2030 O   0  0  0  0  0  0  0  0  0  0  0  0
   59.0220   32.2380   48.9440 N   0  0  0  0  0  0  0  0  0  0  0  0
   58.8200   32.5380   50.3350 C   0  0  0  0  0  0  0  0  0  0  0  0
   59.2910   33.9670   51.0920 S   0  0  0  0  0  0  0  0  0  0  0  0
   58.9080   33.4880   52.6530 C   0  0  0  0  0  0  0  0  0  0  0  0
   58.4160   32.1900   52.6090 C   0  0  0  0  0  0  0  0  0  0  0  0
   57.8240   31.3130   54.2050 Br  0  0  0  0  0  0  0  0  0  0  0  0
   58.3660   31.6400   51.3070 C   0  0  0  0  0  0  0  0  0  0  0  0
   57.8520   30.2870   51.0010 C   0  0  0  0  0  0  0  0  0  0  0  0
   56.9870   29.7490   51.7400 O   0  0  0  0  0  0  0  0  0  0  0  0
   58.3060   29.5980   49.8830 O   0  0  0  0  0  0  0  0  0  0  0  0
   58.9490   30.4930   46.6130 N   0  0  0  0  0  0  0  0  0  0  0  0
   56.5370   27.7630   45.8040 C   0  0  0  0  0  0  0  0  0  0  0  0
   55.5210   28.5330   45.2460 O   0  0  0  0  0  0  0  0  0  0  0  0
   54.6862   23.9216   46.2951 H   0  0  0  0  0  0  0  0  0  0  0  0
   53.8669   24.4434   44.7841 H   0  0  0  0  0  0  0  0  0  0  0  0
   55.6353   24.1282   44.7841 H   0  0  0  0  0  0  0  0  0  0  0  0
   57.1263   24.5396   46.8033 H   0  0  0  0  0  0  0  0  0  0  0  0
   59.3358   25.5408   47.3633 H   0  0  0  0  0  0  0  0  0  0  0  0
   59.7662   27.9523   46.9374 H   0  0  0  0  0  0  0  0  0  0  0  0
   57.7640   31.0720   42.7285 H   0  0  0  0  0  0  0  0  0  0  0  0
   56.8512   32.3719   41.8896 H   0  0  0  0  0  0  0  0  0  0  0  0
   58.6474   32.3920   41.8896 H   0  0  0  0  0  0  0  0  0  0  0  0
   60.8157   32.4845   46.6304 H   0  0  0  0  0  0  0  0  0  0  0  0
   59.6661   33.6629   45.8965 H   0  0  0  0  0  0  0  0  0  0  0  0
   58.9980   31.2410   48.6400 H   0  0  0  0  0  0  0  0  0  0  0  0
   59.0266   34.0994   53.5597 H   0  0  0  0  0  0  0  0  0  0  0  0
  1  2  1  0
  2  3  1  0
  3  4  2  0
  4  5  1  0
  5  6  2  0
  6  7  1  0
  7  8  1  0
  8  9  1  0
  9 10  2  0
 10 11  1  0
 11 12  1  0
 10 13  1  0
 13 14  1  0
 14 15  1  0
 15 16  2  0
 15 17  1  0
 17 18  1  0
 18 19  1  0
 19 20  1  0
 20 21  2  0
 21 22  1  0
 21 23  1  0
 23 24  1  0
 24 25  2  0
 24 26  1  0
 13 27  1  0
  7 28  2  0
 28 29  1  0
 28  3  1  0
 27  8  2  0
 23 18  2  0
  1 30  1  0
  1 31  1  0
  1 32  1  0
  4 33  1  0
  5 34  1  0
  6 35  1  0
 12 36  1  0
 12 37  1  0
 12 38  1  0
 14 39  1  0
 14 40  1  0
 17 41  1  0
 20 42  1  0
M  CHG  2  26  -1  29  -1
M  END
>  <UniqueID>  (40) 
39

>  <SMILES>  (40) 
COc1cccc(-c2nc(SC)n(CC(=O)Nc3scc(Br)c3C(=O)[O-])n2)c1[O-]

>  <Energy>  (40) 
103.99540244379956

>  <Genealogy>  (40) 
COc1cccc(-c2nc(SC)n(CC(=O)Nc3scc(Br)c3C(=O)[O-])n2)c1[O-] (protonated)
COc1cccc(-c2nc(SC)n(CC(=O)Nc3scc(Br)c3C(=O)[O-])n2)c1[O-] (3D coordinates assigned)
COc1cccc(-c2nc(SC)n(CC(=O)Nc3scc(Br)c3C(=O)[O-])n2)c1[O-] (optimized conformer: 103.99540244379956 kcal/mol)

>  <smiles>  (40) 
COc1cccc(-c2nc(SC)n(CC(=O)Nc3scc(Br)c3C(=O)O)n2)c1O

>  <score_type>  (40) 
oracle

>  <origin>  (40) 
adg

>  <m_score__min__energy>  (40) 
-12.960000000000001

>  <m_primary>  (40) 
energy

$$$$
40:0
     RDKit          3D

 44 46  0  0  0  0  0  0  0  0999 V2000
   58.7710   32.3590   48.0790 C   0  0  0  0  0  0  0  0  0  0  0  0
   58.4670   31.5050   47.0880 C   0  0  0  0  0  0  0  0  0  0  0  0
   57.7680   31.8630   45.9800 N   0  0  0  0  0  0  0  0  0  0  0  0
   57.1650   33.1610   45.6470 C   0  0  0  0  0  0  0  0  0  0  0  0
   58.1440   34.0520   44.8630 C   0  0  0  0  0  0  0  0  0  0  0  0
   59.0790   34.8860   45.7550 C   0  0  0  0  0  0  0  0  0  0  0  0
   60.4190   34.1980   46.0140 C   0  0  0  0  0  0  0  0  0  0  0  0
   57.7130   30.7460   45.2330 C   0  0  0  0  0  0  0  0  0  0  0  0
   57.1360   30.6720   44.1140 O   0  0  0  0  0  0  0  0  0  0  0  0
   58.3470   29.7070   45.8860 C   0  0  0  0  0  0  0  0  0  0  0  0
   58.3980   28.4470   45.4030 C   0  0  0  0  0  0  0  0  0  0  0  0
   57.5160   27.3300   45.7900 C   0  0  0  0  0  0  0  0  0  0  0  0
   56.1180   27.4300   45.6750 C   0  0  0  0  0  0  0  0  0  0  0  0
   55.5230   28.6050   45.2290 O   0  0  0  0  0  0  0  0  0  0  0  0
   55.3340   26.3690   45.9980 N   0  0  0  0  0  0  0  0  0  0  0  0
   55.8780   25.1960   46.4140 C   0  0  0  0  0  0  0  0  0  0  0  0
   55.1330   24.2290   46.7120 O   0  0  0  0  0  0  0  0  0  0  0  0
   57.2270   25.0660   46.5020 N   0  0  0  0  0  0  0  0  0  0  0  0
   58.0540   26.0980   46.1920 C   0  0  0  0  0  0  0  0  0  0  0  0
   59.3010   25.9370   46.2740 O   0  0  0  0  0  0  0  0  0  0  0  0
   58.8510   30.1940   47.0600 N   0  0  0  0  0  0  0  0  0  0  0  0
   59.8730   29.6010   47.9450 C   0  0  0  0  0  0  0  0  0  0  0  0
   59.3840   29.5670   49.3600 C   0  0  0  0  0  0  0  0  0  0  0  0
   58.1700   29.8760   49.7430 O   0  0  0  0  0  0  0  0  0  0  0  0
   58.1450   29.7320   51.0500 C   0  0  0  0  0  0  0  0  0  0  0  0
   57.1200   29.9490   51.7470 O   0  0  0  0  0  0  0  0  0  0  0  0
   59.3220   29.3300   51.5780 N   0  0  0  0  0  0  0  0  0  0  0  0
   60.1010   29.2290   50.4850 C   0  0  0  0  0  0  0  0  0  0  0  0
   61.4350   28.8410   50.5130 O   0  0  0  0  0  0  0  0  0  0  0  0
   59.3406   32.0080   48.9521 H   0  0  0  0  0  0  0  0  0  0  0  0
   58.4503   33.4094   48.0175 H   0  0  0  0  0  0  0  0  0  0  0  0
   56.2670   32.9916   45.0348 H   0  0  0  0  0  0  0  0  0  0  0  0
   56.9075   33.6733   46.5857 H   0  0  0  0  0  0  0  0  0  0  0  0
   58.7620   33.4065   44.2216 H   0  0  0  0  0  0  0  0  0  0  0  0
   57.5355   34.7634   44.2853 H   0  0  0  0  0  0  0  0  0  0  0  0
   59.2686   35.8503   45.2608 H   0  0  0  0  0  0  0  0  0  0  0  0
   58.5804   35.0169   46.7267 H   0  0  0  0  0  0  0  0  0  0  0  0
   60.5841   34.1132   47.0982 H   0  0  0  0  0  0  0  0  0  0  0  0
   60.4084   33.1938   45.5651 H   0  0  0  0  0  0  0  0  0  0  0  0
   61.2289   34.7918   45.5651 H   0  0  0  0  0  0  0  0  0  0  0  0
   59.1705   28.2335   44.6496 H   0  0  0  0  0  0  0  0  0  0  0  0
   60.0895   28.5753   47.6119 H   0  0  0  0  0  0  0  0  0  0  0  0
   60.7846   30.2148   47.8978 H   0  0  0  0  0  0  0  0  0  0  0  0
   61.8900   28.4970   49.6760 H   0  0  0  0  0  0  0  0  0  0  0  0
  1  2  2  0
  2  3  1  0
  3  4  1  0
  4  5  1  0
  5  6  1  0
  6  7  1  0
  3  8  1  0
  8  9  2  0
  8 10  1  0
 10 11  2  3
 11 12  1  0
 12 13  2  0
 13 14  1  0
 13 15  1  0
 15 16  1  0
 16 17  2  0
 16 18  1  0
 18 19  1  0
 19 20  2  0
 10 21  1  0
 21 22  1  0
 22 23  1  0
 23 24  1  0
 24 25  1  0
 25 26  2  0
 25 27  1  0
 27 28  1  0
 28 29  1  0
 21  2  1  0
 28 23  2  0
 19 12  1  0
  1 30  1  0
  1 31  1  0
  4 32  1  0
  4 33  1  0
  5 34  1  0
  5 35  1  0
  6 36  1  0
  6 37  1  0
  7 38  1  0
  7 39  1  0
  7 40  1  0
 11 41  1  0
 22 42  1  0
 22 43  1  0
 29 44  1  0
M  CHG  4  14  -1  15  -1  18  -1  27  -1
M  END
>  <UniqueID>  (41) 
40

>  <SMILES>  (41) 
C=c1n(CCCC)c(=O)c(=Cc2c([O-])[n-]c(=O)[n-]c2=O)n1Cc1oc(=O)[n-]c1O

>  <Energy>  (41) 
123.14628586314524

>  <Genealogy>  (41) 
C=c1n(CCCC)c(=O)c(=Cc2c([O-])[n-]c(=O)[n-]c2=O)n1Cc1oc(=O)[n-]c1O (protonated)
C=c1n(CCCC)c(=O)c(=Cc2c([O-])[n-]c(=O)[n-]c2=O)n1Cc1oc(=O)[n-]c1O (3D coordinates assigned)
C=c1n(CCCC)c(=O)c(=Cc2c([O-])[n-]c(=O)[n-]c2=O)n1Cc1oc(=O)[n-]c1O (optimized conformer: 123.14628586314524 kcal/mol)

>  <smiles>  (41) 
C=c1n(CCCC)c(=O)c(=Cc2c(O)[nH]c(=O)[nH]c2=O)n1Cc1oc(=O)[nH]c1O

>  <score_type>  (41) 
oracle

>  <origin>  (41) 
adg

>  <m_score__min__energy>  (41) 
-17.289999999999999

>  <m_primary>  (41) 
energy

$$$$
41:0
     RDKit          3D

 50 53  0  0  0  0  0  0  0  0999 V2000
   58.5610   33.9160   45.7960 C   0  0  0  0  0  0  0  0  0  0  0  0
   58.0810   32.8570   44.8480 C   0  0  0  0  0  0  0  0  0  0  0  0
   58.1320   33.0740   43.4630 C   0  0  0  0  0  0  0  0  0  0  0  0
   57.7190   32.0740   42.5800 C   0  0  0  0  0  0  0  0  0  0  0  0
   57.2720   30.8450   43.0700 C   0  0  0  0  0  0  0  0  0  0  0  0
   57.2510   30.5960   44.4530 C   0  0  0  0  0  0  0  0  0  0  0  0
   56.8120   29.2840   44.9820 C   0  0  0  0  0  0  0  0  0  0  0  0
   55.5910   28.9760   44.9300 O   0  0  0  0  0  0  0  0  0  0  0  0
   57.7380   28.3250   45.5150 N   0  0  0  0  0  0  0  0  0  0  0  0
   58.4640   28.4380   46.7470 C   0  0  0  0  0  0  0  0  0  0  0  0
   59.4880   27.5220   47.0140 C   0  0  0  0  0  0  0  0  0  0  0  0
   60.2100   27.5990   48.2080 C   0  0  0  0  0  0  0  0  0  0  0  0
   59.9130   28.5920   49.1460 C   0  0  0  0  0  0  0  0  0  0  0  0
   58.8880   29.5180   48.8940 C   0  0  0  0  0  0  0  0  0  0  0  0
   58.5390   30.5590   49.8840 C   0  0  0  0  0  0  0  0  0  0  0  0
   57.6100   30.2620   50.8320 N   0  0  0  0  0  0  0  0  0  0  0  0
   57.2130   31.1720   51.7610 C   0  0  0  0  0  0  0  0  0  0  0  0
   56.3340   30.8670   52.6720 N   0  0  0  0  0  0  0  0  0  0  0  0
   54.9960   30.3910   52.4500 C   0  0  0  0  0  0  0  0  0  0  0  0
   54.6130   29.1750   53.0260 C   0  0  0  0  0  0  0  0  0  0  0  0
   53.3180   28.6850   52.8480 C   0  0  0  0  0  0  0  0  0  0  0  0
   52.3860   29.4160   52.1070 C   0  0  0  0  0  0  0  0  0  0  0  0
   52.7360   30.6570   51.5470 C   0  0  0  0  0  0  0  0  0  0  0  0
   51.7470   31.4410   50.7710 C   0  0  0  0  0  0  0  0  0  0  0  0
   51.2820   32.7010   51.2510 N   0  0  0  0  0  0  0  0  0  0  0  0
   51.3020   30.9990   49.6780 O   0  0  0  0  0  0  0  0  0  0  0  0
   54.0430   31.1450   51.7380 C   0  0  0  0  0  0  0  0  0  0  0  0
   57.7680   32.4110   51.7620 N   0  0  0  0  0  0  0  0  0  0  0  0
   58.6920   32.7660   50.8330 C   0  0  0  0  0  0  0  0  0  0  0  0
   59.0960   31.8530   49.8580 C   0  0  0  0  0  0  0  0  0  0  0  0
   60.2030   32.3900   48.5990 Cl  0  0  0  0  0  0  0  0  0  0  0  0
   58.1430   29.4120   47.7090 C   0  0  0  0  0  0  0  0  0  0  0  0
   57.6470   31.6150   45.3370 C   0  0  0  0  0  0  0  0  0  0  0  0
   58.4078   33.5779   46.8315 H   0  0  0  0  0  0  0  0  0  0  0  0
   59.6316   34.1025   45.6258 H   0  0  0  0  0  0  0  0  0  0  0  0
   57.9956   34.8441   45.6258 H   0  0  0  0  0  0  0  0  0  0  0  0
   58.4983   34.0345   43.0714 H   0  0  0  0  0  0  0  0  0  0  0  0
   57.7459   32.2549   41.4953 H   0  0  0  0  0  0  0  0  0  0  0  0
   56.9343   30.0672   42.3693 H   0  0  0  0  0  0  0  0  0  0  0  0
   59.7256   26.7376   46.2804 H   0  0  0  0  0  0  0  0  0  0  0  0
   61.0142   26.8763   48.4103 H   0  0  0  0  0  0  0  0  0  0  0  0
   60.4841   28.6481   50.0845 H   0  0  0  0  0  0  0  0  0  0  0  0
   55.3370   28.6012   53.6231 H   0  0  0  0  0  0  0  0  0  0  0  0
   53.0306   27.7207   53.2924 H   0  0  0  0  0  0  0  0  0  0  0  0
   51.3712   29.0176   51.9608 H   0  0  0  0  0  0  0  0  0  0  0  0
   51.3950   33.5670   50.6790 H   0  0  0  0  0  0  0  0  0  0  0  0
   54.3228   32.1260   51.3265 H   0  0  0  0  0  0  0  0  0  0  0  0
   59.1240   33.7775   50.8488 H   0  0  0  0  0  0  0  0  0  0  0  0
   57.3007   30.0969   47.5314 H   0  0  0  0  0  0  0  0  0  0  0  0
   57.6164   31.4372   46.4221 H   0  0  0  0  0  0  0  0  0  0  0  0
  1  2  1  0
  2  3  2  0
  3  4  1  0
  4  5  2  0
  5  6  1  0
  6  7  1  0
  7  8  2  0
  7  9  1  0
  9 10  1  0
 10 11  2  0
 11 12  1  0
 12 13  2  0
 13 14  1  0
 14 15  1  0
 15 16  1  0
 16 17  1  0
 17 18  2  3
 18 19  1  0
 19 20  2  0
 20 21  1  0
 21 22  2  0
 22 23  1  0
 23 24  1  0
 24 25  1  0
 24 26  2  0
 23 27  2  0
 17 28  1  0
 28 29  2  0
 29 30  1  0
 30 31  1  0
 14 32  2  0
  6 33  2  0
 33  2  1  0
 32 10  1  0
 30 15  2  0
 27 19  1  0
  1 34  1  0
  1 35  1  0
  1 36  1  0
  3 37  1  0
  4 38  1  0
  5 39  1  0
 11 40  1  0
 12 41  1  0
 13 42  1  0
 20 43  1  0
 21 44  1  0
 22 45  1  0
 25 46  1  0
 27 47  1  0
 29 48  1  0
 32 49  1  0
 33 50  1  0
M  CHG  3   9  -1  16  -1  25  -1
M  END
>  <UniqueID>  (42) 
41

>  <SMILES>  (42) 
Cc1cccc(C(=O)[N-]c2cccc(-c3[n-]c(=Nc4cccc(C([NH-])=O)c4)ncc3Cl)c2)c1

>  <Energy>  (42) 
72.48537393428788

>  <Genealogy>  (42) 
Cc1cccc(C(=O)[N-]c2cccc(-c3[n-]c(=Nc4cccc(C([NH-])=O)c4)ncc3Cl)c2)c1 (protonated)
Cc1cccc(C(=O)[N-]c2cccc(-c3[n-]c(=Nc4cccc(C([NH-])=O)c4)ncc3Cl)c2)c1 (3D coordinates assigned)
Cc1cccc(C(=O)[N-]c2cccc(-c3[n-]c(=Nc4cccc(C([NH-])=O)c4)ncc3Cl)c2)c1 (optimized conformer: 72.48537393428788 kcal/mol)

>  <smiles>  (42) 
Cc1cccc(C(=O)Nc2cccc(-c3[nH]c(=Nc4cccc(C(N)=O)c4)ncc3Cl)c2)c1

>  <score_type>  (42) 
oracle

>  <origin>  (42) 
adg

>  <m_score__min__energy>  (42) 
-16.66

>  <m_primary>  (42) 
energy

$$$$
42:0
     RDKit          3D

 61 64  0  0  0  0  0  0  0  0999 V2000
   54.3540   26.7090   46.8110 H   0  0  0  0  0  0  0  0  0  0  0  0
   54.7940   26.2840   46.0000 O   0  0  0  0  0  0  0  0  0  0  0  0
   54.5330   24.9640   45.6370 C   0  0  0  0  0  0  0  0  0  0  0  0
   53.3560   24.3570   45.8540 N   0  0  0  0  0  0  0  0  0  0  0  0
   53.5460   23.1340   45.3190 C   0  0  0  0  0  0  0  0  0  0  0  0
   52.6490   22.2480   45.3120 O   0  0  0  0  0  0  0  0  0  0  0  0
   54.7660   22.9350   44.7760 N   0  0  0  0  0  0  0  0  0  0  0  0
   55.4010   24.0960   45.0050 C   0  0  0  0  0  0  0  0  0  0  0  0
   56.7630   24.3810   44.5290 C   0  0  0  0  0  0  0  0  0  0  0  0
   57.1943   23.6808   43.7985 H   0  0  0  0  0  0  0  0  0  0  0  0
   57.5310   25.4230   44.9070 C   0  0  0  0  0  0  0  0  0  0  0  0
   57.9040   25.6320   46.2220 C   0  0  0  0  0  0  0  0  0  0  0  0
   57.5956   25.0330   47.0915 H   0  0  0  0  0  0  0  0  0  0  0  0
   58.7350   26.7320   46.2390 C   0  0  0  0  0  0  0  0  0  0  0  0
   59.3080   27.3200   47.5010 C   0  0  0  0  0  0  0  0  0  0  0  0
   59.3816   28.4118   47.3892 H   0  0  0  0  0  0  0  0  0  0  0  0
   58.6455   27.0652   48.3413 H   0  0  0  0  0  0  0  0  0  0  0  0
   60.6960   26.7510   47.7820 C   0  0  0  0  0  0  0  0  0  0  0  0
   60.8528   26.6867   48.8689 H   0  0  0  0  0  0  0  0  0  0  0  0
   60.7771   25.7471   47.3398 H   0  0  0  0  0  0  0  0  0  0  0  0
   61.4585   27.4091   47.3398 H   0  0  0  0  0  0  0  0  0  0  0  0
   58.8760   27.2380   44.9900 N   0  0  0  0  0  0  0  0  0  0  0  0
   59.6830   28.4200   44.6330 C   0  0  0  0  0  0  0  0  0  0  0  0
   60.5073   28.5225   45.3541 H   0  0  0  0  0  0  0  0  0  0  0  0
   60.0734   28.2799   43.6142 H   0  0  0  0  0  0  0  0  0  0  0  0
   58.8500   29.6780   44.6560 C   0  0  0  0  0  0  0  0  0  0  0  0
   57.7570   29.8270   43.7890 C   0  0  0  0  0  0  0  0  0  0  0  0
   57.5077   29.0244   43.0793 H   0  0  0  0  0  0  0  0  0  0  0  0
   56.9840   30.9900   43.8230 C   0  0  0  0  0  0  0  0  0  0  0  0
   56.1126   31.0884   43.1589 H   0  0  0  0  0  0  0  0  0  0  0  0
   57.3130   32.0270   44.6960 C   0  0  0  0  0  0  0  0  0  0  0  0
   56.6953   32.9368   44.7228 H   0  0  0  0  0  0  0  0  0  0  0  0
   58.4280   31.9150   45.5400 C   0  0  0  0  0  0  0  0  0  0  0  0
   58.7920   33.0190   46.4540 C   0  0  0  0  0  0  0  0  0  0  0  0
   58.0540   34.0400   46.5050 O   0  0  0  0  0  0  0  0  0  0  0  0
   59.9520   32.9390   47.3020 N   0  0  0  0  0  0  0  0  0  0  0  0
   60.6470   34.1710   47.6870 C   0  0  0  0  0  0  0  0  0  0  0  0
   60.5273   34.9193   46.8897 H   0  0  0  0  0  0  0  0  0  0  0  0
   60.2140   34.5473   48.6256 H   0  0  0  0  0  0  0  0  0  0  0  0
   62.1390   33.8960   47.9020 C   0  0  0  0  0  0  0  0  0  0  0  0
   62.6152   33.7327   46.9240 H   0  0  0  0  0  0  0  0  0  0  0  0
   62.5758   34.7654   48.4151 H   0  0  0  0  0  0  0  0  0  0  0  0
   62.3620   32.7080   48.7450 N   0  0  0  0  0  0  0  0  0  0  0  0
   63.7050   32.4260   49.1990 C   0  0  0  0  0  0  0  0  0  0  0  0
   64.6840   32.9960   48.6470 O   0  0  0  0  0  0  0  0  0  0  0  0
   63.9760   31.4610   50.3130 C   0  0  0  0  0  0  0  0  0  0  0  0
   63.8339   31.9671   51.2792 H   0  0  0  0  0  0  0  0  0  0  0  0
   63.2818   30.6109   50.2387 H   0  0  0  0  0  0  0  0  0  0  0  0
   65.0112   31.0966   50.2387 H   0  0  0  0  0  0  0  0  0  0  0  0
   61.2170   31.8840   49.1640 C   0  0  0  0  0  0  0  0  0  0  0  0
   61.5812   30.9072   49.5150 H   0  0  0  0  0  0  0  0  0  0  0  0
   60.6820   32.3987   49.9757 H   0  0  0  0  0  0  0  0  0  0  0  0
   60.2590   31.6740   47.9880 C   0  0  0  0  0  0  0  0  0  0  0  0
   60.7233   30.9826   47.2694 H   0  0  0  0  0  0  0  0  0  0  0  0
   59.3186   31.2612   48.3820 H   0  0  0  0  0  0  0  0  0  0  0  0
   59.1830   30.7290   45.5270 C   0  0  0  0  0  0  0  0  0  0  0  0
   60.0426   30.6229   46.2052 H   0  0  0  0  0  0  0  0  0  0  0  0
   58.1080   26.4690   44.1660 C   0  0  0  0  0  0  0  0  0  0  0  0
   57.8510   26.7720   42.8820 C   0  0  0  0  0  0  0  0  0  0  0  0
   58.3655   27.6181   42.4030 H   0  0  0  0  0  0  0  0  0  0  0  0
   57.1262   26.1739   42.3102 H   0  0  0  0  0  0  0  0  0  0  0  0
  1  2  1  0
  2  3  1  0
  3  4  1  0
  4  5  1  0
  5  6  2  0
  5  7  1  0
  7  8  1  0
  8  9  1  0
  9 10  1  0
  9 11  2  0
 11 12  1  0
 12 13  1  0
 12 14  2  0
 14 15  1  0
 15 16  1  0
 15 17  1  0
 15 18  1  0
 18 19  1  0
 18 20  1  0
 18 21  1  0
 14 22  1  0
 22 23  1  0
 23 24  1  0
 23 25  1  0
 23 26  1  0
 26 27  2  0
 27 28  1  0
 27 29  1  0
 29 30  1  0
 29 31  2  0
 31 32  1  0
 31 33  1  0
 33 34  1  0
 34 35  2  0
 34 36  1  0
 36 37  1  0
 37 38  1  0
 37 39  1  0
 37 40  1  0
 40 41  1  0
 40 42  1  0
 40 43  1  0
 43 44  1  0
 44 45  2  0
 44 46  1  0
 46 47  1  0
 46 48  1  0
 46 49  1  0
 43 50  1  0
 50 51  1  0
 50 52  1  0
 50 53  1  0
 53 54  1  0
 53 55  1  0
 33 56  2  0
 56 57  1  0
 22 58  1  0
 58 59  2  0
 59 60  1  0
 59 61  1  0
  8  3  2  0
 58 11  1  0
 56 26  1  0
 53 36  1  0
M  CHG  2   4  -1   7  -1
M  END
>  <UniqueID>  (43) 
42

>  <SMILES>  (43) 
C=c1/c(=C\c2[n-]c(=O)[n-]c2O)cc(CC)n1Cc1cccc(C(=O)N2CCN(C(C)=O)CC2)c1

>  <Energy>  (43) 
134.01549456820248

>  <Genealogy>  (43) 
C=c1c(=Cc2[n-]c(=O)[n-]c2O)cc(CC)n1Cc1cccc(C(=O)N2CCN(C(C)=O)CC2)c1 (protonated)
C=c1/c(=C\c2[n-]c(=O)[n-]c2O)cc(CC)n1Cc1cccc(C(=O)N2CCN(C(C)=O)CC2)c1 (cis-trans isomerization)
C=c1/c(=C\c2[n-]c(=O)[n-]c2O)cc(CC)n1Cc1cccc(C(=O)N2CCN(C(C)=O)CC2)c1 (3D coordinates assigned)
C=c1/c(=C\c2[n-]c(=O)[n-]c2O)cc(CC)n1Cc1cccc(C(=O)N2CCN(C(C)=O)CC2)c1 (nonaromatic ring conformer: 134.01549456820248 kcal/mol)

>  <smiles>  (43) 
C=c1c(=Cc2[nH]c(=O)[nH]c2O)cc(CC)n1Cc1cccc(C(=O)N2CCN(C(C)=O)CC2)c1

>  <score_type>  (43) 
oracle

>  <origin>  (43) 
adg

>  <m_score__min__energy>  (43) 
-14.67

>  <m_primary>  (43) 
energy

$$$$
43:0
     RDKit          3D

 55 57  0  0  0  0  0  0  0  0999 V2000
   59.5290   35.0000   46.2340 C   0  0  0  0  0  0  0  0  0  0  0  0
   59.0940   34.5740   44.8630 C   0  0  0  0  0  0  0  0  0  0  0  0
   57.6760   34.1010   44.9010 C   0  0  0  0  0  0  0  0  0  0  0  0
   57.5770   32.7150   44.3220 C   0  0  0  0  0  0  0  0  0  0  0  0
   57.8750   32.2810   43.1050 N   0  0  0  0  0  0  0  0  0  0  0  0
   57.6130   30.9750   43.0990 N   0  0  0  0  0  0  0  0  0  0  0  0
   57.1530   30.5750   44.2910 C   0  0  0  0  0  0  0  0  0  0  0  0
   56.6490   28.9870   44.8850 S   0  0  0  0  0  0  0  0  0  0  0  0
   58.0210   28.2100   45.7690 C   0  0  0  0  0  0  0  0  0  0  0  0
   58.5280   29.1390   46.8100 C   0  0  0  0  0  0  0  0  0  0  0  0
   58.4910   28.7500   47.9940 O   0  0  0  0  0  0  0  0  0  0  0  0
   59.0220   30.4070   46.4300 N   0  0  0  0  0  0  0  0  0  0  0  0
   59.5280   31.3970   47.2940 C   0  0  0  0  0  0  0  0  0  0  0  0
   58.7960   32.1470   48.1730 C   0  0  0  0  0  0  0  0  0  0  0  0
   59.3650   33.1170   49.0060 C   0  0  0  0  0  0  0  0  0  0  0  0
   60.7190   33.3400   48.9550 C   0  0  0  0  0  0  0  0  0  0  0  0
   61.4640   32.5890   48.0740 C   0  0  0  0  0  0  0  0  0  0  0  0
   63.2090   32.8230   47.9630 S   0  0  0  0  0  0  0  0  0  0  0  0
   63.4570   34.1320   47.2700 O   0  0  0  0  0  0  0  0  0  0  0  0
   63.7620   31.7320   47.1120 O   0  0  0  0  0  0  0  0  0  0  0  0
   63.8650   32.7340   49.5160 N   0  0  0  0  0  0  0  0  0  0  0  0
   65.1940   33.1670   49.7020 C   0  0  0  0  0  0  0  0  0  0  0  0
   66.1260   32.0770   50.1350 C   0  0  0  0  0  0  0  0  0  0  0  0
   65.5870   31.2410   51.1690 N   0  0  0  0  0  0  0  0  0  0  0  0
   66.4980   30.2960   51.7050 C   0  0  0  0  0  0  0  0  0  0  0  0
   64.2570   30.7960   51.0060 C   0  0  0  0  0  0  0  0  0  0  0  0
   63.3180   31.7970   50.4130 C   0  0  0  0  0  0  0  0  0  0  0  0
   60.8930   31.6390   47.2590 C   0  0  0  0  0  0  0  0  0  0  0  0
   57.1280   31.6890   45.0820 N   0  0  0  0  0  0  0  0  0  0  0  0
   58.9581   34.4409   46.9900 H   0  0  0  0  0  0  0  0  0  0  0  0
   60.6023   34.7940   46.3586 H   0  0  0  0  0  0  0  0  0  0  0  0
   59.3455   36.0774   46.3586 H   0  0  0  0  0  0  0  0  0  0  0  0
   59.1752   35.4272   44.1734 H   0  0  0  0  0  0  0  0  0  0  0  0
   59.7397   33.7530   44.5179 H   0  0  0  0  0  0  0  0  0  0  0  0
   57.3255   34.0856   45.9435 H   0  0  0  0  0  0  0  0  0  0  0  0
   57.0524   34.7848   44.3064 H   0  0  0  0  0  0  0  0  0  0  0  0
   57.7470   30.3670   42.2780 H   0  0  0  0  0  0  0  0  0  0  0  0
   57.6719   27.2816   46.2446 H   0  0  0  0  0  0  0  0  0  0  0  0
   58.8292   27.9772   45.0600 H   0  0  0  0  0  0  0  0  0  0  0  0
   58.9990   30.6110   45.3930 H   0  0  0  0  0  0  0  0  0  0  0  0
   57.7101   31.9800   48.2277 H   0  0  0  0  0  0  0  0  0  0  0  0
   58.7331   33.6958   49.6957 H   0  0  0  0  0  0  0  0  0  0  0  0
   61.1938   34.0955   49.5983 H   0  0  0  0  0  0  0  0  0  0  0  0
   65.5610   33.5808   48.7512 H   0  0  0  0  0  0  0  0  0  0  0  0
   65.1789   33.9165   50.5070 H   0  0  0  0  0  0  0  0  0  0  0  0
   66.3552   31.4477   49.2624 H   0  0  0  0  0  0  0  0  0  0  0  0
   67.0234   32.5626   50.5461 H   0  0  0  0  0  0  0  0  0  0  0  0
   66.4615   30.3339   52.8037 H   0  0  0  0  0  0  0  0  0  0  0  0
   66.2230   29.2871   51.3636 H   0  0  0  0  0  0  0  0  0  0  0  0
   67.5163   30.5338   51.3636 H   0  0  0  0  0  0  0  0  0  0  0  0
   64.2717   29.9132   50.3500 H   0  0  0  0  0  0  0  0  0  0  0  0
   63.8797   30.5861   52.0177 H   0  0  0  0  0  0  0  0  0  0  0  0
   62.5360   31.2405   49.8755 H   0  0  0  0  0  0  0  0  0  0  0  0
   62.9605   32.3931   51.2656 H   0  0  0  0  0  0  0  0  0  0  0  0
   61.5282   31.0632   46.5698 H   0  0  0  0  0  0  0  0  0  0  0  0
  1  2  1  0
  2  3  1  0
  3  4  1  0
  4  5  2  0
  5  6  1  0
  6  7  1  0
  7  8  1  0
  8  9  1  0
  9 10  1  0
 10 11  2  0
 10 12  1  0
 12 13  1  0
 13 14  2  0
 14 15  1  0
 15 16  2  0
 16 17  1  0
 17 18  1  0
 18 19  2  0
 18 20  2  0
 18 21  1  0
 21 22  1  0
 22 23  1  0
 23 24  1  0
 24 25  1  0
 24 26  1  0
 26 27  1  0
 17 28  2  0
  7 29  2  0
 29  4  1  0
 28 13  1  0
 27 21  1  0
  1 30  1  0
  1 31  1  0
  1 32  1  0
  2 33  1  0
  2 34  1  0
  3 35  1  0
  3 36  1  0
  6 37  1  0
  9 38  1  0
  9 39  1  0
 12 40  1  0
 14 41  1  0
 15 42  1  0
 16 43  1  0
 22 44  1  0
 22 45  1  0
 23 46  1  0
 23 47  1  0
 25 48  1  0
 25 49  1  0
 25 50  1  0
 26 51  1  0
 26 52  1  0
 27 53  1  0
 27 54  1  0
 28 55  1  0
M  END
>  <smiles>  (44) 
CCCc1n[nH]c(SCC(=O)Nc2cccc(S(=O)(=O)N3CCN(C)CC3)c2)n1

>  <score_type>  (44) 
oracle

>  <origin>  (44) 
adg

>  <m_score__min__energy>  (44) 
-9.3300000000000001

>  <m_primary>  (44) 
energy

$$$$
44:0
     RDKit          3D

 63 67  0  0  0  0  0  0  0  0999 V2000
   56.2660   27.9030   53.5270 C   0  0  0  0  0  0  0  0  0  0  0  0
   55.7440   29.0260   53.0260 C   0  0  0  0  0  0  0  0  0  0  0  0
   54.4230   29.2960   53.0400 N   0  0  0  0  0  0  0  0  0  0  0  0
   54.2760   30.5500   52.5580 C   0  0  0  0  0  0  0  0  0  0  0  0
   53.1150   31.2150   52.4590 C   0  0  0  0  0  0  0  0  0  0  0  0
   52.3090   31.3020   51.2280 C   0  0  0  0  0  0  0  0  0  0  0  0
   52.2990   30.3410   50.2870 N   0  0  0  0  0  0  0  0  0  0  0  0
   51.3980   30.7920   49.3890 C   0  0  0  0  0  0  0  0  0  0  0  0
   51.1230   30.1650   48.3330 O   0  0  0  0  0  0  0  0  0  0  0  0
   50.8110   31.9640   49.7140 N   0  0  0  0  0  0  0  0  0  0  0  0
   51.3860   32.2670   50.8880 C   0  0  0  0  0  0  0  0  0  0  0  0
   51.0410   33.3810   51.6450 O   0  0  0  0  0  0  0  0  0  0  0  0
   55.5110   31.0910   52.2440 C   0  0  0  0  0  0  0  0  0  0  0  0
   56.4470   30.1100   52.5130 C   0  0  0  0  0  0  0  0  0  0  0  0
   57.9050   30.2620   52.3420 C   0  0  0  0  0  0  0  0  0  0  0  0
   58.6590   30.0040   53.3210 O   0  0  0  0  0  0  0  0  0  0  0  0
   58.4780   30.7270   51.1060 N   0  0  0  0  0  0  0  0  0  0  0  0
   57.7670   31.6990   50.2720 C   0  0  0  0  0  0  0  0  0  0  0  0
   58.7580   32.6960   49.6680 C   0  0  0  0  0  0  0  0  0  0  0  0
   59.7750   32.0190   48.8210 N   0  0  0  0  0  0  0  0  0  0  0  0
   60.8350   32.9090   48.2220 C   0  0  0  0  0  0  0  0  0  0  0  0
   60.6220   33.1800   46.7020 C   0  0  0  0  0  0  0  0  0  0  0  0
   60.0080   32.0390   46.0090 N   0  0  0  0  0  0  0  0  0  0  0  0
   58.7770   32.4350   45.3060 C   0  0  0  0  0  0  0  0  0  0  0  0
   57.8580   31.2580   45.1700 C   0  0  0  0  0  0  0  0  0  0  0  0
   56.6730   31.2310   44.4720 C   0  0  0  0  0  0  0  0  0  0  0  0
   56.0880   30.0330   44.6540 N   0  0  0  0  0  0  0  0  0  0  0  0
   56.9400   29.3700   45.4630 C   0  0  0  0  0  0  0  0  0  0  0  0
   58.0340   30.0860   45.8040 N   0  0  0  0  0  0  0  0  0  0  0  0
   61.0050   34.2170   49.0370 C   0  0  0  0  0  0  0  0  0  0  0  0
   61.8220   33.8310   50.2660 C   0  0  0  0  0  0  0  0  0  0  0  0
   62.5990   32.5760   49.8810 C   0  0  0  0  0  0  0  0  0  0  0  0
   62.2440   32.3050   48.4280 C   0  0  0  0  0  0  0  0  0  0  0  0
   60.2210   30.6900   49.3380 C   0  0  0  0  0  0  0  0  0  0  0  0
   59.8830   30.4340   50.8160 C   0  0  0  0  0  0  0  0  0  0  0  0
   57.3526   27.7363   53.4879 H   0  0  0  0  0  0  0  0  0  0  0  0
   55.6092   27.1450   53.9787 H   0  0  0  0  0  0  0  0  0  0  0  0
   53.6800   28.6780   53.4390 H   0  0  0  0  0  0  0  0  0  0  0  0
   52.7397   31.7294   53.3560 H   0  0  0  0  0  0  0  0  0  0  0  0
   55.7084   32.1016   51.8570 H   0  0  0  0  0  0  0  0  0  0  0  0
   57.2436   31.1698   49.4620 H   0  0  0  0  0  0  0  0  0  0  0  0
   57.0406   32.2438   50.8929 H   0  0  0  0  0  0  0  0  0  0  0  0
   58.2044   33.4187   49.0506 H   0  0  0  0  0  0  0  0  0  0  0  0
   59.2815   33.2006   50.4935 H   0  0  0  0  0  0  0  0  0  0  0  0
   59.9670   34.0563   46.5880 H   0  0  0  0  0  0  0  0  0  0  0  0
   61.6103   33.3533   46.2511 H   0  0  0  0  0  0  0  0  0  0  0  0
   59.7450   31.3330   46.7370 H   0  0  0  0  0  0  0  0  0  0  0  0
   58.2710   33.2272   45.8772 H   0  0  0  0  0  0  0  0  0  0  0  0
   59.0387   32.8043   44.3034 H   0  0  0  0  0  0  0  0  0  0  0  0
   56.2695   32.0543   43.8643 H   0  0  0  0  0  0  0  0  0  0  0  0
   56.7608   28.3425   45.8124 H   0  0  0  0  0  0  0  0  0  0  0  0
   61.5391   34.9730   48.4428 H   0  0  0  0  0  0  0  0  0  0  0  0
   60.0339   34.6531   49.3142 H   0  0  0  0  0  0  0  0  0  0  0  0
   62.5153   34.6420   50.5336 H   0  0  0  0  0  0  0  0  0  0  0  0
   61.1757   33.6516   51.1378 H   0  0  0  0  0  0  0  0  0  0  0  0
   63.6806   32.7465   49.9866 H   0  0  0  0  0  0  0  0  0  0  0  0
   62.3429   31.7242   50.5282 H   0  0  0  0  0  0  0  0  0  0  0  0
   62.9705   32.7892   47.7589 H   0  0  0  0  0  0  0  0  0  0  0  0
   62.2621   31.2292   48.1994 H   0  0  0  0  0  0  0  0  0  0  0  0
   59.7382   29.9071   48.7347 H   0  0  0  0  0  0  0  0  0  0  0  0
   61.3183   30.6771   49.2615 H   0  0  0  0  0  0  0  0  0  0  0  0
   60.0832   29.3781   51.0503 H   0  0  0  0  0  0  0  0  0  0  0  0
   60.5073   31.0981   51.4318 H   0  0  0  0  0  0  0  0  0  0  0  0
  1  2  2  0
  2  3  1  0
  3  4  1  0
  4  5  2  3
  5  6  1  0
  6  7  1  0
  7  8  1  0
  8  9  2  0
  8 10  1  0
 10 11  1  0
 11 12  1  0
  4 13  1  0
 13 14  2  0
 14 15  1  0
 15 16  2  0
 15 17  1  0
 17 18  1  0
 18 19  1  0
 19 20  1  0
 20 21  1  0
 21 22  1  0
 22 23  1  0
 23 24  1  0
 24 25  1  0
 25 26  2  0
 26 27  1  0
 27 28  1  0
 28 29  2  0
 21 30  1  0
 30 31  1  0
 31 32  1  0
 32 33  1  0
 20 34  1  0
 34 35  1  0
 14  2  1  0
 35 17  1  0
 11  6  2  0
 33 21  1  0
 29 25  1  0
  1 36  1  0
  1 37  1  0
  3 38  1  0
  5 39  1  0
 13 40  1  0
 18 41  1  0
 18 42  1  0
 19 43  1  0
 19 44  1  0
 22 45  1  0
 22 46  1  0
 23 47  1  0
 24 48  1  0
 24 49  1  0
 26 50  1  0
 28 51  1  0
 30 52  1  0
 30 53  1  0
 31 54  1  0
 31 55  1  0
 32 56  1  0
 32 57  1  0
 33 58  1  0
 33 59  1  0
 34 60  1  0
 34 61  1  0
 35 62  1  0
 35 63  1  0
M  CHG  4   7  -1  10  -1  12  -1  27  -1
M  END
>  <UniqueID>  (45) 
43

>  <SMILES>  (45) 
C=c1[nH]c(=Cc2[n-]c(=O)[n-]c2[O-])cc1C(=O)N1CCN(C2(CNCc3c[n-]cn3)CCCC2)CC1

>  <Energy>  (45) 
179.35727955923213

>  <Genealogy>  (45) 
C=c1[nH]c(=Cc2[n-]c(=O)[n-]c2[O-])cc1C(=O)N1CCN(C2(CNCc3c[n-]cn3)CCCC2)CC1 (protonated)
C=c1[nH]c(=Cc2[n-]c(=O)[n-]c2[O-])cc1C(=O)N1CCN(C2(CNCc3c[n-]cn3)CCCC2)CC1 (3D coordinates assigned)
C=c1[nH]c(=Cc2[n-]c(=O)[n-]c2[O-])cc1C(=O)N1CCN(C2(CNCc3c[n-]cn3)CCCC2)CC1 (nonaromatic ring conformer: 179.35727955923213 kcal/mol)

>  <smiles>  (45) 
C=c1[nH]c(=Cc2[nH]c(=O)[nH]c2O)cc1C(=O)N1CCN(C2(CNCc3c[nH]cn3)CCCC2)CC1

>  <score_type>  (45) 
oracle

>  <origin>  (45) 
adg

>  <m_score__min__energy>  (45) 
-19.93

>  <m_primary>  (45) 
energy

$$$$
45:0
     RDKit          3D

 42 44  0  0  0  0  0  0  0  0999 V2000
   55.1620   29.3180   44.8730 N   0  0  0  0  0  0  0  0  0  0  0  0
   56.6720   29.7330   44.1460 S   0  0  0  0  0  0  0  0  0  0  0  0
   56.9950   28.7420   43.0640 O   0  0  0  0  0  0  0  0  0  0  0  0
   56.5770   31.1020   43.5320 O   0  0  0  0  0  0  0  0  0  0  0  0
   57.9380   29.7160   45.3710 C   0  0  0  0  0  0  0  0  0  0  0  0
   57.8400   28.8620   46.4760 C   0  0  0  0  0  0  0  0  0  0  0  0
   58.8420   28.8570   47.4520 C   0  0  0  0  0  0  0  0  0  0  0  0
   59.9430   29.7200   47.3440 C   0  0  0  0  0  0  0  0  0  0  0  0
   60.9740   29.6750   48.3450 N   0  0  0  0  0  0  0  0  0  0  0  0
   60.7940   29.1270   49.6600 C   0  0  0  0  0  0  0  0  0  0  0  0
   59.8480   28.3270   49.8960 O   0  0  0  0  0  0  0  0  0  0  0  0
   61.7270   29.5070   50.7700 C   0  0  0  0  0  0  0  0  0  0  0  0
   62.7010   30.4920   50.3000 N   0  0  0  0  0  0  0  0  0  0  0  0
   62.4310   31.7350   50.0310 C   0  0  0  0  0  0  0  0  0  0  0  0
   61.4690   32.0250   49.1180 N   0  0  0  0  0  0  0  0  0  0  0  0
   61.1480   33.3090   48.7980 C   0  0  0  0  0  0  0  0  0  0  0  0
   60.0900   33.5650   47.7860 C   0  0  0  0  0  0  0  0  0  0  0  0
   60.4150   34.2310   46.5880 C   0  0  0  0  0  0  0  0  0  0  0  0
   59.4330   34.4730   45.6220 C   0  0  0  0  0  0  0  0  0  0  0  0
   58.1190   34.0490   45.8350 C   0  0  0  0  0  0  0  0  0  0  0  0
   57.1700   34.2850   44.8960 F   0  0  0  0  0  0  0  0  0  0  0  0
   57.7870   33.3770   47.0130 C   0  0  0  0  0  0  0  0  0  0  0  0
   58.7640   33.1320   47.9830 C   0  0  0  0  0  0  0  0  0  0  0  0
   61.8440   34.3580   49.4210 C   0  0  0  0  0  0  0  0  0  0  0  0
   62.8290   34.0440   50.3590 C   0  0  0  0  0  0  0  0  0  0  0  0
   63.4700   34.9610   50.9350 O   0  0  0  0  0  0  0  0  0  0  0  0
   63.1000   32.7470   50.6480 N   0  0  0  0  0  0  0  0  0  0  0  0
   60.0450   30.5650   46.2250 C   0  0  0  0  0  0  0  0  0  0  0  0
   59.0430   30.5680   45.2490 C   0  0  0  0  0  0  0  0  0  0  0  0
   55.3630   28.6070   45.6110 H   0  0  0  0  0  0  0  0  0  0  0  0
   56.9726   28.1931   46.5770 H   0  0  0  0  0  0  0  0  0  0  0  0
   58.7663   28.1722   48.3095 H   0  0  0  0  0  0  0  0  0  0  0  0
   61.9230   30.0330   48.0890 H   0  0  0  0  0  0  0  0  0  0  0  0
   61.1473   29.9374   51.5999 H   0  0  0  0  0  0  0  0  0  0  0  0
   62.2626   28.6086   51.1104 H   0  0  0  0  0  0  0  0  0  0  0  0
   61.4486   34.5631   46.4110 H   0  0  0  0  0  0  0  0  0  0  0  0
   59.6959   34.9985   44.6921 H   0  0  0  0  0  0  0  0  0  0  0  0
   56.7534   33.0391   47.1786 H   0  0  0  0  0  0  0  0  0  0  0  0
   58.4953   32.5975   48.9061 H   0  0  0  0  0  0  0  0  0  0  0  0
   61.6174   35.4059   49.1747 H   0  0  0  0  0  0  0  0  0  0  0  0
   60.9169   31.2269   46.1165 H   0  0  0  0  0  0  0  0  0  0  0  0
   59.1231   31.2415   44.3830 H   0  0  0  0  0  0  0  0  0  0  0  0
  1  2  1  0
  2  3  2  0
  2  4  2  0
  2  5  1  0
  5  6  2  0
  6  7  1  0
  7  8  2  0
  8  9  1  0
  9 10  1  0
 10 11  2  0
 10 12  1  0
 12 13  1  0
 13 14  2  3
 14 15  1  0
 15 16  1  0
 16 17  1  0
 17 18  2  0
 18 19  1  0
 19 20  2  0
 20 21  1  0
 20 22  1  0
 22 23  2  0
 16 24  2  0
 24 25  1  0
 25 26  2  0
 25 27  1  0
  8 28  1  0
 28 29  2  0
 29  5  1  0
 27 14  1  0
 23 17  1  0
  1 30  1  0
  6 31  1  0
  7 32  1  0
  9 33  1  0
 12 34  1  0
 12 35  1  0
 18 36  1  0
 19 37  1  0
 22 38  1  0
 23 39  1  0
 24 40  1  0
 28 41  1  0
 29 42  1  0
M  CHG  3   1  -1  15  -1  27  -1
M  END
>  <UniqueID>  (46) 
44

>  <SMILES>  (46) 
[NH-]S(=O)(=O)c1ccc(NC(=O)CN=c2[n-]c(-c3ccc(F)cc3)cc(=O)[n-]2)cc1

>  <Energy>  (46) 
50.96614767594506

>  <Genealogy>  (46) 
[NH-]S(=O)(=O)c1ccc(NC(=O)CN=c2[n-]c(-c3ccc(F)cc3)cc(=O)[n-]2)cc1 (protonated)
[NH-]S(=O)(=O)c1ccc(NC(=O)CN=c2[n-]c(-c3ccc(F)cc3)cc(=O)[n-]2)cc1 (3D coordinates assigned)
[NH-]S(=O)(=O)c1ccc(NC(=O)CN=c2[n-]c(-c3ccc(F)cc3)cc(=O)[n-]2)cc1 (optimized conformer: 50.96614767594506 kcal/mol)

>  <smiles>  (46) 
NS(=O)(=O)c1ccc(NC(=O)CN=c2[nH]c(-c3ccc(F)cc3)cc(=O)[nH]2)cc1

>  <score_type>  (46) 
oracle

>  <origin>  (46) 
adg

>  <m_score__min__energy>  (46) 
-12.449999999999999

>  <m_primary>  (46) 
energy

$$$$
46:0
     RDKit          3D

 65 70  0  0  0  0  0  0  0  0999 V2000
   58.1830   26.2090   41.6070 O   0  0  0  0  0  0  0  0  0  0  0  0
   57.9720   26.4140   42.8320 C   0  0  0  0  0  0  0  0  0  0  0  0
   57.6960   25.2910   43.6820 N   0  0  0  0  0  0  0  0  0  0  0  0
   57.8200   25.2710   45.1120 C   0  0  0  0  0  0  0  0  0  0  0  0
   56.9040   24.5260   45.8630 C   0  0  0  0  0  0  0  0  0  0  0  0
   56.9770   24.5200   47.2580 C   0  0  0  0  0  0  0  0  0  0  0  0
   57.9740   25.2490   47.9130 C   0  0  0  0  0  0  0  0  0  0  0  0
   58.9260   25.9700   47.1730 C   0  0  0  0  0  0  0  0  0  0  0  0
   59.9700   26.7660   47.8600 C   0  0  0  0  0  0  0  0  0  0  0  0
   61.1860   26.5560   47.5930 O   0  0  0  0  0  0  0  0  0  0  0  0
   59.6270   27.7560   48.8450 N   0  0  0  0  0  0  0  0  0  0  0  0
   58.5660   28.7360   48.5820 C   0  0  0  0  0  0  0  0  0  0  0  0
   59.0620   30.1310   48.9690 C   0  0  0  0  0  0  0  0  0  0  0  0
   59.5070   30.2340   50.4630 C   0  0  0  0  0  0  0  0  0  0  0  0
   60.6930   31.1220   50.6020 N   0  0  0  0  0  0  0  0  0  0  0  0
   61.8960   30.6080   49.8950 C   0  0  0  0  0  0  0  0  0  0  0  0
   62.5300   31.7900   49.2790 C   0  0  0  0  0  0  0  0  0  0  0  0
   63.7680   31.8780   48.6440 C   0  0  0  0  0  0  0  0  0  0  0  0
   64.1540   33.1130   48.0940 C   0  0  0  0  0  0  0  0  0  0  0  0
   63.3000   34.2280   48.1930 C   0  0  0  0  0  0  0  0  0  0  0  0
   62.0580   34.1080   48.8390 C   0  0  0  0  0  0  0  0  0  0  0  0
   61.7050   32.8680   49.3750 C   0  0  0  0  0  0  0  0  0  0  0  0
   60.4630   32.4970   50.0830 C   0  0  0  0  0  0  0  0  0  0  0  0
   59.7910   28.8250   51.0670 C   0  0  0  0  0  0  0  0  0  0  0  0
   60.4480   27.8790   50.0560 C   0  0  0  0  0  0  0  0  0  0  0  0
   58.8470   25.9670   45.7700 C   0  0  0  0  0  0  0  0  0  0  0  0
   58.0020   27.8030   43.3530 C   0  0  0  0  0  0  0  0  0  0  0  0
   57.0200   28.6160   43.0710 N   0  0  0  0  0  0  0  0  0  0  0  0
   56.9090   30.2160   43.7050 S   0  0  0  0  0  0  0  0  0  0  0  0
   56.9230   31.2080   42.5760 O   0  0  0  0  0  0  0  0  0  0  0  0
   55.6440   30.3500   44.5020 O   0  0  0  0  0  0  0  0  0  0  0  0
   58.2860   30.4750   44.7360 C   0  0  0  0  0  0  0  0  0  0  0  0
   58.4310   31.6880   45.4260 C   0  0  0  0  0  0  0  0  0  0  0  0
   59.5390   31.8950   46.2510 C   0  0  0  0  0  0  0  0  0  0  0  0
   60.5030   30.8950   46.3870 C   0  0  0  0  0  0  0  0  0  0  0  0
   60.3610   29.6850   45.6960 C   0  0  0  0  0  0  0  0  0  0  0  0
   59.2490   29.4640   44.8650 C   0  0  0  0  0  0  0  0  0  0  0  0
   59.1240   28.2100   44.1680 N   0  0  0  0  0  0  0  0  0  0  0  0
   56.1233   23.9427   45.3528 H   0  0  0  0  0  0  0  0  0  0  0  0
   56.2479   23.9400   47.8428 H   0  0  0  0  0  0  0  0  0  0  0  0
   58.0132   25.2581   49.0123 H   0  0  0  0  0  0  0  0  0  0  0  0
   58.3080   28.7208   47.5128 H   0  0  0  0  0  0  0  0  0  0  0  0
   57.6744   28.4833   49.1747 H   0  0  0  0  0  0  0  0  0  0  0  0
   59.9203   30.3864   48.3302 H   0  0  0  0  0  0  0  0  0  0  0  0
   58.2215   30.8268   48.8298 H   0  0  0  0  0  0  0  0  0  0  0  0
   58.6773   30.6797   51.0312 H   0  0  0  0  0  0  0  0  0  0  0  0
   62.5849   30.1302   50.6071 H   0  0  0  0  0  0  0  0  0  0  0  0
   61.6330   29.8492   49.1433 H   0  0  0  0  0  0  0  0  0  0  0  0
   64.4281   31.0008   48.5748 H   0  0  0  0  0  0  0  0  0  0  0  0
   65.1248   33.2083   47.5855 H   0  0  0  0  0  0  0  0  0  0  0  0
   63.6054   35.1939   47.7643 H   0  0  0  0  0  0  0  0  0  0  0  0
   61.3800   34.9704   48.9205 H   0  0  0  0  0  0  0  0  0  0  0  0
   60.2715   33.1934   50.9127 H   0  0  0  0  0  0  0  0  0  0  0  0
   59.5876   32.5397   49.4182 H   0  0  0  0  0  0  0  0  0  0  0  0
   60.4616   28.9396   51.9314 H   0  0  0  0  0  0  0  0  0  0  0  0
   58.8267   28.3851   51.3613 H   0  0  0  0  0  0  0  0  0  0  0  0
   61.4371   28.2748   49.7821 H   0  0  0  0  0  0  0  0  0  0  0  0
   60.5467   26.8850   50.5167 H   0  0  0  0  0  0  0  0  0  0  0  0
   59.5971   26.5153   45.1812 H   0  0  0  0  0  0  0  0  0  0  0  0
   56.2450   28.3100   42.4420 H   0  0  0  0  0  0  0  0  0  0  0  0
   57.6717   32.4764   45.3172 H   0  0  0  0  0  0  0  0  0  0  0  0
   59.6517   32.8455   46.7931 H   0  0  0  0  0  0  0  0  0  0  0  0
   61.3751   31.0573   47.0375 H   0  0  0  0  0  0  0  0  0  0  0  0
   61.1256   28.9016   45.8044 H   0  0  0  0  0  0  0  0  0  0  0  0
   59.8860   27.5090   44.3100 H   0  0  0  0  0  0  0  0  0  0  0  0
  1  2  2  0
  2  3  1  0
  3  4  1  0
  4  5  2  0
  5  6  1  0
  6  7  2  0
  7  8  1  0
  8  9  1  0
  9 10  2  0
  9 11  1  0
 11 12  1  0
 12 13  1  0
 13 14  1  0
 14 15  1  0
 15 16  1  0
 16 17  1  0
 17 18  2  0
 18 19  1  0
 19 20  2  0
 20 21  1  0
 21 22  2  0
 22 23  1  0
 14 24  1  0
 24 25  1  0
  8 26  2  0
  2 27  1  0
 27 28  2  0
 28 29  1  0
 29 30  2  0
 29 31  2  0
 29 32  1  0
 32 33  2  0
 33 34  1  0
 34 35  2  0
 35 36  1  0
 36 37  2  0
 37 38  1  0
 26  4  1  0
 38 27  1  0
 25 11  1  0
 37 32  1  0
 23 15  1  0
 22 17  1  0
  5 39  1  0
  6 40  1  0
  7 41  1  0
 12 42  1  0
 12 43  1  0
 13 44  1  0
 13 45  1  0
 14 46  1  0
 16 47  1  0
 16 48  1  0
 18 49  1  0
 19 50  1  0
 20 51  1  0
 21 52  1  0
 23 53  1  0
 23 54  1  0
 24 55  1  0
 24 56  1  0
 25 57  1  0
 25 58  1  0
 26 59  1  0
 28 60  1  0
 33 61  1  0
 34 62  1  0
 35 63  1  0
 36 64  1  0
 38 65  1  0
M  CHG  2   3  -1  28   1
M  END
>  <UniqueID>  (47) 
45

>  <SMILES>  (47) 
O=C([N-]c1cccc(C(=O)N2CCC(N3Cc4ccccc4C3)CC2)c1)C1=[NH+]S(=O)(=O)c2ccccc2N1

>  <Energy>  (47) 
104.3365623765259

>  <Genealogy>  (47) 
O=C([N-]c1cccc(C(=O)N2CCC(N3Cc4ccccc4C3)CC2)c1)C1=[NH+]S(=O)(=O)c2ccccc2N1 (protonated)
O=C([N-]c1cccc(C(=O)N2CCC(N3Cc4ccccc4C3)CC2)c1)C1=[NH+]S(=O)(=O)c2ccccc2N1 (3D coordinates assigned)
O=C([N-]c1cccc(C(=O)N2CCC(N3Cc4ccccc4C3)CC2)c1)C1=[NH+]S(=O)(=O)c2ccccc2N1 (nonaromatic ring conformer: 104.3365623765259 kcal/mol)

>  <smiles>  (47) 
O=C(Nc1cccc(C(=O)N2CCC(N3Cc4ccccc4C3)CC2)c1)C1=NS(=O)(=O)c2ccccc2N1

>  <score_type>  (47) 
oracle

>  <origin>  (47) 
adg

>  <m_score__min__energy>  (47) 
-10.449999999999999

>  <m_primary>  (47) 
energy

$$$$
47:0
     RDKit          3D

 50 52  0  0  0  0  0  0  0  0999 V2000
   55.1450   27.0810   45.2800 H   0  0  0  0  0  0  0  0  0  0  0  0
   55.0010   26.3320   45.9920 N   0  0  0  0  0  0  0  0  0  0  0  0
   56.1020   25.5800   46.4990 C   0  0  0  0  0  0  0  0  0  0  0  0
   55.8770   24.5010   47.1130 O   0  0  0  0  0  0  0  0  0  0  0  0
   57.4920   26.0590   46.3150 C   0  0  0  0  0  0  0  0  0  0  0  0
   58.5780   25.2710   46.7320 C   0  0  0  0  0  0  0  0  0  0  0  0
   58.3947   24.2950   47.2052 H   0  0  0  0  0  0  0  0  0  0  0  0
   59.8880   25.7180   46.5500 C   0  0  0  0  0  0  0  0  0  0  0  0
   60.7311   25.0900   46.8735 H   0  0  0  0  0  0  0  0  0  0  0  0
   60.1320   26.9590   45.9590 C   0  0  0  0  0  0  0  0  0  0  0  0
   61.1674   27.3002   45.8126 H   0  0  0  0  0  0  0  0  0  0  0  0
   59.0640   27.7750   45.5500 C   0  0  0  0  0  0  0  0  0  0  0  0
   59.3370   29.0930   44.9270 C   0  0  0  0  0  0  0  0  0  0  0  0
   60.4200   29.2650   44.3050 O   0  0  0  0  0  0  0  0  0  0  0  0
   58.3910   30.2220   45.0640 C   0  0  0  0  0  0  0  0  0  0  0  0
   58.6790   31.3500   45.7370 N   0  0  0  0  0  0  0  0  0  0  0  0
   57.5750   32.1160   45.5930 C   0  0  0  0  0  0  0  0  0  0  0  0
   57.4250   33.4490   46.2000 C   0  0  0  0  0  0  0  0  0  0  0  0
   56.7795   34.1923   45.7092 H   0  0  0  0  0  0  0  0  0  0  0  0
   58.0550   33.7790   47.3350 C   0  0  0  0  0  0  0  0  0  0  0  0
   57.4494   34.1167   48.1889 H   0  0  0  0  0  0  0  0  0  0  0  0
   59.5350   33.7120   47.5000 C   0  0  0  0  0  0  0  0  0  0  0  0
   60.3770   34.0260   46.4220 C   0  0  0  0  0  0  0  0  0  0  0  0
   59.9445   34.3326   45.4582 H   0  0  0  0  0  0  0  0  0  0  0  0
   61.7570   33.9500   46.5710 C   0  0  0  0  0  0  0  0  0  0  0  0
   62.4113   34.2029   45.7237 H   0  0  0  0  0  0  0  0  0  0  0  0
   62.3210   33.5550   47.7880 C   0  0  0  0  0  0  0  0  0  0  0  0
   63.8020   33.4880   47.9150 C   0  0  0  0  0  0  0  0  0  0  0  0
   64.5230   33.1510   46.9390 O   0  0  0  0  0  0  0  0  0  0  0  0
   64.4170   33.7990   49.1230 O   0  0  0  0  0  0  0  0  0  0  0  0
   61.4530   33.2310   48.8550 C   0  0  0  0  0  0  0  0  0  0  0  0
   61.9320   32.8690   49.9670 O   0  0  0  0  0  0  0  0  0  0  0  0
   60.0910   33.3040   48.6920 N   0  0  0  0  0  0  0  0  0  0  0  0
   59.2450   32.9700   49.8080 C   0  0  0  0  0  0  0  0  0  0  0  0
   59.0160   33.8430   50.6890 O   0  0  0  0  0  0  0  0  0  0  0  0
   58.6490   31.6610   49.9120 N   0  0  0  0  0  0  0  0  0  0  0  0
   57.7010   31.3840   50.9940 C   0  0  0  0  0  0  0  0  0  0  0  0
   58.1990   31.5295   51.9640 H   0  0  0  0  0  0  0  0  0  0  0  0
   56.8442   32.0694   50.9152 H   0  0  0  0  0  0  0  0  0  0  0  0
   57.3480   30.3452   50.9152 H   0  0  0  0  0  0  0  0  0  0  0  0
   58.9750   30.6310   48.9230 C   0  0  0  0  0  0  0  0  0  0  0  0
   59.2679   29.7055   49.4404 H   0  0  0  0  0  0  0  0  0  0  0  0
   58.0947   30.4360   48.2929 H   0  0  0  0  0  0  0  0  0  0  0  0
   59.8072   30.9780   48.2929 H   0  0  0  0  0  0  0  0  0  0  0  0
   56.6000   31.5380   44.8590 N   0  0  0  0  0  0  0  0  0  0  0  0
   57.1240   30.3450   44.5270 C   0  0  0  0  0  0  0  0  0  0  0  0
   56.4330   29.4010   43.7710 O   0  0  0  0  0  0  0  0  0  0  0  0
   56.5940   28.4070   43.8670 H   0  0  0  0  0  0  0  0  0  0  0  0
   57.7460   27.3080   45.7170 C   0  0  0  0  0  0  0  0  0  0  0  0
   56.9035   27.9275   45.3756 H   0  0  0  0  0  0  0  0  0  0  0  0
  1  2  1  0
  2  3  1  0
  3  4  2  0
  3  5  1  0
  5  6  2  0
  6  7  1  0
  6  8  1  0
  8  9  1  0
  8 10  2  0
 10 11  1  0
 10 12  1  0
 12 13  1  0
 13 14  2  0
 13 15  1  0
 15 16  1  0
 16 17  2  0
 17 18  1  0
 18 19  1  0
 18 20  2  0
 20 21  1  0
 20 22  1  0
 22 23  2  0
 23 24  1  0
 23 25  1  0
 25 26  1  0
 25 27  2  0
 27 28  1  0
 28 29  2  0
 28 30  1  0
 27 31  1  0
 31 32  2  0
 31 33  1  0
 33 34  1  0
 34 35  2  0
 34 36  1  0
 36 37  1  0
 37 38  1  0
 37 39  1  0
 37 40  1  0
 36 41  1  0
 41 42  1  0
 41 43  1  0
 41 44  1  0
 17 45  1  0
 45 46  1  0
 46 47  1  0
 47 48  1  0
 12 49  2  0
 49 50  1  0
 49  5  1  0
 46 15  2  0
 33 22  1  0
M  CHG  3   2  -1  30  -1  45  -1
M  END
>  <UniqueID>  (48) 
46

>  <SMILES>  (48) 
CN(C)C(=O)n1c(/C=C/c2nc(C(=O)c3cccc(C([NH-])=O)c3)c(O)[n-]2)ccc(C(=O)[O-])c1=O

>  <Energy>  (48) 
96.54096499667467

>  <Genealogy>  (48) 
CN(C)C(=O)n1c(C=Cc2nc(C(=O)c3cccc(C([NH-])=O)c3)c(O)[n-]2)ccc(C(=O)[O-])c1=O (protonated)
CN(C)C(=O)n1c(/C=C/c2nc(C(=O)c3cccc(C([NH-])=O)c3)c(O)[n-]2)ccc(C(=O)[O-])c1=O (cis-trans isomerization)
CN(C)C(=O)n1c(/C=C/c2nc(C(=O)c3cccc(C([NH-])=O)c3)c(O)[n-]2)ccc(C(=O)[O-])c1=O (3D coordinates assigned)
CN(C)C(=O)n1c(/C=C/c2nc(C(=O)c3cccc(C([NH-])=O)c3)c(O)[n-]2)ccc(C(=O)[O-])c1=O (optimized conformer: 96.54096499667467 kcal/mol)

>  <smiles>  (48) 
CN(C)C(=O)n1c(C=Cc2nc(C(=O)c3cccc(C(N)=O)c3)c(O)[nH]2)ccc(C(=O)O)c1=O

>  <score_type>  (48) 
oracle

>  <origin>  (48) 
adg

>  <m_score__min__energy>  (48) 
-14.890000000000001

>  <m_primary>  (48) 
energy

$$$$
48:0
     RDKit          3D

 71 73  0  0  0  0  0  0  0  0999 V2000
   62.2960   33.8250   46.5330 C   0  0  0  0  0  0  0  0  0  0  0  0
   63.6660   33.2010   46.7750 C   0  0  0  0  0  0  0  0  0  0  0  0
   64.1010   33.4710   48.1060 O   0  0  0  0  0  0  0  0  0  0  0  0
   64.1530   32.4940   49.1080 C   0  0  0  0  0  0  0  0  0  0  0  0
   65.2410   32.2340   49.6840 O   0  0  0  0  0  0  0  0  0  0  0  0
   62.9370   31.7550   49.4900 C   0  0  0  0  0  0  0  0  0  0  0  0
   62.0820   31.2220   48.5950 N   0  0  0  0  0  0  0  0  0  0  0  0
   61.1320   30.6050   49.3210 C   0  0  0  0  0  0  0  0  0  0  0  0
   60.0490   29.7720   48.6890 C   0  0  0  0  0  0  0  0  0  0  0  0
   60.3840   29.3920   47.2760 C   0  0  0  0  0  0  0  0  0  0  0  0
   60.8740   30.2620   46.5080 O   0  0  0  0  0  0  0  0  0  0  0  0
   60.2020   28.0450   46.8200 N   0  0  0  0  0  0  0  0  0  0  0  0
   59.1320   27.6210   45.9210 C   0  0  0  0  0  0  0  0  0  0  0  0
   58.7380   28.7500   44.9630 C   0  0  0  0  0  0  0  0  0  0  0  0
   57.6320   29.6420   45.5520 C   0  0  0  0  0  0  0  0  0  0  0  0
   57.5020   30.8960   44.7880 N   0  0  0  0  0  0  0  0  0  0  0  0
   56.9130   30.8700   43.4380 C   0  0  0  0  0  0  0  0  0  0  0  0
   55.8950   29.7430   43.3240 C   0  0  0  0  0  0  0  0  0  0  0  0
   58.0250   32.1320   45.3320 C   0  0  0  0  0  0  0  0  0  0  0  0
   58.0690   33.2960   44.5430 C   0  0  0  0  0  0  0  0  0  0  0  0
   58.5160   34.5040   45.0860 C   0  0  0  0  0  0  0  0  0  0  0  0
   58.9190   34.5690   46.4210 C   0  0  0  0  0  0  0  0  0  0  0  0
   58.9000   33.4180   47.2190 C   0  0  0  0  0  0  0  0  0  0  0  0
   59.2930   33.4940   48.6660 C   0  0  0  0  0  0  0  0  0  0  0  0
   58.4410   32.2060   46.6770 C   0  0  0  0  0  0  0  0  0  0  0  0
   61.3490   30.7220   50.6570 N   0  0  0  0  0  0  0  0  0  0  0  0
   60.5510   30.1150   51.7320 C   0  0  0  0  0  0  0  0  0  0  0  0
   59.1880   30.7590   51.8130 C   0  0  0  0  0  0  0  0  0  0  0  0
   59.0630   32.1580   51.8590 C   0  0  0  0  0  0  0  0  0  0  0  0
   57.8030   32.7500   51.9870 C   0  0  0  0  0  0  0  0  0  0  0  0
   56.6590   31.9510   52.0580 C   0  0  0  0  0  0  0  0  0  0  0  0
   56.7710   30.5600   51.9920 C   0  0  0  0  0  0  0  0  0  0  0  0
   58.0300   29.9640   51.8660 C   0  0  0  0  0  0  0  0  0  0  0  0
   62.5000   31.4350   50.7680 C   0  0  0  0  0  0  0  0  0  0  0  0
   63.2000   31.7920   52.0510 C   0  0  0  0  0  0  0  0  0  0  0  0
   61.8168   34.0433   47.4988 H   0  0  0  0  0  0  0  0  0  0  0  0
   62.4137   34.7583   45.9628 H   0  0  0  0  0  0  0  0  0  0  0  0
   61.6692   33.1236   45.9628 H   0  0  0  0  0  0  0  0  0  0  0  0
   63.6010   32.1129   46.6275 H   0  0  0  0  0  0  0  0  0  0  0  0
   64.3879   33.6331   46.0664 H   0  0  0  0  0  0  0  0  0  0  0  0
   62.1570   31.2490   47.5540 H   0  0  0  0  0  0  0  0  0  0  0  0
   59.9153   28.8547   49.2812 H   0  0  0  0  0  0  0  0  0  0  0  0
   59.1268   30.3714   48.6700 H   0  0  0  0  0  0  0  0  0  0  0  0
   59.4765   26.7562   45.3350 H   0  0  0  0  0  0  0  0  0  0  0  0
   58.2531   27.3525   46.5255 H   0  0  0  0  0  0  0  0  0  0  0  0
   59.6240   29.3695   44.7598 H   0  0  0  0  0  0  0  0  0  0  0  0
   58.3525   28.2942   44.0391 H   0  0  0  0  0  0  0  0  0  0  0  0
   56.6758   29.0992   45.5180 H   0  0  0  0  0  0  0  0  0  0  0  0
   57.8975   29.8900   46.5903 H   0  0  0  0  0  0  0  0  0  0  0  0
   56.4138   31.8304   43.2419 H   0  0  0  0  0  0  0  0  0  0  0  0
   57.7139   30.7029   42.7027 H   0  0  0  0  0  0  0  0  0  0  0  0
   55.5979   29.4141   44.3307 H   0  0  0  0  0  0  0  0  0  0  0  0
   55.0094   30.1025   42.7795 H   0  0  0  0  0  0  0  0  0  0  0  0
   56.3424   28.8984   42.7795 H   0  0  0  0  0  0  0  0  0  0  0  0
   57.7493   33.2552   43.4913 H   0  0  0  0  0  0  0  0  0  0  0  0
   58.5504   35.4071   44.4588 H   0  0  0  0  0  0  0  0  0  0  0  0
   59.2523   35.5267   46.8474 H   0  0  0  0  0  0  0  0  0  0  0  0
   58.4076   33.3228   49.2959 H   0  0  0  0  0  0  0  0  0  0  0  0
   60.0502   32.7256   48.8811 H   0  0  0  0  0  0  0  0  0  0  0  0
   59.7091   34.4893   48.8811 H   0  0  0  0  0  0  0  0  0  0  0  0
   58.4058   31.3058   47.3082 H   0  0  0  0  0  0  0  0  0  0  0  0
   60.4313   29.0403   51.5302 H   0  0  0  0  0  0  0  0  0  0  0  0
   61.0719   30.2677   52.6887 H   0  0  0  0  0  0  0  0  0  0  0  0
   59.9608   32.7902   51.7940 H   0  0  0  0  0  0  0  0  0  0  0  0
   57.7122   33.8453   52.0318 H   0  0  0  0  0  0  0  0  0  0  0  0
   55.6688   32.4178   52.1660 H   0  0  0  0  0  0  0  0  0  0  0  0
   55.8684   29.9331   52.0392 H   0  0  0  0  0  0  0  0  0  0  0  0
   58.1143   28.8688   51.8082 H   0  0  0  0  0  0  0  0  0  0  0  0
   62.5827   31.4772   52.9053 H   0  0  0  0  0  0  0  0  0  0  0  0
   64.1726   31.2798   52.0929 H   0  0  0  0  0  0  0  0  0  0  0  0
   63.3565   32.8800   52.0929 H   0  0  0  0  0  0  0  0  0  0  0  0
  1  2  1  0
  2  3  1  0
  3  4  1  0
  4  5  2  0
  4  6  1  0
  6  7  1  0
  7  8  2  0
  8  9  1  0
  9 10  1  0
 10 11  2  0
 10 12  1  0
 12 13  1  0
 13 14  1  0
 14 15  1  0
 15 16  1  0
 16 17  1  0
 17 18  1  0
 16 19  1  0
 19 20  2  0
 20 21  1  0
 21 22  2  0
 22 23  1  0
 23 24  1  0
 23 25  2  0
  8 26  1  0
 26 27  1  0
 27 28  1  0
 28 29  2  0
 29 30  1  0
 30 31  2  0
 31 32  1  0
 32 33  2  0
 26 34  1  0
 34 35  1  0
 34  6  2  0
 25 19  1  0
 33 28  1  0
  1 36  1  0
  1 37  1  0
  1 38  1  0
  2 39  1  0
  2 40  1  0
  7 41  1  0
  9 42  1  0
  9 43  1  0
 13 44  1  0
 13 45  1  0
 14 46  1  0
 14 47  1  0
 15 48  1  0
 15 49  1  0
 17 50  1  0
 17 51  1  0
 18 52  1  0
 18 53  1  0
 18 54  1  0
 20 55  1  0
 21 56  1  0
 22 57  1  0
 24 58  1  0
 24 59  1  0
 24 60  1  0
 25 61  1  0
 27 62  1  0
 27 63  1  0
 29 64  1  0
 30 65  1  0
 31 66  1  0
 32 67  1  0
 33 68  1  0
 35 69  1  0
 35 70  1  0
 35 71  1  0
M  CHG  2   7   1  12  -1
M  END
>  <UniqueID>  (49) 
47

>  <SMILES>  (49) 
CCOC(=O)c1[nH+]c(CC(=O)[N-]CCCN(CC)c2cccc(C)c2)n(Cc2ccccc2)c1C

>  <Energy>  (49) 
87.33631865388962

>  <Genealogy>  (49) 
CCOC(=O)c1[nH+]c(CC(=O)[N-]CCCN(CC)c2cccc(C)c2)n(Cc2ccccc2)c1C (protonated)
CCOC(=O)c1[nH+]c(CC(=O)[N-]CCCN(CC)c2cccc(C)c2)n(Cc2ccccc2)c1C (3D coordinates assigned)
CCOC(=O)c1[nH+]c(CC(=O)[N-]CCCN(CC)c2cccc(C)c2)n(Cc2ccccc2)c1C (optimized conformer: 87.33631865388962 kcal/mol)

>  <smiles>  (49) 
CCOC(=O)c1nc(CC(=O)NCCCN(CC)c2cccc(C)c2)n(Cc2ccccc2)c1C

>  <score_type>  (49) 
oracle

>  <origin>  (49) 
adg

>  <m_score__min__energy>  (49) 
-9.6300000000000008

>  <m_primary>  (49) 
energy

$$$$
49:0
     RDKit          3D

 31 33  0  0  0  0  0  0  0  0999 V2000
   55.9855   28.7281   42.8208 H   0  0  0  0  0  0  0  0  0  0  0  0
   56.1340   29.6990   43.3160 C   0  0  0  0  0  0  0  0  0  0  0  0
   55.7131   30.6131   42.8718 H   0  0  0  0  0  0  0  0  0  0  0  0
   56.8250   29.7680   44.4560 C   0  0  0  0  0  0  0  0  0  0  0  0
   57.0370   30.9330   45.1050 N   0  0  0  0  0  0  0  0  0  0  0  0
   57.7390   30.6730   46.1960 N   0  0  0  0  0  0  0  0  0  0  0  0
   58.1920   31.6940   47.1000 C   0  0  0  0  0  0  0  0  0  0  0  0
   57.4570   32.6950   47.3120 O   0  0  0  0  0  0  0  0  0  0  0  0
   59.4960   31.6000   47.7940 C   0  0  0  0  0  0  0  0  0  0  0  0
   60.6160   32.2520   47.2490 C   0  0  0  0  0  0  0  0  0  0  0  0
   60.5143   32.8266   46.3166 H   0  0  0  0  0  0  0  0  0  0  0  0
   61.8590   32.1740   47.8860 C   0  0  0  0  0  0  0  0  0  0  0  0
   63.3770   33.0500   47.1270 Br  0  0  0  0  0  0  0  0  0  0  0  0
   61.9910   31.4550   49.0780 C   0  0  0  0  0  0  0  0  0  0  0  0
   62.9704   31.3884   49.5743 H   0  0  0  0  0  0  0  0  0  0  0  0
   60.8790   30.8210   49.6390 C   0  0  0  0  0  0  0  0  0  0  0  0
   60.9848   30.2593   50.5788 H   0  0  0  0  0  0  0  0  0  0  0  0
   59.6320   30.8980   49.0100 C   0  0  0  0  0  0  0  0  0  0  0  0
   58.5330   30.2930   49.6100 O   0  0  0  0  0  0  0  0  0  0  0  0
   58.0070   29.3510   46.2430 C   0  0  0  0  0  0  0  0  0  0  0  0
   58.7630   28.8170   47.0990 O   0  0  0  0  0  0  0  0  0  0  0  0
   57.4180   28.7150   45.1600 C   0  0  0  0  0  0  0  0  0  0  0  0
   57.4470   27.4120   44.8150 C   0  0  0  0  0  0  0  0  0  0  0  0
   57.6961   27.1658   43.7722 H   0  0  0  0  0  0  0  0  0  0  0  0
   57.1690   26.2930   45.7340 C   0  0  0  0  0  0  0  0  0  0  0  0
   58.3180   25.2980   46.4710 S   0  0  0  0  0  0  0  0  0  0  0  0
   57.1690   24.5410   47.4350 C   0  0  0  0  0  0  0  0  0  0  0  0
   57.4240   23.6210   48.2550 O   0  0  0  0  0  0  0  0  0  0  0  0
   55.9270   25.0360   47.2490 N   0  0  0  0  0  0  0  0  0  0  0  0
   55.9320   26.0220   46.3130 C   0  0  0  0  0  0  0  0  0  0  0  0
   54.7720   26.7070   45.9720 O   0  0  0  0  0  0  0  0  0  0  0  0
  1  2  1  0
  2  3  1  0
  2  4  2  0
  4  5  1  0
  5  6  1  0
  6  7  1  0
  7  8  2  0
  7  9  1  0
  9 10  2  0
 10 11  1  0
 10 12  1  0
 12 13  1  0
 12 14  2  0
 14 15  1  0
 14 16  1  0
 16 17  1  0
 16 18  2  0
 18 19  1  0
  6 20  1  0
 20 21  2  0
 20 22  1  0
 22 23  2  0
 23 24  1  0
 23 25  1  0
 25 26  1  0
 26 27  1  0
 27 28  2  0
 27 29  1  0
 29 30  1  0
 30 31  1  0
 22  4  1  0
 30 25  2  0
 18  9  1  0
M  CHG  4   5  -1  19  -1  29  -1  31  -1
M  END
>  <UniqueID>  (50) 
48

>  <SMILES>  (50) 
C=c1[n-]n(C(=O)c2cc(Br)ccc2[O-])c(=O)/c1=C\c1sc(=O)[n-]c1[O-]

>  <Energy>  (50) 
113.50354603035845

>  <Genealogy>  (50) 
C=c1[n-]n(C(=O)c2cc(Br)ccc2[O-])c(=O)c1=Cc1sc(=O)[n-]c1[O-] (protonated)
C=c1[n-]n(C(=O)c2cc(Br)ccc2[O-])c(=O)/c1=C\c1sc(=O)[n-]c1[O-] (cis-trans isomerization)
C=c1[n-]n(C(=O)c2cc(Br)ccc2[O-])c(=O)/c1=C\c1sc(=O)[n-]c1[O-] (3D coordinates assigned)
C=c1[n-]n(C(=O)c2cc(Br)ccc2[O-])c(=O)/c1=C\c1sc(=O)[n-]c1[O-] (optimized conformer: 113.50354603035845 kcal/mol)

>  <smiles>  (50) 
C=c1[nH]n(C(=O)c2cc(Br)ccc2O)c(=O)c1=Cc1sc(=O)[nH]c1O

>  <score_type>  (50) 
oracle

>  <origin>  (50) 
adg

>  <m_score__min__energy>  (50) 
-16.77

>  <m_primary>  (50) 
energy

$$$$
50:0
     RDKit          3D

 48 50  0  0  0  0  0  0  0  0999 V2000
   57.6950   29.1950   45.1470 C   0  0  0  0  0  0  0  0  0  0  0  0
   57.2900   27.8490   45.6570 C   0  0  0  0  0  0  0  0  0  0  0  0
   56.0360   27.3710   45.6260 N   0  0  0  0  0  0  0  0  0  0  0  0
   56.1330   26.1300   46.1360 C   0  0  0  0  0  0  0  0  0  0  0  0
   55.1450   25.3630   46.2730 O   0  0  0  0  0  0  0  0  0  0  0  0
   57.3880   25.7770   46.4860 N   0  0  0  0  0  0  0  0  0  0  0  0
   58.1200   26.8650   46.1670 C   0  0  0  0  0  0  0  0  0  0  0  0
   59.5940   26.9730   46.4090 C   0  0  0  0  0  0  0  0  0  0  0  0
   59.8490   27.6730   47.7160 C   0  0  0  0  0  0  0  0  0  0  0  0
   60.0050   26.9750   48.7540 O   0  0  0  0  0  0  0  0  0  0  0  0
   59.8780   29.1490   47.8280 C   0  0  0  0  0  0  0  0  0  0  0  0
   59.2610   29.8130   48.9040 C   0  0  0  0  0  0  0  0  0  0  0  0
   59.3080   31.2070   48.9970 C   0  0  0  0  0  0  0  0  0  0  0  0
   59.9760   31.9580   48.0220 C   0  0  0  0  0  0  0  0  0  0  0  0
   60.0440   33.7180   48.1480 S   0  0  0  0  0  0  0  0  0  0  0  0
   61.4550   34.1690   47.8860 O   0  0  0  0  0  0  0  0  0  0  0  0
   59.6860   34.1260   49.5510 O   0  0  0  0  0  0  0  0  0  0  0  0
   58.9660   34.5140   47.0230 N   0  0  0  0  0  0  0  0  0  0  0  0
   59.6210   34.8700   45.7410 C   0  0  0  0  0  0  0  0  0  0  0  0
   58.8820   34.3500   44.5020 C   0  0  0  0  0  0  0  0  0  0  0  0
   58.5150   32.8760   44.6950 C   0  0  0  0  0  0  0  0  0  0  0  0
   57.8690   32.3080   43.4260 C   0  0  0  0  0  0  0  0  0  0  0  0
   57.5930   32.6910   45.9210 C   0  0  0  0  0  0  0  0  0  0  0  0
   57.6450   33.8630   46.9230 C   0  0  0  0  0  0  0  0  0  0  0  0
   60.5620   31.3040   46.9310 C   0  0  0  0  0  0  0  0  0  0  0  0
   60.5140   29.9120   46.8350 C   0  0  0  0  0  0  0  0  0  0  0  0
   57.8962   29.8638   45.9968 H   0  0  0  0  0  0  0  0  0  0  0  0
   58.6034   29.0969   44.5345 H   0  0  0  0  0  0  0  0  0  0  0  0
   56.8833   29.6145   44.5345 H   0  0  0  0  0  0  0  0  0  0  0  0
   55.1750   27.8540   45.2830 H   0  0  0  0  0  0  0  0  0  0  0  0
   60.0326   25.9648   46.4437 H   0  0  0  0  0  0  0  0  0  0  0  0
   60.0533   27.5508   45.5934 H   0  0  0  0  0  0  0  0  0  0  0  0
   58.7381   29.2313   49.6774 H   0  0  0  0  0  0  0  0  0  0  0  0
   58.8180   31.7163   49.8399 H   0  0  0  0  0  0  0  0  0  0  0  0
   59.6800   35.9664   45.6747 H   0  0  0  0  0  0  0  0  0  0  0  0
   60.6126   34.3940   45.7453 H   0  0  0  0  0  0  0  0  0  0  0  0
   57.9645   34.9377   44.3511 H   0  0  0  0  0  0  0  0  0  0  0  0
   59.5353   34.4486   43.6225 H   0  0  0  0  0  0  0  0  0  0  0  0
   59.4411   32.3139   44.8858 H   0  0  0  0  0  0  0  0  0  0  0  0
   57.0698   31.6053   43.7044 H   0  0  0  0  0  0  0  0  0  0  0  0
   57.4438   33.1301   42.8315 H   0  0  0  0  0  0  0  0  0  0  0  0
   58.6299   31.7811   42.8315 H   0  0  0  0  0  0  0  0  0  0  0  0
   56.5580   32.5862   45.5636 H   0  0  0  0  0  0  0  0  0  0  0  0
   57.9470   31.7972   46.4555 H   0  0  0  0  0  0  0  0  0  0  0  0
   56.9105   34.6190   46.6083 H   0  0  0  0  0  0  0  0  0  0  0  0
   57.4238   33.4417   47.9147 H   0  0  0  0  0  0  0  0  0  0  0  0
   61.0625   31.8899   46.1460 H   0  0  0  0  0  0  0  0  0  0  0  0
   60.9783   29.4085   45.9742 H   0  0  0  0  0  0  0  0  0  0  0  0
  1  2  1  0
  2  3  1  0
  3  4  1  0
  4  5  2  0
  4  6  1  0
  6  7  1  0
  7  8  1  0
  8  9  1  0
  9 10  2  0
  9 11  1  0
 11 12  2  0
 12 13  1  0
 13 14  2  0
 14 15  1  0
 15 16  2  0
 15 17  2  0
 15 18  1  0
 18 19  1  0
 19 20  1  0
 20 21  1  0
 21 22  1  0
 21 23  1  0
 23 24  1  0
 14 25  1  0
 25 26  2  0
  7  2  2  0
 26 11  1  0
 24 18  1  0
  1 27  1  0
  1 28  1  0
  1 29  1  0
  3 30  1  0
  8 31  1  0
  8 32  1  0
 12 33  1  0
 13 34  1  0
 19 35  1  0
 19 36  1  0
 20 37  1  0
 20 38  1  0
 21 39  1  0
 22 40  1  0
 22 41  1  0
 22 42  1  0
 23 43  1  0
 23 44  1  0
 24 45  1  0
 24 46  1  0
 25 47  1  0
 26 48  1  0
M  CHG  1   6  -1
M  END
>  <UniqueID>  (51) 
49

>  <SMILES>  (51) 
Cc1[nH]c(=O)[n-]c1CC(=O)c1ccc(S(=O)(=O)N2CCC(C)CC2)cc1

>  <Energy>  (51) 
83.19738112636338

>  <Genealogy>  (51) 
Cc1[nH]c(=O)[n-]c1CC(=O)c1ccc(S(=O)(=O)N2CCC(C)CC2)cc1 (protonated)
Cc1[nH]c(=O)[n-]c1CC(=O)c1ccc(S(=O)(=O)N2CCC(C)CC2)cc1 (3D coordinates assigned)
Cc1[nH]c(=O)[n-]c1CC(=O)c1ccc(S(=O)(=O)N2CCC(C)CC2)cc1 (nonaromatic ring conformer: 83.19738112636338 kcal/mol)

>  <smiles>  (51) 
Cc1[nH]c(=O)[nH]c1CC(=O)c1ccc(S(=O)(=O)N2CCC(C)CC2)cc1

>  <score_type>  (51) 
oracle

>  <origin>  (51) 
adg

>  <m_score__min__energy>  (51) 
-11.07

>  <m_primary>  (51) 
energy

$$$$
51:0
     RDKit          3D

 71 75  0  0  0  0  0  0  0  0999 V2000
   67.9150   27.4900   50.1310 C   0  0  0  0  0  0  0  0  0  0  0  0
   66.9950   26.3850   50.6490 C   0  0  0  0  0  0  0  0  0  0  0  0
   65.8470   26.9390   51.2910 O   0  0  0  0  0  0  0  0  0  0  0  0
   65.8930   28.0340   52.1620 C   0  0  0  0  0  0  0  0  0  0  0  0
   66.6940   28.0360   53.1390 O   0  0  0  0  0  0  0  0  0  0  0  0
   64.9810   29.1680   51.9350 C   0  0  0  0  0  0  0  0  0  0  0  0
   65.5260   30.7230   51.5930 S   0  0  0  0  0  0  0  0  0  0  0  0
   64.0080   31.4100   51.3790 C   0  0  0  0  0  0  0  0  0  0  0  0
   63.7410   32.7350   50.8980 N   0  0  0  0  0  0  0  0  0  0  0  0
   63.8530   33.1630   49.5330 C   0  0  0  0  0  0  0  0  0  0  0  0
   64.9590   33.0920   48.9350 O   0  0  0  0  0  0  0  0  0  0  0  0
   62.6440   33.5870   48.7920 C   0  0  0  0  0  0  0  0  0  0  0  0
   62.5740   33.4230   47.3950 C   0  0  0  0  0  0  0  0  0  0  0  0
   61.3840   33.6840   46.7090 C   0  0  0  0  0  0  0  0  0  0  0  0
   60.2430   34.1210   47.4030 C   0  0  0  0  0  0  0  0  0  0  0  0
   58.9710   34.2310   46.7330 N   0  0  0  0  0  0  0  0  0  0  0  0
   57.7900   33.4980   47.1640 C   0  0  0  0  0  0  0  0  0  0  0  0
   56.8750   33.3730   45.9240 C   0  0  0  0  0  0  0  0  0  0  0  0
   57.4950   34.2250   44.8110 C   0  0  0  0  0  0  0  0  0  0  0  0
   58.7690   34.6840   45.4010 C   0  0  0  0  0  0  0  0  0  0  0  0
   59.5550   35.4790   44.8180 O   0  0  0  0  0  0  0  0  0  0  0  0
   60.3280   34.3290   48.7890 C   0  0  0  0  0  0  0  0  0  0  0  0
   61.5160   34.0670   49.4780 C   0  0  0  0  0  0  0  0  0  0  0  0
   63.0310   30.4400   51.6040 C   0  0  0  0  0  0  0  0  0  0  0  0
   61.5930   30.7310   51.4340 C   0  0  0  0  0  0  0  0  0  0  0  0
   60.9020   30.9370   52.4680 O   0  0  0  0  0  0  0  0  0  0  0  0
   60.9650   30.7480   50.1300 N   0  0  0  0  0  0  0  0  0  0  0  0
   59.6430   31.3700   49.9600 C   0  0  0  0  0  0  0  0  0  0  0  0
   58.7940   30.5530   48.9860 C   0  0  0  0  0  0  0  0  0  0  0  0
   59.5000   30.3500   47.7120 N   0  0  0  0  0  0  0  0  0  0  0  0
   58.7460   30.1020   46.5070 C   0  0  0  0  0  0  0  0  0  0  0  0
   58.9000   30.9350   45.3840 C   0  0  0  0  0  0  0  0  0  0  0  0
   58.1630   30.6950   44.2170 C   0  0  0  0  0  0  0  0  0  0  0  0
   57.2760   29.6150   44.1560 C   0  0  0  0  0  0  0  0  0  0  0  0
   57.1270   28.7710   45.2610 C   0  0  0  0  0  0  0  0  0  0  0  0
   57.8560   29.0130   46.4320 C   0  0  0  0  0  0  0  0  0  0  0  0
   60.9590   30.5190   47.6460 C   0  0  0  0  0  0  0  0  0  0  0  0
   61.6180   30.1070   48.9690 C   0  0  0  0  0  0  0  0  0  0  0  0
   63.5780   29.1590   51.8710 C   0  0  0  0  0  0  0  0  0  0  0  0
   62.7600   27.8930   51.9180 C   0  0  0  0  0  0  0  0  0  0  0  0
   68.3606   28.0252   50.9824 H   0  0  0  0  0  0  0  0  0  0  0  0
   68.7135   27.0454   49.5189 H   0  0  0  0  0  0  0  0  0  0  0  0
   67.3330   28.1947   49.5189 H   0  0  0  0  0  0  0  0  0  0  0  0
   66.6692   25.7614   49.8034 H   0  0  0  0  0  0  0  0  0  0  0  0
   67.5497   25.7794   51.3809 H   0  0  0  0  0  0  0  0  0  0  0  0
   63.4620   33.0871   46.8395 H   0  0  0  0  0  0  0  0  0  0  0  0
   61.3407   33.5463   45.6185 H   0  0  0  0  0  0  0  0  0  0  0  0
   58.0742   32.5000   47.5289 H   0  0  0  0  0  0  0  0  0  0  0  0
   57.2770   34.0179   47.9865 H   0  0  0  0  0  0  0  0  0  0  0  0
   56.8157   32.3221   45.6046 H   0  0  0  0  0  0  0  0  0  0  0  0
   55.8564   33.7174   46.1559 H   0  0  0  0  0  0  0  0  0  0  0  0
   57.6737   33.6232   43.9078 H   0  0  0  0  0  0  0  0  0  0  0  0
   56.8459   35.0539   44.4924 H   0  0  0  0  0  0  0  0  0  0  0  0
   59.4510   34.7019   49.3383 H   0  0  0  0  0  0  0  0  0  0  0  0
   61.5677   34.2377   50.5634 H   0  0  0  0  0  0  0  0  0  0  0  0
   59.1350   31.4150   50.9346 H   0  0  0  0  0  0  0  0  0  0  0  0
   59.7741   32.3848   49.5563 H   0  0  0  0  0  0  0  0  0  0  0  0
   58.5741   29.5733   49.4352 H   0  0  0  0  0  0  0  0  0  0  0  0
   57.8630   31.1037   48.7863 H   0  0  0  0  0  0  0  0  0  0  0  0
   59.6033   31.7799   45.4224 H   0  0  0  0  0  0  0  0  0  0  0  0
   58.2821   31.3572   43.3468 H   0  0  0  0  0  0  0  0  0  0  0  0
   56.6963   29.4298   43.2397 H   0  0  0  0  0  0  0  0  0  0  0  0
   56.4365   27.9162   45.2104 H   0  0  0  0  0  0  0  0  0  0  0  0
   57.7326   28.3478   47.2994 H   0  0  0  0  0  0  0  0  0  0  0  0
   61.3578   29.8926   46.8345 H   0  0  0  0  0  0  0  0  0  0  0  0
   61.1819   31.5795   47.4575 H   0  0  0  0  0  0  0  0  0  0  0  0
   61.5458   29.0148   49.0779 H   0  0  0  0  0  0  0  0  0  0  0  0
   62.6683   30.4330   48.9441 H   0  0  0  0  0  0  0  0  0  0  0  0
   62.5786   27.6123   52.9660 H   0  0  0  0  0  0  0  0  0  0  0  0
   61.7980   28.0590   51.4111 H   0  0  0  0  0  0  0  0  0  0  0  0
   63.3067   27.0842   51.4111 H   0  0  0  0  0  0  0  0  0  0  0  0
  1  2  1  0
  2  3  1  0
  3  4  1  0
  4  5  2  0
  4  6  1  0
  6  7  1  0
  7  8  1  0
  8  9  1  0
  9 10  1  0
 10 11  2  0
 10 12  1  0
 12 13  2  0
 13 14  1  0
 14 15  2  0
 15 16  1  0
 16 17  1  0
 17 18  1  0
 18 19  1  0
 19 20  1  0
 20 21  2  0
 15 22  1  0
 22 23  2  0
  8 24  2  0
 24 25  1  0
 25 26  2  0
 25 27  1  0
 27 28  1  0
 28 29  1  0
 29 30  1  0
 30 31  1  0
 31 32  2  0
 32 33  1  0
 33 34  2  0
 34 35  1  0
 35 36  2  0
 30 37  1  0
 37 38  1  0
 24 39  1  0
 39 40  1  0
 39  6  2  0
 23 12  1  0
 38 27  1  0
 20 16  1  0
 36 31  1  0
  1 41  1  0
  1 42  1  0
  1 43  1  0
  2 44  1  0
  2 45  1  0
 13 46  1  0
 14 47  1  0
 17 48  1  0
 17 49  1  0
 18 50  1  0
 18 51  1  0
 19 52  1  0
 19 53  1  0
 22 54  1  0
 23 55  1  0
 28 56  1  0
 28 57  1  0
 29 58  1  0
 29 59  1  0
 32 60  1  0
 33 61  1  0
 34 62  1  0
 35 63  1  0
 36 64  1  0
 37 65  1  0
 37 66  1  0
 38 67  1  0
 38 68  1  0
 40 69  1  0
 40 70  1  0
 40 71  1  0
M  CHG  1   9  -1
M  END
>  <UniqueID>  (52) 
50

>  <SMILES>  (52) 
CCOC(=O)c1sc([N-]C(=O)c2ccc(N3CCCC3=O)cc2)c(C(=O)N2CCN(c3ccccc3)CC2)c1C

>  <Energy>  (52) 
125.31380969204317

>  <Genealogy>  (52) 
CCOC(=O)c1sc([N-]C(=O)c2ccc(N3CCCC3=O)cc2)c(C(=O)N2CCN(c3ccccc3)CC2)c1C (protonated)
CCOC(=O)c1sc([N-]C(=O)c2ccc(N3CCCC3=O)cc2)c(C(=O)N2CCN(c3ccccc3)CC2)c1C (3D coordinates assigned)
CCOC(=O)c1sc([N-]C(=O)c2ccc(N3CCCC3=O)cc2)c(C(=O)N2CCN(c3ccccc3)CC2)c1C (nonaromatic ring conformer: 125.31380969204317 kcal/mol)

>  <smiles>  (52) 
CCOC(=O)c1sc(NC(=O)c2ccc(N3CCCC3=O)cc2)c(C(=O)N2CCN(c3ccccc3)CC2)c1C

>  <score_type>  (52) 
oracle

>  <origin>  (52) 
adg

>  <m_score__min__energy>  (52) 
-11.09

>  <m_primary>  (52) 
energy

$$$$
52:0
     RDKit          3D

 39 42  0  0  0  0  0  0  0  0999 V2000
   57.2850   23.2960   48.0530 O   0  0  0  0  0  0  0  0  0  0  0  0
   57.1680   24.2040   47.1890 C   0  0  0  0  0  0  0  0  0  0  0  0
   56.0530   24.9490   47.0410 N   0  0  0  0  0  0  0  0  0  0  0  0
   56.1810   25.8520   46.0360 C   0  0  0  0  0  0  0  0  0  0  0  0
   55.1500   26.7170   45.6890 O   0  0  0  0  0  0  0  0  0  0  0  0
   57.4150   25.8370   45.3880 C   0  0  0  0  0  0  0  0  0  0  0  0
   57.8080   26.6650   44.2040 C   0  0  0  0  0  0  0  0  0  0  0  0
   57.6890   28.1280   44.5330 C   0  0  0  0  0  0  0  0  0  0  0  0
   58.2750   28.6410   45.7000 C   0  0  0  0  0  0  0  0  0  0  0  0
   58.1280   29.9910   46.0290 C   0  0  0  0  0  0  0  0  0  0  0  0
   57.3800   30.8470   45.2000 C   0  0  0  0  0  0  0  0  0  0  0  0
   57.1890   32.2080   45.4910 O   0  0  0  0  0  0  0  0  0  0  0  0
   57.5390   32.8440   46.7200 C   0  0  0  0  0  0  0  0  0  0  0  0
   59.0270   32.9280   46.8660 C   0  0  0  0  0  0  0  0  0  0  0  0
   60.0320   33.9450   45.9610 S   0  0  0  0  0  0  0  0  0  0  0  0
   61.4580   33.4200   46.6790 C   0  0  0  0  0  0  0  0  0  0  0  0
   62.7590   33.8450   46.4230 C   0  0  0  0  0  0  0  0  0  0  0  0
   63.8040   33.2560   47.1530 C   0  0  0  0  0  0  0  0  0  0  0  0
   63.5290   32.2620   48.1130 C   0  0  0  0  0  0  0  0  0  0  0  0
   62.2070   31.8490   48.3530 C   0  0  0  0  0  0  0  0  0  0  0  0
   61.1740   32.4430   47.6220 C   0  0  0  0  0  0  0  0  0  0  0  0
   59.8090   32.1560   47.7280 C   0  0  0  0  0  0  0  0  0  0  0  0
   59.2990   31.2310   48.5780 F   0  0  0  0  0  0  0  0  0  0  0  0
   56.7940   30.3310   44.0390 C   0  0  0  0  0  0  0  0  0  0  0  0
   56.9400   28.9810   43.7080 C   0  0  0  0  0  0  0  0  0  0  0  0
   58.3640   24.6260   46.0840 S   0  0  0  0  0  0  0  0  0  0  0  0
   55.1920   24.8390   47.6230 H   0  0  0  0  0  0  0  0  0  0  0  0
   58.8488   26.4373   43.9303 H   0  0  0  0  0  0  0  0  0  0  0  0
   57.1394   26.4299   43.3628 H   0  0  0  0  0  0  0  0  0  0  0  0
   58.8532   27.9770   46.3594 H   0  0  0  0  0  0  0  0  0  0  0  0
   58.5995   30.3865   46.9407 H   0  0  0  0  0  0  0  0  0  0  0  0
   57.1166   33.8596   46.7344 H   0  0  0  0  0  0  0  0  0  0  0  0
   57.1342   32.2512   47.5535 H   0  0  0  0  0  0  0  0  0  0  0  0
   62.9625   34.6205   45.6699 H   0  0  0  0  0  0  0  0  0  0  0  0
   64.8424   33.5722   46.9745 H   0  0  0  0  0  0  0  0  0  0  0  0
   64.3548   31.8059   48.6787 H   0  0  0  0  0  0  0  0  0  0  0  0
   61.9894   31.0731   49.1018 H   0  0  0  0  0  0  0  0  0  0  0  0
   56.2131   30.9938   43.3808 H   0  0  0  0  0  0  0  0  0  0  0  0
   56.4661   28.5857   42.7975 H   0  0  0  0  0  0  0  0  0  0  0  0
  1  2  2  0
  2  3  1  0
  3  4  1  0
  4  5  1  0
  4  6  2  0
  6  7  1  0
  7  8  1  0
  8  9  2  0
  9 10  1  0
 10 11  2  0
 11 12  1  0
 12 13  1  0
 13 14  1  0
 14 15  1  0
 15 16  1  0
 16 17  2  0
 17 18  1  0
 18 19  2  0
 19 20  1  0
 20 21  2  0
 21 22  1  0
 22 23  1  0
 11 24  1  0
 24 25  2  0
  6 26  1  0
 26  2  1  0
 25  8  1  0
 22 14  2  0
 21 16  1  0
  3 27  1  0
  7 28  1  0
  7 29  1  0
  9 30  1  0
 10 31  1  0
 13 32  1  0
 13 33  1  0
 17 34  1  0
 18 35  1  0
 19 36  1  0
 20 37  1  0
 24 38  1  0
 25 39  1  0
M  CHG  1   5  -1
M  END
>  <UniqueID>  (53) 
51

>  <SMILES>  (53) 
O=c1[nH]c([O-])c(Cc2ccc(OCc3sc4ccccc4c3F)cc2)s1

>  <Energy>  (53) 
102.67994391044384

>  <Genealogy>  (53) 
O=c1[nH]c([O-])c(Cc2ccc(OCc3sc4ccccc4c3F)cc2)s1 (protonated)
O=c1[nH]c([O-])c(Cc2ccc(OCc3sc4ccccc4c3F)cc2)s1 (3D coordinates assigned)
O=c1[nH]c([O-])c(Cc2ccc(OCc3sc4ccccc4c3F)cc2)s1 (optimized conformer: 102.67994391044384 kcal/mol)

>  <smiles>  (53) 
O=c1[nH]c(O)c(Cc2ccc(OCc3sc4ccccc4c3F)cc2)s1

>  <score_type>  (53) 
oracle

>  <origin>  (53) 
adg

>  <m_score__min__energy>  (53) 
-12.300000000000001

>  <m_primary>  (53) 
energy

$$$$
53:0
     RDKit          3D

 55 57  0  0  0  0  0  0  0  0999 V2000
   56.2240   29.7020   43.0560 C   0  0  0  0  0  0  0  0  0  0  0  0
   56.2750   29.8530   44.5680 C   0  0  0  0  0  0  0  0  0  0  0  0
   55.7440   28.6510   45.1960 N   0  0  0  0  0  0  0  0  0  0  0  0
   56.4780   27.4990   45.6360 C   0  0  0  0  0  0  0  0  0  0  0  0
   55.8330   26.5340   46.1220 O   0  0  0  0  0  0  0  0  0  0  0  0
   57.9060   27.3820   45.5480 N   0  0  0  0  0  0  0  0  0  0  0  0
   58.8010   26.7140   46.4830 C   0  0  0  0  0  0  0  0  0  0  0  0
   59.1920   27.6780   47.5640 C   0  0  0  0  0  0  0  0  0  0  0  0
   58.5060   28.8940   47.7150 C   0  0  0  0  0  0  0  0  0  0  0  0
   58.8440   29.7720   48.7490 C   0  0  0  0  0  0  0  0  0  0  0  0
   59.8650   29.4400   49.6500 C   0  0  0  0  0  0  0  0  0  0  0  0
   60.2650   30.5220   50.9820 S   0  0  0  0  0  0  0  0  0  0  0  0
   60.4510   31.9210   50.4640 O   0  0  0  0  0  0  0  0  0  0  0  0
   61.5580   30.0680   51.6030 O   0  0  0  0  0  0  0  0  0  0  0  0
   58.9930   30.4870   52.1780 N   0  0  0  0  0  0  0  0  0  0  0  0
   58.3870   29.1400   52.2310 C   0  0  0  0  0  0  0  0  0  0  0  0
   56.9830   29.1930   52.8420 C   0  0  0  0  0  0  0  0  0  0  0  0
   56.0570   29.9910   51.9980 N   0  0  0  0  0  0  0  0  0  0  0  0
   54.9150   30.5010   52.7850 C   0  0  0  0  0  0  0  0  0  0  0  0
   53.6790   30.6100   51.9290 C   0  0  0  0  0  0  0  0  0  0  0  0
   53.4820   29.7410   50.8430 C   0  0  0  0  0  0  0  0  0  0  0  0
   52.3460   29.8660   50.0370 C   0  0  0  0  0  0  0  0  0  0  0  0
   51.4030   30.8620   50.3070 C   0  0  0  0  0  0  0  0  0  0  0  0
   51.5940   31.7360   51.3810 C   0  0  0  0  0  0  0  0  0  0  0  0
   50.6590   32.7290   51.6440 O   0  0  0  0  0  0  0  0  0  0  0  0
   52.7290   31.6120   52.1900 C   0  0  0  0  0  0  0  0  0  0  0  0
   56.7350   31.0780   51.2450 C   0  0  0  0  0  0  0  0  0  0  0  0
   58.0110   31.5730   51.9480 C   0  0  0  0  0  0  0  0  0  0  0  0
   60.5370   28.2190   49.5150 C   0  0  0  0  0  0  0  0  0  0  0  0
   60.2020   27.3420   48.4790 C   0  0  0  0  0  0  0  0  0  0  0  0
   55.8817   28.6884   42.8001 H   0  0  0  0  0  0  0  0  0  0  0  0
   55.5258   30.4416   42.6370 H   0  0  0  0  0  0  0  0  0  0  0  0
   57.2276   29.8667   42.6370 H   0  0  0  0  0  0  0  0  0  0  0  0
   57.3173   30.0027   44.8862 H   0  0  0  0  0  0  0  0  0  0  0  0
   55.6703   30.7210   44.8696 H   0  0  0  0  0  0  0  0  0  0  0  0
   58.2885   25.8489   46.9290 H   0  0  0  0  0  0  0  0  0  0  0  0
   59.7003   26.3687   45.9520 H   0  0  0  0  0  0  0  0  0  0  0  0
   57.6984   29.1570   47.0160 H   0  0  0  0  0  0  0  0  0  0  0  0
   58.3071   30.7261   48.8558 H   0  0  0  0  0  0  0  0  0  0  0  0
   58.3200   28.7353   51.2103 H   0  0  0  0  0  0  0  0  0  0  0  0
   59.0189   28.4960   52.8603 H   0  0  0  0  0  0  0  0  0  0  0  0
   56.5926   28.1686   52.9324 H   0  0  0  0  0  0  0  0  0  0  0  0
   57.0521   29.6717   53.8300 H   0  0  0  0  0  0  0  0  0  0  0  0
   54.7160   29.8121   53.6192 H   0  0  0  0  0  0  0  0  0  0  0  0
   55.1688   31.5014   53.1656 H   0  0  0  0  0  0  0  0  0  0  0  0
   54.2244   28.9589   50.6257 H   0  0  0  0  0  0  0  0  0  0  0  0
   52.1944   29.1804   49.1903 H   0  0  0  0  0  0  0  0  0  0  0  0
   50.5091   30.9581   49.6732 H   0  0  0  0  0  0  0  0  0  0  0  0
   52.8782   32.3018   53.0338 H   0  0  0  0  0  0  0  0  0  0  0  0
   57.0051   30.7011   50.2475 H   0  0  0  0  0  0  0  0  0  0  0  0
   56.0376   31.9262   51.1809 H   0  0  0  0  0  0  0  0  0  0  0  0
   58.4808   32.3460   51.3221 H   0  0  0  0  0  0  0  0  0  0  0  0
   57.7171   31.9700   52.9309 H   0  0  0  0  0  0  0  0  0  0  0  0
   61.3312   27.9489   50.2265 H   0  0  0  0  0  0  0  0  0  0  0  0
   60.7328   26.3836   48.3804 H   0  0  0  0  0  0  0  0  0  0  0  0
  1  2  1  0
  2  3  1  0
  3  4  1  0
  4  5  2  0
  4  6  1  0
  6  7  1  0
  7  8  1  0
  8  9  2  0
  9 10  1  0
 10 11  2  0
 11 12  1  0
 12 13  2  0
 12 14  2  0
 12 15  1  0
 15 16  1  0
 16 17  1  0
 17 18  1  0
 18 19  1  0
 19 20  1  0
 20 21  2  0
 21 22  1  0
 22 23  2  0
 23 24  1  0
 24 25  1  0
 24 26  2  0
 18 27  1  0
 27 28  1  0
 11 29  1  0
 29 30  2  0
 30  8  1  0
 28 15  1  0
 26 20  1  0
  1 31  1  0
  1 32  1  0
  1 33  1  0
  2 34  1  0
  2 35  1  0
  7 36  1  0
  7 37  1  0
  9 38  1  0
 10 39  1  0
 16 40  1  0
 16 41  1  0
 17 42  1  0
 17 43  1  0
 19 44  1  0
 19 45  1  0
 21 46  1  0
 22 47  1  0
 23 48  1  0
 26 49  1  0
 27 50  1  0
 27 51  1  0
 28 52  1  0
 28 53  1  0
 29 54  1  0
 30 55  1  0
M  CHG  3   3  -1   6  -1  25  -1
M  END
>  <UniqueID>  (54) 
52

>  <SMILES>  (54) 
CC[N-]C(=O)[N-]Cc1ccc(S(=O)(=O)N2CCN(Cc3cccc([O-])c3)CC2)cc1

>  <Energy>  (54) 
64.39462835668358

>  <Genealogy>  (54) 
CC[N-]C(=O)[N-]Cc1ccc(S(=O)(=O)N2CCN(Cc3cccc([O-])c3)CC2)cc1 (protonated)
CC[N-]C(=O)[N-]Cc1ccc(S(=O)(=O)N2CCN(Cc3cccc([O-])c3)CC2)cc1 (3D coordinates assigned)
CC[N-]C(=O)[N-]Cc1ccc(S(=O)(=O)N2CCN(Cc3cccc([O-])c3)CC2)cc1 (nonaromatic ring conformer: 64.39462835668358 kcal/mol)

>  <smiles>  (54) 
CCNC(=O)NCc1ccc(S(=O)(=O)N2CCN(Cc3cccc(O)c3)CC2)cc1

>  <score_type>  (54) 
oracle

>  <origin>  (54) 
adg

>  <m_score__min__energy>  (54) 
-15.67

>  <m_primary>  (54) 
energy

$$$$
54:0
     RDKit          3D

 48 50  0  0  0  0  0  0  0  0999 V2000
   60.1260   33.5020   52.6450 C   0  0  0  0  0  0  0  0  0  0  0  0
   59.8190   32.5530   51.5110 C   0  0  0  0  0  0  0  0  0  0  0  0
   60.5100   32.7280   50.3050 C   0  0  0  0  0  0  0  0  0  0  0  0
   60.2780   31.8740   49.2340 C   0  0  0  0  0  0  0  0  0  0  0  0
   61.0000   32.0490   48.0570 O   0  0  0  0  0  0  0  0  0  0  0  0
   59.3440   30.8380   49.3570 C   0  0  0  0  0  0  0  0  0  0  0  0
   59.1020   29.9120   48.2230 C   0  0  0  0  0  0  0  0  0  0  0  0
   59.7290   28.6550   48.1880 C   0  0  0  0  0  0  0  0  0  0  0  0
   59.4970   27.7820   47.1230 C   0  0  0  0  0  0  0  0  0  0  0  0
   58.6420   28.1550   46.0820 C   0  0  0  0  0  0  0  0  0  0  0  0
   58.0170   29.4080   46.1010 C   0  0  0  0  0  0  0  0  0  0  0  0
   56.9270   29.8780   44.8000 S   0  0  0  0  0  0  0  0  0  0  0  0
   55.4640   28.9670   44.9170 N   0  0  0  0  0  0  0  0  0  0  0  0
   57.5730   29.6160   43.4690 O   0  0  0  0  0  0  0  0  0  0  0  0
   56.6170   31.3450   44.9050 O   0  0  0  0  0  0  0  0  0  0  0  0
   58.2440   30.2810   47.1740 C   0  0  0  0  0  0  0  0  0  0  0  0
   58.6470   30.6920   50.5720 C   0  0  0  0  0  0  0  0  0  0  0  0
   57.7950   29.7660   50.6860 O   0  0  0  0  0  0  0  0  0  0  0  0
   58.8770   31.5500   51.6270 N   0  0  0  0  0  0  0  0  0  0  0  0
   58.1380   31.3310   52.8900 C   0  0  0  0  0  0  0  0  0  0  0  0
   56.6580   31.3740   52.6480 C   0  0  0  0  0  0  0  0  0  0  0  0
   56.1610   32.3490   52.0230 O   0  0  0  0  0  0  0  0  0  0  0  0
   55.8160   30.3590   53.2100 N   0  0  0  0  0  0  0  0  0  0  0  0
   54.4400   30.1160   52.8890 C   0  0  0  0  0  0  0  0  0  0  0  0
   53.8490   28.8510   53.0520 C   0  0  0  0  0  0  0  0  0  0  0  0
   52.4990   28.6630   52.7480 C   0  0  0  0  0  0  0  0  0  0  0  0
   51.7230   29.7340   52.2960 C   0  0  0  0  0  0  0  0  0  0  0  0
   52.2910   31.0120   52.1510 C   0  0  0  0  0  0  0  0  0  0  0  0
   51.4660   32.1510   51.6840 C   0  0  0  0  0  0  0  0  0  0  0  0
   51.1920   32.3260   50.2950 N   0  0  0  0  0  0  0  0  0  0  0  0
   50.9950   32.9780   52.5100 O   0  0  0  0  0  0  0  0  0  0  0  0
   53.6530   31.1920   52.4590 C   0  0  0  0  0  0  0  0  0  0  0  0
   59.9608   32.9915   53.6053 H   0  0  0  0  0  0  0  0  0  0  0  0
   61.1749   33.8264   52.5779 H   0  0  0  0  0  0  0  0  0  0  0  0
   59.4658   34.3793   52.5779 H   0  0  0  0  0  0  0  0  0  0  0  0
   61.2395   33.5452   50.2056 H   0  0  0  0  0  0  0  0  0  0  0  0
   60.4054   28.3574   49.0028 H   0  0  0  0  0  0  0  0  0  0  0  0
   59.9885   26.7981   47.1033 H   0  0  0  0  0  0  0  0  0  0  0  0
   58.4598   27.4631   45.2465 H   0  0  0  0  0  0  0  0  0  0  0  0
   54.8860   29.4130   45.6630 H   0  0  0  0  0  0  0  0  0  0  0  0
   57.7467   31.2619   47.1946 H   0  0  0  0  0  0  0  0  0  0  0  0
   58.4089   30.3476   53.3019 H   0  0  0  0  0  0  0  0  0  0  0  0
   58.4052   32.1269   53.6007 H   0  0  0  0  0  0  0  0  0  0  0  0
   54.4513   28.0072   53.4199 H   0  0  0  0  0  0  0  0  0  0  0  0
   52.0446   27.6681   52.8647 H   0  0  0  0  0  0  0  0  0  0  0  0
   50.6620   29.5762   52.0524 H   0  0  0  0  0  0  0  0  0  0  0  0
   50.2110   32.3290   49.9370 H   0  0  0  0  0  0  0  0  0  0  0  0
   54.1047   32.1901   52.3607 H   0  0  0  0  0  0  0  0  0  0  0  0
  1  2  1  0
  2  3  2  0
  3  4  1  0
  4  5  1  0
  4  6  2  0
  6  7  1  0
  7  8  2  0
  8  9  1  0
  9 10  2  0
 10 11  1  0
 11 12  1  0
 12 13  1  0
 12 14  2  0
 12 15  2  0
 11 16  2  0
  6 17  1  0
 17 18  2  0
 17 19  1  0
 19 20  1  0
 20 21  1  0
 21 22  2  0
 21 23  1  0
 23 24  1  0
 24 25  2  0
 25 26  1  0
 26 27  2  0
 27 28  1  0
 28 29  1  0
 29 30  1  0
 29 31  2  0
 28 32  2  0
 19  2  1  0
 32 24  1  0
 16  7  1  0
  1 33  1  0
  1 34  1  0
  1 35  1  0
  3 36  1  0
  8 37  1  0
  9 38  1  0
 10 39  1  0
 13 40  1  0
 16 41  1  0
 20 42  1  0
 20 43  1  0
 25 44  1  0
 26 45  1  0
 27 46  1  0
 30 47  1  0
 32 48  1  0
M  CHG  4   5  -1  13  -1  23  -1  30  -1
M  END
>  <UniqueID>  (55) 
53

>  <SMILES>  (55) 
Cc1cc([O-])c(-c2cccc(S([NH-])(=O)=O)c2)c(=O)n1CC(=O)[N-]c1cccc(C([NH-])=O)c1

>  <Energy>  (55) 
65.77597577285793

>  <Genealogy>  (55) 
Cc1cc([O-])c(-c2cccc(S([NH-])(=O)=O)c2)c(=O)n1CC(=O)[N-]c1cccc(C([NH-])=O)c1 (protonated)
Cc1cc([O-])c(-c2cccc(S([NH-])(=O)=O)c2)c(=O)n1CC(=O)[N-]c1cccc(C([NH-])=O)c1 (3D coordinates assigned)
Cc1cc([O-])c(-c2cccc(S([NH-])(=O)=O)c2)c(=O)n1CC(=O)[N-]c1cccc(C([NH-])=O)c1 (optimized conformer: 65.77597577285793 kcal/mol)

>  <smiles>  (55) 
Cc1cc(O)c(-c2cccc(S(N)(=O)=O)c2)c(=O)n1CC(=O)Nc1cccc(C(N)=O)c1

>  <score_type>  (55) 
oracle

>  <origin>  (55) 
adg

>  <m_score__min__energy>  (55) 
-18.140000000000001

>  <m_primary>  (55) 
energy

$$$$
55:0
     RDKit          3D

 71 75  0  0  0  0  0  0  0  0999 V2000
   58.2910   29.6490   49.4500 O   0  0  0  0  0  0  0  0  0  0  0  0
   59.3950   29.5610   48.8490 C   0  0  0  0  0  0  0  0  0  0  0  0
   60.6170   29.4510   49.6040 N   0  0  0  0  0  0  0  0  0  0  0  0
   60.6830   29.2660   51.0310 C   0  0  0  0  0  0  0  0  0  0  0  0
   61.8440   28.7900   51.6690 C   0  0  0  0  0  0  0  0  0  0  0  0
   61.8780   28.6470   53.0580 C   0  0  0  0  0  0  0  0  0  0  0  0
   60.7620   28.9800   53.8280 C   0  0  0  0  0  0  0  0  0  0  0  0
   59.6040   29.4650   53.2110 C   0  0  0  0  0  0  0  0  0  0  0  0
   58.2080   29.9150   54.1870 S   0  0  0  0  0  0  0  0  0  0  0  0
   58.5250   29.6530   55.6330 O   0  0  0  0  0  0  0  0  0  0  0  0
   57.0250   29.0720   53.7960 O   0  0  0  0  0  0  0  0  0  0  0  0
   57.8380   31.6090   53.9650 N   0  0  0  0  0  0  0  0  0  0  0  0
   59.0820   32.4070   54.0370 C   0  0  0  0  0  0  0  0  0  0  0  0
   58.8990   33.7910   53.4040 C   0  0  0  0  0  0  0  0  0  0  0  0
   58.5540   33.6770   51.9080 C   0  0  0  0  0  0  0  0  0  0  0  0
   57.8790   32.3410   51.5560 C   0  0  0  0  0  0  0  0  0  0  0  0
   57.0390   31.8210   52.7320 C   0  0  0  0  0  0  0  0  0  0  0  0
   59.5720   29.6160   51.8170 C   0  0  0  0  0  0  0  0  0  0  0  0
   59.4150   29.6430   47.3660 C   0  0  0  0  0  0  0  0  0  0  0  0
   60.3470   28.8790   46.6390 C   0  0  0  0  0  0  0  0  0  0  0  0
   60.3550   28.9110   45.2440 C   0  0  0  0  0  0  0  0  0  0  0  0
   59.4420   29.7080   44.5540 C   0  0  0  0  0  0  0  0  0  0  0  0
   58.5260   30.5000   45.2590 C   0  0  0  0  0  0  0  0  0  0  0  0
   57.3950   31.5320   44.3800 S   0  0  0  0  0  0  0  0  0  0  0  0
   57.7580   31.5270   42.9210 O   0  0  0  0  0  0  0  0  0  0  0  0
   56.0100   30.9620   44.5090 O   0  0  0  0  0  0  0  0  0  0  0  0
   57.4140   33.1840   44.9590 N   0  0  0  0  0  0  0  0  0  0  0  0
   58.5520   33.9630   44.4180 C   0  0  0  0  0  0  0  0  0  0  0  0
   59.8400   33.8380   45.2580 C   0  0  0  0  0  0  0  0  0  0  0  0
   59.5480   33.7650   46.6950 N   0  0  0  0  0  0  0  0  0  0  0  0
   60.4860   33.1300   47.5940 C   0  0  0  0  0  0  0  0  0  0  0  0
   60.2940   33.1720   48.9900 C   0  0  0  0  0  0  0  0  0  0  0  0
   61.2090   32.5620   49.8500 C   0  0  0  0  0  0  0  0  0  0  0  0
   62.3100   31.8750   49.3330 C   0  0  0  0  0  0  0  0  0  0  0  0
   63.2160   31.2640   50.1920 O   0  0  0  0  0  0  0  0  0  0  0  0
   62.4990   31.8030   47.9500 C   0  0  0  0  0  0  0  0  0  0  0  0
   61.5980   32.4330   47.0860 C   0  0  0  0  0  0  0  0  0  0  0  0
   58.2110   34.1720   47.1270 C   0  0  0  0  0  0  0  0  0  0  0  0
   57.1910   33.2770   46.4250 C   0  0  0  0  0  0  0  0  0  0  0  0
   58.5170   30.4680   46.6620 C   0  0  0  0  0  0  0  0  0  0  0  0
   61.5100   29.6890   49.1180 H   0  0  0  0  0  0  0  0  0  0  0  0
   62.7293   28.5292   51.0704 H   0  0  0  0  0  0  0  0  0  0  0  0
   62.7882   28.2703   53.5475 H   0  0  0  0  0  0  0  0  0  0  0  0
   60.7933   28.8609   54.9211 H   0  0  0  0  0  0  0  0  0  0  0  0
   59.3663   32.5314   55.0923 H   0  0  0  0  0  0  0  0  0  0  0  0
   59.8667   31.8739   53.4803 H   0  0  0  0  0  0  0  0  0  0  0  0
   58.0833   34.3173   53.9214 H   0  0  0  0  0  0  0  0  0  0  0  0
   59.8430   34.3471   53.5027 H   0  0  0  0  0  0  0  0  0  0  0  0
   57.8719   34.4974   51.6404 H   0  0  0  0  0  0  0  0  0  0  0  0
   59.4968   33.7323   51.3439 H   0  0  0  0  0  0  0  0  0  0  0  0
   57.2248   32.4875   50.6839 H   0  0  0  0  0  0  0  0  0  0  0  0
   58.6619   31.6018   51.3312 H   0  0  0  0  0  0  0  0  0  0  0  0
   56.2475   32.5535   52.9486 H   0  0  0  0  0  0  0  0  0  0  0  0
   56.6253   30.8458   52.4357 H   0  0  0  0  0  0  0  0  0  0  0  0
   58.6671   30.0128   51.3336 H   0  0  0  0  0  0  0  0  0  0  0  0
   61.0748   28.2518   47.1747 H   0  0  0  0  0  0  0  0  0  0  0  0
   61.0844   28.3052   44.6863 H   0  0  0  0  0  0  0  0  0  0  0  0
   59.4410   29.7149   43.4540 H   0  0  0  0  0  0  0  0  0  0  0  0
   58.7649   33.6062   43.3995 H   0  0  0  0  0  0  0  0  0  0  0  0
   58.2560   35.0223   44.4365 H   0  0  0  0  0  0  0  0  0  0  0  0
   60.3748   32.9253   44.9564 H   0  0  0  0  0  0  0  0  0  0  0  0
   60.4538   34.7330   45.0785 H   0  0  0  0  0  0  0  0  0  0  0  0
   59.4164   33.6894   49.4048 H   0  0  0  0  0  0  0  0  0  0  0  0
   61.0625   32.6225   50.9385 H   0  0  0  0  0  0  0  0  0  0  0  0
   63.3574   31.2501   47.5408 H   0  0  0  0  0  0  0  0  0  0  0  0
   61.7599   32.3833   45.9991 H   0  0  0  0  0  0  0  0  0  0  0  0
   58.1203   34.0563   48.2171 H   0  0  0  0  0  0  0  0  0  0  0  0
   58.0326   35.2266   46.8699 H   0  0  0  0  0  0  0  0  0  0  0  0
   57.2566   32.2665   46.8546 H   0  0  0  0  0  0  0  0  0  0  0  0
   56.1981   33.7245   46.5797 H   0  0  0  0  0  0  0  0  0  0  0  0
   57.8019   31.0931   47.2168 H   0  0  0  0  0  0  0  0  0  0  0  0
  1  2  2  0
  2  3  1  0
  3  4  1  0
  4  5  2  0
  5  6  1  0
  6  7  2  0
  7  8  1  0
  8  9  1  0
  9 10  2  0
  9 11  2  0
  9 12  1  0
 12 13  1  0
 13 14  1  0
 14 15  1  0
 15 16  1  0
 16 17  1  0
  8 18  2  0
  2 19  1  0
 19 20  2  0
 20 21  1  0
 21 22  2  0
 22 23  1  0
 23 24  1  0
 24 25  2  0
 24 26  2  0
 24 27  1  0
 27 28  1  0
 28 29  1  0
 29 30  1  0
 30 31  1  0
 31 32  2  0
 32 33  1  0
 33 34  2  0
 34 35  1  0
 34 36  1  0
 36 37  2  0
 30 38  1  0
 38 39  1  0
 23 40  2  0
 18  4  1  0
 40 19  1  0
 17 12  1  0
 39 27  1  0
 37 31  1  0
  3 41  1  0
  5 42  1  0
  6 43  1  0
  7 44  1  0
 13 45  1  0
 13 46  1  0
 14 47  1  0
 14 48  1  0
 15 49  1  0
 15 50  1  0
 16 51  1  0
 16 52  1  0
 17 53  1  0
 17 54  1  0
 18 55  1  0
 20 56  1  0
 21 57  1  0
 22 58  1  0
 28 59  1  0
 28 60  1  0
 29 61  1  0
 29 62  1  0
 32 63  1  0
 33 64  1  0
 36 65  1  0
 37 66  1  0
 38 67  1  0
 38 68  1  0
 39 69  1  0
 39 70  1  0
 40 71  1  0
M  CHG  1  35  -1
M  END
>  <UniqueID>  (56) 
54

>  <SMILES>  (56) 
O=C(Nc1cccc(S(=O)(=O)N2CCCCC2)c1)c1cccc(S(=O)(=O)N2CCN(c3ccc([O-])cc3)CC2)c1

>  <Energy>  (56) 
93.40869679843294

>  <Genealogy>  (56) 
O=C(Nc1cccc(S(=O)(=O)N2CCCCC2)c1)c1cccc(S(=O)(=O)N2CCN(c3ccc([O-])cc3)CC2)c1 (protonated)
O=C(Nc1cccc(S(=O)(=O)N2CCCCC2)c1)c1cccc(S(=O)(=O)N2CCN(c3ccc([O-])cc3)CC2)c1 (3D coordinates assigned)
O=C(Nc1cccc(S(=O)(=O)N2CCCCC2)c1)c1cccc(S(=O)(=O)N2CCN(c3ccc([O-])cc3)CC2)c1 (nonaromatic ring conformer: 93.40869679843294 kcal/mol)

>  <smiles>  (56) 
O=C(Nc1cccc(S(=O)(=O)N2CCCCC2)c1)c1cccc(S(=O)(=O)N2CCN(c3ccc(O)cc3)CC2)c1

>  <score_type>  (56) 
oracle

>  <origin>  (56) 
adg

>  <m_score__min__energy>  (56) 
-14.94

>  <m_primary>  (56) 
energy

$$$$
56:0
     RDKit          3D

 62 65  0  0  0  0  0  0  0  0999 V2000
   57.0690   33.4490   46.9130 O   0  0  0  0  0  0  0  0  0  0  0  0
   57.2520   33.0230   45.7400 C   0  0  0  0  0  0  0  0  0  0  0  0
   57.5290   34.0040   44.6390 C   0  0  0  0  0  0  0  0  0  0  0  0
   58.5480   34.9540   45.0650 N   0  0  0  0  0  0  0  0  0  0  0  0
   59.5050   34.6540   46.0850 C   0  0  0  0  0  0  0  0  0  0  0  0
   59.6940   35.4610   47.0370 O   0  0  0  0  0  0  0  0  0  0  0  0
   60.3270   33.4040   45.9870 C   0  0  0  0  0  0  0  0  0  0  0  0
   61.3340   33.3270   47.1040 C   0  0  0  0  0  0  0  0  0  0  0  0
   62.7090   33.4280   46.8340 C   0  0  0  0  0  0  0  0  0  0  0  0
   63.6190   33.3950   47.8910 C   0  0  0  0  0  0  0  0  0  0  0  0
   63.1580   33.2810   49.2050 C   0  0  0  0  0  0  0  0  0  0  0  0
   61.7720   33.2030   49.4480 C   0  0  0  0  0  0  0  0  0  0  0  0
   61.2490   33.0950   50.8290 C   0  0  0  0  0  0  0  0  0  0  0  0
   62.0680   32.9690   51.7770 O   0  0  0  0  0  0  0  0  0  0  0  0
   59.8310   33.1030   51.1110 N   0  0  0  0  0  0  0  0  0  0  0  0
   58.8740   32.6180   50.1000 C   0  0  0  0  0  0  0  0  0  0  0  0
   57.4860   32.3300   50.6970 C   0  0  0  0  0  0  0  0  0  0  0  0
   57.6260   31.6480   51.9870 N   0  0  0  0  0  0  0  0  0  0  0  0
   56.8950   30.4380   52.2420 C   0  0  0  0  0  0  0  0  0  0  0  0
   57.4190   29.3310   51.9410 O   0  0  0  0  0  0  0  0  0  0  0  0
   55.5410   30.4560   52.8990 C   0  0  0  0  0  0  0  0  0  0  0  0
   54.6480   29.3170   52.4220 C   0  0  0  0  0  0  0  0  0  0  0  0
   54.3200   30.7490   52.0370 C   0  0  0  0  0  0  0  0  0  0  0  0
   58.5960   32.1140   52.9850 C   0  0  0  0  0  0  0  0  0  0  0  0
   59.3460   33.3510   52.4790 C   0  0  0  0  0  0  0  0  0  0  0  0
   60.9090   33.2490   48.3970 N   0  0  0  0  0  0  0  0  0  0  0  0
   57.1540   31.6180   45.4910 N   0  0  0  0  0  0  0  0  0  0  0  0
   58.1900   30.8180   44.8460 C   0  0  0  0  0  0  0  0  0  0  0  0
   58.8940   29.9820   45.8810 C   0  0  0  0  0  0  0  0  0  0  0  0
   59.6850   28.8890   45.4950 C   0  0  0  0  0  0  0  0  0  0  0  0
   60.3360   28.1170   46.4590 C   0  0  0  0  0  0  0  0  0  0  0  0
   60.1910   28.4230   47.8160 C   0  0  0  0  0  0  0  0  0  0  0  0
   59.3820   29.4880   48.2150 C   0  0  0  0  0  0  0  0  0  0  0  0
   59.2290   29.7630   49.5740 O   0  0  0  0  0  0  0  0  0  0  0  0
   58.7340   30.2660   47.2490 C   0  0  0  0  0  0  0  0  0  0  0  0
   57.8840   33.4630   43.7495 H   0  0  0  0  0  0  0  0  0  0  0  0
   56.6041   34.5489   44.3988 H   0  0  0  0  0  0  0  0  0  0  0  0
   59.6606   32.5307   46.0436 H   0  0  0  0  0  0  0  0  0  0  0  0
   60.8683   33.4166   45.0295 H   0  0  0  0  0  0  0  0  0  0  0  0
   63.0649   33.5322   45.7984 H   0  0  0  0  0  0  0  0  0  0  0  0
   64.6986   33.4587   47.6900 H   0  0  0  0  0  0  0  0  0  0  0  0
   63.8706   33.2524   50.0425 H   0  0  0  0  0  0  0  0  0  0  0  0
   58.7697   33.3831   49.3166 H   0  0  0  0  0  0  0  0  0  0  0  0
   59.2661   31.6745   49.6924 H   0  0  0  0  0  0  0  0  0  0  0  0
   56.9485   33.2785   50.8430 H   0  0  0  0  0  0  0  0  0  0  0  0
   56.9233   31.6843   50.0067 H   0  0  0  0  0  0  0  0  0  0  0  0
   55.8957   30.8681   53.8552 H   0  0  0  0  0  0  0  0  0  0  0  0
   55.0145   28.6131   51.6603 H   0  0  0  0  0  0  0  0  0  0  0  0
   54.1008   28.4997   52.9145 H   0  0  0  0  0  0  0  0  0  0  0  0
   54.4488   31.0817   50.9964 H   0  0  0  0  0  0  0  0  0  0  0  0
   53.4368   31.3973   52.1354 H   0  0  0  0  0  0  0  0  0  0  0  0
   58.0639   32.3696   53.9132 H   0  0  0  0  0  0  0  0  0  0  0  0
   59.3248   31.3111   53.1700 H   0  0  0  0  0  0  0  0  0  0  0  0
   58.6670   34.2164   52.4764 H   0  0  0  0  0  0  0  0  0  0  0  0
   60.2005   33.5586   53.1399 H   0  0  0  0  0  0  0  0  0  0  0  0
   57.7304   30.1601   44.0937 H   0  0  0  0  0  0  0  0  0  0  0  0
   58.9159   31.4835   44.3559 H   0  0  0  0  0  0  0  0  0  0  0  0
   59.7925   28.6396   44.4290 H   0  0  0  0  0  0  0  0  0  0  0  0
   60.9634   27.2675   46.1511 H   0  0  0  0  0  0  0  0  0  0  0  0
   60.7169   27.8216   48.5722 H   0  0  0  0  0  0  0  0  0  0  0  0
   58.5500   29.2710   50.1440 H   0  0  0  0  0  0  0  0  0  0  0  0
   58.0953   31.1052   47.5618 H   0  0  0  0  0  0  0  0  0  0  0  0
  1  2  2  0
  2  3  1  0
  3  4  1  0
  4  5  1  0
  5  6  2  0
  5  7  1  0
  7  8  1  0
  8  9  2  0
  9 10  1  0
 10 11  2  0
 11 12  1  0
 12 13  1  0
 13 14  2  0
 13 15  1  0
 15 16  1  0
 16 17  1  0
 17 18  1  0
 18 19  1  0
 19 20  2  0
 19 21  1  0
 21 22  1  0
 22 23  1  0
 18 24  1  0
 24 25  1  0
 12 26  2  0
  2 27  1  0
 27 28  1  0
 28 29  1  0
 29 30  2  0
 30 31  1  0
 31 32  2  0
 32 33  1  0
 33 34  1  0
 33 35  2  0
 26  8  1  0
 35 29  1  0
 25 15  1  0
 23 21  1  0
  3 36  1  0
  3 37  1  0
  7 38  1  0
  7 39  1  0
  9 40  1  0
 10 41  1  0
 11 42  1  0
 16 43  1  0
 16 44  1  0
 17 45  1  0
 17 46  1  0
 21 47  1  0
 22 48  1  0
 22 49  1  0
 23 50  1  0
 23 51  1  0
 24 52  1  0
 24 53  1  0
 25 54  1  0
 25 55  1  0
 28 56  1  0
 28 57  1  0
 30 58  1  0
 31 59  1  0
 32 60  1  0
 34 61  1  0
 35 62  1  0
M  CHG  2   4  -1  27  -1
M  END
>  <UniqueID>  (57) 
55

>  <SMILES>  (57) 
O=C(C[N-]C(=O)Cc1cccc(C(=O)N2CCN(C(=O)C3CC3)CC2)n1)[N-]Cc1cccc(O)c1

>  <Energy>  (57) 
326.74123763830505

>  <Genealogy>  (57) 
O=C(C[N-]C(=O)Cc1cccc(C(=O)N2CCN(C(=O)C3CC3)CC2)n1)[N-]Cc1cccc(O)c1 (protonated)
O=C(C[N-]C(=O)Cc1cccc(C(=O)N2CCN(C(=O)C3CC3)CC2)n1)[N-]Cc1cccc(O)c1 (3D coordinates assigned)
O=C(C[N-]C(=O)Cc1cccc(C(=O)N2CCN(C(=O)C3CC3)CC2)n1)[N-]Cc1cccc(O)c1 (nonaromatic ring conformer: 326.74123763830505 kcal/mol)

>  <smiles>  (57) 
O=C(CNC(=O)Cc1cccc(C(=O)N2CCN(C(=O)C3CC3)CC2)n1)NCc1cccc(O)c1

>  <score_type>  (57) 
oracle

>  <origin>  (57) 
adg

>  <m_score__min__energy>  (57) 
-13.779999999999999

>  <m_primary>  (57) 
energy

$$$$
57:0
     RDKit          3D

 62 65  0  0  0  0  0  0  0  0999 V2000
   59.6580   33.9140   49.9850 C   0  0  0  0  0  0  0  0  0  0  0  0
   60.9270   33.1880   49.6250 C   0  0  0  0  0  0  0  0  0  0  0  0
   61.8550   33.8070   48.7700 C   0  0  0  0  0  0  0  0  0  0  0  0
   63.0350   33.1510   48.4080 C   0  0  0  0  0  0  0  0  0  0  0  0
   63.9240   33.7590   47.5830 F   0  0  0  0  0  0  0  0  0  0  0  0
   63.3010   31.8720   48.8990 C   0  0  0  0  0  0  0  0  0  0  0  0
   62.3950   31.2480   49.7570 C   0  0  0  0  0  0  0  0  0  0  0  0
   61.2010   31.8920   50.1330 C   0  0  0  0  0  0  0  0  0  0  0  0
   60.2840   31.2490   51.0380 N   0  0  0  0  0  0  0  0  0  0  0  0
   59.3300   29.8730   50.5780 S   0  0  0  0  0  0  0  0  0  0  0  0
   59.8750   28.6370   51.2420 O   0  0  0  0  0  0  0  0  0  0  0  0
   57.9080   30.0800   51.0270 O   0  0  0  0  0  0  0  0  0  0  0  0
   59.3460   29.7080   48.8250 C   0  0  0  0  0  0  0  0  0  0  0  0
   59.6720   28.4870   48.2220 C   0  0  0  0  0  0  0  0  0  0  0  0
   59.7100   28.3790   46.8290 C   0  0  0  0  0  0  0  0  0  0  0  0
   59.4300   29.4940   46.0230 C   0  0  0  0  0  0  0  0  0  0  0  0
   59.4390   29.3670   44.5240 C   0  0  0  0  0  0  0  0  0  0  0  0
   58.0170   29.4990   43.9640 C   0  0  0  0  0  0  0  0  0  0  0  0
   57.0080   28.7090   44.7590 C   0  0  0  0  0  0  0  0  0  0  0  0
   56.0050   29.3020   45.2470 O   0  0  0  0  0  0  0  0  0  0  0  0
   57.1360   27.2790   44.9270 N   0  0  0  0  0  0  0  0  0  0  0  0
   56.6330   26.6430   46.1540 C   0  0  0  0  0  0  0  0  0  0  0  0
   55.9820   25.3010   45.8270 C   0  0  0  0  0  0  0  0  0  0  0  0
   56.8740   24.5060   44.9790 N   0  0  0  0  0  0  0  0  0  0  0  0
   56.8970   23.0760   45.1260 C   0  0  0  0  0  0  0  0  0  0  0  0
   56.6520   22.2460   44.0190 C   0  0  0  0  0  0  0  0  0  0  0  0
   56.6610   20.8550   44.1650 C   0  0  0  0  0  0  0  0  0  0  0  0
   56.9210   20.2840   45.4130 C   0  0  0  0  0  0  0  0  0  0  0  0
   57.1750   21.1000   46.5170 C   0  0  0  0  0  0  0  0  0  0  0  0
   57.1670   22.4930   46.3780 C   0  0  0  0  0  0  0  0  0  0  0  0
   57.4420   23.2920   47.4830 O   0  0  0  0  0  0  0  0  0  0  0  0
   57.3760   25.1250   43.7490 C   0  0  0  0  0  0  0  0  0  0  0  0
   58.0140   26.4820   44.0570 C   0  0  0  0  0  0  0  0  0  0  0  0
   59.0880   30.7120   46.6310 C   0  0  0  0  0  0  0  0  0  0  0  0
   59.0560   30.8200   48.0250 C   0  0  0  0  0  0  0  0  0  0  0  0
   59.5642   33.9677   51.0797 H   0  0  0  0  0  0  0  0  0  0  0  0
   59.6874   34.9319   49.5692 H   0  0  0  0  0  0  0  0  0  0  0  0
   58.7953   33.3728   49.5692 H   0  0  0  0  0  0  0  0  0  0  0  0
   61.6510   34.8161   48.3825 H   0  0  0  0  0  0  0  0  0  0  0  0
   64.2273   31.3546   48.6088 H   0  0  0  0  0  0  0  0  0  0  0  0
   62.6160   30.2422   50.1438 H   0  0  0  0  0  0  0  0  0  0  0  0
   60.0730   31.6830   51.9620 H   0  0  0  0  0  0  0  0  0  0  0  0
   59.8988   27.6103   48.8464 H   0  0  0  0  0  0  0  0  0  0  0  0
   59.9606   27.4153   46.3617 H   0  0  0  0  0  0  0  0  0  0  0  0
   60.0709   30.1600   44.0975 H   0  0  0  0  0  0  0  0  0  0  0  0
   59.8369   28.3778   44.2536 H   0  0  0  0  0  0  0  0  0  0  0  0
   57.7278   30.5601   43.9821 H   0  0  0  0  0  0  0  0  0  0  0  0
   58.0227   29.0990   42.9393 H   0  0  0  0  0  0  0  0  0  0  0  0
   57.4708   26.4803   46.8480 H   0  0  0  0  0  0  0  0  0  0  0  0
   55.8828   27.3013   46.6164 H   0  0  0  0  0  0  0  0  0  0  0  0
   55.7843   24.7546   46.7610 H   0  0  0  0  0  0  0  0  0  0  0  0
   55.0374   25.4782   45.2920 H   0  0  0  0  0  0  0  0  0  0  0  0
   56.4523   22.6920   43.0335 H   0  0  0  0  0  0  0  0  0  0  0  0
   56.4631   20.2100   43.2962 H   0  0  0  0  0  0  0  0  0  0  0  0
   56.9256   19.1898   45.5261 H   0  0  0  0  0  0  0  0  0  0  0  0
   57.3818   20.6475   47.4980 H   0  0  0  0  0  0  0  0  0  0  0  0
   58.1289   24.4657   43.2925 H   0  0  0  0  0  0  0  0  0  0  0  0
   56.5351   25.2749   43.0559 H   0  0  0  0  0  0  0  0  0  0  0  0
   58.9773   26.3224   44.5636 H   0  0  0  0  0  0  0  0  0  0  0  0
   58.1672   27.0253   43.1129 H   0  0  0  0  0  0  0  0  0  0  0  0
   58.8441   31.5854   46.0083 H   0  0  0  0  0  0  0  0  0  0  0  0
   58.8021   31.7818   48.4946 H   0  0  0  0  0  0  0  0  0  0  0  0
  1  2  1  0
  2  3  2  0
  3  4  1  0
  4  5  1  0
  4  6  2  0
  6  7  1  0
  7  8  2  0
  8  9  1  0
  9 10  1  0
 10 11  2  0
 10 12  2  0
 10 13  1  0
 13 14  2  0
 14 15  1  0
 15 16  2  0
 16 17  1  0
 17 18  1  0
 18 19  1  0
 19 20  2  0
 19 21  1  0
 21 22  1  0
 22 23  1  0
 23 24  1  0
 24 25  1  0
 25 26  2  0
 26 27  1  0
 27 28  2  0
 28 29  1  0
 29 30  2  0
 30 31  1  0
 24 32  1  0
 32 33  1  0
 16 34  1  0
 34 35  2  0
  8  2  1  0
 35 13  1  0
 33 21  1  0
 30 25  1  0
  1 36  1  0
  1 37  1  0
  1 38  1  0
  3 39  1  0
  6 40  1  0
  7 41  1  0
  9 42  1  0
 14 43  1  0
 15 44  1  0
 17 45  1  0
 17 46  1  0
 18 47  1  0
 18 48  1  0
 22 49  1  0
 22 50  1  0
 23 51  1  0
 23 52  1  0
 26 53  1  0
 27 54  1  0
 28 55  1  0
 29 56  1  0
 32 57  1  0
 32 58  1  0
 33 59  1  0
 33 60  1  0
 34 61  1  0
 35 62  1  0
M  CHG  1  31  -1
M  END
>  <UniqueID>  (58) 
56

>  <SMILES>  (58) 
Cc1cc(F)ccc1NS(=O)(=O)c1ccc(CCC(=O)N2CCN(c3ccccc3[O-])CC2)cc1

>  <Energy>  (58) 
72.56973086004727

>  <Genealogy>  (58) 
Cc1cc(F)ccc1NS(=O)(=O)c1ccc(CCC(=O)N2CCN(c3ccccc3[O-])CC2)cc1 (protonated)
Cc1cc(F)ccc1NS(=O)(=O)c1ccc(CCC(=O)N2CCN(c3ccccc3[O-])CC2)cc1 (3D coordinates assigned)
Cc1cc(F)ccc1NS(=O)(=O)c1ccc(CCC(=O)N2CCN(c3ccccc3[O-])CC2)cc1 (nonaromatic ring conformer: 72.56973086004727 kcal/mol)

>  <smiles>  (58) 
Cc1cc(F)ccc1NS(=O)(=O)c1ccc(CCC(=O)N2CCN(c3ccccc3O)CC2)cc1

>  <score_type>  (58) 
oracle

>  <origin>  (58) 
adg

>  <m_score__min__energy>  (58) 
-13.35

>  <m_primary>  (58) 
energy

$$$$
58:0
     RDKit          3D

 52 55  0  0  0  0  0  0  0  0999 V2000
   55.8200   27.0310   46.0030 O   0  0  0  0  0  0  0  0  0  0  0  0
   56.4630   28.0100   45.5350 C   0  0  0  0  0  0  0  0  0  0  0  0
   57.9440   28.0790   45.7230 C   0  0  0  0  0  0  0  0  0  0  0  0
   58.2970   27.6180   47.0590 N   0  0  0  0  0  0  0  0  0  0  0  0
   59.5830   27.8440   47.6400 C   0  0  0  0  0  0  0  0  0  0  0  0
   60.1290   26.9440   48.3330 O   0  0  0  0  0  0  0  0  0  0  0  0
   60.2450   29.1480   47.4580 C   0  0  0  0  0  0  0  0  0  0  0  0
   60.2430   29.6870   46.3220 O   0  0  0  0  0  0  0  0  0  0  0  0
   60.8280   29.8580   48.5580 N   0  0  0  0  0  0  0  0  0  0  0  0
   61.8070   30.9010   48.4610 C   0  0  0  0  0  0  0  0  0  0  0  0
   61.9990   31.6190   47.2660 C   0  0  0  0  0  0  0  0  0  0  0  0
   62.9300   32.6610   47.2150 C   0  0  0  0  0  0  0  0  0  0  0  0
   63.6610   33.0060   48.3560 C   0  0  0  0  0  0  0  0  0  0  0  0
   63.4630   32.3060   49.5490 C   0  0  0  0  0  0  0  0  0  0  0  0
   62.5300   31.2660   49.6050 C   0  0  0  0  0  0  0  0  0  0  0  0
   55.7920   29.0540   44.8180 N   0  0  0  0  0  0  0  0  0  0  0  0
   56.4170   30.1680   44.1650 C   0  0  0  0  0  0  0  0  0  0  0  0
   56.4420   30.2000   42.7650 C   0  0  0  0  0  0  0  0  0  0  0  0
   57.0460   31.2670   42.0950 C   0  0  0  0  0  0  0  0  0  0  0  0
   57.6570   32.2940   42.8180 C   0  0  0  0  0  0  0  0  0  0  0  0
   57.6860   32.2510   44.2200 C   0  0  0  0  0  0  0  0  0  0  0  0
   58.3430   33.3240   44.9940 C   0  0  0  0  0  0  0  0  0  0  0  0
   58.5010   34.4530   44.4540 O   0  0  0  0  0  0  0  0  0  0  0  0
   58.7810   33.1190   46.3480 N   0  0  0  0  0  0  0  0  0  0  0  0
   59.5720   34.1110   47.0820 C   0  0  0  0  0  0  0  0  0  0  0  0
   59.5230   33.6160   48.4790 C   0  0  0  0  0  0  0  0  0  0  0  0
   60.1090   34.1860   49.6120 C   0  0  0  0  0  0  0  0  0  0  0  0
   59.9190   33.5580   50.8530 C   0  0  0  0  0  0  0  0  0  0  0  0
   59.1530   32.3780   50.9410 C   0  0  0  0  0  0  0  0  0  0  0  0
   58.5730   31.8250   49.7870 C   0  0  0  0  0  0  0  0  0  0  0  0
   58.7750   32.4660   48.5640 C   0  0  0  0  0  0  0  0  0  0  0  0
   58.2560   32.0730   47.2340 C   0  0  0  0  0  0  0  0  0  0  0  0
   57.0530   31.1920   44.8900 C   0  0  0  0  0  0  0  0  0  0  0  0
   58.4366   27.4404   44.9750 H   0  0  0  0  0  0  0  0  0  0  0  0
   58.2762   29.1204   45.6001 H   0  0  0  0  0  0  0  0  0  0  0  0
   61.4155   31.3600   46.3702 H   0  0  0  0  0  0  0  0  0  0  0  0
   63.0877   33.2105   46.2752 H   0  0  0  0  0  0  0  0  0  0  0  0
   64.3912   33.8276   48.3145 H   0  0  0  0  0  0  0  0  0  0  0  0
   64.0419   32.5734   50.4453 H   0  0  0  0  0  0  0  0  0  0  0  0
   62.3626   30.7315   50.5517 H   0  0  0  0  0  0  0  0  0  0  0  0
   55.9841   29.3814   42.1904 H   0  0  0  0  0  0  0  0  0  0  0  0
   57.0403   31.2983   40.9955 H   0  0  0  0  0  0  0  0  0  0  0  0
   58.1172   33.1398   42.2861 H   0  0  0  0  0  0  0  0  0  0  0  0
   60.6070   34.1433   46.7109 H   0  0  0  0  0  0  0  0  0  0  0  0
   59.1874   35.1358   46.9734 H   0  0  0  0  0  0  0  0  0  0  0  0
   60.7061   35.1065   49.5333 H   0  0  0  0  0  0  0  0  0  0  0  0
   60.3693   33.9881   51.7597 H   0  0  0  0  0  0  0  0  0  0  0  0
   59.0090   31.8889   51.9157 H   0  0  0  0  0  0  0  0  0  0  0  0
   57.9720   30.9056   49.8463 H   0  0  0  0  0  0  0  0  0  0  0  0
   58.6322   31.0818   46.9407 H   0  0  0  0  0  0  0  0  0  0  0  0
   57.1593   31.9927   47.2049 H   0  0  0  0  0  0  0  0  0  0  0  0
   57.0544   31.1628   45.9896 H   0  0  0  0  0  0  0  0  0  0  0  0
  1  2  2  0
  2  3  1  0
  3  4  1  0
  4  5  1  0
  5  6  2  0
  5  7  1  0
  7  8  2  0
  7  9  1  0
  9 10  1  0
 10 11  2  0
 11 12  1  0
 12 13  2  0
 13 14  1  0
 14 15  2  0
  2 16  1  0
 16 17  1  0
 17 18  2  0
 18 19  1  0
 19 20  2  0
 20 21  1  0
 21 22  1  0
 22 23  2  0
 22 24  1  0
 24 25  1  0
 25 26  1  0
 26 27  2  0
 27 28  1  0
 28 29  2  0
 29 30  1  0
 30 31  2  0
 31 32  1  0
 21 33  2  0
 15 10  1  0
 33 17  1  0
 32 24  1  0
 31 26  1  0
  3 34  1  0
  3 35  1  0
 11 36  1  0
 12 37  1  0
 13 38  1  0
 14 39  1  0
 15 40  1  0
 18 41  1  0
 19 42  1  0
 20 43  1  0
 25 44  1  0
 25 45  1  0
 27 46  1  0
 28 47  1  0
 29 48  1  0
 30 49  1  0
 32 50  1  0
 32 51  1  0
 33 52  1  0
M  CHG  3   4  -1   9  -1  16  -1
M  END
>  <UniqueID>  (59) 
57

>  <SMILES>  (59) 
O=C(C[N-]C(=O)C(=O)[N-]c1ccccc1)[N-]c1cccc(C(=O)N2Cc3ccccc3C2)c1

>  <Energy>  (59) 
76.01365075426344

>  <Genealogy>  (59) 
O=C(C[N-]C(=O)C(=O)[N-]c1ccccc1)[N-]c1cccc(C(=O)N2Cc3ccccc3C2)c1 (protonated)
O=C(C[N-]C(=O)C(=O)[N-]c1ccccc1)[N-]c1cccc(C(=O)N2Cc3ccccc3C2)c1 (3D coordinates assigned)
O=C(C[N-]C(=O)C(=O)[N-]c1ccccc1)[N-]c1cccc(C(=O)N2Cc3ccccc3C2)c1 (nonaromatic ring conformer: 76.01365075426344 kcal/mol)

>  <smiles>  (59) 
O=C(CNC(=O)C(=O)Nc1ccccc1)Nc1cccc(C(=O)N2Cc3ccccc3C2)c1

>  <score_type>  (59) 
oracle

>  <origin>  (59) 
adg

>  <m_score__min__energy>  (59) 
-14.93

>  <m_primary>  (59) 
energy

$$$$
59:0
     RDKit          3D

 71 75  0  0  1  0  0  0  0  0999 V2000
   60.4590   31.5250   51.0590 N   0  0  0  0  0  0  0  0  0  0  0  0
   58.8030   31.7830   50.7090 S   0  0  0  0  0  0  0  0  0  0  0  0
   58.5370   33.2660   50.9270 O   0  0  0  0  0  0  0  0  0  0  0  0
   58.5070   31.3940   49.3010 O   0  0  0  0  0  0  0  0  0  0  0  0
   57.7440   30.8660   51.7880 C   0  0  0  0  0  0  0  0  0  0  0  0
   56.4060   31.1920   51.8300 C   0  0  0  0  0  0  0  0  0  0  0  0
   55.5940   30.4670   52.6760 C   0  0  0  0  0  0  0  0  0  0  0  0
   56.0930   29.4320   53.4740 C   0  0  0  0  0  0  0  0  0  0  0  0
   58.8610   26.1860   47.4740 C   0  0  0  0  0  0  0  0  0  0  0  0
   59.2650   27.4850   47.4560 C   0  0  0  0  0  0  0  0  0  0  0  0
   59.6590   29.5980   52.4390 N   0  0  0  0  0  0  0  0  0  0  0  0
   60.0380   28.6820   51.6260 C   0  0  0  0  0  0  0  0  0  0  0  0
   60.0160   28.8200   50.2940 N   0  0  0  0  0  0  0  0  0  0  0  0
   60.4120   27.8640   49.4350 C   0  0  0  0  0  0  0  0  0  0  0  0
   60.3890   27.9960   48.1630 N   0  0  0  0  0  0  0  0  0  0  0  0
   58.2620   29.8340   52.5760 C   0  0  0  0  0  0  0  0  0  0  0  0
   57.4530   29.1070   53.4240 C   0  0  0  0  0  0  0  0  0  0  0  0
   57.7520   25.8140   46.7440 C   0  0  0  0  0  0  0  0  0  0  0  0
   57.0300   26.7390   45.9840 C   0  0  0  0  0  0  0  0  0  0  0  0
   57.4370   28.0480   45.9660 C   0  0  0  0  0  0  0  0  0  0  0  0
   56.7600   29.0980   45.2070 C   0  0  0  0  0  0  0  0  0  0  0  0
   55.5180   28.9630   45.0570 O   0  0  0  0  0  0  0  0  0  0  0  0
   57.4160   30.2170   44.6570 N   0  0  0  0  0  0  0  0  0  0  0  0
   58.8550   30.4490   44.7840 C   0  0  0  0  0  0  0  0  0  0  0  0
   59.0330   31.6530   45.6710 C   0  0  0  0  0  0  0  0  0  0  0  0
   58.1830   32.7990   45.1660 C   0  0  0  0  0  0  0  0  0  0  0  0
   59.1110   33.9850   45.0220 C   0  0  0  0  0  0  0  0  0  0  0  0
   59.8330   34.3660   46.1480 N   0  0  0  0  0  0  0  0  0  0  0  0
   61.1300   33.8630   46.3770 C   0  0  0  0  0  0  0  0  0  0  0  0
   61.3520   33.8450   47.8770 C   0  0  0  0  0  0  0  0  0  0  0  0
   59.9990   34.1450   48.4920 C   0  0  0  0  0  0  0  0  0  0  0  0
   59.2060   34.7470   47.3460 C   0  0  0  0  0  0  0  0  0  0  0  0
   57.5790   32.4470   43.8270 C   0  0  0  0  0  0  0  0  0  0  0  0
   56.6700   31.2170   43.9230 C   0  0  0  0  0  0  0  0  0  0  0  0
   58.5450   28.4130   46.6970 C   0  0  0  0  0  0  0  0  0  0  0  0
   60.8570   26.7000   49.9560 N   0  0  0  0  0  0  0  0  0  0  0  0
   60.9170   26.4680   51.2800 C   0  0  0  0  0  0  0  0  0  0  0  0
   60.5010   27.4740   52.1430 C   0  0  0  0  0  0  0  0  0  0  0  0
   60.5800   27.1650   53.8450 Cl  0  0  0  0  0  0  0  0  0  0  0  0
   60.5700   31.5610   52.1130 H   0  0  0  0  0  0  0  0  0  0  0  0
   60.7790   30.5720   50.7710 H   0  0  0  0  0  0  0  0  0  0  0  0
   55.9991   32.0038   51.2091 H   0  0  0  0  0  0  0  0  0  0  0  0
   54.5222   30.7095   52.7250 H   0  0  0  0  0  0  0  0  0  0  0  0
   55.4174   28.8747   54.1396 H   0  0  0  0  0  0  0  0  0  0  0  0
   59.4133   25.4403   48.0647 H   0  0  0  0  0  0  0  0  0  0  0  0
   59.6640   29.7370   49.9230 H   0  0  0  0  0  0  0  0  0  0  0  0
   57.8647   28.2959   54.0426 H   0  0  0  0  0  0  0  0  0  0  0  0
   57.4272   24.7632   46.7600 H   0  0  0  0  0  0  0  0  0  0  0  0
   56.1480   26.4211   45.4087 H   0  0  0  0  0  0  0  0  0  0  0  0
   59.3401   29.5717   45.2369 H   0  0  0  0  0  0  0  0  0  0  0  0
   59.3128   30.6180   43.7982 H   0  0  0  0  0  0  0  0  0  0  0  0
   58.7282   31.3979   46.6967 H   0  0  0  0  0  0  0  0  0  0  0  0
   60.0904   31.9560   45.6602 H   0  0  0  0  0  0  0  0  0  0  0  0
   57.3561   33.0190   45.8572 H   0  0  0  0  0  0  0  0  0  0  0  0
   59.8353   33.7445   44.2299 H   0  0  0  0  0  0  0  0  0  0  0  0
   58.4507   34.8378   44.8059 H   0  0  0  0  0  0  0  0  0  0  0  0
   61.2147   32.8437   45.9723 H   0  0  0  0  0  0  0  0  0  0  0  0
   61.8835   34.4923   45.8807 H   0  0  0  0  0  0  0  0  0  0  0  0
   61.7104   32.8566   48.2005 H   0  0  0  0  0  0  0  0  0  0  0  0
   62.1114   34.5787   48.1853 H   0  0  0  0  0  0  0  0  0  0  0  0
   59.5217   33.2238   48.8575 H   0  0  0  0  0  0  0  0  0  0  0  0
   60.0661   34.8155   49.3614 H   0  0  0  0  0  0  0  0  0  0  0  0
   58.1732   34.3688   47.3654 H   0  0  0  0  0  0  0  0  0  0  0  0
   59.1737   35.8431   47.4330 H   0  0  0  0  0  0  0  0  0  0  0  0
   56.9867   33.3012   43.4671 H   0  0  0  0  0  0  0  0  0  0  0  0
   58.3984   32.2153   43.1306 H   0  0  0  0  0  0  0  0  0  0  0  0
   55.7427   31.4695   44.4582 H   0  0  0  0  0  0  0  0  0  0  0  0
   56.3854   30.8513   42.9254 H   0  0  0  0  0  0  0  0  0  0  0  0
   58.8728   29.4629   46.6837 H   0  0  0  0  0  0  0  0  0  0  0  0
   61.1700   25.9440   49.3010 H   0  0  0  0  0  0  0  0  0  0  0  0
   61.2857   25.5073   51.6687 H   0  0  0  0  0  0  0  0  0  0  0  0
  1  2  1  0
  2  3  2  0
  2  4  2  0
  2  5  1  0
  5  6  2  0
  6  7  1  0
  7  8  2  0
  8  9  1  0
  9 10  2  0
 10 11  1  0
 11 12  2  0
 12 13  1  0
 13 14  1  0
 14 15  2  0
 15 16  1  0
 16 17  2  0
 17 18  1  0
 18 19  2  0
 19 20  1  0
 20 21  1  0
 21 22  2  0
 21 23  1  0
 23 24  1  0
 24 25  1  0
 25 26  1  0
 26 27  1  0
 27 28  1  0
 28 29  1  0
 29 30  1  0
 30 31  1  0
 31 32  1  0
 26 33  1  0
 33 34  1  0
 20 35  2  0
 14 36  1  0
 36 37  1  0
 37 38  2  0
 38 39  1  0
 10  5  1  0
 38 12  1  0
 35 16  1  0
 34 23  1  0
 32 28  1  0
  1 40  1  0
  1 41  1  0
  6 42  1  0
  7 43  1  0
  8 44  1  0
  9 45  1  0
 13 46  1  0
 17 47  1  0
 18 48  1  0
 19 49  1  0
 24 50  1  0
 24 51  1  0
 25 52  1  0
 25 53  1  0
 26 54  1  0
 27 55  1  0
 27 56  1  0
 29 57  1  0
 29 58  1  0
 30 59  1  0
 30 60  1  0
 31 61  1  0
 31 62  1  0
 32 63  1  0
 32 64  1  0
 33 65  1  0
 33 66  1  0
 34 67  1  0
 34 68  1  0
 35 69  1  0
 36 70  1  0
 37 71  1  0
M  END
>  <smiles>  (60) 
NS(=O)(=O)c1ccccc1N=c1[nH]c(=Nc2cccc(C(=O)N3CCC(CN4CCCC4)CC3)c2)[nH]cc1Cl

>  <score_type>  (60) 
oracle

>  <origin>  (60) 
adg

>  <m_score__min__energy>  (60) 
-12.17

>  <m_primary>  (60) 
energy

$$$$
60:0
     RDKit          3D

 53 56  0  0  0  0  0  0  0  0999 V2000
   54.1106   27.6832   53.6700 H   0  0  0  0  0  0  0  0  0  0  0  0
   53.8450   28.4820   52.9620 C   0  0  0  0  0  0  0  0  0  0  0  0
   52.8665   28.4688   52.4596 H   0  0  0  0  0  0  0  0  0  0  0  0
   54.7150   29.4730   52.7110 C   0  0  0  0  0  0  0  0  0  0  0  0
   54.5290   30.5590   51.8400 C   0  0  0  0  0  0  0  0  0  0  0  0
   53.4290   31.0050   51.2030 C   0  0  0  0  0  0  0  0  0  0  0  0
   53.4093   30.9065   50.1076 H   0  0  0  0  0  0  0  0  0  0  0  0
   52.2520   31.6120   51.8430 C   0  0  0  0  0  0  0  0  0  0  0  0
   51.8050   31.2590   53.0610 N   0  0  0  0  0  0  0  0  0  0  0  0
   50.6580   31.9600   53.1870 C   0  0  0  0  0  0  0  0  0  0  0  0
   49.9420   31.9070   54.2210 O   0  0  0  0  0  0  0  0  0  0  0  0
   50.3320   32.7130   52.1150 N   0  0  0  0  0  0  0  0  0  0  0  0
   51.3430   32.4690   51.2670 C   0  0  0  0  0  0  0  0  0  0  0  0
   51.4180   32.9970   49.9830 O   0  0  0  0  0  0  0  0  0  0  0  0
   55.7620   31.1770   51.7270 C   0  0  0  0  0  0  0  0  0  0  0  0
   56.0028   32.0452   51.0959 H   0  0  0  0  0  0  0  0  0  0  0  0
   56.6320   30.4990   52.5550 C   0  0  0  0  0  0  0  0  0  0  0  0
   58.0650   30.8980   52.7730 C   0  0  0  0  0  0  0  0  0  0  0  0
   58.2265   31.9070   52.3657 H   0  0  0  0  0  0  0  0  0  0  0  0
   58.2785   30.8880   53.8520 H   0  0  0  0  0  0  0  0  0  0  0  0
   58.9910   29.9280   52.0810 C   0  0  0  0  0  0  0  0  0  0  0  0
   59.2000   28.8400   52.6020 O   0  0  0  0  0  0  0  0  0  0  0  0
   59.6280   30.2630   50.8200 N   0  0  0  0  0  0  0  0  0  0  0  0
   60.5050   29.6980   50.7300 H   0  0  0  0  0  0  0  0  0  0  0  0
   60.0330   31.6980   50.8050 C   0  0  0  0  0  0  0  0  0  0  0  0
   59.9914   32.0827   51.8347 H   0  0  0  0  0  0  0  0  0  0  0  0
   61.0483   31.7443   50.3843 H   0  0  0  0  0  0  0  0  0  0  0  0
   59.1360   32.5760   49.9210 C   0  0  0  0  0  0  0  0  0  0  0  0
   58.1228   32.6081   50.3481 H   0  0  0  0  0  0  0  0  0  0  0  0
   59.5546   33.5923   49.8779 H   0  0  0  0  0  0  0  0  0  0  0  0
   59.0740   32.0210   48.5610 N   0  0  0  0  0  0  0  0  0  0  0  0
   58.8910   32.8840   47.4180 C   0  0  0  0  0  0  0  0  0  0  0  0
   59.7340   33.9940   47.2140 C   0  0  0  0  0  0  0  0  0  0  0  0
   60.5421   34.2047   47.9299 H   0  0  0  0  0  0  0  0  0  0  0  0
   59.5510   34.8300   46.1080 C   0  0  0  0  0  0  0  0  0  0  0  0
   60.2148   35.6941   45.9574 H   0  0  0  0  0  0  0  0  0  0  0  0
   58.5270   34.5700   45.1940 C   0  0  0  0  0  0  0  0  0  0  0  0
   58.3860   35.2273   44.3233 H   0  0  0  0  0  0  0  0  0  0  0  0
   57.6830   33.4750   45.3870 C   0  0  0  0  0  0  0  0  0  0  0  0
   56.8755   33.2717   44.6683 H   0  0  0  0  0  0  0  0  0  0  0  0
   57.8610   32.6360   46.4910 C   0  0  0  0  0  0  0  0  0  0  0  0
   57.1912   31.7756   46.6364 H   0  0  0  0  0  0  0  0  0  0  0  0
   59.1380   30.5630   48.3890 C   0  0  0  0  0  0  0  0  0  0  0  0
   58.4421   30.2607   47.5926 H   0  0  0  0  0  0  0  0  0  0  0  0
   60.1659   30.2794   48.1190 H   0  0  0  0  0  0  0  0  0  0  0  0
   58.7520   29.8560   49.6930 C   0  0  0  0  0  0  0  0  0  0  0  0
   57.7110   30.1101   49.9413 H   0  0  0  0  0  0  0  0  0  0  0  0
   58.8690   28.7726   49.5425 H   0  0  0  0  0  0  0  0  0  0  0  0
   55.9920   29.4800   53.1780 N   0  0  0  0  0  0  0  0  0  0  0  0
   56.5910   28.4980   54.0880 C   0  0  0  0  0  0  0  0  0  0  0  0
   56.4057   28.8018   55.1288 H   0  0  0  0  0  0  0  0  0  0  0  0
   56.1415   27.5101   53.9088 H   0  0  0  0  0  0  0  0  0  0  0  0
   57.6750   28.4455   53.9088 H   0  0  0  0  0  0  0  0  0  0  0  0
  1  2  1  0
  2  3  1  0
  2  4  2  0
  4  5  1  0
  5  6  2  0
  6  7  1  0
  6  8  1  0
  8  9  1  0
  9 10  1  0
 10 11  2  0
 10 12  1  0
 12 13  1  0
 13 14  1  0
  5 15  1  0
 15 16  1  0
 15 17  2  0
 17 18  1  0
 18 19  1  0
 18 20  1  0
 18 21  1  0
 21 22  2  0
 21 23  1  0
 23 24  1  0
 23 25  1  0
 25 26  1  0
 25 27  1  0
 25 28  1  0
 28 29  1  0
 28 30  1  0
 28 31  1  0
 31 32  1  0
 32 33  2  0
 33 34  1  0
 33 35  1  0
 35 36  1  0
 35 37  2  0
 37 38  1  0
 37 39  1  0
 39 40  1  0
 39 41  2  0
 41 42  1  0
 31 43  1  0
 43 44  1  0
 43 45  1  0
 43 46  1  0
 46 47  1  0
 46 48  1  0
 17 49  1  0
 49 50  1  0
 50 51  1  0
 50 52  1  0
 50 53  1  0
 49  4  1  0
 13  8  2  0
 46 23  1  0
 41 32  1  0
M  CHG  4   9  -1  12  -1  14  -1  23   1
M  END
>  <UniqueID>  (61) 
58

>  <SMILES>  (61) 
C=c1/c(=C\c2[n-]c(=O)[n-]c2[O-])cc(CC(=O)[NH+]2CCN(c3ccccc3)CC2)n1C

>  <Energy>  (61) 
134.56492743010102

>  <Genealogy>  (61) 
C=c1c(=Cc2[n-]c(=O)[n-]c2[O-])cc(CC(=O)[NH+]2CCN(c3ccccc3)CC2)n1C (protonated)
C=c1/c(=C\c2[n-]c(=O)[n-]c2[O-])cc(CC(=O)[NH+]2CCN(c3ccccc3)CC2)n1C (cis-trans isomerization)
C=c1/c(=C\c2[n-]c(=O)[n-]c2[O-])cc(CC(=O)[NH+]2CCN(c3ccccc3)CC2)n1C (3D coordinates assigned)
C=c1/c(=C\c2[n-]c(=O)[n-]c2[O-])cc(CC(=O)[NH+]2CCN(c3ccccc3)CC2)n1C (nonaromatic ring conformer: 134.56492743010102 kcal/mol)

>  <smiles>  (61) 
C=c1c(=Cc2[nH]c(=O)[nH]c2O)cc(CC(=O)N2CCN(c3ccccc3)CC2)n1C

>  <score_type>  (61) 
oracle

>  <origin>  (61) 
adg

>  <m_score__min__energy>  (61) 
-16.710000000000001

>  <m_primary>  (61) 
energy

$$$$
61:0
     RDKit          3D

 57 60  0  0  0  0  0  0  0  0999 V2000
   56.2710   29.4010   42.2570 C   0  0  0  0  0  0  0  0  0  0  0  0
   57.3070   29.5410   43.2960 N   0  0  2  0  0  0  0  0  0  0  0  0
   57.8420   28.2280   43.7300 C   0  0  0  0  0  0  0  0  0  0  0  0
   58.7430   28.3040   44.9460 C   0  0  0  0  0  0  0  0  0  0  0  0
   59.8170   29.2100   44.9810 C   0  0  0  0  0  0  0  0  0  0  0  0
   60.6390   29.2840   46.1090 C   0  0  0  0  0  0  0  0  0  0  0  0
   60.3980   28.4560   47.2090 C   0  0  0  0  0  0  0  0  0  0  0  0
   59.3310   27.5540   47.1860 C   0  0  0  0  0  0  0  0  0  0  0  0
   59.0870   26.7620   48.2590 F   0  0  0  0  0  0  0  0  0  0  0  0
   58.5040   27.4790   46.0600 C   0  0  0  0  0  0  0  0  0  0  0  0
   56.8420   30.3300   44.4220 C   0  0  0  0  0  0  0  0  0  0  0  0
   55.8490   29.9480   45.1020 O   0  0  0  0  0  0  0  0  0  0  0  0
   57.5650   31.5450   44.8500 C   0  0  0  0  0  0  0  0  0  0  0  0
   58.0460   31.7870   46.1310 C   0  0  0  0  0  0  0  0  0  0  0  0
   58.7580   32.9900   46.2350 C   0  0  0  0  0  0  0  0  0  0  0  0
   59.5570   33.5000   47.7130 S   0  0  0  0  0  0  0  0  0  0  0  0
   61.0320   33.2410   47.5790 O   0  0  0  0  0  0  0  0  0  0  0  0
   59.3490   34.9760   47.9090 O   0  0  0  0  0  0  0  0  0  0  0  0
   58.8880   32.5850   49.0470 N   0  0  0  0  0  0  0  0  0  0  0  0
   59.3530   31.1890   48.9970 C   0  0  0  0  0  0  0  0  0  0  0  0
   58.8740   30.3730   50.2170 C   0  0  0  0  0  0  0  0  0  0  0  0
   58.0870   31.1830   51.1610 N   0  0  0  0  0  0  0  0  0  0  0  0
   57.0550   30.5550   51.9410 C   0  0  0  0  0  0  0  0  0  0  0  0
   55.7570   31.0900   51.9540 C   0  0  0  0  0  0  0  0  0  0  0  0
   54.7580   30.4930   52.7280 C   0  0  0  0  0  0  0  0  0  0  0  0
   55.0470   29.3600   53.4920 C   0  0  0  0  0  0  0  0  0  0  0  0
   56.3360   28.8220   53.4850 C   0  0  0  0  0  0  0  0  0  0  0  0
   57.3390   29.4170   52.7150 C   0  0  0  0  0  0  0  0  0  0  0  0
   58.4530   32.5760   51.4580 C   0  0  0  0  0  0  0  0  0  0  0  0
   59.2810   33.1880   50.3270 C   0  0  0  0  0  0  0  0  0  0  0  0
   58.8370   33.7030   45.0450 C   0  0  0  0  0  0  0  0  0  0  0  0
   58.0230   32.8310   43.8620 S   0  0  0  0  0  0  0  0  0  0  0  0
   55.2888   29.2683   42.7341 H   0  0  0  0  0  0  0  0  0  0  0  0
   56.2552   30.3052   41.6307 H   0  0  0  0  0  0  0  0  0  0  0  0
   56.4958   28.5251   41.6307 H   0  0  0  0  0  0  0  0  0  0  0  0
   58.0940   30.0610   42.8450 H   0  0  0  0  0  0  0  0  0  0  0  0
   56.9935   27.5698   43.9682 H   0  0  0  0  0  0  0  0  0  0  0  0
   58.4551   27.8433   42.9017 H   0  0  0  0  0  0  0  0  0  0  0  0
   60.0113   29.8632   44.1175 H   0  0  0  0  0  0  0  0  0  0  0  0
   61.4776   29.9956   46.1311 H   0  0  0  0  0  0  0  0  0  0  0  0
   61.0490   28.5145   48.0938 H   0  0  0  0  0  0  0  0  0  0  0  0
   57.6623   26.7710   46.0458 H   0  0  0  0  0  0  0  0  0  0  0  0
   57.8844   31.1037   46.9778 H   0  0  0  0  0  0  0  0  0  0  0  0
   58.9653   30.7186   48.0813 H   0  0  0  0  0  0  0  0  0  0  0  0
   60.4529   31.1979   49.0063 H   0  0  0  0  0  0  0  0  0  0  0  0
   58.2502   29.5396   49.8615 H   0  0  0  0  0  0  0  0  0  0  0  0
   59.7661   30.0110   50.7490 H   0  0  0  0  0  0  0  0  0  0  0  0
   55.5255   31.9818   51.3531 H   0  0  0  0  0  0  0  0  0  0  0  0
   53.7426   30.9161   52.7355 H   0  0  0  0  0  0  0  0  0  0  0  0
   54.2590   28.8911   54.0996 H   0  0  0  0  0  0  0  0  0  0  0  0
   56.5619   27.9290   54.0862 H   0  0  0  0  0  0  0  0  0  0  0  0
   58.3541   28.9932   52.7148 H   0  0  0  0  0  0  0  0  0  0  0  0
   57.5347   33.1671   51.5898 H   0  0  0  0  0  0  0  0  0  0  0  0
   59.0589   32.5869   52.3760 H   0  0  0  0  0  0  0  0  0  0  0  0
   59.1046   34.2731   50.2900 H   0  0  0  0  0  0  0  0  0  0  0  0
   60.3483   32.9945   50.5096 H   0  0  0  0  0  0  0  0  0  0  0  0
   59.3436   34.6689   44.9025 H   0  0  0  0  0  0  0  0  0  0  0  0
  1  2  1  0
  2  3  1  0
  3  4  1  0
  4  5  2  0
  5  6  1  0
  6  7  2  0
  7  8  1  0
  8  9  1  0
  8 10  2  0
  2 11  1  0
 11 12  2  0
 11 13  1  0
 13 14  2  0
 14 15  1  0
 15 16  1  0
 16 17  2  0
 16 18  2  0
 16 19  1  0
 19 20  1  0
 20 21  1  0
 21 22  1  0
 22 23  1  0
 23 24  2  0
 24 25  1  0
 25 26  2  0
 26 27  1  0
 27 28  2  0
 22 29  1  0
 29 30  1  0
 15 31  2  0
 31 32  1  0
 10  4  1  0
 32 13  1  0
 30 19  1  0
 28 23  1  0
  1 33  1  0
  1 34  1  0
  1 35  1  0
  2 36  1  6
  3 37  1  0
  3 38  1  0
  5 39  1  0
  6 40  1  0
  7 41  1  0
 10 42  1  0
 14 43  1  0
 20 44  1  0
 20 45  1  0
 21 46  1  0
 21 47  1  0
 24 48  1  0
 25 49  1  0
 26 50  1  0
 27 51  1  0
 28 52  1  0
 29 53  1  0
 29 54  1  0
 30 55  1  0
 30 56  1  0
 31 57  1  0
M  CHG  1   2   1
M  END
>  <UniqueID>  (62) 
59

>  <SMILES>  (62) 
C[N@H+](Cc1cccc(F)c1)C(=O)c1cc(S(=O)(=O)N2CCN(c3ccccc3)CC2)cs1

>  <Energy>  (62) 
99.36504664719891

>  <Genealogy>  (62) 
C[NH+](Cc1cccc(F)c1)C(=O)c1cc(S(=O)(=O)N2CCN(c3ccccc3)CC2)cs1 (protonated)
C[N@H+](Cc1cccc(F)c1)C(=O)c1cc(S(=O)(=O)N2CCN(c3ccccc3)CC2)cs1 (chirality)
C[N@H+](Cc1cccc(F)c1)C(=O)c1cc(S(=O)(=O)N2CCN(c3ccccc3)CC2)cs1 (3D coordinates assigned)
C[N@H+](Cc1cccc(F)c1)C(=O)c1cc(S(=O)(=O)N2CCN(c3ccccc3)CC2)cs1 (nonaromatic ring conformer: 99.36504664719891 kcal/mol)

>  <smiles>  (62) 
CN(Cc1cccc(F)c1)C(=O)c1cc(S(=O)(=O)N2CCN(c3ccccc3)CC2)cs1

>  <score_type>  (62) 
oracle

>  <origin>  (62) 
adg

>  <m_score__min__energy>  (62) 
-8.2599999999999998

>  <m_primary>  (62) 
energy

$$$$
62:0
     RDKit          3D

 54 57  0  0  0  0  0  0  0  0999 V2000
   53.4330   28.8230   53.8320 C   0  0  0  0  0  0  0  0  0  0  0  0
   54.4160   29.3980   53.1200 C   0  0  0  0  0  0  0  0  0  0  0  0
   54.3790   30.6600   52.5070 C   0  0  0  0  0  0  0  0  0  0  0  0
   53.3550   31.5070   52.2840 C   0  0  0  0  0  0  0  0  0  0  0  0
   52.4460   31.4700   51.1290 C   0  0  0  0  0  0  0  0  0  0  0  0
   52.4300   30.4710   50.2290 N   0  0  0  0  0  0  0  0  0  0  0  0
   51.3780   30.7790   49.4400 C   0  0  0  0  0  0  0  0  0  0  0  0
   51.0420   30.0750   48.4520 O   0  0  0  0  0  0  0  0  0  0  0  0
   50.7050   31.8940   49.7990 N   0  0  0  0  0  0  0  0  0  0  0  0
   51.3850   32.3110   50.8790 C   0  0  0  0  0  0  0  0  0  0  0  0
   51.0260   33.4200   51.6360 O   0  0  0  0  0  0  0  0  0  0  0  0
   55.6770   30.9390   52.1220 C   0  0  0  0  0  0  0  0  0  0  0  0
   56.4480   29.8360   52.4450 C   0  0  0  0  0  0  0  0  0  0  0  0
   57.9220   29.7340   52.2580 C   0  0  0  0  0  0  0  0  0  0  0  0
   58.5740   28.9790   53.0300 O   0  0  0  0  0  0  0  0  0  0  0  0
   58.6440   30.5080   51.2650 N   0  0  0  0  0  0  0  0  0  0  0  0
   59.5450   29.6400   50.4540 C   0  0  0  0  0  0  0  0  0  0  0  0
   60.8890   30.3010   50.0950 C   0  0  0  0  0  0  0  0  0  0  0  0
   60.7070   31.7320   49.8350 N   0  0  0  0  0  0  0  0  0  0  0  0
   61.4380   32.3700   48.7760 C   0  0  0  0  0  0  0  0  0  0  0  0
   62.8280   32.1880   48.6790 C   0  0  0  0  0  0  0  0  0  0  0  0
   63.4870   31.4310   49.5930 F   0  0  0  0  0  0  0  0  0  0  0  0
   63.5490   32.8080   47.6560 C   0  0  0  0  0  0  0  0  0  0  0  0
   62.8910   33.6110   46.7240 C   0  0  0  0  0  0  0  0  0  0  0  0
   61.5100   33.7990   46.8100 C   0  0  0  0  0  0  0  0  0  0  0  0
   60.7690   33.1770   47.8350 C   0  0  0  0  0  0  0  0  0  0  0  0
   59.3770   33.3290   47.9440 O   0  0  0  0  0  0  0  0  0  0  0  0
   58.5430   33.8720   46.9250 C   0  0  0  0  0  0  0  0  0  0  0  0
   59.9360   32.5560   50.7700 C   0  0  0  0  0  0  0  0  0  0  0  0
   59.3080   31.6860   51.8650 C   0  0  0  0  0  0  0  0  0  0  0  0
   55.6720   28.8870   53.0250 N   0  0  0  0  0  0  0  0  0  0  0  0
   56.1250   27.5760   53.5090 C   0  0  0  0  0  0  0  0  0  0  0  0
   53.5809   27.8232   54.2663 H   0  0  0  0  0  0  0  0  0  0  0  0
   52.4800   29.3518   53.9808 H   0  0  0  0  0  0  0  0  0  0  0  0
   53.1841   32.2954   53.0318 H   0  0  0  0  0  0  0  0  0  0  0  0
   56.0313   31.8657   51.6470 H   0  0  0  0  0  0  0  0  0  0  0  0
   57.9220   30.8950   50.6080 H   0  0  0  0  0  0  0  0  0  0  0  0
   59.7514   28.7238   51.0267 H   0  0  0  0  0  0  0  0  0  0  0  0
   59.0252   29.4366   49.5061 H   0  0  0  0  0  0  0  0  0  0  0  0
   61.5904   30.1721   50.9325 H   0  0  0  0  0  0  0  0  0  0  0  0
   61.2878   29.8237   49.1878 H   0  0  0  0  0  0  0  0  0  0  0  0
   64.6371   32.6630   47.5851 H   0  0  0  0  0  0  0  0  0  0  0  0
   63.4617   34.0974   45.9192 H   0  0  0  0  0  0  0  0  0  0  0  0
   60.9977   34.4359   46.0739 H   0  0  0  0  0  0  0  0  0  0  0  0
   57.7065   34.4166   47.3873 H   0  0  0  0  0  0  0  0  0  0  0  0
   59.1292   34.5620   46.3004 H   0  0  0  0  0  0  0  0  0  0  0  0
   58.1491   33.0567   46.3004 H   0  0  0  0  0  0  0  0  0  0  0  0
   60.6038   33.2961   51.2350 H   0  0  0  0  0  0  0  0  0  0  0  0
   59.1325   33.0634   50.2160 H   0  0  0  0  0  0  0  0  0  0  0  0
   60.0945   31.3471   52.5553 H   0  0  0  0  0  0  0  0  0  0  0  0
   58.5598   32.2803   52.4100 H   0  0  0  0  0  0  0  0  0  0  0  0
   56.1265   27.5717   54.6090 H   0  0  0  0  0  0  0  0  0  0  0  0
   55.4450   26.7940   53.1402 H   0  0  0  0  0  0  0  0  0  0  0  0
   57.1428   27.3806   53.1402 H   0  0  0  0  0  0  0  0  0  0  0  0
  1  2  2  0
  2  3  1  0
  3  4  2  3
  4  5  1  0
  5  6  1  0
  6  7  1  0
  7  8  2  0
  7  9  1  0
  9 10  1  0
 10 11  1  0
  3 12  1  0
 12 13  2  0
 13 14  1  0
 14 15  2  0
 14 16  1  0
 16 17  1  0
 17 18  1  0
 18 19  1  0
 19 20  1  0
 20 21  2  0
 21 22  1  0
 21 23  1  0
 23 24  2  0
 24 25  1  0
 25 26  2  0
 26 27  1  0
 27 28  1  0
 19 29  1  0
 29 30  1  0
 13 31  1  0
 31 32  1  0
 31  2  1  0
 10  5  2  0
 30 16  1  0
 26 20  1  0
  1 33  1  0
  1 34  1  0
  4 35  1  0
 12 36  1  0
 16 37  1  0
 17 38  1  0
 17 39  1  0
 18 40  1  0
 18 41  1  0
 23 42  1  0
 24 43  1  0
 25 44  1  0
 28 45  1  0
 28 46  1  0
 28 47  1  0
 29 48  1  0
 29 49  1  0
 30 50  1  0
 30 51  1  0
 32 52  1  0
 32 53  1  0
 32 54  1  0
M  CHG  4   6  -1   9  -1  11  -1  16   1
M  END
>  <UniqueID>  (63) 
60

>  <SMILES>  (63) 
C=c1c(=Cc2[n-]c(=O)[n-]c2[O-])cc(C(=O)[NH+]2CCN(c3c(F)cccc3OC)CC2)n1C

>  <Energy>  (63) 
145.08797395889857

>  <Genealogy>  (63) 
C=c1c(=Cc2[n-]c(=O)[n-]c2[O-])cc(C(=O)[NH+]2CCN(c3c(F)cccc3OC)CC2)n1C (protonated)
C=c1c(=Cc2[n-]c(=O)[n-]c2[O-])cc(C(=O)[NH+]2CCN(c3c(F)cccc3OC)CC2)n1C (3D coordinates assigned)
C=c1c(=Cc2[n-]c(=O)[n-]c2[O-])cc(C(=O)[NH+]2CCN(c3c(F)cccc3OC)CC2)n1C (nonaromatic ring conformer: 145.08797395889857 kcal/mol)

>  <smiles>  (63) 
C=c1c(=Cc2[nH]c(=O)[nH]c2O)cc(C(=O)N2CCN(c3c(F)cccc3OC)CC2)n1C

>  <score_type>  (63) 
oracle

>  <origin>  (63) 
adg

>  <m_score__min__energy>  (63) 
-16.68

>  <m_primary>  (63) 
energy

$$$$
63:0
     RDKit          3D

 54 57  0  0  0  0  0  0  0  0999 V2000
   57.3475   35.2399   45.6472 H   0  0  0  0  0  0  0  0  0  0  0  0
   57.7670   34.2230   45.6450 C   0  0  0  0  0  0  0  0  0  0  0  0
   57.0910   33.1920   44.9810 C   0  0  0  0  0  0  0  0  0  0  0  0
   56.1402   33.4001   44.4684 H   0  0  0  0  0  0  0  0  0  0  0  0
   57.6250   31.8910   44.9680 C   0  0  0  0  0  0  0  0  0  0  0  0
   56.8690   30.7670   44.3660 C   0  0  0  0  0  0  0  0  0  0  0  0
   56.6730   30.7210   43.1230 O   0  0  0  0  0  0  0  0  0  0  0  0
   56.2940   29.7580   45.2080 N   0  0  0  0  0  0  0  0  0  0  0  0
   56.8650   28.6300   45.5430 C   0  0  0  0  0  0  0  0  0  0  0  0
   56.0910   27.5100   45.6170 N   0  0  0  0  0  0  0  0  0  0  0  0
   56.6010   26.2930   45.9560 C   0  0  0  0  0  0  0  0  0  0  0  0
   55.6860   25.1120   46.0320 C   0  0  0  0  0  0  0  0  0  0  0  0
   55.4940   24.8642   47.0864 H   0  0  0  0  0  0  0  0  0  0  0  0
   54.7356   25.3518   45.5328 H   0  0  0  0  0  0  0  0  0  0  0  0
   56.1556   24.2516   45.5328 H   0  0  0  0  0  0  0  0  0  0  0  0
   57.9630   26.1730   46.2610 C   0  0  0  0  0  0  0  0  0  0  0  0
   58.4940   24.9800   46.6240 F   0  0  0  0  0  0  0  0  0  0  0  0
   58.7820   27.3000   46.1890 C   0  0  0  0  0  0  0  0  0  0  0  0
   59.8554   27.2144   46.4138 H   0  0  0  0  0  0  0  0  0  0  0  0
   58.2410   28.5360   45.8320 C   0  0  0  0  0  0  0  0  0  0  0  0
   58.8824   29.4280   45.7768 H   0  0  0  0  0  0  0  0  0  0  0  0
   58.8490   31.6460   45.6160 C   0  0  0  0  0  0  0  0  0  0  0  0
   59.2825   30.6352   45.5970 H   0  0  0  0  0  0  0  0  0  0  0  0
   59.5210   32.6760   46.2850 C   0  0  0  0  0  0  0  0  0  0  0  0
   60.7960   32.3820   46.9550 C   0  0  0  0  0  0  0  0  0  0  0  0
   61.1830   31.1880   47.0770 O   0  0  0  0  0  0  0  0  0  0  0  0
   61.6270   33.4610   47.4020 N   0  0  0  0  0  0  0  0  0  0  0  0
   61.2530   34.1890   48.6220 C   0  0  0  0  0  0  0  0  0  0  0  0
   61.0223   35.2340   48.3675 H   0  0  0  0  0  0  0  0  0  0  0  0
   60.3692   33.7135   49.0723 H   0  0  0  0  0  0  0  0  0  0  0  0
   62.4210   34.1530   49.6310 C   0  0  0  0  0  0  0  0  0  0  0  0
   63.0461   35.0473   49.4918 H   0  0  0  0  0  0  0  0  0  0  0  0
   62.0074   34.1312   50.6500 H   0  0  0  0  0  0  0  0  0  0  0  0
   63.2520   32.9420   49.4280 N   0  0  0  0  0  0  0  0  0  0  0  0
   62.6190   32.1050   49.4410 H   0  0  0  0  0  0  0  0  0  0  0  0
   64.2530   32.8070   50.5180 C   0  0  0  0  0  0  0  0  0  0  0  0
   63.7763   33.4504   51.2722 H   0  0  0  0  0  0  0  0  0  0  0  0
   64.6290   31.3560   50.8600 C   0  0  0  0  0  0  0  0  0  0  0  0
   64.4767   31.0893   51.9163 H   0  0  0  0  0  0  0  0  0  0  0  0
   64.0944   30.5163   50.3919 H   0  0  0  0  0  0  0  0  0  0  0  0
   66.0770   31.6480   50.4950 C   0  0  0  0  0  0  0  0  0  0  0  0
   66.7692   31.6156   51.3493 H   0  0  0  0  0  0  0  0  0  0  0  0
   66.6185   30.9842   49.8049 H   0  0  0  0  0  0  0  0  0  0  0  0
   65.6940   33.0560   50.0610 C   0  0  0  0  0  0  0  0  0  0  0  0
   66.2098   33.8529   50.6169 H   0  0  0  0  0  0  0  0  0  0  0  0
   65.9012   33.3977   49.0361 H   0  0  0  0  0  0  0  0  0  0  0  0
   63.9340   32.9870   48.1030 C   0  0  0  0  0  0  0  0  0  0  0  0
   64.8196   33.6343   48.1846 H   0  0  0  0  0  0  0  0  0  0  0  0
   64.2077   31.9560   47.8345 H   0  0  0  0  0  0  0  0  0  0  0  0
   63.0210   33.5360   46.9810 C   0  0  0  0  0  0  0  0  0  0  0  0
   63.2849   34.5837   46.7745 H   0  0  0  0  0  0  0  0  0  0  0  0
   63.1599   32.9342   46.0707 H   0  0  0  0  0  0  0  0  0  0  0  0
   58.9740   33.9660   46.3060 C   0  0  0  0  0  0  0  0  0  0  0  0
   59.4922   34.7754   46.8410 H   0  0  0  0  0  0  0  0  0  0  0  0
  1  2  1  0
  2  3  2  0
  3  4  1  0
  3  5  1  0
  5  6  1  0
  6  7  2  0
  6  8  1  0
  8  9  2  0
  9 10  1  0
 10 11  1  0
 11 12  1  0
 12 13  1  0
 12 14  1  0
 12 15  1  0
 11 16  2  0
 16 17  1  0
 16 18  1  0
 18 19  1  0
 18 20  2  0
 20 21  1  0
  5 22  2  0
 22 23  1  0
 22 24  1  0
 24 25  1  0
 25 26  2  0
 25 27  1  0
 27 28  1  0
 28 29  1  0
 28 30  1  0
 28 31  1  0
 31 32  1  0
 31 33  1  0
 31 34  1  0
 34 35  1  0
 34 36  1  0
 36 37  1  0
 36 38  1  0
 38 39  1  0
 38 40  1  0
 38 41  1  0
 41 42  1  0
 41 43  1  0
 41 44  1  0
 44 45  1  0
 44 46  1  0
 34 47  1  0
 47 48  1  0
 47 49  1  0
 47 50  1  0
 50 51  1  0
 50 52  1  0
 24 53  2  0
 53 54  1  0
 53  2  1  0
 20  9  1  0
 50 27  1  0
 44 36  1  0
M  CHG  2  10  -1  34   1
M  END
>  <UniqueID>  (64) 
61

>  <SMILES>  (64) 
Cc1[n-]/c(=N/C(=O)c2cccc(C(=O)N3CC[NH+](C4CCC4)CC3)c2)ccc1F

>  <Energy>  (64) 
147.4619071734151

>  <Genealogy>  (64) 
Cc1[n-]c(=NC(=O)c2cccc(C(=O)N3CC[NH+](C4CCC4)CC3)c2)ccc1F (protonated)
Cc1[n-]/c(=N/C(=O)c2cccc(C(=O)N3CC[NH+](C4CCC4)CC3)c2)ccc1F (cis-trans isomerization)
Cc1[n-]/c(=N/C(=O)c2cccc(C(=O)N3CC[NH+](C4CCC4)CC3)c2)ccc1F (3D coordinates assigned)
Cc1[n-]/c(=N/C(=O)c2cccc(C(=O)N3CC[NH+](C4CCC4)CC3)c2)ccc1F (nonaromatic ring conformer: 147.4619071734151 kcal/mol)

>  <smiles>  (64) 
Cc1[nH]c(=NC(=O)c2cccc(C(=O)N3CCN(C4CCC4)CC3)c2)ccc1F

>  <score_type>  (64) 
oracle

>  <origin>  (64) 
adg

>  <m_score__min__energy>  (64) 
-9.7100000000000009

>  <m_primary>  (64) 
energy

$$$$
64:0
     RDKit          3D

 64 68  0  0  0  0  0  0  0  0999 V2000
   63.1760   29.4310   51.7160 O   0  0  0  0  0  0  0  0  0  0  0  0
   62.3810   30.3210   51.3080 C   0  0  0  0  0  0  0  0  0  0  0  0
   62.8840   31.4120   50.4400 C   0  0  0  0  0  0  0  0  0  0  0  0
   62.1360   31.7780   49.3100 C   0  0  0  0  0  0  0  0  0  0  0  0
   62.5920   32.7710   48.4340 C   0  0  0  0  0  0  0  0  0  0  0  0
   61.6580   33.1980   46.9940 S   0  0  0  0  0  0  0  0  0  0  0  0
   62.5690   33.8480   45.9900 O   0  0  0  0  0  0  0  0  0  0  0  0
   61.1410   31.9260   46.3820 O   0  0  0  0  0  0  0  0  0  0  0  0
   60.2880   34.2480   47.3230 N   0  0  0  0  0  0  0  0  0  0  0  0
   59.1250   33.5690   47.8990 C   0  0  0  0  0  0  0  0  0  0  0  0
   58.4980   32.5790   46.9250 C   0  0  0  0  0  0  0  0  0  0  0  0
   58.4570   33.0660   45.5320 N   0  0  0  0  0  0  0  0  0  0  0  0
   57.8360   32.2300   44.5080 C   0  0  0  0  0  0  0  0  0  0  0  0
   57.9410   32.5560   43.1340 C   0  0  0  0  0  0  0  0  0  0  0  0
   57.3630   31.7450   42.1550 C   0  0  0  0  0  0  0  0  0  0  0  0
   56.6570   30.6000   42.5220 C   0  0  0  0  0  0  0  0  0  0  0  0
   56.5220   30.2640   43.8680 C   0  0  0  0  0  0  0  0  0  0  0  0
   57.1100   31.0620   44.8540 C   0  0  0  0  0  0  0  0  0  0  0  0
   59.0160   34.3790   45.1350 C   0  0  0  0  0  0  0  0  0  0  0  0
   59.8980   35.0890   46.1880 C   0  0  0  0  0  0  0  0  0  0  0  0
   63.7890   33.4390   48.7190 C   0  0  0  0  0  0  0  0  0  0  0  0
   64.5450   33.0830   49.8380 C   0  0  0  0  0  0  0  0  0  0  0  0
   64.1070   32.0700   50.6970 C   0  0  0  0  0  0  0  0  0  0  0  0
   65.0910   31.7010   52.1100 Cl  0  0  0  0  0  0  0  0  0  0  0  0
   60.9860   30.2200   51.6390 N   0  0  0  0  0  0  0  0  0  0  0  0
   60.2810   28.9460   51.4500 C   0  0  0  0  0  0  0  0  0  0  0  0
   59.3390   28.6960   52.6260 C   0  0  0  0  0  0  0  0  0  0  0  0
   58.5190   29.8900   52.8440 N   0  0  0  0  0  0  0  0  0  0  0  0
   57.0810   29.8520   52.7830 C   0  0  0  0  0  0  0  0  0  0  0  0
   56.3320   29.1140   53.7170 C   0  0  0  0  0  0  0  0  0  0  0  0
   54.9400   29.0780   53.6090 C   0  0  0  0  0  0  0  0  0  0  0  0
   54.3050   29.7610   52.5700 C   0  0  0  0  0  0  0  0  0  0  0  0
   55.0770   30.4730   51.6490 C   0  0  0  0  0  0  0  0  0  0  0  0
   56.4320   30.5000   51.7720 N   0  0  0  0  0  0  0  0  0  0  0  0
   59.2260   31.1470   53.0990 C   0  0  0  0  0  0  0  0  0  0  0  0
   60.2010   31.4250   51.9500 C   0  0  0  0  0  0  0  0  0  0  0  0
   61.1773   31.2774   49.1095 H   0  0  0  0  0  0  0  0  0  0  0  0
   59.4424   33.0259   48.8014 H   0  0  0  0  0  0  0  0  0  0  0  0
   58.3706   34.3332   48.1374 H   0  0  0  0  0  0  0  0  0  0  0  0
   59.0830   31.6478   46.9508 H   0  0  0  0  0  0  0  0  0  0  0  0
   57.4564   32.4276   47.2446 H   0  0  0  0  0  0  0  0  0  0  0  0
   58.4866   33.4625   42.8330 H   0  0  0  0  0  0  0  0  0  0  0  0
   57.4649   32.0100   41.0923 H   0  0  0  0  0  0  0  0  0  0  0  0
   56.2060   29.9611   41.7484 H   0  0  0  0  0  0  0  0  0  0  0  0
   55.9513   29.3686   44.1553 H   0  0  0  0  0  0  0  0  0  0  0  0
   57.0081   30.7801   45.9124 H   0  0  0  0  0  0  0  0  0  0  0  0
   59.6269   34.2254   44.2332 H   0  0  0  0  0  0  0  0  0  0  0  0
   58.1473   35.0369   44.9850 H   0  0  0  0  0  0  0  0  0  0  0  0
   60.8139   35.4386   45.6891 H   0  0  0  0  0  0  0  0  0  0  0  0
   59.2922   35.9091   46.6008 H   0  0  0  0  0  0  0  0  0  0  0  0
   64.1355   34.2477   48.0587 H   0  0  0  0  0  0  0  0  0  0  0  0
   65.4918   33.6031   50.0452 H   0  0  0  0  0  0  0  0  0  0  0  0
   59.6985   28.9859   50.5177 H   0  0  0  0  0  0  0  0  0  0  0  0
   61.0158   28.1294   51.3936 H   0  0  0  0  0  0  0  0  0  0  0  0
   58.6883   27.8381   52.4011 H   0  0  0  0  0  0  0  0  0  0  0  0
   59.9250   28.4780   53.5310 H   0  0  0  0  0  0  0  0  0  0  0  0
   56.8390   28.5690   54.5269 H   0  0  0  0  0  0  0  0  0  0  0  0
   54.3450   28.5125   54.3413 H   0  0  0  0  0  0  0  0  0  0  0  0
   53.2091   29.7387   52.4777 H   0  0  0  0  0  0  0  0  0  0  0  0
   54.5893   31.0123   50.8236 H   0  0  0  0  0  0  0  0  0  0  0  0
   58.4987   31.9692   53.1701 H   0  0  0  0  0  0  0  0  0  0  0  0
   59.7841   31.0694   54.0437 H   0  0  0  0  0  0  0  0  0  0  0  0
   59.6328   31.7274   51.0580 H   0  0  0  0  0  0  0  0  0  0  0  0
   60.8877   32.2295   52.2522 H   0  0  0  0  0  0  0  0  0  0  0  0
  1  2  2  0
  2  3  1  0
  3  4  2  0
  4  5  1  0
  5  6  1  0
  6  7  2  0
  6  8  2  0
  6  9  1  0
  9 10  1  0
 10 11  1  0
 11 12  1  0
 12 13  1  0
 13 14  2  0
 14 15  1  0
 15 16  2  0
 16 17  1  0
 17 18  2  0
 12 19  1  0
 19 20  1  0
  5 21  2  0
 21 22  1  0
 22 23  2  0
 23 24  1  0
  2 25  1  0
 25 26  1  0
 26 27  1  0
 27 28  1  0
 28 29  1  0
 29 30  2  0
 30 31  1  0
 31 32  2  0
 32 33  1  0
 33 34  2  0
 28 35  1  0
 35 36  1  0
 23  3  1  0
 36 25  1  0
 20  9  1  0
 34 29  1  0
 18 13  1  0
  4 37  1  0
 10 38  1  0
 10 39  1  0
 11 40  1  0
 11 41  1  0
 14 42  1  0
 15 43  1  0
 16 44  1  0
 17 45  1  0
 18 46  1  0
 19 47  1  0
 19 48  1  0
 20 49  1  0
 20 50  1  0
 21 51  1  0
 22 52  1  0
 26 53  1  0
 26 54  1  0
 27 55  1  0
 27 56  1  0
 30 57  1  0
 31 58  1  0
 32 59  1  0
 33 60  1  0
 35 61  1  0
 35 62  1  0
 36 63  1  0
 36 64  1  0
M  END
>  <UniqueID>  (65) 
62

>  <SMILES>  (65) 
O=C(c1cc(S(=O)(=O)N2CCN(c3ccccc3)CC2)ccc1Cl)N1CCN(c2ccccn2)CC1

>  <Energy>  (65) 
87.16728381939733

>  <Genealogy>  (65) 
O=C(c1cc(S(=O)(=O)N2CCN(c3ccccc3)CC2)ccc1Cl)N1CCN(c2ccccn2)CC1 (3D coordinates assigned)
O=C(c1cc(S(=O)(=O)N2CCN(c3ccccc3)CC2)ccc1Cl)N1CCN(c2ccccn2)CC1 (nonaromatic ring conformer: 87.16728381939733 kcal/mol)

>  <smiles>  (65) 
O=C(c1cc(S(=O)(=O)N2CCN(c3ccccc3)CC2)ccc1Cl)N1CCN(c2ccccn2)CC1

>  <score_type>  (65) 
oracle

>  <origin>  (65) 
adg

>  <m_score__min__energy>  (65) 
-9.9000000000000004

>  <m_primary>  (65) 
energy

$$$$
65:0
     RDKit          3D

 60 62  0  0  0  0  0  0  0  0999 V2000
   51.3790   30.5070   49.0100 C   0  0  0  0  0  0  0  0  0  0  0  0
   50.8910   31.8480   49.4650 C   0  0  0  0  0  0  0  0  0  0  0  0
   50.3500   32.6150   48.6260 O   0  0  0  0  0  0  0  0  0  0  0  0
   51.0520   32.3010   50.8160 N   0  0  0  0  0  0  0  0  0  0  0  0
   51.8190   31.6680   51.8520 C   0  0  0  0  0  0  0  0  0  0  0  0
   51.2430   31.3080   53.0810 C   0  0  0  0  0  0  0  0  0  0  0  0
   52.0270   30.7250   54.0780 C   0  0  0  0  0  0  0  0  0  0  0  0
   53.3930   30.5210   53.8690 C   0  0  0  0  0  0  0  0  0  0  0  0
   53.9930   30.9080   52.6590 C   0  0  0  0  0  0  0  0  0  0  0  0
   55.4100   30.7290   52.4520 N   0  0  0  0  0  0  0  0  0  0  0  0
   56.3170   31.8810   52.4180 C   0  0  0  0  0  0  0  0  0  0  0  0
   57.4150   31.6320   51.3750 C   0  0  0  0  0  0  0  0  0  0  0  0
   58.1540   30.3540   51.5790 N   0  0  0  0  0  0  0  0  0  0  0  0
   58.4740   29.6890   50.2950 C   0  0  0  0  0  0  0  0  0  0  0  0
   59.8040   30.1990   49.7180 C   0  0  0  0  0  0  0  0  0  0  0  0
   60.2840   29.3000   48.5720 C   0  0  0  0  0  0  0  0  0  0  0  0
   59.6330   29.7000   47.2430 C   0  0  0  0  0  0  0  0  0  0  0  0
   58.4320   28.9080   47.0040 N   0  0  0  0  0  0  0  0  0  0  0  0
   57.5250   29.1450   45.9200 C   0  0  0  0  0  0  0  0  0  0  0  0
   57.0200   30.2880   45.7470 O   0  0  0  0  0  0  0  0  0  0  0  0
   57.1780   28.0290   44.9870 C   0  0  0  0  0  0  0  0  0  0  0  0
   57.2080   26.7060   45.7090 C   0  0  0  0  0  0  0  0  0  0  0  0
   58.4330   26.0420   45.8940 C   0  0  0  0  0  0  0  0  0  0  0  0
   58.4740   24.8020   46.5390 C   0  0  0  0  0  0  0  0  0  0  0  0
   57.2930   24.2090   46.9940 C   0  0  0  0  0  0  0  0  0  0  0  0
   56.0680   24.8530   46.8030 C   0  0  0  0  0  0  0  0  0  0  0  0
   56.0190   26.0960   46.1590 C   0  0  0  0  0  0  0  0  0  0  0  0
   54.7870   26.7160   45.9730 O   0  0  0  0  0  0  0  0  0  0  0  0
   57.5000   29.4150   52.5240 C   0  0  0  0  0  0  0  0  0  0  0  0
   55.9760   29.3780   52.3470 C   0  0  0  0  0  0  0  0  0  0  0  0
   53.1930   31.4840   51.6560 C   0  0  0  0  0  0  0  0  0  0  0  0
   51.6062   29.8827   49.8867 H   0  0  0  0  0  0  0  0  0  0  0  0
   50.6006   30.0196   48.4046 H   0  0  0  0  0  0  0  0  0  0  0  0
   52.2886   30.6339   48.4046 H   0  0  0  0  0  0  0  0  0  0  0  0
   50.1720   31.4857   53.2584 H   0  0  0  0  0  0  0  0  0  0  0  0
   51.5676   30.4252   55.0314 H   0  0  0  0  0  0  0  0  0  0  0  0
   54.0027   30.0544   54.6567 H   0  0  0  0  0  0  0  0  0  0  0  0
   55.7521   32.7855   52.1480 H   0  0  0  0  0  0  0  0  0  0  0  0
   56.7746   32.0189   53.4088 H   0  0  0  0  0  0  0  0  0  0  0  0
   56.9493   31.6090   50.3787 H   0  0  0  0  0  0  0  0  0  0  0  0
   58.1467   32.4471   51.4766 H   0  0  0  0  0  0  0  0  0  0  0  0
   58.5484   28.6043   50.4621 H   0  0  0  0  0  0  0  0  0  0  0  0
   57.6733   29.9182   49.5764 H   0  0  0  0  0  0  0  0  0  0  0  0
   59.6633   31.2219   49.3386 H   0  0  0  0  0  0  0  0  0  0  0  0
   60.5612   30.1858   50.5158 H   0  0  0  0  0  0  0  0  0  0  0  0
   61.3762   29.3909   48.4781 H   0  0  0  0  0  0  0  0  0  0  0  0
   59.9991   28.2624   48.8008 H   0  0  0  0  0  0  0  0  0  0  0  0
   59.3628   30.7657   47.2785 H   0  0  0  0  0  0  0  0  0  0  0  0
   60.3480   29.5172   46.4273 H   0  0  0  0  0  0  0  0  0  0  0  0
   56.1693   28.1970   44.5816 H   0  0  0  0  0  0  0  0  0  0  0  0
   57.9163   28.0053   44.1719 H   0  0  0  0  0  0  0  0  0  0  0  0
   59.3642   26.5002   45.5295 H   0  0  0  0  0  0  0  0  0  0  0  0
   59.4373   24.2924   46.6885 H   0  0  0  0  0  0  0  0  0  0  0  0
   57.3281   23.2344   47.5029 H   0  0  0  0  0  0  0  0  0  0  0  0
   55.1396   24.3828   47.1593 H   0  0  0  0  0  0  0  0  0  0  0  0
   57.9006   28.4049   52.3531 H   0  0  0  0  0  0  0  0  0  0  0  0
   57.7118   29.7636   53.5456 H   0  0  0  0  0  0  0  0  0  0  0  0
   55.7371   28.9620   51.3571 H   0  0  0  0  0  0  0  0  0  0  0  0
   55.5424   28.7496   53.1389 H   0  0  0  0  0  0  0  0  0  0  0  0
   53.6525   31.7938   50.7058 H   0  0  0  0  0  0  0  0  0  0  0  0
  1  2  1  0
  2  3  2  0
  2  4  1  0
  4  5  1  0
  5  6  2  0
  6  7  1  0
  7  8  2  0
  8  9  1  0
  9 10  1  0
 10 11  1  0
 11 12  1  0
 12 13  1  0
 13 14  1  0
 14 15  1  0
 15 16  1  0
 16 17  1  0
 17 18  1  0
 18 19  1  0
 19 20  2  0
 19 21  1  0
 21 22  1  0
 22 23  2  0
 23 24  1  0
 24 25  2  0
 25 26  1  0
 26 27  2  0
 27 28  1  0
 13 29  1  0
 29 30  1  0
  9 31  2  0
 31  5  1  0
 30 10  1  0
 27 22  1  0
  1 32  1  0
  1 33  1  0
  1 34  1  0
  6 35  1  0
  7 36  1  0
  8 37  1  0
 11 38  1  0
 11 39  1  0
 12 40  1  0
 12 41  1  0
 14 42  1  0
 14 43  1  0
 15 44  1  0
 15 45  1  0
 16 46  1  0
 16 47  1  0
 17 48  1  0
 17 49  1  0
 21 50  1  0
 21 51  1  0
 23 52  1  0
 24 53  1  0
 25 54  1  0
 26 55  1  0
 29 56  1  0
 29 57  1  0
 30 58  1  0
 30 59  1  0
 31 60  1  0
M  CHG  3   4  -1  18  -1  28  -1
M  END
>  <UniqueID>  (66) 
63

>  <SMILES>  (66) 
CC(=O)[N-]c1cccc(N2CCN(CCCC[N-]C(=O)Cc3ccccc3[O-])CC2)c1

>  <Energy>  (66) 
67.36186636813721

>  <Genealogy>  (66) 
CC(=O)[N-]c1cccc(N2CCN(CCCC[N-]C(=O)Cc3ccccc3[O-])CC2)c1 (protonated)
CC(=O)[N-]c1cccc(N2CCN(CCCC[N-]C(=O)Cc3ccccc3[O-])CC2)c1 (3D coordinates assigned)
CC(=O)[N-]c1cccc(N2CCN(CCCC[N-]C(=O)Cc3ccccc3[O-])CC2)c1 (nonaromatic ring conformer: 67.36186636813721 kcal/mol)

>  <smiles>  (66) 
CC(=O)Nc1cccc(N2CCN(CCCCNC(=O)Cc3ccccc3O)CC2)c1

>  <score_type>  (66) 
oracle

>  <origin>  (66) 
adg

>  <m_score__min__energy>  (66) 
-15.880000000000001

>  <m_primary>  (66) 
energy

$$$$
66:0
     RDKit          3D

 41 43  0  0  0  0  0  0  0  0999 V2000
   58.0260   31.6140   43.3900 C   0  0  0  0  0  0  0  0  0  0  0  0
   58.2990   31.4430   44.7020 C   0  0  0  0  0  0  0  0  0  0  0  0
   58.4580   32.5830   45.5460 C   0  0  0  0  0  0  0  0  0  0  0  0
   57.9710   33.9150   45.1020 C   0  0  0  0  0  0  0  0  0  0  0  0
   56.5900   34.2500   45.2380 N   0  0  0  0  0  0  0  0  0  0  0  0
   58.7710   34.7480   44.5940 O   0  0  0  0  0  0  0  0  0  0  0  0
   59.1090   32.4510   46.8040 C   0  0  0  0  0  0  0  0  0  0  0  0
   59.2860   33.6520   47.7150 C   0  0  0  0  0  0  0  0  0  0  0  0
   59.6630   31.2010   47.1690 C   0  0  0  0  0  0  0  0  0  0  0  0
   60.5040   31.0130   48.4210 C   0  0  0  0  0  0  0  0  0  0  0  0
   61.7660   31.8440   48.3960 C   0  0  0  0  0  0  0  0  0  0  0  0
   62.3750   32.1730   47.1710 C   0  0  0  0  0  0  0  0  0  0  0  0
   63.5550   32.9230   47.1450 C   0  0  0  0  0  0  0  0  0  0  0  0
   64.1490   33.3360   48.3410 C   0  0  0  0  0  0  0  0  0  0  0  0
   63.5650   32.9960   49.5630 C   0  0  0  0  0  0  0  0  0  0  0  0
   62.3840   32.2480   49.5930 C   0  0  0  0  0  0  0  0  0  0  0  0
   59.3980   30.0740   46.3810 C   0  0  0  0  0  0  0  0  0  0  0  0
   58.6170   30.1500   45.2190 C   0  0  0  0  0  0  0  0  0  0  0  0
   58.2140   28.9730   44.6730 C   0  0  0  0  0  0  0  0  0  0  0  0
   57.3590   27.9640   45.3330 C   0  0  0  0  0  0  0  0  0  0  0  0
   57.8010   26.8200   45.8900 N   0  0  0  0  0  0  0  0  0  0  0  0
   56.6630   26.2010   46.2730 C   0  0  0  0  0  0  0  0  0  0  0  0
   56.6620   25.0860   46.8550 O   0  0  0  0  0  0  0  0  0  0  0  0
   55.5260   26.8670   45.9770 N   0  0  0  0  0  0  0  0  0  0  0  0
   55.9860   27.9760   45.3740 C   0  0  0  0  0  0  0  0  0  0  0  0
   55.1630   28.9780   44.8710 O   0  0  0  0  0  0  0  0  0  0  0  0
   57.9025   30.7387   42.7353 H   0  0  0  0  0  0  0  0  0  0  0  0
   57.9272   32.6285   42.9765 H   0  0  0  0  0  0  0  0  0  0  0  0
   56.2970   35.1750   45.6140 H   0  0  0  0  0  0  0  0  0  0  0  0
   59.2380   33.3263   48.7646 H   0  0  0  0  0  0  0  0  0  0  0  0
   60.2627   34.1191   47.5203 H   0  0  0  0  0  0  0  0  0  0  0  0
   58.4856   34.3810   47.5203 H   0  0  0  0  0  0  0  0  0  0  0  0
   59.9053   31.3056   49.2962 H   0  0  0  0  0  0  0  0  0  0  0  0
   60.7996   29.9547   48.4713 H   0  0  0  0  0  0  0  0  0  0  0  0
   61.9198   31.8380   46.2273 H   0  0  0  0  0  0  0  0  0  0  0  0
   64.0163   33.1882   46.1823 H   0  0  0  0  0  0  0  0  0  0  0  0
   65.0757   33.9283   48.3196 H   0  0  0  0  0  0  0  0  0  0  0  0
   64.0351   33.3173   50.5041 H   0  0  0  0  0  0  0  0  0  0  0  0
   61.9353   31.9737   50.5592 H   0  0  0  0  0  0  0  0  0  0  0  0
   59.8144   29.1015   46.6823 H   0  0  0  0  0  0  0  0  0  0  0  0
   58.5537   28.7516   43.6504 H   0  0  0  0  0  0  0  0  0  0  0  0
  1  2  2  0
  2  3  1  0
  3  4  1  0
  4  5  1  0
  4  6  2  0
  3  7  2  0
  7  8  1  0
  7  9  1  0
  9 10  1  0
 10 11  1  0
 11 12  2  0
 12 13  1  0
 13 14  2  0
 14 15  1  0
 15 16  2  0
  9 17  2  0
 17 18  1  0
 18 19  2  3
 19 20  1  0
 20 21  1  0
 21 22  1  0
 22 23  2  0
 22 24  1  0
 24 25  1  0
 25 26  1  0
 18  2  1  0
 25 20  2  0
 16 11  1  0
  1 27  1  0
  1 28  1  0
  5 29  1  0
  8 30  1  0
  8 31  1  0
  8 32  1  0
 10 33  1  0
 10 34  1  0
 12 35  1  0
 13 36  1  0
 14 37  1  0
 15 38  1  0
 16 39  1  0
 17 40  1  0
 19 41  1  0
M  CHG  4   5  -1  21  -1  24  -1  26  -1
M  END
>  <UniqueID>  (67) 
64

>  <SMILES>  (67) 
C=c1c(C([NH-])=O)c(C)c(Cc2ccccc2)cc1=Cc1[n-]c(=O)[n-]c1[O-]

>  <Energy>  (67) 
106.56082619728762

>  <Genealogy>  (67) 
C=c1c(C([NH-])=O)c(C)c(Cc2ccccc2)cc1=Cc1[n-]c(=O)[n-]c1[O-] (protonated)
C=c1c(C([NH-])=O)c(C)c(Cc2ccccc2)cc1=Cc1[n-]c(=O)[n-]c1[O-] (3D coordinates assigned)
C=c1c(C([NH-])=O)c(C)c(Cc2ccccc2)cc1=Cc1[n-]c(=O)[n-]c1[O-] (optimized conformer: 106.56082619728762 kcal/mol)

>  <smiles>  (67) 
C=c1c(C(N)=O)c(C)c(Cc2ccccc2)cc1=Cc1[nH]c(=O)[nH]c1O

>  <score_type>  (67) 
oracle

>  <origin>  (67) 
adg

>  <m_score__min__energy>  (67) 
-16.789999999999999

>  <m_primary>  (67) 
energy

$$$$
67:0
     RDKit          3D

 36 38  0  0  0  0  0  0  0  0999 V2000
   53.2803   27.9388   52.7830 H   0  0  0  0  0  0  0  0  0  0  0  0
   54.3640   28.1200   52.7310 C   0  0  0  0  0  0  0  0  0  0  0  0
   55.0688   27.2937   52.9056 H   0  0  0  0  0  0  0  0  0  0  0  0
   54.8240   29.3430   52.4560 C   0  0  0  0  0  0  0  0  0  0  0  0
   56.1070   29.6140   52.3820 O   0  0  0  0  0  0  0  0  0  0  0  0
   56.2540   30.8900   52.1050 C   0  0  0  0  0  0  0  0  0  0  0  0
   57.5580   31.5550   51.9390 C   0  0  0  0  0  0  0  0  0  0  0  0
   57.8470   32.5370   52.6760 O   0  0  0  0  0  0  0  0  0  0  0  0
   58.4830   31.1350   50.9210 N   0  0  0  0  0  0  0  0  0  0  0  0
   58.7690   29.7130   50.6900 C   0  0  0  0  0  0  0  0  0  0  0  0
   59.7856   29.4858   51.0435 H   0  0  0  0  0  0  0  0  0  0  0  0
   58.0332   29.1075   51.2395 H   0  0  0  0  0  0  0  0  0  0  0  0
   58.6680   29.3820   49.1930 C   0  0  0  0  0  0  0  0  0  0  0  0
   59.2547   28.4724   48.9969 H   0  0  0  0  0  0  0  0  0  0  0  0
   57.6010   29.2472   48.9621 H   0  0  0  0  0  0  0  0  0  0  0  0
   59.1930   30.5100   48.2770 C   0  0  0  0  0  0  0  0  0  0  0  0
   59.8058   30.0603   47.4819 H   0  0  0  0  0  0  0  0  0  0  0  0
   58.3189   31.0389   47.8693 H   0  0  0  0  0  0  0  0  0  0  0  0
   60.0450   31.5390   49.0290 C   0  0  0  0  0  0  0  0  0  0  0  0
   60.9389   31.0427   49.4347 H   0  0  0  0  0  0  0  0  0  0  0  0
   60.3402   32.3368   48.3316 H   0  0  0  0  0  0  0  0  0  0  0  0
   59.2410   32.1570   50.1830 C   0  0  0  0  0  0  0  0  0  0  0  0
   59.9353   32.6560   50.8751 H   0  0  0  0  0  0  0  0  0  0  0  0
   58.5259   32.8768   49.7582 H   0  0  0  0  0  0  0  0  0  0  0  0
   55.0170   31.4960   51.9790 C   0  0  0  0  0  0  0  0  0  0  0  0
   54.8161   32.5526   51.7481 H   0  0  0  0  0  0  0  0  0  0  0  0
   54.0820   30.4960   52.2040 C   0  0  0  0  0  0  0  0  0  0  0  0
   52.7430   30.6290   52.2250 C   0  0  0  0  0  0  0  0  0  0  0  0
   52.2271   30.5119   53.1895 H   0  0  0  0  0  0  0  0  0  0  0  0
   51.9260   30.9220   51.0340 C   0  0  0  0  0  0  0  0  0  0  0  0
   51.9080   30.1380   49.9410 N   0  0  0  0  0  0  0  0  0  0  0  0
   51.1120   30.8140   49.0840 C   0  0  0  0  0  0  0  0  0  0  0  0
   50.8370   30.3830   47.9330 O   0  0  0  0  0  0  0  0  0  0  0  0
   50.6420   31.9890   49.5530 N   0  0  0  0  0  0  0  0  0  0  0  0
   51.1770   32.0510   50.7830 C   0  0  0  0  0  0  0  0  0  0  0  0
   51.0190   33.1370   51.6340 O   0  0  0  0  0  0  0  0  0  0  0  0
  1  2  1  0
  2  3  1  0
  2  4  2  0
  4  5  1  0
  5  6  1  0
  6  7  1  0
  7  8  2  0
  7  9  1  0
  9 10  1  0
 10 11  1  0
 10 12  1  0
 10 13  1  0
 13 14  1  0
 13 15  1  0
 13 16  1  0
 16 17  1  0
 16 18  1  0
 16 19  1  0
 19 20  1  0
 19 21  1  0
 19 22  1  0
 22 23  1  0
 22 24  1  0
  6 25  2  0
 25 26  1  0
 25 27  1  0
 27 28  2  0
 28 29  1  0
 28 30  1  0
 30 31  1  0
 31 32  1  0
 32 33  2  0
 32 34  1  0
 34 35  1  0
 35 36  1  0
 27  4  1  0
 35 30  2  0
 22  9  1  0
M  CHG  3  31  -1  34  -1  36  -1
M  END
>  <UniqueID>  (68) 
65

>  <SMILES>  (68) 
C=c1oc(C(=O)N2CCCCC2)c/c1=C\c1[n-]c(=O)[n-]c1[O-]

>  <Energy>  (68) 
103.69247728637436

>  <Genealogy>  (68) 
C=c1oc(C(=O)N2CCCCC2)cc1=Cc1[n-]c(=O)[n-]c1[O-] (protonated)
C=c1oc(C(=O)N2CCCCC2)c/c1=C\c1[n-]c(=O)[n-]c1[O-] (cis-trans isomerization)
C=c1oc(C(=O)N2CCCCC2)c/c1=C\c1[n-]c(=O)[n-]c1[O-] (3D coordinates assigned)
C=c1oc(C(=O)N2CCCCC2)c/c1=C\c1[n-]c(=O)[n-]c1[O-] (nonaromatic ring conformer: 103.69247728637436 kcal/mol)

>  <smiles>  (68) 
C=c1oc(C(=O)N2CCCCC2)cc1=Cc1[nH]c(=O)[nH]c1O

>  <score_type>  (68) 
oracle

>  <origin>  (68) 
adg

>  <m_score__min__energy>  (68) 
-16.199999999999999

>  <m_primary>  (68) 
energy

$$$$
68:0
     RDKit          3D

 59 62  0  0  0  0  0  0  0  0999 V2000
   57.7670   21.0540   45.4900 C   0  0  0  0  0  0  0  0  0  0  0  0
   56.6750   20.3400   44.7000 C   0  0  0  0  0  0  0  0  0  0  0  0
   56.6560   20.7300   43.2170 C   0  0  0  0  0  0  0  0  0  0  0  0
   55.9420   21.9520   43.0120 O   0  0  0  0  0  0  0  0  0  0  0  0
   56.0400   23.1200   43.7870 C   0  0  0  0  0  0  0  0  0  0  0  0
   55.1030   23.4670   44.7820 C   0  0  0  0  0  0  0  0  0  0  0  0
   55.2590   24.6450   45.5180 C   0  0  0  0  0  0  0  0  0  0  0  0
   56.3400   25.5070   45.2640 C   0  0  0  0  0  0  0  0  0  0  0  0
   56.5380   26.7090   46.0260 N   0  0  0  0  0  0  0  0  0  0  0  0
   57.8050   27.3580   46.2000 C   0  0  0  0  0  0  0  0  0  0  0  0
   58.8700   26.7960   45.8290 O   0  0  0  0  0  0  0  0  0  0  0  0
   57.8420   28.6620   46.7940 N   0  0  0  0  0  0  0  0  0  0  0  0
   57.7770   29.9200   46.1000 C   0  0  0  0  0  0  0  0  0  0  0  0
   57.1240   30.0170   44.8590 C   0  0  0  0  0  0  0  0  0  0  0  0
   57.1200   31.2180   44.1510 C   0  0  0  0  0  0  0  0  0  0  0  0
   57.7750   32.3330   44.6630 C   0  0  0  0  0  0  0  0  0  0  0  0
   58.4510   32.2610   45.8880 C   0  0  0  0  0  0  0  0  0  0  0  0
   59.0740   33.4470   46.4110 N   0  0  0  0  0  0  0  0  0  0  0  0
   60.1700   34.0790   45.6770 C   0  0  0  0  0  0  0  0  0  0  0  0
   61.4950   33.6790   46.3260 C   0  0  0  0  0  0  0  0  0  0  0  0
   61.4530   33.8020   47.8320 C   0  0  0  0  0  0  0  0  0  0  0  0
   62.6600   33.8230   48.5480 C   0  0  0  0  0  0  0  0  0  0  0  0
   62.6550   33.8780   49.9440 C   0  0  0  0  0  0  0  0  0  0  0  0
   63.8570   33.9060   50.6410 O   0  0  0  0  0  0  0  0  0  0  0  0
   61.4450   33.9030   50.6390 C   0  0  0  0  0  0  0  0  0  0  0  0
   60.2350   33.8690   49.9430 C   0  0  0  0  0  0  0  0  0  0  0  0
   60.2250   33.8020   48.5410 C   0  0  0  0  0  0  0  0  0  0  0  0
   58.9020   33.8230   47.8160 C   0  0  0  0  0  0  0  0  0  0  0  0
   58.4660   31.0450   46.6170 C   0  0  0  0  0  0  0  0  0  0  0  0
   59.2100   30.9500   47.8990 C   0  0  0  0  0  0  0  0  0  0  0  0
   58.5240   31.0520   49.1460 N   0  0  0  0  0  0  0  0  0  0  0  0
   60.4590   30.7840   47.8990 O   0  0  0  0  0  0  0  0  0  0  0  0
   57.2770   25.1510   44.2850 C   0  0  0  0  0  0  0  0  0  0  0  0
   57.1210   23.9750   43.5490 C   0  0  0  0  0  0  0  0  0  0  0  0
   57.5799   20.9317   46.5671 H   0  0  0  0  0  0  0  0  0  0  0  0
   58.7458   20.6209   45.2363 H   0  0  0  0  0  0  0  0  0  0  0  0
   57.7628   22.1243   45.2363 H   0  0  0  0  0  0  0  0  0  0  0  0
   56.8404   19.2551   44.7751 H   0  0  0  0  0  0  0  0  0  0  0  0
   55.7081   20.6387   45.1312 H   0  0  0  0  0  0  0  0  0  0  0  0
   57.6908   20.8560   42.8660 H   0  0  0  0  0  0  0  0  0  0  0  0
   56.1495   19.9323   42.6539 H   0  0  0  0  0  0  0  0  0  0  0  0
   54.2452   22.8075   44.9799 H   0  0  0  0  0  0  0  0  0  0  0  0
   54.5304   24.8995   46.3019 H   0  0  0  0  0  0  0  0  0  0  0  0
   55.7270   27.0920   46.5620 H   0  0  0  0  0  0  0  0  0  0  0  0
   56.6115   29.1372   44.4427 H   0  0  0  0  0  0  0  0  0  0  0  0
   56.5976   31.2839   43.1852 H   0  0  0  0  0  0  0  0  0  0  0  0
   57.7622   33.2789   44.1017 H   0  0  0  0  0  0  0  0  0  0  0  0
   60.1554   33.7430   44.6297 H   0  0  0  0  0  0  0  0  0  0  0  0
   60.0560   35.1727   45.7052 H   0  0  0  0  0  0  0  0  0  0  0  0
   61.7178   32.6347   46.0619 H   0  0  0  0  0  0  0  0  0  0  0  0
   62.2733   34.3610   45.9530 H   0  0  0  0  0  0  0  0  0  0  0  0
   63.6169   33.7960   48.0061 H   0  0  0  0  0  0  0  0  0  0  0  0
   61.4445   33.9496   51.7380 H   0  0  0  0  0  0  0  0  0  0  0  0
   59.2846   33.8949   50.4963 H   0  0  0  0  0  0  0  0  0  0  0  0
   58.2149   33.1121   48.2983 H   0  0  0  0  0  0  0  0  0  0  0  0
   58.4910   34.8423   47.8609 H   0  0  0  0  0  0  0  0  0  0  0  0
   57.8040   31.7920   49.3050 H   0  0  0  0  0  0  0  0  0  0  0  0
   58.1422   25.8031   44.0949 H   0  0  0  0  0  0  0  0  0  0  0  0
   57.8568   23.7178   42.7729 H   0  0  0  0  0  0  0  0  0  0  0  0
  1  2  1  0
  2  3  1  0
  3  4  1  0
  4  5  1  0
  5  6  2  0
  6  7  1  0
  7  8  2  0
  8  9  1  0
  9 10  1  0
 10 11  2  0
 10 12  1  0
 12 13  1  0
 13 14  2  0
 14 15  1  0
 15 16  2  0
 16 17  1  0
 17 18  1  0
 18 19  1  0
 19 20  1  0
 20 21  1  0
 21 22  2  0
 22 23  1  0
 23 24  1  0
 23 25  2  0
 25 26  1  0
 26 27  2  0
 27 28  1  0
 17 29  2  0
 29 30  1  0
 30 31  1  0
 30 32  2  0
  8 33  1  0
 33 34  2  0
 34  5  1  0
 29 13  1  0
 28 18  1  0
 27 21  1  0
  1 35  1  0
  1 36  1  0
  1 37  1  0
  2 38  1  0
  2 39  1  0
  3 40  1  0
  3 41  1  0
  6 42  1  0
  7 43  1  0
  9 44  1  0
 14 45  1  0
 15 46  1  0
 16 47  1  0
 19 48  1  0
 19 49  1  0
 20 50  1  0
 20 51  1  0
 22 52  1  0
 25 53  1  0
 26 54  1  0
 28 55  1  0
 28 56  1  0
 31 57  1  0
 33 58  1  0
 34 59  1  0
M  CHG  3  12  -1  24  -1  31  -1
M  END
>  <UniqueID>  (69) 
66

>  <SMILES>  (69) 
CCCOc1ccc(NC(=O)[N-]c2cccc(N3CCc4cc([O-])ccc4C3)c2C([NH-])=O)cc1

>  <Energy>  (69) 
79.57945600247143

>  <Genealogy>  (69) 
CCCOc1ccc(NC(=O)[N-]c2cccc(N3CCc4cc([O-])ccc4C3)c2C([NH-])=O)cc1 (protonated)
CCCOc1ccc(NC(=O)[N-]c2cccc(N3CCc4cc([O-])ccc4C3)c2C([NH-])=O)cc1 (3D coordinates assigned)
CCCOc1ccc(NC(=O)[N-]c2cccc(N3CCc4cc([O-])ccc4C3)c2C([NH-])=O)cc1 (nonaromatic ring conformer: 79.57945600247143 kcal/mol)

>  <smiles>  (69) 
CCCOc1ccc(NC(=O)Nc2cccc(N3CCc4cc(O)ccc4C3)c2C(N)=O)cc1

>  <score_type>  (69) 
oracle

>  <origin>  (69) 
adg

>  <m_score__min__energy>  (69) 
-11.81

>  <m_primary>  (69) 
energy

$$$$
69:0
     RDKit          3D

 65 69  0  0  0  0  0  0  0  0999 V2000
   55.9106   32.0245   52.6855 H   0  0  0  0  0  0  0  0  0  0  0  0
   54.9330   31.6110   52.3970 C   0  0  0  0  0  0  0  0  0  0  0  0
   54.1855   32.2547   51.9103 H   0  0  0  0  0  0  0  0  0  0  0  0
   54.6520   30.3200   52.6390 C   0  0  0  0  0  0  0  0  0  0  0  0
   53.4560   29.6590   52.3290 C   0  0  0  0  0  0  0  0  0  0  0  0
   52.3800   30.1830   51.7030 C   0  0  0  0  0  0  0  0  0  0  0  0
   52.1285   29.7791   50.7112 H   0  0  0  0  0  0  0  0  0  0  0  0
   51.5110   31.2540   52.2380 C   0  0  0  0  0  0  0  0  0  0  0  0
   51.1800   31.4310   53.5290 N   0  0  0  0  0  0  0  0  0  0  0  0
   50.4260   32.5520   53.5130 C   0  0  0  0  0  0  0  0  0  0  0  0
   49.9160   33.0410   54.5540 O   0  0  0  0  0  0  0  0  0  0  0  0
   50.2650   33.1070   52.2930 N   0  0  0  0  0  0  0  0  0  0  0  0
   50.9620   32.2780   51.5010 C   0  0  0  0  0  0  0  0  0  0  0  0
   51.0920   32.4530   50.1280 O   0  0  0  0  0  0  0  0  0  0  0  0
   53.6160   28.3510   52.7700 C   0  0  0  0  0  0  0  0  0  0  0  0
   52.8770   27.5395   52.6962 H   0  0  0  0  0  0  0  0  0  0  0  0
   54.8790   28.2650   53.3180 C   0  0  0  0  0  0  0  0  0  0  0  0
   55.4500   27.0220   53.9330 C   0  0  0  0  0  0  0  0  0  0  0  0
   55.4121   27.1046   55.0292 H   0  0  0  0  0  0  0  0  0  0  0  0
   54.8622   26.1500   53.6104 H   0  0  0  0  0  0  0  0  0  0  0  0
   56.4945   26.8998   53.6104 H   0  0  0  0  0  0  0  0  0  0  0  0
   55.5120   29.4590   53.2450 N   0  0  0  0  0  0  0  0  0  0  0  0
   56.8820   29.7450   53.7020 C   0  0  0  0  0  0  0  0  0  0  0  0
   56.8396   30.4426   54.5515 H   0  0  0  0  0  0  0  0  0  0  0  0
   57.3555   28.7990   54.0034 H   0  0  0  0  0  0  0  0  0  0  0  0
   57.7020   30.3620   52.5980 C   0  0  0  0  0  0  0  0  0  0  0  0
   58.5110   29.5600   51.7760 C   0  0  0  0  0  0  0  0  0  0  0  0
   58.5395   28.4717   51.9335 H   0  0  0  0  0  0  0  0  0  0  0  0
   59.2790   30.1330   50.7610 C   0  0  0  0  0  0  0  0  0  0  0  0
   59.9044   29.4925   50.1217 H   0  0  0  0  0  0  0  0  0  0  0  0
   59.2590   31.5220   50.5500 C   0  0  0  0  0  0  0  0  0  0  0  0
   60.0660   32.1160   49.5130 N   0  0  0  0  0  0  0  0  0  0  0  0
   59.6250   33.3630   48.8680 C   0  0  0  0  0  0  0  0  0  0  0  0
   58.5513   33.2866   48.6414 H   0  0  0  0  0  0  0  0  0  0  0  0
   59.8242   34.1952   49.5592 H   0  0  0  0  0  0  0  0  0  0  0  0
   60.3920   33.6310   47.5620 C   0  0  0  0  0  0  0  0  0  0  0  0
   59.8273   34.3614   46.9640 H   0  0  0  0  0  0  0  0  0  0  0  0
   61.3878   34.0140   47.8299 H   0  0  0  0  0  0  0  0  0  0  0  0
   60.5900   32.3480   46.7220 C   0  0  0  0  0  0  0  0  0  0  0  0
   61.3449   32.5740   45.9545 H   0  0  0  0  0  0  0  0  0  0  0  0
   59.3040   31.9710   45.9960 C   0  0  0  0  0  0  0  0  0  0  0  0
   59.0950   30.6370   45.6060 C   0  0  0  0  0  0  0  0  0  0  0  0
   59.8457   29.8725   45.8548 H   0  0  0  0  0  0  0  0  0  0  0  0
   57.9420   30.2730   44.9050 C   0  0  0  0  0  0  0  0  0  0  0  0
   57.7893   29.2230   44.6150 H   0  0  0  0  0  0  0  0  0  0  0  0
   56.9810   31.2310   44.5690 C   0  0  0  0  0  0  0  0  0  0  0  0
   55.8400   30.8140   43.8670 O   0  0  0  0  0  0  0  0  0  0  0  0
   55.8050   29.7030   42.9760 C   0  0  0  0  0  0  0  0  0  0  0  0
   55.7756   28.7687   43.5559 H   0  0  0  0  0  0  0  0  0  0  0  0
   54.9085   29.7695   42.3421 H   0  0  0  0  0  0  0  0  0  0  0  0
   56.7039   29.7129   42.3421 H   0  0  0  0  0  0  0  0  0  0  0  0
   57.1890   32.5700   44.9420 C   0  0  0  0  0  0  0  0  0  0  0  0
   56.4406   33.3331   44.6822 H   0  0  0  0  0  0  0  0  0  0  0  0
   58.3430   32.9370   45.6420 C   0  0  0  0  0  0  0  0  0  0  0  0
   58.5011   33.9899   45.9184 H   0  0  0  0  0  0  0  0  0  0  0  0
   61.1970   31.1690   47.5400 C   0  0  0  0  0  0  0  0  0  0  0  0
   60.5634   30.2814   47.3962 H   0  0  0  0  0  0  0  0  0  0  0  0
   62.2215   31.0102   47.1724 H   0  0  0  0  0  0  0  0  0  0  0  0
   61.2930   31.4610   49.0440 C   0  0  0  0  0  0  0  0  0  0  0  0
   61.4315   30.5158   49.5894 H   0  0  0  0  0  0  0  0  0  0  0  0
   62.1481   32.1286   49.2259 H   0  0  0  0  0  0  0  0  0  0  0  0
   58.4670   32.3260   51.3870 C   0  0  0  0  0  0  0  0  0  0  0  0
   58.4521   33.4162   51.2414 H   0  0  0  0  0  0  0  0  0  0  0  0
   57.6980   31.7520   52.4030 C   0  0  0  0  0  0  0  0  0  0  0  0
   57.0858   32.3935   53.0539 H   0  0  0  0  0  0  0  0  0  0  0  0
  1  2  1  0
  2  3  1  0
  2  4  2  0
  4  5  1  0
  5  6  2  0
  6  7  1  0
  6  8  1  0
  8  9  1  0
  9 10  1  0
 10 11  2  0
 10 12  1  0
 12 13  1  0
 13 14  1  0
  5 15  1  0
 15 16  1  0
 15 17  2  0
 17 18  1  0
 18 19  1  0
 18 20  1  0
 18 21  1  0
 17 22  1  0
 22 23  1  0
 23 24  1  0
 23 25  1  0
 23 26  1  0
 26 27  2  0
 27 28  1  0
 27 29  1  0
 29 30  1  0
 29 31  2  0
 31 32  1  0
 32 33  1  0
 33 34  1  0
 33 35  1  0
 33 36  1  0
 36 37  1  0
 36 38  1  0
 36 39  1  0
 39 40  1  0
 39 41  1  0
 41 42  2  0
 42 43  1  0
 42 44  1  0
 44 45  1  0
 44 46  2  0
 46 47  1  0
 47 48  1  0
 48 49  1  0
 48 50  1  0
 48 51  1  0
 46 52  1  0
 52 53  1  0
 52 54  2  0
 54 55  1  0
 39 56  1  0
 56 57  1  0
 56 58  1  0
 56 59  1  0
 59 60  1  0
 59 61  1  0
 31 62  1  0
 62 63  1  0
 62 64  2  0
 64 65  1  0
 22  4  1  0
 64 26  1  0
 13  8  2  0
 59 32  1  0
 54 41  1  0
M  CHG  3   9  -1  12  -1  14  -1
M  END
>  <UniqueID>  (70) 
67

>  <SMILES>  (70) 
C=c1/c(=C/c2[n-]c(=O)[n-]c2[O-])cc(C)n1Cc1ccc(N2CCC(c3ccc(OC)cc3)CC2)cc1

>  <Energy>  (70) 
138.71258047389233

>  <Genealogy>  (70) 
C=c1c(=Cc2[n-]c(=O)[n-]c2[O-])cc(C)n1Cc1ccc(N2CCC(c3ccc(OC)cc3)CC2)cc1 (protonated)
C=c1/c(=C/c2[n-]c(=O)[n-]c2[O-])cc(C)n1Cc1ccc(N2CCC(c3ccc(OC)cc3)CC2)cc1 (cis-trans isomerization)
C=c1/c(=C/c2[n-]c(=O)[n-]c2[O-])cc(C)n1Cc1ccc(N2CCC(c3ccc(OC)cc3)CC2)cc1 (3D coordinates assigned)
C=c1/c(=C/c2[n-]c(=O)[n-]c2[O-])cc(C)n1Cc1ccc(N2CCC(c3ccc(OC)cc3)CC2)cc1 (nonaromatic ring conformer: 138.71258047389233 kcal/mol)

>  <smiles>  (70) 
C=c1c(=Cc2[nH]c(=O)[nH]c2O)cc(C)n1Cc1ccc(N2CCC(c3ccc(OC)cc3)CC2)cc1

>  <score_type>  (70) 
oracle

>  <origin>  (70) 
adg

>  <m_score__min__energy>  (70) 
-19.559999999999999

>  <m_primary>  (70) 
energy

$$$$
70:0
     RDKit          3D

 51 53  0  0  0  0  0  0  0  0999 V2000
   55.8960   19.6290   44.2660 C   0  0  0  0  0  0  0  0  0  0  0  0
   56.2290   20.9010   44.9120 N   0  0  0  0  0  0  0  0  0  0  0  0
   55.8490   21.1110   46.3120 C   0  0  0  0  0  0  0  0  0  0  0  0
   56.6190   22.0250   44.1000 C   0  0  0  0  0  0  0  0  0  0  0  0
   56.2040   22.1060   42.9110 O   0  0  0  0  0  0  0  0  0  0  0  0
   57.4930   23.0950   44.6290 C   0  0  0  0  0  0  0  0  0  0  0  0
   58.7650   22.7800   45.1310 C   0  0  0  0  0  0  0  0  0  0  0  0
   59.5910   23.7840   45.6380 C   0  0  0  0  0  0  0  0  0  0  0  0
   59.1520   25.1090   45.6650 C   0  0  0  0  0  0  0  0  0  0  0  0
   57.8680   25.4430   45.1990 C   0  0  0  0  0  0  0  0  0  0  0  0
   57.3750   26.8420   45.2250 C   0  0  0  0  0  0  0  0  0  0  0  0
   56.2080   27.0680   45.6450 O   0  0  0  0  0  0  0  0  0  0  0  0
   58.2010   27.9320   44.7760 N   0  0  0  0  0  0  0  0  0  0  0  0
   57.8190   29.3160   44.8640 C   0  0  0  0  0  0  0  0  0  0  0  0
   56.6270   29.7900   44.2950 C   0  0  0  0  0  0  0  0  0  0  0  0
   56.2800   31.0960   44.4270 N   0  0  0  0  0  0  0  0  0  0  0  0
   57.0520   31.9810   45.1090 C   0  0  0  0  0  0  0  0  0  0  0  0
   58.2440   31.5580   45.7200 C   0  0  0  0  0  0  0  0  0  0  0  0
   59.0910   32.5130   46.4800 C   0  0  0  0  0  0  0  0  0  0  0  0
   58.5180   33.6300   47.1130 C   0  0  0  0  0  0  0  0  0  0  0  0
   59.3170   34.5290   47.8230 C   0  0  0  0  0  0  0  0  0  0  0  0
   60.6960   34.3250   47.9110 C   0  0  0  0  0  0  0  0  0  0  0  0
   61.2820   33.2130   47.2920 C   0  0  0  0  0  0  0  0  0  0  0  0
   63.0230   32.9650   47.3820 S   0  0  0  0  0  0  0  0  0  0  0  0
   63.6060   33.4480   48.9920 C   0  0  0  0  0  0  0  0  0  0  0  0
   63.7090   33.7910   46.3300 O   0  0  0  0  0  0  0  0  0  0  0  0
   63.3470   31.5160   47.1460 O   0  0  0  0  0  0  0  0  0  0  0  0
   60.4810   32.3160   46.5740 C   0  0  0  0  0  0  0  0  0  0  0  0
   58.6140   30.2080   45.5960 C   0  0  0  0  0  0  0  0  0  0  0  0
   57.0470   24.4260   44.6770 C   0  0  0  0  0  0  0  0  0  0  0  0
   55.6968   18.8682   45.0351 H   0  0  0  0  0  0  0  0  0  0  0  0
   55.0017   19.7593   43.6389 H   0  0  0  0  0  0  0  0  0  0  0  0
   56.7394   19.3044   43.6389 H   0  0  0  0  0  0  0  0  0  0  0  0
   56.6209   20.6844   46.9694 H   0  0  0  0  0  0  0  0  0  0  0  0
   55.7549   22.1892   46.5086 H   0  0  0  0  0  0  0  0  0  0  0  0
   54.8860   20.6170   46.5086 H   0  0  0  0  0  0  0  0  0  0  0  0
   59.1127   21.7364   45.1248 H   0  0  0  0  0  0  0  0  0  0  0  0
   60.5917   23.5305   46.0178 H   0  0  0  0  0  0  0  0  0  0  0  0
   59.8146   25.8966   46.0532 H   0  0  0  0  0  0  0  0  0  0  0  0
   59.1130   27.7250   44.3100 H   0  0  0  0  0  0  0  0  0  0  0  0
   55.9721   29.1017   43.7406 H   0  0  0  0  0  0  0  0  0  0  0  0
   56.7424   33.0339   45.1833 H   0  0  0  0  0  0  0  0  0  0  0  0
   57.4327   33.7971   47.0486 H   0  0  0  0  0  0  0  0  0  0  0  0
   58.8590   35.4001   48.3143 H   0  0  0  0  0  0  0  0  0  0  0  0
   61.3226   35.0381   48.4668 H   0  0  0  0  0  0  0  0  0  0  0  0
   63.0034   32.9488   49.7651 H   0  0  0  0  0  0  0  0  0  0  0  0
   64.6605   33.1553   49.1032 H   0  0  0  0  0  0  0  0  0  0  0  0
   63.5145   34.5385   49.1032 H   0  0  0  0  0  0  0  0  0  0  0  0
   60.9430   31.4492   46.0788 H   0  0  0  0  0  0  0  0  0  0  0  0
   59.5353   29.8485   46.0776 H   0  0  0  0  0  0  0  0  0  0  0  0
   56.0437   24.6766   44.3020 H   0  0  0  0  0  0  0  0  0  0  0  0
  1  2  1  0
  2  3  1  0
  2  4  1  0
  4  5  2  0
  4  6  1  0
  6  7  2  0
  7  8  1  0
  8  9  2  0
  9 10  1  0
 10 11  1  0
 11 12  2  0
 11 13  1  0
 13 14  1  0
 14 15  2  0
 15 16  1  0
 16 17  2  0
 17 18  1  0
 18 19  1  0
 19 20  2  0
 20 21  1  0
 21 22  2  0
 22 23  1  0
 23 24  1  0
 24 25  1  0
 24 26  2  0
 24 27  2  0
 23 28  2  0
 18 29  2  0
 10 30  2  0
 30  6  1  0
 29 14  1  0
 28 19  1  0
  1 31  1  0
  1 32  1  0
  1 33  1  0
  3 34  1  0
  3 35  1  0
  3 36  1  0
  7 37  1  0
  8 38  1  0
  9 39  1  0
 13 40  1  0
 15 41  1  0
 17 42  1  0
 20 43  1  0
 21 44  1  0
 22 45  1  0
 25 46  1  0
 25 47  1  0
 25 48  1  0
 28 49  1  0
 29 50  1  0
 30 51  1  0
M  END
>  <UniqueID>  (71) 
68

>  <SMILES>  (71) 
CN(C)C(=O)c1cccc(C(=O)Nc2cncc(-c3cccc(S(C)(=O)=O)c3)c2)c1

>  <Energy>  (71) 
66.74897333297697

>  <Genealogy>  (71) 
CN(C)C(=O)c1cccc(C(=O)Nc2cncc(-c3cccc(S(C)(=O)=O)c3)c2)c1 (3D coordinates assigned)
CN(C)C(=O)c1cccc(C(=O)Nc2cncc(-c3cccc(S(C)(=O)=O)c3)c2)c1 (optimized conformer: 66.74897333297697 kcal/mol)

>  <smiles>  (71) 
CN(C)C(=O)c1cccc(C(=O)Nc2cncc(-c3cccc(S(C)(=O)=O)c3)c2)c1

>  <score_type>  (71) 
oracle

>  <origin>  (71) 
adg

>  <m_score__min__energy>  (71) 
-9.6400000000000006

>  <m_primary>  (71) 
energy

$$$$
71:0
     RDKit          3D

 33 35  0  0  0  0  0  0  0  0999 V2000
   60.1241   31.3056   49.2290 H   0  0  0  0  0  0  0  0  0  0  0  0
   60.0310   30.2170   49.3570 C   0  0  0  0  0  0  0  0  0  0  0  0
   60.0667   29.7766   50.3644 H   0  0  0  0  0  0  0  0  0  0  0  0
   59.8750   29.4320   48.2920 C   0  0  0  0  0  0  0  0  0  0  0  0
   59.7230   27.7580   48.3740 S   0  0  0  0  0  0  0  0  0  0  0  0
   59.5880   27.5070   46.7110 C   0  0  0  0  0  0  0  0  0  0  0  0
   59.4730   26.3290   46.0840 C   0  0  0  0  0  0  0  0  0  0  0  0
   60.3704   25.8967   45.6173 H   0  0  0  0  0  0  0  0  0  0  0  0
   58.2040   25.5810   45.9870 C   0  0  0  0  0  0  0  0  0  0  0  0
   56.9930   26.2930   46.0160 C   0  0  0  0  0  0  0  0  0  0  0  0
   57.0051   27.3897   46.0997 H   0  0  0  0  0  0  0  0  0  0  0  0
   55.7730   25.6150   45.9390 C   0  0  0  0  0  0  0  0  0  0  0  0
   54.5810   26.3280   45.9510 O   0  0  0  0  0  0  0  0  0  0  0  0
   55.7510   24.2200   45.8490 C   0  0  0  0  0  0  0  0  0  0  0  0
   54.7908   23.6880   45.7775 H   0  0  0  0  0  0  0  0  0  0  0  0
   56.9500   23.5020   45.8500 C   0  0  0  0  0  0  0  0  0  0  0  0
   56.9305   22.4040   45.7860 H   0  0  0  0  0  0  0  0  0  0  0  0
   58.1750   24.1730   45.9320 C   0  0  0  0  0  0  0  0  0  0  0  0
   59.3520   23.4340   45.9810 O   0  0  0  0  0  0  0  0  0  0  0  0
   59.6750   28.7390   46.0680 C   0  0  0  0  0  0  0  0  0  0  0  0
   59.6342   28.8519   44.9746 H   0  0  0  0  0  0  0  0  0  0  0  0
   59.8200   29.8250   46.9490 C   0  0  0  0  0  0  0  0  0  0  0  0
   59.9860   31.2360   46.4520 C   0  0  0  0  0  0  0  0  0  0  0  0
   60.2678   31.8871   47.2926 H   0  0  0  0  0  0  0  0  0  0  0  0
   60.7721   31.2568   45.6828 H   0  0  0  0  0  0  0  0  0  0  0  0
   58.7350   31.7130   45.8700 N   0  0  0  0  0  0  0  0  0  0  0  0
   57.7890   30.9780   45.2530 C   0  0  0  0  0  0  0  0  0  0  0  0
   57.8697   29.8941   45.0837 H   0  0  0  0  0  0  0  0  0  0  0  0
   56.7310   31.7220   44.8660 N   0  0  0  0  0  0  0  0  0  0  0  0
   57.0390   32.9730   45.2670 C   0  0  0  0  0  0  0  0  0  0  0  0
   56.4043   33.8595   45.1213 H   0  0  0  0  0  0  0  0  0  0  0  0
   58.2680   32.9710   45.8860 C   0  0  0  0  0  0  0  0  0  0  0  0
   58.7773   33.8454   46.3174 H   0  0  0  0  0  0  0  0  0  0  0  0
  1  2  1  0
  2  3  1  0
  2  4  2  0
  4  5  1  0
  5  6  1  0
  6  7  2  0
  7  8  1  0
  7  9  1  0
  9 10  2  0
 10 11  1  0
 10 12  1  0
 12 13  1  0
 12 14  2  0
 14 15  1  0
 14 16  1  0
 16 17  1  0
 16 18  2  0
 18 19  1  0
  6 20  1  0
 20 21  1  0
 20 22  2  0
 22 23  1  0
 23 24  1  0
 23 25  1  0
 23 26  1  0
 26 27  1  0
 27 28  1  0
 27 29  2  0
 29 30  1  0
 30 31  1  0
 30 32  2  0
 32 33  1  0
 22  4  1  0
 32 26  1  0
 18  9  1  0
M  CHG  2  13  -1  19  -1
M  END
>  <UniqueID>  (72) 
69

>  <SMILES>  (72) 
C=c1s/c(=C\c2cc([O-])ccc2[O-])cc1Cn1ccnc1

>  <Energy>  (72) 
96.74337890416531

>  <Genealogy>  (72) 
C=c1sc(=Cc2cc([O-])ccc2[O-])cc1Cn1ccnc1 (protonated)
C=c1s/c(=C\c2cc([O-])ccc2[O-])cc1Cn1ccnc1 (cis-trans isomerization)
C=c1s/c(=C\c2cc([O-])ccc2[O-])cc1Cn1ccnc1 (3D coordinates assigned)
C=c1s/c(=C\c2cc([O-])ccc2[O-])cc1Cn1ccnc1 (optimized conformer: 96.74337890416531 kcal/mol)

>  <smiles>  (72) 
C=c1sc(=Cc2cc(O)ccc2O)cc1Cn1ccnc1

>  <score_type>  (72) 
oracle

>  <origin>  (72) 
adg

>  <m_score__min__energy>  (72) 
-12.140000000000001

>  <m_primary>  (72) 
energy

$$$$
72:0
     RDKit          3D

 39 41  0  0  0  0  0  0  0  0999 V2000
   56.9960   28.8360   53.6700 C   0  0  0  0  0  0  0  0  0  0  0  0
   57.3330   30.0620   52.9570 N   0  0  0  0  0  0  0  0  0  0  0  0
   57.2310   30.2080   51.6450 N   0  0  0  0  0  0  0  0  0  0  0  0
   57.6740   31.4500   51.3510 C   0  0  0  0  0  0  0  0  0  0  0  0
   57.7080   32.0090   50.0310 N   0  0  0  0  0  0  0  0  0  0  0  0
   58.7310   31.7020   49.0680 C   0  0  0  0  0  0  0  0  0  0  0  0
   59.7920   31.1310   49.4400 O   0  0  0  0  0  0  0  0  0  0  0  0
   58.5710   32.0780   47.6410 C   0  0  0  0  0  0  0  0  0  0  0  0
   58.6600   33.4270   47.2570 C   0  0  0  0  0  0  0  0  0  0  0  0
   58.5260   33.7890   45.9160 C   0  0  0  0  0  0  0  0  0  0  0  0
   58.3060   32.8140   44.9420 C   0  0  0  0  0  0  0  0  0  0  0  0
   58.2080   31.4550   45.2990 C   0  0  0  0  0  0  0  0  0  0  0  0
   58.0190   30.3520   44.2640 C   0  0  2  0  0  0  0  0  0  0  0  0
   56.7500   30.5760   43.4190 C   0  0  0  0  0  0  0  0  0  0  0  0
   55.4780   30.3310   44.2340 C   0  0  0  0  0  0  0  0  0  0  0  0
   55.5160   29.0200   44.8700 N   0  0  0  0  0  0  0  0  0  0  0  0
   56.7320   28.4120   45.3150 C   0  0  0  0  0  0  0  0  0  0  0  0
   56.6770   27.3860   46.0440 O   0  0  0  0  0  0  0  0  0  0  0  0
   58.0700   28.9190   44.8500 C   0  0  0  0  0  0  0  0  0  0  0  0
   58.3610   31.1000   46.6530 C   0  0  0  0  0  0  0  0  0  0  0  0
   58.0710   32.1150   52.4990 C   0  0  0  0  0  0  0  0  0  0  0  0
   57.8420   31.1870   53.4890 C   0  0  0  0  0  0  0  0  0  0  0  0
   58.0710   31.3550   54.7170 O   0  0  0  0  0  0  0  0  0  0  0  0
   57.0457   29.0167   54.7539 H   0  0  0  0  0  0  0  0  0  0  0  0
   55.9780   28.5211   53.3971 H   0  0  0  0  0  0  0  0  0  0  0  0
   57.7100   28.0450   53.3971 H   0  0  0  0  0  0  0  0  0  0  0  0
   56.9670   32.7030   49.7820 H   0  0  0  0  0  0  0  0  0  0  0  0
   58.8363   34.2018   48.0177 H   0  0  0  0  0  0  0  0  0  0  0  0
   58.5941   34.8477   45.6253 H   0  0  0  0  0  0  0  0  0  0  0  0
   58.2083   33.1093   43.8869 H   0  0  0  0  0  0  0  0  0  0  0  0
   58.8914   30.4255   43.5980 H   0  0  0  0  0  0  0  0  0  0  0  0
   56.7443   31.6130   43.0520 H   0  0  0  0  0  0  0  0  0  0  0  0
   56.7644   29.8623   42.5821 H   0  0  0  0  0  0  0  0  0  0  0  0
   55.3918   31.1060   45.0099 H   0  0  0  0  0  0  0  0  0  0  0  0
   54.6121   30.3697   43.5568 H   0  0  0  0  0  0  0  0  0  0  0  0
   58.7596   28.9178   45.7070 H   0  0  0  0  0  0  0  0  0  0  0  0
   58.4058   28.2515   44.0428 H   0  0  0  0  0  0  0  0  0  0  0  0
   58.3155   30.0398   46.9426 H   0  0  0  0  0  0  0  0  0  0  0  0
   58.4713   33.1350   52.5958 H   0  0  0  0  0  0  0  0  0  0  0  0
  1  2  1  0
  2  3  1  0
  3  4  1  0
  4  5  1  0
  5  6  1  0
  6  7  2  0
  6  8  1  0
  8  9  2  0
  9 10  1  0
 10 11  2  0
 11 12  1  0
 12 13  1  0
 13 14  1  0
 14 15  1  0
 15 16  1  0
 16 17  1  0
 17 18  2  0
 17 19  1  0
 12 20  2  0
  4 21  2  0
 21 22  1  0
 22 23  2  0
 22  2  1  0
 20  8  1  0
 19 13  1  0
  1 24  1  0
  1 25  1  0
  1 26  1  0
  5 27  1  0
  9 28  1  0
 10 29  1  0
 11 30  1  0
 13 31  1  6
 14 32  1  0
 14 33  1  0
 15 34  1  0
 15 35  1  0
 19 36  1  0
 19 37  1  0
 20 38  1  0
 21 39  1  0
M  CHG  2   3  -1  16  -1
M  END
>  <UniqueID>  (73) 
70

>  <SMILES>  (73) 
Cn1[n-]c(NC(=O)c2cccc([C@@H]3CC[N-]C(=O)C3)c2)cc1=O

>  <Energy>  (73) 
75.73704355222624

>  <Genealogy>  (73) 
Cn1[n-]c(NC(=O)c2cccc(C3CC[N-]C(=O)C3)c2)cc1=O (protonated)
Cn1[n-]c(NC(=O)c2cccc([C@@H]3CC[N-]C(=O)C3)c2)cc1=O (chirality)
Cn1[n-]c(NC(=O)c2cccc([C@@H]3CC[N-]C(=O)C3)c2)cc1=O (3D coordinates assigned)
Cn1[n-]c(NC(=O)c2cccc([C@@H]3CC[N-]C(=O)C3)c2)cc1=O (nonaromatic ring conformer: 75.73704355222624 kcal/mol)

>  <smiles>  (73) 
Cn1[nH]c(NC(=O)c2cccc(C3CCNC(=O)C3)c2)cc1=O

>  <score_type>  (73) 
oracle

>  <origin>  (73) 
adg

>  <m_score__min__energy>  (73) 
-11.15

>  <m_primary>  (73) 
energy

$$$$
73:0
     RDKit          3D

 54 57  0  0  0  0  0  0  0  0999 V2000
   59.7530   26.2770   47.4040 C   0  0  0  0  0  0  0  0  0  0  0  0
   59.4410   27.4740   46.8720 C   0  0  0  0  0  0  0  0  0  0  0  0
   60.4740   28.3340   46.6910 N   0  0  0  0  0  0  0  0  0  0  0  0
   60.3100   29.5870   46.2140 C   0  0  0  0  0  0  0  0  0  0  0  0
   61.3270   30.3260   46.0930 O   0  0  0  0  0  0  0  0  0  0  0  0
   59.0620   30.0400   45.8700 N   0  0  0  0  0  0  0  0  0  0  0  0
   58.8800   31.4150   45.3550 C   0  0  0  0  0  0  0  0  0  0  0  0
   58.7760   32.3910   46.4970 C   0  0  0  0  0  0  0  0  0  0  0  0
   57.8100   32.3030   47.2990 O   0  0  0  0  0  0  0  0  0  0  0  0
   59.7150   33.4600   46.6620 N   0  0  0  0  0  0  0  0  0  0  0  0
   61.0740   33.3320   47.1110 C   0  0  0  0  0  0  0  0  0  0  0  0
   62.1390   33.8740   46.3670 C   0  0  0  0  0  0  0  0  0  0  0  0
   63.4560   33.7120   46.8000 C   0  0  0  0  0  0  0  0  0  0  0  0
   63.7240   32.9980   47.9690 C   0  0  0  0  0  0  0  0  0  0  0  0
   62.6770   32.4410   48.7080 C   0  0  0  0  0  0  0  0  0  0  0  0
   61.3530   32.5940   48.2790 C   0  0  0  0  0  0  0  0  0  0  0  0
   60.2930   32.0360   49.0650 N   0  0  0  0  0  0  0  0  0  0  0  0
   60.2210   30.5740   49.1850 C   0  0  0  0  0  0  0  0  0  0  0  0
   58.9140   30.1090   49.8370 C   0  0  0  0  0  0  0  0  0  0  0  0
   58.5410   30.9530   50.9070 O   0  0  0  0  0  0  0  0  0  0  0  0
   58.1900   32.2180   50.3840 C   0  0  0  0  0  0  0  0  0  0  0  0
   59.4380   32.9430   49.8440 C   0  0  0  0  0  0  0  0  0  0  0  0
   57.9690   29.2210   46.0250 C   0  0  0  0  0  0  0  0  0  0  0  0
   56.8350   29.6440   45.6530 O   0  0  0  0  0  0  0  0  0  0  0  0
   58.1100   27.9000   46.5500 C   0  0  0  0  0  0  0  0  0  0  0  0
   57.0340   27.0710   46.7020 C   0  0  0  0  0  0  0  0  0  0  0  0
   56.7250   25.8840   45.8770 C   0  0  0  0  0  0  0  0  0  0  0  0
   57.7750   25.0290   45.4840 C   0  0  0  0  0  0  0  0  0  0  0  0
   57.5010   23.8570   44.7720 C   0  0  0  0  0  0  0  0  0  0  0  0
   56.1770   23.5250   44.4560 C   0  0  0  0  0  0  0  0  0  0  0  0
   55.9050   22.3590   43.7530 O   0  0  0  0  0  0  0  0  0  0  0  0
   55.1270   24.3650   44.8500 C   0  0  0  0  0  0  0  0  0  0  0  0
   55.3930   25.5380   45.5670 C   0  0  0  0  0  0  0  0  0  0  0  0
   54.3310   26.3400   45.9800 O   0  0  0  0  0  0  0  0  0  0  0  0
   58.9644   25.5303   47.5785 H   0  0  0  0  0  0  0  0  0  0  0  0
   60.7965   26.0459   47.6641 H   0  0  0  0  0  0  0  0  0  0  0  0
   59.7410   31.6836   44.7253 H   0  0  0  0  0  0  0  0  0  0  0  0
   57.9534   31.4560   44.7636 H   0  0  0  0  0  0  0  0  0  0  0  0
   61.9322   34.4281   45.4395 H   0  0  0  0  0  0  0  0  0  0  0  0
   64.2830   34.1472   46.2197 H   0  0  0  0  0  0  0  0  0  0  0  0
   64.7625   32.8734   48.3096 H   0  0  0  0  0  0  0  0  0  0  0  0
   62.8936   31.8807   49.6295 H   0  0  0  0  0  0  0  0  0  0  0  0
   60.2920   30.1324   48.1800 H   0  0  0  0  0  0  0  0  0  0  0  0
   61.0527   30.2470   49.8263 H   0  0  0  0  0  0  0  0  0  0  0  0
   58.1151   30.1158   49.0809 H   0  0  0  0  0  0  0  0  0  0  0  0
   59.0679   29.0949   50.2344 H   0  0  0  0  0  0  0  0  0  0  0  0
   57.4669   32.0837   49.5660 H   0  0  0  0  0  0  0  0  0  0  0  0
   57.7454   32.8244   51.1869 H   0  0  0  0  0  0  0  0  0  0  0  0
   59.1173   33.7742   49.1987 H   0  0  0  0  0  0  0  0  0  0  0  0
   60.0193   33.3143   50.7009 H   0  0  0  0  0  0  0  0  0  0  0  0
   56.3320   27.3095   47.5146 H   0  0  0  0  0  0  0  0  0  0  0  0
   58.8141   25.2849   45.7385 H   0  0  0  0  0  0  0  0  0  0  0  0
   58.3238   23.1967   44.4605 H   0  0  0  0  0  0  0  0  0  0  0  0
   54.0898   24.1020   44.5951 H   0  0  0  0  0  0  0  0  0  0  0  0
  1  2  2  0
  2  3  1  0
  3  4  1  0
  4  5  2  0
  4  6  1  0
  6  7  1  0
  7  8  1  0
  8  9  2  0
  8 10  1  0
 10 11  1  0
 11 12  2  0
 12 13  1  0
 13 14  2  0
 14 15  1  0
 15 16  2  0
 16 17  1  0
 17 18  1  0
 18 19  1  0
 19 20  1  0
 20 21  1  0
 21 22  1  0
  6 23  1  0
 23 24  2  0
 23 25  1  0
 25 26  2  3
 26 27  1  0
 27 28  2  0
 28 29  1  0
 29 30  2  0
 30 31  1  0
 30 32  1  0
 32 33  2  0
 33 34  1  0
 25  2  1  0
 33 27  1  0
 16 11  1  0
 22 17  1  0
  1 35  1  0
  1 36  1  0
  7 37  1  0
  7 38  1  0
 12 39  1  0
 13 40  1  0
 14 41  1  0
 15 42  1  0
 18 43  1  0
 18 44  1  0
 19 45  1  0
 19 46  1  0
 21 47  1  0
 21 48  1  0
 22 49  1  0
 22 50  1  0
 26 51  1  0
 28 52  1  0
 29 53  1  0
 32 54  1  0
M  CHG  4   3  -1  10  -1  31  -1  34  -1
M  END
>  <UniqueID>  (74) 
71

>  <SMILES>  (74) 
C=c1[n-]c(=O)n(CC(=O)[N-]c2ccccc2N2CCOCC2)c(=O)c1=Cc1ccc([O-])cc1[O-]

>  <Energy>  (74) 
94.10288779440167

>  <Genealogy>  (74) 
C=c1[n-]c(=O)n(CC(=O)[N-]c2ccccc2N2CCOCC2)c(=O)c1=Cc1ccc([O-])cc1[O-] (protonated)
C=c1[n-]c(=O)n(CC(=O)[N-]c2ccccc2N2CCOCC2)c(=O)c1=Cc1ccc([O-])cc1[O-] (3D coordinates assigned)
C=c1[n-]c(=O)n(CC(=O)[N-]c2ccccc2N2CCOCC2)c(=O)c1=Cc1ccc([O-])cc1[O-] (nonaromatic ring conformer: 94.10288779440167 kcal/mol)

>  <smiles>  (74) 
C=c1[nH]c(=O)n(CC(=O)Nc2ccccc2N2CCOCC2)c(=O)c1=Cc1ccc(O)cc1O

>  <score_type>  (74) 
oracle

>  <origin>  (74) 
adg

>  <m_score__min__energy>  (74) 
-16.760000000000002

>  <m_primary>  (74) 
energy

$$$$
74:0
     RDKit          3D

 34 36  0  0  0  0  0  0  0  0999 V2000
   64.5260   33.0530   49.2670 C   0  0  0  0  0  0  0  0  0  0  0  0
   63.3810   32.9790   48.5930 C   0  0  0  0  0  0  0  0  0  0  0  0
   62.5150   34.0460   48.3670 C   0  0  0  0  0  0  0  0  0  0  0  0
   61.4770   33.5040   47.6400 C   0  0  0  0  0  0  0  0  0  0  0  0
   60.3220   34.0900   47.1460 C   0  0  0  0  0  0  0  0  0  0  0  0
   59.4180   33.2790   46.4390 C   0  0  0  0  0  0  0  0  0  0  0  0
   59.6690   31.8840   46.2240 C   0  0  0  0  0  0  0  0  0  0  0  0
   58.7800   31.1020   45.5360 C   0  0  0  0  0  0  0  0  0  0  0  0
   58.6920   29.5930   45.7340 C   0  0  0  0  0  0  0  0  0  0  0  0
   57.2350   29.1290   45.7940 C   0  0  0  0  0  0  0  0  0  0  0  0
   56.4730   29.5760   44.5360 C   0  0  0  0  0  0  0  0  0  0  0  0
   55.1410   29.1280   44.5770 O   0  0  0  0  0  0  0  0  0  0  0  0
   56.5270   31.1050   44.3910 C   0  0  0  0  0  0  0  0  0  0  0  0
   57.9710   31.6280   44.3570 C   0  0  0  0  0  0  0  0  0  0  0  0
   60.8750   31.3400   46.7610 C   0  0  0  0  0  0  0  0  0  0  0  0
   61.7450   32.1780   47.4550 C   0  0  0  0  0  0  0  0  0  0  0  0
   62.9080   31.8380   48.0370 N   0  0  0  0  0  0  0  0  0  0  0  0
   65.1475   32.1546   49.3957 H   0  0  0  0  0  0  0  0  0  0  0  0
   64.8510   34.0126   49.6955 H   0  0  0  0  0  0  0  0  0  0  0  0
   62.6331   35.0891   48.6956 H   0  0  0  0  0  0  0  0  0  0  0  0
   60.1188   35.1596   47.3030 H   0  0  0  0  0  0  0  0  0  0  0  0
   58.4950   33.7256   46.0407 H   0  0  0  0  0  0  0  0  0  0  0  0
   59.1947   29.0906   44.8944 H   0  0  0  0  0  0  0  0  0  0  0  0
   59.1797   29.3366   46.6861 H   0  0  0  0  0  0  0  0  0  0  0  0
   57.2076   28.0315   45.8625 H   0  0  0  0  0  0  0  0  0  0  0  0
   56.7560   29.5772   46.6770 H   0  0  0  0  0  0  0  0  0  0  0  0
   56.9589   29.1264   43.6575 H   0  0  0  0  0  0  0  0  0  0  0  0
   55.1490   28.1820   44.8780 H   0  0  0  0  0  0  0  0  0  0  0  0
   56.0233   31.3913   43.4560 H   0  0  0  0  0  0  0  0  0  0  0  0
   56.0253   31.5475   45.2642 H   0  0  0  0  0  0  0  0  0  0  0  0
   58.4481   31.3013   43.4212 H   0  0  0  0  0  0  0  0  0  0  0  0
   57.9433   32.7260   44.4181 H   0  0  0  0  0  0  0  0  0  0  0  0
   61.1137   30.2744   46.6286 H   0  0  0  0  0  0  0  0  0  0  0  0
   63.3490   30.8910   48.0550 H   0  0  0  0  0  0  0  0  0  0  0  0
  1  2  2  0
  2  3  1  0
  3  4  2  0
  4  5  1  0
  5  6  2  0
  6  7  1  0
  7  8  2  3
  8  9  1  0
  9 10  1  0
 10 11  1  0
 11 12  1  0
 11 13  1  0
 13 14  1  0
  7 15  1  0
 15 16  2  0
 16 17  1  0
 17  2  1  0
 16  4  1  0
 14  8  1  0
  1 18  1  0
  1 19  1  0
  3 20  1  0
  5 21  1  0
  6 22  1  0
  9 23  1  0
  9 24  1  0
 10 25  1  0
 10 26  1  0
 11 27  1  0
 12 28  1  0
 13 29  1  0
 13 30  1  0
 14 31  1  0
 14 32  1  0
 15 33  1  0
 17 34  1  0
M  END
>  <UniqueID>  (75) 
72

>  <SMILES>  (75) 
C=c1cc2ccc(=C3CCC(O)CC3)cc2[nH]1

>  <Energy>  (75) 
78.87928765452403

>  <Genealogy>  (75) 
C=c1cc2ccc(=C3CCC(O)CC3)cc2[nH]1 (3D coordinates assigned)
C=c1cc2ccc(=C3CCC(O)CC3)cc2[nH]1 (nonaromatic ring conformer: 78.87928765452403 kcal/mol)

>  <smiles>  (75) 
C=c1cc2ccc(=C3CCC(O)CC3)cc2[nH]1

>  <score_type>  (75) 
oracle

>  <origin>  (75) 
adg

>  <m_score__min__energy>  (75) 
-7.5499999999999998

>  <m_primary>  (75) 
energy

$$$$
75:0
     RDKit          3D

 50 52  0  0  0  0  0  0  0  0999 V2000
   56.7150   30.8160   44.2620 C   0  0  0  0  0  0  0  0  0  0  0  0
   57.4160   31.1810   45.4460 O   0  0  0  0  0  0  0  0  0  0  0  0
   58.1330   32.3760   45.6110 C   0  0  0  0  0  0  0  0  0  0  0  0
   57.7350   33.5740   44.9840 C   0  0  0  0  0  0  0  0  0  0  0  0
   58.4830   34.7420   45.1480 C   0  0  0  0  0  0  0  0  0  0  0  0
   59.6320   34.7330   45.9390 C   0  0  0  0  0  0  0  0  0  0  0  0
   60.0360   33.5540   46.5690 C   0  0  0  0  0  0  0  0  0  0  0  0
   59.2930   32.3720   46.4140 C   0  0  0  0  0  0  0  0  0  0  0  0
   59.7130   31.1740   47.0950 N   0  0  0  0  0  0  0  0  0  0  0  0
   60.8720   30.4150   46.6140 C   0  0  0  0  0  0  0  0  0  0  0  0
   60.7150   28.9230   46.9530 C   0  0  0  0  0  0  0  0  0  0  0  0
   59.3020   28.4830   46.8660 N   0  0  0  0  0  0  0  0  0  0  0  0
   58.7370   28.5450   45.4950 C   0  0  0  0  0  0  0  0  0  0  0  0
   57.3750   27.8410   45.3760 C   0  0  0  0  0  0  0  0  0  0  0  0
   57.1740   26.7760   46.4620 C   0  0  0  0  0  0  0  0  0  0  0  0
   56.7010   25.5160   45.8580 N   0  0  0  0  0  0  0  0  0  0  0  0
   55.3600   25.3230   45.6400 C   0  0  0  0  0  0  0  0  0  0  0  0
   54.4490   26.3240   45.9750 O   0  0  0  0  0  0  0  0  0  0  0  0
   54.8900   24.1190   45.0840 C   0  0  0  0  0  0  0  0  0  0  0  0
   53.4390   23.9300   44.8430 C   0  0  0  0  0  0  0  0  0  0  0  0
   52.8320   22.8990   45.2390 O   0  0  0  0  0  0  0  0  0  0  0  0
   55.8370   23.1260   44.7800 C   0  0  0  0  0  0  0  0  0  0  0  0
   55.4900   22.0240   44.2770 O   0  0  0  0  0  0  0  0  0  0  0  0
   57.1500   23.3460   45.0310 N   0  0  0  0  0  0  0  0  0  0  0  0
   57.5880   24.5120   45.5660 C   0  0  0  0  0  0  0  0  0  0  0  0
   58.8200   24.6530   45.7900 O   0  0  0  0  0  0  0  0  0  0  0  0
   58.4420   29.1880   47.8520 C   0  0  0  0  0  0  0  0  0  0  0  0
   58.9180   30.6170   48.1930 C   0  0  0  0  0  0  0  0  0  0  0  0
   55.7694   30.3236   44.5328 H   0  0  0  0  0  0  0  0  0  0  0  0
   56.5022   31.7178   43.6691 H   0  0  0  0  0  0  0  0  0  0  0  0
   57.3318   30.1245   43.6691 H   0  0  0  0  0  0  0  0  0  0  0  0
   56.8286   33.5891   44.3609 H   0  0  0  0  0  0  0  0  0  0  0  0
   58.1654   35.6712   44.6523 H   0  0  0  0  0  0  0  0  0  0  0  0
   60.2195   35.6542   46.0664 H   0  0  0  0  0  0  0  0  0  0  0  0
   60.9430   33.5509   47.1914 H   0  0  0  0  0  0  0  0  0  0  0  0
   60.9544   30.5320   45.5234 H   0  0  0  0  0  0  0  0  0  0  0  0
   61.7783   30.7988   47.1053 H   0  0  0  0  0  0  0  0  0  0  0  0
   61.3158   28.3323   46.2458 H   0  0  0  0  0  0  0  0  0  0  0  0
   61.0570   28.7702   47.9872 H   0  0  0  0  0  0  0  0  0  0  0  0
   58.6117   29.6012   45.2146 H   0  0  0  0  0  0  0  0  0  0  0  0
   59.4373   28.0238   44.8258 H   0  0  0  0  0  0  0  0  0  0  0  0
   56.5783   28.5940   45.4670 H   0  0  0  0  0  0  0  0  0  0  0  0
   57.3408   27.3365   44.3991 H   0  0  0  0  0  0  0  0  0  0  0  0
   58.1297   26.5963   46.9761 H   0  0  0  0  0  0  0  0  0  0  0  0
   56.4225   27.1338   47.1811 H   0  0  0  0  0  0  0  0  0  0  0  0
   52.8786   24.7090   44.3053 H   0  0  0  0  0  0  0  0  0  0  0  0
   57.4241   29.2517   47.4399 H   0  0  0  0  0  0  0  0  0  0  0  0
   58.4859   28.6070   48.7850 H   0  0  0  0  0  0  0  0  0  0  0  0
   58.0410   31.2582   48.3653 H   0  0  0  0  0  0  0  0  0  0  0  0
   59.5436   30.5751   49.0968 H   0  0  0  0  0  0  0  0  0  0  0  0
  1  2  1  0
  2  3  1  0
  3  4  2  0
  4  5  1  0
  5  6  2  0
  6  7  1  0
  7  8  2  0
  8  9  1  0
  9 10  1  0
 10 11  1  0
 11 12  1  0
 12 13  1  0
 13 14  1  0
 14 15  1  0
 15 16  1  0
 16 17  1  0
 17 18  1  0
 17 19  2  0
 19 20  1  0
 20 21  2  0
 19 22  1  0
 22 23  2  0
 22 24  1  0
 24 25  1  0
 25 26  2  0
 12 27  1  0
 27 28  1  0
  8  3  1  0
 28  9  1  0
 25 16  1  0
  1 29  1  0
  1 30  1  0
  1 31  1  0
  4 32  1  0
  5 33  1  0
  6 34  1  0
  7 35  1  0
 10 36  1  0
 10 37  1  0
 11 38  1  0
 11 39  1  0
 13 40  1  0
 13 41  1  0
 14 42  1  0
 14 43  1  0
 15 44  1  0
 15 45  1  0
 20 46  1  0
 27 47  1  0
 27 48  1  0
 28 49  1  0
 28 50  1  0
M  CHG  2  18  -1  24  -1
M  END
>  <UniqueID>  (76) 
73

>  <SMILES>  (76) 
COc1ccccc1N1CCN(CCCn2c([O-])c(C=O)c(=O)[n-]c2=O)CC1

>  <Energy>  (76) 
68.00086657927166

>  <Genealogy>  (76) 
COc1ccccc1N1CCN(CCCn2c([O-])c(C=O)c(=O)[n-]c2=O)CC1 (protonated)
COc1ccccc1N1CCN(CCCn2c([O-])c(C=O)c(=O)[n-]c2=O)CC1 (3D coordinates assigned)
COc1ccccc1N1CCN(CCCn2c([O-])c(C=O)c(=O)[n-]c2=O)CC1 (nonaromatic ring conformer: 68.00086657927166 kcal/mol)

>  <smiles>  (76) 
COc1ccccc1N1CCN(CCCn2c(O)c(C=O)c(=O)[nH]c2=O)CC1

>  <score_type>  (76) 
oracle

>  <origin>  (76) 
adg

>  <m_score__min__energy>  (76) 
-13.24

>  <m_primary>  (76) 
energy

$$$$
76:0
     RDKit          3D

 56 59  0  0  0  0  0  0  0  0999 V2000
   57.7930   26.5750   44.5310 C   0  0  0  0  0  0  0  0  0  0  0  0
   56.9420   26.8700   45.7690 C   0  0  0  0  0  0  0  0  0  0  0  0
   55.9300   25.7430   46.0100 C   0  0  0  0  0  0  0  0  0  0  0  0
   56.2750   28.1240   45.5820 O   0  0  0  0  0  0  0  0  0  0  0  0
   56.8280   29.1990   44.8750 C   0  0  0  0  0  0  0  0  0  0  0  0
   56.1540   29.6490   43.7320 C   0  0  0  0  0  0  0  0  0  0  0  0
   56.6430   30.7320   43.0010 C   0  0  0  0  0  0  0  0  0  0  0  0
   57.8190   31.3700   43.3980 C   0  0  0  0  0  0  0  0  0  0  0  0
   58.5160   30.9160   44.5210 C   0  0  0  0  0  0  0  0  0  0  0  0
   58.0440   29.8200   45.2640 C   0  0  0  0  0  0  0  0  0  0  0  0
   58.8420   29.3580   46.4620 C   0  0  0  0  0  0  0  0  0  0  0  0
   58.3860   30.0040   47.6880 N   0  0  0  0  0  0  0  0  0  0  0  0
   59.0410   29.8500   48.9530 C   0  0  0  0  0  0  0  0  0  0  0  0
   58.4500   29.2690   49.9040 O   0  0  0  0  0  0  0  0  0  0  0  0
   60.4090   30.3580   49.1540 C   0  0  0  0  0  0  0  0  0  0  0  0
   61.1070   30.1310   50.3450 C   0  0  0  0  0  0  0  0  0  0  0  0
   62.3980   30.6300   50.4830 C   0  0  0  0  0  0  0  0  0  0  0  0
   62.9720   31.3470   49.4320 C   0  0  0  0  0  0  0  0  0  0  0  0
   64.1410   31.8030   49.5610 O   0  0  0  0  0  0  0  0  0  0  0  0
   62.2580   31.5450   48.2760 N   0  0  0  0  0  0  0  0  0  0  0  0
   62.8020   32.3230   47.1590 C   0  0  0  0  0  0  0  0  0  0  0  0
   62.4730   33.8150   47.3310 C   0  0  2  0  0  0  0  0  0  0  0  0
   61.7580   34.0740   48.6710 C   0  0  0  0  0  0  0  0  0  0  0  0
   60.4070   33.6070   48.6200 O   0  0  0  0  0  0  0  0  0  0  0  0
   59.6340   33.7650   47.4680 C   0  0  0  0  0  0  0  0  0  0  0  0
   58.2500   33.5660   47.5020 C   0  0  0  0  0  0  0  0  0  0  0  0
   57.4900   33.7580   46.3430 C   0  0  0  0  0  0  0  0  0  0  0  0
   58.1150   34.1420   45.1510 C   0  0  0  0  0  0  0  0  0  0  0  0
   59.5020   34.3280   45.1130 C   0  0  0  0  0  0  0  0  0  0  0  0
   60.2620   34.1240   46.2680 C   0  0  0  0  0  0  0  0  0  0  0  0
   61.6540   34.2670   46.2460 O   0  0  0  0  0  0  0  0  0  0  0  0
   61.0150   31.0650   48.1610 N   0  0  0  0  0  0  0  0  0  0  0  0
   58.7892   26.2297   44.8446 H   0  0  0  0  0  0  0  0  0  0  0  0
   57.3065   25.7931   43.9294 H   0  0  0  0  0  0  0  0  0  0  0  0
   57.8948   27.4903   43.9294 H   0  0  0  0  0  0  0  0  0  0  0  0
   57.5886   26.9292   46.6569 H   0  0  0  0  0  0  0  0  0  0  0  0
   55.7969   25.5948   47.0918 H   0  0  0  0  0  0  0  0  0  0  0  0
   54.9654   26.0130   45.5555 H   0  0  0  0  0  0  0  0  0  0  0  0
   56.3019   24.8129   45.5555 H   0  0  0  0  0  0  0  0  0  0  0  0
   55.2318   29.1443   43.4084 H   0  0  0  0  0  0  0  0  0  0  0  0
   56.1010   31.0834   42.1107 H   0  0  0  0  0  0  0  0  0  0  0  0
   58.1974   32.2305   42.8268 H   0  0  0  0  0  0  0  0  0  0  0  0
   59.4438   31.4217   44.8268 H   0  0  0  0  0  0  0  0  0  0  0  0
   58.7294   28.2690   46.5684 H   0  0  0  0  0  0  0  0  0  0  0  0
   59.8960   29.6281   46.3003 H   0  0  0  0  0  0  0  0  0  0  0  0
   60.6398   29.5639   51.1636 H   0  0  0  0  0  0  0  0  0  0  0  0
   62.9617   30.4610   51.4124 H   0  0  0  0  0  0  0  0  0  0  0  0
   63.8940   32.1946   47.1263 H   0  0  0  0  0  0  0  0  0  0  0  0
   62.3498   31.9647   46.2225 H   0  0  0  0  0  0  0  0  0  0  0  0
   63.4194   34.3756   47.3305 H   0  0  0  0  0  0  0  0  0  0  0  0
   62.2929   33.5458   49.4740 H   0  0  0  0  0  0  0  0  0  0  0  0
   61.7516   35.1566   48.8657 H   0  0  0  0  0  0  0  0  0  0  0  0
   57.7601   33.2592   48.4379 H   0  0  0  0  0  0  0  0  0  0  0  0
   56.4007   33.6071   46.3687 H   0  0  0  0  0  0  0  0  0  0  0  0
   57.5152   34.2980   44.2422 H   0  0  0  0  0  0  0  0  0  0  0  0
   59.9922   34.6338   44.1769 H   0  0  0  0  0  0  0  0  0  0  0  0
  1  2  1  0
  2  3  1  0
  2  4  1  0
  4  5  1  0
  5  6  2  0
  6  7  1  0
  7  8  2  0
  8  9  1  0
  9 10  2  0
 10 11  1  0
 11 12  1  0
 12 13  1  0
 13 14  2  0
 13 15  1  0
 15 16  1  0
 16 17  2  0
 17 18  1  0
 18 19  2  0
 18 20  1  0
 20 21  1  0
 21 22  1  0
 22 23  1  0
 23 24  1  0
 24 25  1  0
 25 26  2  0
 26 27  1  0
 27 28  2  0
 28 29  1  0
 29 30  2  0
 30 31  1  0
 20 32  1  0
 10  5  1  0
 32 15  2  0
 31 22  1  0
 30 25  1  0
  1 33  1  0
  1 34  1  0
  1 35  1  0
  2 36  1  0
  3 37  1  0
  3 38  1  0
  3 39  1  0
  6 40  1  0
  7 41  1  0
  8 42  1  0
  9 43  1  0
 11 44  1  0
 11 45  1  0
 16 46  1  0
 17 47  1  0
 21 48  1  0
 21 49  1  0
 22 50  1  1
 23 51  1  0
 23 52  1  0
 26 53  1  0
 27 54  1  0
 28 55  1  0
 29 56  1  0
M  CHG  1  12  -1
M  END
>  <UniqueID>  (77) 
74

>  <SMILES>  (77) 
CC(C)Oc1ccccc1C[N-]C(=O)c1ccc(=O)n(C[C@@H]2COc3ccccc3O2)n1

>  <Energy>  (77) 
60.539752268820834

>  <Genealogy>  (77) 
CC(C)Oc1ccccc1C[N-]C(=O)c1ccc(=O)n(CC2COc3ccccc3O2)n1 (protonated)
CC(C)Oc1ccccc1C[N-]C(=O)c1ccc(=O)n(C[C@@H]2COc3ccccc3O2)n1 (chirality)
CC(C)Oc1ccccc1C[N-]C(=O)c1ccc(=O)n(C[C@@H]2COc3ccccc3O2)n1 (3D coordinates assigned)
CC(C)Oc1ccccc1C[N-]C(=O)c1ccc(=O)n(C[C@@H]2COc3ccccc3O2)n1 (nonaromatic ring conformer: 60.539752268820834 kcal/mol)

>  <smiles>  (77) 
CC(C)Oc1ccccc1CNC(=O)c1ccc(=O)n(CC2COc3ccccc3O2)n1

>  <score_type>  (77) 
oracle

>  <origin>  (77) 
adg

>  <m_score__min__energy>  (77) 
-10.359999999999999

>  <m_primary>  (77) 
energy

$$$$
77:0
     RDKit          3D

 32 34  0  0  0  0  0  0  0  0999 V2000
   59.2170   35.4970   46.9200 H   0  0  0  0  0  0  0  0  0  0  0  0
   58.9070   34.9400   46.1320 O   0  0  0  0  0  0  0  0  0  0  0  0
   58.8650   33.5500   46.1970 C   0  0  0  0  0  0  0  0  0  0  0  0
   59.7600   32.8690   47.0530 C   0  0  0  0  0  0  0  0  0  0  0  0
   60.4773   33.4434   47.6576 H   0  0  0  0  0  0  0  0  0  0  0  0
   59.7440   31.4610   47.1410 C   0  0  0  0  0  0  0  0  0  0  0  0
   60.6920   30.7300   48.0460 C   0  0  0  0  0  0  0  0  0  0  0  0
   60.4283   30.9333   49.0944 H   0  0  0  0  0  0  0  0  0  0  0  0
   60.6228   29.6492   47.8535 H   0  0  0  0  0  0  0  0  0  0  0  0
   61.7197   31.0717   47.8535 H   0  0  0  0  0  0  0  0  0  0  0  0
   58.8110   30.7730   46.3540 C   0  0  0  0  0  0  0  0  0  0  0  0
   57.9420   31.4330   45.5210 C   0  0  0  0  0  0  0  0  0  0  0  0
   57.9410   32.8260   45.4180 C   0  0  0  0  0  0  0  0  0  0  0  0
   57.2387   33.3431   44.7476 H   0  0  0  0  0  0  0  0  0  0  0  0
   57.1720   30.4690   44.8880 C   0  0  0  0  0  0  0  0  0  0  0  0
   56.2000   30.6920   43.9960 C   0  0  0  0  0  0  0  0  0  0  0  0
   55.9551   31.7213   43.6952 H   0  0  0  0  0  0  0  0  0  0  0  0
   55.6458   29.8460   43.5635 H   0  0  0  0  0  0  0  0  0  0  0  0
   57.6240   29.2370   45.3910 C   0  0  0  0  0  0  0  0  0  0  0  0
   57.1730   28.0200   45.0330 C   0  0  0  0  0  0  0  0  0  0  0  0
   56.7559   27.8951   44.0228 H   0  0  0  0  0  0  0  0  0  0  0  0
   57.2090   26.8420   45.9270 C   0  0  0  0  0  0  0  0  0  0  0  0
   56.0300   26.2220   46.3770 C   0  0  0  0  0  0  0  0  0  0  0  0
   54.7830   26.7040   45.9990 O   0  0  0  0  0  0  0  0  0  0  0  0
   56.1040   25.1270   47.1780 N   0  0  0  0  0  0  0  0  0  0  0  0
   57.3020   24.6020   47.5400 C   0  0  0  0  0  0  0  0  0  0  0  0
   57.3450   23.5890   48.2840 O   0  0  0  0  0  0  0  0  0  0  0  0
   58.4540   25.1650   47.0940 N   0  0  0  0  0  0  0  0  0  0  0  0
   58.4350   26.2630   46.2940 C   0  0  0  0  0  0  0  0  0  0  0  0
   59.5240   26.7570   45.8960 O   0  0  0  0  0  0  0  0  0  0  0  0
   58.6290   29.4400   46.2820 N   0  0  0  0  0  0  0  0  0  0  0  0
   59.1840   28.7160   46.7900 H   0  0  0  0  0  0  0  0  0  0  0  0
  1  2  1  0
  2  3  1  0
  3  4  2  0
  4  5  1  0
  4  6  1  0
  6  7  1  0
  7  8  1  0
  7  9  1  0
  7 10  1  0
  6 11  2  0
 11 12  1  0
 12 13  2  0
 13 14  1  0
 12 15  1  0
 15 16  2  0
 16 17  1  0
 16 18  1  0
 15 19  1  0
 19 20  2  0
 20 21  1  0
 20 22  1  0
 22 23  2  0
 23 24  1  0
 23 25  1  0
 25 26  1  0
 26 27  2  0
 26 28  1  0
 28 29  1  0
 29 30  2  0
 19 31  1  0
 31 32  1  0
 13  3  1  0
 29 22  1  0
 31 11  1  0
M  CHG  3  24  -1  25  -1  28  -1
M  END
>  <UniqueID>  (78) 
75

>  <SMILES>  (78) 
C=c1/c(=C/c2c([O-])[n-]c(=O)[n-]c2=O)[nH]c2c(C)cc(O)cc12

>  <Energy>  (78) 
78.97723429546308

>  <Genealogy>  (78) 
C=c1c(=Cc2c([O-])[n-]c(=O)[n-]c2=O)[nH]c2c(C)cc(O)cc12 (protonated)
C=c1/c(=C/c2c([O-])[n-]c(=O)[n-]c2=O)[nH]c2c(C)cc(O)cc12 (cis-trans isomerization)
C=c1/c(=C/c2c([O-])[n-]c(=O)[n-]c2=O)[nH]c2c(C)cc(O)cc12 (3D coordinates assigned)
C=c1/c(=C/c2c([O-])[n-]c(=O)[n-]c2=O)[nH]c2c(C)cc(O)cc12 (optimized conformer: 78.97723429546308 kcal/mol)

>  <smiles>  (78) 
C=c1c(=Cc2c(O)[nH]c(=O)[nH]c2=O)[nH]c2c(C)cc(O)cc12

>  <score_type>  (78) 
oracle

>  <origin>  (78) 
adg

>  <m_score__min__energy>  (78) 
-14.35

>  <m_primary>  (78) 
energy

$$$$
78:0
     RDKit          3D

 57 60  0  0  0  0  0  0  0  0999 V2000
   56.9490   31.0350   42.4300 C   0  0  0  0  0  0  0  0  0  0  0  0
   57.2480   30.5240   43.6270 C   0  0  0  0  0  0  0  0  0  0  0  0
   56.8000   28.9690   44.0900 S   0  0  0  0  0  0  0  0  0  0  0  0
   57.5150   29.0800   45.6120 C   0  0  0  0  0  0  0  0  0  0  0  0
   57.5160   28.1330   46.5610 C   0  0  0  0  0  0  0  0  0  0  0  0
   57.4810   26.6890   46.2440 C   0  0  0  0  0  0  0  0  0  0  0  0
   56.2620   26.0170   45.9920 C   0  0  0  0  0  0  0  0  0  0  0  0
   55.0420   26.7040   45.9810 O   0  0  0  0  0  0  0  0  0  0  0  0
   56.2760   24.6350   45.7290 C   0  0  0  0  0  0  0  0  0  0  0  0
   55.0900   23.9160   45.4890 C   0  0  0  0  0  0  0  0  0  0  0  0
   55.1430   22.5420   45.2310 C   0  0  0  0  0  0  0  0  0  0  0  0
   56.3690   21.8760   45.2090 C   0  0  0  0  0  0  0  0  0  0  0  0
   57.5540   22.5800   45.4400 C   0  0  0  0  0  0  0  0  0  0  0  0
   57.5150   23.9550   45.6980 C   0  0  0  0  0  0  0  0  0  0  0  0
   58.6700   24.6360   45.9130 N   0  0  0  0  0  0  0  0  0  0  0  0
   58.6850   25.9670   46.1750 C   0  0  0  0  0  0  0  0  0  0  0  0
   59.7890   26.5440   46.3680 O   0  0  0  0  0  0  0  0  0  0  0  0
   58.0880   30.3470   45.7200 C   0  0  0  0  0  0  0  0  0  0  0  0
   58.6990   30.7300   46.7560 O   0  0  0  0  0  0  0  0  0  0  0  0
   57.9430   31.1530   44.6220 N   0  0  0  0  0  0  0  0  0  0  0  0
   58.5130   32.5120   44.5600 C   0  0  0  0  0  0  0  0  0  0  0  0
   57.5630   33.5500   45.1730 C   0  0  0  0  0  0  0  0  0  0  0  0
   57.6690   33.5960   46.6740 C   0  0  0  0  0  0  0  0  0  0  0  0
   56.6210   33.5160   47.3670 O   0  0  0  0  0  0  0  0  0  0  0  0
   58.9460   33.6780   47.3290 N   0  0  0  0  0  0  0  0  0  0  0  0
   59.8970   34.7450   47.0000 C   0  0  0  0  0  0  0  0  0  0  0  0
   61.3390   34.1980   46.9610 C   0  0  0  0  0  0  0  0  0  0  0  0
   61.5200   32.9570   47.7590 N   0  0  0  0  0  0  0  0  0  0  0  0
   62.9350   32.7600   48.1410 C   0  0  0  0  0  0  0  0  0  0  0  0
   63.8790   33.1640   47.0090 C   0  0  0  0  0  0  0  0  0  0  0  0
   60.6570   32.9550   48.9560 C   0  0  0  0  0  0  0  0  0  0  0  0
   59.1930   32.8550   48.5200 C   0  0  0  0  0  0  0  0  0  0  0  0
   57.2642   32.0573   42.1741 H   0  0  0  0  0  0  0  0  0  0  0  0
   56.3875   30.4336   41.6999 H   0  0  0  0  0  0  0  0  0  0  0  0
   57.5439   28.4421   47.6163 H   0  0  0  0  0  0  0  0  0  0  0  0
   54.4060   26.7140   46.7690 H   0  0  0  0  0  0  0  0  0  0  0  0
   54.1203   24.4351   45.5043 H   0  0  0  0  0  0  0  0  0  0  0  0
   54.2136   21.9839   45.0446 H   0  0  0  0  0  0  0  0  0  0  0  0
   56.4028   20.7948   45.0095 H   0  0  0  0  0  0  0  0  0  0  0  0
   58.5190   22.0525   45.4190 H   0  0  0  0  0  0  0  0  0  0  0  0
   59.4633   32.5264   45.1138 H   0  0  0  0  0  0  0  0  0  0  0  0
   58.6713   32.7715   43.5028 H   0  0  0  0  0  0  0  0  0  0  0  0
   57.8129   34.5421   44.7690 H   0  0  0  0  0  0  0  0  0  0  0  0
   56.5333   33.2622   44.9142 H   0  0  0  0  0  0  0  0  0  0  0  0
   59.6430   35.1639   46.0151 H   0  0  0  0  0  0  0  0  0  0  0  0
   59.8354   35.5243   47.7739 H   0  0  0  0  0  0  0  0  0  0  0  0
   61.6020   33.9817   45.9150 H   0  0  0  0  0  0  0  0  0  0  0  0
   61.9905   34.9665   47.4024 H   0  0  0  0  0  0  0  0  0  0  0  0
   63.1554   33.3735   49.0271 H   0  0  0  0  0  0  0  0  0  0  0  0
   63.0901   31.6927   48.3572 H   0  0  0  0  0  0  0  0  0  0  0  0
   64.8117   33.5632   47.4342 H   0  0  0  0  0  0  0  0  0  0  0  0
   64.1058   32.2841   46.3890 H   0  0  0  0  0  0  0  0  0  0  0  0
   63.3990   33.9355   46.3890 H   0  0  0  0  0  0  0  0  0  0  0  0
   60.9113   32.0940   49.5916 H   0  0  0  0  0  0  0  0  0  0  0  0
   60.8110   33.8840   49.5245 H   0  0  0  0  0  0  0  0  0  0  0  0
   58.9565   31.8059   48.2888 H   0  0  0  0  0  0  0  0  0  0  0  0
   58.5556   33.2198   49.3389 H   0  0  0  0  0  0  0  0  0  0  0  0
  1  2  2  0
  2  3  1  0
  3  4  1  0
  4  5  2  3
  5  6  1  0
  6  7  2  0
  7  8  1  0
  7  9  1  0
  9 10  2  0
 10 11  1  0
 11 12  2  0
 12 13  1  0
 13 14  2  0
 14 15  1  0
 15 16  1  0
 16 17  2  0
  4 18  1  0
 18 19  2  0
 18 20  1  0
 20 21  1  0
 21 22  1  0
 22 23  1  0
 23 24  2  0
 23 25  1  0
 25 26  1  0
 26 27  1  0
 27 28  1  0
 28 29  1  0
 29 30  1  0
 28 31  1  0
 31 32  1  0
 20  2  1  0
 32 25  1  0
 16  6  1  0
 14  9  1  0
  1 33  1  0
  1 34  1  0
  5 35  1  0
  8 36  1  0
 10 37  1  0
 11 38  1  0
 12 39  1  0
 13 40  1  0
 21 41  1  0
 21 42  1  0
 22 43  1  0
 22 44  1  0
 26 45  1  0
 26 46  1  0
 27 47  1  0
 27 48  1  0
 29 49  1  0
 29 50  1  0
 30 51  1  0
 30 52  1  0
 30 53  1  0
 31 54  1  0
 31 55  1  0
 32 56  1  0
 32 57  1  0
M  CHG  1  15  -1
M  END
>  <UniqueID>  (79) 
76

>  <SMILES>  (79) 
C=c1sc(=Cc2c(O)c3ccccc3[n-]c2=O)c(=O)n1CCC(=O)N1CCN(CC)CC1

>  <Energy>  (79) 
110.72287391247328

>  <Genealogy>  (79) 
C=c1sc(=Cc2c(O)c3ccccc3[n-]c2=O)c(=O)n1CCC(=O)N1CCN(CC)CC1 (protonated)
C=c1sc(=Cc2c(O)c3ccccc3[n-]c2=O)c(=O)n1CCC(=O)N1CCN(CC)CC1 (3D coordinates assigned)
C=c1sc(=Cc2c(O)c3ccccc3[n-]c2=O)c(=O)n1CCC(=O)N1CCN(CC)CC1 (nonaromatic ring conformer: 110.72287391247328 kcal/mol)

>  <smiles>  (79) 
C=c1sc(=Cc2c(O)c3ccccc3[nH]c2=O)c(=O)n1CCC(=O)N1CCN(CC)CC1

>  <score_type>  (79) 
oracle

>  <origin>  (79) 
adg

>  <m_score__min__energy>  (79) 
-11.4

>  <m_primary>  (79) 
energy

$$$$
79:0
     RDKit          3D

 62 65  0  0  0  0  0  0  0  0999 V2000
   54.4237   28.2712   55.1339 H   0  0  0  0  0  0  0  0  0  0  0  0
   53.8870   28.9950   54.5030 C   0  0  0  0  0  0  0  0  0  0  0  0
   52.8000   29.1218   54.6142 H   0  0  0  0  0  0  0  0  0  0  0  0
   54.5580   29.7230   53.5980 C   0  0  0  0  0  0  0  0  0  0  0  0
   54.0050   30.6750   52.7340 C   0  0  0  0  0  0  0  0  0  0  0  0
   52.7020   30.9780   52.5770 C   0  0  0  0  0  0  0  0  0  0  0  0
   52.0791   31.0652   53.4794 H   0  0  0  0  0  0  0  0  0  0  0  0
   52.0600   31.2000   51.2670 C   0  0  0  0  0  0  0  0  0  0  0  0
   52.0220   30.2740   50.2920 N   0  0  0  0  0  0  0  0  0  0  0  0
   51.2820   30.8610   49.3270 C   0  0  0  0  0  0  0  0  0  0  0  0
   51.0340   30.3030   48.2260 O   0  0  0  0  0  0  0  0  0  0  0  0
   50.8200   32.0920   49.6360 N   0  0  0  0  0  0  0  0  0  0  0  0
   51.3080   32.2870   50.8740 C   0  0  0  0  0  0  0  0  0  0  0  0
   51.0290   33.4100   51.6410 O   0  0  0  0  0  0  0  0  0  0  0  0
   55.0620   31.2100   52.0160 C   0  0  0  0  0  0  0  0  0  0  0  0
   55.0006   31.9838   51.2366 H   0  0  0  0  0  0  0  0  0  0  0  0
   56.2070   30.5850   52.4670 C   0  0  0  0  0  0  0  0  0  0  0  0
   57.5870   30.8700   51.9330 C   0  0  0  0  0  0  0  0  0  0  0  0
   58.3231   30.3469   52.5611 H   0  0  0  0  0  0  0  0  0  0  0  0
   57.6209   30.5185   50.8912 H   0  0  0  0  0  0  0  0  0  0  0  0
   57.9160   32.3530   51.9300 C   0  0  0  0  0  0  0  0  0  0  0  0
   57.0000   33.1620   52.0220 O   0  0  0  0  0  0  0  0  0  0  0  0
   59.2880   32.8450   51.9190 N   0  0  0  0  0  0  0  0  0  0  0  0
   59.4570   33.2460   52.8740 H   0  0  0  0  0  0  0  0  0  0  0  0
   59.5040   33.9730   50.9710 C   0  0  0  0  0  0  0  0  0  0  0  0
   58.5235   34.3899   50.6974 H   0  0  0  0  0  0  0  0  0  0  0  0
   60.1426   34.7075   51.4836 H   0  0  0  0  0  0  0  0  0  0  0  0
   60.2350   33.5620   49.6810 C   0  0  0  0  0  0  0  0  0  0  0  0
   59.9358   34.2318   48.8613 H   0  0  0  0  0  0  0  0  0  0  0  0
   61.3214   33.6346   49.8376 H   0  0  0  0  0  0  0  0  0  0  0  0
   59.8830   32.1780   49.3350 N   0  0  0  0  0  0  0  0  0  0  0  0
   60.3070   31.8300   47.9660 C   0  0  0  0  0  0  0  0  0  0  0  0
   61.2914   32.2775   47.7644 H   0  0  0  0  0  0  0  0  0  0  0  0
   60.3696   30.7357   47.8738 H   0  0  0  0  0  0  0  0  0  0  0  0
   59.3060   32.3550   46.9690 C   0  0  0  0  0  0  0  0  0  0  0  0
   58.9880   33.7230   46.9280 C   0  0  0  0  0  0  0  0  0  0  0  0
   59.4983   34.4241   47.6048 H   0  0  0  0  0  0  0  0  0  0  0  0
   58.0270   34.1970   46.0320 C   0  0  0  0  0  0  0  0  0  0  0  0
   57.7790   35.2684   46.0087 H   0  0  0  0  0  0  0  0  0  0  0  0
   57.3800   33.3120   45.1650 C   0  0  0  0  0  0  0  0  0  0  0  0
   56.6304   33.6913   44.4549 H   0  0  0  0  0  0  0  0  0  0  0  0
   57.6820   31.9420   45.1960 C   0  0  0  0  0  0  0  0  0  0  0  0
   57.0060   31.0080   44.2350 C   0  0  0  0  0  0  0  0  0  0  0  0
   56.4515   30.2419   44.7969 H   0  0  0  0  0  0  0  0  0  0  0  0
   56.3079   31.5754   43.6019 H   0  0  0  0  0  0  0  0  0  0  0  0
   57.7631   30.5222   43.6019 H   0  0  0  0  0  0  0  0  0  0  0  0
   58.6510   31.4690   46.0960 C   0  0  0  0  0  0  0  0  0  0  0  0
   58.8992   30.3976   46.1179 H   0  0  0  0  0  0  0  0  0  0  0  0
   60.4580   31.2470   50.3230 C   0  0  0  0  0  0  0  0  0  0  0  0
   59.9620   30.2706   50.2195 H   0  0  0  0  0  0  0  0  0  0  0  0
   61.5377   31.1720   50.1262 H   0  0  0  0  0  0  0  0  0  0  0  0
   60.2750   31.7470   51.7780 C   0  0  0  0  0  0  0  0  0  0  0  0
   59.9408   30.9001   52.3953 H   0  0  0  0  0  0  0  0  0  0  0  0
   61.2466   32.1491   52.1009 H   0  0  0  0  0  0  0  0  0  0  0  0
   55.9050   29.6630   53.4100 N   0  0  0  0  0  0  0  0  0  0  0  0
   56.8680   28.8050   54.1160 C   0  0  0  0  0  0  0  0  0  0  0  0
   57.3968   29.4015   54.8739 H   0  0  0  0  0  0  0  0  0  0  0  0
   56.3235   27.9788   54.5966 H   0  0  0  0  0  0  0  0  0  0  0  0
   57.8810   28.2250   53.1380 C   0  0  0  0  0  0  0  0  0  0  0  0
   58.7029   27.7544   53.6975 H   0  0  0  0  0  0  0  0  0  0  0  0
   57.3896   27.4714   52.5050 H   0  0  0  0  0  0  0  0  0  0  0  0
   58.2822   29.0302   52.5050 H   0  0  0  0  0  0  0  0  0  0  0  0
  1  2  1  0
  2  3  1  0
  2  4  2  0
  4  5  1  0
  5  6  2  0
  6  7  1  0
  6  8  1  0
  8  9  1  0
  9 10  1  0
 10 11  2  0
 10 12  1  0
 12 13  1  0
 13 14  1  0
  5 15  1  0
 15 16  1  0
 15 17  2  0
 17 18  1  0
 18 19  1  0
 18 20  1  0
 18 21  1  0
 21 22  2  0
 21 23  1  0
 23 24  1  0
 23 25  1  0
 25 26  1  0
 25 27  1  0
 25 28  1  0
 28 29  1  0
 28 30  1  0
 28 31  1  0
 31 32  1  0
 32 33  1  0
 32 34  1  0
 32 35  1  0
 35 36  2  0
 36 37  1  0
 36 38  1  0
 38 39  1  0
 38 40  2  0
 40 41  1  0
 40 42  1  0
 42 43  1  0
 43 44  1  0
 43 45  1  0
 43 46  1  0
 42 47  2  0
 47 48  1  0
 31 49  1  0
 49 50  1  0
 49 51  1  0
 49 52  1  0
 52 53  1  0
 52 54  1  0
 17 55  1  0
 55 56  1  0
 56 57  1  0
 56 58  1  0
 56 59  1  0
 59 60  1  0
 59 61  1  0
 59 62  1  0
 55  4  1  0
 13  8  2  0
 52 23  1  0
 47 35  1  0
M  CHG  4   9  -1  12  -1  14  -1  23   1
M  END
>  <UniqueID>  (80) 
77

>  <SMILES>  (80) 
C=c1/c(=C/c2[n-]c(=O)[n-]c2[O-])cc(CC(=O)[NH+]2CCN(Cc3cccc(C)c3)CC2)n1CC

>  <Energy>  (80) 
137.63582904596308

>  <Genealogy>  (80) 
C=c1c(=Cc2[n-]c(=O)[n-]c2[O-])cc(CC(=O)[NH+]2CCN(Cc3cccc(C)c3)CC2)n1CC (protonated)
C=c1/c(=C/c2[n-]c(=O)[n-]c2[O-])cc(CC(=O)[NH+]2CCN(Cc3cccc(C)c3)CC2)n1CC (cis-trans isomerization)
C=c1/c(=C/c2[n-]c(=O)[n-]c2[O-])cc(CC(=O)[NH+]2CCN(Cc3cccc(C)c3)CC2)n1CC (3D coordinates assigned)
C=c1/c(=C/c2[n-]c(=O)[n-]c2[O-])cc(CC(=O)[NH+]2CCN(Cc3cccc(C)c3)CC2)n1CC (nonaromatic ring conformer: 137.63582904596308 kcal/mol)

>  <smiles>  (80) 
C=c1c(=Cc2[nH]c(=O)[nH]c2O)cc(CC(=O)N2CCN(Cc3cccc(C)c3)CC2)n1CC

>  <score_type>  (80) 
oracle

>  <origin>  (80) 
adg

>  <m_score__min__energy>  (80) 
-17.140000000000001

>  <m_primary>  (80) 
energy

$$$$
80:0
     RDKit          3D

 60 62  0  0  0  0  0  0  0  0999 V2000
   59.4416   35.0068   46.4312 H   0  0  0  0  0  0  0  0  0  0  0  0
   59.0610   34.3550   45.6310 C   0  0  0  0  0  0  0  0  0  0  0  0
   59.5635   34.3344   44.6527 H   0  0  0  0  0  0  0  0  0  0  0  0
   57.9950   33.5930   45.8460 C   0  0  0  0  0  0  0  0  0  0  0  0
   57.4999   33.6211   46.8279 H   0  0  0  0  0  0  0  0  0  0  0  0
   57.5530   31.7420   42.5500 C   0  0  0  0  0  0  0  0  0  0  0  0
   57.8718   31.9525   41.5185 H   0  0  0  0  0  0  0  0  0  0  0  0
   58.1440   32.5010   43.6660 C   0  0  0  0  0  0  0  0  0  0  0  0
   59.1639   32.9012   43.5674 H   0  0  0  0  0  0  0  0  0  0  0  0
   57.4640   32.7110   44.7930 C   0  0  0  0  0  0  0  0  0  0  0  0
   56.4915   32.2180   44.9387 H   0  0  0  0  0  0  0  0  0  0  0  0
   56.6320   30.7990   42.7800 C   0  0  0  0  0  0  0  0  0  0  0  0
   55.6929   30.8529   42.2098 H   0  0  0  0  0  0  0  0  0  0  0  0
   56.7860   29.6880   43.7470 C   0  0  0  0  0  0  0  0  0  0  0  0
   56.0890   29.7230   44.7980 O   0  0  0  0  0  0  0  0  0  0  0  0
   57.6920   28.5890   43.5360 N   0  0  0  0  0  0  0  0  0  0  0  0
   58.2040   28.4790   42.6340 H   0  0  0  0  0  0  0  0  0  0  0  0
   57.9290   27.5730   44.5610 C   0  0  0  0  0  0  0  0  0  0  0  0
   56.9695   27.1217   44.8538 H   0  0  0  0  0  0  0  0  0  0  0  0
   58.5984   26.8013   44.1531 H   0  0  0  0  0  0  0  0  0  0  0  0
   58.5750   28.1940   45.7690 C   0  0  0  0  0  0  0  0  0  0  0  0
   59.5710   29.1690   45.6080 C   0  0  0  0  0  0  0  0  0  0  0  0
   59.8957   29.4582   44.5976 H   0  0  0  0  0  0  0  0  0  0  0  0
   60.1530   29.7750   46.7260 C   0  0  0  0  0  0  0  0  0  0  0  0
   60.9439   30.5274   46.5908 H   0  0  0  0  0  0  0  0  0  0  0  0
   59.7330   29.4280   48.0200 C   0  0  0  0  0  0  0  0  0  0  0  0
   60.3540   30.0700   49.1970 C   0  0  0  0  0  0  0  0  0  0  0  0
   61.1890   29.4170   49.8800 O   0  0  0  0  0  0  0  0  0  0  0  0
   60.0460   31.4320   49.5590 N   0  0  0  0  0  0  0  0  0  0  0  0
   60.1600   31.8770   50.9500 C   0  0  0  0  0  0  0  0  0  0  0  0
   59.1976   32.2952   51.2799 H   0  0  0  0  0  0  0  0  0  0  0  0
   60.4283   31.0199   51.5852 H   0  0  0  0  0  0  0  0  0  0  0  0
   61.2490   32.9530   51.0630 C   0  0  0  0  0  0  0  0  0  0  0  0
   61.1223   33.4776   52.0215 H   0  0  0  0  0  0  0  0  0  0  0  0
   62.2197   32.4402   50.9940 H   0  0  0  0  0  0  0  0  0  0  0  0
   61.2050   33.9590   49.9650 N   0  0  0  0  0  0  0  0  0  0  0  0
   62.4900   34.2130   49.2590 C   0  0  0  0  0  0  0  0  0  0  0  0
   62.6354   35.2954   49.3901 H   0  0  0  0  0  0  0  0  0  0  0  0
   62.4740   33.8960   47.7520 C   0  0  0  0  0  0  0  0  0  0  0  0
   61.5385   33.3844   47.4816 H   0  0  0  0  0  0  0  0  0  0  0  0
   62.5355   34.8161   47.1523 H   0  0  0  0  0  0  0  0  0  0  0  0
   63.6680   32.9850   47.4860 C   0  0  0  0  0  0  0  0  0  0  0  0
   63.3327   31.9454   47.3561 H   0  0  0  0  0  0  0  0  0  0  0  0
   64.1975   33.2772   46.5672 H   0  0  0  0  0  0  0  0  0  0  0  0
   64.5700   33.0990   48.7040 C   0  0  0  0  0  0  0  0  0  0  0  0
   65.1035   32.1529   48.8780 H   0  0  0  0  0  0  0  0  0  0  0  0
   65.3360   33.8779   48.5751 H   0  0  0  0  0  0  0  0  0  0  0  0
   63.6420   33.4060   49.8630 C   0  0  0  0  0  0  0  0  0  0  0  0
   63.2657   32.4748   50.3118 H   0  0  0  0  0  0  0  0  0  0  0  0
   64.1553   33.9611   50.6620 H   0  0  0  0  0  0  0  0  0  0  0  0
   60.0340   33.8630   49.0640 C   0  0  0  0  0  0  0  0  0  0  0  0
   59.1319   34.1515   49.6235 H   0  0  0  0  0  0  0  0  0  0  0  0
   60.2082   34.5354   48.2110 H   0  0  0  0  0  0  0  0  0  0  0  0
   59.8410   32.4430   48.5130 C   0  0  0  0  0  0  0  0  0  0  0  0
   58.8188   32.3478   48.1181 H   0  0  0  0  0  0  0  0  0  0  0  0
   60.5826   32.2753   47.7180 H   0  0  0  0  0  0  0  0  0  0  0  0
   58.7430   28.4450   48.1800 C   0  0  0  0  0  0  0  0  0  0  0  0
   58.4215   28.1520   49.1903 H   0  0  0  0  0  0  0  0  0  0  0  0
   58.1640   27.8370   47.0630 C   0  0  0  0  0  0  0  0  0  0  0  0
   57.3824   27.0749   47.1983 H   0  0  0  0  0  0  0  0  0  0  0  0
  1  2  1  0
  2  3  1  0
  2  4  2  0
  4  5  1  0
  4  6  1  0
  6  7  1  0
  6  8  2  0
  8  9  1  0
  8 10  1  0
 10 11  1  0
 10 12  2  0
 12 13  1  0
 12 14  1  0
 14 15  2  0
 14 16  1  0
 16 17  1  0
 16 18  1  0
 18 19  1  0
 18 20  1  0
 18 21  1  0
 21 22  2  0
 22 23  1  0
 22 24  1  0
 24 25  1  0
 24 26  2  0
 26 27  1  0
 27 28  2  0
 27 29  1  0
 29 30  1  0
 30 31  1  0
 30 32  1  0
 30 33  1  0
 33 34  1  0
 33 35  1  0
 33 36  1  0
 36 37  1  0
 37 38  1  0
 37 39  1  0
 39 40  1  0
 39 41  1  0
 39 42  1  0
 42 43  1  0
 42 44  1  0
 42 45  1  0
 45 46  1  0
 45 47  1  0
 45 48  1  0
 48 49  1  0
 48 50  1  0
 36 51  1  0
 51 52  1  0
 51 53  1  0
 51 54  1  0
 54 55  1  0
 54 56  1  0
 26 57  1  0
 57 58  1  0
 57 59  2  0
 59 60  1  0
 59 21  1  0
 54 29  1  0
 48 37  1  0
M  END
>  <UniqueID>  (81) 
78

>  <SMILES>  (81) 
C=CC=C/C=C/C(=O)NCc1ccc(C(=O)N2CCN(C3CCCC3)CC2)cc1

>  <Energy>  (81) 
70.99832672722219

>  <Genealogy>  (81) 
C=CC=C/C=C/C(=O)NCc1ccc(C(=O)N2CCN(C3CCCC3)CC2)cc1 (cis-trans isomerization)
C=CC=C/C=C/C(=O)NCc1ccc(C(=O)N2CCN(C3CCCC3)CC2)cc1 (3D coordinates assigned)
C=CC=C/C=C/C(=O)NCc1ccc(C(=O)N2CCN(C3CCCC3)CC2)cc1 (nonaromatic ring conformer: 70.99832672722219 kcal/mol)

>  <smiles>  (81) 
C=CC=CC=CC(=O)NCc1ccc(C(=O)N2CCN(C3CCCC3)CC2)cc1

>  <score_type>  (81) 
oracle

>  <origin>  (81) 
adg

>  <m_score__min__energy>  (81) 
-9.1500000000000004

>  <m_primary>  (81) 
energy

$$$$
81:0
     RDKit          3D

 83 88  0  0  0  0  0  0  0  0999 V2000
   55.2800   26.6740   45.9840 N   0  0  0  0  0  0  0  0  0  0  0  0
   56.8530   25.9610   46.0050 S   0  0  0  0  0  0  0  0  0  0  0  0
   56.9860   25.0750   47.2130 O   0  0  0  0  0  0  0  0  0  0  0  0
   57.0440   25.1260   44.7680 O   0  0  0  0  0  0  0  0  0  0  0  0
   58.0660   27.2350   46.0600 C   0  0  0  0  0  0  0  0  0  0  0  0
   58.8360   27.5280   44.9280 C   0  0  0  0  0  0  0  0  0  0  0  0
   59.7650   28.5710   44.9620 C   0  0  0  0  0  0  0  0  0  0  0  0
   59.9270   29.3330   46.1220 C   0  0  0  0  0  0  0  0  0  0  0  0
   59.1630   29.0510   47.2670 C   0  0  0  0  0  0  0  0  0  0  0  0
   59.3240   29.8330   48.5120 C   0  0  0  0  0  0  0  0  0  0  0  0
   58.5020   29.8320   49.6190 C   0  0  0  0  0  0  0  0  0  0  0  0
   59.0250   30.6700   50.5410 N   0  0  0  0  0  0  0  0  0  0  0  0
   58.4750   30.9900   51.8740 C   0  0  0  0  0  0  0  0  0  0  0  0
   58.1340   29.7210   52.6980 C   0  0  0  0  0  0  0  0  0  0  0  0
   56.6880   29.1870   52.5340 C   0  0  0  0  0  0  0  0  0  0  0  0
   55.6820   30.2230   52.1790 N   0  0  0  0  0  0  0  0  0  0  0  0
   54.3390   29.8870   52.7000 C   0  0  0  0  0  0  0  0  0  0  0  0
   53.3660   31.0510   52.4890 C   0  0  0  0  0  0  0  0  0  0  0  0
   52.6730   30.9250   51.2060 N   0  0  0  0  0  0  0  0  0  0  0  0
   52.8510   29.8320   50.2590 C   0  0  0  0  0  0  0  0  0  0  0  0
   51.7680   30.0440   49.1730 C   0  0  0  0  0  0  0  0  0  0  0  0
   50.9870   31.2070   49.5860 N   0  0  0  0  0  0  0  0  0  0  0  0
   51.5630   31.6840   50.7810 C   0  0  0  0  0  0  0  0  0  0  0  0
   51.1320   32.6960   51.3950 O   0  0  0  0  0  0  0  0  0  0  0  0
   56.0960   31.5720   52.5930 C   0  0  0  0  0  0  0  0  0  0  0  0
   57.3030   31.9900   51.7600 C   0  0  0  0  0  0  0  0  0  0  0  0
   60.1350   31.1880   49.9510 C   0  0  0  0  0  0  0  0  0  0  0  0
   61.0010   32.3070   50.5070 C   0  0  0  0  0  0  0  0  0  0  0  0
   62.2660   32.5200   49.6320 C   0  0  0  0  0  0  0  0  0  0  0  0
   62.1170   33.6540   48.5940 C   0  0  0  0  0  0  0  0  0  0  0  0
   60.7130   33.8290   48.1960 N   0  0  0  0  0  0  0  0  0  0  0  0
   60.3000   33.6300   46.8260 C   0  0  0  0  0  0  0  0  0  0  0  0
   61.0790   33.0540   46.0200 O   0  0  0  0  0  0  0  0  0  0  0  0
   58.9120   34.0120   46.3690 C   0  0  0  0  0  0  0  0  0  0  0  0
   58.3480   33.0400   45.3650 C   0  0  0  0  0  0  0  0  0  0  0  0
   57.7580   31.8400   45.7970 C   0  0  0  0  0  0  0  0  0  0  0  0
   57.2180   30.9470   44.8680 C   0  0  0  0  0  0  0  0  0  0  0  0
   57.2610   31.2440   43.5030 C   0  0  0  0  0  0  0  0  0  0  0  0
   57.8440   32.4360   43.0650 C   0  0  0  0  0  0  0  0  0  0  0  0
   58.3820   33.3340   43.9910 C   0  0  0  0  0  0  0  0  0  0  0  0
   59.7210   34.1190   49.2490 C   0  0  0  0  0  0  0  0  0  0  0  0
   60.1950   33.6180   50.6260 C   0  0  0  0  0  0  0  0  0  0  0  0
   60.3440   30.6830   48.7180 N   0  0  0  0  0  0  0  0  0  0  0  0
   58.2350   27.9940   47.2240 C   0  0  0  0  0  0  0  0  0  0  0  0
   55.1030   27.0550   46.9410 H   0  0  0  0  0  0  0  0  0  0  0  0
   58.7093   26.9357   44.0098 H   0  0  0  0  0  0  0  0  0  0  0  0
   60.3716   28.7933   44.0717 H   0  0  0  0  0  0  0  0  0  0  0  0
   60.6556   30.1569   46.1389 H   0  0  0  0  0  0  0  0  0  0  0  0
   57.5769   29.2478   49.7324 H   0  0  0  0  0  0  0  0  0  0  0  0
   59.2632   31.4939   52.4526 H   0  0  0  0  0  0  0  0  0  0  0  0
   58.8266   28.9227   52.3930 H   0  0  0  0  0  0  0  0  0  0  0  0
   58.2302   30.0122   53.7544 H   0  0  0  0  0  0  0  0  0  0  0  0
   56.6914   28.4257   51.7400 H   0  0  0  0  0  0  0  0  0  0  0  0
   56.3905   28.7866   53.5144 H   0  0  0  0  0  0  0  0  0  0  0  0
   53.9593   28.9996   52.1724 H   0  0  0  0  0  0  0  0  0  0  0  0
   54.4196   29.6864   53.7785 H   0  0  0  0  0  0  0  0  0  0  0  0
   52.6238   31.0520   53.3009 H   0  0  0  0  0  0  0  0  0  0  0  0
   53.9367   31.9913   52.4898 H   0  0  0  0  0  0  0  0  0  0  0  0
   53.8556   29.8701   49.8125 H   0  0  0  0  0  0  0  0  0  0  0  0
   52.7534   28.8505   50.7460 H   0  0  0  0  0  0  0  0  0  0  0  0
   52.2401   30.2306   48.1972 H   0  0  0  0  0  0  0  0  0  0  0  0
   51.1303   29.1538   49.0688 H   0  0  0  0  0  0  0  0  0  0  0  0
   55.2699   32.2795   52.4287 H   0  0  0  0  0  0  0  0  0  0  0  0
   56.3594   31.5720   53.6610 H   0  0  0  0  0  0  0  0  0  0  0  0
   56.9977   32.0570   50.7053 H   0  0  0  0  0  0  0  0  0  0  0  0
   57.6530   32.9603   52.1420 H   0  0  0  0  0  0  0  0  0  0  0  0
   61.3287   32.0109   51.5144 H   0  0  0  0  0  0  0  0  0  0  0  0
   63.1098   32.7636   50.2943 H   0  0  0  0  0  0  0  0  0  0  0  0
   62.4299   31.5885   49.0703 H   0  0  0  0  0  0  0  0  0  0  0  0
   62.4852   34.5930   49.0330 H   0  0  0  0  0  0  0  0  0  0  0  0
   62.7017   33.3879   47.7010 H   0  0  0  0  0  0  0  0  0  0  0  0
   58.2473   34.0401   47.2450 H   0  0  0  0  0  0  0  0  0  0  0  0
   58.9792   34.9956   45.8812 H   0  0  0  0  0  0  0  0  0  0  0  0
   57.7212   31.6029   46.8705 H   0  0  0  0  0  0  0  0  0  0  0  0
   56.7582   30.0086   45.2115 H   0  0  0  0  0  0  0  0  0  0  0  0
   56.8358   30.5392   42.7733 H   0  0  0  0  0  0  0  0  0  0  0  0
   57.8795   32.6678   41.9903 H   0  0  0  0  0  0  0  0  0  0  0  0
   58.8339   34.2746   43.6431 H   0  0  0  0  0  0  0  0  0  0  0  0
   59.5616   35.2062   49.2999 H   0  0  0  0  0  0  0  0  0  0  0  0
   58.7865   33.5970   48.9953 H   0  0  0  0  0  0  0  0  0  0  0  0
   60.8317   34.3880   51.0862 H   0  0  0  0  0  0  0  0  0  0  0  0
   59.3071   33.4211   51.2448 H   0  0  0  0  0  0  0  0  0  0  0  0
   57.6350   27.7613   48.1161 H   0  0  0  0  0  0  0  0  0  0  0  0
  1  2  1  0
  2  3  2  0
  2  4  2  0
  2  5  1  0
  5  6  2  0
  6  7  1  0
  7  8  2  0
  8  9  1  0
  9 10  1  0
 10 11  2  0
 11 12  1  0
 12 13  1  0
 13 14  1  0
 14 15  1  0
 15 16  1  0
 16 17  1  0
 17 18  1  0
 18 19  1  0
 19 20  1  0
 20 21  1  0
 21 22  1  0
 22 23  1  0
 23 24  2  0
 16 25  1  0
 25 26  1  0
 12 27  1  0
 27 28  1  0
 28 29  1  0
 29 30  1  0
 30 31  1  0
 31 32  1  0
 32 33  2  0
 32 34  1  0
 34 35  1  0
 35 36  2  0
 36 37  1  0
 37 38  2  0
 38 39  1  0
 39 40  2  0
 31 41  1  0
 41 42  1  0
 27 43  2  0
  9 44  2  0
 44  5  1  0
 43 10  1  0
 26 13  1  0
 42 28  1  0
 23 19  1  0
 40 35  1  0
  1 45  1  0
  6 46  1  0
  7 47  1  0
  8 48  1  0
 11 49  1  0
 13 50  1  0
 14 51  1  0
 14 52  1  0
 15 53  1  0
 15 54  1  0
 17 55  1  0
 17 56  1  0
 18 57  1  0
 18 58  1  0
 20 59  1  0
 20 60  1  0
 21 61  1  0
 21 62  1  0
 25 63  1  0
 25 64  1  0
 26 65  1  0
 26 66  1  0
 28 67  1  0
 29 68  1  0
 29 69  1  0
 30 70  1  0
 30 71  1  0
 34 72  1  0
 34 73  1  0
 36 74  1  0
 37 75  1  0
 38 76  1  0
 39 77  1  0
 40 78  1  0
 41 79  1  0
 41 80  1  0
 42 81  1  0
 42 82  1  0
 44 83  1  0
M  CHG  2   1  -1  22  -1
M  END
>  <UniqueID>  (82) 
79

>  <SMILES>  (82) 
[NH-]S(=O)(=O)c1cccc(-c2cn(C3CCN(CCN4CC[N-]C4=O)CC3)c(C3CCN(C(=O)Cc4ccccc4)CC3)n2)c1

>  <Energy>  (82) 
139.9332004177386

>  <Genealogy>  (82) 
[NH-]S(=O)(=O)c1cccc(-c2cn(C3CCN(CCN4CC[N-]C4=O)CC3)c(C3CCN(C(=O)Cc4ccccc4)CC3)n2)c1 (protonated)
[NH-]S(=O)(=O)c1cccc(-c2cn(C3CCN(CCN4CC[N-]C4=O)CC3)c(C3CCN(C(=O)Cc4ccccc4)CC3)n2)c1 (3D coordinates assigned)
[NH-]S(=O)(=O)c1cccc(-c2cn(C3CCN(CCN4CC[N-]C4=O)CC3)c(C3CCN(C(=O)Cc4ccccc4)CC3)n2)c1 (nonaromatic ring conformer: 139.9332004177386 kcal/mol)

>  <smiles>  (82) 
NS(=O)(=O)c1cccc(-c2cn(C3CCN(CCN4CCNC4=O)CC3)c(C3CCN(C(=O)Cc4ccccc4)CC3)n2)c1

>  <score_type>  (82) 
oracle

>  <origin>  (82) 
adg

>  <m_score__min__energy>  (82) 
-18.98

>  <m_primary>  (82) 
energy

$$$$
82:0
     RDKit          3D

 45 47  0  0  0  0  0  0  0  0999 V2000
   58.3430   26.1510   47.2980 C   0  0  0  0  0  0  0  0  0  0  0  0
   58.1390   27.4650   46.6910 N   0  0  0  0  0  0  0  0  0  0  0  0
   58.9850   28.5210   46.6330 C   0  0  0  0  0  0  0  0  0  0  0  0
   60.3850   28.5330   47.1660 C   0  0  0  0  0  0  0  0  0  0  0  0
   60.5400   29.6490   48.5510 S   0  0  0  0  0  0  0  0  0  0  0  0
   61.1530   28.9460   49.7280 O   0  0  0  0  0  0  0  0  0  0  0  0
   59.1650   30.1040   48.9430 O   0  0  0  0  0  0  0  0  0  0  0  0
   61.5280   31.0490   48.1360 C   0  0  0  0  0  0  0  0  0  0  0  0
   62.6140   31.4100   48.9480 C   0  0  0  0  0  0  0  0  0  0  0  0
   63.3930   32.5290   48.6240 C   0  0  0  0  0  0  0  0  0  0  0  0
   63.0670   33.3160   47.5200 C   0  0  0  0  0  0  0  0  0  0  0  0
   63.8110   34.4110   47.2300 F   0  0  0  0  0  0  0  0  0  0  0  0
   61.9760   32.9690   46.7210 C   0  0  0  0  0  0  0  0  0  0  0  0
   61.2170   31.8310   47.0150 C   0  0  0  0  0  0  0  0  0  0  0  0
   58.4620   29.5730   45.9610 N   0  0  0  0  0  0  0  0  0  0  0  0
   57.2380   29.1620   45.5780 C   0  0  0  0  0  0  0  0  0  0  0  0
   56.2850   29.9620   44.7770 C   0  0  0  0  0  0  0  0  0  0  0  0
   55.2360   29.4090   44.3540 O   0  0  0  0  0  0  0  0  0  0  0  0
   56.4910   31.3490   44.4730 N   0  0  0  0  0  0  0  0  0  0  0  0
   57.7460   31.9960   44.1070 C   0  0  0  0  0  0  0  0  0  0  0  0
   58.1840   33.0130   45.1330 C   0  0  0  0  0  0  0  0  0  0  0  0
   57.9470   32.8050   46.5130 C   0  0  0  0  0  0  0  0  0  0  0  0
   58.4510   33.7070   47.4530 C   0  0  0  0  0  0  0  0  0  0  0  0
   59.2060   34.8070   47.0360 C   0  0  0  0  0  0  0  0  0  0  0  0
   59.4700   35.0100   45.6690 C   0  0  0  0  0  0  0  0  0  0  0  0
   58.9680   34.1080   44.7260 C   0  0  0  0  0  0  0  0  0  0  0  0
   57.0500   27.8680   46.0110 C   0  0  0  0  0  0  0  0  0  0  0  0
   55.9120   27.0950   45.7850 O   0  0  0  0  0  0  0  0  0  0  0  0
   58.3281   26.2470   48.3937 H   0  0  0  0  0  0  0  0  0  0  0  0
   57.5397   25.4708   46.9785 H   0  0  0  0  0  0  0  0  0  0  0  0
   59.3147   25.7464   46.9785 H   0  0  0  0  0  0  0  0  0  0  0  0
   60.6534   27.5173   47.4921 H   0  0  0  0  0  0  0  0  0  0  0  0
   61.0588   28.8749   46.3665 H   0  0  0  0  0  0  0  0  0  0  0  0
   62.8543   30.8136   49.8405 H   0  0  0  0  0  0  0  0  0  0  0  0
   64.2649   32.7875   49.2429 H   0  0  0  0  0  0  0  0  0  0  0  0
   61.7116   33.5940   45.8553 H   0  0  0  0  0  0  0  0  0  0  0  0
   60.3750   31.5496   46.3655 H   0  0  0  0  0  0  0  0  0  0  0  0
   58.5271   31.2270   44.0146 H   0  0  0  0  0  0  0  0  0  0  0  0
   57.5886   32.5235   43.1546 H   0  0  0  0  0  0  0  0  0  0  0  0
   57.3655   31.9324   46.8454 H   0  0  0  0  0  0  0  0  0  0  0  0
   58.2533   33.5513   48.5238 H   0  0  0  0  0  0  0  0  0  0  0  0
   59.5956   35.5173   47.7801 H   0  0  0  0  0  0  0  0  0  0  0  0
   60.0683   35.8739   45.3438 H   0  0  0  0  0  0  0  0  0  0  0  0
   59.1876   34.2556   43.6583 H   0  0  0  0  0  0  0  0  0  0  0  0
   55.1230   27.4530   45.2660 H   0  0  0  0  0  0  0  0  0  0  0  0
  1  2  1  0
  2  3  1  0
  3  4  1  0
  4  5  1  0
  5  6  2  0
  5  7  2  0
  5  8  1  0
  8  9  2  0
  9 10  1  0
 10 11  2  0
 11 12  1  0
 11 13  1  0
 13 14  2  0
  3 15  2  0
 15 16  1  0
 16 17  1  0
 17 18  2  0
 17 19  1  0
 19 20  1  0
 20 21  1  0
 21 22  2  0
 22 23  1  0
 23 24  2  0
 24 25  1  0
 25 26  2  0
 16 27  2  0
 27 28  1  0
 27  2  1  0
 14  8  1  0
 26 21  1  0
  1 29  1  0
  1 30  1  0
  1 31  1  0
  4 32  1  0
  4 33  1  0
  9 34  1  0
 10 35  1  0
 13 36  1  0
 14 37  1  0
 20 38  1  0
 20 39  1  0
 22 40  1  0
 23 41  1  0
 24 42  1  0
 25 43  1  0
 26 44  1  0
 28 45  1  0
M  CHG  1  19  -1
M  END
>  <UniqueID>  (83) 
80

>  <SMILES>  (83) 
Cn1c(CS(=O)(=O)c2ccc(F)cc2)nc(C(=O)[N-]Cc2ccccc2)c1O

>  <Energy>  (83) 
70.99825972816008

>  <Genealogy>  (83) 
Cn1c(CS(=O)(=O)c2ccc(F)cc2)nc(C(=O)[N-]Cc2ccccc2)c1O (protonated)
Cn1c(CS(=O)(=O)c2ccc(F)cc2)nc(C(=O)[N-]Cc2ccccc2)c1O (3D coordinates assigned)
Cn1c(CS(=O)(=O)c2ccc(F)cc2)nc(C(=O)[N-]Cc2ccccc2)c1O (optimized conformer: 70.99825972816008 kcal/mol)

>  <smiles>  (83) 
Cn1c(CS(=O)(=O)c2ccc(F)cc2)nc(C(=O)NCc2ccccc2)c1O

>  <score_type>  (83) 
oracle

>  <origin>  (83) 
adg

>  <m_score__min__energy>  (83) 
-10.75

>  <m_primary>  (83) 
energy

$$$$
83:0
     RDKit          3D

 46 48  0  0  0  0  0  0  0  0999 V2000
   58.3380   27.4740   43.4370 C   0  0  0  0  0  0  0  0  0  0  0  0
   58.4890   26.9280   44.6540 C   0  0  0  0  0  0  0  0  0  0  0  0
   57.8910   25.7490   45.1210 C   0  0  0  0  0  0  0  0  0  0  0  0
   57.0200   24.9650   44.4490 C   0  0  0  0  0  0  0  0  0  0  0  0
   55.6660   24.5860   44.9100 C   0  0  0  0  0  0  0  0  0  0  0  0
   55.0840   23.3820   44.7560 N   0  0  0  0  0  0  0  0  0  0  0  0
   53.8900   23.5260   45.3690 C   0  0  0  0  0  0  0  0  0  0  0  0
   53.0440   22.5960   45.4330 O   0  0  0  0  0  0  0  0  0  0  0  0
   53.6750   24.7430   45.9110 N   0  0  0  0  0  0  0  0  0  0  0  0
   54.8090   25.3990   45.6150 C   0  0  0  0  0  0  0  0  0  0  0  0
   55.0560   26.7160   45.9840 O   0  0  0  0  0  0  0  0  0  0  0  0
   58.3860   25.5500   46.4060 C   0  0  0  0  0  0  0  0  0  0  0  0
   59.2450   26.5990   46.6690 C   0  0  0  0  0  0  0  0  0  0  0  0
   60.0090   26.7790   47.9440 C   0  0  0  0  0  0  0  0  0  0  0  0
   59.2940   27.4430   45.6170 N   0  0  0  0  0  0  0  0  0  0  0  0
   60.1070   28.6250   45.5290 C   0  0  0  0  0  0  0  0  0  0  0  0
   61.0740   28.6490   44.7190 O   0  0  0  0  0  0  0  0  0  0  0  0
   59.8370   29.7740   46.3570 N   0  0  0  0  0  0  0  0  0  0  0  0
   60.9690   30.5130   46.9240 C   0  0  0  0  0  0  0  0  0  0  0  0
   58.4530   30.2000   46.6290 C   0  0  0  0  0  0  0  0  0  0  0  0
   58.1980   31.6090   46.1200 C   0  0  0  0  0  0  0  0  0  0  0  0
   57.8070   31.8690   44.7770 C   0  0  0  0  0  0  0  0  0  0  0  0
   57.6780   30.7730   43.7530 C   0  0  0  0  0  0  0  0  0  0  0  0
   57.5440   33.1930   44.3800 C   0  0  0  0  0  0  0  0  0  0  0  0
   57.7110   34.2500   45.2720 C   0  0  0  0  0  0  0  0  0  0  0  0
   58.1550   34.0070   46.5680 C   0  0  0  0  0  0  0  0  0  0  0  0
   58.4040   32.7000   46.9920 C   0  0  0  0  0  0  0  0  0  0  0  0
   58.8610   32.5040   48.2550 F   0  0  0  0  0  0  0  0  0  0  0  0
   58.8617   28.4077   43.1843 H   0  0  0  0  0  0  0  0  0  0  0  0
   57.6906   26.9877   42.6925 H   0  0  0  0  0  0  0  0  0  0  0  0
   57.3458   24.5742   43.4738 H   0  0  0  0  0  0  0  0  0  0  0  0
   58.1405   24.7177   47.0820 H   0  0  0  0  0  0  0  0  0  0  0  0
   59.3365   26.6206   48.7999 H   0  0  0  0  0  0  0  0  0  0  0  0
   60.8319   26.0501   47.9844 H   0  0  0  0  0  0  0  0  0  0  0  0
   60.4199   27.7986   47.9844 H   0  0  0  0  0  0  0  0  0  0  0  0
   60.9162   30.4786   48.0222 H   0  0  0  0  0  0  0  0  0  0  0  0
   61.9111   30.0554   46.5876 H   0  0  0  0  0  0  0  0  0  0  0  0
   60.9291   31.5595   46.5876 H   0  0  0  0  0  0  0  0  0  0  0  0
   57.7602   29.5075   46.1285 H   0  0  0  0  0  0  0  0  0  0  0  0
   58.2947   30.1905   47.7175 H   0  0  0  0  0  0  0  0  0  0  0  0
   57.5641   29.8055   44.2638 H   0  0  0  0  0  0  0  0  0  0  0  0
   56.7958   30.9613   43.1235 H   0  0  0  0  0  0  0  0  0  0  0  0
   58.5798   30.7514   43.1235 H   0  0  0  0  0  0  0  0  0  0  0  0
   57.2028   33.3957   43.3541 H   0  0  0  0  0  0  0  0  0  0  0  0
   57.4914   35.2789   44.9510 H   0  0  0  0  0  0  0  0  0  0  0  0
   58.3104   34.8471   47.2609 H   0  0  0  0  0  0  0  0  0  0  0  0
  1  2  2  0
  2  3  1  0
  3  4  2  3
  4  5  1  0
  5  6  1  0
  6  7  1  0
  7  8  2  0
  7  9  1  0
  9 10  1  0
 10 11  1  0
  3 12  1  0
 12 13  2  0
 13 14  1  0
 13 15  1  0
 15 16  1  0
 16 17  2  0
 16 18  1  0
 18 19  1  0
 18 20  1  0
 20 21  1  0
 21 22  2  0
 22 23  1  0
 22 24  1  0
 24 25  2  0
 25 26  1  0
 26 27  2  0
 27 28  1  0
 15  2  1  0
 27 21  1  0
 10  5  2  0
  1 29  1  0
  1 30  1  0
  4 31  1  0
 12 32  1  0
 14 33  1  0
 14 34  1  0
 14 35  1  0
 19 36  1  0
 19 37  1  0
 19 38  1  0
 20 39  1  0
 20 40  1  0
 23 41  1  0
 23 42  1  0
 23 43  1  0
 24 44  1  0
 25 45  1  0
 26 46  1  0
M  CHG  3   6  -1   9  -1  11  -1
M  END
>  <UniqueID>  (84) 
81

>  <SMILES>  (84) 
C=c1c(=Cc2[n-]c(=O)[n-]c2[O-])cc(C)n1C(=O)N(C)Cc1c(C)cccc1F

>  <Energy>  (84) 
113.09391766113603

>  <Genealogy>  (84) 
C=c1c(=Cc2[n-]c(=O)[n-]c2[O-])cc(C)n1C(=O)N(C)Cc1c(C)cccc1F (protonated)
C=c1c(=Cc2[n-]c(=O)[n-]c2[O-])cc(C)n1C(=O)N(C)Cc1c(C)cccc1F (3D coordinates assigned)
C=c1c(=Cc2[n-]c(=O)[n-]c2[O-])cc(C)n1C(=O)N(C)Cc1c(C)cccc1F (optimized conformer: 113.09391766113603 kcal/mol)

>  <smiles>  (84) 
C=c1c(=Cc2[nH]c(=O)[nH]c2O)cc(C)n1C(=O)N(C)Cc1c(C)cccc1F

>  <score_type>  (84) 
oracle

>  <origin>  (84) 
adg

>  <m_score__min__energy>  (84) 
-15.550000000000001

>  <m_primary>  (84) 
energy

$$$$
84:0
     RDKit          3D

 45 47  0  0  0  0  0  0  0  0999 V2000
   59.5540   29.1040   49.2240 O   0  0  0  0  0  0  0  0  0  0  0  0
   59.2640   30.0670   48.4620 C   0  0  0  0  0  0  0  0  0  0  0  0
   59.5400   31.4680   48.9100 C   0  0  0  0  0  0  0  0  0  0  0  0
   60.8970   31.8920   48.4450 C   0  0  0  0  0  0  0  0  0  0  0  0
   61.6400   31.2820   47.4420 C   0  0  0  0  0  0  0  0  0  0  0  0
   62.8420   31.9470   47.1700 C   0  0  0  0  0  0  0  0  0  0  0  0
   63.0410   33.0840   47.9430 C   0  0  0  0  0  0  0  0  0  0  0  0
   61.7190   33.2650   48.9670 S   0  0  0  0  0  0  0  0  0  0  0  0
   58.6690   29.8290   47.1760 N   0  0  0  0  0  0  0  0  0  0  0  0
   58.5620   28.5270   46.5690 C   0  0  0  0  0  0  0  0  0  0  0  0
   59.4420   27.4960   46.9500 C   0  0  0  0  0  0  0  0  0  0  0  0
   59.3560   26.2340   46.3580 C   0  0  0  0  0  0  0  0  0  0  0  0
   58.3920   25.9840   45.3820 C   0  0  0  0  0  0  0  0  0  0  0  0
   57.5250   27.0010   44.9790 C   0  0  0  0  0  0  0  0  0  0  0  0
   57.6220   28.2860   45.5390 C   0  0  0  0  0  0  0  0  0  0  0  0
   56.6860   29.3420   45.0960 C   0  0  0  0  0  0  0  0  0  0  0  0
   55.4850   29.0380   44.8680 O   0  0  0  0  0  0  0  0  0  0  0  0
   57.0940   30.7050   44.9210 N   0  0  0  0  0  0  0  0  0  0  0  0
   57.8540   31.2530   43.7970 C   0  0  0  0  0  0  0  0  0  0  0  0
   57.7230   32.7800   43.7100 C   0  0  0  0  0  0  0  0  0  0  0  0
   58.2470   33.4720   44.9430 C   0  0  0  0  0  0  0  0  0  0  0  0
   57.6590   33.2320   46.1960 C   0  0  0  0  0  0  0  0  0  0  0  0
   58.1430   33.8760   47.3390 C   0  0  0  0  0  0  0  0  0  0  0  0
   59.2240   34.7580   47.2410 C   0  0  0  0  0  0  0  0  0  0  0  0
   59.8250   34.9910   46.0020 C   0  0  0  0  0  0  0  0  0  0  0  0
   59.3440   34.3480   44.8570 C   0  0  0  0  0  0  0  0  0  0  0  0
   58.7817   32.1428   48.4862 H   0  0  0  0  0  0  0  0  0  0  0  0
   59.5032   31.5113   50.0085 H   0  0  0  0  0  0  0  0  0  0  0  0
   61.3176   30.3712   46.9161 H   0  0  0  0  0  0  0  0  0  0  0  0
   63.5622   31.6010   46.4140 H   0  0  0  0  0  0  0  0  0  0  0  0
   63.9138   33.7517   47.8938 H   0  0  0  0  0  0  0  0  0  0  0  0
   58.2330   30.6450   46.6910 H   0  0  0  0  0  0  0  0  0  0  0  0
   60.2037   27.6861   47.7205 H   0  0  0  0  0  0  0  0  0  0  0  0
   60.0496   25.4362   46.6620 H   0  0  0  0  0  0  0  0  0  0  0  0
   58.3147   24.9845   44.9293 H   0  0  0  0  0  0  0  0  0  0  0  0
   56.7594   26.7947   44.2166 H   0  0  0  0  0  0  0  0  0  0  0  0
   58.9153   30.9935   43.9247 H   0  0  0  0  0  0  0  0  0  0  0  0
   57.4502   30.8220   42.8690 H   0  0  0  0  0  0  0  0  0  0  0  0
   58.2913   33.1344   42.8374 H   0  0  0  0  0  0  0  0  0  0  0  0
   56.6535   33.0207   43.6187 H   0  0  0  0  0  0  0  0  0  0  0  0
   56.8132   32.5336   46.2785 H   0  0  0  0  0  0  0  0  0  0  0  0
   57.6732   33.6888   48.3159 H   0  0  0  0  0  0  0  0  0  0  0  0
   59.6008   35.2682   48.1397 H   0  0  0  0  0  0  0  0  0  0  0  0
   60.6781   35.6814   45.9266 H   0  0  0  0  0  0  0  0  0  0  0  0
   59.8258   34.5282   43.8847 H   0  0  0  0  0  0  0  0  0  0  0  0
  1  2  2  0
  2  3  1  0
  3  4  1  0
  4  5  2  0
  5  6  1  0
  6  7  2  0
  7  8  1  0
  2  9  1  0
  9 10  1  0
 10 11  2  0
 11 12  1  0
 12 13  2  0
 13 14  1  0
 14 15  2  0
 15 16  1  0
 16 17  2  0
 16 18  1  0
 18 19  1  0
 19 20  1  0
 20 21  1  0
 21 22  2  0
 22 23  1  0
 23 24  2  0
 24 25  1  0
 25 26  2  0
  8  4  1  0
 15 10  1  0
 26 21  1  0
  3 27  1  0
  3 28  1  0
  5 29  1  0
  6 30  1  0
  7 31  1  0
  9 32  1  0
 11 33  1  0
 12 34  1  0
 13 35  1  0
 14 36  1  0
 19 37  1  0
 19 38  1  0
 20 39  1  0
 20 40  1  0
 22 41  1  0
 23 42  1  0
 24 43  1  0
 25 44  1  0
 26 45  1  0
M  CHG  1  18  -1
M  END
>  <UniqueID>  (85) 
82

>  <SMILES>  (85) 
O=C(Cc1cccs1)Nc1ccccc1C(=O)[N-]CCc1ccccc1

>  <Energy>  (85) 
75.2003315189112

>  <Genealogy>  (85) 
O=C(Cc1cccs1)Nc1ccccc1C(=O)[N-]CCc1ccccc1 (protonated)
O=C(Cc1cccs1)Nc1ccccc1C(=O)[N-]CCc1ccccc1 (3D coordinates assigned)
O=C(Cc1cccs1)Nc1ccccc1C(=O)[N-]CCc1ccccc1 (optimized conformer: 75.2003315189112 kcal/mol)

>  <smiles>  (85) 
O=C(Cc1cccs1)Nc1ccccc1C(=O)NCCc1ccccc1

>  <score_type>  (85) 
oracle

>  <origin>  (85) 
adg

>  <m_score__min__energy>  (85) 
-10.43

>  <m_primary>  (85) 
energy

$$$$
85:0
     RDKit          3D

 47 49  0  0  0  0  0  0  0  0999 V2000
   58.8950   30.5390   48.8410 C   0  0  0  0  0  0  0  0  0  0  0  0
   60.0320   30.9670   49.3800 C   0  0  0  0  0  0  0  0  0  0  0  0
   60.2690   31.3240   50.7560 C   0  0  0  0  0  0  0  0  0  0  0  0
   61.5560   31.6530   50.8830 C   0  0  0  0  0  0  0  0  0  0  0  0
   62.1640   31.9880   52.2150 C   0  0  0  0  0  0  0  0  0  0  0  0
   62.3130   31.6460   49.6390 N   0  0  2  0  0  0  0  0  0  0  0  0
   62.7810   33.0270   49.2810 C   0  0  1  0  0  0  0  0  0  0  0  0
   63.9230   32.9840   48.2400 C   0  0  0  0  0  0  0  0  0  0  0  0
   63.4040   32.7200   46.8240 C   0  0  0  0  0  0  0  0  0  0  0  0
   62.4690   33.8420   46.3790 C   0  0  0  0  0  0  0  0  0  0  0  0
   61.4040   34.0800   47.3630 N   0  0  0  0  0  0  0  0  0  0  0  0
   60.1530   34.7070   46.9140 C   0  0  0  0  0  0  0  0  0  0  0  0
   59.2160   33.6640   46.3720 C   0  0  0  0  0  0  0  0  0  0  0  0
   57.8960   34.0090   46.0440 C   0  0  0  0  0  0  0  0  0  0  0  0
   57.0330   33.0530   45.5020 C   0  0  0  0  0  0  0  0  0  0  0  0
   57.4710   31.7440   45.2750 C   0  0  0  0  0  0  0  0  0  0  0  0
   56.5670   30.8240   44.7220 O   0  0  0  0  0  0  0  0  0  0  0  0
   56.6870   30.2650   43.4180 C   0  0  0  0  0  0  0  0  0  0  0  0
   58.7950   31.3960   45.6050 C   0  0  0  0  0  0  0  0  0  0  0  0
   59.6600   32.3510   46.1480 C   0  0  0  0  0  0  0  0  0  0  0  0
   61.6750   33.9400   48.7740 C   0  0  0  0  0  0  0  0  0  0  0  0
   60.9670   34.5600   49.6140 O   0  0  0  0  0  0  0  0  0  0  0  0
   61.3200   31.1120   48.7430 C   0  0  0  0  0  0  0  0  0  0  0  0
   61.5840   30.6930   47.5840 O   0  0  0  0  0  0  0  0  0  0  0  0
   58.8508   30.2995   47.7683 H   0  0  0  0  0  0  0  0  0  0  0  0
   57.9982   30.4243   49.4676 H   0  0  0  0  0  0  0  0  0  0  0  0
   59.5196   31.3251   51.5612 H   0  0  0  0  0  0  0  0  0  0  0  0
   61.5069   31.6260   53.0195 H   0  0  0  0  0  0  0  0  0  0  0  0
   63.1486   31.5051   52.3005 H   0  0  0  0  0  0  0  0  0  0  0  0
   62.2817   33.0783   52.3005 H   0  0  0  0  0  0  0  0  0  0  0  0
   63.0960   30.9570   49.7180 H   0  0  0  0  0  0  0  0  0  0  0  0
   63.1498   33.4540   50.2253 H   0  0  0  0  0  0  0  0  0  0  0  0
   64.4486   33.9502   48.2504 H   0  0  0  0  0  0  0  0  0  0  0  0
   64.5976   32.1589   48.5121 H   0  0  0  0  0  0  0  0  0  0  0  0
   64.2563   32.6628   46.1309 H   0  0  0  0  0  0  0  0  0  0  0  0
   62.8477   31.7710   46.8203 H   0  0  0  0  0  0  0  0  0  0  0  0
   63.0534   34.7656   46.2548 H   0  0  0  0  0  0  0  0  0  0  0  0
   62.0003   33.5434   45.4297 H   0  0  0  0  0  0  0  0  0  0  0  0
   59.6765   35.2172   47.7641 H   0  0  0  0  0  0  0  0  0  0  0  0
   60.3801   35.4335   46.1199 H   0  0  0  0  0  0  0  0  0  0  0  0
   57.5394   35.0356   46.2141 H   0  0  0  0  0  0  0  0  0  0  0  0
   55.9990   33.3325   45.2514 H   0  0  0  0  0  0  0  0  0  0  0  0
   56.9173   29.1924   43.4986 H   0  0  0  0  0  0  0  0  0  0  0  0
   55.7401   30.3969   42.8740 H   0  0  0  0  0  0  0  0  0  0  0  0
   57.4964   30.7739   42.8740 H   0  0  0  0  0  0  0  0  0  0  0  0
   59.1501   30.3689   45.4349 H   0  0  0  0  0  0  0  0  0  0  0  0
   60.6936   32.0722   46.4010 H   0  0  0  0  0  0  0  0  0  0  0  0
  1  2  2  0
  2  3  1  0
  3  4  2  0
  4  5  1  0
  4  6  1  0
  6  7  1  0
  7  8  1  0
  8  9  1  0
  9 10  1  0
 10 11  1  0
 11 12  1  0
 12 13  1  0
 13 14  2  0
 14 15  1  0
 15 16  2  0
 16 17  1  0
 17 18  1  0
 16 19  1  0
 19 20  2  0
 11 21  1  0
 21 22  2  0
  6 23  1  0
 23 24  2  0
 23  2  1  0
 21  7  1  0
 20 13  1  0
  1 25  1  0
  1 26  1  0
  3 27  1  0
  5 28  1  0
  5 29  1  0
  5 30  1  0
  6 31  1  1
  7 32  1  1
  8 33  1  0
  8 34  1  0
  9 35  1  0
  9 36  1  0
 10 37  1  0
 10 38  1  0
 12 39  1  0
 12 40  1  0
 14 41  1  0
 15 42  1  0
 18 43  1  0
 18 44  1  0
 18 45  1  0
 19 46  1  0
 20 47  1  0
M  CHG  1   6   1
M  END
>  <UniqueID>  (86) 
83

>  <SMILES>  (86) 
C=C1C=C(C)[N@H+]([C@H]2CCCN(Cc3ccc(OC)cc3)C2=O)C1=O

>  <Energy>  (86) 
68.3016922244332

>  <Genealogy>  (86) 
C=C1C=C(C)[NH+](C2CCCN(Cc3ccc(OC)cc3)C2=O)C1=O (protonated)
C=C1C=C(C)[N@H+]([C@H]2CCCN(Cc3ccc(OC)cc3)C2=O)C1=O (chirality)
C=C1C=C(C)[N@H+]([C@H]2CCCN(Cc3ccc(OC)cc3)C2=O)C1=O (3D coordinates assigned)
C=C1C=C(C)[N@H+]([C@H]2CCCN(Cc3ccc(OC)cc3)C2=O)C1=O (nonaromatic ring conformer: 68.3016922244332 kcal/mol)

>  <smiles>  (86) 
C=C1C=C(C)N(C2CCCN(Cc3ccc(OC)cc3)C2=O)C1=O

>  <score_type>  (86) 
oracle

>  <origin>  (86) 
adg

>  <m_score__min__energy>  (86) 
-5.9699999999999998

>  <m_primary>  (86) 
energy

$$$$
86:0
     RDKit          3D

 41 43  0  0  0  0  0  0  0  0999 V2000
   56.2860   30.2610   42.5660 O   0  0  0  0  0  0  0  0  0  0  0  0
   57.1910   29.4940   42.9940 C   0  0  0  0  0  0  0  0  0  0  0  0
   57.3970   29.2740   44.4430 C   0  0  0  0  0  0  0  0  0  0  0  0
   58.5880   29.5800   45.0060 C   0  0  0  0  0  0  0  0  0  0  0  0
   58.8910   30.8610   45.6890 C   0  0  0  0  0  0  0  0  0  0  0  0
   57.9680   31.9190   45.6710 C   0  0  0  0  0  0  0  0  0  0  0  0
   56.7380   31.8160   45.0190 O   0  0  0  0  0  0  0  0  0  0  0  0
   58.2630   33.0740   46.3160 N   0  0  0  0  0  0  0  0  0  0  0  0
   59.4320   33.2430   46.9830 C   0  0  0  0  0  0  0  0  0  0  0  0
   59.6500   34.3400   47.5650 O   0  0  0  0  0  0  0  0  0  0  0  0
   60.3620   32.2380   47.0100 N   0  0  0  0  0  0  0  0  0  0  0  0
   61.5980   32.4180   47.7330 C   0  0  0  0  0  0  0  0  0  0  0  0
   62.6000   33.2630   47.2230 C   0  0  0  0  0  0  0  0  0  0  0  0
   63.7930   33.4440   47.9270 C   0  0  0  0  0  0  0  0  0  0  0  0
   63.9970   32.7840   49.1440 C   0  0  0  0  0  0  0  0  0  0  0  0
   65.4950   33.0150   50.0270 Cl  0  0  0  0  0  0  0  0  0  0  0  0
   63.0050   31.9410   49.6560 C   0  0  0  0  0  0  0  0  0  0  0  0
   61.8090   31.7590   48.9550 C   0  0  0  0  0  0  0  0  0  0  0  0
   60.1140   31.0580   46.3580 C   0  0  0  0  0  0  0  0  0  0  0  0
   60.9790   30.1380   46.3610 O   0  0  0  0  0  0  0  0  0  0  0  0
   56.2550   28.7390   45.2270 C   0  0  0  0  0  0  0  0  0  0  0  0
   55.1580   29.3620   45.2230 O   0  0  0  0  0  0  0  0  0  0  0  0
   56.3930   27.5160   45.9630 N   0  0  0  0  0  0  0  0  0  0  0  0
   56.5470   26.1890   45.4400 C   0  0  0  0  0  0  0  0  0  0  0  0
   55.5470   25.2470   45.7160 C   0  0  0  0  0  0  0  0  0  0  0  0
   55.6500   23.9410   45.2300 C   0  0  0  0  0  0  0  0  0  0  0  0
   56.7470   23.5710   44.4450 C   0  0  0  0  0  0  0  0  0  0  0  0
   56.8870   21.7870   43.7780 Br  0  0  0  0  0  0  0  0  0  0  0  0
   57.7350   24.5130   44.1400 C   0  0  0  0  0  0  0  0  0  0  0  0
   57.6350   25.8190   44.6290 C   0  0  0  0  0  0  0  0  0  0  0  0
   57.8421   28.9767   42.2739 H   0  0  0  0  0  0  0  0  0  0  0  0
   59.3875   28.8263   44.9537 H   0  0  0  0  0  0  0  0  0  0  0  0
   56.0690   31.0830   45.2200 H   0  0  0  0  0  0  0  0  0  0  0  0
   62.4438   33.7832   46.2664 H   0  0  0  0  0  0  0  0  0  0  0  0
   64.5733   34.1064   47.5240 H   0  0  0  0  0  0  0  0  0  0  0  0
   63.1661   31.4205   50.6116 H   0  0  0  0  0  0  0  0  0  0  0  0
   61.0304   31.0972   49.3622 H   0  0  0  0  0  0  0  0  0  0  0  0
   54.6746   25.5378   46.3196 H   0  0  0  0  0  0  0  0  0  0  0  0
   54.8682   23.2037   45.4648 H   0  0  0  0  0  0  0  0  0  0  0  0
   58.5926   24.2256   43.5140 H   0  0  0  0  0  0  0  0  0  0  0  0
   58.4093   26.5592   44.3788 H   0  0  0  0  0  0  0  0  0  0  0  0
  1  2  2  0
  2  3  1  0
  3  4  2  3
  4  5  1  0
  5  6  2  0
  6  7  1  0
  6  8  1  0
  8  9  1  0
  9 10  2  0
  9 11  1  0
 11 12  1  0
 12 13  2  0
 13 14  1  0
 14 15  2  0
 15 16  1  0
 15 17  1  0
 17 18  2  0
 11 19  1  0
 19 20  2  0
  3 21  1  0
 21 22  2  0
 21 23  1  0
 23 24  1  0
 24 25  2  0
 25 26  1  0
 26 27  2  0
 27 28  1  0
 27 29  1  0
 29 30  2  0
 19  5  1  0
 30 24  1  0
 18 12  1  0
  2 31  1  0
  4 32  1  0
  7 33  1  0
 13 34  1  0
 14 35  1  0
 17 36  1  0
 18 37  1  0
 25 38  1  0
 26 39  1  0
 29 40  1  0
 30 41  1  0
M  CHG  2   8  -1  23  -1
M  END
>  <UniqueID>  (87) 
84

>  <SMILES>  (87) 
O=CC(=Cc1c(O)[n-]c(=O)n(-c2ccc(Cl)cc2)c1=O)C(=O)[N-]c1ccc(Br)cc1

>  <Energy>  (87) 
68.00684188173283

>  <Genealogy>  (87) 
O=CC(=Cc1c(O)[n-]c(=O)n(-c2ccc(Cl)cc2)c1=O)C(=O)[N-]c1ccc(Br)cc1 (protonated)
O=CC(=Cc1c(O)[n-]c(=O)n(-c2ccc(Cl)cc2)c1=O)C(=O)[N-]c1ccc(Br)cc1 (3D coordinates assigned)
O=CC(=Cc1c(O)[n-]c(=O)n(-c2ccc(Cl)cc2)c1=O)C(=O)[N-]c1ccc(Br)cc1 (optimized conformer: 68.00684188173283 kcal/mol)

>  <smiles>  (87) 
O=CC(=Cc1c(O)[nH]c(=O)n(-c2ccc(Cl)cc2)c1=O)C(=O)Nc1ccc(Br)cc1

>  <score_type>  (87) 
oracle

>  <origin>  (87) 
adg

>  <m_score__min__energy>  (87) 
-11.699999999999999

>  <m_primary>  (87) 
energy

$$$$
87:0
     RDKit          3D

 43 45  0  0  0  0  0  0  0  0999 V2000
   60.5960   25.8210   46.3770 C   0  0  0  0  0  0  0  0  0  0  0  0
   60.0430   27.0300   46.2050 C   0  0  0  0  0  0  0  0  0  0  0  0
   60.8150   27.9610   45.5790 N   0  0  0  0  0  0  0  0  0  0  0  0
   60.3500   29.1740   45.1950 C   0  0  0  0  0  0  0  0  0  0  0  0
   59.0140   29.5110   45.4060 C   0  0  0  0  0  0  0  0  0  0  0  0
   58.4900   30.8160   44.9490 C   0  0  0  0  0  0  0  0  0  0  0  0
   58.4500   31.0580   43.7110 O   0  0  0  0  0  0  0  0  0  0  0  0
   58.0510   31.8200   45.8840 N   0  0  0  0  0  0  0  0  0  0  0  0
   58.7880   32.0400   47.1350 C   0  0  0  0  0  0  0  0  0  0  0  0
   58.6300   33.4950   47.6140 C   0  0  0  0  0  0  0  0  0  0  0  0
   58.6540   34.4510   46.4860 N   0  0  0  0  0  0  0  0  0  0  0  0
   59.9870   34.5250   45.8620 C   0  0  0  0  0  0  0  0  0  0  0  0
   57.5870   34.2080   45.4790 C   0  0  0  0  0  0  0  0  0  0  0  0
   57.0090   32.7810   45.5110 C   0  0  0  0  0  0  0  0  0  0  0  0
   58.1830   28.5850   46.0480 C   0  0  0  0  0  0  0  0  0  0  0  0
   58.6850   27.3580   46.5320 C   0  0  0  0  0  0  0  0  0  0  0  0
   57.8450   26.6200   47.3030 C   0  0  0  0  0  0  0  0  0  0  0  0
   56.7210   25.7790   46.8370 C   0  0  0  0  0  0  0  0  0  0  0  0
   55.6640   26.2960   46.0550 C   0  0  0  0  0  0  0  0  0  0  0  0
   55.6240   27.6330   45.6550 O   0  0  0  0  0  0  0  0  0  0  0  0
   54.6590   25.4740   45.6600 N   0  0  0  0  0  0  0  0  0  0  0  0
   54.6590   24.1530   45.9770 C   0  0  0  0  0  0  0  0  0  0  0  0
   53.7120   23.4170   45.5990 O   0  0  0  0  0  0  0  0  0  0  0  0
   55.6830   23.6270   46.6940 N   0  0  0  0  0  0  0  0  0  0  0  0
   56.7120   24.4030   47.1210 C   0  0  0  0  0  0  0  0  0  0  0  0
   57.6450   23.8780   47.7860 O   0  0  0  0  0  0  0  0  0  0  0  0
   60.0275   25.0220   46.8755 H   0  0  0  0  0  0  0  0  0  0  0  0
   61.6183   25.6279   46.0197 H   0  0  0  0  0  0  0  0  0  0  0  0
   61.0285   29.8949   44.7154 H   0  0  0  0  0  0  0  0  0  0  0  0
   58.3975   31.3615   47.9077 H   0  0  0  0  0  0  0  0  0  0  0  0
   59.8550   31.8418   46.9552 H   0  0  0  0  0  0  0  0  0  0  0  0
   57.6708   33.5932   48.1434 H   0  0  0  0  0  0  0  0  0  0  0  0
   59.4747   33.7295   48.2785 H   0  0  0  0  0  0  0  0  0  0  0  0
   60.7571   34.5678   46.6463 H   0  0  0  0  0  0  0  0  0  0  0  0
   60.1492   33.6345   45.2370 H   0  0  0  0  0  0  0  0  0  0  0  0
   60.0497   35.4280   45.2370 H   0  0  0  0  0  0  0  0  0  0  0  0
   56.7673   34.9175   45.6654 H   0  0  0  0  0  0  0  0  0  0  0  0
   58.0470   34.3430   44.4890 H   0  0  0  0  0  0  0  0  0  0  0  0
   56.1931   32.7361   46.2474 H   0  0  0  0  0  0  0  0  0  0  0  0
   56.6276   32.5262   44.5112 H   0  0  0  0  0  0  0  0  0  0  0  0
   57.1160   28.8188   46.1779 H   0  0  0  0  0  0  0  0  0  0  0  0
   58.0190   26.6510   48.3887 H   0  0  0  0  0  0  0  0  0  0  0  0
   55.1160   27.9500   44.8400 H   0  0  0  0  0  0  0  0  0  0  0  0
  1  2  2  0
  2  3  1  0
  3  4  2  0
  4  5  1  0
  5  6  1  0
  6  7  2  0
  6  8  1  0
  8  9  1  0
  9 10  1  0
 10 11  1  0
 11 12  1  0
 11 13  1  0
 13 14  1  0
  5 15  2  0
 15 16  1  0
 16 17  2  3
 17 18  1  0
 18 19  2  0
 19 20  1  0
 19 21  1  0
 21 22  1  0
 22 23  2  0
 22 24  1  0
 24 25  1  0
 25 26  2  0
 16  2  1  0
 25 18  1  0
 14  8  1  0
  1 27  1  0
  1 28  1  0
  4 29  1  0
  9 30  1  0
  9 31  1  0
 10 32  1  0
 10 33  1  0
 12 34  1  0
 12 35  1  0
 12 36  1  0
 13 37  1  0
 13 38  1  0
 14 39  1  0
 14 40  1  0
 15 41  1  0
 17 42  1  0
 20 43  1  0
M  CHG  2  21  -1  24  -1
M  END
>  <UniqueID>  (88) 
85

>  <SMILES>  (88) 
C=c1ncc(C(=O)N2CCN(C)CC2)cc1=Cc1c(O)[n-]c(=O)[n-]c1=O

>  <Energy>  (88) 
81.85764684452448

>  <Genealogy>  (88) 
C=c1ncc(C(=O)N2CCN(C)CC2)cc1=Cc1c(O)[n-]c(=O)[n-]c1=O (protonated)
C=c1ncc(C(=O)N2CCN(C)CC2)cc1=Cc1c(O)[n-]c(=O)[n-]c1=O (3D coordinates assigned)
C=c1ncc(C(=O)N2CCN(C)CC2)cc1=Cc1c(O)[n-]c(=O)[n-]c1=O (nonaromatic ring conformer: 81.85764684452448 kcal/mol)

>  <smiles>  (88) 
C=c1ncc(C(=O)N2CCN(C)CC2)cc1=Cc1c(O)[nH]c(=O)[nH]c1=O

>  <score_type>  (88) 
oracle

>  <origin>  (88) 
adg

>  <m_score__min__energy>  (88) 
-13.35

>  <m_primary>  (88) 
energy

$$$$
88:0
     RDKit          3D

 54 57  0  0  0  0  0  0  0  0999 V2000
   64.5550   33.4350   50.9210 C   0  0  0  0  0  0  0  0  0  0  0  0
   65.0280   32.6750   49.6880 C   0  0  0  0  0  0  0  0  0  0  0  0
   63.9660   32.7040   48.6160 C   0  0  0  0  0  0  0  0  0  0  0  0
   64.2650   33.1390   47.5080 O   0  0  0  0  0  0  0  0  0  0  0  0
   62.6110   32.2530   48.8820 N   0  0  0  0  0  0  0  0  0  0  0  0
   61.7450   32.4870   47.6850 C   0  0  0  0  0  0  0  0  0  0  0  0
   61.1250   31.2050   47.1030 C   0  0  0  0  0  0  0  0  0  0  0  0
   60.4990   30.4260   48.1850 N   0  0  0  0  0  0  0  0  0  0  0  0
   59.2680   29.6920   48.0080 C   0  0  0  0  0  0  0  0  0  0  0  0
   58.7700   29.0530   48.9740 O   0  0  0  0  0  0  0  0  0  0  0  0
   58.5850   29.6140   46.7110 C   0  0  0  0  0  0  0  0  0  0  0  0
   58.2040   28.3750   46.1790 C   0  0  0  0  0  0  0  0  0  0  0  0
   57.5540   28.3150   44.9450 C   0  0  0  0  0  0  0  0  0  0  0  0
   57.3070   29.4900   44.2270 C   0  0  0  0  0  0  0  0  0  0  0  0
   57.7270   30.7250   44.7360 C   0  0  0  0  0  0  0  0  0  0  0  0
   57.4240   32.2420   43.8310 S   0  0  0  0  0  0  0  0  0  0  0  0
   58.2580   33.2630   45.0470 C   0  0  0  0  0  0  0  0  0  0  0  0
   59.5230   33.8320   44.9160 C   0  0  0  0  0  0  0  0  0  0  0  0
   59.9500   34.4980   46.0250 N   0  0  0  0  0  0  0  0  0  0  0  0
   59.0380   34.4430   47.0250 C   0  0  0  0  0  0  0  0  0  0  0  0
   59.2250   34.9460   48.2080 N   0  0  0  0  0  0  0  0  0  0  0  0
   59.9650   34.3110   49.2560 C   0  0  0  0  0  0  0  0  0  0  0  0
   61.1870   34.5730   49.4270 O   0  0  0  0  0  0  0  0  0  0  0  0
   59.2720   33.4300   50.1970 C   0  0  0  0  0  0  0  0  0  0  0  0
   59.4600   33.3980   51.5690 C   0  0  0  0  0  0  0  0  0  0  0  0
   58.6880   32.4150   52.2060 C   0  0  0  0  0  0  0  0  0  0  0  0
   57.9020   31.6720   51.3310 C   0  0  0  0  0  0  0  0  0  0  0  0
   58.1820   32.2280   49.7680 S   0  0  0  0  0  0  0  0  0  0  0  0
   57.6760   33.5690   46.5920 S   0  0  0  0  0  0  0  0  0  0  0  0
   58.3680   30.7830   45.9770 C   0  0  0  0  0  0  0  0  0  0  0  0
   61.2270   30.2670   49.4490 C   0  0  0  0  0  0  0  0  0  0  0  0
   62.6420   30.8450   49.3490 C   0  0  0  0  0  0  0  0  0  0  0  0
   64.8846   32.9054   51.8270 H   0  0  0  0  0  0  0  0  0  0  0  0
   64.9820   34.4487   50.9131 H   0  0  0  0  0  0  0  0  0  0  0  0
   63.4569   33.4996   50.9131 H   0  0  0  0  0  0  0  0  0  0  0  0
   65.9456   33.1436   49.3027 H   0  0  0  0  0  0  0  0  0  0  0  0
   65.2272   31.6296   49.9664 H   0  0  0  0  0  0  0  0  0  0  0  0
   62.2110   32.8140   49.6790 H   0  0  0  0  0  0  0  0  0  0  0  0
   60.9291   33.1653   47.9753 H   0  0  0  0  0  0  0  0  0  0  0  0
   62.3905   32.9127   46.9026 H   0  0  0  0  0  0  0  0  0  0  0  0
   60.3631   31.4728   46.3561 H   0  0  0  0  0  0  0  0  0  0  0  0
   61.9114   30.6021   46.6255 H   0  0  0  0  0  0  0  0  0  0  0  0
   58.4171   27.4494   46.7338 H   0  0  0  0  0  0  0  0  0  0  0  0
   57.2361   27.3441   44.5373 H   0  0  0  0  0  0  0  0  0  0  0  0
   56.7822   29.4436   43.2614 H   0  0  0  0  0  0  0  0  0  0  0  0
   60.1238   33.7506   43.9982 H   0  0  0  0  0  0  0  0  0  0  0  0
   60.1439   34.0735   52.1038 H   0  0  0  0  0  0  0  0  0  0  0  0
   58.7027   32.2477   53.2931 H   0  0  0  0  0  0  0  0  0  0  0  0
   57.2152   30.8602   51.6128 H   0  0  0  0  0  0  0  0  0  0  0  0
   58.7025   31.7517   46.3768 H   0  0  0  0  0  0  0  0  0  0  0  0
   60.6805   30.7918   50.2464 H   0  0  0  0  0  0  0  0  0  0  0  0
   61.3042   29.1930   49.6741 H   0  0  0  0  0  0  0  0  0  0  0  0
   63.1173   30.8054   50.3402 H   0  0  0  0  0  0  0  0  0  0  0  0
   63.2132   30.2481   48.6228 H   0  0  0  0  0  0  0  0  0  0  0  0
  1  2  1  0
  2  3  1  0
  3  4  2  0
  3  5  1  0
  5  6  1  0
  6  7  1  0
  7  8  1  0
  8  9  1  0
  9 10  2  0
  9 11  1  0
 11 12  2  0
 12 13  1  0
 13 14  2  0
 14 15  1  0
 15 16  1  0
 16 17  1  0
 17 18  2  0
 18 19  1  0
 19 20  1  0
 20 21  2  3
 21 22  1  0
 22 23  2  0
 22 24  1  0
 24 25  2  0
 25 26  1  0
 26 27  2  0
 27 28  1  0
 20 29  1  0
 15 30  2  0
  8 31  1  0
 31 32  1  0
 32  5  1  0
 30 11  1  0
 29 17  1  0
 28 24  1  0
  1 33  1  0
  1 34  1  0
  1 35  1  0
  2 36  1  0
  2 37  1  0
  5 38  1  0
  6 39  1  0
  6 40  1  0
  7 41  1  0
  7 42  1  0
 12 43  1  0
 13 44  1  0
 14 45  1  0
 18 46  1  0
 25 47  1  0
 26 48  1  0
 27 49  1  0
 30 50  1  0
 31 51  1  0
 31 52  1  0
 32 53  1  0
 32 54  1  0
M  CHG  2   5   1  19  -1
M  END
>  <UniqueID>  (89) 
86

>  <SMILES>  (89) 
CCC(=O)[NH+]1CCN(C(=O)c2cccc(Sc3c[n-]c(=NC(=O)c4cccs4)s3)c2)CC1

>  <Energy>  (89) 
132.82969081817075

>  <Genealogy>  (89) 
CCC(=O)[NH+]1CCN(C(=O)c2cccc(Sc3c[n-]c(=NC(=O)c4cccs4)s3)c2)CC1 (protonated)
CCC(=O)[NH+]1CCN(C(=O)c2cccc(Sc3c[n-]c(=NC(=O)c4cccs4)s3)c2)CC1 (3D coordinates assigned)
CCC(=O)[NH+]1CCN(C(=O)c2cccc(Sc3c[n-]c(=NC(=O)c4cccs4)s3)c2)CC1 (nonaromatic ring conformer: 132.82969081817075 kcal/mol)

>  <smiles>  (89) 
CCC(=O)N1CCN(C(=O)c2cccc(Sc3c[nH]c(=NC(=O)c4cccs4)s3)c2)CC1

>  <score_type>  (89) 
oracle

>  <origin>  (89) 
adg

>  <m_score__min__energy>  (89) 
-11.01

>  <m_primary>  (89) 
energy

$$$$
89:0
     RDKit          3D

 38 39  0  0  0  0  0  0  0  0999 V2000
   59.5910   33.5040   49.1380 C   0  0  0  0  0  0  0  0  0  0  0  0
   58.5170   33.0700   48.3080 O   0  0  0  0  0  0  0  0  0  0  0  0
   58.4760   33.2380   46.9160 C   0  0  0  0  0  0  0  0  0  0  0  0
   59.1780   34.3120   46.3550 C   0  0  0  0  0  0  0  0  0  0  0  0
   59.1860   34.5070   44.9720 C   0  0  0  0  0  0  0  0  0  0  0  0
   58.4940   33.6300   44.1350 C   0  0  0  0  0  0  0  0  0  0  0  0
   57.7720   32.5570   44.6780 C   0  0  0  0  0  0  0  0  0  0  0  0
   57.0720   31.5820   43.7710 C   0  0  0  0  0  0  0  0  0  0  0  0
   57.7160   30.2730   43.8520 N   0  0  0  0  0  0  0  0  0  0  0  0
   57.1840   29.2010   44.6420 C   0  0  0  0  0  0  0  0  0  0  0  0
   56.0760   29.3300   45.2300 O   0  0  0  0  0  0  0  0  0  0  0  0
   57.9510   27.9200   44.7980 C   0  0  0  0  0  0  0  0  0  0  0  0
   57.4510   27.0940   45.9920 C   0  0  0  0  0  0  0  0  0  0  0  0
   56.9280   25.7820   45.5640 N   0  0  0  0  0  0  0  0  0  0  0  0
   57.8060   24.8340   45.1140 C   0  0  0  0  0  0  0  0  0  0  0  0
   57.3470   23.5950   44.6700 C   0  0  0  0  0  0  0  0  0  0  0  0
   55.9800   23.3420   44.7030 C   0  0  0  0  0  0  0  0  0  0  0  0
   55.5290   22.2360   44.3080 O   0  0  0  0  0  0  0  0  0  0  0  0
   55.1300   24.2930   45.1630 N   0  0  0  0  0  0  0  0  0  0  0  0
   55.5850   25.5000   45.5910 C   0  0  0  0  0  0  0  0  0  0  0  0
   54.7540   26.3480   46.0130 O   0  0  0  0  0  0  0  0  0  0  0  0
   57.7660   32.3620   46.0700 C   0  0  0  0  0  0  0  0  0  0  0  0
   59.3073   33.3894   50.1946 H   0  0  0  0  0  0  0  0  0  0  0  0
   60.4839   32.8961   48.9301 H   0  0  0  0  0  0  0  0  0  0  0  0
   59.8109   34.5616   48.9301 H   0  0  0  0  0  0  0  0  0  0  0  0
   59.7268   35.0067   47.0079 H   0  0  0  0  0  0  0  0  0  0  0  0
   59.7394   35.3544   44.5410 H   0  0  0  0  0  0  0  0  0  0  0  0
   58.5150   33.7809   43.0456 H   0  0  0  0  0  0  0  0  0  0  0  0
   56.0197   31.4899   44.0780 H   0  0  0  0  0  0  0  0  0  0  0  0
   57.1278   31.9483   42.7353 H   0  0  0  0  0  0  0  0  0  0  0  0
   58.6280   30.1360   43.3600 H   0  0  0  0  0  0  0  0  0  0  0  0
   57.8373   27.3237   43.8807 H   0  0  0  0  0  0  0  0  0  0  0  0
   59.0059   28.1745   44.9779 H   0  0  0  0  0  0  0  0  0  0  0  0
   58.2857   26.9349   46.6906 H   0  0  0  0  0  0  0  0  0  0  0  0
   56.6338   27.6488   46.4761 H   0  0  0  0  0  0  0  0  0  0  0  0
   58.8842   25.0517   45.1025 H   0  0  0  0  0  0  0  0  0  0  0  0
   58.0507   22.8340   44.3016 H   0  0  0  0  0  0  0  0  0  0  0  0
   57.2039   31.5208   46.5018 H   0  0  0  0  0  0  0  0  0  0  0  0
  1  2  1  0
  2  3  1  0
  3  4  2  0
  4  5  1  0
  5  6  2  0
  6  7  1  0
  7  8  1  0
  8  9  1  0
  9 10  1  0
 10 11  2  0
 10 12  1  0
 12 13  1  0
 13 14  1  0
 14 15  1  0
 15 16  2  0
 16 17  1  0
 17 18  2  0
 17 19  1  0
 19 20  1  0
 20 21  2  0
  7 22  2  0
 22  3  1  0
 20 14  1  0
  1 23  1  0
  1 24  1  0
  1 25  1  0
  4 26  1  0
  5 27  1  0
  6 28  1  0
  8 29  1  0
  8 30  1  0
  9 31  1  0
 12 32  1  0
 12 33  1  0
 13 34  1  0
 13 35  1  0
 15 36  1  0
 16 37  1  0
 22 38  1  0
M  CHG  1  19  -1
M  END
>  <UniqueID>  (90) 
87

>  <SMILES>  (90) 
COc1cccc(CNC(=O)CCn2ccc(=O)[n-]c2=O)c1

>  <Energy>  (90) 
31.08231006130915

>  <Genealogy>  (90) 
COc1cccc(CNC(=O)CCn2ccc(=O)[n-]c2=O)c1 (protonated)
COc1cccc(CNC(=O)CCn2ccc(=O)[n-]c2=O)c1 (3D coordinates assigned)
COc1cccc(CNC(=O)CCn2ccc(=O)[n-]c2=O)c1 (optimized conformer: 31.08231006130915 kcal/mol)

>  <smiles>  (90) 
COc1cccc(CNC(=O)CCn2ccc(=O)[nH]c2=O)c1

>  <score_type>  (90) 
oracle

>  <origin>  (90) 
adg

>  <m_score__min__energy>  (90) 
-9.6400000000000006

>  <m_primary>  (90) 
energy

$$$$
90:0
     RDKit          3D

 51 54  0  0  0  0  0  0  0  0999 V2000
   57.6410   28.4230   45.1810 C   0  0  0  0  0  0  0  0  0  0  0  0
   58.1360   29.8010   45.3560 N   0  0  0  0  0  0  0  0  0  0  0  0
   59.3670   30.0210   45.9280 C   0  0  0  0  0  0  0  0  0  0  0  0
   60.3940   28.6660   46.5300 S   0  0  0  0  0  0  0  0  0  0  0  0
   60.6560   29.3590   48.2040 C   0  0  0  0  0  0  0  0  0  0  0  0
   59.3810   29.8410   48.8400 C   0  0  0  0  0  0  0  0  0  0  0  0
   58.5410   28.9950   49.2450 O   0  0  0  0  0  0  0  0  0  0  0  0
   59.0440   31.2330   48.9090 N   0  0  0  0  0  0  0  0  0  0  0  0
   58.8910   32.0030   50.1090 C   0  0  0  0  0  0  0  0  0  0  0  0
   58.1080   31.5160   51.1680 C   0  0  0  0  0  0  0  0  0  0  0  0
   57.9230   32.2820   52.3200 C   0  0  0  0  0  0  0  0  0  0  0  0
   58.5040   33.5470   52.4200 C   0  0  0  0  0  0  0  0  0  0  0  0
   59.2590   34.0560   51.3590 C   0  0  0  0  0  0  0  0  0  0  0  0
   59.4400   33.3000   50.1890 C   0  0  0  0  0  0  0  0  0  0  0  0
   60.2600   33.8450   49.0880 C   0  0  0  0  0  0  0  0  0  0  0  0
   59.8500   34.8650   48.4710 O   0  0  0  0  0  0  0  0  0  0  0  0
   61.5120   33.2400   48.7140 N   0  0  0  0  0  0  0  0  0  0  0  0
   62.2460   33.6330   47.5230 C   0  0  0  0  0  0  0  0  0  0  0  0
   63.6430   33.0460   47.6840 C   0  0  0  0  0  0  0  0  0  0  0  0
   63.5380   32.0070   48.7960 C   0  0  0  0  0  0  0  0  0  0  0  0
   62.2730   32.3490   49.5730 C   0  0  0  0  0  0  0  0  0  0  0  0
   59.8500   31.2830   46.0540 N   0  0  0  0  0  0  0  0  0  0  0  0
   59.1320   32.3600   45.6620 C   0  0  0  0  0  0  0  0  0  0  0  0
   59.6600   33.6480   45.8140 C   0  0  0  0  0  0  0  0  0  0  0  0
   58.9120   34.7620   45.4240 C   0  0  0  0  0  0  0  0  0  0  0  0
   57.6350   34.5940   44.8820 C   0  0  0  0  0  0  0  0  0  0  0  0
   57.1000   33.3110   44.7270 C   0  0  0  0  0  0  0  0  0  0  0  0
   57.8480   32.1820   45.1160 C   0  0  0  0  0  0  0  0  0  0  0  0
   57.3600   30.8710   44.9770 C   0  0  0  0  0  0  0  0  0  0  0  0
   56.2060   30.6850   44.5000 O   0  0  0  0  0  0  0  0  0  0  0  0
   57.4763   27.9645   46.1672 H   0  0  0  0  0  0  0  0  0  0  0  0
   56.6935   28.4419   44.6226 H   0  0  0  0  0  0  0  0  0  0  0  0
   58.3840   27.8346   44.6226 H   0  0  0  0  0  0  0  0  0  0  0  0
   61.0946   28.5785   48.8431 H   0  0  0  0  0  0  0  0  0  0  0  0
   61.3249   30.2264   48.1030 H   0  0  0  0  0  0  0  0  0  0  0  0
   57.6376   30.5248   51.0892 H   0  0  0  0  0  0  0  0  0  0  0  0
   57.3184   31.8881   53.1503 H   0  0  0  0  0  0  0  0  0  0  0  0
   58.3679   34.1438   53.3339 H   0  0  0  0  0  0  0  0  0  0  0  0
   59.7139   35.0542   51.4409 H   0  0  0  0  0  0  0  0  0  0  0  0
   61.7613   33.2270   46.6229 H   0  0  0  0  0  0  0  0  0  0  0  0
   62.2770   34.7266   47.4088 H   0  0  0  0  0  0  0  0  0  0  0  0
   63.9681   32.5709   46.7467 H   0  0  0  0  0  0  0  0  0  0  0  0
   64.3809   33.8243   47.9287 H   0  0  0  0  0  0  0  0  0  0  0  0
   63.4624   30.9962   48.3686 H   0  0  0  0  0  0  0  0  0  0  0  0
   64.4257   32.0212   49.4455 H   0  0  0  0  0  0  0  0  0  0  0  0
   61.6961   31.4372   49.7868 H   0  0  0  0  0  0  0  0  0  0  0  0
   62.5054   32.8185   50.5403 H   0  0  0  0  0  0  0  0  0  0  0  0
   60.6648   33.7830   46.2409 H   0  0  0  0  0  0  0  0  0  0  0  0
   59.3291   35.7728   45.5438 H   0  0  0  0  0  0  0  0  0  0  0  0
   57.0489   35.4732   44.5764 H   0  0  0  0  0  0  0  0  0  0  0  0
   56.0940   33.1832   44.3009 H   0  0  0  0  0  0  0  0  0  0  0  0
  1  2  1  0
  2  3  1  0
  3  4  1  0
  4  5  1  0
  5  6  1  0
  6  7  2  0
  6  8  1  0
  8  9  1  0
  9 10  2  0
 10 11  1  0
 11 12  2  0
 12 13  1  0
 13 14  2  0
 14 15  1  0
 15 16  2  0
 15 17  1  0
 17 18  1  0
 18 19  1  0
 19 20  1  0
 20 21  1  0
  3 22  2  0
 22 23  1  0
 23 24  2  0
 24 25  1  0
 25 26  2  0
 26 27  1  0
 27 28  2  0
 28 29  1  0
 29 30  2  0
 29  2  1  0
 14  9  1  0
 21 17  1  0
 28 23  1  0
  1 31  1  0
  1 32  1  0
  1 33  1  0
  5 34  1  0
  5 35  1  0
 10 36  1  0
 11 37  1  0
 12 38  1  0
 13 39  1  0
 18 40  1  0
 18 41  1  0
 19 42  1  0
 19 43  1  0
 20 44  1  0
 20 45  1  0
 21 46  1  0
 21 47  1  0
 24 48  1  0
 25 49  1  0
 26 50  1  0
 27 51  1  0
M  CHG  1   8  -1
M  END
>  <UniqueID>  (91) 
88

>  <SMILES>  (91) 
Cn1c(SCC(=O)[N-]c2ccccc2C(=O)N2CCCC2)nc2ccccc2c1=O

>  <Energy>  (91) 
69.64134796804917

>  <Genealogy>  (91) 
Cn1c(SCC(=O)[N-]c2ccccc2C(=O)N2CCCC2)nc2ccccc2c1=O (protonated)
Cn1c(SCC(=O)[N-]c2ccccc2C(=O)N2CCCC2)nc2ccccc2c1=O (3D coordinates assigned)
Cn1c(SCC(=O)[N-]c2ccccc2C(=O)N2CCCC2)nc2ccccc2c1=O (nonaromatic ring conformer: 69.64134796804917 kcal/mol)

>  <smiles>  (91) 
Cn1c(SCC(=O)Nc2ccccc2C(=O)N2CCCC2)nc2ccccc2c1=O

>  <score_type>  (91) 
oracle

>  <origin>  (91) 
adg

>  <m_score__min__energy>  (91) 
-11.56

>  <m_primary>  (91) 
energy

$$$$
91:0
     RDKit          3D

 80 85  0  0  0  0  0  0  0  0999 V2000
   60.7900   26.7460   49.6440 O   0  0  0  0  0  0  0  0  0  0  0  0
   60.5590   27.3270   48.5510 C   0  0  0  0  0  0  0  0  0  0  0  0
   60.4480   26.5660   47.3410 N   0  0  0  0  0  0  0  0  0  0  0  0
   60.1440   27.1680   46.0460 C   0  0  0  0  0  0  0  0  0  0  0  0
   58.6510   27.3260   45.8860 C   0  0  0  0  0  0  0  0  0  0  0  0
   57.8110   26.3200   46.3920 C   0  0  0  0  0  0  0  0  0  0  0  0
   56.4250   26.4310   46.2510 C   0  0  0  0  0  0  0  0  0  0  0  0
   55.6700   25.5280   46.7040 O   0  0  0  0  0  0  0  0  0  0  0  0
   55.8870   27.5050   45.6200 N   0  0  0  0  0  0  0  0  0  0  0  0
   56.6590   28.5020   45.1070 C   0  0  0  0  0  0  0  0  0  0  0  0
   56.0510   29.5920   44.4700 C   0  0  0  0  0  0  0  0  0  0  0  0
   56.8310   30.6200   43.9340 C   0  0  0  0  0  0  0  0  0  0  0  0
   58.2220   30.5640   44.0310 C   0  0  0  0  0  0  0  0  0  0  0  0
   58.8440   29.4780   44.6620 C   0  0  0  0  0  0  0  0  0  0  0  0
   58.0710   28.4340   45.2170 C   0  0  0  0  0  0  0  0  0  0  0  0
   60.3640   28.7810   48.5250 C   0  0  0  0  0  0  0  0  0  0  0  0
   61.3320   29.5410   48.7920 O   0  0  0  0  0  0  0  0  0  0  0  0
   59.0840   29.3310   48.1730 N   0  0  0  0  0  0  0  0  0  0  0  0
   58.8160   30.7740   48.1590 C   0  0  2  0  0  0  0  0  0  0  0  0
   59.8100   31.4850   47.2210 C   0  0  0  0  0  0  0  0  0  0  0  0
   59.1450   32.5670   46.4050 C   0  0  0  0  0  0  0  0  0  0  0  0
   57.7430   32.6970   46.4140 C   0  0  0  0  0  0  0  0  0  0  0  0
   57.1330   33.7000   45.6540 C   0  0  0  0  0  0  0  0  0  0  0  0
   57.9100   34.5840   44.8970 C   0  0  0  0  0  0  0  0  0  0  0  0
   59.3030   34.4820   44.9110 C   0  0  0  0  0  0  0  0  0  0  0  0
   59.9190   33.4770   45.6600 C   0  0  0  0  0  0  0  0  0  0  0  0
   58.9020   31.3370   49.5520 C   0  0  0  0  0  0  0  0  0  0  0  0
   59.0480   30.5630   50.5380 O   0  0  0  0  0  0  0  0  0  0  0  0
   58.9290   32.7520   49.7600 N   0  0  0  0  0  0  0  0  0  0  0  0
   59.5960   33.4210   50.8810 C   0  0  2  0  0  0  0  0  0  0  0  0
   61.0210   32.8600   51.1140 C   0  0  0  0  0  0  0  0  0  0  0  0
   61.8530   32.8720   49.8510 C   0  0  0  0  0  0  0  0  0  0  0  0
   62.8590   31.9140   49.6480 C   0  0  0  0  0  0  0  0  0  0  0  0
   63.6120   31.9190   48.4710 C   0  0  0  0  0  0  0  0  0  0  0  0
   63.3760   32.8840   47.4900 C   0  0  0  0  0  0  0  0  0  0  0  0
   62.3890   33.8500   47.6890 C   0  0  0  0  0  0  0  0  0  0  0  0
   61.6360   33.8530   48.8670 C   0  0  0  0  0  0  0  0  0  0  0  0
   58.7380   33.3540   52.1170 C   0  0  0  0  0  0  0  0  0  0  0  0
   59.0130   34.0550   53.1310 O   0  0  0  0  0  0  0  0  0  0  0  0
   57.5380   32.5770   52.0860 N   0  0  0  0  0  0  0  0  0  0  0  0
   57.2960   31.4020   52.9200 C   0  0  0  0  0  0  0  0  0  0  0  0
   55.9400   30.8270   52.6570 C   0  0  0  0  0  0  0  0  0  0  0  0
   55.1860   31.1910   51.5860 N   0  0  0  0  0  0  0  0  0  0  0  0
   54.0530   30.4960   51.7770 C   0  0  0  0  0  0  0  0  0  0  0  0
   52.9140   30.4870   50.9750 C   0  0  0  0  0  0  0  0  0  0  0  0
   51.8400   29.6740   51.3760 C   0  0  0  0  0  0  0  0  0  0  0  0
   51.9300   28.9080   52.5580 C   0  0  0  0  0  0  0  0  0  0  0  0
   53.0960   28.9430   53.3440 C   0  0  0  0  0  0  0  0  0  0  0  0
   54.1460   29.7540   52.9130 C   0  0  0  0  0  0  0  0  0  0  0  0
   55.3380   29.9450   53.4980 N   0  0  0  0  0  0  0  0  0  0  0  0
   60.6235   28.1559   45.9823 H   0  0  0  0  0  0  0  0  0  0  0  0
   60.5251   26.5153   45.2468 H   0  0  0  0  0  0  0  0  0  0  0  0
   58.2441   25.4452   46.8990 H   0  0  0  0  0  0  0  0  0  0  0  0
   54.9548   29.6386   44.3916 H   0  0  0  0  0  0  0  0  0  0  0  0
   56.3485   31.4736   43.4355 H   0  0  0  0  0  0  0  0  0  0  0  0
   58.8332   31.3760   43.6102 H   0  0  0  0  0  0  0  0  0  0  0  0
   59.9415   29.4384   44.7255 H   0  0  0  0  0  0  0  0  0  0  0  0
   58.3210   28.6700   47.8990 H   0  0  0  0  0  0  0  0  0  0  0  0
   57.7963   30.9440   47.7830 H   0  0  0  0  0  0  0  0  0  0  0  0
   60.6082   31.9379   47.8274 H   0  0  0  0  0  0  0  0  0  0  0  0
   60.2146   30.7356   46.5248 H   0  0  0  0  0  0  0  0  0  0  0  0
   57.1293   32.0116   47.0171 H   0  0  0  0  0  0  0  0  0  0  0  0
   56.0371   33.7945   45.6512 H   0  0  0  0  0  0  0  0  0  0  0  0
   57.4227   35.3609   44.2896 H   0  0  0  0  0  0  0  0  0  0  0  0
   59.9135   35.1917   44.3334 H   0  0  0  0  0  0  0  0  0  0  0  0
   61.0160   33.3959   45.6679 H   0  0  0  0  0  0  0  0  0  0  0  0
   59.7250   34.4835   50.6269 H   0  0  0  0  0  0  0  0  0  0  0  0
   61.5237   33.4747   51.8752 H   0  0  0  0  0  0  0  0  0  0  0  0
   60.9230   31.8153   51.4440 H   0  0  0  0  0  0  0  0  0  0  0  0
   63.0555   31.1553   50.4198 H   0  0  0  0  0  0  0  0  0  0  0  0
   64.3933   31.1602   48.3168 H   0  0  0  0  0  0  0  0  0  0  0  0
   63.9669   32.8828   46.5622 H   0  0  0  0  0  0  0  0  0  0  0  0
   62.2029   34.6112   46.9170 H   0  0  0  0  0  0  0  0  0  0  0  0
   60.8700   34.6265   49.0249 H   0  0  0  0  0  0  0  0  0  0  0  0
   58.0585   30.6407   52.6986 H   0  0  0  0  0  0  0  0  0  0  0  0
   57.3489   31.7053   53.9760 H   0  0  0  0  0  0  0  0  0  0  0  0
   52.8572   31.0949   50.0600 H   0  0  0  0  0  0  0  0  0  0  0  0
   50.9254   29.6345   50.7661 H   0  0  0  0  0  0  0  0  0  0  0  0
   51.0821   28.2790   52.8668 H   0  0  0  0  0  0  0  0  0  0  0  0
   53.1771   28.3508   54.2674 H   0  0  0  0  0  0  0  0  0  0  0  0
  1  2  2  0
  2  3  1  0
  3  4  1  0
  4  5  1  0
  5  6  2  0
  6  7  1  0
  7  8  2  0
  7  9  1  0
  9 10  1  0
 10 11  2  0
 11 12  1  0
 12 13  2  0
 13 14  1  0
 14 15  2  0
  2 16  1  0
 16 17  2  0
 16 18  1  0
 18 19  1  0
 19 20  1  0
 20 21  1  0
 21 22  2  0
 22 23  1  0
 23 24  2  0
 24 25  1  0
 25 26  2  0
 19 27  1  0
 27 28  2  0
 27 29  1  0
 29 30  1  0
 30 31  1  0
 31 32  1  0
 32 33  2  0
 33 34  1  0
 34 35  2  0
 35 36  1  0
 36 37  2  0
 30 38  1  0
 38 39  2  0
 38 40  1  0
 40 41  1  0
 41 42  1  0
 42 43  2  0
 43 44  1  0
 44 45  2  0
 45 46  1  0
 46 47  2  0
 47 48  1  0
 48 49  2  0
 49 50  1  0
 15  5  1  0
 26 21  1  0
 37 32  1  0
 50 42  1  0
 15 10  1  0
 49 44  1  0
  4 51  1  0
  4 52  1  0
  6 53  1  0
 11 54  1  0
 12 55  1  0
 13 56  1  0
 14 57  1  0
 18 58  1  0
 19 59  1  6
 20 60  1  0
 20 61  1  0
 22 62  1  0
 23 63  1  0
 24 64  1  0
 25 65  1  0
 26 66  1  0
 30 67  1  6
 31 68  1  0
 31 69  1  0
 33 70  1  0
 34 71  1  0
 35 72  1  0
 36 73  1  0
 37 74  1  0
 41 75  1  0
 41 76  1  0
 45 77  1  0
 46 78  1  0
 47 79  1  0
 48 80  1  0
M  CHG  5   3  -1   9  -1  29  -1  40  -1  50  -1
M  END
>  <UniqueID>  (92) 
89

>  <SMILES>  (92) 
O=C([N-]Cc1cc(=O)[n-]c2ccccc12)C(=O)N[C@H](Cc1ccccc1)C(=O)[N-][C@H](Cc1ccccc1)C(=O)[N-]Cc1nc2ccccc2[n-]1

>  <Energy>  (92) 
117.97031419078878

>  <Genealogy>  (92) 
O=C([N-]Cc1cc(=O)[n-]c2ccccc12)C(=O)NC(Cc1ccccc1)C(=O)[N-]C(Cc1ccccc1)C(=O)[N-]Cc1nc2ccccc2[n-]1 (protonated)
O=C([N-]Cc1cc(=O)[n-]c2ccccc12)C(=O)N[C@H](Cc1ccccc1)C(=O)[N-][C@H](Cc1ccccc1)C(=O)[N-]Cc1nc2ccccc2[n-]1 (chirality)
O=C([N-]Cc1cc(=O)[n-]c2ccccc12)C(=O)N[C@H](Cc1ccccc1)C(=O)[N-][C@H](Cc1ccccc1)C(=O)[N-]Cc1nc2ccccc2[n-]1 (3D coordinates assigned)
O=C([N-]Cc1cc(=O)[n-]c2ccccc12)C(=O)N[C@H](Cc1ccccc1)C(=O)[N-][C@H](Cc1ccccc1)C(=O)[N-]Cc1nc2ccccc2[n-]1 (optimized conformer: 117.97031419078878 kcal/mol)

>  <smiles>  (92) 
O=C(NCc1cc(=O)[nH]c2ccccc12)C(=O)NC(Cc1ccccc1)C(=O)NC(Cc1ccccc1)C(=O)NCc1nc2ccccc2[nH]1

>  <score_type>  (92) 
oracle

>  <origin>  (92) 
adg

>  <m_score__min__energy>  (92) 
-18.649999999999999

>  <m_primary>  (92) 
energy

$$$$
92:0
     RDKit          3D

 34 36  0  0  0  0  0  0  0  0999 V2000
   54.3710   26.7160   45.2080 H   0  0  0  0  0  0  0  0  0  0  0  0
   54.4920   25.8460   45.7130 O   0  0  0  0  0  0  0  0  0  0  0  0
   55.5100   24.9590   45.3760 C   0  0  0  0  0  0  0  0  0  0  0  0
   55.2130   23.8240   44.6890 N   0  0  0  0  0  0  0  0  0  0  0  0
   56.1770   22.9230   44.3710 C   0  0  0  0  0  0  0  0  0  0  0  0
   55.8780   21.8810   43.7320 O   0  0  0  0  0  0  0  0  0  0  0  0
   57.4640   23.1420   44.7470 N   0  0  0  0  0  0  0  0  0  0  0  0
   57.8130   24.2610   45.4320 C   0  0  0  0  0  0  0  0  0  0  0  0
   59.0160   24.4290   45.7690 O   0  0  0  0  0  0  0  0  0  0  0  0
   56.8390   25.2200   45.7490 C   0  0  0  0  0  0  0  0  0  0  0  0
   57.1960   26.4270   46.5260 C   0  0  0  0  0  0  0  0  0  0  0  0
   57.5899   26.2866   47.5434 H   0  0  0  0  0  0  0  0  0  0  0  0
   57.0700   27.6820   46.0690 C   0  0  0  0  0  0  0  0  0  0  0  0
   56.0770   28.0580   45.2360 N   0  0  0  0  0  0  0  0  0  0  0  0
   56.2870   29.3780   45.0240 C   0  0  0  0  0  0  0  0  0  0  0  0
   55.4650   30.1150   44.2730 C   0  0  0  0  0  0  0  0  0  0  0  0
   55.6683   31.1856   44.1233 H   0  0  0  0  0  0  0  0  0  0  0  0
   54.5845   29.6515   43.8040 H   0  0  0  0  0  0  0  0  0  0  0  0
   57.3670   29.8560   45.6920 N   0  0  0  0  0  0  0  0  0  0  0  0
   57.9070   31.1900   45.7040 C   0  0  0  0  0  0  0  0  0  0  0  0
   57.8520   31.9840   44.5500 C   0  0  0  0  0  0  0  0  0  0  0  0
   57.4074   31.5791   43.6289 H   0  0  0  0  0  0  0  0  0  0  0  0
   58.3580   33.2860   44.5620 C   0  0  0  0  0  0  0  0  0  0  0  0
   58.3138   33.8971   43.6485 H   0  0  0  0  0  0  0  0  0  0  0  0
   58.9230   33.8210   45.7320 C   0  0  0  0  0  0  0  0  0  0  0  0
   59.4570   35.2000   45.7430 C   0  0  0  0  0  0  0  0  0  0  0  0
   59.9760   35.6800   46.7860 O   0  0  0  0  0  0  0  0  0  0  0  0
   59.3960   35.9880   44.5990 O   0  0  0  0  0  0  0  0  0  0  0  0
   58.9660   33.0260   46.8930 C   0  0  0  0  0  0  0  0  0  0  0  0
   59.4021   33.4320   47.8177 H   0  0  0  0  0  0  0  0  0  0  0  0
   58.4580   31.7240   46.8780 C   0  0  0  0  0  0  0  0  0  0  0  0
   58.4906   31.1142   47.7929 H   0  0  0  0  0  0  0  0  0  0  0  0
   57.8500   28.7900   46.3560 C   0  0  0  0  0  0  0  0  0  0  0  0
   58.8520   28.8280   47.1200 O   0  0  0  0  0  0  0  0  0  0  0  0
  1  2  1  0
  2  3  1  0
  3  4  1  0
  4  5  1  0
  5  6  2  0
  5  7  1  0
  7  8  1  0
  8  9  2  0
  8 10  1  0
 10 11  1  0
 11 12  1  0
 11 13  2  0
 13 14  1  0
 14 15  1  0
 15 16  2  0
 16 17  1  0
 16 18  1  0
 15 19  1  0
 19 20  1  0
 20 21  2  0
 21 22  1  0
 21 23  1  0
 23 24  1  0
 23 25  2  0
 25 26  1  0
 26 27  2  0
 26 28  1  0
 25 29  1  0
 29 30  1  0
 29 31  2  0
 31 32  1  0
 19 33  1  0
 33 34  2  0
 10  3  2  0
 33 13  1  0
 31 20  1  0
M  CHG  4   4  -1   7  -1  14  -1  28  -1
M  END
>  <UniqueID>  (93) 
90

>  <SMILES>  (93) 
C=c1[n-]/c(=C/c2c(O)[n-]c(=O)[n-]c2=O)c(=O)n1-c1ccc(C(=O)[O-])cc1

>  <Energy>  (93) 
86.78734292066657

>  <Genealogy>  (93) 
C=c1[n-]c(=Cc2c(O)[n-]c(=O)[n-]c2=O)c(=O)n1-c1ccc(C(=O)[O-])cc1 (protonated)
C=c1[n-]/c(=C/c2c(O)[n-]c(=O)[n-]c2=O)c(=O)n1-c1ccc(C(=O)[O-])cc1 (cis-trans isomerization)
C=c1[n-]/c(=C/c2c(O)[n-]c(=O)[n-]c2=O)c(=O)n1-c1ccc(C(=O)[O-])cc1 (3D coordinates assigned)
C=c1[n-]/c(=C/c2c(O)[n-]c(=O)[n-]c2=O)c(=O)n1-c1ccc(C(=O)[O-])cc1 (optimized conformer: 86.78734292066657 kcal/mol)

>  <smiles>  (93) 
C=c1[nH]c(=Cc2c(O)[nH]c(=O)[nH]c2=O)c(=O)n1-c1ccc(C(=O)O)cc1

>  <score_type>  (93) 
oracle

>  <origin>  (93) 
adg

>  <m_score__min__energy>  (93) 
-14.119999999999999

>  <m_primary>  (93) 
energy

$$$$
93:0
     RDKit          3D

 62 65  0  0  0  0  0  0  0  0999 V2000
   62.0910   30.2790   50.8840 C   0  0  0  0  0  0  0  0  0  0  0  0
   62.8210   31.5010   50.9070 O   0  0  0  0  0  0  0  0  0  0  0  0
   64.2200   31.5970   50.8450 C   0  0  0  0  0  0  0  0  0  0  0  0
   65.0580   30.6180   51.4150 C   0  0  0  0  0  0  0  0  0  0  0  0
   66.4480   30.7410   51.3310 C   0  0  0  0  0  0  0  0  0  0  0  0
   67.0160   31.8320   50.6750 C   0  0  0  0  0  0  0  0  0  0  0  0
   66.1970   32.8080   50.1010 C   0  0  0  0  0  0  0  0  0  0  0  0
   64.7990   32.7030   50.1870 C   0  0  0  0  0  0  0  0  0  0  0  0
   63.9260   33.7580   49.5570 C   0  0  0  0  0  0  0  0  0  0  0  0
   62.7100   33.1440   49.0270 N   0  0  0  0  0  0  0  0  0  0  0  0
   62.6280   32.5850   47.7060 C   0  0  0  0  0  0  0  0  0  0  0  0
   63.6340   32.5960   46.9470 O   0  0  0  0  0  0  0  0  0  0  0  0
   61.3450   32.0580   47.1950 C   0  0  0  0  0  0  0  0  0  0  0  0
   61.2990   30.7200   46.7760 C   0  0  0  0  0  0  0  0  0  0  0  0
   60.1800   30.2190   46.1970 N   0  0  0  0  0  0  0  0  0  0  0  0
   59.0660   30.9700   46.0000 C   0  0  0  0  0  0  0  0  0  0  0  0
   57.8730   30.3590   45.3740 C   0  0  0  0  0  0  0  0  0  0  0  0
   56.9730   31.1060   44.9020 O   0  0  0  0  0  0  0  0  0  0  0  0
   57.7070   28.9290   45.3100 N   0  0  0  0  0  0  0  0  0  0  0  0
   58.8730   28.0730   45.0240 C   0  0  0  0  0  0  0  0  0  0  0  0
   58.4510   26.7330   44.4110 C   0  0  0  0  0  0  0  0  0  0  0  0
   57.3930   26.1090   45.2180 N   0  0  0  0  0  0  0  0  0  0  0  0
   57.3320   24.6730   45.3380 C   0  0  0  0  0  0  0  0  0  0  0  0
   57.9890   23.9450   44.5470 O   0  0  0  0  0  0  0  0  0  0  0  0
   56.4600   24.0220   46.3750 C   0  0  0  0  0  0  0  0  0  0  0  0
   56.9950   22.7270   46.9690 C   0  0  0  0  0  0  0  0  0  0  0  0
   57.0640   24.0150   47.7710 C   0  0  0  0  0  0  0  0  0  0  0  0
   56.3280   26.9420   45.8020 C   0  0  0  0  0  0  0  0  0  0  0  0
   56.3520   28.3680   45.2420 C   0  0  0  0  0  0  0  0  0  0  0  0
   59.0520   32.3040   46.4320 C   0  0  0  0  0  0  0  0  0  0  0  0
   60.1870   32.8580   47.0460 C   0  0  0  0  0  0  0  0  0  0  0  0
   60.0980   34.2470   47.5580 C   0  0  0  0  0  0  0  0  0  0  0  0
   59.6400   35.3800   46.6910 C   0  0  0  0  0  0  0  0  0  0  0  0
   60.4350   34.4890   48.7480 O   0  0  0  0  0  0  0  0  0  0  0  0
   61.8944   29.9499   51.9150 H   0  0  0  0  0  0  0  0  0  0  0  0
   61.1362   30.4321   50.3596 H   0  0  0  0  0  0  0  0  0  0  0  0
   62.6783   29.5108   50.3596 H   0  0  0  0  0  0  0  0  0  0  0  0
   64.6158   29.7519   51.9291 H   0  0  0  0  0  0  0  0  0  0  0  0
   67.0950   29.9751   51.7836 H   0  0  0  0  0  0  0  0  0  0  0  0
   68.1101   31.9247   50.6091 H   0  0  0  0  0  0  0  0  0  0  0  0
   66.6499   33.6636   49.5787 H   0  0  0  0  0  0  0  0  0  0  0  0
   63.6557   34.5083   50.3147 H   0  0  0  0  0  0  0  0  0  0  0  0
   64.4760   34.2412   48.7360 H   0  0  0  0  0  0  0  0  0  0  0  0
   61.8730   33.1030   49.6500 H   0  0  0  0  0  0  0  0  0  0  0  0
   62.1770   30.0727   46.9182 H   0  0  0  0  0  0  0  0  0  0  0  0
   59.5354   28.5958   44.3183 H   0  0  0  0  0  0  0  0  0  0  0  0
   59.3921   27.8698   45.9723 H   0  0  0  0  0  0  0  0  0  0  0  0
   58.0756   26.9035   43.3912 H   0  0  0  0  0  0  0  0  0  0  0  0
   59.3226   26.0624   44.3867 H   0  0  0  0  0  0  0  0  0  0  0  0
   55.5017   24.3267   45.9291 H   0  0  0  0  0  0  0  0  0  0  0  0
   56.2983   21.9299   47.2676 H   0  0  0  0  0  0  0  0  0  0  0  0
   57.7259   21.9691   46.6507 H   0  0  0  0  0  0  0  0  0  0  0  0
   56.4173   24.1503   48.6505 H   0  0  0  0  0  0  0  0  0  0  0  0
   57.8658   24.5756   48.2739 H   0  0  0  0  0  0  0  0  0  0  0  0
   55.3533   26.4859   45.5740 H   0  0  0  0  0  0  0  0  0  0  0  0
   56.4930   26.9975   46.8881 H   0  0  0  0  0  0  0  0  0  0  0  0
   56.0209   28.3498   44.1932 H   0  0  0  0  0  0  0  0  0  0  0  0
   55.6785   28.9959   45.8438 H   0  0  0  0  0  0  0  0  0  0  0  0
   58.1503   32.9177   46.2897 H   0  0  0  0  0  0  0  0  0  0  0  0
   59.3030   36.2136   47.3247 H   0  0  0  0  0  0  0  0  0  0  0  0
   60.4731   35.7157   46.0559 H   0  0  0  0  0  0  0  0  0  0  0  0
   58.8077   35.0425   46.0559 H   0  0  0  0  0  0  0  0  0  0  0  0
  1  2  1  0
  2  3  1  0
  3  4  2  0
  4  5  1  0
  5  6  2  0
  6  7  1  0
  7  8  2  0
  8  9  1  0
  9 10  1  0
 10 11  1  0
 11 12  2  0
 11 13  1  0
 13 14  2  0
 14 15  1  0
 15 16  2  0
 16 17  1  0
 17 18  2  0
 17 19  1  0
 19 20  1  0
 20 21  1  0
 21 22  1  0
 22 23  1  0
 23 24  2  0
 23 25  1  0
 25 26  1  0
 26 27  1  0
 22 28  1  0
 28 29  1  0
 16 30  1  0
 30 31  2  0
 31 32  1  0
 32 33  1  0
 32 34  2  0
  8  3  1  0
 31 13  1  0
 29 19  1  0
 27 25  1  0
  1 35  1  0
  1 36  1  0
  1 37  1  0
  4 38  1  0
  5 39  1  0
  6 40  1  0
  7 41  1  0
  9 42  1  0
  9 43  1  0
 10 44  1  0
 14 45  1  0
 20 46  1  0
 20 47  1  0
 21 48  1  0
 21 49  1  0
 25 50  1  0
 26 51  1  0
 26 52  1  0
 27 53  1  0
 27 54  1  0
 28 55  1  0
 28 56  1  0
 29 57  1  0
 29 58  1  0
 30 59  1  0
 33 60  1  0
 33 61  1  0
 33 62  1  0
M  END
>  <UniqueID>  (94) 
91

>  <SMILES>  (94) 
COc1ccccc1CNC(=O)c1cnc(C(=O)N2CCN(C(=O)C3CC3)CC2)cc1C(C)=O

>  <Energy>  (94) 
338.6544512092072

>  <Genealogy>  (94) 
COc1ccccc1CNC(=O)c1cnc(C(=O)N2CCN(C(=O)C3CC3)CC2)cc1C(C)=O (3D coordinates assigned)
COc1ccccc1CNC(=O)c1cnc(C(=O)N2CCN(C(=O)C3CC3)CC2)cc1C(C)=O (nonaromatic ring conformer: 338.6544512092072 kcal/mol)

>  <smiles>  (94) 
COc1ccccc1CNC(=O)c1cnc(C(=O)N2CCN(C(=O)C3CC3)CC2)cc1C(C)=O

>  <score_type>  (94) 
oracle

>  <origin>  (94) 
adg

>  <m_score__min__energy>  (94) 
-8.8499999999999996

>  <m_primary>  (94) 
energy

$$$$
