0:0
     RDKit          3D

 47 50  0  0  0  0  0  0  0  0999 V2000
   57.3695   30.3571   43.8726 H   0  0  0  0  0  0  0  0  0  0  0  0
   57.8270   30.0950   44.8380 C   0  0  0  0  0  0  0  0  0  0  0  0
   58.5920   31.0230   45.4270 C   0  0  0  0  0  0  0  0  0  0  0  0
   57.9840   32.6820   45.7290 S   0  0  0  0  0  0  0  0  0  0  0  0
   59.1060   32.6640   47.1260 C   0  0  0  0  0  0  0  0  0  0  0  0
   58.6320   32.9300   48.3120 N   0  0  0  0  0  0  0  0  0  0  0  0
   58.5100   32.0470   49.4390 C   0  0  0  0  0  0  0  0  0  0  0  0
   57.7910   32.3580   50.4250 O   0  0  0  0  0  0  0  0  0  0  0  0
   59.2960   30.7950   49.4780 C   0  0  0  0  0  0  0  0  0  0  0  0
   60.4920   30.7260   50.2200 C   0  0  0  0  0  0  0  0  0  0  0  0
   60.8563   31.6156   50.7548 H   0  0  0  0  0  0  0  0  0  0  0  0
   61.2190   29.5310   50.2800 C   0  0  0  0  0  0  0  0  0  0  0  0
   62.1528   29.4838   50.8595 H   0  0  0  0  0  0  0  0  0  0  0  0
   60.7580   28.3970   49.6030 C   0  0  0  0  0  0  0  0  0  0  0  0
   61.3300   27.4586   49.6495 H   0  0  0  0  0  0  0  0  0  0  0  0
   59.5670   28.4560   48.8650 C   0  0  0  0  0  0  0  0  0  0  0  0
   59.2018   27.5613   48.3395 H   0  0  0  0  0  0  0  0  0  0  0  0
   58.8430   29.6500   48.7960 C   0  0  0  0  0  0  0  0  0  0  0  0
   57.9155   29.6948   48.2063 H   0  0  0  0  0  0  0  0  0  0  0  0
   60.2940   31.8890   46.9100 N   0  0  0  0  0  0  0  0  0  0  0  0
   61.6080   32.5450   46.7980 C   0  0  0  0  0  0  0  0  0  0  0  0
   62.2821   31.8975   46.2180 H   0  0  0  0  0  0  0  0  0  0  0  0
   61.4674   33.5142   46.2971 H   0  0  0  0  0  0  0  0  0  0  0  0
   62.2180   32.7980   48.1520 C   0  0  0  0  0  0  0  0  0  0  0  0
   61.6970   33.8020   48.9880 C   0  0  0  0  0  0  0  0  0  0  0  0
   60.8282   34.3916   48.6599 H   0  0  0  0  0  0  0  0  0  0  0  0
   62.2790   34.0540   50.2350 C   0  0  0  0  0  0  0  0  0  0  0  0
   61.8785   34.8522   50.8772 H   0  0  0  0  0  0  0  0  0  0  0  0
   63.3680   33.2930   50.6650 C   0  0  0  0  0  0  0  0  0  0  0  0
   63.8133   33.4814   51.6530 H   0  0  0  0  0  0  0  0  0  0  0  0
   63.8930   32.2930   49.8430 C   0  0  0  0  0  0  0  0  0  0  0  0
   64.7513   31.6957   50.1843 H   0  0  0  0  0  0  0  0  0  0  0  0
   63.3280   32.0500   48.5850 C   0  0  0  0  0  0  0  0  0  0  0  0
   63.7532   31.2722   47.9337 H   0  0  0  0  0  0  0  0  0  0  0  0
   59.9360   30.8580   45.9930 C   0  0  0  0  0  0  0  0  0  0  0  0
   60.7310   29.9280   45.6710 O   0  0  0  0  0  0  0  0  0  0  0  0
   57.5460   28.7460   45.3780 C   0  0  0  0  0  0  0  0  0  0  0  0
   58.6320   27.9310   45.7350 C   0  0  0  0  0  0  0  0  0  0  0  0
   59.6553   28.3314   45.6852 H   0  0  0  0  0  0  0  0  0  0  0  0
   58.4210   26.6120   46.1540 C   0  0  0  0  0  0  0  0  0  0  0  0
   59.2772   25.9832   46.4397 H   0  0  0  0  0  0  0  0  0  0  0  0
   57.1260   26.0930   46.2100 C   0  0  0  0  0  0  0  0  0  0  0  0
   56.9627   25.0611   46.5542 H   0  0  0  0  0  0  0  0  0  0  0  0
   56.0380   26.8810   45.8300 C   0  0  0  0  0  0  0  0  0  0  0  0
   54.7540   26.3510   45.8870 O   0  0  0  0  0  0  0  0  0  0  0  0
   56.2410   28.2060   45.4040 C   0  0  0  0  0  0  0  0  0  0  0  0
   55.1500   28.9620   44.9810 O   0  0  0  0  0  0  0  0  0  0  0  0
  1  2  1  0
  2  3  2  3
  3  4  1  0
  4  5  1  0
  5  6  2  0
  6  7  1  0
  7  8  2  0
  7  9  1  0
  9 10  2  0
 10 11  1  0
 10 12  1  0
 12 13  1  0
 12 14  2  0
 14 15  1  0
 14 16  1  0
 16 17  1  0
 16 18  2  0
 18 19  1  0
  5 20  1  0
 20 21  1  0
 21 22  1  0
 21 23  1  0
 21 24  1  0
 24 25  2  0
 25 26  1  0
 25 27  1  0
 27 28  1  0
 27 29  2  0
 29 30  1  0
 29 31  1  0
 31 32  1  0
 31 33  2  0
 33 34  1  0
 20 35  1  0
 35 36  2  0
  2 37  1  0
 37 38  2  0
 38 39  1  0
 38 40  1  0
 40 41  1  0
 40 42  2  0
 42 43  1  0
 42 44  1  0
 44 45  1  0
 44 46  2  0
 46 47  1  0
 35  3  1  0
 46 37  1  0
 18  9  1  0
 33 24  1  0
M  CHG  2  45  -1  47  -1
M  END
>  <UniqueID>  (1) 
1

>  <SMILES>  (1) 
O=C(/N=C1/SC(=Cc2cccc([O-])c2[O-])C(=O)N1Cc1ccccc1)c1ccccc1

>  <Energy>  (1) 
95.80713131125745

>  <Genealogy>  (1) 
O=C(N=C1SC(=Cc2cccc([O-])c2[O-])C(=O)N1Cc1ccccc1)c1ccccc1 (protonated)
O=C(/N=C1/SC(=Cc2cccc([O-])c2[O-])C(=O)N1Cc1ccccc1)c1ccccc1 (cis-trans isomerization)
O=C(/N=C1/SC(=Cc2cccc([O-])c2[O-])C(=O)N1Cc1ccccc1)c1ccccc1 (3D coordinates assigned)
O=C(/N=C1/SC(=Cc2cccc([O-])c2[O-])C(=O)N1Cc1ccccc1)c1ccccc1 (nonaromatic ring conformer: 95.80713131125745 kcal/mol)

>  <smiles>  (1) 
O=C(N=C1SC(=Cc2cccc(O)c2O)C(=O)N1Cc1ccccc1)c1ccccc1

>  <score_type>  (1) 
oracle

>  <origin>  (1) 
adg

>  <m_score__min__energy>  (1) 
-16.420000000000002

>  <m_primary>  (1) 
energy

$$$$
1:0
     RDKit          3D

 64 68  0  0  0  0  0  0  0  0999 V2000
   55.5110   21.5870   43.1200 H   0  0  0  0  0  0  0  0  0  0  0  0
   55.9300   22.1410   43.8580 O   0  0  0  0  0  0  0  0  0  0  0  0
   55.1830   23.0930   44.5480 C   0  0  0  0  0  0  0  0  0  0  0  0
   53.8950   22.8190   44.8860 N   0  0  0  0  0  0  0  0  0  0  0  0
   53.1410   23.7200   45.5630 C   0  0  0  0  0  0  0  0  0  0  0  0
   51.9490   23.4450   45.8610 O   0  0  0  0  0  0  0  0  0  0  0  0
   53.6720   24.9140   45.9280 N   0  0  0  0  0  0  0  0  0  0  0  0
   54.9540   25.2360   45.6170 C   0  0  0  0  0  0  0  0  0  0  0  0
   55.4240   26.3380   46.0060 O   0  0  0  0  0  0  0  0  0  0  0  0
   55.7480   24.3290   44.8890 C   0  0  0  0  0  0  0  0  0  0  0  0
   57.1640   24.6120   44.5600 C   0  0  0  0  0  0  0  0  0  0  0  0
   57.7171   23.8718   43.9631 H   0  0  0  0  0  0  0  0  0  0  0  0
   57.8120   25.7270   44.9520 C   0  0  0  0  0  0  0  0  0  0  0  0
   58.1500   26.8070   44.1460 C   0  0  0  0  0  0  0  0  0  0  0  0
   57.9228   26.9254   43.0763 H   0  0  0  0  0  0  0  0  0  0  0  0
   58.8270   27.7030   44.9500 C   0  0  0  0  0  0  0  0  0  0  0  0
   59.3600   29.0240   44.4900 C   0  0  0  0  0  0  0  0  0  0  0  0
   59.6098   29.6431   45.3642 H   0  0  0  0  0  0  0  0  0  0  0  0
   60.2638   28.8637   43.8839 H   0  0  0  0  0  0  0  0  0  0  0  0
   58.5980   29.5359   43.8839 H   0  0  0  0  0  0  0  0  0  0  0  0
   58.9110   27.2310   46.2140 N   0  0  0  0  0  0  0  0  0  0  0  0
   59.5290   27.9060   47.3230 C   0  0  0  0  0  0  0  0  0  0  0  0
   60.0630   27.1710   48.3880 C   0  0  0  0  0  0  0  0  0  0  0  0
   60.0136   26.0722   48.3761 H   0  0  0  0  0  0  0  0  0  0  0  0
   60.6580   27.8300   49.4650 C   0  0  0  0  0  0  0  0  0  0  0  0
   61.0741   27.2487   50.3010 H   0  0  0  0  0  0  0  0  0  0  0  0
   60.7270   29.2250   49.4850 C   0  0  0  0  0  0  0  0  0  0  0  0
   61.1916   29.7374   50.3404 H   0  0  0  0  0  0  0  0  0  0  0  0
   60.2060   29.9780   48.4180 C   0  0  0  0  0  0  0  0  0  0  0  0
   60.2720   31.4190   48.4420 N   0  0  0  0  0  0  0  0  0  0  0  0
   60.7770   32.1430   47.2650 C   0  0  0  0  0  0  0  0  0  0  0  0
   61.6562   31.6150   46.8671 H   0  0  0  0  0  0  0  0  0  0  0  0
   59.9793   32.1846   46.5088 H   0  0  0  0  0  0  0  0  0  0  0  0
   61.1760   33.5730   47.6340 C   0  0  0  0  0  0  0  0  0  0  0  0
   62.0050   33.5374   48.3561 H   0  0  0  0  0  0  0  0  0  0  0  0
   61.4791   34.0943   46.7140 H   0  0  0  0  0  0  0  0  0  0  0  0
   59.9860   34.3540   48.2680 C   0  0  0  0  0  0  0  0  0  0  0  0
   60.4181   35.2528   48.7322 H   0  0  0  0  0  0  0  0  0  0  0  0
   58.9860   34.8270   47.2630 N   0  0  0  0  0  0  0  0  0  0  0  0
   59.6320   35.3010   46.0060 C   0  0  0  0  0  0  0  0  0  0  0  0
   59.1899   36.2683   45.7250 H   0  0  0  0  0  0  0  0  0  0  0  0
   60.7114   35.3906   46.1977 H   0  0  0  0  0  0  0  0  0  0  0  0
   59.4440   34.3150   44.8400 C   0  0  0  0  0  0  0  0  0  0  0  0
   59.9448   34.7260   43.9510 H   0  0  0  0  0  0  0  0  0  0  0  0
   59.8778   33.3538   45.1530 H   0  0  0  0  0  0  0  0  0  0  0  0
   58.0820   34.0770   44.5200 O   0  0  0  0  0  0  0  0  0  0  0  0
   57.2170   34.1340   45.6440 C   0  0  0  0  0  0  0  0  0  0  0  0
   56.7803   35.1424   45.6935 H   0  0  0  0  0  0  0  0  0  0  0  0
   56.4585   33.3501   45.5017 H   0  0  0  0  0  0  0  0  0  0  0  0
   57.9120   33.8420   46.9840 C   0  0  0  0  0  0  0  0  0  0  0  0
   57.1662   33.8874   47.7913 H   0  0  0  0  0  0  0  0  0  0  0  0
   58.3660   32.8416   46.9277 H   0  0  0  0  0  0  0  0  0  0  0  0
   59.2780   33.4790   49.3570 C   0  0  0  0  0  0  0  0  0  0  0  0
   59.2139   34.0698   50.2827 H   0  0  0  0  0  0  0  0  0  0  0  0
   58.2938   33.2090   48.9467 H   0  0  0  0  0  0  0  0  0  0  0  0
   59.9890   32.1590   49.6810 C   0  0  0  0  0  0  0  0  0  0  0  0
   60.9345   32.3733   50.2006 H   0  0  0  0  0  0  0  0  0  0  0  0
   59.3381   31.5483   50.3239 H   0  0  0  0  0  0  0  0  0  0  0  0
   59.6050   29.3060   47.3390 C   0  0  0  0  0  0  0  0  0  0  0  0
   59.1906   29.8839   46.4997 H   0  0  0  0  0  0  0  0  0  0  0  0
   58.2990   26.0200   46.2290 C   0  0  0  0  0  0  0  0  0  0  0  0
   58.1570   25.2620   47.3280 C   0  0  0  0  0  0  0  0  0  0  0  0
   58.5850   25.5951   48.2850 H   0  0  0  0  0  0  0  0  0  0  0  0
   57.6126   24.3078   47.2714 H   0  0  0  0  0  0  0  0  0  0  0  0
  1  2  1  0
  2  3  1  0
  3  4  1  0
  4  5  1  0
  5  6  2  0
  5  7  1  0
  7  8  1  0
  8  9  2  0
  8 10  1  0
 10 11  1  0
 11 12  1  0
 11 13  2  0
 13 14  1  0
 14 15  1  0
 14 16  2  0
 16 17  1  0
 17 18  1  0
 17 19  1  0
 17 20  1  0
 16 21  1  0
 21 22  1  0
 22 23  2  0
 23 24  1  0
 23 25  1  0
 25 26  1  0
 25 27  2  0
 27 28  1  0
 27 29  1  0
 29 30  1  0
 30 31  1  0
 31 32  1  0
 31 33  1  0
 31 34  1  0
 34 35  1  0
 34 36  1  0
 34 37  1  0
 37 38  1  0
 37 39  1  0
 39 40  1  0
 40 41  1  0
 40 42  1  0
 40 43  1  0
 43 44  1  0
 43 45  1  0
 43 46  1  0
 46 47  1  0
 47 48  1  0
 47 49  1  0
 47 50  1  0
 50 51  1  0
 50 52  1  0
 37 53  1  0
 53 54  1  0
 53 55  1  0
 53 56  1  0
 56 57  1  0
 56 58  1  0
 29 59  2  0
 59 60  1  0
 21 61  1  0
 61 62  2  0
 62 63  1  0
 62 64  1  0
 10  3  2  0
 61 13  1  0
 59 22  1  0
 56 30  1  0
 50 39  1  0
M  CHG  2   4  -1   7  -1
M  END
>  <UniqueID>  (2) 
2

>  <SMILES>  (2) 
C=c1/c(=C/c2c(O)[n-]c(=O)[n-]c2=O)cc(C)n1-c1cccc(N2CCC(N3CCOCC3)CC2)c1

>  <Energy>  (2) 
138.6350173387464

>  <Genealogy>  (2) 
C=c1c(=Cc2c(O)[n-]c(=O)[n-]c2=O)cc(C)n1-c1cccc(N2CCC(N3CCOCC3)CC2)c1 (protonated)
C=c1/c(=C/c2c(O)[n-]c(=O)[n-]c2=O)cc(C)n1-c1cccc(N2CCC(N3CCOCC3)CC2)c1 (cis-trans isomerization)
C=c1/c(=C/c2c(O)[n-]c(=O)[n-]c2=O)cc(C)n1-c1cccc(N2CCC(N3CCOCC3)CC2)c1 (3D coordinates assigned)
C=c1/c(=C/c2c(O)[n-]c(=O)[n-]c2=O)cc(C)n1-c1cccc(N2CCC(N3CCOCC3)CC2)c1 (nonaromatic ring conformer: 138.6350173387464 kcal/mol)

>  <smiles>  (2) 
C=c1c(=Cc2c(O)[nH]c(=O)[nH]c2=O)cc(C)n1-c1cccc(N2CCC(N3CCOCC3)CC2)c1

>  <score_type>  (2) 
oracle

>  <origin>  (2) 
adg

>  <m_score__min__energy>  (2) 
-15

>  <m_primary>  (2) 
energy

$$$$
2:0
     RDKit          3D

 46 48  0  0  0  0  0  0  0  0999 V2000
   56.8677   23.3414   44.9562 H   0  0  0  0  0  0  0  0  0  0  0  0
   56.6480   24.3870   45.2180 C   0  0  0  0  0  0  0  0  0  0  0  0
   57.6970   25.6900   45.0590 S   0  0  0  0  0  0  0  0  0  0  0  0
   56.5810   26.8090   45.6480 C   0  0  0  0  0  0  0  0  0  0  0  0
   56.7700   28.0840   45.8480 N   0  0  0  0  0  0  0  0  0  0  0  0
   56.3700   29.2070   45.0430 C   0  0  0  0  0  0  0  0  0  0  0  0
   55.1470   29.3390   44.7710 O   0  0  0  0  0  0  0  0  0  0  0  0
   57.3360   30.2020   44.4710 C   0  0  0  0  0  0  0  0  0  0  0  0
   58.3480   29.9862   44.8441 H   0  0  0  0  0  0  0  0  0  0  0  0
   57.3262   30.1320   43.3733 H   0  0  0  0  0  0  0  0  0  0  0  0
   56.9470   31.5460   44.8740 N   0  0  0  0  0  0  0  0  0  0  0  0
   57.4010   32.7200   44.1930 C   0  0  0  0  0  0  0  0  0  0  0  0
   57.6930   32.6750   42.9680 O   0  0  0  0  0  0  0  0  0  0  0  0
   57.5690   33.9990   44.9520 C   0  0  0  0  0  0  0  0  0  0  0  0
   57.7594   34.8199   44.2450 H   0  0  0  0  0  0  0  0  0  0  0  0
   56.6511   34.2037   45.5226 H   0  0  0  0  0  0  0  0  0  0  0  0
   58.7280   33.8830   45.9050 C   0  0  0  0  0  0  0  0  0  0  0  0
   60.0240   34.2210   45.4880 C   0  0  0  0  0  0  0  0  0  0  0  0
   60.2004   34.5324   44.4479 H   0  0  0  0  0  0  0  0  0  0  0  0
   61.0940   34.1640   46.3890 C   0  0  0  0  0  0  0  0  0  0  0  0
   62.1050   34.4356   46.0511 H   0  0  0  0  0  0  0  0  0  0  0  0
   60.8900   33.7630   47.7220 C   0  0  0  0  0  0  0  0  0  0  0  0
   62.0080   33.6750   48.6350 N   0  0  0  0  0  0  0  0  0  0  0  0
   63.3230   33.2330   48.3330 C   0  0  0  0  0  0  0  0  0  0  0  0
   63.6450   32.6970   47.2390 O   0  0  0  0  0  0  0  0  0  0  0  0
   64.2630   33.3930   49.4590 C   0  0  0  0  0  0  0  0  0  0  0  0
   65.1115   34.0333   49.1760 H   0  0  0  0  0  0  0  0  0  0  0  0
   64.7063   32.4416   49.7881 H   0  0  0  0  0  0  0  0  0  0  0  0
   63.4070   34.0620   50.5410 C   0  0  0  0  0  0  0  0  0  0  0  0
   63.7434   35.0969   50.7019 H   0  0  0  0  0  0  0  0  0  0  0  0
   63.4945   33.5247   51.4969 H   0  0  0  0  0  0  0  0  0  0  0  0
   61.9540   34.0520   50.0390 C   0  0  0  0  0  0  0  0  0  0  0  0
   61.5068   35.0511   50.1479 H   0  0  0  0  0  0  0  0  0  0  0  0
   61.3367   33.3490   50.6176 H   0  0  0  0  0  0  0  0  0  0  0  0
   59.5890   33.4090   48.1300 C   0  0  0  0  0  0  0  0  0  0  0  0
   59.4144   33.0699   49.1618 H   0  0  0  0  0  0  0  0  0  0  0  0
   58.5170   33.4850   47.2340 C   0  0  0  0  0  0  0  0  0  0  0  0
   57.5020   33.2311   47.5737 H   0  0  0  0  0  0  0  0  0  0  0  0
   55.4180   26.2100   45.9760 N   0  0  0  0  0  0  0  0  0  0  0  0
   55.4500   24.8690   45.7410 C   0  0  0  0  0  0  0  0  0  0  0  0
   54.2580   23.9970   45.9970 C   0  0  0  0  0  0  0  0  0  0  0  0
   53.4402   24.6094   46.4046 H   0  0  0  0  0  0  0  0  0  0  0  0
   54.5340   23.2130   46.7175 H   0  0  0  0  0  0  0  0  0  0  0  0
   53.8070   23.3540   44.7230 C   0  0  0  0  0  0  0  0  0  0  0  0
   52.5920   23.0730   44.5520 O   0  0  0  0  0  0  0  0  0  0  0  0
   54.7310   23.0490   43.7300 O   0  0  0  0  0  0  0  0  0  0  0  0
  1  2  1  0
  2  3  1  0
  3  4  1  0
  4  5  2  0
  5  6  1  0
  6  7  2  0
  6  8  1  0
  8  9  1  0
  8 10  1  0
  8 11  1  0
 11 12  1  0
 12 13  2  0
 12 14  1  0
 14 15  1  0
 14 16  1  0
 14 17  1  0
 17 18  2  0
 18 19  1  0
 18 20  1  0
 20 21  1  0
 20 22  2  0
 22 23  1  0
 23 24  1  0
 24 25  2  0
 24 26  1  0
 26 27  1  0
 26 28  1  0
 26 29  1  0
 29 30  1  0
 29 31  1  0
 29 32  1  0
 32 33  1  0
 32 34  1  0
 22 35  1  0
 35 36  1  0
 35 37  2  0
 37 38  1  0
  4 39  1  0
 39 40  1  0
 40 41  1  0
 41 42  1  0
 41 43  1  0
 41 44  1  0
 44 45  2  0
 44 46  1  0
 40  2  2  0
 37 17  1  0
 32 23  1  0
M  CHG  3  11  -1  39  -1  46  -1
M  END
>  <UniqueID>  (3) 
3

>  <SMILES>  (3) 
O=C([O-])Cc1cs/c(=N\C(=O)C[N-]C(=O)Cc2ccc(N3CCCC3=O)cc2)[n-]1

>  <Energy>  (3) 
85.32247451282163

>  <Genealogy>  (3) 
O=C([O-])Cc1csc(=NC(=O)C[N-]C(=O)Cc2ccc(N3CCCC3=O)cc2)[n-]1 (protonated)
O=C([O-])Cc1cs/c(=N\C(=O)C[N-]C(=O)Cc2ccc(N3CCCC3=O)cc2)[n-]1 (cis-trans isomerization)
O=C([O-])Cc1cs/c(=N\C(=O)C[N-]C(=O)Cc2ccc(N3CCCC3=O)cc2)[n-]1 (3D coordinates assigned)
O=C([O-])Cc1cs/c(=N\C(=O)C[N-]C(=O)Cc2ccc(N3CCCC3=O)cc2)[n-]1 (nonaromatic ring conformer: 85.32247451282163 kcal/mol)

>  <smiles>  (3) 
O=C(O)Cc1csc(=NC(=O)CNC(=O)Cc2ccc(N3CCCC3=O)cc2)[nH]1

>  <score_type>  (3) 
oracle

>  <origin>  (3) 
adg

>  <m_score__min__energy>  (3) 
-15.01

>  <m_primary>  (3) 
energy

$$$$
3:0
     RDKit          3D

 59 61  0  0  0  0  0  0  0  0999 V2000
   58.5160   31.0490   49.9910 C   0  0  0  0  0  0  0  0  0  0  0  0
   59.8190   30.8370   49.8230 C   0  0  0  0  0  0  0  0  0  0  0  0
   60.3540   29.9630   48.7680 C   0  0  0  0  0  0  0  0  0  0  0  0
   61.1870   30.4040   47.9300 O   0  0  0  0  0  0  0  0  0  0  0  0
   59.9450   28.5880   48.7370 N   0  0  0  0  0  0  0  0  0  0  0  0
   59.4750   27.8470   47.6020 C   0  0  0  0  0  0  0  0  0  0  0  0
   60.3220   27.0200   46.8420 C   0  0  0  0  0  0  0  0  0  0  0  0
   59.8310   26.3630   45.7080 C   0  0  0  0  0  0  0  0  0  0  0  0
   58.4980   26.5230   45.3240 C   0  0  0  0  0  0  0  0  0  0  0  0
   57.6430   27.3350   46.0850 C   0  0  0  0  0  0  0  0  0  0  0  0
   56.2590   27.5640   45.6550 C   0  0  0  0  0  0  0  0  0  0  0  0
   55.4550   26.5980   45.6670 O   0  0  0  0  0  0  0  0  0  0  0  0
   55.7980   28.8370   45.1870 N   0  0  0  0  0  0  0  0  0  0  0  0
   56.4460   29.6940   44.2050 C   0  0  0  0  0  0  0  0  0  0  0  0
   57.3170   30.7510   44.8330 C   0  0  0  0  0  0  0  0  0  0  0  0
   58.0610   30.3920   45.7870 O   0  0  0  0  0  0  0  0  0  0  0  0
   57.4340   32.1020   44.3220 N   0  0  0  0  0  0  0  0  0  0  0  0
   57.7150   32.2750   42.8940 C   0  0  0  0  0  0  0  0  0  0  0  0
   57.3480   33.3080   45.1650 C   0  0  0  0  0  0  0  0  0  0  0  0
   58.5360   33.4180   46.0880 C   0  0  0  0  0  0  0  0  0  0  0  0
   58.3770   33.8170   47.4210 C   0  0  0  0  0  0  0  0  0  0  0  0
   59.4850   33.9150   48.2620 C   0  0  0  0  0  0  0  0  0  0  0  0
   60.7600   33.6000   47.7720 C   0  0  0  0  0  0  0  0  0  0  0  0
   61.9250   33.6720   48.6180 N   0  0  0  0  0  0  0  0  0  0  0  0
   61.7530   33.7560   50.0750 C   0  0  0  0  0  0  0  0  0  0  0  0
   62.9530   34.4560   50.7170 C   0  0  0  0  0  0  0  0  0  0  0  0
   64.2830   33.7580   50.3810 C   0  0  0  0  0  0  0  0  0  0  0  0
   64.2520   32.9580   49.0660 C   0  0  0  0  0  0  0  0  0  0  0  0
   63.2780   33.5540   48.0420 C   0  0  0  0  0  0  0  0  0  0  0  0
   60.8900   33.1990   46.4760 N   0  0  0  0  0  0  0  0  0  0  0  0
   59.8270   33.1080   45.6350 C   0  0  0  0  0  0  0  0  0  0  0  0
   58.1440   28.0130   47.2070 C   0  0  0  0  0  0  0  0  0  0  0  0
   58.1659   31.7122   50.7957 H   0  0  0  0  0  0  0  0  0  0  0  0
   57.7890   30.5610   49.3251 H   0  0  0  0  0  0  0  0  0  0  0  0
   60.5258   31.3366   50.5019 H   0  0  0  0  0  0  0  0  0  0  0  0
   61.3728   26.8894   47.1398 H   0  0  0  0  0  0  0  0  0  0  0  0
   60.4978   25.7180   45.1169 H   0  0  0  0  0  0  0  0  0  0  0  0
   58.1186   26.0132   44.4261 H   0  0  0  0  0  0  0  0  0  0  0  0
   57.0704   29.0681   43.5505 H   0  0  0  0  0  0  0  0  0  0  0  0
   55.6535   30.2102   43.6433 H   0  0  0  0  0  0  0  0  0  0  0  0
   58.6458   32.8480   42.7703 H   0  0  0  0  0  0  0  0  0  0  0  0
   57.8259   31.2886   42.4200 H   0  0  0  0  0  0  0  0  0  0  0  0
   56.8842   32.8182   42.4200 H   0  0  0  0  0  0  0  0  0  0  0  0
   57.3143   34.1963   44.5171 H   0  0  0  0  0  0  0  0  0  0  0  0
   56.4374   33.2385   45.7782 H   0  0  0  0  0  0  0  0  0  0  0  0
   57.3742   34.0540   47.8061 H   0  0  0  0  0  0  0  0  0  0  0  0
   59.3590   34.2382   49.3059 H   0  0  0  0  0  0  0  0  0  0  0  0
   60.8391   34.3256   50.2994 H   0  0  0  0  0  0  0  0  0  0  0  0
   61.6750   32.7376   50.4833 H   0  0  0  0  0  0  0  0  0  0  0  0
   62.9951   35.4927   50.3518 H   0  0  0  0  0  0  0  0  0  0  0  0
   62.8199   34.4204   51.8083 H   0  0  0  0  0  0  0  0  0  0  0  0
   65.0667   34.5257   50.3011 H   0  0  0  0  0  0  0  0  0  0  0  0
   64.4789   33.0376   51.1889 H   0  0  0  0  0  0  0  0  0  0  0  0
   65.2625   32.9534   48.6314 H   0  0  0  0  0  0  0  0  0  0  0  0
   63.9098   31.9394   49.3011 H   0  0  0  0  0  0  0  0  0  0  0  0
   63.6324   34.5520   47.7447 H   0  0  0  0  0  0  0  0  0  0  0  0
   63.2335   32.8890   47.1669 H   0  0  0  0  0  0  0  0  0  0  0  0
   59.9794   32.7895   44.5932 H   0  0  0  0  0  0  0  0  0  0  0  0
   57.4841   28.6806   47.7805 H   0  0  0  0  0  0  0  0  0  0  0  0
  1  2  2  0
  2  3  1  0
  3  4  2  0
  3  5  1  0
  5  6  1  0
  6  7  2  0
  7  8  1  0
  8  9  2  0
  9 10  1  0
 10 11  1  0
 11 12  2  0
 11 13  1  0
 13 14  1  0
 14 15  1  0
 15 16  2  0
 15 17  1  0
 17 18  1  0
 17 19  1  0
 19 20  1  0
 20 21  2  0
 21 22  1  0
 22 23  2  0
 23 24  1  0
 24 25  1  0
 25 26  1  0
 26 27  1  0
 27 28  1  0
 28 29  1  0
 23 30  1  0
 30 31  2  0
 10 32  2  0
 32  6  1  0
 31 20  1  0
 29 24  1  0
  1 33  1  0
  1 34  1  0
  2 35  1  0
  7 36  1  0
  8 37  1  0
  9 38  1  0
 14 39  1  0
 14 40  1  0
 18 41  1  0
 18 42  1  0
 18 43  1  0
 19 44  1  0
 19 45  1  0
 21 46  1  0
 22 47  1  0
 25 48  1  0
 25 49  1  0
 26 50  1  0
 26 51  1  0
 27 52  1  0
 27 53  1  0
 28 54  1  0
 28 55  1  0
 29 56  1  0
 29 57  1  0
 31 58  1  0
 32 59  1  0
M  CHG  2   5  -1  13  -1
M  END
>  <UniqueID>  (4) 
4

>  <SMILES>  (4) 
C=CC(=O)[N-]c1cccc(C(=O)[N-]CC(=O)N(C)Cc2ccc(N3CCCCC3)nc2)c1

>  <Energy>  (4) 
72.036182631704

>  <Genealogy>  (4) 
C=CC(=O)[N-]c1cccc(C(=O)[N-]CC(=O)N(C)Cc2ccc(N3CCCCC3)nc2)c1 (protonated)
C=CC(=O)[N-]c1cccc(C(=O)[N-]CC(=O)N(C)Cc2ccc(N3CCCCC3)nc2)c1 (3D coordinates assigned)
C=CC(=O)[N-]c1cccc(C(=O)[N-]CC(=O)N(C)Cc2ccc(N3CCCCC3)nc2)c1 (nonaromatic ring conformer: 72.036182631704 kcal/mol)

>  <smiles>  (4) 
C=CC(=O)Nc1cccc(C(=O)NCC(=O)N(C)Cc2ccc(N3CCCCC3)nc2)c1

>  <score_type>  (4) 
oracle

>  <origin>  (4) 
adg

>  <m_score__min__energy>  (4) 
-12.300000000000001

>  <m_primary>  (4) 
energy

$$$$
4:0
     RDKit          3D

 46 48  0  0  0  0  0  0  0  0999 V2000
   59.6470   29.3360   47.8290 C   0  0  0  0  0  0  0  0  0  0  0  0
   60.7650   30.1070   48.4650 C   0  0  0  0  0  0  0  0  0  0  0  0
   60.9070   30.1230   49.8610 C   0  0  0  0  0  0  0  0  0  0  0  0
   61.9340   30.8590   50.4550 C   0  0  0  0  0  0  0  0  0  0  0  0
   62.8160   31.5990   49.6640 C   0  0  0  0  0  0  0  0  0  0  0  0
   62.6710   31.6120   48.2670 C   0  0  0  0  0  0  0  0  0  0  0  0
   63.6630   32.3550   47.4070 C   0  0  0  0  0  0  0  0  0  0  0  0
   63.2520   33.8190   47.2040 C   0  0  0  0  0  0  0  0  0  0  0  0
   61.9710   33.9050   46.5020 N   0  0  0  0  0  0  0  0  0  0  0  0
   60.7170   33.8880   47.2040 C   0  0  0  0  0  0  0  0  0  0  0  0
   60.6900   34.1100   48.4450 O   0  0  0  0  0  0  0  0  0  0  0  0
   59.4570   33.5480   46.5050 C   0  0  0  0  0  0  0  0  0  0  0  0
   58.2940   34.3160   46.6820 C   0  0  0  0  0  0  0  0  0  0  0  0
   57.1250   33.9990   45.9860 C   0  0  0  0  0  0  0  0  0  0  0  0
   57.1020   32.9120   45.1090 C   0  0  0  0  0  0  0  0  0  0  0  0
   58.2480   32.1230   44.9320 C   0  0  0  0  0  0  0  0  0  0  0  0
   58.2400   30.9700   43.9650 C   0  0  0  0  0  0  0  0  0  0  0  0
   57.5290   29.7820   44.5630 C   0  0  0  0  0  0  0  0  0  0  0  0
   58.2570   28.6740   45.0200 C   0  0  0  0  0  0  0  0  0  0  0  0
   57.6100   27.5980   45.5360 N   0  0  0  0  0  0  0  0  0  0  0  0
   56.2550   27.5670   45.6110 C   0  0  0  0  0  0  0  0  0  0  0  0
   55.6760   26.5580   46.0900 O   0  0  0  0  0  0  0  0  0  0  0  0
   55.5250   28.6210   45.1670 N   0  0  0  0  0  0  0  0  0  0  0  0
   56.1260   29.7220   44.6460 C   0  0  0  0  0  0  0  0  0  0  0  0
   55.4160   30.6800   44.2420 O   0  0  0  0  0  0  0  0  0  0  0  0
   59.4210   32.4430   45.6340 C   0  0  0  0  0  0  0  0  0  0  0  0
   61.6420   30.8650   47.6730 C   0  0  0  0  0  0  0  0  0  0  0  0
   59.0116   28.8978   48.6127 H   0  0  0  0  0  0  0  0  0  0  0  0
   59.0448   30.0117   47.2039 H   0  0  0  0  0  0  0  0  0  0  0  0
   60.0646   28.5330   47.2039 H   0  0  0  0  0  0  0  0  0  0  0  0
   60.2066   29.5536   50.4896 H   0  0  0  0  0  0  0  0  0  0  0  0
   62.0489   30.8561   51.5490 H   0  0  0  0  0  0  0  0  0  0  0  0
   63.6265   32.1732   50.1366 H   0  0  0  0  0  0  0  0  0  0  0  0
   64.6491   32.3256   47.8935 H   0  0  0  0  0  0  0  0  0  0  0  0
   63.6955   31.8677   46.4213 H   0  0  0  0  0  0  0  0  0  0  0  0
   63.1593   34.3072   48.1853 H   0  0  0  0  0  0  0  0  0  0  0  0
   64.0210   34.3211   46.5985 H   0  0  0  0  0  0  0  0  0  0  0  0
   61.9880   33.7150   45.4750 H   0  0  0  0  0  0  0  0  0  0  0  0
   58.3040   35.1720   47.3727 H   0  0  0  0  0  0  0  0  0  0  0  0
   56.2197   34.6073   46.1290 H   0  0  0  0  0  0  0  0  0  0  0  0
   56.1818   32.6740   44.5552 H   0  0  0  0  0  0  0  0  0  0  0  0
   57.7229   31.2746   43.0432 H   0  0  0  0  0  0  0  0  0  0  0  0
   59.2792   30.6865   43.7418 H   0  0  0  0  0  0  0  0  0  0  0  0
   59.3554   28.6768   44.9602 H   0  0  0  0  0  0  0  0  0  0  0  0
   60.3207   31.8241   45.5020 H   0  0  0  0  0  0  0  0  0  0  0  0
   61.5218   30.8735   46.5796 H   0  0  0  0  0  0  0  0  0  0  0  0
  1  2  1  0
  2  3  2  0
  3  4  1  0
  4  5  2  0
  5  6  1  0
  6  7  1  0
  7  8  1  0
  8  9  1  0
  9 10  1  0
 10 11  2  0
 10 12  1  0
 12 13  2  0
 13 14  1  0
 14 15  2  0
 15 16  1  0
 16 17  1  0
 17 18  1  0
 18 19  2  0
 19 20  1  0
 20 21  1  0
 21 22  2  0
 21 23  1  0
 23 24  1  0
 24 25  2  0
 16 26  2  0
  6 27  2  0
 27  2  1  0
 26 12  1  0
 24 18  1  0
  1 28  1  0
  1 29  1  0
  1 30  1  0
  3 31  1  0
  4 32  1  0
  5 33  1  0
  7 34  1  0
  7 35  1  0
  8 36  1  0
  8 37  1  0
  9 38  1  0
 13 39  1  0
 14 40  1  0
 15 41  1  0
 17 42  1  0
 17 43  1  0
 19 44  1  0
 26 45  1  0
 27 46  1  0
M  CHG  2  20  -1  23  -1
M  END
>  <UniqueID>  (5) 
5

>  <SMILES>  (5) 
Cc1cccc(CCNC(=O)c2cccc(Cc3c[n-]c(=O)[n-]c3=O)c2)c1

>  <Energy>  (5) 
43.59176914724085

>  <Genealogy>  (5) 
Cc1cccc(CCNC(=O)c2cccc(Cc3c[n-]c(=O)[n-]c3=O)c2)c1 (protonated)
Cc1cccc(CCNC(=O)c2cccc(Cc3c[n-]c(=O)[n-]c3=O)c2)c1 (3D coordinates assigned)
Cc1cccc(CCNC(=O)c2cccc(Cc3c[n-]c(=O)[n-]c3=O)c2)c1 (optimized conformer: 43.59176914724085 kcal/mol)

>  <smiles>  (5) 
Cc1cccc(CCNC(=O)c2cccc(Cc3c[nH]c(=O)[nH]c3=O)c2)c1

>  <score_type>  (5) 
oracle

>  <origin>  (5) 
adg

>  <m_score__min__energy>  (5) 
-13.66

>  <m_primary>  (5) 
energy

$$$$
5:0
     RDKit          3D

 42 44  0  0  0  0  0  0  0  0999 V2000
   57.2801   28.2148   54.3520 H   0  0  0  0  0  0  0  0  0  0  0  0
   56.2410   28.5210   54.5430 C   0  0  0  0  0  0  0  0  0  0  0  0
   55.7055   28.1316   55.4214 H   0  0  0  0  0  0  0  0  0  0  0  0
   55.6300   29.3650   53.7090 C   0  0  0  0  0  0  0  0  0  0  0  0
   56.1710   29.9170   52.5550 C   0  0  0  0  0  0  0  0  0  0  0  0
   57.5420   29.6520   51.9810 C   0  0  0  0  0  0  0  0  0  0  0  0
   58.2146   29.3500   52.7973 H   0  0  0  0  0  0  0  0  0  0  0  0
   57.4424   28.8576   51.2267 H   0  0  0  0  0  0  0  0  0  0  0  0
   58.1280   30.8760   51.2920 C   0  0  0  0  0  0  0  0  0  0  0  0
   58.6290   30.7800   49.9650 C   0  0  0  0  0  0  0  0  0  0  0  0
   58.5830   29.4860   49.1910 C   0  0  0  0  0  0  0  0  0  0  0  0
   58.5529   28.6397   49.8930 H   0  0  0  0  0  0  0  0  0  0  0  0
   57.6837   29.4693   48.5578 H   0  0  0  0  0  0  0  0  0  0  0  0
   59.4788   29.4055   48.5578 H   0  0  0  0  0  0  0  0  0  0  0  0
   59.1600   31.9170   49.3380 C   0  0  0  0  0  0  0  0  0  0  0  0
   59.5345   31.8421   48.3064 H   0  0  0  0  0  0  0  0  0  0  0  0
   59.2200   33.1430   50.0050 C   0  0  0  0  0  0  0  0  0  0  0  0
   59.8280   34.3410   49.3330 C   0  0  0  0  0  0  0  0  0  0  0  0
   60.1864   35.0471   50.0965 H   0  0  0  0  0  0  0  0  0  0  0  0
   60.6723   34.0201   48.7052 H   0  0  0  0  0  0  0  0  0  0  0  0
   59.0705   34.8330   48.7052 H   0  0  0  0  0  0  0  0  0  0  0  0
   58.7810   33.2300   51.3280 C   0  0  0  0  0  0  0  0  0  0  0  0
   58.8572   34.1883   51.8627 H   0  0  0  0  0  0  0  0  0  0  0  0
   58.2440   32.1120   51.9850 C   0  0  0  0  0  0  0  0  0  0  0  0
   57.7870   32.2690   53.4140 C   0  0  0  0  0  0  0  0  0  0  0  0
   58.6051   31.9880   54.0936 H   0  0  0  0  0  0  0  0  0  0  0  0
   57.5032   33.3162   53.5952 H   0  0  0  0  0  0  0  0  0  0  0  0
   56.9195   31.6173   53.5952 H   0  0  0  0  0  0  0  0  0  0  0  0
   55.1650   30.6840   51.9880 C   0  0  0  0  0  0  0  0  0  0  0  0
   55.2232   31.2554   51.0499 H   0  0  0  0  0  0  0  0  0  0  0  0
   54.0720   30.5900   52.8340 C   0  0  0  0  0  0  0  0  0  0  0  0
   52.8980   31.2020   52.6020 C   0  0  0  0  0  0  0  0  0  0  0  0
   52.4148   31.6989   53.4562 H   0  0  0  0  0  0  0  0  0  0  0  0
   52.1980   31.2670   51.3010 C   0  0  0  0  0  0  0  0  0  0  0  0
   52.2190   30.3190   50.3460 N   0  0  0  0  0  0  0  0  0  0  0  0
   51.3930   30.8100   49.3960 C   0  0  0  0  0  0  0  0  0  0  0  0
   51.1560   30.1970   48.3230 O   0  0  0  0  0  0  0  0  0  0  0  0
   50.8390   32.0040   49.6910 N   0  0  0  0  0  0  0  0  0  0  0  0
   51.3550   32.2760   50.9000 C   0  0  0  0  0  0  0  0  0  0  0  0
   51.0580   33.4250   51.6240 O   0  0  0  0  0  0  0  0  0  0  0  0
   54.3600   29.7830   53.8800 N   0  0  0  0  0  0  0  0  0  0  0  0
   53.7320   29.4860   54.6580 H   0  0  0  0  0  0  0  0  0  0  0  0
  1  2  1  0
  2  3  1  0
  2  4  2  0
  4  5  1  0
  5  6  1  0
  6  7  1  0
  6  8  1  0
  6  9  1  0
  9 10  2  0
 10 11  1  0
 11 12  1  0
 11 13  1  0
 11 14  1  0
 10 15  1  0
 15 16  1  0
 15 17  2  0
 17 18  1  0
 18 19  1  0
 18 20  1  0
 18 21  1  0
 17 22  1  0
 22 23  1  0
 22 24  2  0
 24 25  1  0
 25 26  1  0
 25 27  1  0
 25 28  1  0
  5 29  2  0
 29 30  1  0
 29 31  1  0
 31 32  2  0
 32 33  1  0
 32 34  1  0
 34 35  1  0
 35 36  1  0
 36 37  2  0
 36 38  1  0
 38 39  1  0
 39 40  1  0
 31 41  1  0
 41 42  1  0
 41  4  1  0
 24  9  1  0
 39 34  2  0
M  CHG  3  35  -1  38  -1  40  -1
M  END
>  <UniqueID>  (6) 
6

>  <SMILES>  (6) 
C=c1[nH]/c(=C\c2[n-]c(=O)[n-]c2[O-])cc1Cc1c(C)cc(C)cc1C

>  <Energy>  (6) 
103.99845789604299

>  <Genealogy>  (6) 
C=c1[nH]c(=Cc2[n-]c(=O)[n-]c2[O-])cc1Cc1c(C)cc(C)cc1C (protonated)
C=c1[nH]/c(=C\c2[n-]c(=O)[n-]c2[O-])cc1Cc1c(C)cc(C)cc1C (cis-trans isomerization)
C=c1[nH]/c(=C\c2[n-]c(=O)[n-]c2[O-])cc1Cc1c(C)cc(C)cc1C (3D coordinates assigned)
C=c1[nH]/c(=C\c2[n-]c(=O)[n-]c2[O-])cc1Cc1c(C)cc(C)cc1C (optimized conformer: 103.99845789604299 kcal/mol)

>  <smiles>  (6) 
C=c1[nH]c(=Cc2[nH]c(=O)[nH]c2O)cc1Cc1c(C)cc(C)cc1C

>  <score_type>  (6) 
oracle

>  <origin>  (6) 
adg

>  <m_score__min__energy>  (6) 
-16.629999999999999

>  <m_primary>  (6) 
energy

$$$$
6:0
     RDKit          3D

 50 52  0  0  0  0  0  0  0  0999 V2000
   59.7100   22.0440   44.5370 C   0  0  0  0  0  0  0  0  0  0  0  0
   58.6800   23.0290   44.9790 C   0  0  0  0  0  0  0  0  0  0  0  0
   57.4140   23.1630   44.4450 C   0  0  0  0  0  0  0  0  0  0  0  0
   56.8160   24.1840   45.1540 C   0  0  0  0  0  0  0  0  0  0  0  0
   57.7600   24.6040   46.0730 C   0  0  0  0  0  0  0  0  0  0  0  0
   57.5910   25.7230   47.0630 C   0  0  0  0  0  0  0  0  0  0  0  0
   57.8380   27.0540   46.4680 N   0  0  0  0  0  0  0  0  0  0  0  0
   58.4890   26.9600   45.1380 C   0  0  0  0  0  0  0  0  0  0  0  0
   59.1970   28.2600   44.7080 C   0  0  0  0  0  0  0  0  0  0  0  0
   60.6160   28.3620   45.2860 C   0  0  0  0  0  0  0  0  0  0  0  0
   60.5780   28.8280   46.6780 N   0  0  0  0  0  0  0  0  0  0  0  0
   60.9200   30.2030   46.9870 C   0  0  0  0  0  0  0  0  0  0  0  0
   62.1120   30.5960   46.8590 O   0  0  0  0  0  0  0  0  0  0  0  0
   59.8940   31.2070   47.4510 C   0  0  0  0  0  0  0  0  0  0  0  0
   58.9200   31.5470   46.3520 C   0  0  0  0  0  0  0  0  0  0  0  0
   58.8610   32.8530   45.8400 C   0  0  0  0  0  0  0  0  0  0  0  0
   57.9790   33.1630   44.8040 C   0  0  0  0  0  0  0  0  0  0  0  0
   57.1440   32.1790   44.2720 C   0  0  0  0  0  0  0  0  0  0  0  0
   57.1760   30.8670   44.7790 C   0  0  0  0  0  0  0  0  0  0  0  0
   56.2960   29.8210   44.2080 C   0  0  0  0  0  0  0  0  0  0  0  0
   55.1550   29.3590   44.9290 N   0  0  0  0  0  0  0  0  0  0  0  0
   56.5490   29.3240   43.0760 O   0  0  0  0  0  0  0  0  0  0  0  0
   58.0600   30.5650   45.8310 C   0  0  0  0  0  0  0  0  0  0  0  0
   59.9000   27.9660   47.6540 C   0  0  0  0  0  0  0  0  0  0  0  0
   58.3770   28.0410   47.4410 C   0  0  0  0  0  0  0  0  0  0  0  0
   58.8590   23.8970   45.9470 O   0  0  0  0  0  0  0  0  0  0  0  0
   60.1851   21.5896   45.4189 H   0  0  0  0  0  0  0  0  0  0  0  0
   59.2313   21.2590   43.9331 H   0  0  0  0  0  0  0  0  0  0  0  0
   60.4728   22.5572   43.9331 H   0  0  0  0  0  0  0  0  0  0  0  0
   56.9736   22.5773   43.6246 H   0  0  0  0  0  0  0  0  0  0  0  0
   55.7995   24.5815   45.0168 H   0  0  0  0  0  0  0  0  0  0  0  0
   56.5622   25.6967   47.4515 H   0  0  0  0  0  0  0  0  0  0  0  0
   58.3318   25.5739   47.8623 H   0  0  0  0  0  0  0  0  0  0  0  0
   59.2346   26.1519   45.1714 H   0  0  0  0  0  0  0  0  0  0  0  0
   57.6954   26.7645   44.4018 H   0  0  0  0  0  0  0  0  0  0  0  0
   59.2585   28.2842   43.6100 H   0  0  0  0  0  0  0  0  0  0  0  0
   58.6120   29.1082   45.0932 H   0  0  0  0  0  0  0  0  0  0  0  0
   61.0925   27.3712   45.2499 H   0  0  0  0  0  0  0  0  0  0  0  0
   61.1903   29.0842   44.6872 H   0  0  0  0  0  0  0  0  0  0  0  0
   59.3398   30.7848   48.3023 H   0  0  0  0  0  0  0  0  0  0  0  0
   60.4193   32.1278   47.7447 H   0  0  0  0  0  0  0  0  0  0  0  0
   59.5126   33.6349   46.2572 H   0  0  0  0  0  0  0  0  0  0  0  0
   57.9416   34.1873   44.4048 H   0  0  0  0  0  0  0  0  0  0  0  0
   56.4566   32.4310   43.4511 H   0  0  0  0  0  0  0  0  0  0  0  0
   55.2500   28.6400   45.6810 H   0  0  0  0  0  0  0  0  0  0  0  0
   58.0783   29.5484   46.2507 H   0  0  0  0  0  0  0  0  0  0  0  0
   60.2373   26.9274   47.5213 H   0  0  0  0  0  0  0  0  0  0  0  0
   60.1432   28.3056   48.6716 H   0  0  0  0  0  0  0  0  0  0  0  0
   57.8863   27.8700   48.4105 H   0  0  0  0  0  0  0  0  0  0  0  0
   58.1698   29.0367   47.0218 H   0  0  0  0  0  0  0  0  0  0  0  0
  1  2  1  0
  2  3  2  0
  3  4  1  0
  4  5  2  0
  5  6  1  0
  6  7  1  0
  7  8  1  0
  8  9  1  0
  9 10  1  0
 10 11  1  0
 11 12  1  0
 12 13  2  0
 12 14  1  0
 14 15  1  0
 15 16  2  0
 16 17  1  0
 17 18  2  0
 18 19  1  0
 19 20  1  0
 20 21  1  0
 20 22  2  0
 19 23  2  0
 11 24  1  0
 24 25  1  0
  5 26  1  0
 26  2  1  0
 25  7  1  0
 23 15  1  0
  1 27  1  0
  1 28  1  0
  1 29  1  0
  3 30  1  0
  4 31  1  0
  6 32  1  0
  6 33  1  0
  8 34  1  0
  8 35  1  0
  9 36  1  0
  9 37  1  0
 10 38  1  0
 10 39  1  0
 14 40  1  0
 14 41  1  0
 16 42  1  0
 17 43  1  0
 18 44  1  0
 21 45  1  0
 23 46  1  0
 24 47  1  0
 24 48  1  0
 25 49  1  0
 25 50  1  0
M  CHG  1  21  -1
M  END
>  <UniqueID>  (7) 
7

>  <SMILES>  (7) 
Cc1ccc(CN2CCCN(C(=O)Cc3cccc(C([NH-])=O)c3)CC2)o1

>  <Energy>  (7) 
83.9821628501087

>  <Genealogy>  (7) 
Cc1ccc(CN2CCCN(C(=O)Cc3cccc(C([NH-])=O)c3)CC2)o1 (protonated)
Cc1ccc(CN2CCCN(C(=O)Cc3cccc(C([NH-])=O)c3)CC2)o1 (3D coordinates assigned)
Cc1ccc(CN2CCCN(C(=O)Cc3cccc(C([NH-])=O)c3)CC2)o1 (nonaromatic ring conformer: 83.9821628501087 kcal/mol)

>  <smiles>  (7) 
Cc1ccc(CN2CCCN(C(=O)Cc3cccc(C(N)=O)c3)CC2)o1

>  <score_type>  (7) 
oracle

>  <origin>  (7) 
adg

>  <m_score__min__energy>  (7) 
-8.4900000000000002

>  <m_primary>  (7) 
energy

$$$$
7:0
     RDKit          3D

 60 63  0  0  0  0  0  0  0  0999 V2000
   56.6220   20.9850   44.5680 C   0  0  0  0  0  0  0  0  0  0  0  0
   56.6750   20.4050   45.7680 C   0  0  0  0  0  0  0  0  0  0  0  0
   56.1310   21.0970   46.9890 C   0  0  0  0  0  0  0  0  0  0  0  0
   55.6510   22.4570   46.6480 N   0  0  0  0  0  0  0  0  0  0  0  0
   56.5460   23.5040   46.6930 C   0  0  0  0  0  0  0  0  0  0  0  0
   57.7420   23.2990   47.0470 O   0  0  0  0  0  0  0  0  0  0  0  0
   56.1590   24.8110   46.3360 C   0  0  0  0  0  0  0  0  0  0  0  0
   57.1360   25.9300   46.3700 C   0  0  0  0  0  0  0  0  0  0  0  0
   58.1680   25.8360   47.0900 O   0  0  0  0  0  0  0  0  0  0  0  0
   56.9400   27.0910   45.5460 N   0  0  0  0  0  0  0  0  0  0  0  0
   57.5740   28.3600   45.7810 C   0  0  0  0  0  0  0  0  0  0  0  0
   56.9960   29.5260   45.2590 C   0  0  0  0  0  0  0  0  0  0  0  0
   57.5720   30.7760   45.5050 C   0  0  0  0  0  0  0  0  0  0  0  0
   58.7250   30.8820   46.2980 C   0  0  0  0  0  0  0  0  0  0  0  0
   59.3420   32.2000   46.5590 C   0  0  0  0  0  0  0  0  0  0  0  0
   59.7070   32.9110   45.5820 O   0  0  0  0  0  0  0  0  0  0  0  0
   59.5510   32.6790   47.9020 N   0  0  0  0  0  0  0  0  0  0  0  0
   60.0770   31.7610   48.9270 C   0  0  0  0  0  0  0  0  0  0  0  0
   60.4940   32.5030   50.2050 C   0  0  0  0  0  0  0  0  0  0  0  0
   61.2500   33.7250   49.8750 N   0  0  0  0  0  0  0  0  0  0  0  0
   62.3730   34.1580   50.6750 C   0  0  0  0  0  0  0  0  0  0  0  0
   62.7110   33.5090   51.9840 C   0  0  0  0  0  0  0  0  0  0  0  0
   63.1070   35.0980   50.2640 O   0  0  0  0  0  0  0  0  0  0  0  0
   60.7840   34.6010   48.7860 C   0  0  0  0  0  0  0  0  0  0  0  0
   59.4610   34.1130   48.1960 C   0  0  0  0  0  0  0  0  0  0  0  0
   59.3080   29.7160   46.8180 C   0  0  0  0  0  0  0  0  0  0  0  0
   58.7310   28.4660   46.5730 C   0  0  0  0  0  0  0  0  0  0  0  0
   54.8300   25.0470   45.9590 C   0  0  0  0  0  0  0  0  0  0  0  0
   54.4180   26.3380   45.6350 O   0  0  0  0  0  0  0  0  0  0  0  0
   53.9080   23.9940   45.9420 C   0  0  0  0  0  0  0  0  0  0  0  0
   52.5670   24.2280   45.5810 C   0  0  0  0  0  0  0  0  0  0  0  0
   51.6380   23.1900   45.5920 C   0  0  0  0  0  0  0  0  0  0  0  0
   52.0300   21.9110   45.9720 C   0  0  0  0  0  0  0  0  0  0  0  0
   53.3540   21.6560   46.3310 C   0  0  0  0  0  0  0  0  0  0  0  0
   54.3280   22.6870   46.3100 C   0  0  0  0  0  0  0  0  0  0  0  0
   57.0247   20.4638   43.6870 H   0  0  0  0  0  0  0  0  0  0  0  0
   56.1756   21.9845   44.4594 H   0  0  0  0  0  0  0  0  0  0  0  0
   57.1233   19.4054   45.8668 H   0  0  0  0  0  0  0  0  0  0  0  0
   55.2941   20.5095   47.3946 H   0  0  0  0  0  0  0  0  0  0  0  0
   56.9342   21.1815   47.7358 H   0  0  0  0  0  0  0  0  0  0  0  0
   56.3610   26.9820   44.6830 H   0  0  0  0  0  0  0  0  0  0  0  0
   56.0819   29.4567   44.6510 H   0  0  0  0  0  0  0  0  0  0  0  0
   57.1190   31.6813   45.0746 H   0  0  0  0  0  0  0  0  0  0  0  0
   59.2973   31.0277   49.1806 H   0  0  0  0  0  0  0  0  0  0  0  0
   60.9692   31.2670   48.5147 H   0  0  0  0  0  0  0  0  0  0  0  0
   59.5931   32.7781   50.7731 H   0  0  0  0  0  0  0  0  0  0  0  0
   61.1360   31.8411   50.8047 H   0  0  0  0  0  0  0  0  0  0  0  0
   62.3755   34.1532   52.8101 H   0  0  0  0  0  0  0  0  0  0  0  0
   62.2061   32.5340   52.0510 H   0  0  0  0  0  0  0  0  0  0  0  0
   63.7993   33.3637   52.0510 H   0  0  0  0  0  0  0  0  0  0  0  0
   60.6447   35.6180   49.1812 H   0  0  0  0  0  0  0  0  0  0  0  0
   61.5410   34.5890   47.9880 H   0  0  0  0  0  0  0  0  0  0  0  0
   58.6511   34.2880   48.9195 H   0  0  0  0  0  0  0  0  0  0  0  0
   59.2510   34.6633   47.2670 H   0  0  0  0  0  0  0  0  0  0  0  0
   60.2246   29.7859   47.4221 H   0  0  0  0  0  0  0  0  0  0  0  0
   59.1848   27.5606   47.0023 H   0  0  0  0  0  0  0  0  0  0  0  0
   52.2502   25.2397   45.2876 H   0  0  0  0  0  0  0  0  0  0  0  0
   50.5949   23.3820   45.3003 H   0  0  0  0  0  0  0  0  0  0  0  0
   51.2919   21.0955   45.9897 H   0  0  0  0  0  0  0  0  0  0  0  0
   53.6469   20.6402   46.6349 H   0  0  0  0  0  0  0  0  0  0  0  0
  1  2  2  0
  2  3  1  0
  3  4  1  0
  4  5  1  0
  5  6  2  0
  5  7  1  0
  7  8  1  0
  8  9  2  0
  8 10  1  0
 10 11  1  0
 11 12  2  0
 12 13  1  0
 13 14  2  0
 14 15  1  0
 15 16  2  0
 15 17  1  0
 17 18  1  0
 18 19  1  0
 19 20  1  0
 20 21  1  0
 21 22  1  0
 21 23  2  0
 20 24  1  0
 24 25  1  0
 14 26  1  0
 26 27  2  0
  7 28  2  0
 28 29  1  0
 28 30  1  0
 30 31  2  0
 31 32  1  0
 32 33  2  0
 33 34  1  0
 34 35  2  0
 35  4  1  0
 27 11  1  0
 35 30  1  0
 25 17  1  0
  1 36  1  0
  1 37  1  0
  2 38  1  0
  3 39  1  0
  3 40  1  0
 10 41  1  0
 12 42  1  0
 13 43  1  0
 18 44  1  0
 18 45  1  0
 19 46  1  0
 19 47  1  0
 22 48  1  0
 22 49  1  0
 22 50  1  0
 24 51  1  0
 24 52  1  0
 25 53  1  0
 25 54  1  0
 26 55  1  0
 27 56  1  0
 31 57  1  0
 32 58  1  0
 33 59  1  0
 34 60  1  0
M  CHG  1  29  -1
M  END
>  <UniqueID>  (8) 
8

>  <SMILES>  (8) 
C=CCn1c(=O)c(C(=O)Nc2ccc(C(=O)N3CCN(C(C)=O)CC3)cc2)c([O-])c2ccccc21

>  <Energy>  (8) 
87.03692979749422

>  <Genealogy>  (8) 
C=CCn1c(=O)c(C(=O)Nc2ccc(C(=O)N3CCN(C(C)=O)CC3)cc2)c([O-])c2ccccc21 (protonated)
C=CCn1c(=O)c(C(=O)Nc2ccc(C(=O)N3CCN(C(C)=O)CC3)cc2)c([O-])c2ccccc21 (3D coordinates assigned)
C=CCn1c(=O)c(C(=O)Nc2ccc(C(=O)N3CCN(C(C)=O)CC3)cc2)c([O-])c2ccccc21 (nonaromatic ring conformer: 87.03692979749422 kcal/mol)

>  <smiles>  (8) 
C=CCn1c(=O)c(C(=O)Nc2ccc(C(=O)N3CCN(C(C)=O)CC3)cc2)c(O)c2ccccc21

>  <score_type>  (8) 
oracle

>  <origin>  (8) 
adg

>  <m_score__min__energy>  (8) 
-11.220000000000001

>  <m_primary>  (8) 
energy

$$$$
8:0
     RDKit          3D

 48 51  0  0  0  0  0  0  0  0999 V2000
   57.8966   30.6891   44.0507 H   0  0  0  0  0  0  0  0  0  0  0  0
   57.7570   29.6230   44.2830 C   0  0  0  0  0  0  0  0  0  0  0  0
   57.2453   28.9659   43.5644 H   0  0  0  0  0  0  0  0  0  0  0  0
   58.2110   29.1240   45.4430 C   0  0  0  0  0  0  0  0  0  0  0  0
   58.1170   27.7960   45.8940 C   0  0  0  0  0  0  0  0  0  0  0  0
   57.7400   26.6690   45.2600 C   0  0  0  0  0  0  0  0  0  0  0  0
   57.9453   26.6074   44.1811 H   0  0  0  0  0  0  0  0  0  0  0  0
   57.0770   25.5120   45.8850 C   0  0  0  0  0  0  0  0  0  0  0  0
   57.7170   24.4340   46.3740 N   0  0  0  0  0  0  0  0  0  0  0  0
   56.7300   23.7300   46.9700 C   0  0  0  0  0  0  0  0  0  0  0  0
   56.9340   22.6260   47.5400 O   0  0  0  0  0  0  0  0  0  0  0  0
   55.5110   24.3060   46.9170 N   0  0  0  0  0  0  0  0  0  0  0  0
   55.7520   25.4410   46.2400 C   0  0  0  0  0  0  0  0  0  0  0  0
   54.7830   26.3940   45.9580 O   0  0  0  0  0  0  0  0  0  0  0  0
   58.5410   27.8040   47.2130 C   0  0  0  0  0  0  0  0  0  0  0  0
   58.5645   26.9442   47.8987 H   0  0  0  0  0  0  0  0  0  0  0  0
   58.9280   29.0960   47.5020 C   0  0  0  0  0  0  0  0  0  0  0  0
   59.4930   29.5450   48.8160 C   0  0  0  0  0  0  0  0  0  0  0  0
   58.9195   29.0893   49.6366 H   0  0  0  0  0  0  0  0  0  0  0  0
   60.5458   29.2344   48.8878 H   0  0  0  0  0  0  0  0  0  0  0  0
   59.4282   30.6407   48.8878 H   0  0  0  0  0  0  0  0  0  0  0  0
   58.7420   29.8940   46.4290 N   0  0  0  0  0  0  0  0  0  0  0  0
   58.9860   31.3100   46.3970 C   0  0  0  0  0  0  0  0  0  0  0  0
   58.0820   32.1620   45.7520 C   0  0  0  0  0  0  0  0  0  0  0  0
   57.1729   31.7487   45.2908 H   0  0  0  0  0  0  0  0  0  0  0  0
   58.3300   33.5340   45.6920 C   0  0  0  0  0  0  0  0  0  0  0  0
   57.1930   34.5940   44.8780 Cl  0  0  0  0  0  0  0  0  0  0  0  0
   59.4830   34.0650   46.2780 C   0  0  0  0  0  0  0  0  0  0  0  0
   59.6735   35.1469   46.2224 H   0  0  0  0  0  0  0  0  0  0  0  0
   60.4060   33.2250   46.9410 C   0  0  0  0  0  0  0  0  0  0  0  0
   61.6360   33.7480   47.5210 N   0  0  2  0  0  0  0  0  0  0  0  0
   61.4320   34.6920   47.9320 H   0  0  0  0  0  0  0  0  0  0  0  0
   62.7050   33.9240   46.5160 C   0  0  0  0  0  0  0  0  0  0  0  0
   62.2853   33.8129   45.5053 H   0  0  0  0  0  0  0  0  0  0  0  0
   63.1476   34.9266   46.6100 H   0  0  0  0  0  0  0  0  0  0  0  0
   63.7730   32.8590   46.7490 C   0  0  0  0  0  0  0  0  0  0  0  0
   63.8711   32.2174   45.8609 H   0  0  0  0  0  0  0  0  0  0  0  0
   64.7566   33.3140   46.9374 H   0  0  0  0  0  0  0  0  0  0  0  0
   63.3070   32.0410   47.9390 C   0  0  0  0  0  0  0  0  0  0  0  0
   62.9491   31.0542   47.6100 H   0  0  0  0  0  0  0  0  0  0  0  0
   64.1224   31.8651   48.6560 H   0  0  0  0  0  0  0  0  0  0  0  0
   62.1660   32.8400   48.5660 C   0  0  1  0  0  0  0  0  0  0  0  0
   61.3700   32.1709   48.9247 H   0  0  0  0  0  0  0  0  0  0  0  0
   62.6640   33.6180   49.7620 C   0  0  0  0  0  0  0  0  0  0  0  0
   63.0960   33.0120   50.7770 O   0  0  0  0  0  0  0  0  0  0  0  0
   62.6370   35.0090   49.7560 O   0  0  0  0  0  0  0  0  0  0  0  0
   60.1460   31.8410   46.9780 C   0  0  0  0  0  0  0  0  0  0  0  0
   60.8633   31.1675   47.4697 H   0  0  0  0  0  0  0  0  0  0  0  0
  1  2  1  0
  2  3  1  0
  2  4  2  0
  4  5  1  0
  5  6  2  0
  6  7  1  0
  6  8  1  0
  8  9  1  0
  9 10  1  0
 10 11  2  0
 10 12  1  0
 12 13  1  0
 13 14  1  0
  5 15  1  0
 15 16  1  0
 15 17  2  0
 17 18  1  0
 18 19  1  0
 18 20  1  0
 18 21  1  0
 17 22  1  0
 22 23  1  0
 23 24  2  0
 24 25  1  0
 24 26  1  0
 26 27  1  0
 26 28  2  0
 28 29  1  0
 28 30  1  0
 30 31  1  0
 31 32  1  1
 31 33  1  0
 33 34  1  0
 33 35  1  0
 33 36  1  0
 36 37  1  0
 36 38  1  0
 36 39  1  0
 39 40  1  0
 39 41  1  0
 39 42  1  0
 42 43  1  1
 42 44  1  0
 44 45  2  0
 44 46  1  0
 30 47  2  0
 47 48  1  0
 22  4  1  0
 47 23  1  0
 13  8  2  0
 42 31  1  0
M  CHG  5   9  -1  12  -1  14  -1  31   1  46  -1
M  END
>  <UniqueID>  (9) 
9

>  <SMILES>  (9) 
C=c1/c(=C\c2[n-]c(=O)[n-]c2[O-])cc(C)n1-c1cc(Cl)cc([N@@H+]2CCC[C@H]2C(=O)[O-])c1

>  <Energy>  (9) 
135.11650756669468

>  <Genealogy>  (9) 
C=c1c(=Cc2[n-]c(=O)[n-]c2[O-])cc(C)n1-c1cc(Cl)cc([NH+]2CCCC2C(=O)[O-])c1 (protonated)
C=c1c(=Cc2[n-]c(=O)[n-]c2[O-])cc(C)n1-c1cc(Cl)cc([N@@H+]2CCC[C@H]2C(=O)[O-])c1 (chirality)
C=c1/c(=C\c2[n-]c(=O)[n-]c2[O-])cc(C)n1-c1cc(Cl)cc([N@@H+]2CCC[C@H]2C(=O)[O-])c1 (cis-trans isomerization)
C=c1/c(=C\c2[n-]c(=O)[n-]c2[O-])cc(C)n1-c1cc(Cl)cc([N@@H+]2CCC[C@H]2C(=O)[O-])c1 (3D coordinates assigned)
C=c1/c(=C\c2[n-]c(=O)[n-]c2[O-])cc(C)n1-c1cc(Cl)cc([N@@H+]2CCC[C@H]2C(=O)[O-])c1 (nonaromatic ring conformer: 135.11650756669468 kcal/mol)

>  <smiles>  (9) 
C=c1c(=Cc2[nH]c(=O)[nH]c2O)cc(C)n1-c1cc(Cl)cc(N2CCCC2C(=O)O)c1

>  <score_type>  (9) 
oracle

>  <origin>  (9) 
adg

>  <m_score__min__energy>  (9) 
-15.91

>  <m_primary>  (9) 
energy

$$$$
9:0
     RDKit          3D

 66 70  0  0  0  0  0  0  0  0999 V2000
   55.1710   25.0000   46.0190 O   0  0  0  0  0  0  0  0  0  0  0  0
   56.1290   25.7110   45.6210 C   0  0  0  0  0  0  0  0  0  0  0  0
   56.1510   27.0960   45.9710 N   0  0  0  0  0  0  0  0  0  0  0  0
   57.0390   28.2850   45.0730 S   0  0  0  0  0  0  0  0  0  0  0  0
   56.0730   29.2820   44.4960 O   0  0  0  0  0  0  0  0  0  0  0  0
   57.7560   27.6090   43.9380 O   0  0  0  0  0  0  0  0  0  0  0  0
   58.1930   29.1430   46.0910 C   0  0  0  0  0  0  0  0  0  0  0  0
   59.3170   28.4800   46.6010 C   0  0  0  0  0  0  0  0  0  0  0  0
   60.2060   29.1520   47.4440 C   0  0  0  0  0  0  0  0  0  0  0  0
   59.9690   30.4850   47.8080 C   0  0  0  0  0  0  0  0  0  0  0  0
   60.9020   31.1600   48.6660 N   0  0  0  0  0  0  0  0  0  0  0  0
   62.0590   31.8570   48.1840 C   0  0  0  0  0  0  0  0  0  0  0  0
   62.0900   32.2950   47.0030 O   0  0  0  0  0  0  0  0  0  0  0  0
   63.1740   32.1650   49.0890 C   0  0  0  0  0  0  0  0  0  0  0  0
   64.4120   32.4720   48.6360 N   0  0  0  0  0  0  0  0  0  0  0  0
   65.1840   32.6170   49.7250 C   0  0  0  0  0  0  0  0  0  0  0  0
   66.5480   32.8920   49.7560 C   0  0  0  0  0  0  0  0  0  0  0  0
   67.1970   32.9400   51.0120 C   0  0  0  0  0  0  0  0  0  0  0  0
   68.6060   33.2180   51.0890 N   0  0  0  0  0  0  0  0  0  0  0  0
   69.3280   32.6220   51.9170 O   0  0  0  0  0  0  0  0  0  0  0  0
   69.1840   34.1380   50.2450 O   0  0  0  0  0  0  0  0  0  0  0  0
   66.4440   32.6970   52.1930 C   0  0  0  0  0  0  0  0  0  0  0  0
   65.0680   32.4160   52.1260 C   0  0  0  0  0  0  0  0  0  0  0  0
   64.4630   32.3970   50.8700 C   0  0  0  0  0  0  0  0  0  0  0  0
   63.1630   32.1160   50.4890 C   0  0  0  0  0  0  0  0  0  0  0  0
   61.9030   31.4980   51.5630 S   0  0  0  0  0  0  0  0  0  0  0  0
   61.6730   30.0470   51.2480 O   0  0  0  0  0  0  0  0  0  0  0  0
   62.3120   31.6060   53.0050 O   0  0  0  0  0  0  0  0  0  0  0  0
   60.4340   32.4010   51.2950 N   0  0  0  0  0  0  0  0  0  0  0  0
   60.3260   33.4780   52.2930 C   0  0  0  0  0  0  0  0  0  0  0  0
   58.9900   34.2090   52.1210 C   0  0  0  0  0  0  0  0  0  0  0  0
   57.9060   33.3110   52.2620 O   0  0  0  0  0  0  0  0  0  0  0  0
   57.9800   32.3110   51.2620 C   0  0  0  0  0  0  0  0  0  0  0  0
   59.2750   31.5010   51.3990 C   0  0  0  0  0  0  0  0  0  0  0  0
   58.8500   31.1520   47.2790 C   0  0  0  0  0  0  0  0  0  0  0  0
   57.9670   30.4830   46.4270 C   0  0  0  0  0  0  0  0  0  0  0  0
   57.1950   25.1400   44.8440 N   0  0  0  0  0  0  0  0  0  0  0  0
   57.1730   23.8150   44.2890 C   0  0  0  0  0  0  0  0  0  0  0  0
   56.3030   23.5350   43.2230 C   0  0  0  0  0  0  0  0  0  0  0  0
   56.2810   22.2640   42.6430 C   0  0  0  0  0  0  0  0  0  0  0  0
   57.1430   21.2660   43.1090 C   0  0  0  0  0  0  0  0  0  0  0  0
   58.0270   21.5410   44.1560 C   0  0  0  0  0  0  0  0  0  0  0  0
   58.0500   22.8110   44.7400 C   0  0  0  0  0  0  0  0  0  0  0  0
   59.5001   27.4279   46.3371 H   0  0  0  0  0  0  0  0  0  0  0  0
   61.0974   28.6318   47.8244 H   0  0  0  0  0  0  0  0  0  0  0  0
   60.7050   31.1910   49.6920 H   0  0  0  0  0  0  0  0  0  0  0  0
   64.7140   32.5570   47.6380 H   0  0  0  0  0  0  0  0  0  0  0  0
   67.1081   33.0679   48.8258 H   0  0  0  0  0  0  0  0  0  0  0  0
   66.9444   32.7292   53.1721 H   0  0  0  0  0  0  0  0  0  0  0  0
   64.4858   32.2170   53.0378 H   0  0  0  0  0  0  0  0  0  0  0  0
   60.3795   33.0469   53.3036 H   0  0  0  0  0  0  0  0  0  0  0  0
   61.1521   34.1904   52.1513 H   0  0  0  0  0  0  0  0  0  0  0  0
   58.9083   34.9962   52.8850 H   0  0  0  0  0  0  0  0  0  0  0  0
   58.9553   34.6493   51.1135 H   0  0  0  0  0  0  0  0  0  0  0  0
   57.1186   31.6345   51.3637 H   0  0  0  0  0  0  0  0  0  0  0  0
   57.9699   32.7968   50.2751 H   0  0  0  0  0  0  0  0  0  0  0  0
   59.2897   30.9969   52.3766 H   0  0  0  0  0  0  0  0  0  0  0  0
   59.3226   30.7502   50.5965 H   0  0  0  0  0  0  0  0  0  0  0  0
   58.6686   32.2058   47.5371 H   0  0  0  0  0  0  0  0  0  0  0  0
   57.0922   31.0108   46.0194 H   0  0  0  0  0  0  0  0  0  0  0  0
   58.0100   25.7420   44.6020 H   0  0  0  0  0  0  0  0  0  0  0  0
   55.6346   24.3212   42.8421 H   0  0  0  0  0  0  0  0  0  0  0  0
   55.5850   22.0481   41.8190 H   0  0  0  0  0  0  0  0  0  0  0  0
   57.1252   20.2656   42.6519 H   0  0  0  0  0  0  0  0  0  0  0  0
   58.7061   20.7565   44.5213 H   0  0  0  0  0  0  0  0  0  0  0  0
   58.7564   23.0264   45.5553 H   0  0  0  0  0  0  0  0  0  0  0  0
  1  2  2  0
  2  3  1  0
  3  4  1  0
  4  5  2  0
  4  6  2  0
  4  7  1  0
  7  8  2  0
  8  9  1  0
  9 10  2  0
 10 11  1  0
 11 12  1  0
 12 13  2  0
 12 14  1  0
 14 15  1  0
 15 16  1  0
 16 17  2  0
 17 18  1  0
 18 19  1  0
 19 20  2  0
 19 21  1  0
 18 22  2  0
 22 23  1  0
 23 24  2  0
 24 25  1  0
 25 26  1  0
 26 27  2  0
 26 28  2  0
 26 29  1  0
 29 30  1  0
 30 31  1  0
 31 32  1  0
 32 33  1  0
 33 34  1  0
 10 35  1  0
 35 36  2  0
  2 37  1  0
 37 38  1  0
 38 39  2  0
 39 40  1  0
 40 41  2  0
 41 42  1  0
 42 43  2  0
 36  7  1  0
 43 38  1  0
 25 14  2  0
 34 29  1  0
 24 16  1  0
  8 44  1  0
  9 45  1  0
 11 46  1  0
 15 47  1  0
 17 48  1  0
 22 49  1  0
 23 50  1  0
 30 51  1  0
 30 52  1  0
 31 53  1  0
 31 54  1  0
 33 55  1  0
 33 56  1  0
 34 57  1  0
 34 58  1  0
 35 59  1  0
 36 60  1  0
 37 61  1  0
 39 62  1  0
 40 63  1  0
 41 64  1  0
 42 65  1  0
 43 66  1  0
M  CHG  3   3  -1  19   1  21  -1
M  END
>  <UniqueID>  (10) 
10

>  <SMILES>  (10) 
O=C([N-]S(=O)(=O)c1ccc(NC(=O)c2[nH]c3cc([N+](=O)[O-])ccc3c2S(=O)(=O)N2CCOCC2)cc1)Nc1ccccc1

>  <Energy>  (10) 
124.9974429511031

>  <Genealogy>  (10) 
O=C([N-]S(=O)(=O)c1ccc(NC(=O)c2[nH]c3cc([N+](=O)[O-])ccc3c2S(=O)(=O)N2CCOCC2)cc1)Nc1ccccc1 (protonated)
O=C([N-]S(=O)(=O)c1ccc(NC(=O)c2[nH]c3cc([N+](=O)[O-])ccc3c2S(=O)(=O)N2CCOCC2)cc1)Nc1ccccc1 (3D coordinates assigned)
O=C([N-]S(=O)(=O)c1ccc(NC(=O)c2[nH]c3cc([N+](=O)[O-])ccc3c2S(=O)(=O)N2CCOCC2)cc1)Nc1ccccc1 (nonaromatic ring conformer: 124.9974429511031 kcal/mol)

>  <smiles>  (10) 
O=C(Nc1ccccc1)NS(=O)(=O)c1ccc(NC(=O)c2[nH]c3cc([N+](=O)[O-])ccc3c2S(=O)(=O)N2CCOCC2)cc1

>  <score_type>  (10) 
oracle

>  <origin>  (10) 
adg

>  <m_score__min__energy>  (10) 
-11.369999999999999

>  <m_primary>  (10) 
energy

$$$$
10:0
     RDKit          3D

 60 63  0  0  0  0  0  0  0  0999 V2000
   55.6650   26.9620   46.0030 N   0  0  0  0  0  0  0  0  0  0  0  0
   57.0920   27.0440   46.1160 C   0  0  0  0  0  0  0  0  0  0  0  0
   57.7420   26.3680   47.1580 C   0  0  0  0  0  0  0  0  0  0  0  0
   59.1310   26.4490   47.2930 C   0  0  0  0  0  0  0  0  0  0  0  0
   59.8780   27.2120   46.3920 C   0  0  0  0  0  0  0  0  0  0  0  0
   59.2400   27.8870   45.3480 C   0  0  0  0  0  0  0  0  0  0  0  0
   57.8480   27.7900   45.1880 C   0  0  0  0  0  0  0  0  0  0  0  0
   57.1850   28.5190   44.1460 N   0  0  0  0  0  0  0  0  0  0  0  0
   56.3920   29.7000   44.3150 C   0  0  0  0  0  0  0  0  0  0  0  0
   55.2750   29.5920   44.8880 O   0  0  0  0  0  0  0  0  0  0  0  0
   56.7820   31.0110   43.6750 C   0  0  0  0  0  0  0  0  0  0  0  0
   57.6910   31.8150   44.5710 C   0  0  0  0  0  0  0  0  0  0  0  0
   57.7670   33.2080   44.4340 C   0  0  0  0  0  0  0  0  0  0  0  0
   58.6450   33.9440   45.2330 C   0  0  0  0  0  0  0  0  0  0  0  0
   59.4730   33.2940   46.1540 C   0  0  0  0  0  0  0  0  0  0  0  0
   59.4290   31.8940   46.2830 C   0  0  0  0  0  0  0  0  0  0  0  0
   60.3210   31.1800   47.2290 C   0  0  0  0  0  0  0  0  0  0  0  0
   61.4140   30.7090   46.8000 O   0  0  0  0  0  0  0  0  0  0  0  0
   59.9760   31.0320   48.6290 N   0  0  0  0  0  0  0  0  0  0  0  0
   58.8540   30.0830   48.7840 C   0  0  0  0  0  0  0  0  0  0  0  0
   58.5460   29.8340   50.2770 C   0  0  0  0  0  0  0  0  0  0  0  0
   59.1580   30.8660   51.1470 N   0  0  0  0  0  0  0  0  0  0  0  0
   58.6460   30.7760   52.5300 C   0  0  0  0  0  0  0  0  0  0  0  0
   57.1940   30.3760   52.5150 C   0  0  0  0  0  0  0  0  0  0  0  0
   56.2300   31.2560   51.9920 C   0  0  0  0  0  0  0  0  0  0  0  0
   54.8760   30.9050   52.0040 C   0  0  0  0  0  0  0  0  0  0  0  0
   54.4740   29.6780   52.5450 C   0  0  0  0  0  0  0  0  0  0  0  0
   55.4260   28.8040   53.0780 C   0  0  0  0  0  0  0  0  0  0  0  0
   56.7810   29.1510   53.0650 C   0  0  0  0  0  0  0  0  0  0  0  0
   58.9310   32.2100   50.5840 C   0  0  0  0  0  0  0  0  0  0  0  0
   59.6400   32.3480   49.2180 C   0  0  0  0  0  0  0  0  0  0  0  0
   58.5190   31.1650   45.5000 C   0  0  0  0  0  0  0  0  0  0  0  0
   55.1020   26.3630   46.6510 H   0  0  0  0  0  0  0  0  0  0  0  0
   55.1560   27.4680   45.2430 H   0  0  0  0  0  0  0  0  0  0  0  0
   57.1564   25.7711   47.8727 H   0  0  0  0  0  0  0  0  0  0  0  0
   59.6362   25.9117   48.1091 H   0  0  0  0  0  0  0  0  0  0  0  0
   60.9700   27.2815   46.5046 H   0  0  0  0  0  0  0  0  0  0  0  0
   59.8305   28.4969   44.6485 H   0  0  0  0  0  0  0  0  0  0  0  0
   57.3036   30.8055   42.7286 H   0  0  0  0  0  0  0  0  0  0  0  0
   55.8665   31.5949   43.4990 H   0  0  0  0  0  0  0  0  0  0  0  0
   57.1340   33.7224   43.6959 H   0  0  0  0  0  0  0  0  0  0  0  0
   58.6854   35.0391   45.1375 H   0  0  0  0  0  0  0  0  0  0  0  0
   60.1616   33.8802   46.7802 H   0  0  0  0  0  0  0  0  0  0  0  0
   60.7950   30.6310   49.1440 H   0  0  0  0  0  0  0  0  0  0  0  0
   57.9602   30.4991   48.2963 H   0  0  0  0  0  0  0  0  0  0  0  0
   59.1352   29.1268   48.3186 H   0  0  0  0  0  0  0  0  0  0  0  0
   57.4557   29.8474   50.4223 H   0  0  0  0  0  0  0  0  0  0  0  0
   58.9711   28.8582   50.5547 H   0  0  0  0  0  0  0  0  0  0  0  0
   59.2257   30.0238   53.0851 H   0  0  0  0  0  0  0  0  0  0  0  0
   58.7460   31.7571   53.0173 H   0  0  0  0  0  0  0  0  0  0  0  0
   56.5417   32.2237   51.5720 H   0  0  0  0  0  0  0  0  0  0  0  0
   54.1262   31.5939   51.5878 H   0  0  0  0  0  0  0  0  0  0  0  0
   53.4093   29.4017   52.5507 H   0  0  0  0  0  0  0  0  0  0  0  0
   55.1092   27.8424   53.5081 H   0  0  0  0  0  0  0  0  0  0  0  0
   57.5267   28.4615   53.4874 H   0  0  0  0  0  0  0  0  0  0  0  0
   57.8509   32.3691   50.4496 H   0  0  0  0  0  0  0  0  0  0  0  0
   59.3401   32.9608   51.2761 H   0  0  0  0  0  0  0  0  0  0  0  0
   58.9756   32.8868   48.5264 H   0  0  0  0  0  0  0  0  0  0  0  0
   60.5796   32.8970   49.3782 H   0  0  0  0  0  0  0  0  0  0  0  0
   58.4543   30.0730   45.6159 H   0  0  0  0  0  0  0  0  0  0  0  0
  1  2  1  0
  2  3  2  0
  3  4  1  0
  4  5  2  0
  5  6  1  0
  6  7  2  0
  7  8  1  0
  8  9  1  0
  9 10  2  0
  9 11  1  0
 11 12  1  0
 12 13  2  0
 13 14  1  0
 14 15  2  0
 15 16  1  0
 16 17  1  0
 17 18  2  0
 17 19  1  0
 19 20  1  0
 20 21  1  0
 21 22  1  0
 22 23  1  0
 23 24  1  0
 24 25  2  0
 25 26  1  0
 26 27  2  0
 27 28  1  0
 28 29  2  0
 22 30  1  0
 30 31  1  0
 16 32  2  0
  7  2  1  0
 32 12  1  0
 31 19  1  0
 29 24  1  0
  1 33  1  0
  1 34  1  0
  3 35  1  0
  4 36  1  0
  5 37  1  0
  6 38  1  0
 11 39  1  0
 11 40  1  0
 13 41  1  0
 14 42  1  0
 15 43  1  0
 19 44  1  0
 20 45  1  0
 20 46  1  0
 21 47  1  0
 21 48  1  0
 23 49  1  0
 23 50  1  0
 25 51  1  0
 26 52  1  0
 27 53  1  0
 28 54  1  0
 29 55  1  0
 30 56  1  0
 30 57  1  0
 31 58  1  0
 31 59  1  0
 32 60  1  0
M  CHG  2   8  -1  19   1
M  END
>  <UniqueID>  (11) 
11

>  <SMILES>  (11) 
Nc1ccccc1[N-]C(=O)Cc1cccc(C(=O)[NH+]2CCN(Cc3ccccc3)CC2)c1

>  <Energy>  (11) 
82.46537987599976

>  <Genealogy>  (11) 
Nc1ccccc1[N-]C(=O)Cc1cccc(C(=O)[NH+]2CCN(Cc3ccccc3)CC2)c1 (protonated)
Nc1ccccc1[N-]C(=O)Cc1cccc(C(=O)[NH+]2CCN(Cc3ccccc3)CC2)c1 (3D coordinates assigned)
Nc1ccccc1[N-]C(=O)Cc1cccc(C(=O)[NH+]2CCN(Cc3ccccc3)CC2)c1 (nonaromatic ring conformer: 82.46537987599976 kcal/mol)

>  <smiles>  (11) 
Nc1ccccc1NC(=O)Cc1cccc(C(=O)N2CCN(Cc3ccccc3)CC2)c1

>  <score_type>  (11) 
oracle

>  <origin>  (11) 
adg

>  <m_score__min__energy>  (11) 
-10.91

>  <m_primary>  (11) 
energy

$$$$
11:0
     RDKit          3D

 49 51  0  0  0  0  0  0  0  0999 V2000
   54.7780   28.5450   44.5240 H   0  0  0  0  0  0  0  0  0  0  0  0
   55.7080   28.5290   44.9240 O   0  0  0  0  0  0  0  0  0  0  0  0
   56.1840   27.4160   45.6120 C   0  0  0  0  0  0  0  0  0  0  0  0
   55.3940   26.4160   46.0350 N   0  0  0  0  0  0  0  0  0  0  0  0
   56.2650   25.5850   46.6460 C   0  0  0  0  0  0  0  0  0  0  0  0
   55.9080   24.5080   47.1900 O   0  0  0  0  0  0  0  0  0  0  0  0
   57.5500   26.0020   46.6340 N   0  0  0  0  0  0  0  0  0  0  0  0
   57.4950   27.1620   45.9530 C   0  0  0  0  0  0  0  0  0  0  0  0
   58.6400   28.0740   45.7590 C   0  0  0  0  0  0  0  0  0  0  0  0
   59.5722   27.6325   45.3767 H   0  0  0  0  0  0  0  0  0  0  0  0
   58.6460   29.4090   46.0100 C   0  0  0  0  0  0  0  0  0  0  0  0
   58.5370   30.2650   44.8950 C   0  0  0  0  0  0  0  0  0  0  0  0
   58.6003   29.8380   43.8832 H   0  0  0  0  0  0  0  0  0  0  0  0
   58.3500   31.6460   45.0430 C   0  0  0  0  0  0  0  0  0  0  0  0
   58.1590   32.5020   43.8140 C   0  0  0  0  0  0  0  0  0  0  0  0
   57.4717   33.3270   44.0525 H   0  0  0  0  0  0  0  0  0  0  0  0
   59.1378   32.8965   43.5036 H   0  0  0  0  0  0  0  0  0  0  0  0
   57.5770   31.6820   42.6680 C   0  0  0  0  0  0  0  0  0  0  0  0
   56.9858   30.8491   43.0764 H   0  0  0  0  0  0  0  0  0  0  0  0
   56.9302   32.3225   42.0504 H   0  0  0  0  0  0  0  0  0  0  0  0
   58.3950   31.2828   42.0504 H   0  0  0  0  0  0  0  0  0  0  0  0
   58.2610   32.2050   46.3280 C   0  0  0  0  0  0  0  0  0  0  0  0
   57.9920   33.5810   46.4480 O   0  0  0  0  0  0  0  0  0  0  0  0
   58.9160   34.5830   46.8690 C   0  0  0  0  0  0  0  0  0  0  0  0
   58.6892   35.5262   46.3505 H   0  0  0  0  0  0  0  0  0  0  0  0
   58.8247   34.7186   47.9568 H   0  0  0  0  0  0  0  0  0  0  0  0
   60.3570   34.1560   46.5380 C   0  0  0  0  0  0  0  0  0  0  0  0
   60.3415   33.5769   45.6029 H   0  0  0  0  0  0  0  0  0  0  0  0
   60.9533   35.0763   46.4517 H   0  0  0  0  0  0  0  0  0  0  0  0
   60.9880   33.3290   47.5890 N   0  0  0  0  0  0  0  0  0  0  0  0
   61.3910   34.0690   48.8070 C   0  0  0  0  0  0  0  0  0  0  0  0
   61.0424   35.1087   48.7199 H   0  0  0  0  0  0  0  0  0  0  0  0
   60.9379   33.5624   49.6719 H   0  0  0  0  0  0  0  0  0  0  0  0
   62.9110   34.0750   49.0130 C   0  0  0  0  0  0  0  0  0  0  0  0
   63.1947   34.9559   49.6076 H   0  0  0  0  0  0  0  0  0  0  0  0
   63.2076   33.1571   49.5417 H   0  0  0  0  0  0  0  0  0  0  0  0
   63.5650   34.1230   47.7670 O   0  0  0  0  0  0  0  0  0  0  0  0
   63.4270   32.8790   47.1100 C   0  0  0  0  0  0  0  0  0  0  0  0
   63.7625   32.9962   46.0690 H   0  0  0  0  0  0  0  0  0  0  0  0
   64.0360   32.1508   47.6658 H   0  0  0  0  0  0  0  0  0  0  0  0
   61.9750   32.3430   47.0990 C   0  0  0  0  0  0  0  0  0  0  0  0
   61.7116   32.0673   46.0672 H   0  0  0  0  0  0  0  0  0  0  0  0
   61.9397   31.4787   47.7785 H   0  0  0  0  0  0  0  0  0  0  0  0
   58.4540   31.3790   47.4490 C   0  0  0  0  0  0  0  0  0  0  0  0
   58.3945   31.8166   48.4565 H   0  0  0  0  0  0  0  0  0  0  0  0
   58.7220   30.0030   47.3100 C   0  0  0  0  0  0  0  0  0  0  0  0
   59.1640   29.3470   48.3980 C   0  0  0  0  0  0  0  0  0  0  0  0
   59.3870   28.2715   48.3389 H   0  0  0  0  0  0  0  0  0  0  0  0
   59.3025   29.8861   49.3468 H   0  0  0  0  0  0  0  0  0  0  0  0
  1  2  1  0
  2  3  1  0
  3  4  1  0
  4  5  1  0
  5  6  2  0
  5  7  1  0
  7  8  1  0
  8  9  1  0
  9 10  1  0
  9 11  2  0
 11 12  1  0
 12 13  1  0
 12 14  2  0
 14 15  1  0
 15 16  1  0
 15 17  1  0
 15 18  1  0
 18 19  1  0
 18 20  1  0
 18 21  1  0
 14 22  1  0
 22 23  1  0
 23 24  1  0
 24 25  1  0
 24 26  1  0
 24 27  1  0
 27 28  1  0
 27 29  1  0
 27 30  1  0
 30 31  1  0
 31 32  1  0
 31 33  1  0
 31 34  1  0
 34 35  1  0
 34 36  1  0
 34 37  1  0
 37 38  1  0
 38 39  1  0
 38 40  1  0
 38 41  1  0
 41 42  1  0
 41 43  1  0
 22 44  2  0
 44 45  1  0
 44 46  1  0
 46 47  2  0
 47 48  1  0
 47 49  1  0
  8  3  2  0
 46 11  1  0
 41 30  1  0
M  CHG  2   4  -1   7  -1
M  END
>  <UniqueID>  (12) 
12

>  <SMILES>  (12) 
C=c1cc(OCCN2CCOCC2)c(CC)c/c1=C/c1[n-]c(=O)[n-]c1O

>  <Energy>  (12) 
110.61095973988992

>  <Genealogy>  (12) 
C=c1cc(OCCN2CCOCC2)c(CC)cc1=Cc1[n-]c(=O)[n-]c1O (protonated)
C=c1cc(OCCN2CCOCC2)c(CC)c/c1=C/c1[n-]c(=O)[n-]c1O (cis-trans isomerization)
C=c1cc(OCCN2CCOCC2)c(CC)c/c1=C/c1[n-]c(=O)[n-]c1O (3D coordinates assigned)
C=c1cc(OCCN2CCOCC2)c(CC)c/c1=C/c1[n-]c(=O)[n-]c1O (nonaromatic ring conformer: 110.61095973988992 kcal/mol)

>  <smiles>  (12) 
C=c1cc(OCCN2CCOCC2)c(CC)cc1=Cc1[nH]c(=O)[nH]c1O

>  <score_type>  (12) 
oracle

>  <origin>  (12) 
adg

>  <m_score__min__energy>  (12) 
-12.76

>  <m_primary>  (12) 
energy

$$$$
12:0
     RDKit          3D

 49 52  0  0  0  0  0  0  0  0999 V2000
   59.8720   28.5660   44.9640 C   0  0  0  0  0  0  0  0  0  0  0  0
   58.5670   28.3110   45.1520 C   0  0  0  0  0  0  0  0  0  0  0  0
   58.0240   27.1660   45.7520 C   0  0  0  0  0  0  0  0  0  0  0  0
   58.6960   26.1280   46.2890 C   0  0  0  0  0  0  0  0  0  0  0  0
   58.0470   24.8840   46.7390 C   0  0  0  0  0  0  0  0  0  0  0  0
   57.0860   24.8560   47.6780 N   0  0  0  0  0  0  0  0  0  0  0  0
   56.8140   23.5400   47.8100 C   0  0  0  0  0  0  0  0  0  0  0  0
   55.9400   23.1050   48.6030 O   0  0  0  0  0  0  0  0  0  0  0  0
   57.5580   22.7280   47.0300 N   0  0  0  0  0  0  0  0  0  0  0  0
   58.3460   23.5880   46.3670 C   0  0  0  0  0  0  0  0  0  0  0  0
   59.3400   23.1840   45.4790 O   0  0  0  0  0  0  0  0  0  0  0  0
   56.6440   27.3260   45.7290 C   0  0  0  0  0  0  0  0  0  0  0  0
   56.4090   28.5350   45.1150 C   0  0  0  0  0  0  0  0  0  0  0  0
   55.1450   29.0690   44.8830 O   0  0  0  0  0  0  0  0  0  0  0  0
   57.5630   29.1410   44.7650 N   0  0  0  0  0  0  0  0  0  0  0  0
   57.6680   30.4110   44.0340 C   0  0  0  0  0  0  0  0  0  0  0  0
   57.8550   31.5570   44.9950 C   0  0  0  0  0  0  0  0  0  0  0  0
   57.0780   32.7210   44.8810 C   0  0  0  0  0  0  0  0  0  0  0  0
   57.2410   33.7670   45.7920 C   0  0  0  0  0  0  0  0  0  0  0  0
   58.1840   33.6650   46.8180 C   0  0  0  0  0  0  0  0  0  0  0  0
   58.9850   32.5180   46.9340 C   0  0  0  0  0  0  0  0  0  0  0  0
   59.9790   32.3940   48.0250 C   0  0  0  0  0  0  0  0  0  0  0  0
   59.7350   31.6150   48.9880 O   0  0  0  0  0  0  0  0  0  0  0  0
   61.2200   33.1280   48.0090 N   0  0  0  0  0  0  0  0  0  0  0  0
   61.9280   33.4140   46.7590 C   0  0  0  0  0  0  0  0  0  0  0  0
   63.4270   33.1690   46.9560 C   0  0  0  0  0  0  0  0  0  0  0  0
   63.9110   33.8850   48.0770 O   0  0  0  0  0  0  0  0  0  0  0  0
   63.3090   33.3920   49.2610 C   0  0  0  0  0  0  0  0  0  0  0  0
   61.7970   33.6490   49.2530 C   0  0  0  0  0  0  0  0  0  0  0  0
   58.8070   31.4620   46.0240 C   0  0  0  0  0  0  0  0  0  0  0  0
   60.1852   29.5025   44.4793 H   0  0  0  0  0  0  0  0  0  0  0  0
   60.6278   27.8384   45.2947 H   0  0  0  0  0  0  0  0  0  0  0  0
   59.7873   26.2143   46.3970 H   0  0  0  0  0  0  0  0  0  0  0  0
   59.2210   22.3780   44.8790 H   0  0  0  0  0  0  0  0  0  0  0  0
   55.8911   26.6272   46.1223 H   0  0  0  0  0  0  0  0  0  0  0  0
   58.5295   30.3661   43.3515 H   0  0  0  0  0  0  0  0  0  0  0  0
   56.7414   30.5717   43.4634 H   0  0  0  0  0  0  0  0  0  0  0  0
   56.3385   32.8093   44.0715 H   0  0  0  0  0  0  0  0  0  0  0  0
   56.6251   34.6739   45.7015 H   0  0  0  0  0  0  0  0  0  0  0  0
   58.2994   34.4879   47.5387 H   0  0  0  0  0  0  0  0  0  0  0  0
   61.5497   32.7547   45.9638 H   0  0  0  0  0  0  0  0  0  0  0  0
   61.7615   34.4633   46.4741 H   0  0  0  0  0  0  0  0  0  0  0  0
   63.5990   32.0940   47.1132 H   0  0  0  0  0  0  0  0  0  0  0  0
   63.9614   33.5155   46.0592 H   0  0  0  0  0  0  0  0  0  0  0  0
   63.4901   32.3094   49.3335 H   0  0  0  0  0  0  0  0  0  0  0  0
   63.7500   33.9134   50.1234 H   0  0  0  0  0  0  0  0  0  0  0  0
   61.3342   33.1421   50.1126 H   0  0  0  0  0  0  0  0  0  0  0  0
   61.6081   34.7306   49.3205 H   0  0  0  0  0  0  0  0  0  0  0  0
   59.4187   30.5526   46.1182 H   0  0  0  0  0  0  0  0  0  0  0  0
  1  2  2  0
  2  3  1  0
  3  4  2  3
  4  5  1  0
  5  6  1  0
  6  7  1  0
  7  8  2  0
  7  9  1  0
  9 10  1  0
 10 11  1  0
  3 12  1  0
 12 13  2  0
 13 14  1  0
 13 15  1  0
 15 16  1  0
 16 17  1  0
 17 18  2  0
 18 19  1  0
 19 20  2  0
 20 21  1  0
 21 22  1  0
 22 23  2  0
 22 24  1  0
 24 25  1  0
 25 26  1  0
 26 27  1  0
 27 28  1  0
 28 29  1  0
 21 30  2  0
 15  2  1  0
 30 17  1  0
 10  5  2  0
 29 24  1  0
  1 31  1  0
  1 32  1  0
  4 33  1  0
 11 34  1  0
 12 35  1  0
 16 36  1  0
 16 37  1  0
 18 38  1  0
 19 39  1  0
 20 40  1  0
 25 41  1  0
 25 42  1  0
 26 43  1  0
 26 44  1  0
 28 45  1  0
 28 46  1  0
 29 47  1  0
 29 48  1  0
 30 49  1  0
M  CHG  3   6  -1   9  -1  14  -1
M  END
>  <UniqueID>  (13) 
13

>  <SMILES>  (13) 
C=c1c(=Cc2[n-]c(=O)[n-]c2O)cc([O-])n1Cc1cccc(C(=O)N2CCOCC2)c1

>  <Energy>  (13) 
124.06600705387714

>  <Genealogy>  (13) 
C=c1c(=Cc2[n-]c(=O)[n-]c2O)cc([O-])n1Cc1cccc(C(=O)N2CCOCC2)c1 (protonated)
C=c1c(=Cc2[n-]c(=O)[n-]c2O)cc([O-])n1Cc1cccc(C(=O)N2CCOCC2)c1 (3D coordinates assigned)
C=c1c(=Cc2[n-]c(=O)[n-]c2O)cc([O-])n1Cc1cccc(C(=O)N2CCOCC2)c1 (nonaromatic ring conformer: 124.06600705387714 kcal/mol)

>  <smiles>  (13) 
C=c1c(=Cc2[nH]c(=O)[nH]c2O)cc(O)n1Cc1cccc(C(=O)N2CCOCC2)c1

>  <score_type>  (13) 
oracle

>  <origin>  (13) 
adg

>  <m_score__min__energy>  (13) 
-15.199999999999999

>  <m_primary>  (13) 
energy

$$$$
13:0
     RDKit          3D

 55 58  0  0  0  0  0  0  0  0999 V2000
   63.1120   34.2020   46.3740 C   0  0  0  0  0  0  0  0  0  0  0  0
   62.0330   33.9910   47.3460 N   0  0  0  0  0  0  0  0  0  0  0  0
   62.4040   33.6930   48.7410 C   0  0  0  0  0  0  0  0  0  0  0  0
   61.2540   34.0160   49.6970 C   0  0  0  0  0  0  0  0  0  0  0  0
   60.0400   33.3340   49.2330 N   0  0  0  0  0  0  0  0  0  0  0  0
   59.4440   32.2440   49.9810 C   0  0  0  0  0  0  0  0  0  0  0  0
   58.6770   32.4830   50.9590 O   0  0  0  0  0  0  0  0  0  0  0  0
   59.6820   30.8380   49.6230 C   0  0  0  0  0  0  0  0  0  0  0  0
   60.8480   30.1940   50.0560 C   0  0  0  0  0  0  0  0  0  0  0  0
   61.0480   28.8400   49.7700 C   0  0  0  0  0  0  0  0  0  0  0  0
   60.0870   28.1170   49.0400 C   0  0  0  0  0  0  0  0  0  0  0  0
   60.2840   26.6450   48.7790 C   0  0  0  0  0  0  0  0  0  0  0  0
   60.6800   26.3840   47.3960 N   0  0  0  0  0  0  0  0  0  0  0  0
   59.7950   26.2780   46.2720 C   0  0  0  0  0  0  0  0  0  0  0  0
   59.6580   25.1590   45.7100 O   0  0  0  0  0  0  0  0  0  0  0  0
   59.0150   27.4300   45.7770 C   0  0  0  0  0  0  0  0  0  0  0  0
   59.7120   28.5740   45.3580 C   0  0  0  0  0  0  0  0  0  0  0  0
   59.0230   29.6950   44.8970 C   0  0  0  0  0  0  0  0  0  0  0  0
   57.6300   29.6840   44.8390 C   0  0  0  0  0  0  0  0  0  0  0  0
   56.9150   28.5520   45.2400 C   0  0  0  0  0  0  0  0  0  0  0  0
   55.5280   28.5820   45.1680 O   0  0  0  0  0  0  0  0  0  0  0  0
   57.5940   27.4090   45.7170 C   0  0  0  0  0  0  0  0  0  0  0  0
   56.6570   25.9720   46.1980 S   0  0  0  0  0  0  0  0  0  0  0  0
   54.9690   26.3410   46.1240 N   0  0  0  0  0  0  0  0  0  0  0  0
   56.9570   24.8090   45.2960 O   0  0  0  0  0  0  0  0  0  0  0  0
   57.0050   25.5660   47.6000 O   0  0  0  0  0  0  0  0  0  0  0  0
   58.9190   28.7690   48.6080 C   0  0  0  0  0  0  0  0  0  0  0  0
   58.7200   30.1240   48.8940 C   0  0  0  0  0  0  0  0  0  0  0  0
   59.6430   33.6140   47.8770 C   0  0  0  0  0  0  0  0  0  0  0  0
   58.2880   33.6240   47.5000 C   0  0  0  0  0  0  0  0  0  0  0  0
   57.9250   33.8970   46.1810 C   0  0  0  0  0  0  0  0  0  0  0  0
   58.9070   34.1840   45.2320 C   0  0  0  0  0  0  0  0  0  0  0  0
   60.2560   34.2100   45.5990 C   0  0  0  0  0  0  0  0  0  0  0  0
   60.6430   33.9320   46.9260 C   0  0  0  0  0  0  0  0  0  0  0  0
   64.0557   34.3865   46.9081 H   0  0  0  0  0  0  0  0  0  0  0  0
   63.2169   33.3074   45.7426 H   0  0  0  0  0  0  0  0  0  0  0  0
   62.8722   35.0703   45.7426 H   0  0  0  0  0  0  0  0  0  0  0  0
   62.6531   32.6250   48.8263 H   0  0  0  0  0  0  0  0  0  0  0  0
   63.2699   34.3145   49.0130 H   0  0  0  0  0  0  0  0  0  0  0  0
   61.5077   33.6689   50.7095 H   0  0  0  0  0  0  0  0  0  0  0  0
   61.0839   35.1025   49.7195 H   0  0  0  0  0  0  0  0  0  0  0  0
   61.6072   30.7540   50.6217 H   0  0  0  0  0  0  0  0  0  0  0  0
   61.9623   28.3371   50.1179 H   0  0  0  0  0  0  0  0  0  0  0  0
   61.0686   26.2667   49.4508 H   0  0  0  0  0  0  0  0  0  0  0  0
   59.3261   26.1357   48.9609 H   0  0  0  0  0  0  0  0  0  0  0  0
   60.8114   28.5862   45.3937 H   0  0  0  0  0  0  0  0  0  0  0  0
   59.5791   30.5891   44.5787 H   0  0  0  0  0  0  0  0  0  0  0  0
   57.0907   30.5712   44.4756 H   0  0  0  0  0  0  0  0  0  0  0  0
   54.7670   26.6900   45.1600 H   0  0  0  0  0  0  0  0  0  0  0  0
   58.1580   28.2113   48.0425 H   0  0  0  0  0  0  0  0  0  0  0  0
   57.8073   30.6302   48.5464 H   0  0  0  0  0  0  0  0  0  0  0  0
   57.5102   33.4154   48.2494 H   0  0  0  0  0  0  0  0  0  0  0  0
   56.8645   33.8860   45.8890 H   0  0  0  0  0  0  0  0  0  0  0  0
   58.6186   34.3907   44.1908 H   0  0  0  0  0  0  0  0  0  0  0  0
   61.0216   34.4493   44.8463 H   0  0  0  0  0  0  0  0  0  0  0  0
  1  2  1  0
  2  3  1  0
  3  4  1  0
  4  5  1  0
  5  6  1  0
  6  7  2  0
  6  8  1  0
  8  9  2  0
  9 10  1  0
 10 11  2  0
 11 12  1  0
 12 13  1  0
 13 14  1  0
 14 15  2  0
 14 16  1  0
 16 17  2  0
 17 18  1  0
 18 19  2  0
 19 20  1  0
 20 21  1  0
 20 22  2  0
 22 23  1  0
 23 24  1  0
 23 25  2  0
 23 26  2  0
 11 27  1  0
 27 28  2  0
  5 29  1  0
 29 30  2  0
 30 31  1  0
 31 32  2  0
 32 33  1  0
 33 34  2  0
 34  2  1  0
 28  8  1  0
 34 29  1  0
 22 16  1  0
  1 35  1  0
  1 36  1  0
  1 37  1  0
  3 38  1  0
  3 39  1  0
  4 40  1  0
  4 41  1  0
  9 42  1  0
 10 43  1  0
 12 44  1  0
 12 45  1  0
 17 46  1  0
 18 47  1  0
 19 48  1  0
 24 49  1  0
 27 50  1  0
 28 51  1  0
 30 52  1  0
 31 53  1  0
 32 54  1  0
 33 55  1  0
M  CHG  3  13  -1  21  -1  24  -1
M  END
>  <UniqueID>  (14) 
14

>  <SMILES>  (14) 
CN1CCN(C(=O)c2ccc(C[N-]C(=O)c3cccc([O-])c3S([NH-])(=O)=O)cc2)c2ccccc21

>  <Energy>  (14) 
77.91250286185908

>  <Genealogy>  (14) 
CN1CCN(C(=O)c2ccc(C[N-]C(=O)c3cccc([O-])c3S([NH-])(=O)=O)cc2)c2ccccc21 (protonated)
CN1CCN(C(=O)c2ccc(C[N-]C(=O)c3cccc([O-])c3S([NH-])(=O)=O)cc2)c2ccccc21 (3D coordinates assigned)
CN1CCN(C(=O)c2ccc(C[N-]C(=O)c3cccc([O-])c3S([NH-])(=O)=O)cc2)c2ccccc21 (nonaromatic ring conformer: 77.91250286185908 kcal/mol)

>  <smiles>  (14) 
CN1CCN(C(=O)c2ccc(CNC(=O)c3cccc(O)c3S(N)(=O)=O)cc2)c2ccccc21

>  <score_type>  (14) 
oracle

>  <origin>  (14) 
adg

>  <m_score__min__energy>  (14) 
-17.260000000000002

>  <m_primary>  (14) 
energy

$$$$
14:0
     RDKit          3D

 43 45  0  0  0  0  0  0  0  0999 V2000
   55.3200   22.0610   46.1630 C   0  0  0  0  0  0  0  0  0  0  0  0
   54.7750   23.4490   45.1910 S   0  0  0  0  0  0  0  0  0  0  0  0
   55.4750   23.4660   43.8610 O   0  0  0  0  0  0  0  0  0  0  0  0
   53.2960   23.3230   44.9570 O   0  0  0  0  0  0  0  0  0  0  0  0
   55.0790   24.9300   46.0410 N   0  0  0  0  0  0  0  0  0  0  0  0
   56.3120   25.6640   46.0360 C   0  0  0  0  0  0  0  0  0  0  0  0
   57.5630   25.0310   46.1410 C   0  0  0  0  0  0  0  0  0  0  0  0
   58.7370   25.7870   46.1110 C   0  0  0  0  0  0  0  0  0  0  0  0
   58.6760   27.1760   45.9860 C   0  0  0  0  0  0  0  0  0  0  0  0
   57.4360   27.8260   45.9030 C   0  0  0  0  0  0  0  0  0  0  0  0
   57.4000   29.2560   45.7520 N   0  0  0  0  0  0  0  0  0  0  0  0
   56.5100   29.9530   44.8700 C   0  0  0  0  0  0  0  0  0  0  0  0
   55.5780   29.3390   44.2820 O   0  0  0  0  0  0  0  0  0  0  0  0
   56.6990   31.3560   44.6540 N   0  0  0  0  0  0  0  0  0  0  0  0
   57.7020   32.1700   45.2800 C   0  0  0  0  0  0  0  0  0  0  0  0
   58.8880   31.5620   45.7080 C   0  0  0  0  0  0  0  0  0  0  0  0
   59.8850   32.3170   46.3330 C   0  0  0  0  0  0  0  0  0  0  0  0
   59.7090   33.6880   46.5460 C   0  0  0  0  0  0  0  0  0  0  0  0
   60.7330   34.4050   47.1830 O   0  0  0  0  0  0  0  0  0  0  0  0
   61.4850   33.9460   48.2720 C   0  0  0  0  0  0  0  0  0  0  0  0
   62.8210   33.5930   48.0780 C   0  0  0  0  0  0  0  0  0  0  0  0
   63.5650   33.1610   49.1780 C   0  0  0  0  0  0  0  0  0  0  0  0
   64.7700   32.8280   49.0360 O   0  0  0  0  0  0  0  0  0  0  0  0
   62.9850   33.0970   50.4040 N   0  0  0  0  0  0  0  0  0  0  0  0
   61.6850   33.4530   50.5800 C   0  0  0  0  0  0  0  0  0  0  0  0
   60.9480   33.8780   49.5220 N   0  0  0  0  0  0  0  0  0  0  0  0
   58.4970   34.2920   46.1640 C   0  0  0  0  0  0  0  0  0  0  0  0
   57.4970   33.5390   45.5380 C   0  0  0  0  0  0  0  0  0  0  0  0
   56.3120   34.1350   45.2530 F   0  0  0  0  0  0  0  0  0  0  0  0
   56.2580   27.0580   45.9090 C   0  0  0  0  0  0  0  0  0  0  0  0
   55.2253   22.3022   47.2320 H   0  0  0  0  0  0  0  0  0  0  0  0
   54.6998   21.1832   45.9288 H   0  0  0  0  0  0  0  0  0  0  0  0
   56.3718   21.8398   45.9288 H   0  0  0  0  0  0  0  0  0  0  0  0
   57.6173   23.9375   46.2471 H   0  0  0  0  0  0  0  0  0  0  0  0
   59.7134   25.2860   46.1862 H   0  0  0  0  0  0  0  0  0  0  0  0
   59.6052   27.7637   45.9524 H   0  0  0  0  0  0  0  0  0  0  0  0
   57.9900   29.8350   46.3920 H   0  0  0  0  0  0  0  0  0  0  0  0
   59.0365   30.4834   45.5516 H   0  0  0  0  0  0  0  0  0  0  0  0
   60.8151   31.8289   46.6597 H   0  0  0  0  0  0  0  0  0  0  0  0
   63.2785   33.6537   47.0795 H   0  0  0  0  0  0  0  0  0  0  0  0
   61.2300   33.3967   51.5799 H   0  0  0  0  0  0  0  0  0  0  0  0
   58.3344   35.3624   46.3585 H   0  0  0  0  0  0  0  0  0  0  0  0
   55.2828   27.5577   45.8128 H   0  0  0  0  0  0  0  0  0  0  0  0
  1  2  1  0
  2  3  2  0
  2  4  2  0
  2  5  1  0
  5  6  1  0
  6  7  2  0
  7  8  1  0
  8  9  2  0
  9 10  1  0
 10 11  1  0
 11 12  1  0
 12 13  2  0
 12 14  1  0
 14 15  1  0
 15 16  2  0
 16 17  1  0
 17 18  2  0
 18 19  1  0
 19 20  1  0
 20 21  2  0
 21 22  1  0
 22 23  2  0
 22 24  1  0
 24 25  1  0
 25 26  2  0
 18 27  1  0
 27 28  2  0
 28 29  1  0
 10 30  2  0
 30  6  1  0
 28 15  1  0
 26 20  1  0
  1 31  1  0
  1 32  1  0
  1 33  1  0
  7 34  1  0
  8 35  1  0
  9 36  1  0
 11 37  1  0
 16 38  1  0
 17 39  1  0
 21 40  1  0
 25 41  1  0
 27 42  1  0
 30 43  1  0
M  CHG  3   5  -1  14  -1  24  -1
M  END
>  <UniqueID>  (15) 
15

>  <SMILES>  (15) 
CS(=O)(=O)[N-]c1cccc(NC(=O)[N-]c2ccc(Oc3cc(=O)[n-]cn3)cc2F)c1

>  <Energy>  (15) 
59.2323345686205

>  <Genealogy>  (15) 
CS(=O)(=O)[N-]c1cccc(NC(=O)[N-]c2ccc(Oc3cc(=O)[n-]cn3)cc2F)c1 (protonated)
CS(=O)(=O)[N-]c1cccc(NC(=O)[N-]c2ccc(Oc3cc(=O)[n-]cn3)cc2F)c1 (3D coordinates assigned)
CS(=O)(=O)[N-]c1cccc(NC(=O)[N-]c2ccc(Oc3cc(=O)[n-]cn3)cc2F)c1 (optimized conformer: 59.2323345686205 kcal/mol)

>  <smiles>  (15) 
CS(=O)(=O)Nc1cccc(NC(=O)Nc2ccc(Oc3cc(=O)[nH]cn3)cc2F)c1

>  <score_type>  (15) 
oracle

>  <origin>  (15) 
adg

>  <m_score__min__energy>  (15) 
-12.65

>  <m_primary>  (15) 
energy

$$$$
15:0
     RDKit          3D

 50 53  0  0  0  0  0  0  0  0999 V2000
   60.8191   26.7123   46.3699 H   0  0  0  0  0  0  0  0  0  0  0  0
   59.7670   26.9920   46.2120 C   0  0  0  0  0  0  0  0  0  0  0  0
   59.3590   28.1850   46.6730 C   0  0  0  0  0  0  0  0  0  0  0  0
   59.2900   28.6440   48.4150 S   0  0  0  0  0  0  0  0  0  0  0  0
   58.9990   30.3510   47.9010 C   0  0  0  0  0  0  0  0  0  0  0  0
   58.8630   31.3460   48.7290 N   0  0  0  0  0  0  0  0  0  0  0  0
   59.9140   32.1860   49.2280 C   0  0  0  0  0  0  0  0  0  0  0  0
   59.7020   33.0670   50.3020 C   0  0  0  0  0  0  0  0  0  0  0  0
   58.7019   33.1532   50.7518 H   0  0  0  0  0  0  0  0  0  0  0  0
   60.7590   33.8340   50.8000 C   0  0  0  0  0  0  0  0  0  0  0  0
   60.5854   34.5332   51.6313 H   0  0  0  0  0  0  0  0  0  0  0  0
   62.0350   33.7150   50.2450 C   0  0  0  0  0  0  0  0  0  0  0  0
   62.8639   34.3198   50.6413 H   0  0  0  0  0  0  0  0  0  0  0  0
   62.2630   32.8260   49.1830 C   0  0  0  0  0  0  0  0  0  0  0  0
   63.6440   32.6560   48.6230 C   0  0  0  0  0  0  0  0  0  0  0  0
   64.3659   32.5671   49.4482 H   0  0  0  0  0  0  0  0  0  0  0  0
   63.6797   31.7467   48.0051 H   0  0  0  0  0  0  0  0  0  0  0  0
   63.8992   33.5295   48.0051 H   0  0  0  0  0  0  0  0  0  0  0  0
   61.2030   32.0450   48.6980 C   0  0  0  0  0  0  0  0  0  0  0  0
   61.3857   31.3159   47.8949 H   0  0  0  0  0  0  0  0  0  0  0  0
   58.8300   30.5340   46.4960 N   0  0  0  0  0  0  0  0  0  0  0  0
   58.6660   31.8110   45.8580 C   0  0  0  0  0  0  0  0  0  0  0  0
   59.4880   32.8750   46.2590 C   0  0  0  0  0  0  0  0  0  0  0  0
   60.2762   32.7034   47.0069 H   0  0  0  0  0  0  0  0  0  0  0  0
   59.3140   34.1490   45.7170 C   0  0  0  0  0  0  0  0  0  0  0  0
   59.9653   34.9760   46.0363 H   0  0  0  0  0  0  0  0  0  0  0  0
   58.3150   34.3740   44.7710 C   0  0  0  0  0  0  0  0  0  0  0  0
   58.1718   35.3811   44.3525 H   0  0  0  0  0  0  0  0  0  0  0  0
   57.4960   33.3230   44.3540 C   0  0  0  0  0  0  0  0  0  0  0  0
   56.7103   33.5095   43.6071 H   0  0  0  0  0  0  0  0  0  0  0  0
   57.6640   32.0280   44.8780 C   0  0  0  0  0  0  0  0  0  0  0  0
   56.8090   30.9320   44.3580 C   0  0  0  0  0  0  0  0  0  0  0  0
   56.6440   30.7710   43.1200 O   0  0  0  0  0  0  0  0  0  0  0  0
   56.1480   30.0830   45.2380 O   0  0  0  0  0  0  0  0  0  0  0  0
   59.0690   29.3190   45.7990 C   0  0  0  0  0  0  0  0  0  0  0  0
   59.0310   29.2410   44.5410 O   0  0  0  0  0  0  0  0  0  0  0  0
   58.8960   26.0310   45.5070 C   0  0  0  0  0  0  0  0  0  0  0  0
   58.9470   24.7190   45.8620 N   0  0  0  0  0  0  0  0  0  0  0  0
   58.1990   23.7800   45.2260 C   0  0  0  0  0  0  0  0  0  0  0  0
   58.2620   22.5770   45.5910 O   0  0  0  0  0  0  0  0  0  0  0  0
   57.3660   24.1660   44.1660 C   0  0  0  0  0  0  0  0  0  0  0  0
   56.3550   22.9590   43.2970 S   0  0  0  0  0  0  0  0  0  0  0  0
   54.8240   23.4610   44.1420 C   0  0  0  0  0  0  0  0  0  0  0  0
   54.9732   23.4121   45.2307 H   0  0  0  0  0  0  0  0  0  0  0  0
   54.5664   24.4907   43.8531 H   0  0  0  0  0  0  0  0  0  0  0  0
   54.0068   22.7838   43.8531 H   0  0  0  0  0  0  0  0  0  0  0  0
   57.3310   25.4740   43.7910 N   0  0  0  0  0  0  0  0  0  0  0  0
   56.7260   25.7670   42.9930 H   0  0  0  0  0  0  0  0  0  0  0  0
   58.0830   26.4100   44.4290 C   0  0  0  0  0  0  0  0  0  0  0  0
   58.0538   27.4596   44.1011 H   0  0  0  0  0  0  0  0  0  0  0  0
  1  2  1  0
  2  3  2  0
  3  4  1  0
  4  5  1  0
  5  6  2  3
  6  7  1  0
  7  8  2  0
  8  9  1  0
  8 10  1  0
 10 11  1  0
 10 12  2  0
 12 13  1  0
 12 14  1  0
 14 15  1  0
 15 16  1  0
 15 17  1  0
 15 18  1  0
 14 19  2  0
 19 20  1  0
  5 21  1  0
 21 22  1  0
 22 23  2  0
 23 24  1  0
 23 25  1  0
 25 26  1  0
 25 27  2  0
 27 28  1  0
 27 29  1  0
 29 30  1  0
 29 31  2  0
 31 32  1  0
 32 33  2  0
 32 34  1  0
 21 35  1  0
 35 36  2  0
  2 37  1  0
 37 38  1  0
 38 39  1  0
 39 40  2  0
 39 41  1  0
 41 42  1  0
 42 43  1  0
 43 44  1  0
 43 45  1  0
 43 46  1  0
 41 47  2  0
 47 48  1  0
 47 49  1  0
 49 50  1  0
 35  3  1  0
 49 37  2  0
 19  7  1  0
 31 22  1  0
M  CHG  3  34  -1  38  -1  47   1
M  END
>  <UniqueID>  (16) 
16

>  <SMILES>  (16) 
CSc1[nH+]cc(/C=C2\SC(=Nc3cccc(C)c3)N(c3ccccc3C(=O)[O-])C2=O)[n-]c1=O

>  <Energy>  (16) 
91.94928707847781

>  <Genealogy>  (16) 
CSc1[nH+]cc(C=C2SC(=Nc3cccc(C)c3)N(c3ccccc3C(=O)[O-])C2=O)[n-]c1=O (protonated)
CSc1[nH+]cc(/C=C2\SC(=Nc3cccc(C)c3)N(c3ccccc3C(=O)[O-])C2=O)[n-]c1=O (cis-trans isomerization)
CSc1[nH+]cc(/C=C2\SC(=Nc3cccc(C)c3)N(c3ccccc3C(=O)[O-])C2=O)[n-]c1=O (3D coordinates assigned)
CSc1[nH+]cc(/C=C2\SC(=Nc3cccc(C)c3)N(c3ccccc3C(=O)[O-])C2=O)[n-]c1=O (nonaromatic ring conformer: 91.94928707847781 kcal/mol)

>  <smiles>  (16) 
CSc1ncc(C=C2SC(=Nc3cccc(C)c3)N(c3ccccc3C(=O)O)C2=O)[nH]c1=O

>  <score_type>  (16) 
oracle

>  <origin>  (16) 
adg

>  <m_score__min__energy>  (16) 
-10.69

>  <m_primary>  (16) 
energy

$$$$
16:0
     RDKit          3D

 37 39  0  0  0  0  0  0  0  0999 V2000
   56.3943   25.1434   48.1778 H   0  0  0  0  0  0  0  0  0  0  0  0
   56.9600   25.2970   47.2470 C   0  0  0  0  0  0  0  0  0  0  0  0
   57.5660   24.2690   46.7210 N   0  0  0  0  0  0  0  0  0  0  0  0
   57.2270   23.6210   45.4840 C   0  0  0  0  0  0  0  0  0  0  0  0
   56.9500   24.4230   44.3690 C   0  0  0  0  0  0  0  0  0  0  0  0
   56.9730   25.5185   44.4658 H   0  0  0  0  0  0  0  0  0  0  0  0
   56.6450   23.8430   43.1360 C   0  0  0  0  0  0  0  0  0  0  0  0
   56.4464   24.4814   42.2625 H   0  0  0  0  0  0  0  0  0  0  0  0
   56.5920   22.4550   43.0110 C   0  0  0  0  0  0  0  0  0  0  0  0
   56.3696   21.9993   42.0348 H   0  0  0  0  0  0  0  0  0  0  0  0
   56.8210   21.6430   44.1240 C   0  0  0  0  0  0  0  0  0  0  0  0
   56.7747   20.5490   44.0194 H   0  0  0  0  0  0  0  0  0  0  0  0
   57.1100   22.2110   45.3760 C   0  0  0  0  0  0  0  0  0  0  0  0
   57.2870   21.2950   46.5560 C   0  0  0  0  0  0  0  0  0  0  0  0
   57.1758   21.8705   47.4868 H   0  0  0  0  0  0  0  0  0  0  0  0
   56.5255   20.5019   46.5220 H   0  0  0  0  0  0  0  0  0  0  0  0
   58.2891   20.8427   46.5220 H   0  0  0  0  0  0  0  0  0  0  0  0
   56.9880   26.6610   46.6650 C   0  0  0  0  0  0  0  0  0  0  0  0
   55.9160   27.1010   45.8810 C   0  0  0  0  0  0  0  0  0  0  0  0
   54.8260   26.2710   45.6430 O   0  0  0  0  0  0  0  0  0  0  0  0
   55.9250   28.3500   45.3620 N   0  0  0  0  0  0  0  0  0  0  0  0
   56.9630   29.1990   45.5700 C   0  0  0  0  0  0  0  0  0  0  0  0
   56.9210   30.3540   45.0670 O   0  0  0  0  0  0  0  0  0  0  0  0
   58.0480   28.7940   46.3040 N   0  0  0  0  0  0  0  0  0  0  0  0
   59.1500   29.6980   46.5190 C   0  0  0  0  0  0  0  0  0  0  0  0
   60.4550   29.3160   46.1680 C   0  0  0  0  0  0  0  0  0  0  0  0
   60.6370   28.3220   45.7335 H   0  0  0  0  0  0  0  0  0  0  0  0
   61.5240   30.1950   46.3690 C   0  0  0  0  0  0  0  0  0  0  0  0
   62.5444   29.8919   46.0915 H   0  0  0  0  0  0  0  0  0  0  0  0
   61.2970   31.4580   46.9220 C   0  0  0  0  0  0  0  0  0  0  0  0
   62.1390   32.1478   47.0807 H   0  0  0  0  0  0  0  0  0  0  0  0
   60.0000   31.8460   47.2740 C   0  0  0  0  0  0  0  0  0  0  0  0
   59.8224   32.8410   47.7081 H   0  0  0  0  0  0  0  0  0  0  0  0
   58.9290   30.9690   47.0740 C   0  0  0  0  0  0  0  0  0  0  0  0
   57.9100   31.2758   47.3524 H   0  0  0  0  0  0  0  0  0  0  0  0
   58.0840   27.5290   46.8320 C   0  0  0  0  0  0  0  0  0  0  0  0
   59.1070   27.1340   47.4580 O   0  0  0  0  0  0  0  0  0  0  0  0
  1  2  1  0
  2  3  2  0
  3  4  1  0
  4  5  2  0
  5  6  1  0
  5  7  1  0
  7  8  1  0
  7  9  2  0
  9 10  1  0
  9 11  1  0
 11 12  1  0
 11 13  2  0
 13 14  1  0
 14 15  1  0
 14 16  1  0
 14 17  1  0
  2 18  1  0
 18 19  2  0
 19 20  1  0
 19 21  1  0
 21 22  1  0
 22 23  2  0
 22 24  1  0
 24 25  1  0
 25 26  2  0
 26 27  1  0
 26 28  1  0
 28 29  1  0
 28 30  2  0
 30 31  1  0
 30 32  1  0
 32 33  1  0
 32 34  2  0
 34 35  1  0
 24 36  1  0
 36 37  2  0
 13  4  1  0
 36 18  1  0
 34 25  1  0
M  CHG  2  20  -1  21  -1
M  END
>  <UniqueID>  (17) 
17

>  <SMILES>  (17) 
Cc1ccccc1/N=C\c1c([O-])[n-]c(=O)n(-c2ccccc2)c1=O

>  <Energy>  (17) 
65.70581326402927

>  <Genealogy>  (17) 
Cc1ccccc1N=Cc1c([O-])[n-]c(=O)n(-c2ccccc2)c1=O (protonated)
Cc1ccccc1/N=C\c1c([O-])[n-]c(=O)n(-c2ccccc2)c1=O (cis-trans isomerization)
Cc1ccccc1/N=C\c1c([O-])[n-]c(=O)n(-c2ccccc2)c1=O (3D coordinates assigned)
Cc1ccccc1/N=C\c1c([O-])[n-]c(=O)n(-c2ccccc2)c1=O (optimized conformer: 65.70581326402927 kcal/mol)

>  <smiles>  (17) 
Cc1ccccc1N=Cc1c(O)[nH]c(=O)n(-c2ccccc2)c1=O

>  <score_type>  (17) 
oracle

>  <origin>  (17) 
adg

>  <m_score__min__energy>  (17) 
-11.640000000000001

>  <m_primary>  (17) 
energy

$$$$
17:0
     RDKit          3D

 51 54  0  0  0  0  0  0  0  0999 V2000
   51.4230   22.4250   48.0190 N   0  0  0  0  0  0  0  0  0  0  0  0
   52.4580   22.2390   48.5010 C   0  0  0  0  0  0  0  0  0  0  0  0
   53.7470   22.0080   49.1000 C   0  0  0  0  0  0  0  0  0  0  0  0
   53.8870   22.0410   50.4920 C   0  0  0  0  0  0  0  0  0  0  0  0
   55.1360   21.8070   51.0740 C   0  0  0  0  0  0  0  0  0  0  0  0
   56.2480   21.5500   50.2690 C   0  0  0  0  0  0  0  0  0  0  0  0
   56.1260   21.5340   48.8740 C   0  0  0  0  0  0  0  0  0  0  0  0
   57.2840   21.2250   48.0850 N   0  0  0  0  0  0  0  0  0  0  0  0
   57.3360   21.1850   46.6520 C   0  0  0  0  0  0  0  0  0  0  0  0
   58.2780   21.7470   46.0330 O   0  0  0  0  0  0  0  0  0  0  0  0
   56.3030   20.4200   45.8750 C   0  0  0  0  0  0  0  0  0  0  0  0
   55.5430   21.2870   44.9730 N   0  0  0  0  0  0  0  0  0  0  0  0
   55.3500   22.6920   45.2220 C   0  0  0  0  0  0  0  0  0  0  0  0
   56.4240   23.5110   45.3750 N   0  0  0  0  0  0  0  0  0  0  0  0
   56.2960   24.8240   45.6970 C   0  0  0  0  0  0  0  0  0  0  0  0
   57.4800   25.6040   45.9180 N   0  0  0  0  0  0  0  0  0  0  0  0
   57.5800   26.7310   46.6520 C   0  0  0  0  0  0  0  0  0  0  0  0
   58.9140   27.0780   46.7240 C   0  0  0  0  0  0  0  0  0  0  0  0
   59.5300   28.2230   47.4230 C   0  0  0  0  0  0  0  0  0  0  0  0
   60.0160   28.0300   48.5690 O   0  0  0  0  0  0  0  0  0  0  0  0
   59.5810   29.5440   46.8440 N   0  0  0  0  0  0  0  0  0  0  0  0
   60.6880   30.4370   47.2080 C   0  0  0  0  0  0  0  0  0  0  0  0
   60.4290   31.8480   46.6880 C   0  0  0  0  0  0  0  0  0  0  0  0
   59.0930   32.1990   46.9690 O   0  0  0  0  0  0  0  0  0  0  0  0
   58.2060   31.5030   46.1090 C   0  0  0  0  0  0  0  0  0  0  0  0
   58.5560   30.0080   45.8970 C   0  0  0  0  0  0  0  0  0  0  0  0
   59.5770   26.1130   45.9890 C   0  0  0  0  0  0  0  0  0  0  0  0
   58.6840   25.2150   45.5280 N   0  0  0  0  0  0  0  0  0  0  0  0
   55.0050   25.3620   45.8330 C   0  0  0  0  0  0  0  0  0  0  0  0
   54.8080   26.7110   46.1080 O   0  0  0  0  0  0  0  0  0  0  0  0
   53.9260   24.5510   45.6710 N   0  0  0  0  0  0  0  0  0  0  0  0
   54.0640   23.2320   45.3780 C   0  0  0  0  0  0  0  0  0  0  0  0
   53.0390   22.5120   45.2520 O   0  0  0  0  0  0  0  0  0  0  0  0
   54.8620   21.7450   48.2920 C   0  0  0  0  0  0  0  0  0  0  0  0
   53.0144   22.2510   51.1279 H   0  0  0  0  0  0  0  0  0  0  0  0
   55.2434   21.8253   52.1686 H   0  0  0  0  0  0  0  0  0  0  0  0
   57.2264   21.3588   50.7339 H   0  0  0  0  0  0  0  0  0  0  0  0
   56.8080   19.6444   45.2805 H   0  0  0  0  0  0  0  0  0  0  0  0
   55.5983   19.9749   46.5928 H   0  0  0  0  0  0  0  0  0  0  0  0
   55.1490   20.8590   44.1050 H   0  0  0  0  0  0  0  0  0  0  0  0
   56.7444   27.2781   47.1128 H   0  0  0  0  0  0  0  0  0  0  0  0
   60.7840   30.4668   48.3034 H   0  0  0  0  0  0  0  0  0  0  0  0
   61.6159   30.0560   46.7564 H   0  0  0  0  0  0  0  0  0  0  0  0
   61.1092   32.5555   47.1848 H   0  0  0  0  0  0  0  0  0  0  0  0
   60.6038   31.8836   45.6026 H   0  0  0  0  0  0  0  0  0  0  0  0
   57.1949   31.5615   46.5382 H   0  0  0  0  0  0  0  0  0  0  0  0
   58.2838   31.9850   45.1233 H   0  0  0  0  0  0  0  0  0  0  0  0
   57.6455   29.4066   46.0359 H   0  0  0  0  0  0  0  0  0  0  0  0
   58.9563   29.8931   44.8789 H   0  0  0  0  0  0  0  0  0  0  0  0
   60.6617   26.0828   45.8089 H   0  0  0  0  0  0  0  0  0  0  0  0
   54.7486   21.7034   47.1987 H   0  0  0  0  0  0  0  0  0  0  0  0
  1  2  3  0
  2  3  1  0
  3  4  2  0
  4  5  1  0
  5  6  2  0
  6  7  1  0
  7  8  1  0
  8  9  1  0
  9 10  2  0
  9 11  1  0
 11 12  1  0
 12 13  1  0
 13 14  2  0
 14 15  1  0
 15 16  1  0
 16 17  1  0
 17 18  2  0
 18 19  1  0
 19 20  2  0
 19 21  1  0
 21 22  1  0
 22 23  1  0
 23 24  1  0
 24 25  1  0
 25 26  1  0
 18 27  1  0
 27 28  2  0
 15 29  2  0
 29 30  1  0
 29 31  1  0
 31 32  1  0
 32 33  2  0
  7 34  2  0
 34  3  1  0
 32 13  1  0
 28 16  1  0
 26 21  1  0
  4 35  1  0
  5 36  1  0
  6 37  1  0
 11 38  1  0
 11 39  1  0
 12 40  1  0
 17 41  1  0
 22 42  1  0
 22 43  1  0
 23 44  1  0
 23 45  1  0
 25 46  1  0
 25 47  1  0
 26 48  1  0
 26 49  1  0
 27 50  1  0
 34 51  1  0
M  CHG  3   8  -1  30  -1  31  -1
M  END
>  <UniqueID>  (18) 
18

>  <SMILES>  (18) 
N#Cc1cccc([N-]C(=O)CNc2nc(-n3cc(C(=O)N4CCOCC4)cn3)c([O-])[n-]c2=O)c1

>  <Energy>  (18) 
96.39643568391254

>  <Genealogy>  (18) 
N#Cc1cccc([N-]C(=O)CNc2nc(-n3cc(C(=O)N4CCOCC4)cn3)c([O-])[n-]c2=O)c1 (protonated)
N#Cc1cccc([N-]C(=O)CNc2nc(-n3cc(C(=O)N4CCOCC4)cn3)c([O-])[n-]c2=O)c1 (3D coordinates assigned)
N#Cc1cccc([N-]C(=O)CNc2nc(-n3cc(C(=O)N4CCOCC4)cn3)c([O-])[n-]c2=O)c1 (nonaromatic ring conformer: 96.39643568391254 kcal/mol)

>  <smiles>  (18) 
N#Cc1cccc(NC(=O)CNc2nc(-n3cc(C(=O)N4CCOCC4)cn3)c(O)[nH]c2=O)c1

>  <score_type>  (18) 
oracle

>  <origin>  (18) 
adg

>  <m_score__min__energy>  (18) 
-14.789999999999999

>  <m_primary>  (18) 
energy

$$$$
18:0
     RDKit          3D

 53 56  0  0  0  0  0  0  0  0999 V2000
   59.4860   29.6390   51.7960 O   0  0  0  0  0  0  0  0  0  0  0  0
   58.4550   29.9880   52.4280 C   0  0  0  0  0  0  0  0  0  0  0  0
   58.5570   31.1160   53.4210 C   0  0  0  0  0  0  0  0  0  0  0  0
   59.1980   32.3030   52.8140 N   0  0  0  0  0  0  0  0  0  0  0  0
   58.6380   32.5670   51.4750 C   0  0  0  0  0  0  0  0  0  0  0  0
   59.2640   33.8260   50.8610 C   0  0  0  0  0  0  0  0  0  0  0  0
   60.7390   33.8040   50.8840 N   0  0  0  0  0  0  0  0  0  0  0  0
   61.4150   33.3720   49.6410 C   0  0  0  0  0  0  0  0  0  0  0  0
   60.4660   32.9780   48.5330 C   0  0  0  0  0  0  0  0  0  0  0  0
   59.8950   31.6950   48.5160 C   0  0  0  0  0  0  0  0  0  0  0  0
   59.0040   31.3340   47.5040 C   0  0  0  0  0  0  0  0  0  0  0  0
   58.6800   32.2450   46.4970 C   0  0  0  0  0  0  0  0  0  0  0  0
   59.2620   33.5220   46.4800 C   0  0  0  0  0  0  0  0  0  0  0  0
   58.8660   34.4950   45.3980 C   0  0  0  0  0  0  0  0  0  0  0  0
   59.4270   35.7290   45.6700 F   0  0  0  0  0  0  0  0  0  0  0  0
   59.2950   34.0760   44.1500 F   0  0  0  0  0  0  0  0  0  0  0  0
   57.4890   34.6220   45.3690 F   0  0  0  0  0  0  0  0  0  0  0  0
   60.1660   33.8790   47.4980 C   0  0  0  0  0  0  0  0  0  0  0  0
   61.3370   33.3430   52.1520 C   0  0  0  0  0  0  0  0  0  0  0  0
   60.6500   32.0860   52.7010 C   0  0  0  0  0  0  0  0  0  0  0  0
   57.1890   29.4370   52.0420 N   0  0  0  0  0  0  0  0  0  0  0  0
   56.0230   29.7660   52.5120 C   0  0  0  0  0  0  0  0  0  0  0  0
   55.8360   30.0560   53.8180 N   0  0  0  0  0  0  0  0  0  0  0  0
   54.5580   30.4470   54.0730 C   0  0  0  0  0  0  0  0  0  0  0  0
   53.7220   30.4680   52.9620 C   0  0  0  0  0  0  0  0  0  0  0  0
   52.3120   30.9630   52.9360 C   0  0  0  0  0  0  0  0  0  0  0  0
   51.8490   31.1110   51.5210 C   0  0  0  0  0  0  0  0  0  0  0  0
   51.8760   29.8900   50.3590 S   0  0  0  0  0  0  0  0  0  0  0  0
   51.1280   30.8610   49.2070 C   0  0  0  0  0  0  0  0  0  0  0  0
   50.8560   30.4890   48.0360 O   0  0  0  0  0  0  0  0  0  0  0  0
   50.8370   32.0940   49.6730 N   0  0  0  0  0  0  0  0  0  0  0  0
   51.2340   32.2310   50.9650 C   0  0  0  0  0  0  0  0  0  0  0  0
   51.0250   33.4100   51.6710 O   0  0  0  0  0  0  0  0  0  0  0  0
   54.6140   30.0060   51.6130 S   0  0  0  0  0  0  0  0  0  0  0  0
   57.5468   31.3877   53.7612 H   0  0  0  0  0  0  0  0  0  0  0  0
   59.1731   30.7810   54.2685 H   0  0  0  0  0  0  0  0  0  0  0  0
   58.8443   31.7064   50.8217 H   0  0  0  0  0  0  0  0  0  0  0  0
   57.5534   32.7235   51.5711 H   0  0  0  0  0  0  0  0  0  0  0  0
   58.9306   33.9098   49.8161 H   0  0  0  0  0  0  0  0  0  0  0  0
   58.9374   34.6851   51.4653 H   0  0  0  0  0  0  0  0  0  0  0  0
   62.0419   34.2013   49.2815 H   0  0  0  0  0  0  0  0  0  0  0  0
   62.0024   32.4764   49.8917 H   0  0  0  0  0  0  0  0  0  0  0  0
   60.1511   30.9713   49.3038 H   0  0  0  0  0  0  0  0  0  0  0  0
   58.5561   30.3293   47.4999 H   0  0  0  0  0  0  0  0  0  0  0  0
   57.9641   31.9602   45.7120 H   0  0  0  0  0  0  0  0  0  0  0  0
   60.6411   34.8710   47.4830 H   0  0  0  0  0  0  0  0  0  0  0  0
   62.3998   33.1178   51.9798 H   0  0  0  0  0  0  0  0  0  0  0  0
   61.2094   34.1453   52.8936 H   0  0  0  0  0  0  0  0  0  0  0  0
   60.8387   31.2430   52.0200 H   0  0  0  0  0  0  0  0  0  0  0  0
   61.0565   31.8639   53.6987 H   0  0  0  0  0  0  0  0  0  0  0  0
   54.2129   30.7249   55.0798 H   0  0  0  0  0  0  0  0  0  0  0  0
   51.6636   30.2442   53.4584 H   0  0  0  0  0  0  0  0  0  0  0  0
   52.2628   31.9412   53.4368 H   0  0  0  0  0  0  0  0  0  0  0  0
  1  2  2  0
  2  3  1  0
  3  4  1  0
  4  5  1  0
  5  6  1  0
  6  7  1  0
  7  8  1  0
  8  9  1  0
  9 10  2  0
 10 11  1  0
 11 12  2  0
 12 13  1  0
 13 14  1  0
 14 15  1  0
 14 16  1  0
 14 17  1  0
 13 18  2  0
  7 19  1  0
 19 20  1  0
  2 21  1  0
 21 22  2  3
 22 23  1  0
 23 24  1  0
 24 25  2  0
 25 26  1  0
 26 27  1  0
 27 28  1  0
 28 29  1  0
 29 30  2  0
 29 31  1  0
 31 32  1  0
 32 33  1  0
 25 34  1  0
 20  4  1  0
 34 22  1  0
 18  9  1  0
 32 27  2  0
  3 35  1  0
  3 36  1  0
  5 37  1  0
  5 38  1  0
  6 39  1  0
  6 40  1  0
  8 41  1  0
  8 42  1  0
 10 43  1  0
 11 44  1  0
 12 45  1  0
 18 46  1  0
 19 47  1  0
 19 48  1  0
 20 49  1  0
 20 50  1  0
 24 51  1  0
 26 52  1  0
 26 53  1  0
M  CHG  3  23  -1  31  -1  33  -1
M  END
>  <UniqueID>  (19) 
19

>  <SMILES>  (19) 
O=C(CN1CCN(Cc2cccc(C(F)(F)F)c2)CC1)N=c1[n-]cc(Cc2sc(=O)[n-]c2[O-])s1

>  <Energy>  (19) 
128.82155419022175

>  <Genealogy>  (19) 
O=C(CN1CCN(Cc2cccc(C(F)(F)F)c2)CC1)N=c1[n-]cc(Cc2sc(=O)[n-]c2[O-])s1 (protonated)
O=C(CN1CCN(Cc2cccc(C(F)(F)F)c2)CC1)N=c1[n-]cc(Cc2sc(=O)[n-]c2[O-])s1 (3D coordinates assigned)
O=C(CN1CCN(Cc2cccc(C(F)(F)F)c2)CC1)N=c1[n-]cc(Cc2sc(=O)[n-]c2[O-])s1 (nonaromatic ring conformer: 128.82155419022175 kcal/mol)

>  <smiles>  (19) 
O=C(CN1CCN(Cc2cccc(C(F)(F)F)c2)CC1)N=c1[nH]cc(Cc2sc(=O)[nH]c2O)s1

>  <score_type>  (19) 
oracle

>  <origin>  (19) 
adg

>  <m_score__min__energy>  (19) 
-17.940000000000001

>  <m_primary>  (19) 
energy

$$$$
19:0
     RDKit          3D

 43 45  0  0  0  0  0  0  0  0999 V2000
   55.0970   26.4130   45.9930 N   0  0  0  0  0  0  0  0  0  0  0  0
   56.2990   25.9440   46.5990 C   0  0  0  0  0  0  0  0  0  0  0  0
   56.2620   24.9400   47.3630 O   0  0  0  0  0  0  0  0  0  0  0  0
   57.6070   26.6220   46.3190 C   0  0  0  0  0  0  0  0  0  0  0  0
   57.5720   27.2870   44.9760 C   0  0  0  0  0  0  0  0  0  0  0  0
   58.2400   26.7920   44.0280 O   0  0  0  0  0  0  0  0  0  0  0  0
   56.7730   28.4620   44.7820 N   0  0  0  0  0  0  0  0  0  0  0  0
   57.1500   29.6860   45.0050 C   0  0  0  0  0  0  0  0  0  0  0  0
   57.6820   30.1200   46.1720 N   0  0  0  0  0  0  0  0  0  0  0  0
   57.9720   31.4430   46.1310 C   0  0  0  0  0  0  0  0  0  0  0  0
   57.6780   32.0650   44.9240 C   0  0  0  0  0  0  0  0  0  0  0  0
   57.9420   33.8010   44.5780 S   0  0  0  0  0  0  0  0  0  0  0  0
   58.9730   34.0450   46.0220 C   0  0  0  0  0  0  0  0  0  0  0  0
   58.4980   34.2320   47.3120 C   0  0  0  0  0  0  0  0  0  0  0  0
   59.5170   34.4000   48.2570 C   0  0  0  0  0  0  0  0  0  0  0  0
   60.8060   34.3790   47.7150 C   0  0  0  0  0  0  0  0  0  0  0  0
   62.0540   34.1830   48.4810 C   0  0  0  0  0  0  0  0  0  0  0  0
   62.0270   34.3090   49.7350 O   0  0  0  0  0  0  0  0  0  0  0  0
   63.3460   33.7970   47.8130 C   0  0  0  0  0  0  0  0  0  0  0  0
   63.3670   32.3330   47.3320 C   0  0  0  0  0  0  0  0  0  0  0  0
   62.2950   31.4700   47.9670 C   0  0  0  0  0  0  0  0  0  0  0  0
   61.3130   30.8520   47.1700 C   0  0  0  0  0  0  0  0  0  0  0  0
   60.3740   29.9860   47.7470 C   0  0  0  0  0  0  0  0  0  0  0  0
   60.3950   29.7330   49.1220 C   0  0  0  0  0  0  0  0  0  0  0  0
   61.3670   30.3330   49.9230 C   0  0  0  0  0  0  0  0  0  0  0  0
   62.3190   31.1940   49.3530 C   0  0  0  0  0  0  0  0  0  0  0  0
   63.2640   31.7400   50.1580 F   0  0  0  0  0  0  0  0  0  0  0  0
   60.6540   34.0870   46.0600 S   0  0  0  0  0  0  0  0  0  0  0  0
   57.0340   30.9270   43.8690 S   0  0  0  0  0  0  0  0  0  0  0  0
   55.1350   27.0950   45.2100 H   0  0  0  0  0  0  0  0  0  0  0  0
   57.7962   27.3794   47.0940 H   0  0  0  0  0  0  0  0  0  0  0  0
   58.4085   25.8687   46.3242 H   0  0  0  0  0  0  0  0  0  0  0  0
   58.4060   31.9821   46.9860 H   0  0  0  0  0  0  0  0  0  0  0  0
   57.4280   34.2468   47.5667 H   0  0  0  0  0  0  0  0  0  0  0  0
   59.3212   34.5365   49.3308 H   0  0  0  0  0  0  0  0  0  0  0  0
   63.4996   34.4529   46.9434 H   0  0  0  0  0  0  0  0  0  0  0  0
   64.1459   33.9072   48.5600 H   0  0  0  0  0  0  0  0  0  0  0  0
   63.2208   32.3231   46.2418 H   0  0  0  0  0  0  0  0  0  0  0  0
   64.3385   31.9103   47.6279 H   0  0  0  0  0  0  0  0  0  0  0  0
   61.2824   31.0498   46.0884 H   0  0  0  0  0  0  0  0  0  0  0  0
   59.6156   29.5022   47.1140 H   0  0  0  0  0  0  0  0  0  0  0  0
   59.6472   29.0627   49.5709 H   0  0  0  0  0  0  0  0  0  0  0  0
   61.3878   30.1311   51.0041 H   0  0  0  0  0  0  0  0  0  0  0  0
  1  2  1  0
  2  3  2  0
  2  4  1  0
  4  5  1  0
  5  6  2  0
  5  7  1  0
  7  8  2  3
  8  9  1  0
  9 10  1  0
 10 11  2  0
 11 12  1  0
 12 13  1  0
 13 14  2  0
 14 15  1  0
 15 16  2  0
 16 17  1  0
 17 18  2  0
 17 19  1  0
 19 20  1  0
 20 21  1  0
 21 22  2  0
 22 23  1  0
 23 24  2  0
 24 25  1  0
 25 26  2  0
 26 27  1  0
 16 28  1  0
 11 29  1  0
 29  8  1  0
 28 13  1  0
 26 21  1  0
  1 30  1  0
  4 31  1  0
  4 32  1  0
 10 33  1  0
 14 34  1  0
 15 35  1  0
 19 36  1  0
 19 37  1  0
 20 38  1  0
 20 39  1  0
 22 40  1  0
 23 41  1  0
 24 42  1  0
 25 43  1  0
M  CHG  2   1  -1   9  -1
M  END
>  <UniqueID>  (20) 
20

>  <SMILES>  (20) 
[NH-]C(=O)CC(=O)N=c1[n-]cc(Sc2ccc(C(=O)CCc3ccccc3F)s2)s1

>  <Energy>  (20) 
103.6617105936914

>  <Genealogy>  (20) 
[NH-]C(=O)CC(=O)N=c1[n-]cc(Sc2ccc(C(=O)CCc3ccccc3F)s2)s1 (protonated)
[NH-]C(=O)CC(=O)N=c1[n-]cc(Sc2ccc(C(=O)CCc3ccccc3F)s2)s1 (3D coordinates assigned)
[NH-]C(=O)CC(=O)N=c1[n-]cc(Sc2ccc(C(=O)CCc3ccccc3F)s2)s1 (optimized conformer: 103.6617105936914 kcal/mol)

>  <smiles>  (20) 
NC(=O)CC(=O)N=c1[nH]cc(Sc2ccc(C(=O)CCc3ccccc3F)s2)s1

>  <score_type>  (20) 
oracle

>  <origin>  (20) 
adg

>  <m_score__min__energy>  (20) 
-14.08

>  <m_primary>  (20) 
energy

$$$$
20:0
     RDKit          3D

 70 74  0  0  0  0  0  0  0  0999 V2000
   62.2050   33.3110   52.1970 C   0  0  0  0  0  0  0  0  0  0  0  0
   62.2360   33.2340   50.8640 C   0  0  0  0  0  0  0  0  0  0  0  0
   61.4040   33.9310   50.0650 N   0  0  0  0  0  0  0  0  0  0  0  0
   61.6700   33.5590   48.7930 C   0  0  0  0  0  0  0  0  0  0  0  0
   61.0040   34.0000   47.7130 C   0  0  0  0  0  0  0  0  0  0  0  0
   60.1890   33.1270   46.8490 C   0  0  0  0  0  0  0  0  0  0  0  0
   60.2810   31.7780   46.8830 N   0  0  0  0  0  0  0  0  0  0  0  0
   59.4130   31.3260   45.9640 C   0  0  0  0  0  0  0  0  0  0  0  0
   59.1270   29.9970   45.6610 C   0  0  0  0  0  0  0  0  0  0  0  0
   58.1610   29.7250   44.6630 C   0  0  0  0  0  0  0  0  0  0  0  0
   57.7920   28.3200   44.3610 C   0  0  0  0  0  0  0  0  0  0  0  0
   58.0710   27.8370   43.2290 O   0  0  0  0  0  0  0  0  0  0  0  0
   57.1290   27.4960   45.3360 N   0  0  0  0  0  0  0  0  0  0  0  0
   57.1060   26.0310   45.2230 C   0  0  1  0  0  0  0  0  0  0  0  0
   58.3050   25.3940   45.9550 C   0  0  0  0  0  0  0  0  0  0  0  0
   59.0000   26.3240   46.9100 C   0  0  0  0  0  0  0  0  0  0  0  0
   60.3610   26.4240   47.0800 C   0  0  0  0  0  0  0  0  0  0  0  0
   60.6200   27.4240   47.9380 N   0  0  0  0  0  0  0  0  0  0  0  0
   59.4010   27.9130   48.2560 C   0  0  0  0  0  0  0  0  0  0  0  0
   58.3870   27.2780   47.6360 N   0  0  0  0  0  0  0  0  0  0  0  0
   55.7990   25.4610   45.7120 C   0  0  0  0  0  0  0  0  0  0  0  0
   54.7050   26.3340   45.9830 N   0  0  0  0  0  0  0  0  0  0  0  0
   55.6510   24.2150   45.8500 O   0  0  0  0  0  0  0  0  0  0  0  0
   57.5200   30.8100   44.0030 C   0  0  0  0  0  0  0  0  0  0  0  0
   57.8370   32.1410   44.3300 C   0  0  0  0  0  0  0  0  0  0  0  0
   58.7860   32.3620   45.3240 C   0  0  0  0  0  0  0  0  0  0  0  0
   59.2820   33.5330   45.8630 C   0  0  0  0  0  0  0  0  0  0  0  0
   58.9250   34.9290   45.4500 C   0  0  0  0  0  0  0  0  0  0  0  0
   62.6920   32.6120   48.7790 C   0  0  0  0  0  0  0  0  0  0  0  0
   63.2740   31.9260   47.5750 C   0  0  0  0  0  0  0  0  0  0  0  0
   63.0540   32.4060   50.1040 C   0  0  0  0  0  0  0  0  0  0  0  0
   64.0650   31.4510   50.5980 C   0  0  0  0  0  0  0  0  0  0  0  0
   63.7070   30.2720   50.8710 O   0  0  0  0  0  0  0  0  0  0  0  0
   65.4380   31.8440   50.7890 N   0  0  0  0  0  0  0  0  0  0  0  0
   66.2380   31.1530   51.8120 C   0  0  0  0  0  0  0  0  0  0  0  0
   67.6680   31.7010   51.8800 C   0  0  0  0  0  0  0  0  0  0  0  0
   67.6520   33.2310   51.8490 C   0  0  0  0  0  0  0  0  0  0  0  0
   66.9610   33.7920   50.5890 C   0  0  0  0  0  0  0  0  0  0  0  0
   66.0940   32.7620   49.8470 C   0  0  0  0  0  0  0  0  0  0  0  0
   62.9095   32.7180   52.7987 H   0  0  0  0  0  0  0  0  0  0  0  0
   61.4750   33.9674   52.6932 H   0  0  0  0  0  0  0  0  0  0  0  0
   60.6550   34.5840   50.3870 H   0  0  0  0  0  0  0  0  0  0  0  0
   61.0703   35.0685   47.4601 H   0  0  0  0  0  0  0  0  0  0  0  0
   60.8860   31.2040   47.5120 H   0  0  0  0  0  0  0  0  0  0  0  0
   59.6402   29.1775   46.1854 H   0  0  0  0  0  0  0  0  0  0  0  0
   56.6080   27.9620   46.1130 H   0  0  0  0  0  0  0  0  0  0  0  0
   57.1963   25.7802   44.1558 H   0  0  0  0  0  0  0  0  0  0  0  0
   57.9423   24.5236   46.5215 H   0  0  0  0  0  0  0  0  0  0  0  0
   59.0405   25.1198   45.1843 H   0  0  0  0  0  0  0  0  0  0  0  0
   61.1148   25.7883   46.5925 H   0  0  0  0  0  0  0  0  0  0  0  0
   59.2508   28.7495   48.9543 H   0  0  0  0  0  0  0  0  0  0  0  0
   53.8530   26.3320   45.3780 H   0  0  0  0  0  0  0  0  0  0  0  0
   56.7672   30.6057   43.2274 H   0  0  0  0  0  0  0  0  0  0  0  0
   57.3494   32.9821   43.8155 H   0  0  0  0  0  0  0  0  0  0  0  0
   58.7669   35.5473   46.3459 H   0  0  0  0  0  0  0  0  0  0  0  0
   59.7432   35.3546   44.8505 H   0  0  0  0  0  0  0  0  0  0  0  0
   58.0029   34.9095   44.8505 H   0  0  0  0  0  0  0  0  0  0  0  0
   63.9535   31.1251   47.9020 H   0  0  0  0  0  0  0  0  0  0  0  0
   62.4624   31.4944   46.9709 H   0  0  0  0  0  0  0  0  0  0  0  0
   63.8321   32.6564   46.9709 H   0  0  0  0  0  0  0  0  0  0  0  0
   65.7573   31.2888   52.7921 H   0  0  0  0  0  0  0  0  0  0  0  0
   66.2917   30.0877   51.5432 H   0  0  0  0  0  0  0  0  0  0  0  0
   68.1427   31.3618   52.8125 H   0  0  0  0  0  0  0  0  0  0  0  0
   68.2347   31.3312   51.0128 H   0  0  0  0  0  0  0  0  0  0  0  0
   67.1151   33.5957   52.7371 H   0  0  0  0  0  0  0  0  0  0  0  0
   68.6968   33.5748   51.8368 H   0  0  0  0  0  0  0  0  0  0  0  0
   66.3191   34.6328   50.8906 H   0  0  0  0  0  0  0  0  0  0  0  0
   67.7581   34.0989   49.8959 H   0  0  0  0  0  0  0  0  0  0  0  0
   65.3240   33.2920   49.2671 H   0  0  0  0  0  0  0  0  0  0  0  0
   66.7434   32.1739   49.1818 H   0  0  0  0  0  0  0  0  0  0  0  0
  1  2  2  0
  2  3  1  0
  3  4  1  0
  4  5  2  3
  5  6  1  0
  6  7  1  0
  7  8  1  0
  8  9  2  0
  9 10  1  0
 10 11  1  0
 11 12  2  0
 11 13  1  0
 13 14  1  0
 14 15  1  0
 15 16  1  0
 16 17  2  0
 17 18  1  0
 18 19  1  0
 19 20  2  0
 14 21  1  0
 21 22  1  0
 21 23  2  0
 10 24  2  0
 24 25  1  0
 25 26  2  0
 26 27  1  0
 27 28  1  0
  4 29  1  0
 29 30  1  0
 29 31  2  0
 31 32  1  0
 32 33  2  0
 32 34  1  0
 34 35  1  0
 35 36  1  0
 36 37  1  0
 37 38  1  0
 38 39  1  0
 31  2  1  0
 39 34  1  0
 27  6  2  0
 26  8  1  0
 20 16  1  0
  1 40  1  0
  1 41  1  0
  3 42  1  0
  5 43  1  0
  7 44  1  0
  9 45  1  0
 13 46  1  0
 14 47  1  6
 15 48  1  0
 15 49  1  0
 17 50  1  0
 19 51  1  0
 22 52  1  0
 24 53  1  0
 25 54  1  0
 28 55  1  0
 28 56  1  0
 28 57  1  0
 30 58  1  0
 30 59  1  0
 30 60  1  0
 35 61  1  0
 35 62  1  0
 36 63  1  0
 36 64  1  0
 37 65  1  0
 37 66  1  0
 38 67  1  0
 38 68  1  0
 39 69  1  0
 39 70  1  0
M  CHG  2  18  -1  22  -1
M  END
>  <UniqueID>  (21) 
21

>  <SMILES>  (21) 
C=c1[nH]c(=Cc2[nH]c3cc(C(=O)N[C@@H](Cc4c[n-]cn4)C([NH-])=O)ccc3c2C)c(C)c1C(=O)N1CCCCC1

>  <Energy>  (21) 
172.2736865580546

>  <Genealogy>  (21) 
C=c1[nH]c(=Cc2[nH]c3cc(C(=O)NC(Cc4c[n-]cn4)C([NH-])=O)ccc3c2C)c(C)c1C(=O)N1CCCCC1 (protonated)
C=c1[nH]c(=Cc2[nH]c3cc(C(=O)N[C@@H](Cc4c[n-]cn4)C([NH-])=O)ccc3c2C)c(C)c1C(=O)N1CCCCC1 (chirality)
C=c1[nH]c(=Cc2[nH]c3cc(C(=O)N[C@@H](Cc4c[n-]cn4)C([NH-])=O)ccc3c2C)c(C)c1C(=O)N1CCCCC1 (3D coordinates assigned)
C=c1[nH]c(=Cc2[nH]c3cc(C(=O)N[C@@H](Cc4c[n-]cn4)C([NH-])=O)ccc3c2C)c(C)c1C(=O)N1CCCCC1 (nonaromatic ring conformer: 172.2736865580546 kcal/mol)

>  <smiles>  (21) 
C=c1[nH]c(=Cc2[nH]c3cc(C(=O)NC(Cc4c[nH]cn4)C(N)=O)ccc3c2C)c(C)c1C(=O)N1CCCCC1

>  <score_type>  (21) 
oracle

>  <origin>  (21) 
adg

>  <m_score__min__energy>  (21) 
-14.58

>  <m_primary>  (21) 
energy

$$$$
21:0
     RDKit          3D

 61 64  0  0  0  0  0  0  0  0999 V2000
   53.9760   28.3970   53.8180 C   0  0  0  0  0  0  0  0  0  0  0  0
   54.5290   29.4170   53.1430 C   0  0  0  0  0  0  0  0  0  0  0  0
   53.8500   30.3750   52.3800 C   0  0  0  0  0  0  0  0  0  0  0  0
   52.5130   30.4820   52.2170 C   0  0  0  0  0  0  0  0  0  0  0  0
   51.8290   30.8600   50.9610 C   0  0  0  0  0  0  0  0  0  0  0  0
   51.7420   30.1060   49.8500 N   0  0  0  0  0  0  0  0  0  0  0  0
   51.0210   30.8730   49.0040 C   0  0  0  0  0  0  0  0  0  0  0  0
   50.7320   30.5060   47.8360 O   0  0  0  0  0  0  0  0  0  0  0  0
   50.6390   32.0670   49.5050 N   0  0  0  0  0  0  0  0  0  0  0  0
   51.1550   32.0400   50.7450 C   0  0  0  0  0  0  0  0  0  0  0  0
   51.0200   33.0800   51.6590 O   0  0  0  0  0  0  0  0  0  0  0  0
   54.8270   31.2210   51.8700 C   0  0  0  0  0  0  0  0  0  0  0  0
   56.0430   30.7510   52.3250 C   0  0  0  0  0  0  0  0  0  0  0  0
   57.3550   31.4440   52.0680 C   0  0  0  0  0  0  0  0  0  0  0  0
   58.2870   30.5930   51.2370 C   0  0  0  0  0  0  0  0  0  0  0  0
   58.0680   29.3930   51.1160 O   0  0  0  0  0  0  0  0  0  0  0  0
   59.4210   31.2030   50.5610 N   0  0  2  0  0  0  0  0  0  0  0  0
   59.0320   32.4040   49.7690 C   0  0  0  0  0  0  0  0  0  0  0  0
   59.1560   32.2270   48.2410 C   0  0  0  0  0  0  0  0  0  0  0  0
   58.6340   30.8460   47.7720 C   0  0  1  0  0  0  0  0  0  0  0  0
   58.7800   30.6430   46.2980 N   0  0  0  0  0  0  0  0  0  0  0  0
   58.5120   29.2310   45.8930 C   0  0  0  0  0  0  0  0  0  0  0  0
   57.2200   29.0730   45.0790 C   0  0  0  0  0  0  0  0  0  0  0  0
   57.2760   29.8730   43.8380 N   0  0  0  0  0  0  0  0  0  0  0  0
   55.9290   30.0170   43.2660 C   0  0  0  0  0  0  0  0  0  0  0  0
   57.9380   31.1900   44.0130 C   0  0  0  0  0  0  0  0  0  0  0  0
   58.0160   31.6230   45.4850 C   0  0  0  0  0  0  0  0  0  0  0  0
   59.3860   29.7160   48.5370 C   0  0  0  0  0  0  0  0  0  0  0  0
   60.1620   30.1950   49.7770 C   0  0  0  0  0  0  0  0  0  0  0  0
   55.8640   29.6640   53.1140 N   0  0  0  0  0  0  0  0  0  0  0  0
   56.8990   28.9210   53.8430 C   0  0  0  0  0  0  0  0  0  0  0  0
   54.6135   27.7035   54.3861 H   0  0  0  0  0  0  0  0  0  0  0  0
   52.8854   28.2546   53.8031 H   0  0  0  0  0  0  0  0  0  0  0  0
   51.8802   30.2703   53.0915 H   0  0  0  0  0  0  0  0  0  0  0  0
   54.6631   32.0979   51.2265 H   0  0  0  0  0  0  0  0  0  0  0  0
   57.1613   32.3857   51.5335 H   0  0  0  0  0  0  0  0  0  0  0  0
   57.8379   31.6316   53.0384 H   0  0  0  0  0  0  0  0  0  0  0  0
   60.0820   31.5340   51.3040 H   0  0  0  0  0  0  0  0  0  0  0  0
   57.9850   32.6465   50.0035 H   0  0  0  0  0  0  0  0  0  0  0  0
   59.7309   33.2056   50.0501 H   0  0  0  0  0  0  0  0  0  0  0  0
   58.5715   33.0151   47.7437 H   0  0  0  0  0  0  0  0  0  0  0  0
   60.2216   32.2948   47.9767 H   0  0  0  0  0  0  0  0  0  0  0  0
   57.5579   30.8103   47.9974 H   0  0  0  0  0  0  0  0  0  0  0  0
   59.3557   28.8755   45.2832 H   0  0  0  0  0  0  0  0  0  0  0  0
   58.3932   28.6423   46.8146 H   0  0  0  0  0  0  0  0  0  0  0  0
   57.0864   28.0128   44.8180 H   0  0  0  0  0  0  0  0  0  0  0  0
   56.3759   29.4288   45.6880 H   0  0  0  0  0  0  0  0  0  0  0  0
   55.1920   30.0958   44.0788 H   0  0  0  0  0  0  0  0  0  0  0  0
   55.8892   30.9245   42.6457 H   0  0  0  0  0  0  0  0  0  0  0  0
   55.6982   29.1384   42.6457 H   0  0  0  0  0  0  0  0  0  0  0  0
   58.9596   31.1267   43.6101 H   0  0  0  0  0  0  0  0  0  0  0  0
   57.3355   31.9387   43.4778 H   0  0  0  0  0  0  0  0  0  0  0  0
   58.5135   32.6023   45.5442 H   0  0  0  0  0  0  0  0  0  0  0  0
   56.9924   31.6806   45.8837 H   0  0  0  0  0  0  0  0  0  0  0  0
   58.6465   28.9691   48.8613 H   0  0  0  0  0  0  0  0  0  0  0  0
   60.1313   29.3067   47.8391 H   0  0  0  0  0  0  0  0  0  0  0  0
   60.3643   29.3272   50.4220 H   0  0  0  0  0  0  0  0  0  0  0  0
   61.0912   30.6667   49.4247 H   0  0  0  0  0  0  0  0  0  0  0  0
   56.7391   29.0358   54.9253 H   0  0  0  0  0  0  0  0  0  0  0  0
   56.8430   27.8556   53.5750 H   0  0  0  0  0  0  0  0  0  0  0  0
   57.8905   29.3148   53.5750 H   0  0  0  0  0  0  0  0  0  0  0  0
  1  2  2  0
  2  3  1  0
  3  4  2  3
  4  5  1  0
  5  6  1  0
  6  7  1  0
  7  8  2  0
  7  9  1  0
  9 10  1  0
 10 11  1  0
  3 12  1  0
 12 13  2  0
 13 14  1  0
 14 15  1  0
 15 16  2  0
 15 17  1  0
 17 18  1  0
 18 19  1  0
 19 20  1  0
 20 21  1  0
 21 22  1  0
 22 23  1  0
 23 24  1  0
 24 25  1  0
 24 26  1  0
 26 27  1  0
 20 28  1  0
 28 29  1  0
 13 30  1  0
 30 31  1  0
 30  2  1  0
 10  5  2  0
 29 17  1  0
 27 21  1  0
  1 32  1  0
  1 33  1  0
  4 34  1  0
 12 35  1  0
 14 36  1  0
 14 37  1  0
 17 38  1  1
 18 39  1  0
 18 40  1  0
 19 41  1  0
 19 42  1  0
 20 43  1  6
 22 44  1  0
 22 45  1  0
 23 46  1  0
 23 47  1  0
 25 48  1  0
 25 49  1  0
 25 50  1  0
 26 51  1  0
 26 52  1  0
 27 53  1  0
 27 54  1  0
 28 55  1  0
 28 56  1  0
 29 57  1  0
 29 58  1  0
 31 59  1  0
 31 60  1  0
 31 61  1  0
M  CHG  4   6  -1   9  -1  11  -1  17   1
M  END
>  <UniqueID>  (22) 
22

>  <SMILES>  (22) 
C=c1c(=Cc2[n-]c(=O)[n-]c2[O-])cc(CC(=O)[NH+]2CCC(N3CCN(C)CC3)CC2)n1C

>  <Energy>  (22) 
153.02447355084175

>  <Genealogy>  (22) 
C=c1c(=Cc2[n-]c(=O)[n-]c2[O-])cc(CC(=O)[NH+]2CCC(N3CCN(C)CC3)CC2)n1C (protonated)
C=c1c(=Cc2[n-]c(=O)[n-]c2[O-])cc(CC(=O)[NH+]2CCC(N3CCN(C)CC3)CC2)n1C (3D coordinates assigned)
C=c1c(=Cc2[n-]c(=O)[n-]c2[O-])cc(CC(=O)[NH+]2CCC(N3CCN(C)CC3)CC2)n1C (nonaromatic ring conformer: 153.02447355084175 kcal/mol)

>  <smiles>  (22) 
C=c1c(=Cc2[nH]c(=O)[nH]c2O)cc(CC(=O)N2CCC(N3CCN(C)CC3)CC2)n1C

>  <score_type>  (22) 
oracle

>  <origin>  (22) 
adg

>  <m_score__min__energy>  (22) 
-17.66

>  <m_primary>  (22) 
energy

$$$$
22:0
     RDKit          3D

 55 59  0  0  0  0  0  0  0  0999 V2000
   65.0520   32.4190   49.7450 C   0  0  0  0  0  0  0  0  0  0  0  0
   63.7300   32.8620   50.2710 C   0  0  0  0  0  0  0  0  0  0  0  0
   63.3360   32.4480   51.4070 O   0  0  0  0  0  0  0  0  0  0  0  0
   62.9330   33.7500   49.4770 N   0  0  0  0  0  0  0  0  0  0  0  0
   63.3960   34.2130   48.1830 C   0  0  0  0  0  0  0  0  0  0  0  0
   62.4810   33.7180   47.0410 C   0  0  0  0  0  0  0  0  0  0  0  0
   61.1470   33.5620   47.7050 C   0  0  0  0  0  0  0  0  0  0  0  0
   60.0270   33.1230   46.8390 C   0  0  0  0  0  0  0  0  0  0  0  0
   59.1830   34.1180   46.2570 C   0  0  0  0  0  0  0  0  0  0  0  0
   57.9700   33.2700   45.2580 S   0  0  0  0  0  0  0  0  0  0  0  0
   58.6720   31.6140   45.6830 C   0  0  0  0  0  0  0  0  0  0  0  0
   58.2420   30.4080   45.2710 N   0  0  0  0  0  0  0  0  0  0  0  0
   58.8830   29.2820   45.6980 C   0  0  0  0  0  0  0  0  0  0  0  0
   58.3910   28.0010   45.2330 C   0  0  0  0  0  0  0  0  0  0  0  0
   57.9920   27.0130   46.1430 C   0  0  0  0  0  0  0  0  0  0  0  0
   57.5240   25.7950   45.7250 C   0  0  0  0  0  0  0  0  0  0  0  0
   57.4360   25.5140   44.3940 C   0  0  0  0  0  0  0  0  0  0  0  0
   56.9470   24.2370   43.8890 C   0  0  0  0  0  0  0  0  0  0  0  0
   56.7540   24.0290   42.6490 O   0  0  0  0  0  0  0  0  0  0  0  0
   56.6520   23.1300   44.7440 N   0  0  0  0  0  0  0  0  0  0  0  0
   56.1720   21.8840   44.2230 C   0  0  0  0  0  0  0  0  0  0  0  0
   56.9200   21.0800   43.2540 C   0  0  0  0  0  0  0  0  0  0  0  0
   57.0180   20.6860   44.6970 C   0  0  0  0  0  0  0  0  0  0  0  0
   57.8190   26.4570   43.4630 C   0  0  0  0  0  0  0  0  0  0  0  0
   58.2860   27.6740   43.9090 C   0  0  0  0  0  0  0  0  0  0  0  0
   59.9140   29.4710   46.5120 N   0  0  0  0  0  0  0  0  0  0  0  0
   60.3650   30.6700   46.9380 C   0  0  0  0  0  0  0  0  0  0  0  0
   61.3330   30.6740   47.6940 O   0  0  0  0  0  0  0  0  0  0  0  0
   59.7160   31.8630   46.5080 C   0  0  0  0  0  0  0  0  0  0  0  0
   60.8590   34.5840   48.7460 C   0  0  0  0  0  0  0  0  0  0  0  0
   61.6330   34.1640   50.0360 C   0  0  0  0  0  0  0  0  0  0  0  0
   65.7244   32.1937   50.5859 H   0  0  0  0  0  0  0  0  0  0  0  0
   64.9184   31.5165   49.1304 H   0  0  0  0  0  0  0  0  0  0  0  0
   65.4891   33.2198   49.1304 H   0  0  0  0  0  0  0  0  0  0  0  0
   63.4068   35.3129   48.1804 H   0  0  0  0  0  0  0  0  0  0  0  0
   64.4054   33.8097   48.0144 H   0  0  0  0  0  0  0  0  0  0  0  0
   62.4316   34.4574   46.2281 H   0  0  0  0  0  0  0  0  0  0  0  0
   62.8401   32.7877   46.5767 H   0  0  0  0  0  0  0  0  0  0  0  0
   61.2556   32.6488   48.3086 H   0  0  0  0  0  0  0  0  0  0  0  0
   59.2652   35.2058   46.3982 H   0  0  0  0  0  0  0  0  0  0  0  0
   58.0562   27.2207   47.2213 H   0  0  0  0  0  0  0  0  0  0  0  0
   57.2183   25.0415   46.4658 H   0  0  0  0  0  0  0  0  0  0  0  0
   56.7800   23.2090   45.7750 H   0  0  0  0  0  0  0  0  0  0  0  0
   55.1267   22.2265   44.2160 H   0  0  0  0  0  0  0  0  0  0  0  0
   56.3754   20.4328   42.5507 H   0  0  0  0  0  0  0  0  0  0  0  0
   57.6616   21.3183   42.4773 H   0  0  0  0  0  0  0  0  0  0  0  0
   56.5304   19.7683   45.0578 H   0  0  0  0  0  0  0  0  0  0  0  0
   57.8308   20.5278   45.4211 H   0  0  0  0  0  0  0  0  0  0  0  0
   57.7529   26.2417   42.3863 H   0  0  0  0  0  0  0  0  0  0  0  0
   58.5902   28.4215   43.1615 H   0  0  0  0  0  0  0  0  0  0  0  0
   60.4210   28.6240   46.8520 H   0  0  0  0  0  0  0  0  0  0  0  0
   61.2008   35.5731   48.4072 H   0  0  0  0  0  0  0  0  0  0  0  0
   59.7785   34.6456   48.9428 H   0  0  0  0  0  0  0  0  0  0  0  0
   61.7452   35.0096   50.7305 H   0  0  0  0  0  0  0  0  0  0  0  0
   61.1301   33.3843   50.6270 H   0  0  0  0  0  0  0  0  0  0  0  0
  1  2  1  0
  2  3  2  0
  2  4  1  0
  4  5  1  0
  5  6  1  0
  6  7  1  0
  7  8  1  0
  8  9  2  0
  9 10  1  0
 10 11  1  0
 11 12  1  0
 12 13  2  0
 13 14  1  0
 14 15  2  0
 15 16  1  0
 16 17  2  0
 17 18  1  0
 18 19  2  0
 18 20  1  0
 20 21  1  0
 21 22  1  0
 22 23  1  0
 17 24  1  0
 24 25  2  0
 13 26  1  0
 26 27  1  0
 27 28  2  0
 27 29  1  0
  7 30  1  0
 30 31  1  0
 31  4  1  0
 29  8  1  0
 29 11  2  0
 25 14  1  0
 23 21  1  0
  1 32  1  0
  1 33  1  0
  1 34  1  0
  5 35  1  0
  5 36  1  0
  6 37  1  0
  6 38  1  0
  7 39  1  0
  9 40  1  0
 15 41  1  0
 16 42  1  0
 20 43  1  0
 21 44  1  0
 22 45  1  0
 22 46  1  0
 23 47  1  0
 23 48  1  0
 24 49  1  0
 25 50  1  0
 26 51  1  0
 30 52  1  0
 30 53  1  0
 31 54  1  0
 31 55  1  0
M  END
>  <smiles>  (23) 
CC(=O)N1CCC(c2csc3nc(-c4ccc(C(=O)NC5CC5)cc4)[nH]c(=O)c23)CC1

>  <score_type>  (23) 
oracle

>  <origin>  (23) 
adg

>  <m_score__min__energy>  (23) 
-8.2899999999999991

>  <m_primary>  (23) 
energy

$$$$
23:0
     RDKit          3D

 46 49  0  0  0  0  0  0  0  0999 V2000
   55.4550   23.2590   43.3280 C   0  0  0  0  0  0  0  0  0  0  0  0
   56.2700   24.2220   44.1380 C   0  0  0  0  0  0  0  0  0  0  0  0
   57.2960   24.9620   43.5330 C   0  0  0  0  0  0  0  0  0  0  0  0
   58.0330   25.8880   44.2770 C   0  0  0  0  0  0  0  0  0  0  0  0
   57.7460   26.1010   45.6380 C   0  0  0  0  0  0  0  0  0  0  0  0
   58.5250   27.0850   46.4250 C   0  0  0  0  0  0  0  0  0  0  0  0
   59.6920   26.8010   46.8130 O   0  0  0  0  0  0  0  0  0  0  0  0
   57.9760   28.3780   46.7050 N   0  0  0  0  0  0  0  0  0  0  0  0
   57.5760   29.3460   45.7220 C   0  0  0  0  0  0  0  0  0  0  0  0
   56.3660   29.2000   45.0090 C   0  0  0  0  0  0  0  0  0  0  0  0
   55.5290   28.1120   45.2390 O   0  0  0  0  0  0  0  0  0  0  0  0
   56.0080   30.1340   44.0340 C   0  0  0  0  0  0  0  0  0  0  0  0
   56.8570   31.1980   43.7350 C   0  0  0  0  0  0  0  0  0  0  0  0
   58.0750   31.3300   44.4040 C   0  0  0  0  0  0  0  0  0  0  0  0
   58.4530   30.4040   45.3900 C   0  0  0  0  0  0  0  0  0  0  0  0
   59.7430   30.5850   46.0940 C   0  0  0  0  0  0  0  0  0  0  0  0
   60.6870   29.7800   45.8730 O   0  0  0  0  0  0  0  0  0  0  0  0
   59.9340   31.6750   47.0120 N   0  0  0  0  0  0  0  0  0  0  0  0
   58.8910   32.6530   47.3390 C   0  0  0  0  0  0  0  0  0  0  0  0
   59.6120   33.8480   48.0100 C   0  0  0  0  0  0  0  0  0  0  0  0
   61.0390   33.4260   48.0220 C   0  0  0  0  0  0  0  0  0  0  0  0
   62.1320   34.1170   48.5440 C   0  0  0  0  0  0  0  0  0  0  0  0
   63.4000   33.5170   48.4770 C   0  0  0  0  0  0  0  0  0  0  0  0
   63.5480   32.2410   47.9010 C   0  0  0  0  0  0  0  0  0  0  0  0
   62.4330   31.5630   47.3840 C   0  0  0  0  0  0  0  0  0  0  0  0
   61.1830   32.1930   47.4450 C   0  0  0  0  0  0  0  0  0  0  0  0
   56.7050   25.3690   46.2350 C   0  0  0  0  0  0  0  0  0  0  0  0
   55.9690   24.4430   45.4890 C   0  0  0  0  0  0  0  0  0  0  0  0
   54.8937   22.5958   44.0026 H   0  0  0  0  0  0  0  0  0  0  0  0
   54.7511   23.8175   42.6935 H   0  0  0  0  0  0  0  0  0  0  0  0
   56.1222   22.6571   42.6935 H   0  0  0  0  0  0  0  0  0  0  0  0
   57.5222   24.8130   42.4669 H   0  0  0  0  0  0  0  0  0  0  0  0
   58.8434   26.4544   43.7949 H   0  0  0  0  0  0  0  0  0  0  0  0
   55.0520   30.0293   43.5000 H   0  0  0  0  0  0  0  0  0  0  0  0
   56.5670   31.9345   42.9711 H   0  0  0  0  0  0  0  0  0  0  0  0
   58.7448   32.1668   44.1567 H   0  0  0  0  0  0  0  0  0  0  0  0
   58.3776   32.9829   46.4238 H   0  0  0  0  0  0  0  0  0  0  0  0
   58.1304   32.2194   48.0050 H   0  0  0  0  0  0  0  0  0  0  0  0
   59.4785   34.7685   47.4228 H   0  0  0  0  0  0  0  0  0  0  0  0
   59.2229   34.0765   49.0132 H   0  0  0  0  0  0  0  0  0  0  0  0
   62.0038   35.1105   48.9984 H   0  0  0  0  0  0  0  0  0  0  0  0
   64.2790   34.0450   48.8753 H   0  0  0  0  0  0  0  0  0  0  0  0
   64.5424   31.7730   47.8559 H   0  0  0  0  0  0  0  0  0  0  0  0
   62.5380   30.5613   46.9417 H   0  0  0  0  0  0  0  0  0  0  0  0
   56.4674   25.5258   47.2975 H   0  0  0  0  0  0  0  0  0  0  0  0
   55.1493   23.8850   45.9651 H   0  0  0  0  0  0  0  0  0  0  0  0
  1  2  1  0
  2  3  2  0
  3  4  1  0
  4  5  2  0
  5  6  1  0
  6  7  2  0
  6  8  1  0
  8  9  1  0
  9 10  2  0
 10 11  1  0
 10 12  1  0
 12 13  2  0
 13 14  1  0
 14 15  2  0
 15 16  1  0
 16 17  2  0
 16 18  1  0
 18 19  1  0
 19 20  1  0
 20 21  1  0
 21 22  2  0
 22 23  1  0
 23 24  2  0
 24 25  1  0
 25 26  2  0
  5 27  1  0
 27 28  2  0
 28  2  1  0
 15  9  1  0
 26 18  1  0
 26 21  1  0
  1 29  1  0
  1 30  1  0
  1 31  1  0
  3 32  1  0
  4 33  1  0
 12 34  1  0
 13 35  1  0
 14 36  1  0
 19 37  1  0
 19 38  1  0
 20 39  1  0
 20 40  1  0
 22 41  1  0
 23 42  1  0
 24 43  1  0
 25 44  1  0
 27 45  1  0
 28 46  1  0
M  CHG  2   8  -1  11  -1
M  END
>  <UniqueID>  (24) 
23

>  <SMILES>  (24) 
Cc1ccc(C(=O)[N-]c2c([O-])cccc2C(=O)N2CCc3ccccc32)cc1

>  <Energy>  (24) 
77.59411317617793

>  <Genealogy>  (24) 
Cc1ccc(C(=O)[N-]c2c([O-])cccc2C(=O)N2CCc3ccccc32)cc1 (protonated)
Cc1ccc(C(=O)[N-]c2c([O-])cccc2C(=O)N2CCc3ccccc32)cc1 (3D coordinates assigned)
Cc1ccc(C(=O)[N-]c2c([O-])cccc2C(=O)N2CCc3ccccc32)cc1 (nonaromatic ring conformer: 77.59411317617793 kcal/mol)

>  <smiles>  (24) 
Cc1ccc(C(=O)Nc2c(O)cccc2C(=O)N2CCc3ccccc32)cc1

>  <score_type>  (24) 
oracle

>  <origin>  (24) 
adg

>  <m_score__min__energy>  (24) 
-13.91

>  <m_primary>  (24) 
energy

$$$$
24:0
     RDKit          3D

 45 46  0  0  0  0  0  0  0  0999 V2000
   55.1430   26.6390   46.0290 N   0  0  0  0  0  0  0  0  0  0  0  0
   56.1490   25.2400   45.8990 S   0  0  0  0  0  0  0  0  0  0  0  0
   56.2190   24.8030   44.4610 O   0  0  0  0  0  0  0  0  0  0  0  0
   55.5580   24.1320   46.7220 O   0  0  0  0  0  0  0  0  0  0  0  0
   57.7940   25.6000   46.5010 C   0  0  0  0  0  0  0  0  0  0  0  0
   58.3850   26.8490   45.8380 C   0  0  0  0  0  0  0  0  0  0  0  0
   57.3470   27.6660   45.2050 N   0  0  0  0  0  0  0  0  0  0  0  0
   57.3270   29.0920   45.3470 C   0  0  0  0  0  0  0  0  0  0  0  0
   58.2380   29.6700   45.9990 O   0  0  0  0  0  0  0  0  0  0  0  0
   56.2620   29.8930   44.7060 C   0  0  0  0  0  0  0  0  0  0  0  0
   55.4240   29.3210   43.9610 O   0  0  0  0  0  0  0  0  0  0  0  0
   56.1950   31.3190   44.8430 N   0  0  0  0  0  0  0  0  0  0  0  0
   57.2950   32.2070   45.0880 C   0  0  0  0  0  0  0  0  0  0  0  0
   57.8770   32.9650   44.0570 C   0  0  0  0  0  0  0  0  0  0  0  0
   58.9610   33.8050   44.3280 C   0  0  0  0  0  0  0  0  0  0  0  0
   59.4850   33.8790   45.6210 C   0  0  0  0  0  0  0  0  0  0  0  0
   58.9360   33.1000   46.6480 C   0  0  0  0  0  0  0  0  0  0  0  0
   59.6000   33.1970   48.2800 S   0  0  0  0  0  0  0  0  0  0  0  0
   59.9660   34.6230   48.5910 O   0  0  0  0  0  0  0  0  0  0  0  0
   58.5370   32.7610   49.2520 O   0  0  0  0  0  0  0  0  0  0  0  0
   60.9930   32.1490   48.4480 N   0  0  0  0  0  0  0  0  0  0  0  0
   61.7610   32.0370   47.1940 C   0  0  0  0  0  0  0  0  0  0  0  0
   62.5830   33.3130   46.8910 C   0  0  0  0  0  0  0  0  0  0  0  0
   62.7470   34.1590   48.0150 O   0  0  0  0  0  0  0  0  0  0  0  0
   63.0600   33.3960   49.1580 C   0  0  0  0  0  0  0  0  0  0  0  0
   61.8450   32.5510   49.5880 C   0  0  0  0  0  0  0  0  0  0  0  0
   57.8440   32.2630   46.3750 C   0  0  0  0  0  0  0  0  0  0  0  0
   55.1670   27.1220   45.1040 H   0  0  0  0  0  0  0  0  0  0  0  0
   57.7471   25.7628   47.5879 H   0  0  0  0  0  0  0  0  0  0  0  0
   58.4413   24.7452   46.2554 H   0  0  0  0  0  0  0  0  0  0  0  0
   58.8961   27.4514   46.6034 H   0  0  0  0  0  0  0  0  0  0  0  0
   59.0898   26.5238   45.0586 H   0  0  0  0  0  0  0  0  0  0  0  0
   56.5860   27.2010   44.6610 H   0  0  0  0  0  0  0  0  0  0  0  0
   57.4783   32.8969   43.0341 H   0  0  0  0  0  0  0  0  0  0  0  0
   59.4024   34.4090   43.5215 H   0  0  0  0  0  0  0  0  0  0  0  0
   60.3303   34.5502   45.8331 H   0  0  0  0  0  0  0  0  0  0  0  0
   62.4503   31.1838   47.2767 H   0  0  0  0  0  0  0  0  0  0  0  0
   61.0435   31.8966   46.3721 H   0  0  0  0  0  0  0  0  0  0  0  0
   63.5787   33.0096   46.5353 H   0  0  0  0  0  0  0  0  0  0  0  0
   62.0261   33.8847   46.1340 H   0  0  0  0  0  0  0  0  0  0  0  0
   63.9032   32.7280   48.9283 H   0  0  0  0  0  0  0  0  0  0  0  0
   63.3302   34.0766   49.9788 H   0  0  0  0  0  0  0  0  0  0  0  0
   62.2089   31.6434   50.0917 H   0  0  0  0  0  0  0  0  0  0  0  0
   61.2309   33.1714   50.2573 H   0  0  0  0  0  0  0  0  0  0  0  0
   57.4155   31.6457   47.1783 H   0  0  0  0  0  0  0  0  0  0  0  0
  1  2  1  0
  2  3  2  0
  2  4  2  0
  2  5  1  0
  5  6  1  0
  6  7  1  0
  7  8  1  0
  8  9  2  0
  8 10  1  0
 10 11  2  0
 10 12  1  0
 12 13  1  0
 13 14  2  0
 14 15  1  0
 15 16  2  0
 16 17  1  0
 17 18  1  0
 18 19  2  0
 18 20  2  0
 18 21  1  0
 21 22  1  0
 22 23  1  0
 23 24  1  0
 24 25  1  0
 25 26  1  0
 17 27  2  0
 27 13  1  0
 26 21  1  0
  1 28  1  0
  5 29  1  0
  5 30  1  0
  6 31  1  0
  6 32  1  0
  7 33  1  0
 14 34  1  0
 15 35  1  0
 16 36  1  0
 22 37  1  0
 22 38  1  0
 23 39  1  0
 23 40  1  0
 25 41  1  0
 25 42  1  0
 26 43  1  0
 26 44  1  0
 27 45  1  0
M  CHG  2   1  -1  12  -1
M  END
>  <UniqueID>  (25) 
24

>  <SMILES>  (25) 
[NH-]S(=O)(=O)CCNC(=O)C(=O)[N-]c1cccc(S(=O)(=O)N2CCOCC2)c1

>  <Energy>  (25) 
51.34068580238336

>  <Genealogy>  (25) 
[NH-]S(=O)(=O)CCNC(=O)C(=O)[N-]c1cccc(S(=O)(=O)N2CCOCC2)c1 (protonated)
[NH-]S(=O)(=O)CCNC(=O)C(=O)[N-]c1cccc(S(=O)(=O)N2CCOCC2)c1 (3D coordinates assigned)
[NH-]S(=O)(=O)CCNC(=O)C(=O)[N-]c1cccc(S(=O)(=O)N2CCOCC2)c1 (nonaromatic ring conformer: 51.34068580238336 kcal/mol)

>  <smiles>  (25) 
NS(=O)(=O)CCNC(=O)C(=O)Nc1cccc(S(=O)(=O)N2CCOCC2)c1

>  <score_type>  (25) 
oracle

>  <origin>  (25) 
adg

>  <m_score__min__energy>  (25) 
-13.789999999999999

>  <m_primary>  (25) 
energy

$$$$
25:0
     RDKit          3D

 59 63  0  0  0  0  0  0  0  0999 V2000
   57.3720   33.7170   46.3520 O   0  0  0  0  0  0  0  0  0  0  0  0
   58.0450   33.5610   45.2960 C   0  0  0  0  0  0  0  0  0  0  0  0
   59.1370   34.4520   45.0150 N   0  0  0  0  0  0  0  0  0  0  0  0
   59.6700   35.3730   46.0160 C   0  0  0  0  0  0  0  0  0  0  0  0
   60.5320   34.6280   46.9970 C   0  0  0  0  0  0  0  0  0  0  0  0
   60.1510   34.5550   48.3610 C   0  0  0  0  0  0  0  0  0  0  0  0
   60.9620   33.8850   49.2950 C   0  0  0  0  0  0  0  0  0  0  0  0
   62.1420   33.3090   48.8350 C   0  0  0  0  0  0  0  0  0  0  0  0
   62.5170   33.3800   47.5330 C   0  0  0  0  0  0  0  0  0  0  0  0
   61.7430   34.0310   46.5760 C   0  0  0  0  0  0  0  0  0  0  0  0
   63.7230   32.7280   47.3650 O   0  0  0  0  0  0  0  0  0  0  0  0
   64.1310   32.2160   48.6420 C   0  0  0  0  0  0  0  0  0  0  0  0
   63.0930   32.6100   49.5520 O   0  0  0  0  0  0  0  0  0  0  0  0
   57.6850   32.4700   44.3590 C   0  0  0  0  0  0  0  0  0  0  0  0
   57.7470   32.6620   42.9690 C   0  0  0  0  0  0  0  0  0  0  0  0
   57.4100   31.6240   42.0980 C   0  0  0  0  0  0  0  0  0  0  0  0
   57.0190   30.3820   42.5980 C   0  0  0  0  0  0  0  0  0  0  0  0
   56.9660   30.1600   43.9880 C   0  0  0  0  0  0  0  0  0  0  0  0
   56.5720   28.8880   44.5430 N   0  0  0  0  0  0  0  0  0  0  0  0
   57.2730   28.2260   45.6530 C   0  0  1  0  0  0  0  0  0  0  0  0
   56.7430   26.8150   45.8940 C   0  0  0  0  0  0  0  0  0  0  0  0
   57.9690   25.9090   45.9480 C   0  0  0  0  0  0  0  0  0  0  0  0
   59.1680   26.7560   45.9520 N   0  0  0  0  0  0  0  0  0  0  0  0
   59.8230   26.8710   47.2810 C   0  0  0  0  0  0  0  0  0  0  0  0
   59.8570   28.2760   47.8520 C   0  0  0  0  0  0  0  0  0  0  0  0
   60.7530   29.2310   47.3380 C   0  0  0  0  0  0  0  0  0  0  0  0
   60.7730   30.5320   47.8500 C   0  0  0  0  0  0  0  0  0  0  0  0
   59.9120   30.8890   48.8910 C   0  0  0  0  0  0  0  0  0  0  0  0
   59.0390   29.9400   49.4300 C   0  0  0  0  0  0  0  0  0  0  0  0
   59.0160   28.6380   48.9210 C   0  0  0  0  0  0  0  0  0  0  0  0
   58.7650   28.0390   45.3650 C   0  0  0  0  0  0  0  0  0  0  0  0
   57.3020   31.2120   44.8570 C   0  0  0  0  0  0  0  0  0  0  0  0
   59.5460   34.4850   44.0540 H   0  0  0  0  0  0  0  0  0  0  0  0
   60.2726   36.1453   45.5155 H   0  0  0  0  0  0  0  0  0  0  0  0
   58.8337   35.8417   46.5553 H   0  0  0  0  0  0  0  0  0  0  0  0
   59.2136   35.0262   48.6914 H   0  0  0  0  0  0  0  0  0  0  0  0
   60.6727   33.8187   50.3542 H   0  0  0  0  0  0  0  0  0  0  0  0
   62.0636   34.0795   45.5249 H   0  0  0  0  0  0  0  0  0  0  0  0
   64.2195   31.1201   48.6083 H   0  0  0  0  0  0  0  0  0  0  0  0
   65.1146   32.6034   48.9461 H   0  0  0  0  0  0  0  0  0  0  0  0
   58.0626   33.6350   42.5645 H   0  0  0  0  0  0  0  0  0  0  0  0
   57.4531   31.7868   41.0110 H   0  0  0  0  0  0  0  0  0  0  0  0
   56.7508   29.5721   41.9036 H   0  0  0  0  0  0  0  0  0  0  0  0
   55.7480   28.4100   44.1120 H   0  0  0  0  0  0  0  0  0  0  0  0
   57.1070   28.8837   46.5190 H   0  0  0  0  0  0  0  0  0  0  0  0
   56.1928   26.7707   46.8455 H   0  0  0  0  0  0  0  0  0  0  0  0
   56.0474   26.5048   45.1003 H   0  0  0  0  0  0  0  0  0  0  0  0
   57.9411   25.2995   46.8633 H   0  0  0  0  0  0  0  0  0  0  0  0
   57.9825   25.2371   45.0772 H   0  0  0  0  0  0  0  0  0  0  0  0
   59.2791   26.2271   47.9878 H   0  0  0  0  0  0  0  0  0  0  0  0
   60.8709   26.5686   47.1379 H   0  0  0  0  0  0  0  0  0  0  0  0
   61.4427   28.9523   46.5277 H   0  0  0  0  0  0  0  0  0  0  0  0
   61.4677   31.2757   47.4326 H   0  0  0  0  0  0  0  0  0  0  0  0
   59.9213   31.9157   49.2858 H   0  0  0  0  0  0  0  0  0  0  0  0
   58.3685   30.2180   50.2565 H   0  0  0  0  0  0  0  0  0  0  0  0
   58.3364   27.8919   49.3587 H   0  0  0  0  0  0  0  0  0  0  0  0
   59.3413   28.8581   45.8200 H   0  0  0  0  0  0  0  0  0  0  0  0
   58.9554   28.0472   44.2816 H   0  0  0  0  0  0  0  0  0  0  0  0
   57.2648   31.0488   45.9442 H   0  0  0  0  0  0  0  0  0  0  0  0
  1  2  2  0
  2  3  1  0
  3  4  1  0
  4  5  1  0
  5  6  2  0
  6  7  1  0
  7  8  2  0
  8  9  1  0
  9 10  2  0
  9 11  1  0
 11 12  1  0
 12 13  1  0
  2 14  1  0
 14 15  2  0
 15 16  1  0
 16 17  2  0
 17 18  1  0
 18 19  1  0
 19 20  1  0
 20 21  1  0
 21 22  1  0
 22 23  1  0
 23 24  1  0
 24 25  1  0
 25 26  2  0
 26 27  1  0
 27 28  2  0
 28 29  1  0
 29 30  2  0
 23 31  1  0
 18 32  2  0
 10  5  1  0
 32 14  1  0
 13  8  1  0
 31 20  1  0
 30 25  1  0
  3 33  1  0
  4 34  1  0
  4 35  1  0
  6 36  1  0
  7 37  1  0
 10 38  1  0
 12 39  1  0
 12 40  1  0
 15 41  1  0
 16 42  1  0
 17 43  1  0
 19 44  1  0
 20 45  1  1
 21 46  1  0
 21 47  1  0
 22 48  1  0
 22 49  1  0
 24 50  1  0
 24 51  1  0
 26 52  1  0
 27 53  1  0
 28 54  1  0
 29 55  1  0
 30 56  1  0
 31 57  1  0
 31 58  1  0
 32 59  1  0
M  END
>  <UniqueID>  (26) 
25

>  <SMILES>  (26) 
O=C(NCc1ccc2c(c1)OCO2)c1cccc(N[C@H]2CCN(Cc3ccccc3)C2)c1

>  <Energy>  (26) 
98.32031462238004

>  <Genealogy>  (26) 
O=C(NCc1ccc2c(c1)OCO2)c1cccc(N[C@H]2CCN(Cc3ccccc3)C2)c1 (chirality)
O=C(NCc1ccc2c(c1)OCO2)c1cccc(N[C@H]2CCN(Cc3ccccc3)C2)c1 (3D coordinates assigned)
O=C(NCc1ccc2c(c1)OCO2)c1cccc(N[C@H]2CCN(Cc3ccccc3)C2)c1 (nonaromatic ring conformer: 98.32031462238004 kcal/mol)

>  <smiles>  (26) 
O=C(NCc1ccc2c(c1)OCO2)c1cccc(NC2CCN(Cc3ccccc3)C2)c1

>  <score_type>  (26) 
oracle

>  <origin>  (26) 
adg

>  <m_score__min__energy>  (26) 
-9.5199999999999996

>  <m_primary>  (26) 
energy

$$$$
26:0
     RDKit          3D

 47 49  0  0  0  0  0  0  0  0999 V2000
   57.5060   33.6900   46.4780 C   0  0  0  0  0  0  0  0  0  0  0  0
   58.3560   32.6250   46.8940 O   0  0  0  0  0  0  0  0  0  0  0  0
   59.6520   32.7960   47.4090 C   0  0  0  0  0  0  0  0  0  0  0  0
   60.7060   33.2900   46.6150 C   0  0  0  0  0  0  0  0  0  0  0  0
   61.9830   33.4550   47.1560 C   0  0  0  0  0  0  0  0  0  0  0  0
   62.2230   33.1400   48.4930 C   0  0  0  0  0  0  0  0  0  0  0  0
   61.1900   32.6460   49.2930 C   0  0  0  0  0  0  0  0  0  0  0  0
   59.9010   32.4670   48.7610 C   0  0  0  0  0  0  0  0  0  0  0  0
   58.7980   31.9310   49.6350 C   0  0  0  0  0  0  0  0  0  0  0  0
   59.1540   30.6010   50.1080 N   0  0  0  0  0  0  0  0  0  0  0  0
   60.0480   29.7270   49.4120 C   0  0  0  0  0  0  0  0  0  0  0  0
   61.2450   29.6170   49.7960 O   0  0  0  0  0  0  0  0  0  0  0  0
   59.5660   28.9570   48.2450 C   0  0  0  0  0  0  0  0  0  0  0  0
   59.6980   27.5600   48.2090 C   0  0  0  0  0  0  0  0  0  0  0  0
   59.2590   26.8400   47.0980 C   0  0  0  0  0  0  0  0  0  0  0  0
   58.6850   27.5020   46.0110 C   0  0  0  0  0  0  0  0  0  0  0  0
   58.5160   28.9000   46.0280 C   0  0  0  0  0  0  0  0  0  0  0  0
   57.9580   29.6000   44.7880 C   0  0  2  0  0  0  0  0  0  0  0  0
   57.6280   31.0150   44.9930 N   0  0  0  0  0  0  0  0  0  0  0  0
   56.7350   31.3730   43.8900 C   0  0  0  0  0  0  0  0  0  0  0  0
   56.0350   30.0900   43.4230 C   0  0  1  0  0  0  0  0  0  0  0  0
   56.2560   29.8790   42.0520 O   0  0  0  0  0  0  0  0  0  0  0  0
   56.6800   28.9650   44.2330 C   0  0  2  0  0  0  0  0  0  0  0  0
   55.8290   28.5850   45.2850 O   0  0  0  0  0  0  0  0  0  0  0  0
   58.9890   29.6200   47.1450 C   0  0  0  0  0  0  0  0  0  0  0  0
   57.0983   34.2008   47.3628 H   0  0  0  0  0  0  0  0  0  0  0  0
   58.0837   34.4060   45.8750 H   0  0  0  0  0  0  0  0  0  0  0  0
   56.6797   33.2855   45.8750 H   0  0  0  0  0  0  0  0  0  0  0  0
   60.5218   33.5475   45.5616 H   0  0  0  0  0  0  0  0  0  0  0  0
   62.8011   33.8342   46.5261 H   0  0  0  0  0  0  0  0  0  0  0  0
   63.2276   33.2808   48.9185 H   0  0  0  0  0  0  0  0  0  0  0  0
   61.3863   32.3954   50.3459 H   0  0  0  0  0  0  0  0  0  0  0  0
   58.6553   32.6001   50.4964 H   0  0  0  0  0  0  0  0  0  0  0  0
   57.8654   31.8753   49.0543 H   0  0  0  0  0  0  0  0  0  0  0  0
   60.1497   27.0306   49.0609 H   0  0  0  0  0  0  0  0  0  0  0  0
   59.3655   25.7454   47.0781 H   0  0  0  0  0  0  0  0  0  0  0  0
   58.3613   26.9254   45.1319 H   0  0  0  0  0  0  0  0  0  0  0  0
   58.7933   29.4895   44.0809 H   0  0  0  0  0  0  0  0  0  0  0  0
   57.1100   31.1470   45.8950 H   0  0  0  0  0  0  0  0  0  0  0  0
   58.4910   31.6080   44.9740 H   0  0  0  0  0  0  0  0  0  0  0  0
   55.9881   32.1035   44.2343 H   0  0  0  0  0  0  0  0  0  0  0  0
   57.3040   31.8246   43.0640 H   0  0  0  0  0  0  0  0  0  0  0  0
   54.9464   30.1424   43.5722 H   0  0  0  0  0  0  0  0  0  0  0  0
   55.8500   29.0020   41.8320 H   0  0  0  0  0  0  0  0  0  0  0  0
   56.8777   28.0620   43.6367 H   0  0  0  0  0  0  0  0  0  0  0  0
   55.1580   27.9650   44.8980 H   0  0  0  0  0  0  0  0  0  0  0  0
   58.9057   30.7168   47.1569 H   0  0  0  0  0  0  0  0  0  0  0  0
  1  2  1  0
  2  3  1  0
  3  4  2  0
  4  5  1  0
  5  6  2  0
  6  7  1  0
  7  8  2  0
  8  9  1  0
  9 10  1  0
 10 11  1  0
 11 12  2  0
 11 13  1  0
 13 14  2  0
 14 15  1  0
 15 16  2  0
 16 17  1  0
 17 18  1  0
 18 19  1  0
 19 20  1  0
 20 21  1  0
 21 22  1  0
 21 23  1  0
 23 24  1  0
 17 25  2  0
  8  3  1  0
 25 13  1  0
 23 18  1  0
  1 26  1  0
  1 27  1  0
  1 28  1  0
  4 29  1  0
  5 30  1  0
  6 31  1  0
  7 32  1  0
  9 33  1  0
  9 34  1  0
 14 35  1  0
 15 36  1  0
 16 37  1  0
 18 38  1  6
 19 39  1  0
 19 40  1  0
 20 41  1  0
 20 42  1  0
 21 43  1  6
 22 44  1  0
 23 45  1  6
 24 46  1  0
 25 47  1  0
M  CHG  2  10  -1  19   1
M  END
>  <UniqueID>  (27) 
26

>  <SMILES>  (27) 
COc1ccccc1C[N-]C(=O)c1cccc([C@@H]2[NH2+]C[C@@H](O)C2O)c1

>  <Energy>  (27) 
53.892019733958605

>  <Genealogy>  (27) 
COc1ccccc1C[N-]C(=O)c1cccc(C2[NH2+]CC(O)C2O)c1 (protonated)
COc1ccccc1C[N-]C(=O)c1cccc([C@@H]2[NH2+]C[C@@H](O)C2O)c1 (chirality)
COc1ccccc1C[N-]C(=O)c1cccc([C@@H]2[NH2+]C[C@@H](O)C2O)c1 (3D coordinates assigned)
COc1ccccc1C[N-]C(=O)c1cccc([C@@H]2[NH2+]C[C@@H](O)C2O)c1 (nonaromatic ring conformer: 53.892019733958605 kcal/mol)

>  <smiles>  (27) 
COc1ccccc1CNC(=O)c1cccc(C2NCC(O)C2O)c1

>  <score_type>  (27) 
oracle

>  <origin>  (27) 
adg

>  <m_score__min__energy>  (27) 
-8.3499999999999996

>  <m_primary>  (27) 
energy

$$$$
27:0
     RDKit          3D

 53 56  0  0  0  0  0  0  0  0999 V2000
   57.1783   32.1584   41.4650 H   0  0  0  0  0  0  0  0  0  0  0  0
   57.3420   31.5910   42.3930 C   0  0  0  0  0  0  0  0  0  0  0  0
   58.1249   31.9052   43.0989 H   0  0  0  0  0  0  0  0  0  0  0  0
   56.5920   30.5230   42.6620 C   0  0  0  0  0  0  0  0  0  0  0  0
   55.8152   30.2275   41.9415 H   0  0  0  0  0  0  0  0  0  0  0  0
   56.7630   29.7220   43.8880 C   0  0  0  0  0  0  0  0  0  0  0  0
   55.9290   29.8180   44.8300 O   0  0  0  0  0  0  0  0  0  0  0  0
   57.9080   28.8640   44.0160 N   0  0  0  0  0  0  0  0  0  0  0  0
   58.7090   29.0190   43.3630 H   0  0  0  0  0  0  0  0  0  0  0  0
   58.0710   27.8870   45.0590 C   0  0  0  0  0  0  0  0  0  0  0  0
   57.5040   26.6040   44.9580 C   0  0  0  0  0  0  0  0  0  0  0  0
   56.9160   26.3339   44.0685 H   0  0  0  0  0  0  0  0  0  0  0  0
   57.6840   25.6710   45.9820 C   0  0  0  0  0  0  0  0  0  0  0  0
   57.2190   24.6770   45.9063 H   0  0  0  0  0  0  0  0  0  0  0  0
   58.4530   25.9970   47.1020 C   0  0  0  0  0  0  0  0  0  0  0  0
   58.5738   25.2668   47.9157 H   0  0  0  0  0  0  0  0  0  0  0  0
   59.0730   27.2560   47.1920 C   0  0  0  0  0  0  0  0  0  0  0  0
   59.8520   27.6430   48.3380 N   0  0  0  0  0  0  0  0  0  0  0  0
   59.7370   28.7410   49.0270 C   0  0  0  0  0  0  0  0  0  0  0  0
   58.6100   29.0150   49.7390 N   0  0  0  0  0  0  0  0  0  0  0  0
   58.5200   30.1530   50.4720 C   0  0  0  0  0  0  0  0  0  0  0  0
   57.3500   30.4190   51.1870 O   0  0  0  0  0  0  0  0  0  0  0  0
   57.1350   31.6450   51.8770 C   0  0  0  0  0  0  0  0  0  0  0  0
   57.1665   31.4656   52.9618 H   0  0  0  0  0  0  0  0  0  0  0  0
   57.9208   32.3636   51.6012 H   0  0  0  0  0  0  0  0  0  0  0  0
   56.1515   32.0534   51.6012 H   0  0  0  0  0  0  0  0  0  0  0  0
   59.5660   31.0180   50.5010 N   0  0  0  0  0  0  0  0  0  0  0  0
   60.7000   30.7480   49.8000 C   0  0  0  0  0  0  0  0  0  0  0  0
   61.7100   31.5660   49.8200 N   0  0  0  0  0  0  0  0  0  0  0  0
   61.7990   32.8090   49.0460 C   0  0  1  0  0  0  0  0  0  0  0  0
   62.7878   33.2776   49.1582 H   0  0  0  0  0  0  0  0  0  0  0  0
   61.6280   32.4760   47.5430 C   0  0  0  0  0  0  0  0  0  0  0  0
   62.0195   31.4649   47.3574 H   0  0  0  0  0  0  0  0  0  0  0  0
   62.1802   33.2315   46.9648 H   0  0  0  0  0  0  0  0  0  0  0  0
   60.1870   32.5250   47.1100 C   0  0  0  0  0  0  0  0  0  0  0  0
   59.6590   31.5830   46.2150 C   0  0  0  0  0  0  0  0  0  0  0  0
   60.2870   30.7554   45.8537 H   0  0  0  0  0  0  0  0  0  0  0  0
   58.3340   31.6960   45.7820 C   0  0  0  0  0  0  0  0  0  0  0  0
   57.9177   30.9505   45.0885 H   0  0  0  0  0  0  0  0  0  0  0  0
   57.5370   32.7550   46.2290 C   0  0  0  0  0  0  0  0  0  0  0  0
   56.4952   32.8409   45.8864 H   0  0  0  0  0  0  0  0  0  0  0  0
   58.0620   33.7040   47.1100 C   0  0  0  0  0  0  0  0  0  0  0  0
   57.4365   34.5410   47.4537 H   0  0  0  0  0  0  0  0  0  0  0  0
   59.3870   33.5890   47.5560 C   0  0  0  0  0  0  0  0  0  0  0  0
   59.9920   34.5920   48.4970 C   0  0  0  0  0  0  0  0  0  0  0  0
   59.1927   35.1899   48.9592 H   0  0  0  0  0  0  0  0  0  0  0  0
   60.6702   35.2550   47.9399 H   0  0  0  0  0  0  0  0  0  0  0  0
   60.7790   33.8570   49.5910 C   0  0  0  0  0  0  0  0  0  0  0  0
   60.0616   33.3352   50.2414 H   0  0  0  0  0  0  0  0  0  0  0  0
   61.3629   34.6188   50.1284 H   0  0  0  0  0  0  0  0  0  0  0  0
   60.7800   29.6080   49.0690 N   0  0  0  0  0  0  0  0  0  0  0  0
   58.8600   28.1980   46.1770 C   0  0  0  0  0  0  0  0  0  0  0  0
   59.3175   29.1951   46.2576 H   0  0  0  0  0  0  0  0  0  0  0  0
  1  2  1  0
  2  3  1  0
  2  4  2  0
  4  5  1  0
  4  6  1  0
  6  7  2  0
  6  8  1  0
  8  9  1  0
  8 10  1  0
 10 11  2  0
 11 12  1  0
 11 13  1  0
 13 14  1  0
 13 15  2  0
 15 16  1  0
 15 17  1  0
 17 18  1  0
 18 19  2  3
 19 20  1  0
 20 21  2  0
 21 22  1  0
 22 23  1  0
 23 24  1  0
 23 25  1  0
 23 26  1  0
 21 27  1  0
 27 28  1  0
 28 29  2  0
 29 30  1  0
 30 31  1  6
 30 32  1  0
 32 33  1  0
 32 34  1  0
 32 35  1  0
 35 36  2  0
 36 37  1  0
 36 38  1  0
 38 39  1  0
 38 40  2  0
 40 41  1  0
 40 42  1  0
 42 43  1  0
 42 44  2  0
 44 45  1  0
 45 46  1  0
 45 47  1  0
 45 48  1  0
 48 49  1  0
 48 50  1  0
 28 51  1  0
 17 52  2  0
 52 53  1  0
 52 10  1  0
 51 19  1  0
 48 30  1  0
 44 35  1  0
M  CHG  2  27  -1  51  -1
M  END
>  <UniqueID>  (28) 
27

>  <SMILES>  (28) 
C=CC(=O)Nc1cccc(N=c2nc(OC)[n-]/c(=N\[C@@H]3CCc4ccccc4C3)[n-]2)c1

>  <Energy>  (28) 
68.10342607072239

>  <Genealogy>  (28) 
C=CC(=O)Nc1cccc(N=c2nc(OC)[n-]c(=NC3CCc4ccccc4C3)[n-]2)c1 (protonated)
C=CC(=O)Nc1cccc(N=c2nc(OC)[n-]c(=N[C@@H]3CCc4ccccc4C3)[n-]2)c1 (chirality)
C=CC(=O)Nc1cccc(N=c2nc(OC)[n-]/c(=N\[C@@H]3CCc4ccccc4C3)[n-]2)c1 (cis-trans isomerization)
C=CC(=O)Nc1cccc(N=c2nc(OC)[n-]/c(=N\[C@@H]3CCc4ccccc4C3)[n-]2)c1 (3D coordinates assigned)
C=CC(=O)Nc1cccc(N=c2nc(OC)[n-]/c(=N\[C@@H]3CCc4ccccc4C3)[n-]2)c1 (nonaromatic ring conformer: 68.10342607072239 kcal/mol)

>  <smiles>  (28) 
C=CC(=O)Nc1cccc(N=c2nc(OC)[nH]c(=NC3CCc4ccccc4C3)[nH]2)c1

>  <score_type>  (28) 
oracle

>  <origin>  (28) 
adg

>  <m_score__min__energy>  (28) 
-11.41

>  <m_primary>  (28) 
energy

$$$$
28:0
     RDKit          3D

 41 43  0  0  0  0  0  0  0  0999 V2000
   54.7660   29.4950   43.3680 O   0  0  0  0  0  0  0  0  0  0  0  0
   55.7090   29.7040   44.1780 C   0  0  0  0  0  0  0  0  0  0  0  0
   55.9570   28.7840   45.2470 N   0  0  0  0  0  0  0  0  0  0  0  0
   56.9840   27.7480   45.1990 C   0  0  0  0  0  0  0  0  0  0  0  0
   58.3480   28.3580   45.3570 C   0  0  0  0  0  0  0  0  0  0  0  0
   58.6040   29.3020   46.3620 C   0  0  0  0  0  0  0  0  0  0  0  0
   59.8730   29.8720   46.4770 C   0  0  0  0  0  0  0  0  0  0  0  0
   60.8760   29.4950   45.5820 C   0  0  0  0  0  0  0  0  0  0  0  0
   60.6150   28.5830   44.6070 N   0  0  0  0  0  0  0  0  0  0  0  0
   59.3850   28.0140   44.4770 C   0  0  0  0  0  0  0  0  0  0  0  0
   56.5550   30.8950   44.0180 C   0  0  0  0  0  0  0  0  0  0  0  0
   57.3720   31.1130   42.9090 C   0  0  0  0  0  0  0  0  0  0  0  0
   58.1500   32.5870   43.1230 S   0  0  0  0  0  0  0  0  0  0  0  0
   57.4320   32.8760   44.6150 C   0  0  0  0  0  0  0  0  0  0  0  0
   57.6110   34.1190   45.4250 C   0  0  0  0  0  0  0  0  0  0  0  0
   58.8700   34.0230   46.2420 C   0  0  0  0  0  0  0  0  0  0  0  0
   60.1230   34.2030   45.6330 C   0  0  0  0  0  0  0  0  0  0  0  0
   61.2950   34.0770   46.3850 C   0  0  0  0  0  0  0  0  0  0  0  0
   61.2260   33.7660   47.7480 C   0  0  0  0  0  0  0  0  0  0  0  0
   62.7330   33.5970   48.7080 S   0  0  0  0  0  0  0  0  0  0  0  0
   63.4840   32.3890   47.5700 C   0  0  0  0  0  0  0  0  0  0  0  0
   62.5250   31.4940   47.1320 F   0  0  0  0  0  0  0  0  0  0  0  0
   64.0080   33.0590   46.4820 F   0  0  0  0  0  0  0  0  0  0  0  0
   59.9800   33.5680   48.3550 C   0  0  0  0  0  0  0  0  0  0  0  0
   58.8070   33.6920   47.6060 C   0  0  0  0  0  0  0  0  0  0  0  0
   56.5860   31.8800   44.9570 N   0  0  0  0  0  0  0  0  0  0  0  0
   56.8118   27.0284   46.0130 H   0  0  0  0  0  0  0  0  0  0  0  0
   56.9312   27.2367   44.2265 H   0  0  0  0  0  0  0  0  0  0  0  0
   57.8049   29.5932   47.0596 H   0  0  0  0  0  0  0  0  0  0  0  0
   60.0807   30.6109   47.2650 H   0  0  0  0  0  0  0  0  0  0  0  0
   61.8800   29.9366   45.6655 H   0  0  0  0  0  0  0  0  0  0  0  0
   61.3750   28.3140   43.9430 H   0  0  0  0  0  0  0  0  0  0  0  0
   59.2033   27.2805   43.6776 H   0  0  0  0  0  0  0  0  0  0  0  0
   57.4868   30.4394   42.0470 H   0  0  0  0  0  0  0  0  0  0  0  0
   57.6789   34.9861   44.7516 H   0  0  0  0  0  0  0  0  0  0  0  0
   56.7505   34.2375   46.0999 H   0  0  0  0  0  0  0  0  0  0  0  0
   60.1823   34.4438   44.5613 H   0  0  0  0  0  0  0  0  0  0  0  0
   62.2736   34.2226   45.9043 H   0  0  0  0  0  0  0  0  0  0  0  0
   64.2794   31.8402   48.0955 H   0  0  0  0  0  0  0  0  0  0  0  0
   59.9244   33.3143   49.4239 H   0  0  0  0  0  0  0  0  0  0  0  0
   57.8306   33.5299   48.0860 H   0  0  0  0  0  0  0  0  0  0  0  0
  1  2  2  0
  2  3  1  0
  3  4  1  0
  4  5  1  0
  5  6  2  0
  6  7  1  0
  7  8  2  0
  8  9  1  0
  9 10  2  0
  2 11  1  0
 11 12  2  0
 12 13  1  0
 13 14  1  0
 14 15  1  0
 15 16  1  0
 16 17  2  0
 17 18  1  0
 18 19  2  0
 19 20  1  0
 20 21  1  0
 21 22  1  0
 21 23  1  0
 19 24  1  0
 24 25  2  0
 14 26  2  0
 10  5  1  0
 26 11  1  0
 25 16  1  0
  4 27  1  0
  4 28  1  0
  6 29  1  0
  7 30  1  0
  8 31  1  0
  9 32  1  0
 10 33  1  0
 12 34  1  0
 15 35  1  0
 15 36  1  0
 17 37  1  0
 18 38  1  0
 21 39  1  0
 24 40  1  0
 25 41  1  0
M  CHG  2   3  -1   9   1
M  END
>  <UniqueID>  (29) 
28

>  <SMILES>  (29) 
O=C([N-]Cc1ccc[nH+]c1)c1csc(Cc2ccc(SC(F)F)cc2)n1

>  <Energy>  (29) 
63.098646894235614

>  <Genealogy>  (29) 
O=C([N-]Cc1ccc[nH+]c1)c1csc(Cc2ccc(SC(F)F)cc2)n1 (protonated)
O=C([N-]Cc1ccc[nH+]c1)c1csc(Cc2ccc(SC(F)F)cc2)n1 (3D coordinates assigned)
O=C([N-]Cc1ccc[nH+]c1)c1csc(Cc2ccc(SC(F)F)cc2)n1 (optimized conformer: 63.098646894235614 kcal/mol)

>  <smiles>  (29) 
O=C(NCc1cccnc1)c1csc(Cc2ccc(SC(F)F)cc2)n1

>  <score_type>  (29) 
oracle

>  <origin>  (29) 
adg

>  <m_score__min__energy>  (29) 
-9.6699999999999999

>  <m_primary>  (29) 
energy

$$$$
29:0
     RDKit          3D

 44 46  0  0  0  0  0  0  0  0999 V2000
   60.5720   29.6340   45.4840 O   0  0  0  0  0  0  0  0  0  0  0  0
   60.1540   29.9240   46.6370 C   0  0  0  0  0  0  0  0  0  0  0  0
   58.8950   29.4250   47.1040 N   0  0  0  0  0  0  0  0  0  0  0  0
   58.3410   28.1230   46.8440 C   0  0  0  0  0  0  0  0  0  0  0  0
   58.8630   26.9790   47.4780 C   0  0  0  0  0  0  0  0  0  0  0  0
   58.3580   25.7120   47.1810 C   0  0  0  0  0  0  0  0  0  0  0  0
   57.3350   25.5690   46.2460 C   0  0  0  0  0  0  0  0  0  0  0  0
   56.8220   26.6890   45.5920 C   0  0  0  0  0  0  0  0  0  0  0  0
   57.3230   27.9760   45.8720 C   0  0  0  0  0  0  0  0  0  0  0  0
   56.7470   29.1490   45.1710 C   0  0  0  0  0  0  0  0  0  0  0  0
   55.5150   29.1760   44.9010 O   0  0  0  0  0  0  0  0  0  0  0  0
   57.5800   30.2510   44.7810 N   0  0  0  0  0  0  0  0  0  0  0  0
   57.0800   31.3120   43.9060 C   0  0  0  0  0  0  0  0  0  0  0  0
   58.1500   32.3790   43.6420 C   0  0  0  0  0  0  0  0  0  0  0  0
   58.5100   33.1240   44.9030 C   0  0  0  0  0  0  0  0  0  0  0  0
   59.3280   34.2660   44.8510 C   0  0  0  0  0  0  0  0  0  0  0  0
   59.6310   34.9700   46.0200 C   0  0  0  0  0  0  0  0  0  0  0  0
   59.1200   34.5420   47.2480 C   0  0  0  0  0  0  0  0  0  0  0  0
   58.3060   33.4080   47.3100 C   0  0  0  0  0  0  0  0  0  0  0  0
   58.0000   32.7010   46.1420 C   0  0  0  0  0  0  0  0  0  0  0  0
   60.9870   30.7360   47.5330 C   0  0  0  0  0  0  0  0  0  0  0  0
   61.2730   30.4480   48.8660 C   0  0  0  0  0  0  0  0  0  0  0  0
   62.0990   31.4000   49.4730 C   0  0  0  0  0  0  0  0  0  0  0  0
   62.4570   32.4320   48.6130 C   0  0  0  0  0  0  0  0  0  0  0  0
   63.2880   33.5470   48.9500 N   0  0  0  0  0  0  0  0  0  0  0  0
   64.5280   33.4690   48.8390 O   0  0  0  0  0  0  0  0  0  0  0  0
   62.7200   34.7270   49.3700 O   0  0  0  0  0  0  0  0  0  0  0  0
   61.7560   32.1730   47.1060 S   0  0  0  0  0  0  0  0  0  0  0  0
   59.6748   27.0846   48.2128 H   0  0  0  0  0  0  0  0  0  0  0  0
   58.7684   24.8251   47.6859 H   0  0  0  0  0  0  0  0  0  0  0  0
   56.9310   24.5705   46.0231 H   0  0  0  0  0  0  0  0  0  0  0  0
   56.0187   26.5665   44.8506 H   0  0  0  0  0  0  0  0  0  0  0  0
   58.5540   30.3040   45.1550 H   0  0  0  0  0  0  0  0  0  0  0  0
   56.7739   30.8688   42.9469 H   0  0  0  0  0  0  0  0  0  0  0  0
   56.2279   31.7962   44.4055 H   0  0  0  0  0  0  0  0  0  0  0  0
   59.0522   31.8902   43.2456 H   0  0  0  0  0  0  0  0  0  0  0  0
   57.7459   33.1014   42.9175 H   0  0  0  0  0  0  0  0  0  0  0  0
   59.7314   34.6071   43.8862 H   0  0  0  0  0  0  0  0  0  0  0  0
   60.2727   35.8622   45.9731 H   0  0  0  0  0  0  0  0  0  0  0  0
   59.3587   35.0981   48.1666 H   0  0  0  0  0  0  0  0  0  0  0  0
   57.9056   33.0709   48.2775 H   0  0  0  0  0  0  0  0  0  0  0  0
   57.3572   31.8099   46.1940 H   0  0  0  0  0  0  0  0  0  0  0  0
   60.8876   29.5603   49.3890 H   0  0  0  0  0  0  0  0  0  0  0  0
   62.4302   31.3385   50.5201 H   0  0  0  0  0  0  0  0  0  0  0  0
  1  2  2  0
  2  3  1  0
  3  4  1  0
  4  5  2  0
  5  6  1  0
  6  7  2  0
  7  8  1  0
  8  9  2  0
  9 10  1  0
 10 11  2  0
 10 12  1  0
 12 13  1  0
 13 14  1  0
 14 15  1  0
 15 16  2  0
 16 17  1  0
 17 18  2  0
 18 19  1  0
 19 20  2  0
  2 21  1  0
 21 22  2  0
 22 23  1  0
 23 24  2  0
 24 25  1  0
 25 26  2  0
 25 27  1  0
 24 28  1  0
  9  4  1  0
 20 15  1  0
 28 21  1  0
  5 29  1  0
  6 30  1  0
  7 31  1  0
  8 32  1  0
 12 33  1  0
 13 34  1  0
 13 35  1  0
 14 36  1  0
 14 37  1  0
 16 38  1  0
 17 39  1  0
 18 40  1  0
 19 41  1  0
 20 42  1  0
 22 43  1  0
 23 44  1  0
M  CHG  3   3  -1  25   1  27  -1
M  END
>  <UniqueID>  (30) 
29

>  <SMILES>  (30) 
O=C([N-]c1ccccc1C(=O)NCCc1ccccc1)c1ccc([N+](=O)[O-])s1

>  <Energy>  (30) 
75.25596897202195

>  <Genealogy>  (30) 
O=C([N-]c1ccccc1C(=O)NCCc1ccccc1)c1ccc([N+](=O)[O-])s1 (protonated)
O=C([N-]c1ccccc1C(=O)NCCc1ccccc1)c1ccc([N+](=O)[O-])s1 (3D coordinates assigned)
O=C([N-]c1ccccc1C(=O)NCCc1ccccc1)c1ccc([N+](=O)[O-])s1 (optimized conformer: 75.25596897202195 kcal/mol)

>  <smiles>  (30) 
O=C(Nc1ccccc1C(=O)NCCc1ccccc1)c1ccc([N+](=O)[O-])s1

>  <score_type>  (30) 
oracle

>  <origin>  (30) 
adg

>  <m_score__min__energy>  (30) 
-9.5199999999999996

>  <m_primary>  (30) 
energy

$$$$
30:0
     RDKit          3D

 65 68  0  0  0  0  0  0  0  0999 V2000
   64.6320   33.2010   49.2500 O   0  0  0  0  0  0  0  0  0  0  0  0
   63.7400   33.5540   50.0670 C   0  0  0  0  0  0  0  0  0  0  0  0
   62.6770   34.5300   49.6320 C   0  0  0  0  0  0  0  0  0  0  0  0
   61.6390   33.8620   48.7700 C   0  0  0  0  0  0  0  0  0  0  0  0
   60.2790   33.9590   49.1000 C   0  0  0  0  0  0  0  0  0  0  0  0
   59.3110   33.3570   48.2920 C   0  0  0  0  0  0  0  0  0  0  0  0
   59.6870   32.6380   47.1470 C   0  0  0  0  0  0  0  0  0  0  0  0
   58.6720   32.0350   46.3270 N   0  0  0  0  0  0  0  0  0  0  0  0
   58.2300   32.5780   45.0720 C   0  0  0  0  0  0  0  0  0  0  0  0
   58.8440   33.5410   44.5370 O   0  0  0  0  0  0  0  0  0  0  0  0
   57.0850   31.9430   44.3350 C   0  0  1  0  0  0  0  0  0  0  0  0
   57.4750   31.5750   42.9130 C   0  0  0  0  0  0  0  0  0  0  0  0
   56.6370   30.3650   42.6500 C   0  0  0  0  0  0  0  0  0  0  0  0
   56.4210   29.7850   44.0350 C   0  0  0  0  0  0  0  0  0  0  0  0
   56.6560   30.7800   45.0080 O   0  0  0  0  0  0  0  0  0  0  0  0
   61.0470   32.5710   46.7970 C   0  0  0  0  0  0  0  0  0  0  0  0
   62.0150   33.1770   47.6040 C   0  0  0  0  0  0  0  0  0  0  0  0
   63.7220   32.9460   51.3640 N   0  0  0  0  0  0  0  0  0  0  0  0
   62.8500   31.8420   51.7510 C   0  0  0  0  0  0  0  0  0  0  0  0
   63.4900   30.4990   51.3880 C   0  0  0  0  0  0  0  0  0  0  0  0
   62.5290   29.3390   51.5010 C   0  0  0  0  0  0  0  0  0  0  0  0
   62.5580   28.6120   52.5320 O   0  0  0  0  0  0  0  0  0  0  0  0
   61.5350   29.0880   50.4840 N   0  0  0  0  0  0  0  0  0  0  0  0
   61.1000   30.1810   49.5950 C   0  0  0  0  0  0  0  0  0  0  0  0
   59.8240   29.8140   48.8340 C   0  0  0  0  0  0  0  0  0  0  0  0
   59.9750   28.4860   48.2330 N   0  0  0  0  0  0  0  0  0  0  0  0
   59.6020   28.2630   46.8620 C   0  0  0  0  0  0  0  0  0  0  0  0
   60.2700   28.9430   45.8290 C   0  0  0  0  0  0  0  0  0  0  0  0
   59.9130   28.7220   44.4950 C   0  0  0  0  0  0  0  0  0  0  0  0
   58.8910   27.8240   44.1830 C   0  0  0  0  0  0  0  0  0  0  0  0
   58.2170   27.1490   45.2040 C   0  0  0  0  0  0  0  0  0  0  0  0
   58.5680   27.3660   46.5410 C   0  0  0  0  0  0  0  0  0  0  0  0
   57.8840   26.7230   47.5200 F   0  0  0  0  0  0  0  0  0  0  0  0
   60.4990   27.3700   49.0330 C   0  0  0  0  0  0  0  0  0  0  0  0
   60.8190   27.8020   50.4710 C   0  0  0  0  0  0  0  0  0  0  0  0
   62.1871   34.9470   50.5242 H   0  0  0  0  0  0  0  0  0  0  0  0
   63.1569   35.3255   49.0431 H   0  0  0  0  0  0  0  0  0  0  0  0
   59.9729   34.5122   50.0001 H   0  0  0  0  0  0  0  0  0  0  0  0
   58.2468   33.4473   48.5552 H   0  0  0  0  0  0  0  0  0  0  0  0
   58.3200   31.0900   46.6020 H   0  0  0  0  0  0  0  0  0  0  0  0
   56.2684   32.6790   44.2985 H   0  0  0  0  0  0  0  0  0  0  0  0
   57.2321   32.3868   42.2115 H   0  0  0  0  0  0  0  0  0  0  0  0
   58.5532   31.3975   42.7862 H   0  0  0  0  0  0  0  0  0  0  0  0
   55.6795   30.6419   42.1846 H   0  0  0  0  0  0  0  0  0  0  0  0
   57.1096   29.6560   41.9544 H   0  0  0  0  0  0  0  0  0  0  0  0
   55.3856   29.4243   44.1232 H   0  0  0  0  0  0  0  0  0  0  0  0
   57.1176   28.9485   44.1930 H   0  0  0  0  0  0  0  0  0  0  0  0
   61.3513   32.0391   45.8835 H   0  0  0  0  0  0  0  0  0  0  0  0
   63.0769   33.1165   47.3235 H   0  0  0  0  0  0  0  0  0  0  0  0
   62.6791   31.8795   52.8370 H   0  0  0  0  0  0  0  0  0  0  0  0
   61.8954   31.9377   51.2128 H   0  0  0  0  0  0  0  0  0  0  0  0
   63.8545   30.5529   50.3515 H   0  0  0  0  0  0  0  0  0  0  0  0
   64.3079   30.3201   52.1014 H   0  0  0  0  0  0  0  0  0  0  0  0
   60.9086   31.0791   50.2007 H   0  0  0  0  0  0  0  0  0  0  0  0
   61.8978   30.3653   48.8604 H   0  0  0  0  0  0  0  0  0  0  0  0
   58.9721   29.8062   49.5299 H   0  0  0  0  0  0  0  0  0  0  0  0
   59.6452   30.5555   48.0414 H   0  0  0  0  0  0  0  0  0  0  0  0
   61.0762   29.6513   46.0706 H   0  0  0  0  0  0  0  0  0  0  0  0
   60.4386   29.2568   43.6902 H   0  0  0  0  0  0  0  0  0  0  0  0
   58.6160   27.6476   43.1326 H   0  0  0  0  0  0  0  0  0  0  0  0
   57.4086   26.4454   44.9561 H   0  0  0  0  0  0  0  0  0  0  0  0
   59.7470   26.5677   49.0610 H   0  0  0  0  0  0  0  0  0  0  0  0
   61.4312   27.0210   48.5648 H   0  0  0  0  0  0  0  0  0  0  0  0
   59.8795   27.9067   51.0335 H   0  0  0  0  0  0  0  0  0  0  0  0
   61.4598   27.0373   50.9343 H   0  0  0  0  0  0  0  0  0  0  0  0
  1  2  2  0
  2  3  1  0
  3  4  1  0
  4  5  2  0
  5  6  1  0
  6  7  2  0
  7  8  1  0
  8  9  1  0
  9 10  2  0
  9 11  1  0
 11 12  1  0
 12 13  1  0
 13 14  1  0
 14 15  1  0
  7 16  1  0
 16 17  2  0
  2 18  1  0
 18 19  1  0
 19 20  1  0
 20 21  1  0
 21 22  2  0
 21 23  1  0
 23 24  1  0
 24 25  1  0
 25 26  1  0
 26 27  1  0
 27 28  2  0
 28 29  1  0
 29 30  2  0
 30 31  1  0
 31 32  2  0
 32 33  1  0
 26 34  1  0
 34 35  1  0
 17  4  1  0
 35 23  1  0
 15 11  1  0
 32 27  1  0
  3 36  1  0
  3 37  1  0
  5 38  1  0
  6 39  1  0
  8 40  1  0
 11 41  1  6
 12 42  1  0
 12 43  1  0
 13 44  1  0
 13 45  1  0
 14 46  1  0
 14 47  1  0
 16 48  1  0
 17 49  1  0
 19 50  1  0
 19 51  1  0
 20 52  1  0
 20 53  1  0
 24 54  1  0
 24 55  1  0
 25 56  1  0
 25 57  1  0
 28 58  1  0
 29 59  1  0
 30 60  1  0
 31 61  1  0
 34 62  1  0
 34 63  1  0
 35 64  1  0
 35 65  1  0
M  CHG  1  18  -1
M  END
>  <UniqueID>  (31) 
30

>  <SMILES>  (31) 
O=C(Cc1ccc(NC(=O)[C@H]2CCCO2)cc1)[N-]CCC(=O)N1CCN(c2ccccc2F)CC1

>  <Energy>  (31) 
71.55906899911986

>  <Genealogy>  (31) 
O=C(Cc1ccc(NC(=O)C2CCCO2)cc1)[N-]CCC(=O)N1CCN(c2ccccc2F)CC1 (protonated)
O=C(Cc1ccc(NC(=O)[C@H]2CCCO2)cc1)[N-]CCC(=O)N1CCN(c2ccccc2F)CC1 (chirality)
O=C(Cc1ccc(NC(=O)[C@H]2CCCO2)cc1)[N-]CCC(=O)N1CCN(c2ccccc2F)CC1 (3D coordinates assigned)
O=C(Cc1ccc(NC(=O)[C@H]2CCCO2)cc1)[N-]CCC(=O)N1CCN(c2ccccc2F)CC1 (nonaromatic ring conformer: 71.55906899911986 kcal/mol)

>  <smiles>  (31) 
O=C(Cc1ccc(NC(=O)C2CCCO2)cc1)NCCC(=O)N1CCN(c2ccccc2F)CC1

>  <score_type>  (31) 
oracle

>  <origin>  (31) 
adg

>  <m_score__min__energy>  (31) 
-10.640000000000001

>  <m_primary>  (31) 
energy

$$$$
31:0
     RDKit          3D

 56 58  0  0  0  0  0  0  0  0999 V2000
   58.3450   30.6540   52.2890 C   0  0  0  0  0  0  0  0  0  0  0  0
   59.3580   31.4300   51.4820 C   0  0  0  0  0  0  0  0  0  0  0  0
   59.1460   32.8100   51.3110 C   0  0  0  0  0  0  0  0  0  0  0  0
   60.0410   33.5630   50.5650 C   0  0  0  0  0  0  0  0  0  0  0  0
   61.1390   32.9470   49.9740 C   0  0  0  0  0  0  0  0  0  0  0  0
   62.0170   33.7210   49.1540 N   0  0  0  0  0  0  0  0  0  0  0  0
   62.4480   33.2300   47.5490 S   0  0  0  0  0  0  0  0  0  0  0  0
   62.1630   31.7660   47.3580 O   0  0  0  0  0  0  0  0  0  0  0  0
   63.9200   33.4640   47.3580 O   0  0  0  0  0  0  0  0  0  0  0  0
   61.5520   34.2210   46.3580 C   0  0  0  0  0  0  0  0  0  0  0  0
   60.0880   33.8740   46.3510 C   0  0  0  0  0  0  0  0  0  0  0  0
   59.5900   32.9070   47.2400 C   0  0  0  0  0  0  0  0  0  0  0  0
   58.2310   32.5810   47.2370 C   0  0  0  0  0  0  0  0  0  0  0  0
   57.3580   33.2310   46.3610 C   0  0  0  0  0  0  0  0  0  0  0  0
   57.8420   34.2070   45.4850 C   0  0  0  0  0  0  0  0  0  0  0  0
   59.2010   34.5270   45.4780 C   0  0  0  0  0  0  0  0  0  0  0  0
   61.3690   31.5820   50.2030 C   0  0  0  0  0  0  0  0  0  0  0  0
   62.4120   31.0550   49.7320 O   0  0  0  0  0  0  0  0  0  0  0  0
   60.4860   30.8330   50.9500 N   0  0  0  0  0  0  0  0  0  0  0  0
   60.7550   29.3900   51.1370 C   0  0  0  0  0  0  0  0  0  0  0  0
   60.5260   28.6450   49.8530 C   0  0  0  0  0  0  0  0  0  0  0  0
   60.0550   27.4740   49.8950 O   0  0  0  0  0  0  0  0  0  0  0  0
   60.7830   29.2850   48.5940 N   0  0  0  0  0  0  0  0  0  0  0  0
   60.4280   28.7310   47.3200 C   0  0  0  0  0  0  0  0  0  0  0  0
   60.1190   27.5120   47.2150 O   0  0  0  0  0  0  0  0  0  0  0  0
   60.4190   29.5760   46.1630 N   0  0  0  0  0  0  0  0  0  0  0  0
   59.9500   29.0970   44.8640 C   0  0  0  0  0  0  0  0  0  0  0  0
   58.5480   29.5730   44.5960 C   0  0  0  0  0  0  0  0  0  0  0  0
   57.4420   28.8420   45.0620 C   0  0  0  0  0  0  0  0  0  0  0  0
   56.1430   29.2930   44.8080 C   0  0  0  0  0  0  0  0  0  0  0  0
   55.9380   30.4710   44.0810 C   0  0  0  0  0  0  0  0  0  0  0  0
   57.0330   31.1980   43.6070 C   0  0  0  0  0  0  0  0  0  0  0  0
   58.3330   30.7520   43.8630 C   0  0  0  0  0  0  0  0  0  0  0  0
   58.5390   30.8026   53.3615 H   0  0  0  0  0  0  0  0  0  0  0  0
   57.3328   31.0100   52.0467 H   0  0  0  0  0  0  0  0  0  0  0  0
   58.4251   29.5840   52.0467 H   0  0  0  0  0  0  0  0  0  0  0  0
   58.2700   33.2924   51.7691 H   0  0  0  0  0  0  0  0  0  0  0  0
   59.8827   34.6445   50.4412 H   0  0  0  0  0  0  0  0  0  0  0  0
   61.6673   35.2839   46.6168 H   0  0  0  0  0  0  0  0  0  0  0  0
   61.9623   34.0179   45.3578 H   0  0  0  0  0  0  0  0  0  0  0  0
   60.2724   32.4044   47.9413 H   0  0  0  0  0  0  0  0  0  0  0  0
   57.8485   31.8123   47.9246 H   0  0  0  0  0  0  0  0  0  0  0  0
   56.2883   32.9744   46.3606 H   0  0  0  0  0  0  0  0  0  0  0  0
   57.1520   34.7230   44.8011 H   0  0  0  0  0  0  0  0  0  0  0  0
   59.5793   35.2938   44.7860 H   0  0  0  0  0  0  0  0  0  0  0  0
   61.7995   29.2539   51.4539 H   0  0  0  0  0  0  0  0  0  0  0  0
   60.0732   28.9961   51.9051 H   0  0  0  0  0  0  0  0  0  0  0  0
   61.1930   30.2440   48.6040 H   0  0  0  0  0  0  0  0  0  0  0  0
   60.7270   30.5690   46.2710 H   0  0  0  0  0  0  0  0  0  0  0  0
   60.6172   29.4774   44.0765 H   0  0  0  0  0  0  0  0  0  0  0  0
   59.9549   27.9970   44.8700 H   0  0  0  0  0  0  0  0  0  0  0  0
   57.5986   27.9121   45.6284 H   0  0  0  0  0  0  0  0  0  0  0  0
   55.2806   28.7207   45.1804 H   0  0  0  0  0  0  0  0  0  0  0  0
   54.9154   30.8244   43.8828 H   0  0  0  0  0  0  0  0  0  0  0  0
   56.8721   32.1219   43.0320 H   0  0  0  0  0  0  0  0  0  0  0  0
   59.1924   31.3275   43.4884 H   0  0  0  0  0  0  0  0  0  0  0  0
  1  2  1  0
  2  3  2  0
  3  4  1  0
  4  5  2  0
  5  6  1  0
  6  7  1  0
  7  8  2  0
  7  9  2  0
  7 10  1  0
 10 11  1  0
 11 12  2  0
 12 13  1  0
 13 14  2  0
 14 15  1  0
 15 16  2  0
  5 17  1  0
 17 18  2  0
 17 19  1  0
 19 20  1  0
 20 21  1  0
 21 22  2  0
 21 23  1  0
 23 24  1  0
 24 25  2  0
 24 26  1  0
 26 27  1  0
 27 28  1  0
 28 29  2  0
 29 30  1  0
 30 31  2  0
 31 32  1  0
 32 33  2  0
 19  2  1  0
 33 28  1  0
 16 11  1  0
  1 34  1  0
  1 35  1  0
  1 36  1  0
  3 37  1  0
  4 38  1  0
 10 39  1  0
 10 40  1  0
 12 41  1  0
 13 42  1  0
 14 43  1  0
 15 44  1  0
 16 45  1  0
 20 46  1  0
 20 47  1  0
 23 48  1  0
 26 49  1  0
 27 50  1  0
 27 51  1  0
 29 52  1  0
 30 53  1  0
 31 54  1  0
 32 55  1  0
 33 56  1  0
M  CHG  1   6  -1
M  END
>  <UniqueID>  (32) 
31

>  <SMILES>  (32) 
Cc1ccc([N-]S(=O)(=O)Cc2ccccc2)c(=O)n1CC(=O)NC(=O)NCc1ccccc1

>  <Energy>  (32) 
59.35995311378628

>  <Genealogy>  (32) 
Cc1ccc([N-]S(=O)(=O)Cc2ccccc2)c(=O)n1CC(=O)NC(=O)NCc1ccccc1 (protonated)
Cc1ccc([N-]S(=O)(=O)Cc2ccccc2)c(=O)n1CC(=O)NC(=O)NCc1ccccc1 (3D coordinates assigned)
Cc1ccc([N-]S(=O)(=O)Cc2ccccc2)c(=O)n1CC(=O)NC(=O)NCc1ccccc1 (optimized conformer: 59.35995311378628 kcal/mol)

>  <smiles>  (32) 
Cc1ccc(NS(=O)(=O)Cc2ccccc2)c(=O)n1CC(=O)NC(=O)NCc1ccccc1

>  <score_type>  (32) 
oracle

>  <origin>  (32) 
adg

>  <m_score__min__energy>  (32) 
-11.16

>  <m_primary>  (32) 
energy

$$$$
32:0
     RDKit          3D

 52 53  0  0  0  0  0  0  0  0999 V2000
   57.1267   33.0297   46.3549 H   0  0  0  0  0  0  0  0  0  0  0  0
   58.1180   33.1520   45.8940 C   0  0  0  0  0  0  0  0  0  0  0  0
   58.8830   34.1840   46.3150 C   0  0  0  0  0  0  0  0  0  0  0  0
   59.3040   35.2270   45.3120 C   0  0  0  0  0  0  0  0  0  0  0  0
   59.6648   36.1208   45.8420 H   0  0  0  0  0  0  0  0  0  0  0  0
   60.1101   34.8246   44.6809 H   0  0  0  0  0  0  0  0  0  0  0  0
   58.4444   35.4969   44.6809 H   0  0  0  0  0  0  0  0  0  0  0  0
   59.3010   34.3340   47.7580 C   0  0  0  0  0  0  0  0  0  0  0  0
   58.4696   34.0356   48.4135 H   0  0  0  0  0  0  0  0  0  0  0  0
   60.1724   33.6925   47.9559 H   0  0  0  0  0  0  0  0  0  0  0  0
   59.5656   35.3832   47.9559 H   0  0  0  0  0  0  0  0  0  0  0  0
   58.5270   32.1560   44.8370 C   0  0  0  0  0  0  0  0  0  0  0  0
   57.9507   32.3599   43.9225 H   0  0  0  0  0  0  0  0  0  0  0  0
   59.6090   32.2735   44.6777 H   0  0  0  0  0  0  0  0  0  0  0  0
   58.2860   30.7220   45.2470 C   0  0  0  0  0  0  0  0  0  0  0  0
   59.2940   30.0120   45.9160 C   0  0  0  0  0  0  0  0  0  0  0  0
   60.2918   30.4610   46.0293 H   0  0  0  0  0  0  0  0  0  0  0  0
   59.0450   28.7410   46.4400 C   0  0  0  0  0  0  0  0  0  0  0  0
   60.0690   28.0780   47.1110 O   0  0  0  0  0  0  0  0  0  0  0  0
   57.7750   28.1480   46.3090 C   0  0  0  0  0  0  0  0  0  0  0  0
   57.4990   26.8820   47.0430 C   0  0  0  0  0  0  0  0  0  0  0  0
   57.1830   26.9839   48.0917 H   0  0  0  0  0  0  0  0  0  0  0  0
   57.5930   25.6300   46.5670 C   0  0  0  0  0  0  0  0  0  0  0  0
   58.6051   25.2183   46.4394 H   0  0  0  0  0  0  0  0  0  0  0  0
   56.4610   24.7550   46.1990 C   0  0  0  0  0  0  0  0  0  0  0  0
   55.2050   25.3320   45.9460 C   0  0  0  0  0  0  0  0  0  0  0  0
   55.0390   26.7130   45.9970 O   0  0  0  0  0  0  0  0  0  0  0  0
   54.1120   24.5250   45.6340 C   0  0  0  0  0  0  0  0  0  0  0  0
   53.1330   24.9854   45.4351 H   0  0  0  0  0  0  0  0  0  0  0  0
   54.2500   23.1380   45.5720 C   0  0  0  0  0  0  0  0  0  0  0  0
   53.1390   22.3660   45.2500 O   0  0  0  0  0  0  0  0  0  0  0  0
   55.5000   22.5370   45.8300 C   0  0  0  0  0  0  0  0  0  0  0  0
   55.6640   21.0350   45.7530 C   0  0  0  0  0  0  0  0  0  0  0  0
   56.2849   20.7010   46.5973 H   0  0  0  0  0  0  0  0  0  0  0  0
   54.6635   20.5795   45.7931 H   0  0  0  0  0  0  0  0  0  0  0  0
   56.3220   20.6080   44.4640 C   0  0  0  0  0  0  0  0  0  0  0  0
   56.2275   19.5534   44.1658 H   0  0  0  0  0  0  0  0  0  0  0  0
   57.0190   21.4310   43.6510 C   0  0  0  0  0  0  0  0  0  0  0  0
   58.5180   21.5800   43.7480 C   0  0  0  0  0  0  0  0  0  0  0  0
   58.8158   21.6096   44.8065 H   0  0  0  0  0  0  0  0  0  0  0  0
   59.0041   20.7257   43.2541 H   0  0  0  0  0  0  0  0  0  0  0  0
   58.8264   22.5132   43.2541 H   0  0  0  0  0  0  0  0  0  0  0  0
   56.2640   22.2130   42.6130 C   0  0  0  0  0  0  0  0  0  0  0  0
   55.5823   22.9190   43.1098 H   0  0  0  0  0  0  0  0  0  0  0  0
   56.9747   22.7700   41.9847 H   0  0  0  0  0  0  0  0  0  0  0  0
   55.6824   21.5223   41.9847 H   0  0  0  0  0  0  0  0  0  0  0  0
   56.5980   23.3540   46.1770 C   0  0  0  0  0  0  0  0  0  0  0  0
   57.8170   22.7720   46.5170 O   0  0  0  0  0  0  0  0  0  0  0  0
   56.7680   28.8540   45.6200 C   0  0  0  0  0  0  0  0  0  0  0  0
   55.7709   28.4044   45.5029 H   0  0  0  0  0  0  0  0  0  0  0  0
   57.0240   30.1220   45.0830 C   0  0  0  0  0  0  0  0  0  0  0  0
   56.0030   30.7970   44.4190 O   0  0  0  0  0  0  0  0  0  0  0  0
  1  2  1  0
  2  3  2  3
  3  4  1  0
  4  5  1  0
  4  6  1  0
  4  7  1  0
  3  8  1  0
  8  9  1  0
  8 10  1  0
  8 11  1  0
  2 12  1  0
 12 13  1  0
 12 14  1  0
 12 15  1  0
 15 16  2  0
 16 17  1  0
 16 18  1  0
 18 19  1  0
 18 20  2  0
 20 21  1  0
 21 22  1  0
 21 23  2  0
 23 24  1  0
 23 25  1  0
 25 26  2  0
 26 27  1  0
 26 28  1  0
 28 29  1  0
 28 30  2  0
 30 31  1  0
 30 32  1  0
 32 33  1  0
 33 34  1  0
 33 35  1  0
 33 36  1  0
 36 37  1  0
 36 38  2  3
 38 39  1  0
 39 40  1  0
 39 41  1  0
 39 42  1  0
 38 43  1  0
 43 44  1  0
 43 45  1  0
 43 46  1  0
 32 47  2  0
 47 48  1  0
 20 49  1  0
 49 50  1  0
 49 51  2  0
 51 52  1  0
 51 15  1  0
 47 25  1  0
M  CHG  5  19  -1  27  -1  31  -1  48  -1  52  -1
M  END
>  <UniqueID>  (33) 
32

>  <SMILES>  (33) 
CC(C)=CCc1cc([O-])c(/C=C\c2c([O-])cc([O-])c(CC=C(C)C)c2[O-])cc1[O-]

>  <Energy>  (33) 
54.65720205306648

>  <Genealogy>  (33) 
CC(C)=CCc1cc([O-])c(C=Cc2c([O-])cc([O-])c(CC=C(C)C)c2[O-])cc1[O-] (protonated)
CC(C)=CCc1cc([O-])c(/C=C\c2c([O-])cc([O-])c(CC=C(C)C)c2[O-])cc1[O-] (cis-trans isomerization)
CC(C)=CCc1cc([O-])c(/C=C\c2c([O-])cc([O-])c(CC=C(C)C)c2[O-])cc1[O-] (3D coordinates assigned)
CC(C)=CCc1cc([O-])c(/C=C\c2c([O-])cc([O-])c(CC=C(C)C)c2[O-])cc1[O-] (optimized conformer: 54.65720205306648 kcal/mol)

>  <smiles>  (33) 
CC(C)=CCc1cc(O)c(C=Cc2c(O)cc(O)c(CC=C(C)C)c2O)cc1O

>  <score_type>  (33) 
oracle

>  <origin>  (33) 
adg

>  <m_score__min__energy>  (33) 
-18.780000000000001

>  <m_primary>  (33) 
energy

$$$$
33:0
     RDKit          3D

 40 42  0  0  0  0  0  0  0  0999 V2000
   59.1164   23.6710   45.7366 H   0  0  0  0  0  0  0  0  0  0  0  0
   59.5630   24.6310   46.0350 C   0  0  0  0  0  0  0  0  0  0  0  0
   60.4988   24.6462   46.6130 H   0  0  0  0  0  0  0  0  0  0  0  0
   58.9680   25.7800   45.6950 C   0  0  0  0  0  0  0  0  0  0  0  0
   57.7820   25.9410   44.9690 C   0  0  0  0  0  0  0  0  0  0  0  0
   57.0140   24.9590   44.4510 C   0  0  0  0  0  0  0  0  0  0  0  0
   57.4121   24.4153   43.5815 H   0  0  0  0  0  0  0  0  0  0  0  0
   55.6830   24.5510   44.9520 C   0  0  0  0  0  0  0  0  0  0  0  0
   55.1020   23.3520   44.7690 N   0  0  0  0  0  0  0  0  0  0  0  0
   53.9000   23.4870   45.3680 C   0  0  0  0  0  0  0  0  0  0  0  0
   53.0540   22.5560   45.4110 O   0  0  0  0  0  0  0  0  0  0  0  0
   53.6730   24.7010   45.9130 N   0  0  0  0  0  0  0  0  0  0  0  0
   54.8090   25.3610   45.6380 C   0  0  0  0  0  0  0  0  0  0  0  0
   55.0400   26.6810   46.0050 O   0  0  0  0  0  0  0  0  0  0  0  0
   57.5820   27.3150   44.8740 C   0  0  0  0  0  0  0  0  0  0  0  0
   56.7493   27.8238   44.3664 H   0  0  0  0  0  0  0  0  0  0  0  0
   58.6340   27.9170   45.5420 C   0  0  0  0  0  0  0  0  0  0  0  0
   58.8570   29.3690   45.6920 C   0  0  0  0  0  0  0  0  0  0  0  0
   60.0410   29.8030   45.7450 O   0  0  0  0  0  0  0  0  0  0  0  0
   57.7540   30.2810   45.8130 N   0  0  0  0  0  0  0  0  0  0  0  0
   56.8120   29.8970   46.0390 H   0  0  0  0  0  0  0  0  0  0  0  0
   57.9110   31.7090   45.7250 C   0  0  0  0  0  0  0  0  0  0  0  0
   58.1850   32.4510   46.8880 C   0  0  0  0  0  0  0  0  0  0  0  0
   58.2716   31.9347   47.8554 H   0  0  0  0  0  0  0  0  0  0  0  0
   58.3480   33.8350   46.8270 C   0  0  0  0  0  0  0  0  0  0  0  0
   58.5620   34.4041   47.7437 H   0  0  0  0  0  0  0  0  0  0  0  0
   58.2400   34.4970   45.6060 C   0  0  0  0  0  0  0  0  0  0  0  0
   58.3629   35.5892   45.5611 H   0  0  0  0  0  0  0  0  0  0  0  0
   57.9760   33.7770   44.4390 C   0  0  0  0  0  0  0  0  0  0  0  0
   57.8861   34.3081   43.4799 H   0  0  0  0  0  0  0  0  0  0  0  0
   57.8240   32.3800   44.4780 C   0  0  0  0  0  0  0  0  0  0  0  0
   57.4900   31.6480   43.1970 C   0  0  0  0  0  0  0  0  0  0  0  0
   57.8743   30.6192   43.2600 H   0  0  0  0  0  0  0  0  0  0  0  0
   56.3973   31.6445   43.0704 H   0  0  0  0  0  0  0  0  0  0  0  0
   58.1170   32.3420   41.9900 C   0  0  0  0  0  0  0  0  0  0  0  0
   58.8171   33.1169   42.3354 H   0  0  0  0  0  0  0  0  0  0  0  0
   58.6592   31.6024   41.3825 H   0  0  0  0  0  0  0  0  0  0  0  0
   57.3263   32.8066   41.3825 H   0  0  0  0  0  0  0  0  0  0  0  0
   59.4710   26.9830   46.0340 N   0  0  0  0  0  0  0  0  0  0  0  0
   60.3470   27.1610   46.5760 H   0  0  0  0  0  0  0  0  0  0  0  0
  1  2  1  0
  2  3  1  0
  2  4  2  0
  4  5  1  0
  5  6  2  0
  6  7  1  0
  6  8  1  0
  8  9  1  0
  9 10  1  0
 10 11  2  0
 10 12  1  0
 12 13  1  0
 13 14  1  0
  5 15  1  0
 15 16  1  0
 15 17  2  0
 17 18  1  0
 18 19  2  0
 18 20  1  0
 20 21  1  0
 20 22  1  0
 22 23  2  0
 23 24  1  0
 23 25  1  0
 25 26  1  0
 25 27  2  0
 27 28  1  0
 27 29  1  0
 29 30  1  0
 29 31  2  0
 31 32  1  0
 32 33  1  0
 32 34  1  0
 32 35  1  0
 35 36  1  0
 35 37  1  0
 35 38  1  0
 17 39  1  0
 39 40  1  0
 39  4  1  0
 13  8  2  0
 31 22  1  0
M  CHG  3   9  -1  12  -1  14  -1
M  END
>  <UniqueID>  (34) 
33

>  <SMILES>  (34) 
C=c1[nH]c(C(=O)Nc2ccccc2CC)c/c1=C\c1[n-]c(=O)[n-]c1[O-]

>  <Energy>  (34) 
104.7207301080912

>  <Genealogy>  (34) 
C=c1[nH]c(C(=O)Nc2ccccc2CC)cc1=Cc1[n-]c(=O)[n-]c1[O-] (protonated)
C=c1[nH]c(C(=O)Nc2ccccc2CC)c/c1=C\c1[n-]c(=O)[n-]c1[O-] (cis-trans isomerization)
C=c1[nH]c(C(=O)Nc2ccccc2CC)c/c1=C\c1[n-]c(=O)[n-]c1[O-] (3D coordinates assigned)
C=c1[nH]c(C(=O)Nc2ccccc2CC)c/c1=C\c1[n-]c(=O)[n-]c1[O-] (optimized conformer: 104.7207301080912 kcal/mol)

>  <smiles>  (34) 
C=c1[nH]c(C(=O)Nc2ccccc2CC)cc1=Cc1[nH]c(=O)[nH]c1O

>  <score_type>  (34) 
oracle

>  <origin>  (34) 
adg

>  <m_score__min__energy>  (34) 
-17.079999999999998

>  <m_primary>  (34) 
energy

$$$$
34:0
     RDKit          3D

 61 64  0  0  0  0  0  0  0  0999 V2000
   64.8310   31.8390   50.4840 C   0  0  0  0  0  0  0  0  0  0  0  0
   64.5780   32.7080   49.2550 C   0  0  0  0  0  0  0  0  0  0  0  0
   63.2370   32.4510   48.7060 N   0  0  0  0  0  0  0  0  0  0  0  0
   62.6620   31.2170   48.8940 C   0  0  0  0  0  0  0  0  0  0  0  0
   61.4030   30.9950   48.3630 C   0  0  0  0  0  0  0  0  0  0  0  0
   60.5380   29.9190   48.3730 C   0  0  0  0  0  0  0  0  0  0  0  0
   59.4080   30.3030   47.7270 N   0  0  0  0  0  0  0  0  0  0  0  0
   59.5370   31.5610   47.3150 N   0  0  0  0  0  0  0  0  0  0  0  0
   58.4750   32.3510   46.6920 C   0  0  0  0  0  0  0  0  0  0  0  0
   58.7680   32.5710   45.2360 C   0  0  0  0  0  0  0  0  0  0  0  0
   59.4350   33.5830   44.8950 O   0  0  0  0  0  0  0  0  0  0  0  0
   58.3410   31.6330   44.2360 N   0  0  0  0  0  0  0  0  0  0  0  0
   57.4320   32.0970   43.1790 C   0  0  0  0  0  0  0  0  0  0  0  0
   56.9860   30.9390   42.2770 C   0  0  0  0  0  0  0  0  0  0  0  0
   56.5330   29.7550   43.1400 C   0  0  0  0  0  0  0  0  0  0  0  0
   57.6510   29.2470   44.0930 C   0  0  2  0  0  0  0  0  0  0  0  0
   57.0600   28.8960   45.4460 C   0  0  0  0  0  0  0  0  0  0  0  0
   57.3610   29.5900   46.4550 O   0  0  0  0  0  0  0  0  0  0  0  0
   56.1020   27.8410   45.6030 N   0  0  0  0  0  0  0  0  0  0  0  0
   56.3100   26.6340   46.3940 C   0  0  0  0  0  0  0  0  0  0  0  0
   56.2430   25.4300   45.4970 C   0  0  0  0  0  0  0  0  0  0  0  0
   57.2800   25.1630   44.5890 C   0  0  0  0  0  0  0  0  0  0  0  0
   57.2290   24.0320   43.7690 C   0  0  0  0  0  0  0  0  0  0  0  0
   56.1410   23.1410   43.8580 C   0  0  0  0  0  0  0  0  0  0  0  0
   56.0410   21.9940   43.0600 O   0  0  0  0  0  0  0  0  0  0  0  0
   57.0260   20.9640   43.0010 C   0  0  0  0  0  0  0  0  0  0  0  0
   55.1200   23.3990   44.7790 C   0  0  0  0  0  0  0  0  0  0  0  0
   55.1690   24.5320   45.5960 C   0  0  0  0  0  0  0  0  0  0  0  0
   58.8280   30.2460   44.2380 C   0  0  0  0  0  0  0  0  0  0  0  0
   60.7540   31.9850   47.7010 C   0  0  0  0  0  0  0  0  0  0  0  0
   61.2940   33.2150   47.5330 N   0  0  0  0  0  0  0  0  0  0  0  0
   62.5460   33.4480   48.0310 C   0  0  0  0  0  0  0  0  0  0  0  0
   63.0580   34.5890   47.8770 O   0  0  0  0  0  0  0  0  0  0  0  0
   64.6583   32.4320   51.3942 H   0  0  0  0  0  0  0  0  0  0  0  0
   64.1462   30.9783   50.4718 H   0  0  0  0  0  0  0  0  0  0  0  0
   65.8708   31.4804   50.4718 H   0  0  0  0  0  0  0  0  0  0  0  0
   64.6551   33.7678   49.5395 H   0  0  0  0  0  0  0  0  0  0  0  0
   65.3279   32.4643   48.4880 H   0  0  0  0  0  0  0  0  0  0  0  0
   63.1877   30.4275   49.4511 H   0  0  0  0  0  0  0  0  0  0  0  0
   60.7293   28.9330   48.8215 H   0  0  0  0  0  0  0  0  0  0  0  0
   58.5550   29.7160   47.5940 H   0  0  0  0  0  0  0  0  0  0  0  0
   57.5194   31.8154   46.7920 H   0  0  0  0  0  0  0  0  0  0  0  0
   58.4169   33.3277   47.1946 H   0  0  0  0  0  0  0  0  0  0  0  0
   56.5444   32.5510   43.6439 H   0  0  0  0  0  0  0  0  0  0  0  0
   57.9671   32.8321   42.5599 H   0  0  0  0  0  0  0  0  0  0  0  0
   56.1501   31.2703   41.6434 H   0  0  0  0  0  0  0  0  0  0  0  0
   57.8289   30.6259   41.6434 H   0  0  0  0  0  0  0  0  0  0  0  0
   55.6704   30.0702   43.7455 H   0  0  0  0  0  0  0  0  0  0  0  0
   56.2729   28.9289   42.4618 H   0  0  0  0  0  0  0  0  0  0  0  0
   58.0789   28.3416   43.6378 H   0  0  0  0  0  0  0  0  0  0  0  0
   57.2976   26.6774   46.8765 H   0  0  0  0  0  0  0  0  0  0  0  0
   55.5285   26.5612   47.1647 H   0  0  0  0  0  0  0  0  0  0  0  0
   58.1380   25.8481   44.5224 H   0  0  0  0  0  0  0  0  0  0  0  0
   58.0404   23.8371   43.0523 H   0  0  0  0  0  0  0  0  0  0  0  0
   57.3088   20.6682   44.0220 H   0  0  0  0  0  0  0  0  0  0  0  0
   56.6153   20.0940   42.4677 H   0  0  0  0  0  0  0  0  0  0  0  0
   57.9135   21.3355   42.4677 H   0  0  0  0  0  0  0  0  0  0  0  0
   54.2712   22.7041   44.8609 H   0  0  0  0  0  0  0  0  0  0  0  0
   54.3623   24.7206   46.3197 H   0  0  0  0  0  0  0  0  0  0  0  0
   59.3526   30.0497   45.1847 H   0  0  0  0  0  0  0  0  0  0  0  0
   59.5106   30.1116   43.3859 H   0  0  0  0  0  0  0  0  0  0  0  0
  1  2  1  0
  2  3  1  0
  3  4  1  0
  4  5  2  0
  5  6  1  0
  6  7  2  0
  7  8  1  0
  8  9  1  0
  9 10  1  0
 10 11  2  0
 10 12  1  0
 12 13  1  0
 13 14  1  0
 14 15  1  0
 15 16  1  0
 16 17  1  0
 17 18  2  0
 17 19  1  0
 19 20  1  0
 20 21  1  0
 21 22  2  0
 22 23  1  0
 23 24  2  0
 24 25  1  0
 25 26  1  0
 24 27  1  0
 27 28  2  0
 16 29  1  0
  8 30  1  0
 30 31  2  0
 31 32  1  0
 32 33  2  0
 32  3  1  0
 30  5  1  0
 29 12  1  0
 28 21  1  0
  1 34  1  0
  1 35  1  0
  1 36  1  0
  2 37  1  0
  2 38  1  0
  4 39  1  0
  6 40  1  0
  7 41  1  0
  9 42  1  0
  9 43  1  0
 13 44  1  0
 13 45  1  0
 14 46  1  0
 14 47  1  0
 15 48  1  0
 15 49  1  0
 16 50  1  6
 20 51  1  0
 20 52  1  0
 22 53  1  0
 23 54  1  0
 26 55  1  0
 26 56  1  0
 26 57  1  0
 27 58  1  0
 28 59  1  0
 29 60  1  0
 29 61  1  0
M  CHG  2   7   1  19  -1
M  END
>  <UniqueID>  (35) 
34

>  <SMILES>  (35) 
CCn1cc2c[nH+]n(CC(=O)N3CCC[C@H](C(=O)[N-]Cc4ccc(OC)cc4)C3)c2nc1=O

>  <Energy>  (35) 
106.6844257723256

>  <Genealogy>  (35) 
CCn1cc2c[nH+]n(CC(=O)N3CCCC(C(=O)[N-]Cc4ccc(OC)cc4)C3)c2nc1=O (protonated)
CCn1cc2c[nH+]n(CC(=O)N3CCC[C@H](C(=O)[N-]Cc4ccc(OC)cc4)C3)c2nc1=O (chirality)
CCn1cc2c[nH+]n(CC(=O)N3CCC[C@H](C(=O)[N-]Cc4ccc(OC)cc4)C3)c2nc1=O (3D coordinates assigned)
CCn1cc2c[nH+]n(CC(=O)N3CCC[C@H](C(=O)[N-]Cc4ccc(OC)cc4)C3)c2nc1=O (nonaromatic ring conformer: 106.6844257723256 kcal/mol)

>  <smiles>  (35) 
CCn1cc2cnn(CC(=O)N3CCCC(C(=O)NCc4ccc(OC)cc4)C3)c2nc1=O

>  <score_type>  (35) 
oracle

>  <origin>  (35) 
adg

>  <m_score__min__energy>  (35) 
-9.1699999999999999

>  <m_primary>  (35) 
energy

$$$$
35:0
     RDKit          3D

 25 25  0  0  0  0  0  0  0  0999 V2000
   55.8110   28.3410   45.2650 O   0  0  0  0  0  0  0  0  0  0  0  0
   56.5100   27.3830   45.7010 C   0  0  0  0  0  0  0  0  0  0  0  0
   57.9060   27.5930   45.7530 C   0  0  0  0  0  0  0  0  0  0  0  0
   58.4450   28.9410   45.2780 C   0  0  0  0  0  0  0  0  0  0  0  0
   57.9720   29.2930   43.8590 C   0  0  0  0  0  0  0  0  0  0  0  0
   56.9690   30.4500   43.8440 C   0  0  0  0  0  0  0  0  0  0  0  0
   56.7190   30.8640   45.1570 O   0  0  0  0  0  0  0  0  0  0  0  0
   58.8750   26.6760   46.1690 C   0  0  0  0  0  0  0  0  0  0  0  0
   58.7280   25.3870   46.6440 C   0  0  0  0  0  0  0  0  0  0  0  0
   57.5770   24.6430   46.8460 C   0  0  0  0  0  0  0  0  0  0  0  0
   57.7760   23.3630   47.3590 O   0  0  0  0  0  0  0  0  0  0  0  0
   56.2560   25.0170   46.5960 C   0  0  0  0  0  0  0  0  0  0  0  0
   55.3080   24.0320   46.9070 O   0  0  0  0  0  0  0  0  0  0  0  0
   55.7850   26.2380   46.0770 C   0  0  0  0  0  0  0  0  0  0  0  0
   54.4040   26.3350   45.9110 O   0  0  0  0  0  0  0  0  0  0  0  0
   58.0997   29.7233   45.9699 H   0  0  0  0  0  0  0  0  0  0  0  0
   59.5429   28.8759   45.2594 H   0  0  0  0  0  0  0  0  0  0  0  0
   58.8470   29.5772   43.2561 H   0  0  0  0  0  0  0  0  0  0  0  0
   57.4662   28.4075   43.4466 H   0  0  0  0  0  0  0  0  0  0  0  0
   57.3851   31.2892   43.2673 H   0  0  0  0  0  0  0  0  0  0  0  0
   56.0299   30.1168   43.3782 H   0  0  0  0  0  0  0  0  0  0  0  0
   56.2530   30.1080   45.6000 H   0  0  0  0  0  0  0  0  0  0  0  0
   59.9130   27.0352   46.1091 H   0  0  0  0  0  0  0  0  0  0  0  0
   59.6666   24.8740   46.9005 H   0  0  0  0  0  0  0  0  0  0  0  0
   55.5360   23.1220   47.2890 H   0  0  0  0  0  0  0  0  0  0  0  0
  1  2  2  0
  2  3  1  0
  3  4  1  0
  4  5  1  0
  5  6  1  0
  6  7  1  0
  3  8  2  0
  8  9  1  0
  9 10  2  0
 10 11  1  0
 10 12  1  0
 12 13  1  0
 12 14  2  0
 14 15  1  0
 14  2  1  0
  4 16  1  0
  4 17  1  0
  5 18  1  0
  5 19  1  0
  6 20  1  0
  6 21  1  0
  7 22  1  0
  8 23  1  0
  9 24  1  0
 13 25  1  0
M  CHG  2  11  -1  15  -1
M  END
>  <UniqueID>  (36) 
35

>  <SMILES>  (36) 
O=c1c(CCCO)ccc([O-])c(O)c1[O-]

>  <Energy>  (36) 
46.237084644512755

>  <Genealogy>  (36) 
O=c1c(CCCO)ccc([O-])c(O)c1[O-] (protonated)
O=c1c(CCCO)ccc([O-])c(O)c1[O-] (3D coordinates assigned)
O=c1c(CCCO)ccc([O-])c(O)c1[O-] (optimized conformer: 46.237084644512755 kcal/mol)

>  <smiles>  (36) 
O=c1c(CCCO)ccc(O)c(O)c1O

>  <score_type>  (36) 
oracle

>  <origin>  (36) 
adg

>  <m_score__min__energy>  (36) 
-11.43

>  <m_primary>  (36) 
energy

$$$$
36:0
     RDKit          3D

 67 71  0  0  1  0  0  0  0  0999 V2000
   61.6040   30.8820   51.2570 C   0  0  0  0  0  0  0  0  0  0  0  0
   61.1790   32.2650   51.1670 N   0  0  0  0  0  0  0  0  0  0  0  0
   62.1650   33.2280   50.7230 C   0  0  0  0  0  0  0  0  0  0  0  0
   59.8680   32.7100   51.4870 C   0  0  0  0  0  0  0  0  0  0  0  0
   59.5760   33.9460   51.3940 O   0  0  0  0  0  0  0  0  0  0  0  0
   58.7990   31.8350   51.9300 C   0  0  0  0  0  0  0  0  0  0  0  0
   58.3600   32.0260   53.2470 C   0  0  0  0  0  0  0  0  0  0  0  0
   57.3600   31.2210   53.7510 C   0  0  0  0  0  0  0  0  0  0  0  0
   56.8460   30.2620   52.9120 C   0  0  0  0  0  0  0  0  0  0  0  0
   57.2640   30.0770   51.6520 N   0  0  0  0  0  0  0  0  0  0  0  0
   58.2490   30.8600   51.1340 C   0  0  0  0  0  0  0  0  0  0  0  0
   58.6110   30.6080   49.7940 N   0  0  0  0  0  0  0  0  0  0  0  0
   58.7490   29.3280   49.1670 C   0  0  0  0  0  0  0  0  0  0  0  0
   59.8660   29.4510   48.1490 C   0  0  0  0  0  0  0  0  0  0  0  0
   59.3160   30.3120   47.0890 N   0  0  0  0  0  0  0  0  0  0  0  0
   59.5660   30.0540   45.7120 C   0  0  0  0  0  0  0  0  0  0  0  0
   60.6870   29.7150   45.2600 O   0  0  0  0  0  0  0  0  0  0  0  0
   58.4510   30.1950   44.7830 C   0  0  0  0  0  0  0  0  0  0  0  0
   58.4820   31.1240   43.7530 C   0  0  0  0  0  0  0  0  0  0  0  0
   57.4170   31.2340   42.8920 C   0  0  0  0  0  0  0  0  0  0  0  0
   56.2850   30.4470   43.0040 C   0  0  0  0  0  0  0  0  0  0  0  0
   56.2660   29.5210   44.0390 C   0  0  0  0  0  0  0  0  0  0  0  0
   57.3240   29.3920   44.9160 C   0  0  0  0  0  0  0  0  0  0  0  0
   57.2850   28.4400   45.9680 N   0  0  0  0  0  0  0  0  0  0  0  0
   57.0340   27.2100   45.6710 C   0  0  0  0  0  0  0  0  0  0  0  0
   55.9070   26.5750   46.0250 N   0  0  0  0  0  0  0  0  0  0  0  0
   55.6470   25.2870   45.7130 C   0  0  0  0  0  0  0  0  0  0  0  0
   56.5950   24.5660   44.9820 C   0  0  0  0  0  0  0  0  0  0  0  0
   57.7500   25.2500   44.6310 C   0  0  0  0  0  0  0  0  0  0  0  0
   57.9750   26.5280   44.9580 N   0  0  0  0  0  0  0  0  0  0  0  0
   58.5110   31.4280   47.5480 C   0  0  2  0  0  0  0  0  0  0  0  0
   58.6140   32.6060   46.6560 C   0  0  0  0  0  0  0  0  0  0  0  0
   57.4760   33.1220   46.0410 C   0  0  0  0  0  0  0  0  0  0  0  0
   57.5400   34.2140   45.2090 C   0  0  0  0  0  0  0  0  0  0  0  0
   58.7550   34.8130   44.9780 C   0  0  0  0  0  0  0  0  0  0  0  0
   59.9070   34.3370   45.5650 C   0  0  0  0  0  0  0  0  0  0  0  0
   59.8250   33.2390   46.3970 C   0  0  0  0  0  0  0  0  0  0  0  0
   58.8730   31.8040   48.9690 C   0  0  0  0  0  0  0  0  0  0  0  0
   61.6926   30.5937   52.3149 H   0  0  0  0  0  0  0  0  0  0  0  0
   60.8624   30.2376   50.7622 H   0  0  0  0  0  0  0  0  0  0  0  0
   62.5795   30.7652   50.7622 H   0  0  0  0  0  0  0  0  0  0  0  0
   62.6422   33.6940   51.5977 H   0  0  0  0  0  0  0  0  0  0  0  0
   62.9285   32.7182   50.1170 H   0  0  0  0  0  0  0  0  0  0  0  0
   61.6734   34.0033   50.1170 H   0  0  0  0  0  0  0  0  0  0  0  0
   58.8090   32.8110   53.8732 H   0  0  0  0  0  0  0  0  0  0  0  0
   56.9900   31.3415   54.7799 H   0  0  0  0  0  0  0  0  0  0  0  0
   56.0473   29.6100   53.2955 H   0  0  0  0  0  0  0  0  0  0  0  0
   59.0042   28.5653   49.9175 H   0  0  0  0  0  0  0  0  0  0  0  0
   57.8088   29.0244   48.6833 H   0  0  0  0  0  0  0  0  0  0  0  0
   60.7544   29.9146   48.6027 H   0  0  0  0  0  0  0  0  0  0  0  0
   60.1863   28.4717   47.7639 H   0  0  0  0  0  0  0  0  0  0  0  0
   59.3606   31.7735   43.6255 H   0  0  0  0  0  0  0  0  0  0  0  0
   57.4665   31.9768   42.0821 H   0  0  0  0  0  0  0  0  0  0  0  0
   55.4404   30.5496   42.3068 H   0  0  0  0  0  0  0  0  0  0  0  0
   55.3852   28.8738   44.1630 H   0  0  0  0  0  0  0  0  0  0  0  0
   54.7055   24.8138   46.0287 H   0  0  0  0  0  0  0  0  0  0  0  0
   56.4345   23.5148   44.7006 H   0  0  0  0  0  0  0  0  0  0  0  0
   58.5194   24.7149   44.0550 H   0  0  0  0  0  0  0  0  0  0  0  0
   58.8620   27.0370   44.6810 H   0  0  0  0  0  0  0  0  0  0  0  0
   57.4629   31.0951   47.5237 H   0  0  0  0  0  0  0  0  0  0  0  0
   56.5026   32.6441   46.2256 H   0  0  0  0  0  0  0  0  0  0  0  0
   56.6284   34.6044   44.7331 H   0  0  0  0  0  0  0  0  0  0  0  0
   58.8088   35.6876   44.3130 H   0  0  0  0  0  0  0  0  0  0  0  0
   60.8749   34.8235   45.3739 H   0  0  0  0  0  0  0  0  0  0  0  0
   60.7417   32.8543   46.8678 H   0  0  0  0  0  0  0  0  0  0  0  0
   59.9351   32.0836   49.0301 H   0  0  0  0  0  0  0  0  0  0  0  0
   58.2846   32.6660   49.3166 H   0  0  0  0  0  0  0  0  0  0  0  0
  1  2  1  0
  2  3  1  0
  2  4  1  0
  4  5  2  0
  4  6  1  0
  6  7  2  0
  7  8  1  0
  8  9  2  0
  9 10  1  0
 10 11  2  0
 11 12  1  0
 12 13  1  0
 13 14  1  0
 14 15  1  0
 15 16  1  0
 16 17  2  0
 16 18  1  0
 18 19  2  0
 19 20  1  0
 20 21  2  0
 21 22  1  0
 22 23  2  0
 23 24  1  0
 24 25  2  3
 25 26  1  0
 26 27  2  0
 27 28  1  0
 28 29  2  0
 29 30  1  0
 15 31  1  0
 31 32  1  0
 32 33  2  0
 33 34  1  0
 34 35  2  0
 35 36  1  0
 36 37  2  0
 31 38  1  0
 11  6  1  0
 38 12  1  0
 23 18  1  0
 30 25  1  0
 37 32  1  0
  1 39  1  0
  1 40  1  0
  1 41  1  0
  3 42  1  0
  3 43  1  0
  3 44  1  0
  7 45  1  0
  8 46  1  0
  9 47  1  0
 13 48  1  0
 13 49  1  0
 14 50  1  0
 14 51  1  0
 19 52  1  0
 20 53  1  0
 21 54  1  0
 22 55  1  0
 27 56  1  0
 28 57  1  0
 29 58  1  0
 30 59  1  0
 31 60  1  1
 33 61  1  0
 34 62  1  0
 35 63  1  0
 36 64  1  0
 37 65  1  0
 38 66  1  0
 38 67  1  0
M  END
>  <smiles>  (37) 
CN(C)C(=O)c1cccnc1N1CCN(C(=O)c2ccccc2N=c2nccc[nH]2)C(c2ccccc2)C1

>  <score_type>  (37) 
oracle

>  <origin>  (37) 
adg

>  <m_score__min__energy>  (37) 
-9.7400000000000002

>  <m_primary>  (37) 
energy

$$$$
37:0
     RDKit          3D

 52 55  0  0  0  0  0  0  0  0999 V2000
   58.6824   28.8426   48.8867 H   0  0  0  0  0  0  0  0  0  0  0  0
   58.7950   29.3360   47.9100 C   0  0  0  0  0  0  0  0  0  0  0  0
   58.7940   28.5920   46.7730 N   0  0  0  0  0  0  0  0  0  0  0  0
   58.9240   29.1440   45.5370 C   0  0  0  0  0  0  0  0  0  0  0  0
   58.9260   28.3530   44.5010 N   0  0  0  0  0  0  0  0  0  0  0  0
   58.1280   27.1780   44.3090 C   0  0  0  0  0  0  0  0  0  0  0  0
   57.9610   26.7390   43.1400 O   0  0  0  0  0  0  0  0  0  0  0  0
   57.5720   26.4790   45.4360 N   0  0  0  0  0  0  0  0  0  0  0  0
   57.7000   26.8860   46.3900 H   0  0  0  0  0  0  0  0  0  0  0  0
   56.7000   25.3480   45.3040 C   0  0  0  0  0  0  0  0  0  0  0  0
   57.2130   24.1460   44.7950 C   0  0  0  0  0  0  0  0  0  0  0  0
   58.2734   24.0810   44.5099 H   0  0  0  0  0  0  0  0  0  0  0  0
   56.3840   23.0300   44.6480 C   0  0  0  0  0  0  0  0  0  0  0  0
   56.7959   22.0862   44.2613 H   0  0  0  0  0  0  0  0  0  0  0  0
   55.0330   23.1130   44.9920 C   0  0  0  0  0  0  0  0  0  0  0  0
   54.3836   22.2317   44.8842 H   0  0  0  0  0  0  0  0  0  0  0  0
   54.5050   24.3140   45.4730 C   0  0  0  0  0  0  0  0  0  0  0  0
   53.4394   24.3781   45.7382 H   0  0  0  0  0  0  0  0  0  0  0  0
   55.3300   25.4360   45.6180 C   0  0  0  0  0  0  0  0  0  0  0  0
   54.7750   26.6360   46.0470 O   0  0  0  0  0  0  0  0  0  0  0  0
   59.0920   30.5390   45.4280 C   0  0  0  0  0  0  0  0  0  0  0  0
   59.2223   31.0053   44.4403 H   0  0  0  0  0  0  0  0  0  0  0  0
   59.0920   31.3250   46.5810 C   0  0  0  0  0  0  0  0  0  0  0  0
   59.2125   32.4153   46.4995 H   0  0  0  0  0  0  0  0  0  0  0  0
   58.9390   30.7320   47.8450 C   0  0  0  0  0  0  0  0  0  0  0  0
   58.9380   31.5580   49.0790 C   0  0  0  0  0  0  0  0  0  0  0  0
   58.3610   31.0700   50.2650 C   0  0  0  0  0  0  0  0  0  0  0  0
   57.9061   30.0685   50.2787 H   0  0  0  0  0  0  0  0  0  0  0  0
   58.3610   31.8480   51.4270 C   0  0  0  0  0  0  0  0  0  0  0  0
   57.9155   31.4497   52.3505 H   0  0  0  0  0  0  0  0  0  0  0  0
   58.9250   33.1330   51.4240 C   0  0  0  0  0  0  0  0  0  0  0  0
   58.9350   33.9470   52.6590 C   0  0  0  0  0  0  0  0  0  0  0  0
   58.1710   34.9470   52.7480 O   0  0  0  0  0  0  0  0  0  0  0  0
   59.7930   33.6140   53.7650 N   0  0  0  0  0  0  0  0  0  0  0  0
   61.2340   33.4570   53.5290 C   0  0  0  0  0  0  0  0  0  0  0  0
   61.3973   32.6117   52.8443 H   0  0  0  0  0  0  0  0  0  0  0  0
   61.6225   34.3871   53.0886 H   0  0  0  0  0  0  0  0  0  0  0  0
   61.9750   33.1890   54.8440 C   0  0  0  0  0  0  0  0  0  0  0  0
   62.9723   32.7811   54.6225 H   0  0  0  0  0  0  0  0  0  0  0  0
   62.0704   34.1328   55.4010 H   0  0  0  0  0  0  0  0  0  0  0  0
   61.2280   32.2260   55.6590 N   0  0  0  0  0  0  0  0  0  0  0  0
   61.0690   31.3600   55.0910 H   0  0  0  0  0  0  0  0  0  0  0  0
   59.9210   32.7540   56.0970 C   0  0  0  0  0  0  0  0  0  0  0  0
   59.2222   31.9097   56.1906 H   0  0  0  0  0  0  0  0  0  0  0  0
   60.0945   33.2730   57.0512 H   0  0  0  0  0  0  0  0  0  0  0  0
   59.3000   33.7920   55.1350 C   0  0  0  0  0  0  0  0  0  0  0  0
   58.2062   33.6750   55.1398 H   0  0  0  0  0  0  0  0  0  0  0  0
   59.5865   34.7970   55.4782 H   0  0  0  0  0  0  0  0  0  0  0  0
   59.5150   33.6150   50.2440 C   0  0  0  0  0  0  0  0  0  0  0  0
   59.9792   34.6122   50.2340 H   0  0  0  0  0  0  0  0  0  0  0  0
   59.5170   32.8380   49.0830 C   0  0  0  0  0  0  0  0  0  0  0  0
   59.9759   33.2318   48.1641 H   0  0  0  0  0  0  0  0  0  0  0  0
  1  2  1  0
  2  3  1  0
  3  4  1  0
  4  5  2  0
  5  6  1  0
  6  7  2  0
  6  8  1  0
  8  9  1  0
  8 10  1  0
 10 11  2  0
 11 12  1  0
 11 13  1  0
 13 14  1  0
 13 15  2  0
 15 16  1  0
 15 17  1  0
 17 18  1  0
 17 19  2  0
 19 20  1  0
  4 21  1  0
 21 22  1  0
 21 23  2  0
 23 24  1  0
 23 25  1  0
 25 26  1  0
 26 27  2  0
 27 28  1  0
 27 29  1  0
 29 30  1  0
 29 31  2  0
 31 32  1  0
 32 33  2  0
 32 34  1  0
 34 35  1  0
 35 36  1  0
 35 37  1  0
 35 38  1  0
 38 39  1  0
 38 40  1  0
 38 41  1  0
 41 42  1  0
 41 43  1  0
 43 44  1  0
 43 45  1  0
 43 46  1  0
 46 47  1  0
 46 48  1  0
 31 49  1  0
 49 50  1  0
 49 51  2  0
 51 52  1  0
 25  2  2  0
 51 26  1  0
 19 10  1  0
 46 34  1  0
M  CHG  2   3  -1  20  -1
M  END
>  <UniqueID>  (38) 
36

>  <SMILES>  (38) 
O=C(/N=c1\ccc(-c2ccc(C(=O)N3CCNCC3)cc2)c[n-]1)Nc1ccccc1[O-]

>  <Energy>  (38) 
84.77826752697744

>  <Genealogy>  (38) 
O=C(N=c1ccc(-c2ccc(C(=O)N3CCNCC3)cc2)c[n-]1)Nc1ccccc1[O-] (protonated)
O=C(/N=c1\ccc(-c2ccc(C(=O)N3CCNCC3)cc2)c[n-]1)Nc1ccccc1[O-] (cis-trans isomerization)
O=C(/N=c1\ccc(-c2ccc(C(=O)N3CCNCC3)cc2)c[n-]1)Nc1ccccc1[O-] (3D coordinates assigned)
O=C(/N=c1\ccc(-c2ccc(C(=O)N3CCNCC3)cc2)c[n-]1)Nc1ccccc1[O-] (nonaromatic ring conformer: 84.77826752697744 kcal/mol)

>  <smiles>  (38) 
O=C(N=c1ccc(-c2ccc(C(=O)N3CCNCC3)cc2)c[nH]1)Nc1ccccc1O

>  <score_type>  (38) 
oracle

>  <origin>  (38) 
adg

>  <m_score__min__energy>  (38) 
-12.76

>  <m_primary>  (38) 
energy

$$$$
38:0
     RDKit          3D

 45 47  0  0  0  0  0  0  0  0999 V2000
   53.2850   22.6200   46.8630 C   0  0  0  0  0  0  0  0  0  0  0  0
   53.4080   22.5110   45.4620 O   0  0  0  0  0  0  0  0  0  0  0  0
   53.1960   23.7680   44.8520 C   0  0  0  0  0  0  0  0  0  0  0  0
   54.2690   24.7310   45.2560 C   0  0  0  0  0  0  0  0  0  0  0  0
   55.6270   24.4940   45.2130 C   0  0  0  0  0  0  0  0  0  0  0  0
   56.1760   25.6500   45.7250 C   0  0  0  0  0  0  0  0  0  0  0  0
   57.6360   25.9480   45.8550 C   0  0  0  0  0  0  0  0  0  0  0  0
   57.8400   27.0310   46.8140 N   0  0  0  0  0  0  0  0  0  0  0  0
   59.0970   27.2490   47.4690 C   0  0  0  0  0  0  0  0  0  0  0  0
   59.9770   26.3470   47.4630 O   0  0  0  0  0  0  0  0  0  0  0  0
   59.3470   28.4580   48.1950 N   0  0  0  0  0  0  0  0  0  0  0  0
   59.5880   29.7480   47.6170 C   0  0  0  0  0  0  0  0  0  0  0  0
   60.8470   30.3700   47.6980 C   0  0  0  0  0  0  0  0  0  0  0  0
   61.0370   31.6430   47.1530 C   0  0  0  0  0  0  0  0  0  0  0  0
   59.9760   32.3080   46.5340 C   0  0  0  0  0  0  0  0  0  0  0  0
   58.7130   31.7010   46.4540 C   0  0  0  0  0  0  0  0  0  0  0  0
   57.5570   32.4230   45.8180 C   0  0  0  0  0  0  0  0  0  0  0  0
   57.3500   31.9380   44.4560 N   0  0  0  0  0  0  0  0  0  0  0  0
   57.8750   32.5570   43.2470 C   0  0  0  0  0  0  0  0  0  0  0  0
   57.3870   31.6600   42.0810 C   0  0  0  0  0  0  0  0  0  0  0  0
   56.5990   30.5870   42.6810 N   0  0  0  0  0  0  0  0  0  0  0  0
   56.6160   30.7950   44.0760 C   0  0  0  0  0  0  0  0  0  0  0  0
   56.0210   30.0430   44.8920 O   0  0  0  0  0  0  0  0  0  0  0  0
   58.5230   30.4290   47.0180 C   0  0  0  0  0  0  0  0  0  0  0  0
   55.1980   26.5210   46.0430 N   0  0  0  0  0  0  0  0  0  0  0  0
   54.0330   25.9580   45.7640 N   0  0  0  0  0  0  0  0  0  0  0  0
   54.0239   21.9652   47.3480 H   0  0  0  0  0  0  0  0  0  0  0  0
   53.4633   23.6621   47.1668 H   0  0  0  0  0  0  0  0  0  0  0  0
   52.2719   22.3177   47.1668 H   0  0  0  0  0  0  0  0  0  0  0  0
   53.2099   23.6474   43.7587 H   0  0  0  0  0  0  0  0  0  0  0  0
   52.2216   24.1624   45.1761 H   0  0  0  0  0  0  0  0  0  0  0  0
   56.1489   23.5945   44.8546 H   0  0  0  0  0  0  0  0  0  0  0  0
   58.1621   25.0475   46.2047 H   0  0  0  0  0  0  0  0  0  0  0  0
   58.0315   26.2534   44.8750 H   0  0  0  0  0  0  0  0  0  0  0  0
   57.0320   27.6550   47.0350 H   0  0  0  0  0  0  0  0  0  0  0  0
   61.6837   29.8536   48.1912 H   0  0  0  0  0  0  0  0  0  0  0  0
   62.0252   32.1227   47.2117 H   0  0  0  0  0  0  0  0  0  0  0  0
   60.1307   33.3103   46.1080 H   0  0  0  0  0  0  0  0  0  0  0  0
   56.6470   32.2450   46.4098 H   0  0  0  0  0  0  0  0  0  0  0  0
   57.7786   33.5000   45.7867 H   0  0  0  0  0  0  0  0  0  0  0  0
   57.4834   33.5790   43.1365 H   0  0  0  0  0  0  0  0  0  0  0  0
   58.9719   32.6365   43.2709 H   0  0  0  0  0  0  0  0  0  0  0  0
   56.7654   32.2447   41.3869 H   0  0  0  0  0  0  0  0  0  0  0  0
   58.2357   31.2565   41.5092 H   0  0  0  0  0  0  0  0  0  0  0  0
   57.5268   29.9635   46.9885 H   0  0  0  0  0  0  0  0  0  0  0  0
  1  2  1  0
  2  3  1  0
  3  4  1  0
  4  5  2  0
  5  6  1  0
  6  7  1  0
  7  8  1  0
  8  9  1  0
  9 10  2  0
  9 11  1  0
 11 12  1  0
 12 13  2  0
 13 14  1  0
 14 15  2  0
 15 16  1  0
 16 17  1  0
 17 18  1  0
 18 19  1  0
 19 20  1  0
 20 21  1  0
 21 22  1  0
 22 23  2  0
 16 24  2  0
  6 25  2  0
 25 26  1  0
 26  4  1  0
 24 12  1  0
 22 18  1  0
  1 27  1  0
  1 28  1  0
  1 29  1  0
  3 30  1  0
  3 31  1  0
  5 32  1  0
  7 33  1  0
  7 34  1  0
  8 35  1  0
 13 36  1  0
 14 37  1  0
 15 38  1  0
 17 39  1  0
 17 40  1  0
 19 41  1  0
 19 42  1  0
 20 43  1  0
 20 44  1  0
 24 45  1  0
M  CHG  3  11  -1  21  -1  26  -1
M  END
>  <UniqueID>  (39) 
37

>  <SMILES>  (39) 
COCc1cc(CNC(=O)[N-]c2cccc(CN3CC[N-]C3=O)c2)n[n-]1

>  <Energy>  (39) 
87.63410985816043

>  <Genealogy>  (39) 
COCc1cc(CNC(=O)[N-]c2cccc(CN3CC[N-]C3=O)c2)n[n-]1 (protonated)
COCc1cc(CNC(=O)[N-]c2cccc(CN3CC[N-]C3=O)c2)n[n-]1 (3D coordinates assigned)
COCc1cc(CNC(=O)[N-]c2cccc(CN3CC[N-]C3=O)c2)n[n-]1 (nonaromatic ring conformer: 87.63410985816043 kcal/mol)

>  <smiles>  (39) 
COCc1cc(CNC(=O)Nc2cccc(CN3CCNC3=O)c2)n[nH]1

>  <score_type>  (39) 
oracle

>  <origin>  (39) 
adg

>  <m_score__min__energy>  (39) 
-13.27

>  <m_primary>  (39) 
energy

$$$$
39:0
     RDKit          3D

 37 38  0  0  0  0  0  0  0  0999 V2000
   63.6670   32.8490   47.1100 C   0  0  0  0  0  0  0  0  0  0  0  0
   62.5280   33.8320   47.3690 C   0  0  0  0  0  0  0  0  0  0  0  0
   61.2130   33.1030   47.5500 C   0  0  0  0  0  0  0  0  0  0  0  0
   61.2130   31.9620   48.3690 C   0  0  0  0  0  0  0  0  0  0  0  0
   60.0430   31.2500   48.5990 C   0  0  0  0  0  0  0  0  0  0  0  0
   58.8490   31.6660   48.0240 C   0  0  0  0  0  0  0  0  0  0  0  0
   58.8040   32.7930   47.1870 C   0  0  0  0  0  0  0  0  0  0  0  0
   57.4570   33.1680   46.5980 C   0  0  0  0  0  0  0  0  0  0  0  0
   57.3920   32.8450   45.1030 C   0  0  0  0  0  0  0  0  0  0  0  0
   56.7230   31.5660   44.8840 N   0  0  0  0  0  0  0  0  0  0  0  0
   57.3930   30.3700   44.4760 C   0  0  0  0  0  0  0  0  0  0  0  0
   58.3300   30.4530   43.6390 O   0  0  0  0  0  0  0  0  0  0  0  0
   57.0510   29.0530   45.0400 C   0  0  0  0  0  0  0  0  0  0  0  0
   57.9570   28.0670   45.3970 C   0  0  0  0  0  0  0  0  0  0  0  0
   57.2080   26.9880   45.8110 C   0  0  0  0  0  0  0  0  0  0  0  0
   55.8940   27.3730   45.6690 C   0  0  0  0  0  0  0  0  0  0  0  0
   54.8010   26.5710   45.9700 O   0  0  0  0  0  0  0  0  0  0  0  0
   55.7810   28.6260   45.1920 N   0  0  0  0  0  0  0  0  0  0  0  0
   60.0070   33.5060   46.9040 C   0  0  0  0  0  0  0  0  0  0  0  0
   59.9890   34.7230   46.0010 C   0  0  0  0  0  0  0  0  0  0  0  0
   64.0738   32.4980   48.0699 H   0  0  0  0  0  0  0  0  0  0  0  0
   63.2871   31.9904   46.5368 H   0  0  0  0  0  0  0  0  0  0  0  0
   64.4608   33.3503   46.5368 H   0  0  0  0  0  0  0  0  0  0  0  0
   62.7491   34.4068   48.2804 H   0  0  0  0  0  0  0  0  0  0  0  0
   62.4403   34.5033   46.5020 H   0  0  0  0  0  0  0  0  0  0  0  0
   62.1521   31.6279   48.8344 H   0  0  0  0  0  0  0  0  0  0  0  0
   60.0619   30.3547   49.2379 H   0  0  0  0  0  0  0  0  0  0  0  0
   57.9251   31.1046   48.2271 H   0  0  0  0  0  0  0  0  0  0  0  0
   56.6689   32.6057   47.1203 H   0  0  0  0  0  0  0  0  0  0  0  0
   57.3130   34.2511   46.7249 H   0  0  0  0  0  0  0  0  0  0  0  0
   56.8335   33.6388   44.5853 H   0  0  0  0  0  0  0  0  0  0  0  0
   58.4167   32.7823   44.7081 H   0  0  0  0  0  0  0  0  0  0  0  0
   59.0543   28.1330   45.3576 H   0  0  0  0  0  0  0  0  0  0  0  0
   57.5816   26.0208   46.1783 H   0  0  0  0  0  0  0  0  0  0  0  0
   59.9755   35.6353   46.6154 H   0  0  0  0  0  0  0  0  0  0  0  0
   60.8873   34.7218   45.3661 H   0  0  0  0  0  0  0  0  0  0  0  0
   59.0912   34.6952   45.3661 H   0  0  0  0  0  0  0  0  0  0  0  0
  1  2  1  0
  2  3  1  0
  3  4  2  0
  4  5  1  0
  5  6  2  0
  6  7  1  0
  7  8  1  0
  8  9  1  0
  9 10  1  0
 10 11  1  0
 11 12  2  0
 11 13  1  0
 13 14  2  0
 14 15  1  0
 15 16  2  0
 16 17  1  0
 16 18  1  0
  7 19  2  0
 19 20  1  0
 19  3  1  0
 18 13  1  0
  1 21  1  0
  1 22  1  0
  1 23  1  0
  2 24  1  0
  2 25  1  0
  4 26  1  0
  5 27  1  0
  6 28  1  0
  8 29  1  0
  8 30  1  0
  9 31  1  0
  9 32  1  0
 14 33  1  0
 15 34  1  0
 20 35  1  0
 20 36  1  0
 20 37  1  0
M  CHG  3  10  -1  17  -1  18  -1
M  END
>  <UniqueID>  (40) 
38

>  <SMILES>  (40) 
CCc1cccc(CC[N-]C(=O)c2ccc([O-])[n-]2)c1C

>  <Energy>  (40) 
64.76444980374951

>  <Genealogy>  (40) 
CCc1cccc(CC[N-]C(=O)c2ccc([O-])[n-]2)c1C (protonated)
CCc1cccc(CC[N-]C(=O)c2ccc([O-])[n-]2)c1C (3D coordinates assigned)
CCc1cccc(CC[N-]C(=O)c2ccc([O-])[n-]2)c1C (optimized conformer: 64.76444980374951 kcal/mol)

>  <smiles>  (40) 
CCc1cccc(CCNC(=O)c2ccc(O)[nH]2)c1C

>  <score_type>  (40) 
oracle

>  <origin>  (40) 
adg

>  <m_score__min__energy>  (40) 
-14.02

>  <m_primary>  (40) 
energy

$$$$
40:0
     RDKit          3D

 53 56  0  0  0  0  0  0  0  0999 V2000
   57.2559   28.2067   54.1819 H   0  0  0  0  0  0  0  0  0  0  0  0
   56.1600   28.2930   54.2200 C   0  0  0  0  0  0  0  0  0  0  0  0
   55.5681   27.5451   54.7679 H   0  0  0  0  0  0  0  0  0  0  0  0
   55.5480   29.3060   53.6010 C   0  0  0  0  0  0  0  0  0  0  0  0
   56.1430   30.2910   52.8230 C   0  0  0  0  0  0  0  0  0  0  0  0
   57.5780   30.5030   52.5380 C   0  0  0  0  0  0  0  0  0  0  0  0
   58.4130   30.2700   53.4540 O   0  0  0  0  0  0  0  0  0  0  0  0
   58.0640   30.9380   51.2070 C   0  0  0  0  0  0  0  0  0  0  0  0
   58.5470   30.0040   50.2740 C   0  0  0  0  0  0  0  0  0  0  0  0
   58.5566   28.9336   50.5274 H   0  0  0  0  0  0  0  0  0  0  0  0
   59.0150   30.4260   49.0270 C   0  0  0  0  0  0  0  0  0  0  0  0
   59.3907   29.6848   48.3063 H   0  0  0  0  0  0  0  0  0  0  0  0
   59.0100   31.7870   48.6860 C   0  0  0  0  0  0  0  0  0  0  0  0
   59.5240   32.2260   47.3690 C   0  0  0  0  0  0  0  0  0  0  0  0
   60.7110   32.6470   47.2850 O   0  0  0  0  0  0  0  0  0  0  0  0
   58.7020   32.1980   46.1850 N   0  0  0  0  0  0  0  0  0  0  0  0
   57.7390   31.1100   45.9580 C   0  0  0  0  0  0  0  0  0  0  0  0
   57.9242   30.3087   46.6884 H   0  0  0  0  0  0  0  0  0  0  0  0
   56.7227   31.5142   46.0752 H   0  0  0  0  0  0  0  0  0  0  0  0
   57.8740   30.5350   44.5370 C   0  0  0  0  0  0  0  0  0  0  0  0
   58.6963   29.8043   44.5351 H   0  0  0  0  0  0  0  0  0  0  0  0
   56.9057   30.0795   44.2822 H   0  0  0  0  0  0  0  0  0  0  0  0
   58.1690   31.6070   43.4530 C   0  0  0  0  0  0  0  0  0  0  0  0
   59.2342   31.5136   43.1948 H   0  0  0  0  0  0  0  0  0  0  0  0
   57.3510   31.3580   42.2100 C   0  0  0  0  0  0  0  0  0  0  0  0
   57.4450   32.1410   41.2250 O   0  0  0  0  0  0  0  0  0  0  0  0
   56.4360   30.2630   42.1530 N   0  0  0  0  0  0  0  0  0  0  0  0
   56.3140   29.6220   42.9680 H   0  0  0  0  0  0  0  0  0  0  0  0
   55.8750   30.0920   41.2890 H   0  0  0  0  0  0  0  0  0  0  0  0
   57.9580   33.0410   43.9710 C   0  0  0  0  0  0  0  0  0  0  0  0
   58.2302   33.7578   43.1823 H   0  0  0  0  0  0  0  0  0  0  0  0
   56.9015   33.1757   44.2462 H   0  0  0  0  0  0  0  0  0  0  0  0
   58.8360   33.2830   45.2030 C   0  0  0  0  0  0  0  0  0  0  0  0
   59.8870   33.3487   44.8849 H   0  0  0  0  0  0  0  0  0  0  0  0
   58.5100   34.2196   45.6789 H   0  0  0  0  0  0  0  0  0  0  0  0
   58.5540   32.7240   49.6290 C   0  0  0  0  0  0  0  0  0  0  0  0
   58.5657   33.7962   49.3834 H   0  0  0  0  0  0  0  0  0  0  0  0
   58.0860   32.3030   50.8760 C   0  0  0  0  0  0  0  0  0  0  0  0
   57.7317   33.0467   51.6050 H   0  0  0  0  0  0  0  0  0  0  0  0
   55.1170   31.0670   52.3160 C   0  0  0  0  0  0  0  0  0  0  0  0
   55.2151   31.9296   51.6405 H   0  0  0  0  0  0  0  0  0  0  0  0
   53.9350   30.5400   52.8300 C   0  0  0  0  0  0  0  0  0  0  0  0
   52.6790   30.9750   52.6250 C   0  0  0  0  0  0  0  0  0  0  0  0
   52.0928   31.2423   53.5166 H   0  0  0  0  0  0  0  0  0  0  0  0
   52.0110   31.1280   51.3130 C   0  0  0  0  0  0  0  0  0  0  0  0
   52.0330   30.2390   50.3030 N   0  0  0  0  0  0  0  0  0  0  0  0
   51.2990   30.8360   49.3400 C   0  0  0  0  0  0  0  0  0  0  0  0
   51.0870   30.3010   48.2190 O   0  0  0  0  0  0  0  0  0  0  0  0
   50.8110   32.0500   49.6700 N   0  0  0  0  0  0  0  0  0  0  0  0
   51.2710   32.2190   50.9210 C   0  0  0  0  0  0  0  0  0  0  0  0
   51.0210   33.3500   51.6870 O   0  0  0  0  0  0  0  0  0  0  0  0
   54.2100   29.4710   53.6080 N   0  0  0  0  0  0  0  0  0  0  0  0
   53.5140   28.8710   54.1070 H   0  0  0  0  0  0  0  0  0  0  0  0
  1  2  1  0
  2  3  1  0
  2  4  2  0
  4  5  1  0
  5  6  1  0
  6  7  2  0
  6  8  1  0
  8  9  2  0
  9 10  1  0
  9 11  1  0
 11 12  1  0
 11 13  2  0
 13 14  1  0
 14 15  2  0
 14 16  1  0
 16 17  1  0
 17 18  1  0
 17 19  1  0
 17 20  1  0
 20 21  1  0
 20 22  1  0
 20 23  1  0
 23 24  1  0
 23 25  1  0
 25 26  2  0
 25 27  1  0
 27 28  1  0
 27 29  1  0
 23 30  1  0
 30 31  1  0
 30 32  1  0
 30 33  1  0
 33 34  1  0
 33 35  1  0
 13 36  1  0
 36 37  1  0
 36 38  2  0
 38 39  1  0
  5 40  2  0
 40 41  1  0
 40 42  1  0
 42 43  2  0
 43 44  1  0
 43 45  1  0
 45 46  1  0
 46 47  1  0
 47 48  2  0
 47 49  1  0
 49 50  1  0
 50 51  1  0
 42 52  1  0
 52 53  1  0
 52  4  1  0
 38  8  1  0
 50 45  2  0
 33 16  1  0
M  CHG  3  46  -1  49  -1  51  -1
M  END
>  <UniqueID>  (41) 
39

>  <SMILES>  (41) 
C=c1[nH]/c(=C/c2[n-]c(=O)[n-]c2[O-])cc1C(=O)c1ccc(C(=O)N2CCC(C(N)=O)CC2)cc1

>  <Energy>  (41) 
126.7899878254436

>  <Genealogy>  (41) 
C=c1[nH]c(=Cc2[n-]c(=O)[n-]c2[O-])cc1C(=O)c1ccc(C(=O)N2CCC(C(N)=O)CC2)cc1 (protonated)
C=c1[nH]/c(=C/c2[n-]c(=O)[n-]c2[O-])cc1C(=O)c1ccc(C(=O)N2CCC(C(N)=O)CC2)cc1 (cis-trans isomerization)
C=c1[nH]/c(=C/c2[n-]c(=O)[n-]c2[O-])cc1C(=O)c1ccc(C(=O)N2CCC(C(N)=O)CC2)cc1 (3D coordinates assigned)
C=c1[nH]/c(=C/c2[n-]c(=O)[n-]c2[O-])cc1C(=O)c1ccc(C(=O)N2CCC(C(N)=O)CC2)cc1 (nonaromatic ring conformer: 126.7899878254436 kcal/mol)

>  <smiles>  (41) 
C=c1[nH]c(=Cc2[nH]c(=O)[nH]c2O)cc1C(=O)c1ccc(C(=O)N2CCC(C(N)=O)CC2)cc1

>  <score_type>  (41) 
oracle

>  <origin>  (41) 
adg

>  <m_score__min__energy>  (41) 
-18.559999999999999

>  <m_primary>  (41) 
energy

$$$$
41:0
     RDKit          3D

 52 54  0  0  0  0  0  0  0  0999 V2000
   59.0760   29.8660   49.5810 C   0  0  0  0  0  0  0  0  0  0  0  0
   60.3380   30.2880   49.6080 C   0  0  0  0  0  0  0  0  0  0  0  0
   61.4370   29.9120   50.8280 S   0  0  0  0  0  0  0  0  0  0  0  0
   62.7120   30.7770   50.1180 C   0  0  0  0  0  0  0  0  0  0  0  0
   63.9750   30.8830   50.5670 C   0  0  0  0  0  0  0  0  0  0  0  0
   64.6460   32.1630   50.8920 C   0  0  0  0  0  0  0  0  0  0  0  0
   63.8880   33.1960   51.4630 C   0  0  0  0  0  0  0  0  0  0  0  0
   64.4940   34.4010   51.8260 C   0  0  0  0  0  0  0  0  0  0  0  0
   65.8690   34.5820   51.6410 C   0  0  0  0  0  0  0  0  0  0  0  0
   66.4680   35.7860   51.9990 O   0  0  0  0  0  0  0  0  0  0  0  0
   66.6380   33.5450   51.0940 C   0  0  0  0  0  0  0  0  0  0  0  0
   68.5190   33.7620   50.8380 Br  0  0  0  0  0  0  0  0  0  0  0  0
   66.0330   32.3380   50.7300 C   0  0  0  0  0  0  0  0  0  0  0  0
   62.2360   31.3220   48.9230 C   0  0  0  0  0  0  0  0  0  0  0  0
   62.9630   31.9880   48.1320 O   0  0  0  0  0  0  0  0  0  0  0  0
   60.9220   31.0620   48.6550 N   0  0  0  0  0  0  0  0  0  0  0  0
   60.2760   31.4840   47.4760 N   0  0  0  0  0  0  0  0  0  0  0  0
   59.4390   32.6860   47.4960 C   0  0  0  0  0  0  0  0  0  0  0  0
   59.7990   33.5860   46.3440 C   0  0  0  0  0  0  0  0  0  0  0  0
   61.0230   33.7360   46.0770 O   0  0  0  0  0  0  0  0  0  0  0  0
   58.8140   34.3670   45.6210 N   0  0  0  0  0  0  0  0  0  0  0  0
   57.4210   33.9440   45.4550 C   0  0  0  0  0  0  0  0  0  0  0  0
   59.2700   35.5530   44.8840 C   0  0  0  0  0  0  0  0  0  0  0  0
   60.3810   30.6680   46.2590 C   0  0  0  0  0  0  0  0  0  0  0  0
   59.0220   30.1900   45.8310 C   0  0  0  0  0  0  0  0  0  0  0  0
   58.4950   29.0000   46.3490 C   0  0  0  0  0  0  0  0  0  0  0  0
   57.2040   28.5850   46.0040 C   0  0  0  0  0  0  0  0  0  0  0  0
   56.4250   29.3660   45.1430 C   0  0  0  0  0  0  0  0  0  0  0  0
   55.1400   28.9560   44.8040 O   0  0  0  0  0  0  0  0  0  0  0  0
   56.9400   30.5610   44.6270 C   0  0  0  0  0  0  0  0  0  0  0  0
   58.2310   30.9740   44.9710 C   0  0  0  0  0  0  0  0  0  0  0  0
   58.4173   30.1543   48.7485 H   0  0  0  0  0  0  0  0  0  0  0  0
   58.6916   29.2289   50.3912 H   0  0  0  0  0  0  0  0  0  0  0  0
   64.5498   29.9549   50.7024 H   0  0  0  0  0  0  0  0  0  0  0  0
   62.8092   33.0562   51.6260 H   0  0  0  0  0  0  0  0  0  0  0  0
   63.8880   35.2106   52.2589 H   0  0  0  0  0  0  0  0  0  0  0  0
   67.3430   36.0870   51.5910 H   0  0  0  0  0  0  0  0  0  0  0  0
   66.6435   31.5222   50.3155 H   0  0  0  0  0  0  0  0  0  0  0  0
   58.3816   32.3945   47.4133 H   0  0  0  0  0  0  0  0  0  0  0  0
   59.6057   33.2253   48.4401 H   0  0  0  0  0  0  0  0  0  0  0  0
   56.9600   33.8040   46.4439 H   0  0  0  0  0  0  0  0  0  0  0  0
   56.8677   34.7146   44.8983 H   0  0  0  0  0  0  0  0  0  0  0  0
   57.3896   32.9958   44.8983 H   0  0  0  0  0  0  0  0  0  0  0  0
   59.5706   36.3347   45.5971 H   0  0  0  0  0  0  0  0  0  0  0  0
   60.1288   35.2839   44.2515 H   0  0  0  0  0  0  0  0  0  0  0  0
   58.4521   35.9285   44.2515 H   0  0  0  0  0  0  0  0  0  0  0  0
   60.8228   31.2732   45.4536 H   0  0  0  0  0  0  0  0  0  0  0  0
   61.0172   29.7953   46.4679 H   0  0  0  0  0  0  0  0  0  0  0  0
   59.1009   28.3869   47.0324 H   0  0  0  0  0  0  0  0  0  0  0  0
   56.8016   27.6450   46.4095 H   0  0  0  0  0  0  0  0  0  0  0  0
   56.3285   31.1758   43.9502 H   0  0  0  0  0  0  0  0  0  0  0  0
   58.6300   31.9163   44.5674 H   0  0  0  0  0  0  0  0  0  0  0  0
  1  2  2  0
  2  3  1  0
  3  4  1  0
  4  5  2  3
  5  6  1  0
  6  7  2  0
  7  8  1  0
  8  9  2  0
  9 10  1  0
  9 11  1  0
 11 12  1  0
 11 13  2  0
  4 14  1  0
 14 15  2  0
 14 16  1  0
 16 17  1  0
 17 18  1  0
 18 19  1  0
 19 20  2  0
 19 21  1  0
 21 22  1  0
 21 23  1  0
 17 24  1  0
 24 25  1  0
 25 26  2  0
 26 27  1  0
 27 28  2  0
 28 29  1  0
 28 30  1  0
 30 31  2  0
 16  2  1  0
 31 25  1  0
 13  6  1  0
  1 32  1  0
  1 33  1  0
  5 34  1  0
  7 35  1  0
  8 36  1  0
 10 37  1  0
 13 38  1  0
 18 39  1  0
 18 40  1  0
 22 41  1  0
 22 42  1  0
 22 43  1  0
 23 44  1  0
 23 45  1  0
 23 46  1  0
 24 47  1  0
 24 48  1  0
 26 49  1  0
 27 50  1  0
 30 51  1  0
 31 52  1  0
M  CHG  1  29  -1
M  END
>  <UniqueID>  (42) 
40

>  <SMILES>  (42) 
C=c1sc(=Cc2ccc(O)c(Br)c2)c(=O)n1N(CC(=O)N(C)C)Cc1ccc([O-])cc1

>  <Energy>  (42) 
92.10548127643492

>  <Genealogy>  (42) 
C=c1sc(=Cc2ccc(O)c(Br)c2)c(=O)n1N(CC(=O)N(C)C)Cc1ccc([O-])cc1 (protonated)
C=c1sc(=Cc2ccc(O)c(Br)c2)c(=O)n1N(CC(=O)N(C)C)Cc1ccc([O-])cc1 (3D coordinates assigned)
C=c1sc(=Cc2ccc(O)c(Br)c2)c(=O)n1N(CC(=O)N(C)C)Cc1ccc([O-])cc1 (optimized conformer: 92.10548127643492 kcal/mol)

>  <smiles>  (42) 
C=c1sc(=Cc2ccc(O)c(Br)c2)c(=O)n1N(CC(=O)N(C)C)Cc1ccc(O)cc1

>  <score_type>  (42) 
oracle

>  <origin>  (42) 
adg

>  <m_score__min__energy>  (42) 
-10.82

>  <m_primary>  (42) 
energy

$$$$
42:0
     RDKit          3D

 49 51  0  0  0  0  0  0  0  0999 V2000
   58.0032   20.3440   47.3391 H   0  0  0  0  0  0  0  0  0  0  0  0
   57.4970   21.0390   46.6530 C   0  0  0  0  0  0  0  0  0  0  0  0
   57.0140   22.2220   47.1170 N   0  0  0  0  0  0  0  0  0  0  0  0
   56.3640   23.1070   46.3080 C   0  0  0  0  0  0  0  0  0  0  0  0
   55.9180   24.2430   46.7610 N   0  0  0  0  0  0  0  0  0  0  0  0
   55.9210   25.5260   46.1080 C   0  0  0  0  0  0  0  0  0  0  0  0
   54.8140   26.0950   45.9100 O   0  0  0  0  0  0  0  0  0  0  0  0
   57.1910   26.2190   45.6610 C   0  0  1  0  0  0  0  0  0  0  0  0
   57.5994   25.6694   44.8001 H   0  0  0  0  0  0  0  0  0  0  0  0
   56.8860   27.6000   45.2760 N   0  0  0  0  0  0  0  0  0  0  0  0
   55.8930   27.8370   45.0530 H   0  0  0  0  0  0  0  0  0  0  0  0
   57.8300   28.6740   45.4190 C   0  0  0  0  0  0  0  0  0  0  0  0
   59.0440   28.4220   45.6460 O   0  0  0  0  0  0  0  0  0  0  0  0
   57.3790   30.0770   45.3370 C   0  0  0  0  0  0  0  0  0  0  0  0
   56.4670   30.3890   44.5260 O   0  0  0  0  0  0  0  0  0  0  0  0
   57.8940   31.0870   46.2140 N   0  0  0  0  0  0  0  0  0  0  0  0
   58.3630   32.3860   45.8210 C   0  0  0  0  0  0  0  0  0  0  0  0
   57.4890   33.3100   45.2200 C   0  0  0  0  0  0  0  0  0  0  0  0
   56.4530   33.0156   44.9963 H   0  0  0  0  0  0  0  0  0  0  0  0
   57.9270   34.5990   44.9050 C   0  0  0  0  0  0  0  0  0  0  0  0
   57.2364   35.3140   44.4339 H   0  0  0  0  0  0  0  0  0  0  0  0
   59.2380   34.9800   45.1870 C   0  0  0  0  0  0  0  0  0  0  0  0
   59.5845   35.9910   44.9266 H   0  0  0  0  0  0  0  0  0  0  0  0
   60.1120   34.0790   45.8000 C   0  0  0  0  0  0  0  0  0  0  0  0
   61.1457   34.3852   46.0187 H   0  0  0  0  0  0  0  0  0  0  0  0
   59.6820   32.7840   46.1400 C   0  0  0  0  0  0  0  0  0  0  0  0
   60.6290   31.8440   46.7870 C   0  0  0  0  0  0  0  0  0  0  0  0
   60.4720   30.6060   46.6110 O   0  0  0  0  0  0  0  0  0  0  0  0
   61.7580   32.3180   47.6250 C   0  0  0  0  0  0  0  0  0  0  0  0
   61.7360   32.1200   49.0180 C   0  0  0  0  0  0  0  0  0  0  0  0
   60.8839   31.6022   49.4826 H   0  0  0  0  0  0  0  0  0  0  0  0
   62.7900   32.5770   49.8160 C   0  0  0  0  0  0  0  0  0  0  0  0
   62.7672   32.4114   50.9032 H   0  0  0  0  0  0  0  0  0  0  0  0
   63.8710   33.2430   49.2350 C   0  0  0  0  0  0  0  0  0  0  0  0
   64.6992   33.6007   49.8644 H   0  0  0  0  0  0  0  0  0  0  0  0
   63.9010   33.4550   47.8560 C   0  0  0  0  0  0  0  0  0  0  0  0
   64.7527   33.9808   47.3997 H   0  0  0  0  0  0  0  0  0  0  0  0
   62.8500   33.0000   47.0530 C   0  0  0  0  0  0  0  0  0  0  0  0
   62.8763   33.1759   45.9675 H   0  0  0  0  0  0  0  0  0  0  0  0
   58.2420   26.2200   46.7750 C   0  0  0  0  0  0  0  0  0  0  0  0
   57.7393   26.2195   47.7534 H   0  0  0  0  0  0  0  0  0  0  0  0
   58.8717   25.3225   46.6859 H   0  0  0  0  0  0  0  0  0  0  0  0
   58.8699   27.1187   46.6859 H   0  0  0  0  0  0  0  0  0  0  0  0
   56.2060   22.8050   44.9490 C   0  0  0  0  0  0  0  0  0  0  0  0
   55.6949   23.5129   44.2800 H   0  0  0  0  0  0  0  0  0  0  0  0
   56.7020   21.5990   44.4500 C   0  0  0  0  0  0  0  0  0  0  0  0
   56.5821   21.3526   43.3847 H   0  0  0  0  0  0  0  0  0  0  0  0
   57.3500   20.7070   45.3050 C   0  0  0  0  0  0  0  0  0  0  0  0
   57.7406   19.7530   44.9213 H   0  0  0  0  0  0  0  0  0  0  0  0
  1  2  1  0
  2  3  1  0
  3  4  1  0
  4  5  2  0
  5  6  1  0
  6  7  2  0
  6  8  1  0
  8  9  1  6
  8 10  1  0
 10 11  1  0
 10 12  1  0
 12 13  2  0
 12 14  1  0
 14 15  2  0
 14 16  1  0
 16 17  1  0
 17 18  2  0
 18 19  1  0
 18 20  1  0
 20 21  1  0
 20 22  2  0
 22 23  1  0
 22 24  1  0
 24 25  1  0
 24 26  2  0
 26 27  1  0
 27 28  2  0
 27 29  1  0
 29 30  2  0
 30 31  1  0
 30 32  1  0
 32 33  1  0
 32 34  2  0
 34 35  1  0
 34 36  1  0
 36 37  1  0
 36 38  2  0
 38 39  1  0
  8 40  1  0
 40 41  1  0
 40 42  1  0
 40 43  1  0
  4 44  1  0
 44 45  1  0
 44 46  2  0
 46 47  1  0
 46 48  1  0
 48 49  1  0
 48  2  2  0
 26 17  1  0
 38 29  1  0
M  CHG  2   3  -1  16  -1
M  END
>  <UniqueID>  (43) 
41

>  <SMILES>  (43) 
C[C@H](NC(=O)C(=O)[N-]c1ccccc1C(=O)c1ccccc1)C(=O)/N=c1/cccc[n-]1

>  <Energy>  (43) 
65.79596238431625

>  <Genealogy>  (43) 
CC(NC(=O)C(=O)[N-]c1ccccc1C(=O)c1ccccc1)C(=O)N=c1cccc[n-]1 (protonated)
C[C@H](NC(=O)C(=O)[N-]c1ccccc1C(=O)c1ccccc1)C(=O)N=c1cccc[n-]1 (chirality)
C[C@H](NC(=O)C(=O)[N-]c1ccccc1C(=O)c1ccccc1)C(=O)/N=c1/cccc[n-]1 (cis-trans isomerization)
C[C@H](NC(=O)C(=O)[N-]c1ccccc1C(=O)c1ccccc1)C(=O)/N=c1/cccc[n-]1 (3D coordinates assigned)
C[C@H](NC(=O)C(=O)[N-]c1ccccc1C(=O)c1ccccc1)C(=O)/N=c1/cccc[n-]1 (optimized conformer: 65.79596238431625 kcal/mol)

>  <smiles>  (43) 
CC(NC(=O)C(=O)Nc1ccccc1C(=O)c1ccccc1)C(=O)N=c1cccc[nH]1

>  <score_type>  (43) 
oracle

>  <origin>  (43) 
adg

>  <m_score__min__energy>  (43) 
-12.33

>  <m_primary>  (43) 
energy

$$$$
43:0
     RDKit          3D

 69 73  0  0  0  0  0  0  0  0999 V2000
   53.9985   23.9725   45.1179 H   0  0  0  0  0  0  0  0  0  0  0  0
   54.1230   24.9950   45.5040 C   0  0  0  0  0  0  0  0  0  0  0  0
   53.2387   25.6070   45.7352 H   0  0  0  0  0  0  0  0  0  0  0  0
   55.3470   25.4930   45.6920 C   0  0  0  0  0  0  0  0  0  0  0  0
   56.5480   24.8360   45.4590 C   0  0  0  0  0  0  0  0  0  0  0  0
   56.7240   23.4840   44.8980 C   0  0  0  0  0  0  0  0  0  0  0  0
   57.1000   23.3630   43.6990 O   0  0  0  0  0  0  0  0  0  0  0  0
   56.4860   22.3110   45.7000 N   0  0  0  0  0  0  0  0  0  0  0  0
   55.4440   22.3330   46.7330 C   0  0  0  0  0  0  0  0  0  0  0  0
   55.7443   23.0267   47.5321 H   0  0  0  0  0  0  0  0  0  0  0  0
   54.5006   22.6611   46.2721 H   0  0  0  0  0  0  0  0  0  0  0  0
   55.2350   20.9370   47.3330 C   0  0  0  0  0  0  0  0  0  0  0  0
   54.5983   21.0258   48.2256 H   0  0  0  0  0  0  0  0  0  0  0  0
   54.7609   20.3056   46.5672 H   0  0  0  0  0  0  0  0  0  0  0  0
   56.5140   20.3030   47.7200 N   0  0  0  0  0  0  0  0  0  0  0  0
   57.0280   20.8520   48.9880 C   0  0  0  0  0  0  0  0  0  0  0  0
   56.5462   20.3374   49.8324 H   0  0  0  0  0  0  0  0  0  0  0  0
   58.1163   20.7003   49.0388 H   0  0  0  0  0  0  0  0  0  0  0  0
   56.8050   21.9280   49.0388 H   0  0  0  0  0  0  0  0  0  0  0  0
   57.5570   20.3150   46.6560 C   0  0  0  0  0  0  0  0  0  0  0  0
   58.4519   20.8143   47.0559 H   0  0  0  0  0  0  0  0  0  0  0  0
   57.7408   19.2657   46.3819 H   0  0  0  0  0  0  0  0  0  0  0  0
   57.1350   21.0410   45.3670 C   0  0  0  0  0  0  0  0  0  0  0  0
   58.0248   21.2367   44.7506 H   0  0  0  0  0  0  0  0  0  0  0  0
   56.4285   20.4084   44.8097 H   0  0  0  0  0  0  0  0  0  0  0  0
   57.5540   25.7210   45.8230 C   0  0  0  0  0  0  0  0  0  0  0  0
   59.0330   25.5160   45.6560 C   0  0  0  0  0  0  0  0  0  0  0  0
   59.5081   25.4501   46.6459 H   0  0  0  0  0  0  0  0  0  0  0  0
   59.2135   24.5842   45.0999 H   0  0  0  0  0  0  0  0  0  0  0  0
   59.4602   26.3635   45.0999 H   0  0  0  0  0  0  0  0  0  0  0  0
   56.9180   26.8870   46.2390 C   0  0  0  0  0  0  0  0  0  0  0  0
   57.5380   28.0260   46.5960 C   0  0  0  0  0  0  0  0  0  0  0  0
   58.2368   27.9938   47.4449 H   0  0  0  0  0  0  0  0  0  0  0  0
   57.3320   29.3140   45.9120 C   0  0  0  0  0  0  0  0  0  0  0  0
   56.2610   29.7120   45.1180 C   0  0  0  0  0  0  0  0  0  0  0  0
   55.1580   28.9220   44.8180 O   0  0  0  0  0  0  0  0  0  0  0  0
   56.3900   30.9890   44.6850 N   0  0  0  0  0  0  0  0  0  0  0  0
   57.5520   31.4020   45.2280 C   0  0  0  0  0  0  0  0  0  0  0  0
   58.1470   32.6510   45.0680 C   0  0  0  0  0  0  0  0  0  0  0  0
   57.6676   33.4326   44.4604 H   0  0  0  0  0  0  0  0  0  0  0  0
   59.3790   32.8840   45.7060 C   0  0  0  0  0  0  0  0  0  0  0  0
   59.8740   33.8600   45.5948 H   0  0  0  0  0  0  0  0  0  0  0  0
   59.9880   31.8740   46.4900 C   0  0  0  0  0  0  0  0  0  0  0  0
   61.5520   32.1690   47.2560 S   0  0  0  0  0  0  0  0  0  0  0  0
   62.4040   30.9390   47.1240 O   0  0  0  0  0  0  0  0  0  0  0  0
   62.2470   33.2970   46.5480 O   0  0  0  0  0  0  0  0  0  0  0  0
   61.3720   32.5660   48.9470 N   0  0  0  0  0  0  0  0  0  0  0  0
   62.5360   33.3240   49.4240 C   0  0  0  0  0  0  0  0  0  0  0  0
   63.4170   32.6656   49.4443 H   0  0  0  0  0  0  0  0  0  0  0  0
   62.7207   34.1702   48.7459 H   0  0  0  0  0  0  0  0  0  0  0  0
   62.2650   33.8600   50.8440 C   0  0  0  0  0  0  0  0  0  0  0  0
   63.2227   33.9252   51.3812 H   0  0  0  0  0  0  0  0  0  0  0  0
   61.7832   34.8428   50.7347 H   0  0  0  0  0  0  0  0  0  0  0  0
   61.3420   33.0030   51.6290 N   0  0  0  0  0  0  0  0  0  0  0  0
   59.9520   33.4910   51.5820 C   0  0  0  0  0  0  0  0  0  0  0  0
   59.5750   33.6234   52.6069 H   0  0  0  0  0  0  0  0  0  0  0  0
   59.9193   34.4544   51.0520 H   0  0  0  0  0  0  0  0  0  0  0  0
   59.3243   32.7595   51.0520 H   0  0  0  0  0  0  0  0  0  0  0  0
   61.4400   31.5790   51.2520 C   0  0  0  0  0  0  0  0  0  0  0  0
   62.4522   31.2203   51.4901 H   0  0  0  0  0  0  0  0  0  0  0  0
   60.6721   31.0308   51.8175 H   0  0  0  0  0  0  0  0  0  0  0  0
   61.1720   31.3430   49.7480 C   0  0  0  0  0  0  0  0  0  0  0  0
   61.8588   30.5648   49.3837 H   0  0  0  0  0  0  0  0  0  0  0  0
   60.1220   31.0347   49.6367 H   0  0  0  0  0  0  0  0  0  0  0  0
   59.3550   30.6240   46.6420 C   0  0  0  0  0  0  0  0  0  0  0  0
   59.8059   29.8313   47.2571 H   0  0  0  0  0  0  0  0  0  0  0  0
   58.1400   30.4230   45.9890 C   0  0  0  0  0  0  0  0  0  0  0  0
   55.5760   26.7350   46.1610 N   0  0  0  0  0  0  0  0  0  0  0  0
   54.8440   27.4510   46.3700 H   0  0  0  0  0  0  0  0  0  0  0  0
  1  2  1  0
  2  3  1  0
  2  4  2  0
  4  5  1  0
  5  6  1  0
  6  7  2  0
  6  8  1  0
  8  9  1  0
  9 10  1  0
  9 11  1  0
  9 12  1  0
 12 13  1  0
 12 14  1  0
 12 15  1  0
 15 16  1  0
 16 17  1  0
 16 18  1  0
 16 19  1  0
 15 20  1  0
 20 21  1  0
 20 22  1  0
 20 23  1  0
 23 24  1  0
 23 25  1  0
  5 26  2  0
 26 27  1  0
 27 28  1  0
 27 29  1  0
 27 30  1  0
 26 31  1  0
 31 32  2  0
 32 33  1  0
 32 34  1  0
 34 35  2  0
 35 36  1  0
 35 37  1  0
 37 38  1  0
 38 39  2  0
 39 40  1  0
 39 41  1  0
 41 42  1  0
 41 43  2  0
 43 44  1  0
 44 45  2  0
 44 46  2  0
 44 47  1  0
 47 48  1  0
 48 49  1  0
 48 50  1  0
 48 51  1  0
 51 52  1  0
 51 53  1  0
 51 54  1  0
 54 55  1  0
 55 56  1  0
 55 57  1  0
 55 58  1  0
 54 59  1  0
 59 60  1  0
 59 61  1  0
 59 62  1  0
 62 63  1  0
 62 64  1  0
 43 65  1  0
 65 66  1  0
 65 67  2  0
 31 68  1  0
 68 69  1  0
 68  4  1  0
 23  8  1  0
 67 34  1  0
 67 38  1  0
 62 47  1  0
M  CHG  2  36  -1  37  -1
M  END
>  <UniqueID>  (44) 
42

>  <SMILES>  (44) 
C=c1[nH]/c(=C\c2c([O-])[n-]c3ccc(S(=O)(=O)N4CCN(C)CC4)cc23)c(C)c1C(=O)N1CCN(C)CC1

>  <Energy>  (44) 
158.71849156212585

>  <Genealogy>  (44) 
C=c1[nH]c(=Cc2c([O-])[n-]c3ccc(S(=O)(=O)N4CCN(C)CC4)cc23)c(C)c1C(=O)N1CCN(C)CC1 (protonated)
C=c1[nH]/c(=C\c2c([O-])[n-]c3ccc(S(=O)(=O)N4CCN(C)CC4)cc23)c(C)c1C(=O)N1CCN(C)CC1 (cis-trans isomerization)
C=c1[nH]/c(=C\c2c([O-])[n-]c3ccc(S(=O)(=O)N4CCN(C)CC4)cc23)c(C)c1C(=O)N1CCN(C)CC1 (3D coordinates assigned)
C=c1[nH]/c(=C\c2c([O-])[n-]c3ccc(S(=O)(=O)N4CCN(C)CC4)cc23)c(C)c1C(=O)N1CCN(C)CC1 (nonaromatic ring conformer: 158.71849156212585 kcal/mol)

>  <smiles>  (44) 
C=c1[nH]c(=Cc2c(O)[nH]c3ccc(S(=O)(=O)N4CCN(C)CC4)cc23)c(C)c1C(=O)N1CCN(C)CC1

>  <score_type>  (44) 
oracle

>  <origin>  (44) 
adg

>  <m_score__min__energy>  (44) 
-14.44

>  <m_primary>  (44) 
energy

$$$$
44:0
     RDKit          3D

 46 48  0  0  0  0  0  0  0  0999 V2000
   54.7970   29.3460   44.1480 O   0  0  0  0  0  0  0  0  0  0  0  0
   55.9660   29.4930   44.5920 C   0  0  0  0  0  0  0  0  0  0  0  0
   56.4910   28.5010   45.4840 N   0  0  0  0  0  0  0  0  0  0  0  0
   57.8240   27.8990   45.4220 C   0  0  0  0  0  0  0  0  0  0  0  0
   58.6070   28.1560   46.7250 C   0  0  1  0  0  0  0  0  0  0  0  0
   59.2610   26.8640   47.2770 C   0  0  0  0  0  0  0  0  0  0  0  0
   60.4670   27.1440   48.1960 C   0  0  0  0  0  0  0  0  0  0  0  0
   60.3800   28.5400   48.8180 C   0  0  0  0  0  0  0  0  0  0  0  0
   60.3880   29.5910   47.7730 N   0  0  0  0  0  0  0  0  0  0  0  0
   60.0780   30.9430   48.2920 C   0  0  0  0  0  0  0  0  0  0  0  0
   61.2120   31.9380   48.1290 C   0  0  0  0  0  0  0  0  0  0  0  0
   62.3560   31.5960   47.3840 C   0  0  0  0  0  0  0  0  0  0  0  0
   63.3960   32.5150   47.2210 C   0  0  0  0  0  0  0  0  0  0  0  0
   63.3140   33.7780   47.8100 C   0  0  0  0  0  0  0  0  0  0  0  0
   62.1970   34.1210   48.5730 C   0  0  0  0  0  0  0  0  0  0  0  0
   61.1520   33.2070   48.7420 C   0  0  0  0  0  0  0  0  0  0  0  0
   60.0850   33.5600   49.5020 F   0  0  0  0  0  0  0  0  0  0  0  0
   59.6860   29.2380   46.5130 C   0  0  0  0  0  0  0  0  0  0  0  0
   56.7440   30.6800   44.1830 C   0  0  0  0  0  0  0  0  0  0  0  0
   56.8760   31.0200   42.8270 C   0  0  0  0  0  0  0  0  0  0  0  0
   57.6190   32.1440   42.4510 C   0  0  0  0  0  0  0  0  0  0  0  0
   57.7680   32.5690   40.7550 Cl  0  0  0  0  0  0  0  0  0  0  0  0
   58.2480   32.9250   43.4250 C   0  0  0  0  0  0  0  0  0  0  0  0
   58.1420   32.5800   44.7760 C   0  0  0  0  0  0  0  0  0  0  0  0
   58.9370   33.5560   45.9970 Cl  0  0  0  0  0  0  0  0  0  0  0  0
   57.4000   31.4540   45.1540 C   0  0  0  0  0  0  0  0  0  0  0  0
   57.7222   26.8141   45.2714 H   0  0  0  0  0  0  0  0  0  0  0  0
   58.3756   28.3538   44.5860 H   0  0  0  0  0  0  0  0  0  0  0  0
   57.8785   28.5110   47.4688 H   0  0  0  0  0  0  0  0  0  0  0  0
   58.5057   26.3062   47.8501 H   0  0  0  0  0  0  0  0  0  0  0  0
   59.6307   26.2886   46.4155 H   0  0  0  0  0  0  0  0  0  0  0  0
   60.4863   26.3939   49.0004 H   0  0  0  0  0  0  0  0  0  0  0  0
   61.3843   27.0899   47.5913 H   0  0  0  0  0  0  0  0  0  0  0  0
   59.4487   28.6174   49.3983 H   0  0  0  0  0  0  0  0  0  0  0  0
   61.2544   28.6877   49.4689 H   0  0  0  0  0  0  0  0  0  0  0  0
   59.1993   31.3278   47.7536 H   0  0  0  0  0  0  0  0  0  0  0  0
   59.8981   30.8374   49.3720 H   0  0  0  0  0  0  0  0  0  0  0  0
   62.4320   30.5984   46.9269 H   0  0  0  0  0  0  0  0  0  0  0  0
   64.2811   32.2426   46.6274 H   0  0  0  0  0  0  0  0  0  0  0  0
   64.1299   34.5029   47.6727 H   0  0  0  0  0  0  0  0  0  0  0  0
   62.1383   35.1137   49.0432 H   0  0  0  0  0  0  0  0  0  0  0  0
   59.2056   30.1422   46.1109 H   0  0  0  0  0  0  0  0  0  0  0  0
   60.4334   28.8343   45.8141 H   0  0  0  0  0  0  0  0  0  0  0  0
   56.3932   30.4000   42.0573 H   0  0  0  0  0  0  0  0  0  0  0  0
   58.8270   33.8120   43.1283 H   0  0  0  0  0  0  0  0  0  0  0  0
   57.3307   31.1747   46.2157 H   0  0  0  0  0  0  0  0  0  0  0  0
  1  2  2  0
  2  3  1  0
  3  4  1  0
  4  5  1  0
  5  6  1  0
  6  7  1  0
  7  8  1  0
  8  9  1  0
  9 10  1  0
 10 11  1  0
 11 12  2  0
 12 13  1  0
 13 14  2  0
 14 15  1  0
 15 16  2  0
 16 17  1  0
  9 18  1  0
  2 19  1  0
 19 20  2  0
 20 21  1  0
 21 22  1  0
 21 23  2  0
 23 24  1  0
 24 25  1  0
 24 26  2  0
 18  5  1  0
 26 19  1  0
 16 11  1  0
  4 27  1  0
  4 28  1  0
  5 29  1  1
  6 30  1  0
  6 31  1  0
  7 32  1  0
  7 33  1  0
  8 34  1  0
  8 35  1  0
 10 36  1  0
 10 37  1  0
 12 38  1  0
 13 39  1  0
 14 40  1  0
 15 41  1  0
 18 42  1  0
 18 43  1  0
 20 44  1  0
 23 45  1  0
 26 46  1  0
M  CHG  1   3  -1
M  END
>  <UniqueID>  (45) 
43

>  <SMILES>  (45) 
O=C([N-]C[C@H]1CCCN(Cc2ccccc2F)C1)c1cc(Cl)cc(Cl)c1

>  <Energy>  (45) 
60.691994235624236

>  <Genealogy>  (45) 
O=C([N-]CC1CCCN(Cc2ccccc2F)C1)c1cc(Cl)cc(Cl)c1 (protonated)
O=C([N-]C[C@H]1CCCN(Cc2ccccc2F)C1)c1cc(Cl)cc(Cl)c1 (chirality)
O=C([N-]C[C@H]1CCCN(Cc2ccccc2F)C1)c1cc(Cl)cc(Cl)c1 (3D coordinates assigned)
O=C([N-]C[C@H]1CCCN(Cc2ccccc2F)C1)c1cc(Cl)cc(Cl)c1 (nonaromatic ring conformer: 60.691994235624236 kcal/mol)

>  <smiles>  (45) 
O=C(NCC1CCCN(Cc2ccccc2F)C1)c1cc(Cl)cc(Cl)c1

>  <score_type>  (45) 
oracle

>  <origin>  (45) 
adg

>  <m_score__min__energy>  (45) 
-10.57

>  <m_primary>  (45) 
energy

$$$$
45:0
     RDKit          3D

 41 43  0  0  0  0  0  0  0  0999 V2000
   51.3630   31.6590   53.7650 C   0  0  0  0  0  0  0  0  0  0  0  0
   51.4210   31.5760   52.2740 C   0  0  0  0  0  0  0  0  0  0  0  0
   50.6760   32.3360   51.4530 N   0  0  0  0  0  0  0  0  0  0  0  0
   51.0570   31.9280   50.2240 C   0  0  0  0  0  0  0  0  0  0  0  0
   50.5720   32.4100   49.1680 O   0  0  0  0  0  0  0  0  0  0  0  0
   51.9970   30.9600   50.2170 N   0  0  0  0  0  0  0  0  0  0  0  0
   52.2340   30.7480   51.5240 C   0  0  0  0  0  0  0  0  0  0  0  0
   53.1820   29.7070   52.0380 C   0  0  0  0  0  0  0  0  0  0  0  0
   54.3750   30.3660   52.7320 C   0  0  0  0  0  0  0  0  0  0  0  0
   55.6060   30.1000   51.9930 N   0  0  0  0  0  0  0  0  0  0  0  0
   56.7330   29.4160   52.5510 C   0  0  0  0  0  0  0  0  0  0  0  0
   56.6040   28.7070   53.5840 O   0  0  0  0  0  0  0  0  0  0  0  0
   58.0820   29.5770   51.9250 C   0  0  0  0  0  0  0  0  0  0  0  0
   57.9560   30.0980   50.6030 O   0  0  0  0  0  0  0  0  0  0  0  0
   59.0270   30.2010   49.7050 C   0  0  0  0  0  0  0  0  0  0  0  0
   59.5370   29.0870   49.1110 N   0  0  0  0  0  0  0  0  0  0  0  0
   60.5720   29.1620   48.2370 C   0  0  0  0  0  0  0  0  0  0  0  0
   61.1270   30.3630   47.9380 N   0  0  0  0  0  0  0  0  0  0  0  0
   60.6640   31.5120   48.5000 C   0  0  0  0  0  0  0  0  0  0  0  0
   61.2510   32.7530   48.1780 C   0  0  0  0  0  0  0  0  0  0  0  0
   62.3970   32.8310   47.2070 C   0  0  0  0  0  0  0  0  0  0  0  0
   60.7530   33.9250   48.7700 C   0  0  0  0  0  0  0  0  0  0  0  0
   59.6870   33.8650   49.6720 C   0  0  0  0  0  0  0  0  0  0  0  0
   59.1030   32.6380   49.9940 C   0  0  0  0  0  0  0  0  0  0  0  0
   59.5860   31.4560   49.4120 C   0  0  0  0  0  0  0  0  0  0  0  0
   51.9415   30.8312   54.2011 H   0  0  0  0  0  0  0  0  0  0  0  0
   51.7886   32.6179   54.0957 H   0  0  0  0  0  0  0  0  0  0  0  0
   50.3162   31.5890   54.0957 H   0  0  0  0  0  0  0  0  0  0  0  0
   52.6561   29.0616   52.7569 H   0  0  0  0  0  0  0  0  0  0  0  0
   53.5486   29.1096   51.1903 H   0  0  0  0  0  0  0  0  0  0  0  0
   54.2101   31.4524   52.7820 H   0  0  0  0  0  0  0  0  0  0  0  0
   54.4713   29.9506   53.7460 H   0  0  0  0  0  0  0  0  0  0  0  0
   58.6833   30.2697   52.5321 H   0  0  0  0  0  0  0  0  0  0  0  0
   58.5733   28.5940   51.8766 H   0  0  0  0  0  0  0  0  0  0  0  0
   60.9623   28.2460   47.7694 H   0  0  0  0  0  0  0  0  0  0  0  0
   63.3444   32.8955   47.7623 H   0  0  0  0  0  0  0  0  0  0  0  0
   62.4034   31.9312   46.5743 H   0  0  0  0  0  0  0  0  0  0  0  0
   62.2814   33.7234   46.5743 H   0  0  0  0  0  0  0  0  0  0  0  0
   61.2049   34.8968   48.5222 H   0  0  0  0  0  0  0  0  0  0  0  0
   59.3060   34.7893   50.1308 H   0  0  0  0  0  0  0  0  0  0  0  0
   58.2640   32.5981   50.7042 H   0  0  0  0  0  0  0  0  0  0  0  0
  1  2  1  0
  2  3  1  0
  3  4  1  0
  4  5  2  0
  4  6  1  0
  6  7  1  0
  7  8  1  0
  8  9  1  0
  9 10  1  0
 10 11  1  0
 11 12  2  0
 11 13  1  0
 13 14  1  0
 14 15  1  0
 15 16  2  0
 16 17  1  0
 17 18  2  0
 18 19  1  0
 19 20  2  0
 20 21  1  0
 20 22  1  0
 22 23  2  0
 23 24  1  0
 24 25  2  0
  7  2  2  0
 25 15  1  0
 25 19  1  0
  1 26  1  0
  1 27  1  0
  1 28  1  0
  8 29  1  0
  8 30  1  0
  9 31  1  0
  9 32  1  0
 13 33  1  0
 13 34  1  0
 17 35  1  0
 21 36  1  0
 21 37  1  0
 21 38  1  0
 22 39  1  0
 23 40  1  0
 24 41  1  0
M  CHG  3   3  -1   6  -1  10  -1
M  END
>  <UniqueID>  (46) 
44

>  <SMILES>  (46) 
Cc1[n-]c(=O)[n-]c1CC[N-]C(=O)COc1ncnc2c(C)cccc12

>  <Energy>  (46) 
66.92372846051902

>  <Genealogy>  (46) 
Cc1[n-]c(=O)[n-]c1CC[N-]C(=O)COc1ncnc2c(C)cccc12 (protonated)
Cc1[n-]c(=O)[n-]c1CC[N-]C(=O)COc1ncnc2c(C)cccc12 (3D coordinates assigned)
Cc1[n-]c(=O)[n-]c1CC[N-]C(=O)COc1ncnc2c(C)cccc12 (optimized conformer: 66.92372846051902 kcal/mol)

>  <smiles>  (46) 
Cc1[nH]c(=O)[nH]c1CCNC(=O)COc1ncnc2c(C)cccc12

>  <score_type>  (46) 
oracle

>  <origin>  (46) 
adg

>  <m_score__min__energy>  (46) 
-13.359999999999999

>  <m_primary>  (46) 
energy

$$$$
46:0
     RDKit          3D

 80 84  0  0  0  0  0  0  0  0999 V2000
   56.4710   23.8710   48.2350 O   0  0  0  0  0  0  0  0  0  0  0  0
   56.9040   24.8390   47.5500 C   0  0  0  0  0  0  0  0  0  0  0  0
   58.1960   25.4910   47.9250 C   0  0  0  0  0  0  0  0  0  0  0  0
   59.0820   25.5060   46.7650 N   0  0  0  0  0  0  0  0  0  0  0  0
   60.1690   26.8580   46.8300 S   0  0  0  0  0  0  0  0  0  0  0  0
   61.5790   26.3500   46.7070 O   0  0  0  0  0  0  0  0  0  0  0  0
   59.9020   27.7730   45.6720 O   0  0  0  0  0  0  0  0  0  0  0  0
   60.0130   27.7570   48.3480 C   0  0  0  0  0  0  0  0  0  0  0  0
   60.8020   27.3940   49.4530 C   0  0  0  0  0  0  0  0  0  0  0  0
   60.6920   28.0930   50.6590 C   0  0  0  0  0  0  0  0  0  0  0  0
   59.7830   29.1470   50.7750 C   0  0  0  0  0  0  0  0  0  0  0  0
   58.9920   29.5130   49.6810 C   0  0  0  0  0  0  0  0  0  0  0  0
   59.1100   28.8290   48.4650 C   0  0  0  0  0  0  0  0  0  0  0  0
   58.3440   29.2130   47.4090 F   0  0  0  0  0  0  0  0  0  0  0  0
   56.1720   25.3060   46.4070 N   0  0  0  0  0  0  0  0  0  0  0  0
   56.7210   26.1430   45.3750 C   0  0  0  0  0  0  0  0  0  0  0  0
   56.8090   27.5360   45.5480 C   0  0  0  0  0  0  0  0  0  0  0  0
   57.3330   28.3560   44.5380 C   0  0  0  0  0  0  0  0  0  0  0  0
   57.3980   29.8180   44.7350 C   0  0  0  0  0  0  0  0  0  0  0  0
   56.3760   30.5200   44.5060 O   0  0  0  0  0  0  0  0  0  0  0  0
   58.6280   30.4440   45.1440 N   0  0  0  0  0  0  0  0  0  0  0  0
   58.7220   31.8500   45.4320 C   0  0  0  0  0  0  0  0  0  0  0  0
   58.0840   32.8010   44.6200 C   0  0  0  0  0  0  0  0  0  0  0  0
   58.1760   34.1630   44.9250 C   0  0  0  0  0  0  0  0  0  0  0  0
   58.9070   34.5830   46.0400 C   0  0  0  0  0  0  0  0  0  0  0  0
   59.5490   33.6420   46.8610 C   0  0  0  0  0  0  0  0  0  0  0  0
   60.3140   34.0710   48.0470 C   0  0  0  0  0  0  0  0  0  0  0  0
   59.7150   34.7150   48.9500 O   0  0  0  0  0  0  0  0  0  0  0  0
   61.7080   33.7500   48.2090 N   0  0  0  0  0  0  0  0  0  0  0  0
   62.4040   32.7210   47.4480 C   0  0  0  0  0  0  0  0  0  0  0  0
   63.6740   32.4220   48.2310 C   0  0  0  0  0  0  0  0  0  0  0  0
   63.8770   33.6210   49.1540 C   0  0  0  0  0  0  0  0  0  0  0  0
   62.4980   34.2470   49.3210 C   0  0  0  0  0  0  0  0  0  0  0  0
   59.4310   32.2760   46.5650 C   0  0  0  0  0  0  0  0  0  0  0  0
   57.8030   27.7670   43.3570 C   0  0  0  0  0  0  0  0  0  0  0  0
   57.7690   26.3790   43.1970 C   0  0  0  0  0  0  0  0  0  0  0  0
   57.2310   25.5530   44.2060 C   0  0  0  0  0  0  0  0  0  0  0  0
   57.1890   24.1520   44.0910 O   0  0  0  0  0  0  0  0  0  0  0  0
   56.0860   23.3920   43.5900 C   0  0  0  0  0  0  0  0  0  0  0  0
   55.1750   22.9330   44.7330 C   0  0  0  0  0  0  0  0  0  0  0  0
   53.7840   23.2650   44.4340 N   0  0  0  0  0  0  0  0  0  0  0  0
   53.0190   24.2220   45.1760 C   0  0  0  0  0  0  0  0  0  0  0  0
   53.5870   25.2200   45.6990 O   0  0  0  0  0  0  0  0  0  0  0  0
   51.5190   24.0890   45.2330 C   0  0  0  0  0  0  0  0  0  0  0  0
   50.7790   24.8660   44.1410 C   0  0  0  0  0  0  0  0  0  0  0  0
   50.2000   23.5630   43.6040 C   0  0  0  0  0  0  0  0  0  0  0  0
   50.9680   22.7810   44.6610 C   0  0  0  0  0  0  0  0  0  0  0  0
   58.0049   26.5228   48.2551 H   0  0  0  0  0  0  0  0  0  0  0  0
   58.6692   24.9287   48.7435 H   0  0  0  0  0  0  0  0  0  0  0  0
   61.5095   26.5559   49.3687 H   0  0  0  0  0  0  0  0  0  0  0  0
   61.3215   27.8127   51.5165 H   0  0  0  0  0  0  0  0  0  0  0  0
   59.6891   29.6896   51.7272 H   0  0  0  0  0  0  0  0  0  0  0  0
   58.2745   30.3413   49.7763 H   0  0  0  0  0  0  0  0  0  0  0  0
   56.4620   27.9887   46.4886 H   0  0  0  0  0  0  0  0  0  0  0  0
   59.5170   29.9190   44.9700 H   0  0  0  0  0  0  0  0  0  0  0  0
   57.5097   32.4739   43.7407 H   0  0  0  0  0  0  0  0  0  0  0  0
   57.6727   34.9042   44.2869 H   0  0  0  0  0  0  0  0  0  0  0  0
   58.9796   35.6551   46.2752 H   0  0  0  0  0  0  0  0  0  0  0  0
   61.7820   31.8175   47.3656 H   0  0  0  0  0  0  0  0  0  0  0  0
   62.6262   33.0529   46.4231 H   0  0  0  0  0  0  0  0  0  0  0  0
   63.5548   31.5001   48.8192 H   0  0  0  0  0  0  0  0  0  0  0  0
   64.5366   32.2689   47.5658 H   0  0  0  0  0  0  0  0  0  0  0  0
   64.2707   33.2938   50.1276 H   0  0  0  0  0  0  0  0  0  0  0  0
   64.6015   34.3368   48.7384 H   0  0  0  0  0  0  0  0  0  0  0  0
   62.0502   33.9405   50.2778 H   0  0  0  0  0  0  0  0  0  0  0  0
   62.5472   35.3459   49.3271 H   0  0  0  0  0  0  0  0  0  0  0  0
   59.8985   31.5323   47.2271 H   0  0  0  0  0  0  0  0  0  0  0  0
   58.2012   28.4007   42.5508 H   0  0  0  0  0  0  0  0  0  0  0  0
   58.1653   25.9266   42.2760 H   0  0  0  0  0  0  0  0  0  0  0  0
   55.5051   24.0156   42.8946 H   0  0  0  0  0  0  0  0  0  0  0  0
   56.4771   22.5031   43.0734 H   0  0  0  0  0  0  0  0  0  0  0  0
   55.2698   21.8443   44.8584 H   0  0  0  0  0  0  0  0  0  0  0  0
   55.4752   23.4453   45.6590 H   0  0  0  0  0  0  0  0  0  0  0  0
   51.3754   24.3337   46.2958 H   0  0  0  0  0  0  0  0  0  0  0  0
   50.0240   25.5687   44.5234 H   0  0  0  0  0  0  0  0  0  0  0  0
   51.3277   25.5474   43.4742 H   0  0  0  0  0  0  0  0  0  0  0  0
   49.1065   23.4866   43.6960 H   0  0  0  0  0  0  0  0  0  0  0  0
   50.3033   23.3066   42.5393 H   0  0  0  0  0  0  0  0  0  0  0  0
   50.3275   22.2210   45.3583 H   0  0  0  0  0  0  0  0  0  0  0  0
   51.6522   21.9718   44.3657 H   0  0  0  0  0  0  0  0  0  0  0  0
  1  2  2  0
  2  3  1  0
  3  4  1  0
  4  5  1  0
  5  6  2  0
  5  7  2  0
  5  8  1  0
  8  9  2  0
  9 10  1  0
 10 11  2  0
 11 12  1  0
 12 13  2  0
 13 14  1  0
  2 15  1  0
 15 16  1  0
 16 17  2  0
 17 18  1  0
 18 19  1  0
 19 20  2  0
 19 21  1  0
 21 22  1  0
 22 23  2  0
 23 24  1  0
 24 25  2  0
 25 26  1  0
 26 27  1  0
 27 28  2  0
 27 29  1  0
 29 30  1  0
 30 31  1  0
 31 32  1  0
 32 33  1  0
 26 34  2  0
 18 35  2  0
 35 36  1  0
 36 37  2  0
 37 38  1  0
 38 39  1  0
 39 40  1  0
 40 41  1  0
 41 42  1  0
 42 43  2  0
 42 44  1  0
 44 45  1  0
 45 46  1  0
 46 47  1  0
 13  8  1  0
 37 16  1  0
 47 44  1  0
 34 22  1  0
 33 29  1  0
  3 48  1  0
  3 49  1  0
  9 50  1  0
 10 51  1  0
 11 52  1  0
 12 53  1  0
 17 54  1  0
 21 55  1  0
 23 56  1  0
 24 57  1  0
 25 58  1  0
 30 59  1  0
 30 60  1  0
 31 61  1  0
 31 62  1  0
 32 63  1  0
 32 64  1  0
 33 65  1  0
 33 66  1  0
 34 67  1  0
 35 68  1  0
 36 69  1  0
 39 70  1  0
 39 71  1  0
 40 72  1  0
 40 73  1  0
 44 74  1  0
 45 75  1  0
 45 76  1  0
 46 77  1  0
 46 78  1  0
 47 79  1  0
 47 80  1  0
M  CHG  3   4  -1  15  -1  41  -1
M  END
>  <UniqueID>  (47) 
45

>  <SMILES>  (47) 
O=C(C[N-]S(=O)(=O)c1ccccc1F)[N-]c1cc(C(=O)Nc2cccc(C(=O)N3CCCC3)c2)ccc1OCC[N-]C(=O)C1CCC1

>  <Energy>  (47) 
154.3471444549817

>  <Genealogy>  (47) 
O=C(C[N-]S(=O)(=O)c1ccccc1F)[N-]c1cc(C(=O)Nc2cccc(C(=O)N3CCCC3)c2)ccc1OCC[N-]C(=O)C1CCC1 (protonated)
O=C(C[N-]S(=O)(=O)c1ccccc1F)[N-]c1cc(C(=O)Nc2cccc(C(=O)N3CCCC3)c2)ccc1OCC[N-]C(=O)C1CCC1 (3D coordinates assigned)
O=C(C[N-]S(=O)(=O)c1ccccc1F)[N-]c1cc(C(=O)Nc2cccc(C(=O)N3CCCC3)c2)ccc1OCC[N-]C(=O)C1CCC1 (nonaromatic ring conformer: 154.3471444549817 kcal/mol)

>  <smiles>  (47) 
O=C(CNS(=O)(=O)c1ccccc1F)Nc1cc(C(=O)Nc2cccc(C(=O)N3CCCC3)c2)ccc1OCCNC(=O)C1CCC1

>  <score_type>  (47) 
oracle

>  <origin>  (47) 
adg

>  <m_score__min__energy>  (47) 
-16.690000000000001

>  <m_primary>  (47) 
energy

$$$$
47:0
     RDKit          3D

 59 62  0  0  0  0  0  0  0  0999 V2000
   55.2920   29.0790   53.6380 C   0  0  0  0  0  0  0  0  0  0  0  0
   55.9850   30.1250   52.3780 S   0  0  0  0  0  0  0  0  0  0  0  0
   54.8950   30.5350   51.4260 O   0  0  0  0  0  0  0  0  0  0  0  0
   57.0520   29.3640   51.6450 O   0  0  0  0  0  0  0  0  0  0  0  0
   56.6630   31.5300   53.1340 N   0  0  0  0  0  0  0  0  0  0  0  0
   57.9000   32.1570   52.7670 C   0  0  0  0  0  0  0  0  0  0  0  0
   57.8760   33.5000   52.3720 C   0  0  0  0  0  0  0  0  0  0  0  0
   59.0570   34.1520   52.0100 C   0  0  0  0  0  0  0  0  0  0  0  0
   60.2750   33.4730   52.0550 C   0  0  0  0  0  0  0  0  0  0  0  0
   60.3260   32.1370   52.4870 C   0  0  0  0  0  0  0  0  0  0  0  0
   61.6440   31.3980   52.5560 C   0  0  0  0  0  0  0  0  0  0  0  0
   61.5080   30.0110   52.0700 N   0  0  0  0  0  0  0  0  0  0  0  0
   60.9510   29.7990   50.8390 C   0  0  0  0  0  0  0  0  0  0  0  0
   60.7680   28.5020   50.3540 C   0  0  0  0  0  0  0  0  0  0  0  0
   60.1350   28.2940   49.0750 C   0  0  0  0  0  0  0  0  0  0  0  0
   59.6150   28.1540   47.9960 C   0  0  0  0  0  0  0  0  0  0  0  0
   59.0240   28.0340   46.6920 C   0  0  0  0  0  0  0  0  0  0  0  0
   59.7620   27.5660   45.6010 C   0  0  0  0  0  0  0  0  0  0  0  0
   59.1560   27.5160   44.3420 C   0  0  0  0  0  0  0  0  0  0  0  0
   57.8320   27.9370   44.1860 C   0  0  0  0  0  0  0  0  0  0  0  0
   57.1190   28.3860   45.3040 C   0  0  0  0  0  0  0  0  0  0  0  0
   55.8970   28.8130   45.1690 N   0  0  0  0  0  0  0  0  0  0  0  0
   55.5320   29.8850   44.2920 C   0  0  0  0  0  0  0  0  0  0  0  0
   54.7050   29.6850   43.3610 O   0  0  0  0  0  0  0  0  0  0  0  0
   56.0770   31.1900   44.5020 N   0  0  0  0  0  0  0  0  0  0  0  0
   57.4620   31.5260   44.1830 C   0  0  0  0  0  0  0  0  0  0  0  0
   58.0730   32.3130   45.3130 C   0  0  0  0  0  0  0  0  0  0  0  0
   58.3780   31.6770   46.5280 C   0  0  0  0  0  0  0  0  0  0  0  0
   58.8440   32.4220   47.6160 C   0  0  0  0  0  0  0  0  0  0  0  0
   58.9900   33.8080   47.5050 C   0  0  0  0  0  0  0  0  0  0  0  0
   58.6920   34.4480   46.2990 C   0  0  0  0  0  0  0  0  0  0  0  0
   58.2410   33.7050   45.2040 C   0  0  0  0  0  0  0  0  0  0  0  0
   57.7350   28.4230   46.5190 N   0  0  0  0  0  0  0  0  0  0  0  0
   61.1820   27.4290   51.1490 C   0  0  0  0  0  0  0  0  0  0  0  0
   61.0330   26.2390   50.7590 O   0  0  0  0  0  0  0  0  0  0  0  0
   61.7450   27.6720   52.3580 N   0  0  0  0  0  0  0  0  0  0  0  0
   61.9110   28.9380   52.8240 C   0  0  0  0  0  0  0  0  0  0  0  0
   62.4350   29.1060   53.9580 O   0  0  0  0  0  0  0  0  0  0  0  0
   59.1300   31.4740   52.8110 C   0  0  0  0  0  0  0  0  0  0  0  0
   55.5550   29.4759   54.6296 H   0  0  0  0  0  0  0  0  0  0  0  0
   54.1974   29.0531   53.5319 H   0  0  0  0  0  0  0  0  0  0  0  0
   55.6949   28.0610   53.5319 H   0  0  0  0  0  0  0  0  0  0  0  0
   56.9209   34.0452   52.3466 H   0  0  0  0  0  0  0  0  0  0  0  0
   59.0267   35.2036   51.6886 H   0  0  0  0  0  0  0  0  0  0  0  0
   61.1994   33.9859   51.7509 H   0  0  0  0  0  0  0  0  0  0  0  0
   62.3829   31.9246   51.9341 H   0  0  0  0  0  0  0  0  0  0  0  0
   61.9699   31.3672   53.6062 H   0  0  0  0  0  0  0  0  0  0  0  0
   60.6441   30.6584   50.2248 H   0  0  0  0  0  0  0  0  0  0  0  0
   60.8050   27.2416   45.7312 H   0  0  0  0  0  0  0  0  0  0  0  0
   59.7211   27.1453   43.4741 H   0  0  0  0  0  0  0  0  0  0  0  0
   57.3553   27.9157   43.1949 H   0  0  0  0  0  0  0  0  0  0  0  0
   58.0361   30.6000   44.0314 H   0  0  0  0  0  0  0  0  0  0  0  0
   57.4850   32.1327   43.2657 H   0  0  0  0  0  0  0  0  0  0  0  0
   58.2498   30.5887   46.6239 H   0  0  0  0  0  0  0  0  0  0  0  0
   59.0959   31.9169   48.5601 H   0  0  0  0  0  0  0  0  0  0  0  0
   59.3395   34.3949   48.3672 H   0  0  0  0  0  0  0  0  0  0  0  0
   58.8124   35.5379   46.2111 H   0  0  0  0  0  0  0  0  0  0  0  0
   58.0167   34.2111   44.2535 H   0  0  0  0  0  0  0  0  0  0  0  0
   59.1553   30.4133   53.1012 H   0  0  0  0  0  0  0  0  0  0  0  0
  1  2  1  0
  2  3  2  0
  2  4  2  0
  2  5  1  0
  5  6  1  0
  6  7  2  0
  7  8  1  0
  8  9  2  0
  9 10  1  0
 10 11  1  0
 11 12  1  0
 12 13  1  0
 13 14  2  0
 14 15  1  0
 15 16  3  0
 16 17  1  0
 17 18  2  0
 18 19  1  0
 19 20  2  0
 20 21  1  0
 21 22  2  3
 22 23  1  0
 23 24  2  0
 23 25  1  0
 25 26  1  0
 26 27  1  0
 27 28  2  0
 28 29  1  0
 29 30  2  0
 30 31  1  0
 31 32  2  0
 21 33  1  0
 14 34  1  0
 34 35  2  0
 34 36  1  0
 36 37  1  0
 37 38  2  0
 10 39  2  0
 39  6  1  0
 37 12  1  0
 33 17  1  0
 32 27  1  0
  1 40  1  0
  1 41  1  0
  1 42  1  0
  7 43  1  0
  8 44  1  0
  9 45  1  0
 11 46  1  0
 11 47  1  0
 13 48  1  0
 18 49  1  0
 19 50  1  0
 20 51  1  0
 26 52  1  0
 26 53  1  0
 28 54  1  0
 29 55  1  0
 30 56  1  0
 31 57  1  0
 32 58  1  0
 39 59  1  0
M  CHG  4   5  -1  25  -1  33  -1  36  -1
M  END
>  <UniqueID>  (48) 
46

>  <SMILES>  (48) 
CS(=O)(=O)[N-]c1cccc(Cn2cc(C#Cc3cccc(=NC(=O)[N-]Cc4ccccc4)[n-]3)c(=O)[n-]c2=O)c1

>  <Energy>  (48) 
61.94869665610206

>  <Genealogy>  (48) 
CS(=O)(=O)[N-]c1cccc(Cn2cc(C#Cc3cccc(=NC(=O)[N-]Cc4ccccc4)[n-]3)c(=O)[n-]c2=O)c1 (protonated)
CS(=O)(=O)[N-]c1cccc(Cn2cc(C#Cc3cccc(=NC(=O)[N-]Cc4ccccc4)[n-]3)c(=O)[n-]c2=O)c1 (3D coordinates assigned)
CS(=O)(=O)[N-]c1cccc(Cn2cc(C#Cc3cccc(=NC(=O)[N-]Cc4ccccc4)[n-]3)c(=O)[n-]c2=O)c1 (optimized conformer: 61.94869665610206 kcal/mol)

>  <smiles>  (48) 
CS(=O)(=O)Nc1cccc(Cn2cc(C#Cc3cccc(=NC(=O)NCc4ccccc4)[nH]3)c(=O)[nH]c2=O)c1

>  <score_type>  (48) 
oracle

>  <origin>  (48) 
adg

>  <m_score__min__energy>  (48) 
-14.57

>  <m_primary>  (48) 
energy

$$$$
48:0
     RDKit          3D

 44 47  0  0  0  0  0  0  0  0999 V2000
   58.8380   30.9820   50.0000 C   0  0  0  0  0  0  0  0  0  0  0  0
   59.3850   30.5680   48.6660 C   0  0  0  0  0  0  0  0  0  0  0  0
   60.4140   31.3080   48.0680 C   0  0  0  0  0  0  0  0  0  0  0  0
   60.9240   30.9220   46.8300 C   0  0  0  0  0  0  0  0  0  0  0  0
   60.4200   29.7930   46.1800 C   0  0  0  0  0  0  0  0  0  0  0  0
   59.4180   29.0040   46.7850 C   0  0  0  0  0  0  0  0  0  0  0  0
   58.8220   27.7550   46.1380 C   0  0  2  0  0  0  0  0  0  0  0  0
   59.2610   27.4770   44.7050 C   0  0  0  0  0  0  0  0  0  0  0  0
   58.1890   28.1220   43.8410 C   0  0  0  0  0  0  0  0  0  0  0  0
   56.9540   28.1550   44.6370 N   0  0  0  0  0  0  0  0  0  0  0  0
   56.1310   29.3700   44.4460 C   0  0  0  0  0  0  0  0  0  0  0  0
   56.9160   30.6580   44.4540 C   0  0  0  0  0  0  0  0  0  0  0  0
   57.3980   31.1700   43.2900 N   0  0  0  0  0  0  0  0  0  0  0  0
   58.0980   32.3340   43.2630 C   0  0  0  0  0  0  0  0  0  0  0  0
   58.5320   32.7680   42.1620 O   0  0  0  0  0  0  0  0  0  0  0  0
   58.3350   33.0310   44.4600 C   0  0  0  0  0  0  0  0  0  0  0  0
   59.0750   34.2270   44.5050 C   0  0  0  0  0  0  0  0  0  0  0  0
   59.3000   34.8630   45.7300 C   0  0  0  0  0  0  0  0  0  0  0  0
   58.7880   34.3170   46.9110 C   0  0  0  0  0  0  0  0  0  0  0  0
   58.0470   33.1330   46.8750 C   0  0  0  0  0  0  0  0  0  0  0  0
   57.8200   32.4870   45.6540 C   0  0  0  0  0  0  0  0  0  0  0  0
   57.1220   31.3240   45.6200 N   0  0  0  0  0  0  0  0  0  0  0  0
   57.2980   27.8490   46.0360 C   0  0  0  0  0  0  0  0  0  0  0  0
   58.9100   29.4090   48.0330 C   0  0  0  0  0  0  0  0  0  0  0  0
   59.4397   30.5266   50.8004 H   0  0  0  0  0  0  0  0  0  0  0  0
   58.8786   32.0776   50.0889 H   0  0  0  0  0  0  0  0  0  0  0  0
   57.7946   30.6453   50.0889 H   0  0  0  0  0  0  0  0  0  0  0  0
   60.8197   32.1949   48.5767 H   0  0  0  0  0  0  0  0  0  0  0  0
   61.7277   31.5095   46.3621 H   0  0  0  0  0  0  0  0  0  0  0  0
   60.8072   29.5164   45.1883 H   0  0  0  0  0  0  0  0  0  0  0  0
   59.1851   26.9589   46.8046 H   0  0  0  0  0  0  0  0  0  0  0  0
   60.2438   27.9291   44.5057 H   0  0  0  0  0  0  0  0  0  0  0  0
   59.3663   26.4008   44.5033 H   0  0  0  0  0  0  0  0  0  0  0  0
   58.4892   29.1444   43.5678 H   0  0  0  0  0  0  0  0  0  0  0  0
   58.0405   27.5527   42.9115 H   0  0  0  0  0  0  0  0  0  0  0  0
   55.6140   29.2875   43.4786 H   0  0  0  0  0  0  0  0  0  0  0  0
   55.4372   29.4182   45.2983 H   0  0  0  0  0  0  0  0  0  0  0  0
   59.4762   34.6613   43.5774 H   0  0  0  0  0  0  0  0  0  0  0  0
   59.8817   35.7959   45.7646 H   0  0  0  0  0  0  0  0  0  0  0  0
   58.9692   34.8213   47.8717 H   0  0  0  0  0  0  0  0  0  0  0  0
   57.6422   32.7087   47.8056 H   0  0  0  0  0  0  0  0  0  0  0  0
   56.9283   28.6485   46.6949 H   0  0  0  0  0  0  0  0  0  0  0  0
   56.8349   26.9002   46.3449 H   0  0  0  0  0  0  0  0  0  0  0  0
   58.1282   28.8078   48.5202 H   0  0  0  0  0  0  0  0  0  0  0  0
  1  2  1  0
  2  3  2  0
  3  4  1  0
  4  5  2  0
  5  6  1  0
  6  7  1  0
  7  8  1  0
  8  9  1  0
  9 10  1  0
 10 11  1  0
 11 12  1  0
 12 13  2  0
 13 14  1  0
 14 15  2  0
 14 16  1  0
 16 17  2  0
 17 18  1  0
 18 19  2  0
 19 20  1  0
 20 21  2  0
 21 22  1  0
 10 23  1  0
  6 24  2  0
 24  2  1  0
 23  7  1  0
 22 12  1  0
 21 16  1  0
  1 25  1  0
  1 26  1  0
  1 27  1  0
  3 28  1  0
  4 29  1  0
  5 30  1  0
  7 31  1  1
  8 32  1  0
  8 33  1  0
  9 34  1  0
  9 35  1  0
 11 36  1  0
 11 37  1  0
 17 38  1  0
 18 39  1  0
 19 40  1  0
 20 41  1  0
 23 42  1  0
 23 43  1  0
 24 44  1  0
M  CHG  1  22  -1
M  END
>  <UniqueID>  (49) 
47

>  <SMILES>  (49) 
Cc1cccc([C@@H]2CCN(Cc3nc(=O)c4ccccc4[n-]3)C2)c1

>  <Energy>  (49) 
55.70714317771448

>  <Genealogy>  (49) 
Cc1cccc(C2CCN(Cc3nc(=O)c4ccccc4[n-]3)C2)c1 (protonated)
Cc1cccc([C@@H]2CCN(Cc3nc(=O)c4ccccc4[n-]3)C2)c1 (chirality)
Cc1cccc([C@@H]2CCN(Cc3nc(=O)c4ccccc4[n-]3)C2)c1 (3D coordinates assigned)
Cc1cccc([C@@H]2CCN(Cc3nc(=O)c4ccccc4[n-]3)C2)c1 (nonaromatic ring conformer: 55.70714317771448 kcal/mol)

>  <smiles>  (49) 
Cc1cccc(C2CCN(Cc3nc(=O)c4ccccc4[nH]3)C2)c1

>  <score_type>  (49) 
oracle

>  <origin>  (49) 
adg

>  <m_score__min__energy>  (49) 
-10.83

>  <m_primary>  (49) 
energy

$$$$
49:0
     RDKit          3D

 50 53  0  0  0  0  0  0  0  0999 V2000
   54.9390   26.2020   45.9230 N   0  0  0  0  0  0  0  0  0  0  0  0
   56.4820   25.6030   46.4170 S   0  0  0  0  0  0  0  0  0  0  0  0
   56.3490   24.8970   47.7380 O   0  0  0  0  0  0  0  0  0  0  0  0
   56.9860   24.6220   45.3960 O   0  0  0  0  0  0  0  0  0  0  0  0
   57.6130   26.9430   46.5710 C   0  0  0  0  0  0  0  0  0  0  0  0
   58.7360   26.8280   47.3990 C   0  0  0  0  0  0  0  0  0  0  0  0
   59.6310   27.8940   47.5160 C   0  0  0  0  0  0  0  0  0  0  0  0
   59.4160   29.0770   46.8030 C   0  0  0  0  0  0  0  0  0  0  0  0
   58.3010   29.2030   45.9550 C   0  0  0  0  0  0  0  0  0  0  0  0
   58.0790   30.4490   45.1800 C   0  0  0  0  0  0  0  0  0  0  0  0
   58.0190   30.4130   43.7750 C   0  0  0  0  0  0  0  0  0  0  0  0
   57.7970   31.5820   43.0440 C   0  0  0  0  0  0  0  0  0  0  0  0
   57.6300   32.8010   43.7050 C   0  0  0  0  0  0  0  0  0  0  0  0
   57.7010   32.8610   45.1040 C   0  0  0  0  0  0  0  0  0  0  0  0
   57.4750   34.1660   45.8180 C   0  0  0  0  0  0  0  0  0  0  0  0
   58.6470   34.4750   46.6980 C   0  0  0  0  0  0  0  0  0  0  0  0
   59.3320   35.5100   46.4750 O   0  0  0  0  0  0  0  0  0  0  0  0
   58.9510   33.6250   47.8140 N   0  0  0  0  0  0  0  0  0  0  0  0
   60.0310   33.9210   48.7570 C   0  0  1  0  0  0  0  0  0  0  0  0
   59.8300   33.1520   50.0850 C   0  0  0  0  0  0  0  0  0  0  0  0
   60.8670   32.0150   50.1150 C   0  0  0  0  0  0  0  0  0  0  0  0
   61.7770   32.3350   48.9900 C   0  0  0  0  0  0  0  0  0  0  0  0
   62.9660   31.6810   48.6630 C   0  0  0  0  0  0  0  0  0  0  0  0
   63.6960   32.1230   47.5500 C   0  0  0  0  0  0  0  0  0  0  0  0
   63.2270   33.2040   46.7820 C   0  0  0  0  0  0  0  0  0  0  0  0
   62.0270   33.8440   47.1250 C   0  0  0  0  0  0  0  0  0  0  0  0
   61.3160   33.3880   48.2390 C   0  0  0  0  0  0  0  0  0  0  0  0
   57.9180   31.6830   45.8370 C   0  0  0  0  0  0  0  0  0  0  0  0
   57.4010   28.1260   45.8480 C   0  0  0  0  0  0  0  0  0  0  0  0
   54.7800   27.0960   46.4390 H   0  0  0  0  0  0  0  0  0  0  0  0
   58.9137   25.8974   47.9579 H   0  0  0  0  0  0  0  0  0  0  0  0
   60.5090   27.8022   48.1722 H   0  0  0  0  0  0  0  0  0  0  0  0
   60.1226   29.9138   46.9057 H   0  0  0  0  0  0  0  0  0  0  0  0
   58.1480   29.4562   43.2478 H   0  0  0  0  0  0  0  0  0  0  0  0
   57.7536   31.5427   41.9456 H   0  0  0  0  0  0  0  0  0  0  0  0
   57.4421   33.7172   43.1260 H   0  0  0  0  0  0  0  0  0  0  0  0
   57.3526   34.9704   45.0777 H   0  0  0  0  0  0  0  0  0  0  0  0
   56.5684   34.0885   46.4361 H   0  0  0  0  0  0  0  0  0  0  0  0
   58.4450   32.7140   47.8970 H   0  0  0  0  0  0  0  0  0  0  0  0
   60.0330   35.0122   48.8962 H   0  0  0  0  0  0  0  0  0  0  0  0
   59.9868   33.8275   50.9389 H   0  0  0  0  0  0  0  0  0  0  0  0
   58.8083   32.7500   50.1523 H   0  0  0  0  0  0  0  0  0  0  0  0
   61.4126   32.0076   51.0701 H   0  0  0  0  0  0  0  0  0  0  0  0
   60.4088   31.0194   50.0208 H   0  0  0  0  0  0  0  0  0  0  0  0
   63.3239   30.8344   49.2672 H   0  0  0  0  0  0  0  0  0  0  0  0
   64.6372   31.6233   47.2772 H   0  0  0  0  0  0  0  0  0  0  0  0
   63.8027   33.5483   45.9102 H   0  0  0  0  0  0  0  0  0  0  0  0
   61.6523   34.6889   46.5286 H   0  0  0  0  0  0  0  0  0  0  0  0
   57.9626   31.7253   46.9353 H   0  0  0  0  0  0  0  0  0  0  0  0
   56.5230   28.2130   45.1911 H   0  0  0  0  0  0  0  0  0  0  0  0
  1  2  1  0
  2  3  2  0
  2  4  2  0
  2  5  1  0
  5  6  2  0
  6  7  1  0
  7  8  2  0
  8  9  1  0
  9 10  1  0
 10 11  2  0
 11 12  1  0
 12 13  2  0
 13 14  1  0
 14 15  1  0
 15 16  1  0
 16 17  2  0
 16 18  1  0
 18 19  1  0
 19 20  1  0
 20 21  1  0
 21 22  1  0
 22 23  2  0
 23 24  1  0
 24 25  2  0
 25 26  1  0
 26 27  2  0
 14 28  2  0
  9 29  2  0
 29  5  1  0
 28 10  1  0
 27 19  1  0
 27 22  1  0
  1 30  1  0
  6 31  1  0
  7 32  1  0
  8 33  1  0
 11 34  1  0
 12 35  1  0
 13 36  1  0
 15 37  1  0
 15 38  1  0
 18 39  1  0
 19 40  1  1
 20 41  1  0
 20 42  1  0
 21 43  1  0
 21 44  1  0
 23 45  1  0
 24 46  1  0
 25 47  1  0
 26 48  1  0
 28 49  1  0
 29 50  1  0
M  CHG  1   1  -1
M  END
>  <UniqueID>  (50) 
48

>  <SMILES>  (50) 
[NH-]S(=O)(=O)c1cccc(-c2cccc(CC(=O)N[C@H]3CCc4ccccc43)c2)c1

>  <Energy>  (50) 
62.82334075075531

>  <Genealogy>  (50) 
[NH-]S(=O)(=O)c1cccc(-c2cccc(CC(=O)NC3CCc4ccccc43)c2)c1 (protonated)
[NH-]S(=O)(=O)c1cccc(-c2cccc(CC(=O)N[C@H]3CCc4ccccc43)c2)c1 (chirality)
[NH-]S(=O)(=O)c1cccc(-c2cccc(CC(=O)N[C@H]3CCc4ccccc43)c2)c1 (3D coordinates assigned)
[NH-]S(=O)(=O)c1cccc(-c2cccc(CC(=O)N[C@H]3CCc4ccccc43)c2)c1 (nonaromatic ring conformer: 62.82334075075531 kcal/mol)

>  <smiles>  (50) 
NS(=O)(=O)c1cccc(-c2cccc(CC(=O)NC3CCc4ccccc43)c2)c1

>  <score_type>  (50) 
oracle

>  <origin>  (50) 
adg

>  <m_score__min__energy>  (50) 
-13.5

>  <m_primary>  (50) 
energy

$$$$
50:0
     RDKit          3D

 51 54  0  0  0  0  0  0  0  0999 V2000
   60.3780   34.9010   45.8870 O   0  0  0  0  0  0  0  0  0  0  0  0
   59.2070   34.4480   45.7930 C   0  0  0  0  0  0  0  0  0  0  0  0
   58.2640   34.9590   44.8780 N   0  0  0  0  0  0  0  0  0  0  0  0
   57.0170   34.2420   45.1060 C   0  0  0  0  0  0  0  0  0  0  0  0
   57.2650   33.2980   46.3060 C   0  0  0  0  0  0  0  0  0  0  0  0
   58.6790   33.4390   46.6340 N   0  0  0  0  0  0  0  0  0  0  0  0
   59.3970   32.6320   47.5890 C   0  0  0  0  0  0  0  0  0  0  0  0
   58.8290   32.3520   48.8440 C   0  0  0  0  0  0  0  0  0  0  0  0
   59.5000   31.5410   49.7630 C   0  0  0  0  0  0  0  0  0  0  0  0
   60.7500   30.9980   49.4420 C   0  0  0  0  0  0  0  0  0  0  0  0
   61.5680   29.9240   50.5740 S   0  0  0  0  0  0  0  0  0  0  0  0
   61.1620   30.2580   51.9820 O   0  0  0  0  0  0  0  0  0  0  0  0
   63.0520   30.1290   50.4460 O   0  0  0  0  0  0  0  0  0  0  0  0
   61.2010   28.2600   50.2550 N   0  0  0  0  0  0  0  0  0  0  0  0
   60.3570   27.8380   49.1820 C   0  0  0  0  0  0  0  0  0  0  0  0
   59.1450   28.5030   48.9600 C   0  0  0  0  0  0  0  0  0  0  0  0
   58.3090   28.1140   47.9090 C   0  0  0  0  0  0  0  0  0  0  0  0
   58.6680   27.0400   47.0850 C   0  0  0  0  0  0  0  0  0  0  0  0
   57.6560   26.5910   45.7160 S   0  0  0  0  0  0  0  0  0  0  0  0
   56.2740   27.1510   45.9050 O   0  0  0  0  0  0  0  0  0  0  0  0
   57.5570   25.0930   45.6350 O   0  0  0  0  0  0  0  0  0  0  0  0
   58.3510   27.2320   44.2010 C   0  0  0  0  0  0  0  0  0  0  0  0
   58.0250   28.6970   44.0430 C   0  0  0  0  0  0  0  0  0  0  0  0
   56.8830   29.0640   43.3110 C   0  0  0  0  0  0  0  0  0  0  0  0
   56.5690   30.4110   43.1120 C   0  0  0  0  0  0  0  0  0  0  0  0
   57.3920   31.4060   43.6390 C   0  0  0  0  0  0  0  0  0  0  0  0
   58.5360   31.0580   44.3580 C   0  0  0  0  0  0  0  0  0  0  0  0
   58.8650   29.7130   44.5590 C   0  0  0  0  0  0  0  0  0  0  0  0
   60.3360   29.3500   45.4570 Cl  0  0  0  0  0  0  0  0  0  0  0  0
   59.8640   26.3520   47.3270 C   0  0  0  0  0  0  0  0  0  0  0  0
   60.7000   26.7420   48.3760 C   0  0  0  0  0  0  0  0  0  0  0  0
   61.3210   31.2690   48.1930 C   0  0  0  0  0  0  0  0  0  0  0  0
   60.6490   32.0760   47.2710 C   0  0  0  0  0  0  0  0  0  0  0  0
   56.2089   34.9505   45.3407 H   0  0  0  0  0  0  0  0  0  0  0  0
   56.7143   33.6771   44.2120 H   0  0  0  0  0  0  0  0  0  0  0  0
   56.6413   33.5944   47.1623 H   0  0  0  0  0  0  0  0  0  0  0  0
   57.0066   32.2567   46.0633 H   0  0  0  0  0  0  0  0  0  0  0  0
   57.8477   32.7750   49.1049 H   0  0  0  0  0  0  0  0  0  0  0  0
   59.0448   31.3285   50.7416 H   0  0  0  0  0  0  0  0  0  0  0  0
   58.8492   29.3353   49.6155 H   0  0  0  0  0  0  0  0  0  0  0  0
   57.3671   28.6528   47.7289 H   0  0  0  0  0  0  0  0  0  0  0  0
   59.4435   27.1054   44.2229 H   0  0  0  0  0  0  0  0  0  0  0  0
   57.9200   26.6801   43.3527 H   0  0  0  0  0  0  0  0  0  0  0  0
   56.2306   28.2842   42.8910 H   0  0  0  0  0  0  0  0  0  0  0  0
   55.6715   30.6869   42.5389 H   0  0  0  0  0  0  0  0  0  0  0  0
   57.1391   32.4658   43.4877 H   0  0  0  0  0  0  0  0  0  0  0  0
   59.1835   31.8463   44.7695 H   0  0  0  0  0  0  0  0  0  0  0  0
   60.1459   25.5016   46.6887 H   0  0  0  0  0  0  0  0  0  0  0  0
   61.6302   26.1881   48.5707 H   0  0  0  0  0  0  0  0  0  0  0  0
   62.3029   30.8449   47.9361 H   0  0  0  0  0  0  0  0  0  0  0  0
   61.1026   32.2778   46.2894 H   0  0  0  0  0  0  0  0  0  0  0  0
  1  2  2  0
  2  3  1  0
  3  4  1  0
  4  5  1  0
  5  6  1  0
  6  7  1  0
  7  8  2  0
  8  9  1  0
  9 10  2  0
 10 11  1  0
 11 12  2  0
 11 13  2  0
 11 14  1  0
 14 15  1  0
 15 16  2  0
 16 17  1  0
 17 18  2  0
 18 19  1  0
 19 20  2  0
 19 21  2  0
 19 22  1  0
 22 23  1  0
 23 24  2  0
 24 25  1  0
 25 26  2  0
 26 27  1  0
 27 28  2  0
 28 29  1  0
 18 30  1  0
 30 31  2  0
 10 32  1  0
 32 33  2  0
  6  2  1  0
 33  7  1  0
 31 15  1  0
 28 23  1  0
  4 34  1  0
  4 35  1  0
  5 36  1  0
  5 37  1  0
  8 38  1  0
  9 39  1  0
 16 40  1  0
 17 41  1  0
 22 42  1  0
 22 43  1  0
 24 44  1  0
 25 45  1  0
 26 46  1  0
 27 47  1  0
 30 48  1  0
 31 49  1  0
 32 50  1  0
 33 51  1  0
M  CHG  2   3  -1  14  -1
M  END
>  <UniqueID>  (51) 
49

>  <SMILES>  (51) 
O=C1[N-]CCN1c1ccc(S(=O)(=O)[N-]c2ccc(S(=O)(=O)Cc3ccccc3Cl)cc2)cc1

>  <Energy>  (51) 
73.7529599723489

>  <Genealogy>  (51) 
O=C1[N-]CCN1c1ccc(S(=O)(=O)[N-]c2ccc(S(=O)(=O)Cc3ccccc3Cl)cc2)cc1 (protonated)
O=C1[N-]CCN1c1ccc(S(=O)(=O)[N-]c2ccc(S(=O)(=O)Cc3ccccc3Cl)cc2)cc1 (3D coordinates assigned)
O=C1[N-]CCN1c1ccc(S(=O)(=O)[N-]c2ccc(S(=O)(=O)Cc3ccccc3Cl)cc2)cc1 (nonaromatic ring conformer: 73.7529599723489 kcal/mol)

>  <smiles>  (51) 
O=C1NCCN1c1ccc(S(=O)(=O)Nc2ccc(S(=O)(=O)Cc3ccccc3Cl)cc2)cc1

>  <score_type>  (51) 
oracle

>  <origin>  (51) 
adg

>  <m_score__min__energy>  (51) 
-12.15

>  <m_primary>  (51) 
energy

$$$$
51:0
     RDKit          3D

 55 58  0  0  0  0  0  0  0  0999 V2000
   59.4610   29.7910   44.8760 C   0  0  0  0  0  0  0  0  0  0  0  0
   59.4310   29.3190   46.1320 C   0  0  0  0  0  0  0  0  0  0  0  0
   58.6600   28.2460   46.5930 C   0  0  0  0  0  0  0  0  0  0  0  0
   57.8570   27.4430   45.8670 C   0  0  0  0  0  0  0  0  0  0  0  0
   57.2360   26.2130   46.3880 C   0  0  0  0  0  0  0  0  0  0  0  0
   57.9450   25.1530   46.8130 N   0  0  0  0  0  0  0  0  0  0  0  0
   56.9960   24.2520   47.1430 C   0  0  0  0  0  0  0  0  0  0  0  0
   57.2720   23.1150   47.6080 O   0  0  0  0  0  0  0  0  0  0  0  0
   55.7270   24.6620   46.9320 N   0  0  0  0  0  0  0  0  0  0  0  0
   55.8960   25.9010   46.4440 C   0  0  0  0  0  0  0  0  0  0  0  0
   54.8470   26.7100   46.0190 O   0  0  0  0  0  0  0  0  0  0  0  0
   58.9340   28.1220   47.9480 C   0  0  0  0  0  0  0  0  0  0  0  0
   59.8430   29.1130   48.2560 C   0  0  0  0  0  0  0  0  0  0  0  0
   60.4020   29.3290   49.6040 C   0  0  0  0  0  0  0  0  0  0  0  0
   61.1620   28.4360   50.0690 O   0  0  0  0  0  0  0  0  0  0  0  0
   59.9860   30.4380   50.4520 N   0  0  0  0  0  0  0  0  0  0  0  0
   58.5640   30.7650   50.2260 C   0  0  0  0  0  0  0  0  0  0  0  0
   58.2450   32.1340   50.8330 C   0  0  0  0  0  0  0  0  0  0  0  0
   58.9160   32.3250   52.1260 N   0  0  0  0  0  0  0  0  0  0  0  0
   58.8280   33.6190   52.7600 C   0  0  0  0  0  0  0  0  0  0  0  0
   59.0660   33.7960   54.2300 C   0  0  0  0  0  0  0  0  0  0  0  0
   58.5640   34.6380   52.0680 O   0  0  0  0  0  0  0  0  0  0  0  0
   59.4940   31.1730   52.8380 C   0  0  0  0  0  0  0  0  0  0  0  0
   60.2190   30.1780   51.8950 C   0  0  0  0  0  0  0  0  0  0  0  0
   60.1550   29.8370   47.1570 N   0  0  0  0  0  0  0  0  0  0  0  0
   61.1330   30.9360   47.0950 C   0  0  0  0  0  0  0  0  0  0  0  0
   60.4520   32.2730   47.2650 C   0  0  0  0  0  0  0  0  0  0  0  0
   59.5910   32.7540   46.2620 C   0  0  0  0  0  0  0  0  0  0  0  0
   58.9560   33.9910   46.4060 C   0  0  0  0  0  0  0  0  0  0  0  0
   59.1770   34.7620   47.5490 C   0  0  0  0  0  0  0  0  0  0  0  0
   60.0440   34.3040   48.5440 C   0  0  0  0  0  0  0  0  0  0  0  0
   60.6880   33.0680   48.4020 C   0  0  0  0  0  0  0  0  0  0  0  0
   61.5320   32.6510   49.3810 F   0  0  0  0  0  0  0  0  0  0  0  0
   60.1079   30.6443   44.6244 H   0  0  0  0  0  0  0  0  0  0  0  0
   58.8386   29.3245   44.0981 H   0  0  0  0  0  0  0  0  0  0  0  0
   57.6532   27.7229   44.8229 H   0  0  0  0  0  0  0  0  0  0  0  0
   58.5098   27.3796   48.6401 H   0  0  0  0  0  0  0  0  0  0  0  0
   60.5730   31.2600   50.1710 H   0  0  0  0  0  0  0  0  0  0  0  0
   58.3618   30.7885   49.1450 H   0  0  0  0  0  0  0  0  0  0  0  0
   57.9345   29.9998   50.7037 H   0  0  0  0  0  0  0  0  0  0  0  0
   58.5796   32.9186   50.1384 H   0  0  0  0  0  0  0  0  0  0  0  0
   57.1590   32.1910   50.9986 H   0  0  0  0  0  0  0  0  0  0  0  0
   58.3084   33.2326   54.7945 H   0  0  0  0  0  0  0  0  0  0  0  0
   60.0680   33.4219   54.4869 H   0  0  0  0  0  0  0  0  0  0  0  0
   58.9961   34.8633   54.4869 H   0  0  0  0  0  0  0  0  0  0  0  0
   60.2180   31.5456   53.5776 H   0  0  0  0  0  0  0  0  0  0  0  0
   58.6636   30.6299   53.3129 H   0  0  0  0  0  0  0  0  0  0  0  0
   61.2999   30.2426   52.0884 H   0  0  0  0  0  0  0  0  0  0  0  0
   59.8104   29.1795   52.1095 H   0  0  0  0  0  0  0  0  0  0  0  0
   61.8739   30.8045   47.8973 H   0  0  0  0  0  0  0  0  0  0  0  0
   61.6244   30.9143   46.1111 H   0  0  0  0  0  0  0  0  0  0  0  0
   59.4161   32.1524   45.3578 H   0  0  0  0  0  0  0  0  0  0  0  0
   58.2815   34.3574   45.6181 H   0  0  0  0  0  0  0  0  0  0  0  0
   58.6683   35.7303   47.6660 H   0  0  0  0  0  0  0  0  0  0  0  0
   60.2215   34.9153   49.4411 H   0  0  0  0  0  0  0  0  0  0  0  0
  1  2  2  0
  2  3  1  0
  3  4  2  3
  4  5  1  0
  5  6  1  0
  6  7  1  0
  7  8  2  0
  7  9  1  0
  9 10  1  0
 10 11  1  0
  3 12  1  0
 12 13  2  0
 13 14  1  0
 14 15  2  0
 14 16  1  0
 16 17  1  0
 17 18  1  0
 18 19  1  0
 19 20  1  0
 20 21  1  0
 20 22  2  0
 19 23  1  0
 23 24  1  0
 13 25  1  0
 25 26  1  0
 26 27  1  0
 27 28  2  0
 28 29  1  0
 29 30  2  0
 30 31  1  0
 31 32  2  0
 32 33  1  0
 25  2  1  0
 32 27  1  0
 10  5  2  0
 24 16  1  0
  1 34  1  0
  1 35  1  0
  4 36  1  0
 12 37  1  0
 16 38  1  0
 17 39  1  0
 17 40  1  0
 18 41  1  0
 18 42  1  0
 21 43  1  0
 21 44  1  0
 21 45  1  0
 23 46  1  0
 23 47  1  0
 24 48  1  0
 24 49  1  0
 26 50  1  0
 26 51  1  0
 28 52  1  0
 29 53  1  0
 30 54  1  0
 31 55  1  0
M  CHG  4   6  -1   9  -1  11  -1  16   1
M  END
>  <UniqueID>  (52) 
50

>  <SMILES>  (52) 
C=c1c(=Cc2[n-]c(=O)[n-]c2[O-])cc(C(=O)[NH+]2CCN(C(C)=O)CC2)n1Cc1ccccc1F

>  <Energy>  (52) 
141.29678587550504

>  <Genealogy>  (52) 
C=c1c(=Cc2[n-]c(=O)[n-]c2[O-])cc(C(=O)[NH+]2CCN(C(C)=O)CC2)n1Cc1ccccc1F (protonated)
C=c1c(=Cc2[n-]c(=O)[n-]c2[O-])cc(C(=O)[NH+]2CCN(C(C)=O)CC2)n1Cc1ccccc1F (3D coordinates assigned)
C=c1c(=Cc2[n-]c(=O)[n-]c2[O-])cc(C(=O)[NH+]2CCN(C(C)=O)CC2)n1Cc1ccccc1F (nonaromatic ring conformer: 141.29678587550504 kcal/mol)

>  <smiles>  (52) 
C=c1c(=Cc2[nH]c(=O)[nH]c2O)cc(C(=O)N2CCN(C(C)=O)CC2)n1Cc1ccccc1F

>  <score_type>  (52) 
oracle

>  <origin>  (52) 
adg

>  <m_score__min__energy>  (52) 
-14.67

>  <m_primary>  (52) 
energy

$$$$
52:0
     RDKit          3D

 36 37  0  0  0  0  0  0  0  0999 V2000
   57.8150   34.5040   44.8590 C   0  0  0  0  0  0  0  0  0  0  0  0
   58.3730   33.8220   46.0810 C   0  0  0  0  0  0  0  0  0  0  0  0
   59.1120   34.5820   47.0040 C   0  0  0  0  0  0  0  0  0  0  0  0
   59.6290   33.9910   48.1590 C   0  0  0  0  0  0  0  0  0  0  0  0
   59.4230   32.6350   48.4030 C   0  0  0  0  0  0  0  0  0  0  0  0
   58.7050   31.8620   47.4900 C   0  0  0  0  0  0  0  0  0  0  0  0
   58.1740   32.4370   46.3210 C   0  0  0  0  0  0  0  0  0  0  0  0
   57.4350   31.5690   45.3700 C   0  0  0  0  0  0  0  0  0  0  0  0
   56.3130   31.9390   44.9320 O   0  0  0  0  0  0  0  0  0  0  0  0
   58.0000   30.3510   44.8670 N   0  0  0  0  0  0  0  0  0  0  0  0
   57.6830   29.0250   45.3180 C   0  0  0  0  0  0  0  0  0  0  0  0
   56.3670   28.5400   45.2080 C   0  0  0  0  0  0  0  0  0  0  0  0
   55.3320   29.3370   44.6260 N   0  0  0  0  0  0  0  0  0  0  0  0
   56.0730   27.2860   45.6410 N   0  0  0  0  0  0  0  0  0  0  0  0
   57.0220   26.4920   46.1980 C   0  0  0  0  0  0  0  0  0  0  0  0
   56.5960   24.8440   46.7530 S   0  0  0  0  0  0  0  0  0  0  0  0
   57.6320   23.9960   45.5120 C   0  0  0  0  0  0  0  0  0  0  0  0
   57.2090   24.3720   44.1260 C   0  0  0  0  0  0  0  0  0  0  0  0
   57.3810   25.7090   43.6580 N   0  0  0  0  0  0  0  0  0  0  0  0
   56.7170   23.4990   43.3620 O   0  0  0  0  0  0  0  0  0  0  0  0
   58.2920   26.9490   46.3400 N   0  0  0  0  0  0  0  0  0  0  0  0
   58.6410   28.1930   45.9270 C   0  0  0  0  0  0  0  0  0  0  0  0
   59.8180   28.5960   46.1210 O   0  0  0  0  0  0  0  0  0  0  0  0
   57.1465   35.3210   45.1682 H   0  0  0  0  0  0  0  0  0  0  0  0
   58.6407   34.9132   44.2583 H   0  0  0  0  0  0  0  0  0  0  0  0
   57.2504   33.7757   44.2583 H   0  0  0  0  0  0  0  0  0  0  0  0
   59.2847   35.6518   46.8150 H   0  0  0  0  0  0  0  0  0  0  0  0
   60.2000   34.5975   48.8775 H   0  0  0  0  0  0  0  0  0  0  0  0
   59.8267   32.1734   49.3162 H   0  0  0  0  0  0  0  0  0  0  0  0
   58.5523   30.7905   47.6865 H   0  0  0  0  0  0  0  0  0  0  0  0
   55.5320   30.3190   44.3330 H   0  0  0  0  0  0  0  0  0  0  0  0
   54.3660   28.9670   44.4850 H   0  0  0  0  0  0  0  0  0  0  0  0
   58.6829   24.2852   45.6601 H   0  0  0  0  0  0  0  0  0  0  0  0
   57.5150   22.9092   45.6357 H   0  0  0  0  0  0  0  0  0  0  0  0
   57.0960   25.9680   42.6880 H   0  0  0  0  0  0  0  0  0  0  0  0
   57.7980   26.4390   44.2770 H   0  0  0  0  0  0  0  0  0  0  0  0
  1  2  1  0
  2  3  2  0
  3  4  1  0
  4  5  2  0
  5  6  1  0
  6  7  2  0
  7  8  1  0
  8  9  2  0
  8 10  1  0
 10 11  1  0
 11 12  2  0
 12 13  1  0
 12 14  1  0
 14 15  1  0
 15 16  1  0
 16 17  1  0
 17 18  1  0
 18 19  1  0
 18 20  2  0
 15 21  2  0
 21 22  1  0
 22 23  2  0
  7  2  1  0
 22 11  1  0
  1 24  1  0
  1 25  1  0
  1 26  1  0
  3 27  1  0
  4 28  1  0
  5 29  1  0
  6 30  1  0
 13 31  1  0
 13 32  1  0
 17 33  1  0
 17 34  1  0
 19 35  1  0
 19 36  1  0
M  CHG  2  10  -1  14  -1
M  END
>  <UniqueID>  (53) 
51

>  <SMILES>  (53) 
Cc1ccccc1C(=O)[N-]c1c(N)[n-]c(SCC(N)=O)nc1=O

>  <Energy>  (53) 
41.282692031932676

>  <Genealogy>  (53) 
Cc1ccccc1C(=O)[N-]c1c(N)[n-]c(SCC(N)=O)nc1=O (protonated)
Cc1ccccc1C(=O)[N-]c1c(N)[n-]c(SCC(N)=O)nc1=O (3D coordinates assigned)
Cc1ccccc1C(=O)[N-]c1c(N)[n-]c(SCC(N)=O)nc1=O (optimized conformer: 41.282692031932676 kcal/mol)

>  <smiles>  (53) 
Cc1ccccc1C(=O)Nc1c(N)[nH]c(SCC(N)=O)nc1=O

>  <score_type>  (53) 
oracle

>  <origin>  (53) 
adg

>  <m_score__min__energy>  (53) 
-11.68

>  <m_primary>  (53) 
energy

$$$$
53:0
     RDKit          3D

 59 63  0  0  0  0  0  0  0  0999 V2000
   55.0530   31.1620   52.0270 C   0  0  0  0  0  0  0  0  0  0  0  0
   54.9430   29.9320   52.5560 C   0  0  0  0  0  0  0  0  0  0  0  0
   53.7590   29.2220   52.8180 C   0  0  0  0  0  0  0  0  0  0  0  0
   52.4830   29.4650   52.4580 C   0  0  0  0  0  0  0  0  0  0  0  0
   51.9500   30.7590   52.0060 C   0  0  0  0  0  0  0  0  0  0  0  0
   51.5980   31.7520   52.8410 N   0  0  0  0  0  0  0  0  0  0  0  0
   51.0570   32.6760   52.0170 C   0  0  0  0  0  0  0  0  0  0  0  0
   50.6150   33.7770   52.4330 O   0  0  0  0  0  0  0  0  0  0  0  0
   51.0160   32.3210   50.7150 N   0  0  0  0  0  0  0  0  0  0  0  0
   51.5710   31.0980   50.7260 C   0  0  0  0  0  0  0  0  0  0  0  0
   51.7100   30.2980   49.5960 O   0  0  0  0  0  0  0  0  0  0  0  0
   54.1280   28.1190   53.5700 C   0  0  0  0  0  0  0  0  0  0  0  0
   55.5020   28.1490   53.6800 C   0  0  0  0  0  0  0  0  0  0  0  0
   56.3190   27.1100   54.3880 C   0  0  0  0  0  0  0  0  0  0  0  0
   55.9970   29.2500   53.0710 N   0  0  0  0  0  0  0  0  0  0  0  0
   57.3820   29.6260   53.0170 C   0  0  0  0  0  0  0  0  0  0  0  0
   58.1430   29.3310   53.9760 O   0  0  0  0  0  0  0  0  0  0  0  0
   57.9020   30.2970   51.8590 N   0  0  0  0  0  0  0  0  0  0  0  0
   58.3090   29.6020   50.6390 C   0  0  0  0  0  0  0  0  0  0  0  0
   59.0640   30.6450   49.7840 C   0  0  0  0  0  0  0  0  0  0  0  0
   59.0160   31.8860   50.6140 C   0  0  0  0  0  0  0  0  0  0  0  0
   59.4890   33.1720   50.2950 C   0  0  0  0  0  0  0  0  0  0  0  0
   60.2070   33.4440   49.0280 C   0  0  0  0  0  0  0  0  0  0  0  0
   61.4670   33.4530   49.0270 O   0  0  0  0  0  0  0  0  0  0  0  0
   59.4970   33.7170   47.8030 N   0  0  0  0  0  0  0  0  0  0  0  0
   58.1860   33.1070   47.5340 C   0  0  0  0  0  0  0  0  0  0  0  0
   58.1200   32.6300   46.0800 C   0  0  0  0  0  0  0  0  0  0  0  0
   58.4290   33.7560   45.0700 C   0  0  0  0  0  0  0  0  0  0  0  0
   59.1460   34.9680   45.6900 C   0  0  0  0  0  0  0  0  0  0  0  0
   60.1430   34.5500   46.7760 C   0  0  0  0  0  0  0  0  0  0  0  0
   59.2730   34.2040   51.2320 C   0  0  0  0  0  0  0  0  0  0  0  0
   58.5760   33.9510   52.4260 C   0  0  0  0  0  0  0  0  0  0  0  0
   58.0950   32.6650   52.7070 C   0  0  0  0  0  0  0  0  0  0  0  0
   58.3460   31.6430   51.7860 C   0  0  0  0  0  0  0  0  0  0  0  0
   56.0469   31.6073   51.8724 H   0  0  0  0  0  0  0  0  0  0  0  0
   54.1492   31.7238   51.7485 H   0  0  0  0  0  0  0  0  0  0  0  0
   51.7786   28.6215   52.5065 H   0  0  0  0  0  0  0  0  0  0  0  0
   51.0280   29.5810   49.3850 H   0  0  0  0  0  0  0  0  0  0  0  0
   53.4533   27.3630   53.9980 H   0  0  0  0  0  0  0  0  0  0  0  0
   56.2161   27.2409   55.4753 H   0  0  0  0  0  0  0  0  0  0  0  0
   55.9641   26.1083   54.1040 H   0  0  0  0  0  0  0  0  0  0  0  0
   57.3762   27.2186   54.1040 H   0  0  0  0  0  0  0  0  0  0  0  0
   58.9702   28.7575   50.8831 H   0  0  0  0  0  0  0  0  0  0  0  0
   57.4413   29.1929   50.1007 H   0  0  0  0  0  0  0  0  0  0  0  0
   60.1034   30.3303   49.6090 H   0  0  0  0  0  0  0  0  0  0  0  0
   58.6188   30.7816   48.7874 H   0  0  0  0  0  0  0  0  0  0  0  0
   58.0384   32.2489   48.2062 H   0  0  0  0  0  0  0  0  0  0  0  0
   57.3974   33.8544   47.7055 H   0  0  0  0  0  0  0  0  0  0  0  0
   58.8528   31.8215   45.9411 H   0  0  0  0  0  0  0  0  0  0  0  0
   57.0931   32.2847   45.8894 H   0  0  0  0  0  0  0  0  0  0  0  0
   59.0689   33.3435   44.2761 H   0  0  0  0  0  0  0  0  0  0  0  0
   57.4628   34.1169   44.6877 H   0  0  0  0  0  0  0  0  0  0  0  0
   59.6883   35.5039   44.8971 H   0  0  0  0  0  0  0  0  0  0  0  0
   58.3853   35.6116   46.1560 H   0  0  0  0  0  0  0  0  0  0  0  0
   60.9594   33.9774   46.3117 H   0  0  0  0  0  0  0  0  0  0  0  0
   60.5309   35.4587   47.2595 H   0  0  0  0  0  0  0  0  0  0  0  0
   59.6533   35.2155   51.0265 H   0  0  0  0  0  0  0  0  0  0  0  0
   58.4071   34.7670   53.1440 H   0  0  0  0  0  0  0  0  0  0  0  0
   57.5329   32.4641   53.6309 H   0  0  0  0  0  0  0  0  0  0  0  0
  1  2  2  0
  2  3  1  0
  3  4  2  3
  4  5  1  0
  5  6  1  0
  6  7  1  0
  7  8  2  0
  7  9  1  0
  9 10  1  0
 10 11  1  0
  3 12  1  0
 12 13  2  0
 13 14  1  0
 13 15  1  0
 15 16  1  0
 16 17  2  0
 16 18  1  0
 18 19  1  0
 19 20  1  0
 20 21  1  0
 21 22  2  0
 22 23  1  0
 23 24  2  0
 23 25  1  0
 25 26  1  0
 26 27  1  0
 27 28  1  0
 28 29  1  0
 29 30  1  0
 22 31  1  0
 31 32  2  0
 32 33  1  0
 33 34  2  0
 15  2  1  0
 34 18  1  0
 10  5  2  0
 34 21  1  0
 30 25  1  0
  1 35  1  0
  1 36  1  0
  4 37  1  0
 11 38  1  0
 12 39  1  0
 14 40  1  0
 14 41  1  0
 14 42  1  0
 19 43  1  0
 19 44  1  0
 20 45  1  0
 20 46  1  0
 26 47  1  0
 26 48  1  0
 27 49  1  0
 27 50  1  0
 28 51  1  0
 28 52  1  0
 29 53  1  0
 29 54  1  0
 30 55  1  0
 30 56  1  0
 31 57  1  0
 32 58  1  0
 33 59  1  0
M  CHG  2   6  -1   9  -1
M  END
>  <UniqueID>  (54) 
52

>  <SMILES>  (54) 
C=c1c(=Cc2[n-]c(=O)[n-]c2O)cc(C)n1C(=O)N1CCc2c(C(=O)N3CCCCC3)cccc21

>  <Energy>  (54) 
159.02280002281438

>  <Genealogy>  (54) 
C=c1c(=Cc2[n-]c(=O)[n-]c2O)cc(C)n1C(=O)N1CCc2c(C(=O)N3CCCCC3)cccc21 (protonated)
C=c1c(=Cc2[n-]c(=O)[n-]c2O)cc(C)n1C(=O)N1CCc2c(C(=O)N3CCCCC3)cccc21 (3D coordinates assigned)
C=c1c(=Cc2[n-]c(=O)[n-]c2O)cc(C)n1C(=O)N1CCc2c(C(=O)N3CCCCC3)cccc21 (nonaromatic ring conformer: 159.02280002281438 kcal/mol)

>  <smiles>  (54) 
C=c1c(=Cc2[nH]c(=O)[nH]c2O)cc(C)n1C(=O)N1CCc2c(C(=O)N3CCCCC3)cccc21

>  <score_type>  (54) 
oracle

>  <origin>  (54) 
adg

>  <m_score__min__energy>  (54) 
-15.039999999999999

>  <m_primary>  (54) 
energy

$$$$
54:0
     RDKit          3D

 63 67  0  0  0  0  0  0  0  0999 V2000
   66.3240   33.4370   50.7390 C   0  0  0  0  0  0  0  0  0  0  0  0
   66.1460   32.0360   50.1780 C   0  0  0  0  0  0  0  0  0  0  0  0
   64.9160   31.9610   49.4680 O   0  0  0  0  0  0  0  0  0  0  0  0
   63.6750   31.8790   50.1060 C   0  0  0  0  0  0  0  0  0  0  0  0
   63.3330   30.9460   51.0150 N   0  0  0  0  0  0  0  0  0  0  0  0
   62.0740   31.2990   51.3510 C   0  0  0  0  0  0  0  0  0  0  0  0
   61.2190   30.5330   52.3080 C   0  0  0  0  0  0  0  0  0  0  0  0
   59.8900   30.6460   51.9420 F   0  0  0  0  0  0  0  0  0  0  0  0
   61.3870   31.0390   53.5820 F   0  0  0  0  0  0  0  0  0  0  0  0
   61.5750   29.1960   52.2980 F   0  0  0  0  0  0  0  0  0  0  0  0
   61.6530   32.3880   50.6700 N   0  0  0  0  0  0  0  0  0  0  0  0
   62.6640   32.7370   49.8910 N   0  0  0  0  0  0  0  0  0  0  0  0
   62.6750   33.9150   49.0300 C   0  0  0  0  0  0  0  0  0  0  0  0
   61.4400   33.9350   48.1750 C   0  0  0  0  0  0  0  0  0  0  0  0
   61.5230   33.6260   46.8080 C   0  0  0  0  0  0  0  0  0  0  0  0
   60.3710   33.6050   46.0180 C   0  0  0  0  0  0  0  0  0  0  0  0
   59.1160   33.8720   46.5870 C   0  0  0  0  0  0  0  0  0  0  0  0
   57.8810   33.8870   45.7280 C   0  0  0  0  0  0  0  0  0  0  0  0
   58.0730   33.0010   44.4950 C   0  0  0  0  0  0  0  0  0  0  0  0
   57.7850   31.5710   44.8290 C   0  0  0  0  0  0  0  0  0  0  0  0
   58.7130   30.8320   45.5110 N   0  0  0  0  0  0  0  0  0  0  0  0
   58.4050   29.5490   45.8210 C   0  0  0  0  0  0  0  0  0  0  0  0
   57.2150   28.9890   45.4970 C   0  0  0  0  0  0  0  0  0  0  0  0
   57.2600   27.7080   46.0060 C   0  0  0  0  0  0  0  0  0  0  0  0
   58.4590   27.5400   46.6200 N   0  0  0  0  0  0  0  0  0  0  0  0
   59.1610   28.6640   46.4920 N   0  0  0  0  0  0  0  0  0  0  0  0
   60.4780   28.9150   47.0910 C   0  0  0  0  0  0  0  0  0  0  0  0
   60.7640   27.9520   48.2660 C   0  0  0  0  0  0  0  0  0  0  0  0
   60.4000   28.5750   49.6250 C   0  0  0  0  0  0  0  0  0  0  0  0
   59.3180   29.4710   49.4900 O   0  0  0  0  0  0  0  0  0  0  0  0
   59.7300   30.6480   48.8130 C   0  0  0  0  0  0  0  0  0  0  0  0
   60.5810   30.3780   47.5480 C   0  0  0  0  0  0  0  0  0  0  0  0
   56.2610   29.7320   44.8190 C   0  0  0  0  0  0  0  0  0  0  0  0
   55.1420   29.2420   44.5120 O   0  0  0  0  0  0  0  0  0  0  0  0
   56.5680   31.0220   44.4980 N   0  0  0  0  0  0  0  0  0  0  0  0
   59.0330   34.1800   47.9540 C   0  0  0  0  0  0  0  0  0  0  0  0
   60.1850   34.2020   48.7440 C   0  0  0  0  0  0  0  0  0  0  0  0
   66.3187   33.3952   51.8382 H   0  0  0  0  0  0  0  0  0  0  0  0
   67.2821   33.8518   50.3924 H   0  0  0  0  0  0  0  0  0  0  0  0
   65.5001   34.0782   50.3924 H   0  0  0  0  0  0  0  0  0  0  0  0
   66.9776   31.8061   49.4956 H   0  0  0  0  0  0  0  0  0  0  0  0
   66.1369   31.3094   51.0038 H   0  0  0  0  0  0  0  0  0  0  0  0
   63.8980   30.1460   51.3760 H   0  0  0  0  0  0  0  0  0  0  0  0
   62.7024   34.8215   49.6525 H   0  0  0  0  0  0  0  0  0  0  0  0
   63.5634   33.8818   48.3822 H   0  0  0  0  0  0  0  0  0  0  0  0
   62.5002   33.3993   46.3566 H   0  0  0  0  0  0  0  0  0  0  0  0
   60.4479   33.3780   44.9444 H   0  0  0  0  0  0  0  0  0  0  0  0
   57.0286   33.5122   46.3135 H   0  0  0  0  0  0  0  0  0  0  0  0
   57.6907   34.9188   45.3977 H   0  0  0  0  0  0  0  0  0  0  0  0
   57.3882   33.3325   43.7005 H   0  0  0  0  0  0  0  0  0  0  0  0
   59.1158   33.0845   44.1550 H   0  0  0  0  0  0  0  0  0  0  0  0
   56.4631   26.9538   45.9280 H   0  0  0  0  0  0  0  0  0  0  0  0
   61.2415   28.7273   46.3217 H   0  0  0  0  0  0  0  0  0  0  0  0
   60.1722   27.0354   48.1258 H   0  0  0  0  0  0  0  0  0  0  0  0
   61.8420   27.7334   48.2708 H   0  0  0  0  0  0  0  0  0  0  0  0
   60.1205   27.7745   50.3258 H   0  0  0  0  0  0  0  0  0  0  0  0
   61.2716   29.1282   50.0049 H   0  0  0  0  0  0  0  0  0  0  0  0
   58.8317   31.2077   48.5133 H   0  0  0  0  0  0  0  0  0  0  0  0
   60.3655   31.2125   49.5112 H   0  0  0  0  0  0  0  0  0  0  0  0
   60.2278   31.0302   46.7357 H   0  0  0  0  0  0  0  0  0  0  0  0
   61.6329   30.5856   47.7936 H   0  0  0  0  0  0  0  0  0  0  0  0
   58.0556   34.4053   48.4056 H   0  0  0  0  0  0  0  0  0  0  0  0
   60.1081   34.4297   49.8174 H   0  0  0  0  0  0  0  0  0  0  0  0
  1  2  1  0
  2  3  1  0
  3  4  1  0
  4  5  2  0
  5  6  1  0
  6  7  1  0
  7  8  1  0
  7  9  1  0
  7 10  1  0
  6 11  2  0
 11 12  1  0
 12 13  1  0
 13 14  1  0
 14 15  2  0
 15 16  1  0
 16 17  2  0
 17 18  1  0
 18 19  1  0
 19 20  1  0
 20 21  2  0
 21 22  1  0
 22 23  2  0
 23 24  1  0
 24 25  2  0
 25 26  1  0
 26 27  1  0
 27 28  1  0
 28 29  1  0
 29 30  1  0
 30 31  1  0
 31 32  1  0
 23 33  1  0
 33 34  2  0
 33 35  1  0
 17 36  1  0
 36 37  2  0
 12  4  1  0
 37 14  1  0
 35 20  1  0
 26 22  1  0
 32 27  1  0
  1 38  1  0
  1 39  1  0
  1 40  1  0
  2 41  1  0
  2 42  1  0
  5 43  1  0
 13 44  1  0
 13 45  1  0
 15 46  1  0
 16 47  1  0
 18 48  1  0
 18 49  1  0
 19 50  1  0
 19 51  1  0
 24 52  1  0
 27 53  1  0
 28 54  1  0
 28 55  1  0
 29 56  1  0
 29 57  1  0
 31 58  1  0
 31 59  1  0
 32 60  1  0
 32 61  1  0
 36 62  1  0
 37 63  1  0
M  CHG  2   5   1  35  -1
M  END
>  <UniqueID>  (55) 
53

>  <SMILES>  (55) 
CCOc1[nH+]c(C(F)(F)F)nn1Cc1ccc(CCc2nc3c(cnn3C3CCOCC3)c(=O)[n-]2)cc1

>  <Energy>  (55) 
140.04811631293043

>  <Genealogy>  (55) 
CCOc1[nH+]c(C(F)(F)F)nn1Cc1ccc(CCc2nc3c(cnn3C3CCOCC3)c(=O)[n-]2)cc1 (protonated)
CCOc1[nH+]c(C(F)(F)F)nn1Cc1ccc(CCc2nc3c(cnn3C3CCOCC3)c(=O)[n-]2)cc1 (3D coordinates assigned)
CCOc1[nH+]c(C(F)(F)F)nn1Cc1ccc(CCc2nc3c(cnn3C3CCOCC3)c(=O)[n-]2)cc1 (nonaromatic ring conformer: 140.04811631293043 kcal/mol)

>  <smiles>  (55) 
CCOc1nc(C(F)(F)F)nn1Cc1ccc(CCc2nc3c(cnn3C3CCOCC3)c(=O)[nH]2)cc1

>  <score_type>  (55) 
oracle

>  <origin>  (55) 
adg

>  <m_score__min__energy>  (55) 
-8.8399999999999999

>  <m_primary>  (55) 
energy

$$$$
55:0
     RDKit          3D

 35 37  0  0  0  0  0  0  0  0999 V2000
   60.2208   26.1470   46.4565 H   0  0  0  0  0  0  0  0  0  0  0  0
   60.4850   27.2120   46.3790 C   0  0  0  0  0  0  0  0  0  0  0  0
   61.4071   27.5855   46.8482 H   0  0  0  0  0  0  0  0  0  0  0  0
   59.6810   28.0570   45.7110 C   0  0  0  0  0  0  0  0  0  0  0  0
   60.0730   29.4070   45.6470 C   0  0  0  0  0  0  0  0  0  0  0  0
   61.0966   29.6876   45.9358 H   0  0  0  0  0  0  0  0  0  0  0  0
   59.1860   30.3930   45.2240 C   0  0  0  0  0  0  0  0  0  0  0  0
   59.5199   31.4395   45.1654 H   0  0  0  0  0  0  0  0  0  0  0  0
   57.8730   30.0620   44.8730 C   0  0  0  0  0  0  0  0  0  0  0  0
   56.9110   31.1160   44.4700 C   0  0  0  0  0  0  0  0  0  0  0  0
   56.2670   30.9860   43.3950 O   0  0  0  0  0  0  0  0  0  0  0  0
   56.7260   32.3120   45.2400 N   0  0  0  0  0  0  0  0  0  0  0  0
   57.7450   33.2580   45.5950 C   0  0  0  0  0  0  0  0  0  0  0  0
   58.2820   34.1520   44.6490 C   0  0  0  0  0  0  0  0  0  0  0  0
   57.9121   34.1422   43.6131 H   0  0  0  0  0  0  0  0  0  0  0  0
   59.2840   35.0520   45.0230 C   0  0  0  0  0  0  0  0  0  0  0  0
   59.6909   35.7581   44.2842 H   0  0  0  0  0  0  0  0  0  0  0  0
   59.7700   35.0570   46.3330 C   0  0  0  0  0  0  0  0  0  0  0  0
   60.5553   35.7692   46.6264 H   0  0  0  0  0  0  0  0  0  0  0  0
   59.2570   34.1560   47.2700 C   0  0  0  0  0  0  0  0  0  0  0  0
   59.6433   34.1564   48.2999 H   0  0  0  0  0  0  0  0  0  0  0  0
   58.2540   33.2540   46.9020 C   0  0  0  0  0  0  0  0  0  0  0  0
   57.7660   32.3830   47.8200 F   0  0  0  0  0  0  0  0  0  0  0  0
   57.4910   28.7130   44.8580 C   0  0  0  0  0  0  0  0  0  0  0  0
   56.4598   28.4507   44.5791 H   0  0  0  0  0  0  0  0  0  0  0  0
   58.3970   27.6830   45.1920 C   0  0  0  0  0  0  0  0  0  0  0  0
   57.9830   26.4090   44.9740 C   0  0  0  0  0  0  0  0  0  0  0  0
   58.1895   25.9797   43.9825 H   0  0  0  0  0  0  0  0  0  0  0  0
   57.2810   25.5460   45.9450 C   0  0  0  0  0  0  0  0  0  0  0  0
   57.7790   24.4080   46.4660 N   0  0  0  0  0  0  0  0  0  0  0  0
   56.7490   23.9220   47.1920 C   0  0  0  0  0  0  0  0  0  0  0  0
   56.8310   22.8540   47.8540 O   0  0  0  0  0  0  0  0  0  0  0  0
   55.6220   24.6650   47.1470 N   0  0  0  0  0  0  0  0  0  0  0  0
   55.9730   25.6810   46.3430 C   0  0  0  0  0  0  0  0  0  0  0  0
   55.1140   26.7100   45.9780 O   0  0  0  0  0  0  0  0  0  0  0  0
  1  2  1  0
  2  3  1  0
  2  4  2  0
  4  5  1  0
  5  6  1  0
  5  7  2  0
  7  8  1  0
  7  9  1  0
  9 10  1  0
 10 11  2  0
 10 12  1  0
 12 13  1  0
 13 14  2  0
 14 15  1  0
 14 16  1  0
 16 17  1  0
 16 18  2  0
 18 19  1  0
 18 20  1  0
 20 21  1  0
 20 22  2  0
 22 23  1  0
  9 24  2  0
 24 25  1  0
 24 26  1  0
 26 27  2  0
 27 28  1  0
 27 29  1  0
 29 30  1  0
 30 31  1  0
 31 32  2  0
 31 33  1  0
 33 34  1  0
 34 35  1  0
 26  4  1  0
 34 29  2  0
 22 13  1  0
M  CHG  4  12  -1  30  -1  33  -1  35  -1
M  END
>  <UniqueID>  (56) 
54

>  <SMILES>  (56) 
C=c1ccc(C(=O)[N-]c2ccccc2F)c/c1=C/c1[n-]c(=O)[n-]c1[O-]

>  <Energy>  (56) 
94.45942375509321

>  <Genealogy>  (56) 
C=c1ccc(C(=O)[N-]c2ccccc2F)cc1=Cc1[n-]c(=O)[n-]c1[O-] (protonated)
C=c1ccc(C(=O)[N-]c2ccccc2F)c/c1=C/c1[n-]c(=O)[n-]c1[O-] (cis-trans isomerization)
C=c1ccc(C(=O)[N-]c2ccccc2F)c/c1=C/c1[n-]c(=O)[n-]c1[O-] (3D coordinates assigned)
C=c1ccc(C(=O)[N-]c2ccccc2F)c/c1=C/c1[n-]c(=O)[n-]c1[O-] (optimized conformer: 94.45942375509321 kcal/mol)

>  <smiles>  (56) 
C=c1ccc(C(=O)Nc2ccccc2F)cc1=Cc1[nH]c(=O)[nH]c1O

>  <score_type>  (56) 
oracle

>  <origin>  (56) 
adg

>  <m_score__min__energy>  (56) 
-17.550000000000001

>  <m_primary>  (56) 
energy

$$$$
56:0
     RDKit          3D

 26 27  0  0  0  0  0  0  0  0999 V2000
   58.5564   25.3348   46.2822 H   0  0  0  0  0  0  0  0  0  0  0  0
   58.9740   26.2450   45.8270 C   0  0  0  0  0  0  0  0  0  0  0  0
   60.0552   26.3195   45.6386 H   0  0  0  0  0  0  0  0  0  0  0  0
   58.1680   27.2600   45.5030 C   0  0  0  0  0  0  0  0  0  0  0  0
   56.7840   27.3390   45.6930 C   0  0  0  0  0  0  0  0  0  0  0  0
   55.8500   26.3430   46.2680 C   0  0  0  0  0  0  0  0  0  0  0  0
   56.2730   25.4910   47.0950 O   0  0  0  0  0  0  0  0  0  0  0  0
   54.5060   26.3290   45.9220 O   0  0  0  0  0  0  0  0  0  0  0  0
   56.4280   28.5920   45.2240 C   0  0  0  0  0  0  0  0  0  0  0  0
   55.1450   29.1280   45.2140 O   0  0  0  0  0  0  0  0  0  0  0  0
   57.5700   29.2160   44.7620 C   0  0  0  0  0  0  0  0  0  0  0  0
   57.6130   30.4610   44.2560 C   0  0  0  0  0  0  0  0  0  0  0  0
   57.4003   30.5831   43.1837 H   0  0  0  0  0  0  0  0  0  0  0  0
   57.9250   31.6770   45.0350 C   0  0  0  0  0  0  0  0  0  0  0  0
   57.0280   33.1040   45.0550 S   0  0  0  0  0  0  0  0  0  0  0  0
   57.8920   33.8680   46.2760 C   0  0  0  0  0  0  0  0  0  0  0  0
   57.7031   34.8795   46.6649 H   0  0  0  0  0  0  0  0  0  0  0  0
   58.8860   33.0010   46.7090 C   0  0  0  0  0  0  0  0  0  0  0  0
   59.5932   33.2513   47.5135 H   0  0  0  0  0  0  0  0  0  0  0  0
   58.9050   31.7750   46.0250 C   0  0  0  0  0  0  0  0  0  0  0  0
   59.8550   30.6690   46.3700 C   0  0  0  0  0  0  0  0  0  0  0  0
   59.9319   30.5795   47.4637 H   0  0  0  0  0  0  0  0  0  0  0  0
   59.4840   29.7225   45.9498 H   0  0  0  0  0  0  0  0  0  0  0  0
   60.8466   30.8930   45.9498 H   0  0  0  0  0  0  0  0  0  0  0  0
   58.6310   28.3990   44.9420 N   0  0  0  0  0  0  0  0  0  0  0  0
   59.6340   28.6100   44.7460 H   0  0  0  0  0  0  0  0  0  0  0  0
  1  2  1  0
  2  3  1  0
  2  4  2  0
  4  5  1  0
  5  6  1  0
  6  7  2  0
  6  8  1  0
  5  9  2  0
  9 10  1  0
  9 11  1  0
 11 12  2  0
 12 13  1  0
 12 14  1  0
 14 15  1  0
 15 16  1  0
 16 17  1  0
 16 18  2  0
 18 19  1  0
 18 20  1  0
 20 21  1  0
 21 22  1  0
 21 23  1  0
 21 24  1  0
 11 25  1  0
 25 26  1  0
 25  4  1  0
 20 14  2  0
M  CHG  2   8  -1  10  -1
M  END
>  <UniqueID>  (57) 
55

>  <SMILES>  (57) 
C=c1[nH]/c(=C\c2sccc2C)c([O-])c1C(=O)[O-]

>  <Energy>  (57) 
86.88952891170258

>  <Genealogy>  (57) 
C=c1[nH]c(=Cc2sccc2C)c([O-])c1C(=O)[O-] (protonated)
C=c1[nH]/c(=C\c2sccc2C)c([O-])c1C(=O)[O-] (cis-trans isomerization)
C=c1[nH]/c(=C\c2sccc2C)c([O-])c1C(=O)[O-] (3D coordinates assigned)
C=c1[nH]/c(=C\c2sccc2C)c([O-])c1C(=O)[O-] (optimized conformer: 86.88952891170258 kcal/mol)

>  <smiles>  (57) 
C=c1[nH]c(=Cc2sccc2C)c(O)c1C(=O)O

>  <score_type>  (57) 
oracle

>  <origin>  (57) 
adg

>  <m_score__min__energy>  (57) 
-13.35

>  <m_primary>  (57) 
energy

$$$$
57:0
     RDKit          3D

 31 33  0  0  0  0  0  0  0  0999 V2000
   59.6310   35.9110   46.2910 N   0  0  0  0  0  0  0  0  0  0  0  0
   59.6790   34.2830   46.8680 S   0  0  0  0  0  0  0  0  0  0  0  0
   61.1040   33.8890   47.1430 O   0  0  0  0  0  0  0  0  0  0  0  0
   58.8960   34.1820   48.1460 O   0  0  0  0  0  0  0  0  0  0  0  0
   58.9850   33.2100   45.6560 C   0  0  0  0  0  0  0  0  0  0  0  0
   58.5880   33.7160   44.4130 C   0  0  0  0  0  0  0  0  0  0  0  0
   58.0220   32.8700   43.4590 C   0  0  0  0  0  0  0  0  0  0  0  0
   57.8480   31.5120   43.7400 C   0  0  0  0  0  0  0  0  0  0  0  0
   58.2450   30.9840   44.9820 C   0  0  0  0  0  0  0  0  0  0  0  0
   58.0560   29.5890   45.2890 N   0  0  0  0  0  0  0  0  0  0  0  0
   59.1350   28.6450   45.6110 C   0  0  0  0  0  0  0  0  0  0  0  0
   58.4050   27.3850   45.9810 C   0  0  0  0  0  0  0  0  0  0  0  0
   58.9430   26.1610   46.3860 C   0  0  0  0  0  0  0  0  0  0  0  0
   60.3170   25.9930   46.5060 O   0  0  0  0  0  0  0  0  0  0  0  0
   58.0650   25.1000   46.6690 C   0  0  0  0  0  0  0  0  0  0  0  0
   56.6720   25.2740   46.5420 C   0  0  0  0  0  0  0  0  0  0  0  0
   56.1480   26.5110   46.1300 C   0  0  0  0  0  0  0  0  0  0  0  0
   54.7770   26.6910   46.0000 O   0  0  0  0  0  0  0  0  0  0  0  0
   57.0420   27.5480   45.8580 C   0  0  0  0  0  0  0  0  0  0  0  0
   56.8100   28.9020   45.4200 C   0  0  0  0  0  0  0  0  0  0  0  0
   55.6860   29.3920   45.1300 O   0  0  0  0  0  0  0  0  0  0  0  0
   58.8020   31.8490   45.9410 C   0  0  0  0  0  0  0  0  0  0  0  0
   59.2790   36.5030   47.0780 H   0  0  0  0  0  0  0  0  0  0  0  0
   58.7227   34.7842   44.1875 H   0  0  0  0  0  0  0  0  0  0  0  0
   57.7120   33.2726   42.4834 H   0  0  0  0  0  0  0  0  0  0  0  0
   57.3974   30.8514   42.9846 H   0  0  0  0  0  0  0  0  0  0  0  0
   59.7855   28.4802   44.7394 H   0  0  0  0  0  0  0  0  0  0  0  0
   59.7943   29.0077   46.4133 H   0  0  0  0  0  0  0  0  0  0  0  0
   58.4675   24.1284   46.9914 H   0  0  0  0  0  0  0  0  0  0  0  0
   55.9927   24.4384   46.7662 H   0  0  0  0  0  0  0  0  0  0  0  0
   59.0970   31.4541   46.9244 H   0  0  0  0  0  0  0  0  0  0  0  0
  1  2  1  0
  2  3  2  0
  2  4  2  0
  2  5  1  0
  5  6  2  0
  6  7  1  0
  7  8  2  0
  8  9  1  0
  9 10  1  0
 10 11  1  0
 11 12  1  0
 12 13  2  0
 13 14  1  0
 13 15  1  0
 15 16  2  0
 16 17  1  0
 17 18  1  0
 17 19  2  0
 19 20  1  0
 20 21  2  0
  9 22  2  0
 22  5  1  0
 20 10  1  0
 19 12  1  0
  1 23  1  0
  6 24  1  0
  7 25  1  0
  8 26  1  0
 11 27  1  0
 11 28  1  0
 15 29  1  0
 16 30  1  0
 22 31  1  0
M  CHG  3   1  -1  14  -1  18  -1
M  END
>  <UniqueID>  (58) 
56

>  <SMILES>  (58) 
[NH-]S(=O)(=O)c1cccc(N2Cc3c([O-])ccc([O-])c3C2=O)c1

>  <Energy>  (58) 
59.44411893189756

>  <Genealogy>  (58) 
[NH-]S(=O)(=O)c1cccc(N2Cc3c([O-])ccc([O-])c3C2=O)c1 (protonated)
[NH-]S(=O)(=O)c1cccc(N2Cc3c([O-])ccc([O-])c3C2=O)c1 (3D coordinates assigned)
[NH-]S(=O)(=O)c1cccc(N2Cc3c([O-])ccc([O-])c3C2=O)c1 (nonaromatic ring conformer: 59.44411893189756 kcal/mol)

>  <smiles>  (58) 
NS(=O)(=O)c1cccc(N2Cc3c(O)ccc(O)c3C2=O)c1

>  <score_type>  (58) 
oracle

>  <origin>  (58) 
adg

>  <m_score__min__energy>  (58) 
-13.970000000000001

>  <m_primary>  (58) 
energy

$$$$
58:0
     RDKit          3D

 81 85  0  0  1  0  0  0  0  0999 V2000
   51.6100   30.9230   53.0000 C   0  0  0  0  0  0  0  0  0  0  0  0
   52.0760   29.9130   52.0760 N   0  0  0  0  0  0  0  0  0  0  0  0
   52.8440   28.8630   52.7340 C   0  0  0  0  0  0  0  0  0  0  0  0
   53.9220   29.5820   53.5250 C   0  0  0  0  0  0  0  0  0  0  0  0
   54.8160   30.1970   52.5910 N   0  0  0  0  0  0  0  0  0  0  0  0
   55.9220   30.7530   53.2960 C   0  0  0  0  0  0  0  0  0  0  0  0
   57.0130   31.2520   52.4160 C   0  0  0  0  0  0  0  0  0  0  0  0
   57.6740   32.4360   52.7450 C   0  0  0  0  0  0  0  0  0  0  0  0
   58.7000   32.9170   51.9210 C   0  0  0  0  0  0  0  0  0  0  0  0
   59.0610   32.2210   50.7830 C   0  0  0  0  0  0  0  0  0  0  0  0
   58.4150   31.0510   50.4500 C   0  0  0  0  0  0  0  0  0  0  0  0
   58.7220   30.2780   49.3000 N   0  0  0  0  0  0  0  0  0  0  0  0
   59.3730   29.0120   49.3760 C   0  0  0  0  0  0  0  0  0  0  0  0
   59.6630   28.6160   50.5570 O   0  0  0  0  0  0  0  0  0  0  0  0
   59.6860   28.2210   48.2050 C   0  0  0  0  0  0  0  0  0  0  0  0
   60.4950   27.1070   48.2150 C   0  0  0  0  0  0  0  0  0  0  0  0
   60.7740   26.3710   47.0640 C   0  0  0  0  0  0  0  0  0  0  0  0
   60.1980   26.8060   45.8770 C   0  0  0  0  0  0  0  0  0  0  0  0
   59.3780   27.9230   45.8180 C   0  0  0  0  0  0  0  0  0  0  0  0
   58.8320   28.2860   44.5660 N   0  0  0  0  0  0  0  0  0  0  0  0
   58.1230   29.3570   44.4630 C   0  0  0  0  0  0  0  0  0  0  0  0
   56.9740   29.4370   43.7040 C   0  0  0  0  0  0  0  0  0  0  0  0
   56.3210   30.6640   43.6910 C   0  0  0  0  0  0  0  0  0  0  0  0
   56.8130   31.7100   44.4000 N   0  0  0  0  0  0  0  0  0  0  0  0
   57.9340   31.6180   45.1350 C   0  0  0  0  0  0  0  0  0  0  0  0
   58.4760   32.6900   45.8870 N   0  0  0  0  0  0  0  0  0  0  0  0
   57.9300   32.9550   47.2220 C   0  0  0  0  0  0  0  0  0  0  0  0
   58.9100   33.8180   47.9920 C   0  0  0  0  0  0  0  0  0  0  0  0
   60.2830   33.1800   47.7960 C   0  0  0  0  0  0  0  0  0  0  0  0
   61.2840   33.6980   48.7440 C   0  0  0  0  0  0  0  0  0  0  0  0
   60.8560   34.5980   49.5560 O   0  0  0  0  0  0  0  0  0  0  0  0
   62.6250   33.3150   48.8460 N   0  0  0  0  0  0  0  0  0  0  0  0
   63.3160   32.3460   48.0460 C   0  0  0  0  0  0  0  0  0  0  0  0
   63.4340   33.9780   49.8840 C   0  0  0  0  0  0  0  0  0  0  0  0
   60.7280   33.2870   46.3810 C   0  0  0  0  0  0  0  0  0  0  0  0
   59.5350   33.5550   45.4440 C   0  0  0  0  0  0  0  0  0  0  0  0
   58.5600   30.4300   45.1430 N   0  0  0  0  0  0  0  0  0  0  0  0
   59.1460   28.6010   46.9930 C   0  0  0  0  0  0  0  0  0  0  0  0
   57.4080   30.5910   51.2690 C   0  0  0  0  0  0  0  0  0  0  0  0
   54.2140   31.0760   51.6420 C   0  0  0  0  0  0  0  0  0  0  0  0
   52.9510   30.4790   51.0710 C   0  0  0  0  0  0  0  0  0  0  0  0
   51.7695   30.5774   54.0320 H   0  0  0  0  0  0  0  0  0  0  0  0
   52.1686   31.8562   52.8354 H   0  0  0  0  0  0  0  0  0  0  0  0
   50.5375   31.1037   52.8354 H   0  0  0  0  0  0  0  0  0  0  0  0
   52.1986   28.2792   53.4068 H   0  0  0  0  0  0  0  0  0  0  0  0
   53.2737   28.1567   52.0083 H   0  0  0  0  0  0  0  0  0  0  0  0
   53.4654   30.3499   54.1667 H   0  0  0  0  0  0  0  0  0  0  0  0
   54.4656   28.8719   54.1655 H   0  0  0  0  0  0  0  0  0  0  0  0
   55.5569   31.5936   53.9044 H   0  0  0  0  0  0  0  0  0  0  0  0
   56.3502   29.9432   53.9049 H   0  0  0  0  0  0  0  0  0  0  0  0
   57.3897   32.9915   53.6509 H   0  0  0  0  0  0  0  0  0  0  0  0
   59.2196   33.8512   52.1806 H   0  0  0  0  0  0  0  0  0  0  0  0
   59.8678   32.6031   50.1403 H   0  0  0  0  0  0  0  0  0  0  0  0
   58.4500   30.6790   48.3760 H   0  0  0  0  0  0  0  0  0  0  0  0
   60.9388   26.7849   49.1686 H   0  0  0  0  0  0  0  0  0  0  0  0
   61.4229   25.4833   47.0946 H   0  0  0  0  0  0  0  0  0  0  0  0
   60.3992   26.2453   44.9522 H   0  0  0  0  0  0  0  0  0  0  0  0
   56.5939   28.5738   43.1379 H   0  0  0  0  0  0  0  0  0  0  0  0
   55.4000   30.7872   43.1023 H   0  0  0  0  0  0  0  0  0  0  0  0
   56.2860   32.6080   44.3570 H   0  0  0  0  0  0  0  0  0  0  0  0
   56.9684   33.4811   47.1297 H   0  0  0  0  0  0  0  0  0  0  0  0
   57.7717   32.0057   47.7546 H   0  0  0  0  0  0  0  0  0  0  0  0
   58.9065   34.8446   47.5970 H   0  0  0  0  0  0  0  0  0  0  0  0
   58.6427   33.8757   49.0575 H   0  0  0  0  0  0  0  0  0  0  0  0
   60.1818   32.1087   48.0244 H   0  0  0  0  0  0  0  0  0  0  0  0
   63.8286   31.6272   48.7022 H   0  0  0  0  0  0  0  0  0  0  0  0
   62.5935   31.8123   47.4111 H   0  0  0  0  0  0  0  0  0  0  0  0
   64.0560   32.8552   47.4111 H   0  0  0  0  0  0  0  0  0  0  0  0
   63.0703   33.6799   50.8784 H   0  0  0  0  0  0  0  0  0  0  0  0
   64.4871   33.6798   49.7742 H   0  0  0  0  0  0  0  0  0  0  0  0
   63.3485   35.0692   49.7742 H   0  0  0  0  0  0  0  0  0  0  0  0
   61.4477   34.1142   46.2921 H   0  0  0  0  0  0  0  0  0  0  0  0
   61.1955   32.3352   46.0885 H   0  0  0  0  0  0  0  0  0  0  0  0
   59.2229   34.6074   45.5152 H   0  0  0  0  0  0  0  0  0  0  0  0
   59.7984   33.3613   44.3937 H   0  0  0  0  0  0  0  0  0  0  0  0
   58.4982   29.4896   46.9648 H   0  0  0  0  0  0  0  0  0  0  0  0
   56.8956   29.6561   50.9980 H   0  0  0  0  0  0  0  0  0  0  0  0
   53.9692   32.0267   52.1382 H   0  0  0  0  0  0  0  0  0  0  0  0
   54.9250   31.2404   50.8190 H   0  0  0  0  0  0  0  0  0  0  0  0
   52.4028   31.2689   50.5366 H   0  0  0  0  0  0  0  0  0  0  0  0
   53.2531   29.6578   50.4044 H   0  0  0  0  0  0  0  0  0  0  0  0
  1  2  1  0
  2  3  1  0
  3  4  1  0
  4  5  1  0
  5  6  1  0
  6  7  1  0
  7  8  2  0
  8  9  1  0
  9 10  2  0
 10 11  1  0
 11 12  1  0
 12 13  1  0
 13 14  2  0
 13 15  1  0
 15 16  2  0
 16 17  1  0
 17 18  2  0
 18 19  1  0
 19 20  1  0
 20 21  2  0
 21 22  1  0
 22 23  2  0
 23 24  1  0
 24 25  1  0
 25 26  1  0
 26 27  1  0
 27 28  1  0
 28 29  1  0
 29 30  1  0
 30 31  2  0
 30 32  1  0
 32 33  1  0
 32 34  1  0
 29 35  1  0
 35 36  1  0
 25 37  2  0
 19 38  2  0
 11 39  2  0
  5 40  1  0
 40 41  1  0
 41  2  1  0
 39  7  1  0
 38 15  1  0
 37 21  1  0
 36 26  1  0
  1 42  1  0
  1 43  1  0
  1 44  1  0
  3 45  1  0
  3 46  1  0
  4 47  1  0
  4 48  1  0
  6 49  1  0
  6 50  1  0
  8 51  1  0
  9 52  1  0
 10 53  1  0
 12 54  1  0
 16 55  1  0
 17 56  1  0
 18 57  1  0
 22 58  1  0
 23 59  1  0
 24 60  1  0
 27 61  1  0
 27 62  1  0
 28 63  1  0
 28 64  1  0
 29 65  1  0
 33 66  1  0
 33 67  1  0
 33 68  1  0
 34 69  1  0
 34 70  1  0
 34 71  1  0
 35 72  1  0
 35 73  1  0
 36 74  1  0
 36 75  1  0
 38 76  1  0
 39 77  1  0
 40 78  1  0
 40 79  1  0
 41 80  1  0
 41 81  1  0
M  END
>  <smiles>  (59) 
CN1CCN(Cc2cccc(NC(=O)c3cccc(N=c4cc[nH]c(N5CCC(C(=O)N(C)C)CC5)n4)c3)c2)CC1

>  <score_type>  (59) 
oracle

>  <origin>  (59) 
adg

>  <m_score__min__energy>  (59) 
-11.33

>  <m_primary>  (59) 
energy

$$$$
59:0
     RDKit          3D

 52 54  0  0  0  0  0  0  0  0999 V2000
   59.2410   34.1710   53.5010 C   0  0  0  0  0  0  0  0  0  0  0  0
   59.1800   34.4150   52.0990 O   0  0  0  0  0  0  0  0  0  0  0  0
   59.3130   33.4240   51.1120 C   0  0  0  0  0  0  0  0  0  0  0  0
   60.3580   33.4460   50.1680 C   0  0  0  0  0  0  0  0  0  0  0  0
   60.4630   32.4400   49.2070 C   0  0  0  0  0  0  0  0  0  0  0  0
   59.5320   31.3920   49.1700 C   0  0  0  0  0  0  0  0  0  0  0  0
   59.6690   30.3050   48.1800 C   0  0  0  0  0  0  0  0  0  0  0  0
   59.0330   29.1170   48.2850 N   0  0  0  0  0  0  0  0  0  0  0  0
   59.4080   28.4600   47.1710 C   0  0  0  0  0  0  0  0  0  0  0  0
   58.8780   27.1120   46.7880 C   0  0  0  0  0  0  0  0  0  0  0  0
   57.1740   27.2140   46.1170 S   0  0  0  0  0  0  0  0  0  0  0  0
   57.4610   28.4840   44.8280 C   0  0  0  0  0  0  0  0  0  0  0  0
   56.3080   29.4300   44.7180 C   0  0  0  0  0  0  0  0  0  0  0  0
   55.1460   28.9810   44.5330 O   0  0  0  0  0  0  0  0  0  0  0  0
   56.5300   30.8360   44.8610 N   0  0  0  0  0  0  0  0  0  0  0  0
   57.5370   31.5800   44.1160 C   0  0  0  0  0  0  0  0  0  0  0  0
   58.0670   32.7010   44.9660 C   0  0  0  0  0  0  0  0  0  0  0  0
   57.7920   32.7300   46.3430 C   0  0  0  0  0  0  0  0  0  0  0  0
   58.3250   33.7410   47.1480 C   0  0  0  0  0  0  0  0  0  0  0  0
   59.1440   34.7260   46.5860 C   0  0  0  0  0  0  0  0  0  0  0  0
   59.6600   35.7060   47.3690 F   0  0  0  0  0  0  0  0  0  0  0  0
   59.4270   34.7000   45.2160 C   0  0  0  0  0  0  0  0  0  0  0  0
   58.8960   33.6880   44.4080 C   0  0  0  0  0  0  0  0  0  0  0  0
   60.2520   29.2660   46.4380 C   0  0  0  0  0  0  0  0  0  0  0  0
   60.8900   28.9550   45.1230 C   0  0  0  0  0  0  0  0  0  0  0  0
   60.3960   30.3950   47.0860 O   0  0  0  0  0  0  0  0  0  0  0  0
   58.4850   31.3710   50.1050 C   0  0  0  0  0  0  0  0  0  0  0  0
   58.3710   32.3850   51.0790 C   0  0  0  0  0  0  0  0  0  0  0  0
   57.3400   32.3910   52.0310 O   0  0  0  0  0  0  0  0  0  0  0  0
   56.5230   31.2660   52.3430 C   0  0  0  0  0  0  0  0  0  0  0  0
   59.0091   35.0985   54.0450 H   0  0  0  0  0  0  0  0  0  0  0  0
   58.5092   33.3952   53.7703 H   0  0  0  0  0  0  0  0  0  0  0  0
   60.2518   33.8309   53.7703 H   0  0  0  0  0  0  0  0  0  0  0  0
   61.0960   34.2614   50.1885 H   0  0  0  0  0  0  0  0  0  0  0  0
   61.2819   32.4691   48.4731 H   0  0  0  0  0  0  0  0  0  0  0  0
   59.5363   26.6752   46.0226 H   0  0  0  0  0  0  0  0  0  0  0  0
   58.8520   26.4859   47.6921 H   0  0  0  0  0  0  0  0  0  0  0  0
   58.3665   29.0537   45.0840 H   0  0  0  0  0  0  0  0  0  0  0  0
   57.5780   27.9718   43.8616 H   0  0  0  0  0  0  0  0  0  0  0  0
   58.3623   30.9061   43.8426 H   0  0  0  0  0  0  0  0  0  0  0  0
   57.0837   31.9958   43.2040 H   0  0  0  0  0  0  0  0  0  0  0  0
   57.1541   31.9534   46.7902 H   0  0  0  0  0  0  0  0  0  0  0  0
   58.1001   33.7620   48.2246 H   0  0  0  0  0  0  0  0  0  0  0  0
   60.0681   35.4764   44.7731 H   0  0  0  0  0  0  0  0  0  0  0  0
   59.1285   33.6656   43.3331 H   0  0  0  0  0  0  0  0  0  0  0  0
   61.8669   28.4788   45.2929 H   0  0  0  0  0  0  0  0  0  0  0  0
   60.2428   28.2713   44.5540 H   0  0  0  0  0  0  0  0  0  0  0  0
   61.0299   29.8860   44.5540 H   0  0  0  0  0  0  0  0  0  0  0  0
   57.7466   30.5562   50.0778 H   0  0  0  0  0  0  0  0  0  0  0  0
   56.4462   31.1603   53.4352 H   0  0  0  0  0  0  0  0  0  0  0  0
   55.5193   31.4124   51.9173 H   0  0  0  0  0  0  0  0  0  0  0  0
   56.9728   30.3569   51.9173 H   0  0  0  0  0  0  0  0  0  0  0  0
  1  2  1  0
  2  3  1  0
  3  4  2  0
  4  5  1  0
  5  6  2  0
  6  7  1  0
  7  8  2  0
  8  9  1  0
  9 10  1  0
 10 11  1  0
 11 12  1  0
 12 13  1  0
 13 14  2  0
 13 15  1  0
 15 16  1  0
 16 17  1  0
 17 18  2  0
 18 19  1  0
 19 20  2  0
 20 21  1  0
 20 22  1  0
 22 23  2  0
  9 24  2  0
 24 25  1  0
 24 26  1  0
  6 27  1  0
 27 28  2  0
 28 29  1  0
 29 30  1  0
 28  3  1  0
 26  7  1  0
 23 17  1  0
  1 31  1  0
  1 32  1  0
  1 33  1  0
  4 34  1  0
  5 35  1  0
 10 36  1  0
 10 37  1  0
 12 38  1  0
 12 39  1  0
 16 40  1  0
 16 41  1  0
 18 42  1  0
 19 43  1  0
 22 44  1  0
 23 45  1  0
 25 46  1  0
 25 47  1  0
 25 48  1  0
 27 49  1  0
 30 50  1  0
 30 51  1  0
 30 52  1  0
M  CHG  1  15  -1
M  END
>  <UniqueID>  (60) 
57

>  <SMILES>  (60) 
COc1ccc(-c2nc(CSCC(=O)[N-]Cc3ccc(F)cc3)c(C)o2)cc1OC

>  <Energy>  (60) 
73.46117420931289

>  <Genealogy>  (60) 
COc1ccc(-c2nc(CSCC(=O)[N-]Cc3ccc(F)cc3)c(C)o2)cc1OC (protonated)
COc1ccc(-c2nc(CSCC(=O)[N-]Cc3ccc(F)cc3)c(C)o2)cc1OC (3D coordinates assigned)
COc1ccc(-c2nc(CSCC(=O)[N-]Cc3ccc(F)cc3)c(C)o2)cc1OC (optimized conformer: 73.46117420931289 kcal/mol)

>  <smiles>  (60) 
COc1ccc(-c2nc(CSCC(=O)NCc3ccc(F)cc3)c(C)o2)cc1OC

>  <score_type>  (60) 
oracle

>  <origin>  (60) 
adg

>  <m_score__min__energy>  (60) 
-9.8499999999999996

>  <m_primary>  (60) 
energy

$$$$
60:0
     RDKit          3D

 54 56  0  0  0  0  0  0  0  0999 V2000
   58.0880   27.9700   46.8190 C   0  0  0  0  0  0  0  0  0  0  0  0
   56.8420   27.7690   45.5590 S   0  0  0  0  0  0  0  0  0  0  0  0
   55.8080   26.7690   45.9990 O   0  0  0  0  0  0  0  0  0  0  0  0
   57.4980   27.2630   44.3060 O   0  0  0  0  0  0  0  0  0  0  0  0
   56.0860   29.2920   45.2160 N   0  0  0  0  0  0  0  0  0  0  0  0
   56.6720   30.3770   44.4820 C   0  0  0  0  0  0  0  0  0  0  0  0
   57.1240   31.5500   45.1150 C   0  0  0  0  0  0  0  0  0  0  0  0
   57.6920   32.5970   44.3690 C   0  0  0  0  0  0  0  0  0  0  0  0
   58.1790   33.8370   45.0210 C   0  0  0  0  0  0  0  0  0  0  0  0
   57.3430   34.5960   45.5840 O   0  0  0  0  0  0  0  0  0  0  0  0
   59.6440   34.2170   45.0370 C   0  0  0  0  0  0  0  0  0  0  0  0
   60.1780   34.4330   46.3980 N   0  0  0  0  0  0  0  0  0  0  0  0
   59.2040   34.1980   47.4940 C   0  0  0  0  0  0  0  0  0  0  0  0
   59.7900   33.3910   48.6550 C   0  0  0  0  0  0  0  0  0  0  0  0
   60.5400   32.2500   48.1250 N   0  0  0  0  0  0  0  0  0  0  0  0
   60.2840   30.9040   48.5650 C   0  0  0  0  0  0  0  0  0  0  0  0
   61.2470   30.0970   48.6830 O   0  0  0  0  0  0  0  0  0  0  0  0
   58.8870   30.4490   48.8980 C   0  0  0  0  0  0  0  0  0  0  0  0
   58.5330   30.7490   50.3320 C   0  0  0  0  0  0  0  0  0  0  0  0
   57.8080   31.9100   50.6520 C   0  0  0  0  0  0  0  0  0  0  0  0
   57.4620   32.1800   51.9800 C   0  0  0  0  0  0  0  0  0  0  0  0
   57.8340   31.2940   52.9950 C   0  0  0  0  0  0  0  0  0  0  0  0
   58.5510   30.1350   52.6840 C   0  0  0  0  0  0  0  0  0  0  0  0
   58.8970   29.8590   51.3580 C   0  0  0  0  0  0  0  0  0  0  0  0
   61.5950   32.4900   47.1370 C   0  0  0  0  0  0  0  0  0  0  0  0
   61.5570   33.9350   46.6110 C   0  0  0  0  0  0  0  0  0  0  0  0
   57.8310   32.4440   42.9790 C   0  0  0  0  0  0  0  0  0  0  0  0
   57.3910   31.2810   42.3480 C   0  0  0  0  0  0  0  0  0  0  0  0
   56.8110   30.2490   43.0920 C   0  0  0  0  0  0  0  0  0  0  0  0
   56.3750   29.0860   42.4580 O   0  0  0  0  0  0  0  0  0  0  0  0
   57.6208   27.8946   47.8120 H   0  0  0  0  0  0  0  0  0  0  0  0
   58.8489   27.1830   46.7111 H   0  0  0  0  0  0  0  0  0  0  0  0
   58.5628   28.9564   46.7111 H   0  0  0  0  0  0  0  0  0  0  0  0
   57.0316   31.6485   46.2067 H   0  0  0  0  0  0  0  0  0  0  0  0
   60.2192   33.4094   44.5605 H   0  0  0  0  0  0  0  0  0  0  0  0
   59.7390   35.1696   44.4952 H   0  0  0  0  0  0  0  0  0  0  0  0
   58.8684   35.1722   47.8790 H   0  0  0  0  0  0  0  0  0  0  0  0
   58.3727   33.6126   47.0742 H   0  0  0  0  0  0  0  0  0  0  0  0
   60.4634   34.0312   49.2438 H   0  0  0  0  0  0  0  0  0  0  0  0
   58.9749   33.0279   49.2983 H   0  0  0  0  0  0  0  0  0  0  0  0
   58.1758   30.9680   48.2386 H   0  0  0  0  0  0  0  0  0  0  0  0
   58.8356   29.3600   48.7514 H   0  0  0  0  0  0  0  0  0  0  0  0
   57.5118   32.6084   49.8554 H   0  0  0  0  0  0  0  0  0  0  0  0
   56.8964   33.0908   52.2260 H   0  0  0  0  0  0  0  0  0  0  0  0
   57.5624   31.5088   54.0391 H   0  0  0  0  0  0  0  0  0  0  0  0
   58.8434   29.4390   53.4840 H   0  0  0  0  0  0  0  0  0  0  0  0
   59.4557   28.9428   51.1165 H   0  0  0  0  0  0  0  0  0  0  0  0
   62.5727   32.3061   47.6063 H   0  0  0  0  0  0  0  0  0  0  0  0
   61.4339   31.8094   46.2880 H   0  0  0  0  0  0  0  0  0  0  0  0
   62.0575   34.5880   47.3412 H   0  0  0  0  0  0  0  0  0  0  0  0
   62.0670   33.9459   45.6364 H   0  0  0  0  0  0  0  0  0  0  0  0
   58.2902   33.2475   42.3844 H   0  0  0  0  0  0  0  0  0  0  0  0
   57.5008   31.1748   41.2587 H   0  0  0  0  0  0  0  0  0  0  0  0
   56.2390   28.2210   42.9690 H   0  0  0  0  0  0  0  0  0  0  0  0
  1  2  1  0
  2  3  2  0
  2  4  2  0
  2  5  1  0
  5  6  1  0
  6  7  2  0
  7  8  1  0
  8  9  1  0
  9 10  2  0
  9 11  1  0
 11 12  1  0
 12 13  1  0
 13 14  1  0
 14 15  1  0
 15 16  1  0
 16 17  2  0
 16 18  1  0
 18 19  1  0
 19 20  2  0
 20 21  1  0
 21 22  2  0
 22 23  1  0
 23 24  2  0
 15 25  1  0
 25 26  1  0
  8 27  2  0
 27 28  1  0
 28 29  2  0
 29 30  1  0
 29  6  1  0
 26 12  1  0
 24 19  1  0
  1 31  1  0
  1 32  1  0
  1 33  1  0
  7 34  1  0
 11 35  1  0
 11 36  1  0
 13 37  1  0
 13 38  1  0
 14 39  1  0
 14 40  1  0
 18 41  1  0
 18 42  1  0
 20 43  1  0
 21 44  1  0
 22 45  1  0
 23 46  1  0
 24 47  1  0
 25 48  1  0
 25 49  1  0
 26 50  1  0
 26 51  1  0
 27 52  1  0
 28 53  1  0
 30 54  1  0
M  CHG  1   5  -1
M  END
>  <UniqueID>  (61) 
58

>  <SMILES>  (61) 
CS(=O)(=O)[N-]c1cc(C(=O)CN2CCN(C(=O)Cc3ccccc3)CC2)ccc1O

>  <Energy>  (61) 
68.42816798524906

>  <Genealogy>  (61) 
CS(=O)(=O)[N-]c1cc(C(=O)CN2CCN(C(=O)Cc3ccccc3)CC2)ccc1O (protonated)
CS(=O)(=O)[N-]c1cc(C(=O)CN2CCN(C(=O)Cc3ccccc3)CC2)ccc1O (3D coordinates assigned)
CS(=O)(=O)[N-]c1cc(C(=O)CN2CCN(C(=O)Cc3ccccc3)CC2)ccc1O (nonaromatic ring conformer: 68.42816798524906 kcal/mol)

>  <smiles>  (61) 
CS(=O)(=O)Nc1cc(C(=O)CN2CCN(C(=O)Cc3ccccc3)CC2)ccc1O

>  <score_type>  (61) 
oracle

>  <origin>  (61) 
adg

>  <m_score__min__energy>  (61) 
-12.27

>  <m_primary>  (61) 
energy

$$$$
61:0
     RDKit          3D

 61 64  0  0  0  0  0  0  0  0999 V2000
   62.0234   30.1591   54.0171 H   0  0  0  0  0  0  0  0  0  0  0  0
   61.7460   30.0530   52.9580 C   0  0  0  0  0  0  0  0  0  0  0  0
   60.8730   30.9280   52.3920 N   0  0  0  0  0  0  0  0  0  0  0  0
   60.4660   30.8460   51.0950 C   0  0  0  0  0  0  0  0  0  0  0  0
   59.7560   31.8460   50.6430 N   0  0  0  0  0  0  0  0  0  0  0  0
   60.1610   33.4820   50.2010 S   0  0  0  0  0  0  0  0  0  0  0  0
   59.2530   34.4370   50.9190 O   0  0  0  0  0  0  0  0  0  0  0  0
   61.5680   33.7340   50.6610 O   0  0  0  0  0  0  0  0  0  0  0  0
   60.1310   33.7170   48.4390 C   0  0  0  0  0  0  0  0  0  0  0  0
   58.9100   34.0980   47.8510 C   0  0  0  0  0  0  0  0  0  0  0  0
   58.0120   34.1936   48.4791 H   0  0  0  0  0  0  0  0  0  0  0  0
   58.8230   34.3560   46.4830 C   0  0  0  0  0  0  0  0  0  0  0  0
   57.8625   34.6582   46.0402 H   0  0  0  0  0  0  0  0  0  0  0  0
   59.9520   34.2310   45.6780 C   0  0  0  0  0  0  0  0  0  0  0  0
   59.8881   34.4581   44.6036 H   0  0  0  0  0  0  0  0  0  0  0  0
   61.1650   33.8180   46.2320 C   0  0  0  0  0  0  0  0  0  0  0  0
   62.0526   33.7334   45.5878 H   0  0  0  0  0  0  0  0  0  0  0  0
   61.2720   33.5070   47.6050 C   0  0  0  0  0  0  0  0  0  0  0  0
   62.6050   33.0160   48.1420 C   0  0  0  0  0  0  0  0  0  0  0  0
   63.3990   32.5940   47.0940 F   0  0  0  0  0  0  0  0  0  0  0  0
   63.2550   34.0180   48.8380 F   0  0  0  0  0  0  0  0  0  0  0  0
   62.4380   31.9530   49.0140 F   0  0  0  0  0  0  0  0  0  0  0  0
   60.9240   29.7420   50.3140 C   0  0  0  0  0  0  0  0  0  0  0  0
   60.3080   29.2990   49.0490 C   0  0  0  0  0  0  0  0  0  0  0  0
   59.5190   30.1950   48.3140 C   0  0  0  0  0  0  0  0  0  0  0  0
   59.4276   31.2405   48.6434 H   0  0  0  0  0  0  0  0  0  0  0  0
   58.8490   29.7680   47.1670 C   0  0  0  0  0  0  0  0  0  0  0  0
   58.2452   30.4822   46.5878 H   0  0  0  0  0  0  0  0  0  0  0  0
   58.9420   28.4290   46.7480 C   0  0  0  0  0  0  0  0  0  0  0  0
   58.2910   27.9830   45.4660 C   0  0  0  0  0  0  0  0  0  0  0  0
   59.0513   27.5186   44.8207 H   0  0  0  0  0  0  0  0  0  0  0  0
   57.8498   28.8635   44.9760 H   0  0  0  0  0  0  0  0  0  0  0  0
   57.1970   26.9880   45.7270 C   0  0  0  0  0  0  0  0  0  0  0  0
   55.8820   27.2840   45.6610 N   0  0  0  0  0  0  0  0  0  0  0  0
   55.2840   26.1060   45.9400 C   0  0  0  0  0  0  0  0  0  0  0  0
   54.0310   25.9710   45.9800 O   0  0  0  0  0  0  0  0  0  0  0  0
   56.1340   25.0800   46.1640 N   0  0  0  0  0  0  0  0  0  0  0  0
   57.3500   25.6440   46.0180 C   0  0  0  0  0  0  0  0  0  0  0  0
   58.6370   24.8940   46.1890 C   0  0  0  0  0  0  0  0  0  0  0  0
   58.8494   24.7791   47.2622 H   0  0  0  0  0  0  0  0  0  0  0  0
   59.4455   25.4582   45.7012 H   0  0  0  0  0  0  0  0  0  0  0  0
   58.5410   23.5320   45.5540 C   0  0  0  0  0  0  0  0  0  0  0  0
   59.5600   22.8740   45.3960 O   0  0  0  0  0  0  0  0  0  0  0  0
   57.2580   23.0000   45.1420 N   0  0  0  0  0  0  0  0  0  0  0  0
   56.4910   23.5350   45.6130 H   0  0  0  0  0  0  0  0  0  0  0  0
   57.1360   21.5870   45.5350 C   0  0  0  0  0  0  0  0  0  0  0  0
   57.1294   21.5109   46.6323 H   0  0  0  0  0  0  0  0  0  0  0  0
   56.1989   21.1743   45.1332 H   0  0  0  0  0  0  0  0  0  0  0  0
   57.9885   21.0197   45.1332 H   0  0  0  0  0  0  0  0  0  0  0  0
   57.0980   23.1560   43.6850 C   0  0  0  0  0  0  0  0  0  0  0  0
   56.3242   23.9104   43.4798 H   0  0  0  0  0  0  0  0  0  0  0  0
   58.0522   23.4801   43.2440 H   0  0  0  0  0  0  0  0  0  0  0  0
   56.7982   22.1939   43.2440 H   0  0  0  0  0  0  0  0  0  0  0  0
   59.7010   27.5230   47.5110 C   0  0  0  0  0  0  0  0  0  0  0  0
   59.7844   26.4737   47.1917 H   0  0  0  0  0  0  0  0  0  0  0  0
   60.3490   27.9500   48.6720 C   0  0  0  0  0  0  0  0  0  0  0  0
   60.8940   27.2242   49.2933 H   0  0  0  0  0  0  0  0  0  0  0  0
   61.8680   28.8640   50.8800 C   0  0  0  0  0  0  0  0  0  0  0  0
   62.2785   28.0423   50.2748 H   0  0  0  0  0  0  0  0  0  0  0  0
   62.2870   29.0250   52.1970 C   0  0  0  0  0  0  0  0  0  0  0  0
   63.0371   28.3468   52.6298 H   0  0  0  0  0  0  0  0  0  0  0  0
  1  2  1  0
  2  3  1  0
  3  4  1  0
  4  5  2  0
  5  6  1  0
  6  7  2  0
  6  8  2  0
  6  9  1  0
  9 10  2  0
 10 11  1  0
 10 12  1  0
 12 13  1  0
 12 14  2  0
 14 15  1  0
 14 16  1  0
 16 17  1  0
 16 18  2  0
 18 19  1  0
 19 20  1  0
 19 21  1  0
 19 22  1  0
  4 23  1  0
 23 24  1  0
 24 25  2  0
 25 26  1  0
 25 27  1  0
 27 28  1  0
 27 29  2  0
 29 30  1  0
 30 31  1  0
 30 32  1  0
 30 33  1  0
 33 34  1  0
 34 35  1  0
 35 36  2  0
 35 37  1  0
 37 38  1  0
 38 39  1  0
 39 40  1  0
 39 41  1  0
 39 42  1  0
 42 43  2  0
 42 44  1  0
 44 45  1  0
 44 46  1  0
 46 47  1  0
 46 48  1  0
 46 49  1  0
 44 50  1  0
 50 51  1  0
 50 52  1  0
 50 53  1  0
 29 54  1  0
 54 55  1  0
 54 56  2  0
 56 57  1  0
 23 58  2  0
 58 59  1  0
 58 60  1  0
 60 61  1  0
 60  2  2  0
 18  9  1  0
 56 24  1  0
 38 33  2  0
M  CHG  4   3  -1  34  -1  37  -1  44   1
M  END
>  <UniqueID>  (62) 
59

>  <SMILES>  (62) 
C[NH+](C)C(=O)Cc1[n-]c(=O)[n-]c1Cc1ccc(-c2ccc[n-]/c2=N/S(=O)(=O)c2ccccc2C(F)(F)F)cc1

>  <Energy>  (62) 
114.6017651446265

>  <Genealogy>  (62) 
C[NH+](C)C(=O)Cc1[n-]c(=O)[n-]c1Cc1ccc(-c2ccc[n-]c2=NS(=O)(=O)c2ccccc2C(F)(F)F)cc1 (protonated)
C[NH+](C)C(=O)Cc1[n-]c(=O)[n-]c1Cc1ccc(-c2ccc[n-]/c2=N/S(=O)(=O)c2ccccc2C(F)(F)F)cc1 (cis-trans isomerization)
C[NH+](C)C(=O)Cc1[n-]c(=O)[n-]c1Cc1ccc(-c2ccc[n-]/c2=N/S(=O)(=O)c2ccccc2C(F)(F)F)cc1 (3D coordinates assigned)
C[NH+](C)C(=O)Cc1[n-]c(=O)[n-]c1Cc1ccc(-c2ccc[n-]/c2=N/S(=O)(=O)c2ccccc2C(F)(F)F)cc1 (optimized conformer: 114.6017651446265 kcal/mol)

>  <smiles>  (62) 
CN(C)C(=O)Cc1[nH]c(=O)[nH]c1Cc1ccc(-c2ccc[nH]c2=NS(=O)(=O)c2ccccc2C(F)(F)F)cc1

>  <score_type>  (62) 
oracle

>  <origin>  (62) 
adg

>  <m_score__min__energy>  (62) 
-13.66

>  <m_primary>  (62) 
energy

$$$$
62:0
     RDKit          3D

 56 59  0  0  0  0  0  0  0  0999 V2000
   59.3260   27.7850   47.2170 C   0  0  0  0  0  0  0  0  0  0  0  0
   58.8270   28.6020   46.2750 C   0  0  0  0  0  0  0  0  0  0  0  0
   57.9630   28.2550   45.2240 C   0  0  0  0  0  0  0  0  0  0  0  0
   57.5670   27.0520   44.7630 C   0  0  0  0  0  0  0  0  0  0  0  0
   57.0740   25.9380   45.5860 C   0  0  0  0  0  0  0  0  0  0  0  0
   57.8570   24.9380   46.0280 N   0  0  0  0  0  0  0  0  0  0  0  0
   57.0340   24.2310   46.8350 C   0  0  0  0  0  0  0  0  0  0  0  0
   57.4040   23.1880   47.4330 O   0  0  0  0  0  0  0  0  0  0  0  0
   55.7880   24.7360   46.9570 N   0  0  0  0  0  0  0  0  0  0  0  0
   55.8330   25.8260   46.1730 C   0  0  0  0  0  0  0  0  0  0  0  0
   54.7740   26.7100   46.0210 O   0  0  0  0  0  0  0  0  0  0  0  0
   57.5380   29.4470   44.6630 C   0  0  0  0  0  0  0  0  0  0  0  0
   58.1960   30.4610   45.3270 C   0  0  0  0  0  0  0  0  0  0  0  0
   58.0550   31.9170   44.9960 C   0  0  0  0  0  0  0  0  0  0  0  0
   58.9730   29.9520   46.3100 N   0  0  0  0  0  0  0  0  0  0  0  0
   59.7910   30.7080   47.2200 C   0  0  0  0  0  0  0  0  0  0  0  0
   59.2480   31.5560   47.9790 O   0  0  0  0  0  0  0  0  0  0  0  0
   61.2090   30.4790   47.2770 N   0  0  0  0  0  0  0  0  0  0  0  0
   62.1150   31.2250   48.1050 C   0  0  0  0  0  0  0  0  0  0  0  0
   62.9420   32.1930   47.5190 C   0  0  0  0  0  0  0  0  0  0  0  0
   63.8150   32.9500   48.3030 C   0  0  0  0  0  0  0  0  0  0  0  0
   63.8570   32.7700   49.6950 C   0  0  0  0  0  0  0  0  0  0  0  0
   64.7900   33.5690   50.5200 C   0  0  0  0  0  0  0  0  0  0  0  0
   64.3550   34.5930   51.1170 O   0  0  0  0  0  0  0  0  0  0  0  0
   66.1710   33.1910   50.6740 N   0  0  0  0  0  0  0  0  0  0  0  0
   66.5410   31.7780   50.8270 C   0  0  0  0  0  0  0  0  0  0  0  0
   67.8370   31.6380   51.6450 C   0  0  0  0  0  0  0  0  0  0  0  0
   67.8930   32.6100   52.7580 N   0  0  0  0  0  0  0  0  0  0  0  0
   66.8940   32.3080   53.7980 C   0  0  0  0  0  0  0  0  0  0  0  0
   67.8150   34.0260   52.3120 C   0  0  0  0  0  0  0  0  0  0  0  0
   67.1990   34.2090   50.9120 C   0  0  0  0  0  0  0  0  0  0  0  0
   63.0240   31.8050   50.2850 C   0  0  0  0  0  0  0  0  0  0  0  0
   62.1520   31.0470   49.4990 C   0  0  0  0  0  0  0  0  0  0  0  0
   59.9976   28.1840   47.9914 H   0  0  0  0  0  0  0  0  0  0  0  0
   59.0631   26.7169   47.2141 H   0  0  0  0  0  0  0  0  0  0  0  0
   57.6170   26.8895   43.6762 H   0  0  0  0  0  0  0  0  0  0  0  0
   56.8134   29.5633   43.8436 H   0  0  0  0  0  0  0  0  0  0  0  0
   57.9985   32.5008   45.9266 H   0  0  0  0  0  0  0  0  0  0  0  0
   58.9255   32.2456   44.4093 H   0  0  0  0  0  0  0  0  0  0  0  0
   57.1376   32.0725   44.4093 H   0  0  0  0  0  0  0  0  0  0  0  0
   61.5990   29.6800   46.7290 H   0  0  0  0  0  0  0  0  0  0  0  0
   62.9030   32.3578   46.4321 H   0  0  0  0  0  0  0  0  0  0  0  0
   64.4736   33.6916   47.8274 H   0  0  0  0  0  0  0  0  0  0  0  0
   65.7287   31.2465   51.3444 H   0  0  0  0  0  0  0  0  0  0  0  0
   66.7058   31.3466   49.8287 H   0  0  0  0  0  0  0  0  0  0  0  0
   67.8885   30.6200   52.0587 H   0  0  0  0  0  0  0  0  0  0  0  0
   68.6866   31.8367   50.9752 H   0  0  0  0  0  0  0  0  0  0  0  0
   67.3461   32.4447   54.7914 H   0  0  0  0  0  0  0  0  0  0  0  0
   66.0351   32.9866   53.6895 H   0  0  0  0  0  0  0  0  0  0  0  0
   66.5549   31.2672   53.6895 H   0  0  0  0  0  0  0  0  0  0  0  0
   67.2015   34.5832   53.0353 H   0  0  0  0  0  0  0  0  0  0  0  0
   68.8482   34.3995   52.2564 H   0  0  0  0  0  0  0  0  0  0  0  0
   66.7438   35.2080   50.8431 H   0  0  0  0  0  0  0  0  0  0  0  0
   67.9903   34.1037   50.1552 H   0  0  0  0  0  0  0  0  0  0  0  0
   63.0583   31.6450   51.3728 H   0  0  0  0  0  0  0  0  0  0  0  0
   61.4909   30.3070   49.9737 H   0  0  0  0  0  0  0  0  0  0  0  0
  1  2  2  0
  2  3  1  0
  3  4  2  3
  4  5  1  0
  5  6  1  0
  6  7  1  0
  7  8  2  0
  7  9  1  0
  9 10  1  0
 10 11  1  0
  3 12  1  0
 12 13  2  0
 13 14  1  0
 13 15  1  0
 15 16  1  0
 16 17  2  0
 16 18  1  0
 18 19  1  0
 19 20  2  0
 20 21  1  0
 21 22  2  0
 22 23  1  0
 23 24  2  0
 23 25  1  0
 25 26  1  0
 26 27  1  0
 27 28  1  0
 28 29  1  0
 28 30  1  0
 30 31  1  0
 22 32  1  0
 32 33  2  0
 15  2  1  0
 33 19  1  0
 10  5  2  0
 31 25  1  0
  1 34  1  0
  1 35  1  0
  4 36  1  0
 12 37  1  0
 14 38  1  0
 14 39  1  0
 14 40  1  0
 18 41  1  0
 20 42  1  0
 21 43  1  0
 26 44  1  0
 26 45  1  0
 27 46  1  0
 27 47  1  0
 29 48  1  0
 29 49  1  0
 29 50  1  0
 30 51  1  0
 30 52  1  0
 31 53  1  0
 31 54  1  0
 32 55  1  0
 33 56  1  0
M  CHG  3   6  -1   9  -1  11  -1
M  END
>  <UniqueID>  (63) 
60

>  <SMILES>  (63) 
C=c1c(=Cc2[n-]c(=O)[n-]c2[O-])cc(C)n1C(=O)Nc1ccc(C(=O)N2CCN(C)CC2)cc1

>  <Energy>  (63) 
150.44851781204912

>  <Genealogy>  (63) 
C=c1c(=Cc2[n-]c(=O)[n-]c2[O-])cc(C)n1C(=O)Nc1ccc(C(=O)N2CCN(C)CC2)cc1 (protonated)
C=c1c(=Cc2[n-]c(=O)[n-]c2[O-])cc(C)n1C(=O)Nc1ccc(C(=O)N2CCN(C)CC2)cc1 (3D coordinates assigned)
C=c1c(=Cc2[n-]c(=O)[n-]c2[O-])cc(C)n1C(=O)Nc1ccc(C(=O)N2CCN(C)CC2)cc1 (nonaromatic ring conformer: 150.44851781204912 kcal/mol)

>  <smiles>  (63) 
C=c1c(=Cc2[nH]c(=O)[nH]c2O)cc(C)n1C(=O)Nc1ccc(C(=O)N2CCN(C)CC2)cc1

>  <score_type>  (63) 
oracle

>  <origin>  (63) 
adg

>  <m_score__min__energy>  (63) 
-16.77

>  <m_primary>  (63) 
energy

$$$$
63:0
     RDKit          3D

 42 44  0  0  0  0  0  0  0  0999 V2000
   58.1760   26.9820   46.9660 C   0  0  0  0  0  0  0  0  0  0  0  0
   57.3760   26.9370   45.8970 C   0  0  0  0  0  0  0  0  0  0  0  0
   57.7650   27.5600   44.5850 C   0  0  0  0  0  0  0  0  0  0  0  0
   57.6550   29.0670   44.6700 C   0  0  0  0  0  0  0  0  0  0  0  0
   56.4030   29.7150   44.7880 C   0  0  0  0  0  0  0  0  0  0  0  0
   55.2000   29.0110   44.8340 O   0  0  0  0  0  0  0  0  0  0  0  0
   56.3560   31.0710   44.8670 N   0  0  0  0  0  0  0  0  0  0  0  0
   57.4850   31.8210   44.8520 C   0  0  0  0  0  0  0  0  0  0  0  0
   57.3740   33.6010   44.9800 S   0  0  0  0  0  0  0  0  0  0  0  0
   58.7930   33.6940   46.0710 C   0  0  0  0  0  0  0  0  0  0  0  0
   60.0820   33.7750   45.5370 C   0  0  0  0  0  0  0  0  0  0  0  0
   61.1910   33.8590   46.3850 C   0  0  0  0  0  0  0  0  0  0  0  0
   61.0220   33.8510   47.7830 C   0  0  0  0  0  0  0  0  0  0  0  0
   62.1860   33.9590   48.6980 C   0  0  0  0  0  0  0  0  0  0  0  0
   62.2570   34.9370   49.4910 O   0  0  0  0  0  0  0  0  0  0  0  0
   63.2500   32.9310   48.7390 C   0  0  0  0  0  0  0  0  0  0  0  0
   64.4260   33.2470   48.4170 O   0  0  0  0  0  0  0  0  0  0  0  0
   62.9660   31.5540   49.0350 N   0  0  0  0  0  0  0  0  0  0  0  0
   61.8160   30.9580   48.9120 C   0  0  0  0  0  0  0  0  0  0  0  0
   61.4000   30.4620   47.7130 N   0  0  0  0  0  0  0  0  0  0  0  0
   60.1890   29.8590   47.5850 C   0  0  0  0  0  0  0  0  0  0  0  0
   59.3480   29.7500   48.6900 C   0  0  0  0  0  0  0  0  0  0  0  0
   59.7810   30.2720   49.9070 C   0  0  0  0  0  0  0  0  0  0  0  0
   60.9990   30.8660   49.9950 N   0  0  0  0  0  0  0  0  0  0  0  0
   59.7190   33.7770   48.3090 C   0  0  0  0  0  0  0  0  0  0  0  0
   58.6130   33.6930   47.4580 C   0  0  0  0  0  0  0  0  0  0  0  0
   58.6970   31.2230   44.7630 N   0  0  0  0  0  0  0  0  0  0  0  0
   58.8110   29.8730   44.6770 C   0  0  0  0  0  0  0  0  0  0  0  0
   59.9590   29.3590   44.6080 O   0  0  0  0  0  0  0  0  0  0  0  0
   57.8589   26.5153   47.9103 H   0  0  0  0  0  0  0  0  0  0  0  0
   59.1518   27.4858   46.9019 H   0  0  0  0  0  0  0  0  0  0  0  0
   56.4038   26.4290   45.9791 H   0  0  0  0  0  0  0  0  0  0  0  0
   58.8025   27.2842   44.3451 H   0  0  0  0  0  0  0  0  0  0  0  0
   57.0882   27.1941   43.7988 H   0  0  0  0  0  0  0  0  0  0  0  0
   55.1440   28.0050   44.9120 H   0  0  0  0  0  0  0  0  0  0  0  0
   60.2247   33.7727   44.4463 H   0  0  0  0  0  0  0  0  0  0  0  0
   62.2018   33.9318   45.9572 H   0  0  0  0  0  0  0  0  0  0  0  0
   59.8735   29.4577   46.6106 H   0  0  0  0  0  0  0  0  0  0  0  0
   58.3653   29.2633   48.6038 H   0  0  0  0  0  0  0  0  0  0  0  0
   59.1367   30.2030   50.7959 H   0  0  0  0  0  0  0  0  0  0  0  0
   59.5694   33.7853   49.3987 H   0  0  0  0  0  0  0  0  0  0  0  0
   57.5994   33.6260   47.8800 H   0  0  0  0  0  0  0  0  0  0  0  0
  1  2  2  0
  2  3  1  0
  3  4  1  0
  4  5  2  0
  5  6  1  0
  5  7  1  0
  7  8  1  0
  8  9  1  0
  9 10  1  0
 10 11  2  0
 11 12  1  0
 12 13  2  0
 13 14  1  0
 14 15  2  0
 14 16  1  0
 16 17  2  0
 16 18  1  0
 18 19  2  3
 19 20  1  0
 20 21  2  0
 21 22  1  0
 22 23  2  0
 23 24  1  0
 13 25  1  0
 25 26  2  0
  8 27  2  0
 27 28  1  0
 28 29  2  0
 28  4  1  0
 26 10  1  0
 24 19  1  0
  1 30  1  0
  1 31  1  0
  2 32  1  0
  3 33  1  0
  3 34  1  0
  6 35  1  0
 11 36  1  0
 12 37  1  0
 21 38  1  0
 22 39  1  0
 23 40  1  0
 25 41  1  0
 26 42  1  0
M  CHG  2   7  -1  24  -1
M  END
>  <UniqueID>  (64) 
61

>  <SMILES>  (64) 
C=CCc1c(O)[n-]c(Sc2ccc(C(=O)C(=O)N=c3nccc[n-]3)cc2)nc1=O

>  <Energy>  (64) 
52.25076598040608

>  <Genealogy>  (64) 
C=CCc1c(O)[n-]c(Sc2ccc(C(=O)C(=O)N=c3nccc[n-]3)cc2)nc1=O (protonated)
C=CCc1c(O)[n-]c(Sc2ccc(C(=O)C(=O)N=c3nccc[n-]3)cc2)nc1=O (3D coordinates assigned)
C=CCc1c(O)[n-]c(Sc2ccc(C(=O)C(=O)N=c3nccc[n-]3)cc2)nc1=O (optimized conformer: 52.25076598040608 kcal/mol)

>  <smiles>  (64) 
C=CCc1c(O)[nH]c(Sc2ccc(C(=O)C(=O)N=c3nccc[nH]3)cc2)nc1=O

>  <score_type>  (64) 
oracle

>  <origin>  (64) 
adg

>  <m_score__min__energy>  (64) 
-11.98

>  <m_primary>  (64) 
energy

$$$$
64:0
     RDKit          3D

 50 53  0  0  0  0  0  0  0  0999 V2000
   55.1530   29.0020   44.8070 N   0  0  0  0  0  0  0  0  0  0  0  0
   56.5610   29.2390   44.7800 C   0  0  0  0  0  0  0  0  0  0  0  0
   57.3380   28.3680   45.2520 O   0  0  0  0  0  0  0  0  0  0  0  0
   57.1020   30.4920   44.2050 C   0  0  0  0  0  0  0  0  0  0  0  0
   56.9750   30.7580   42.8290 C   0  0  0  0  0  0  0  0  0  0  0  0
   57.4950   31.9360   42.2840 C   0  0  0  0  0  0  0  0  0  0  0  0
   58.1390   32.8640   43.1040 C   0  0  0  0  0  0  0  0  0  0  0  0
   58.2540   32.6260   44.4790 C   0  0  0  0  0  0  0  0  0  0  0  0
   58.9370   33.5730   45.3140 N   0  0  0  0  0  0  0  0  0  0  0  0
   59.2160   34.9350   44.8640 C   0  0  0  0  0  0  0  0  0  0  0  0
   59.8920   35.5900   45.9690 N   0  0  0  0  0  0  0  0  0  0  0  0
   59.9880   34.6580   47.0300 C   0  0  0  0  0  0  0  0  0  0  0  0
   60.5100   34.9520   48.1370 O   0  0  0  0  0  0  0  0  0  0  0  0
   59.3880   33.3280   46.6910 C   0  0  0  0  0  0  0  0  0  0  0  0
   60.4510   32.2100   46.7330 C   0  0  0  0  0  0  0  0  0  0  0  0
   60.9240   31.8900   48.1720 C   0  0  0  0  0  0  0  0  0  0  0  0
   59.9820   32.3740   49.2070 N   0  0  0  0  0  0  0  0  0  0  0  0
   60.2980   31.7700   50.5170 C   0  0  0  0  0  0  0  0  0  0  0  0
   59.0500   31.6510   51.3510 C   0  0  0  0  0  0  0  0  0  0  0  0
   58.5320   32.7820   52.0010 C   0  0  0  0  0  0  0  0  0  0  0  0
   57.3630   32.6830   52.7620 C   0  0  0  0  0  0  0  0  0  0  0  0
   56.7040   31.4560   52.8780 C   0  0  0  0  0  0  0  0  0  0  0  0
   57.2090   30.3240   52.2320 C   0  0  0  0  0  0  0  0  0  0  0  0
   56.5390   29.1070   52.3540 O   0  0  0  0  0  0  0  0  0  0  0  0
   58.3810   30.4210   51.4680 C   0  0  0  0  0  0  0  0  0  0  0  0
   58.5850   32.1090   48.8150 C   0  0  0  0  0  0  0  0  0  0  0  0
   58.1860   32.9970   47.6210 C   0  0  0  0  0  0  0  0  0  0  0  0
   57.7550   31.4340   45.0230 C   0  0  0  0  0  0  0  0  0  0  0  0
   54.5650   29.3560   45.5940 H   0  0  0  0  0  0  0  0  0  0  0  0
   56.4631   30.0343   42.1777 H   0  0  0  0  0  0  0  0  0  0  0  0
   57.3963   32.1319   41.2061 H   0  0  0  0  0  0  0  0  0  0  0  0
   58.5569   33.7839   42.6692 H   0  0  0  0  0  0  0  0  0  0  0  0
   59.8637   34.9188   43.9751 H   0  0  0  0  0  0  0  0  0  0  0  0
   58.2931   35.4645   44.5850 H   0  0  0  0  0  0  0  0  0  0  0  0
   60.0206   31.2983   46.2930 H   0  0  0  0  0  0  0  0  0  0  0  0
   61.3256   32.5612   46.1658 H   0  0  0  0  0  0  0  0  0  0  0  0
   61.0277   30.7996   48.2735 H   0  0  0  0  0  0  0  0  0  0  0  0
   61.8820   32.4075   48.3283 H   0  0  0  0  0  0  0  0  0  0  0  0
   60.7274   30.7693   50.3613 H   0  0  0  0  0  0  0  0  0  0  0  0
   61.0203   32.4119   51.0426 H   0  0  0  0  0  0  0  0  0  0  0  0
   59.0474   33.7497   51.9115 H   0  0  0  0  0  0  0  0  0  0  0  0
   56.9615   33.5722   53.2701 H   0  0  0  0  0  0  0  0  0  0  0  0
   55.7858   31.3809   53.4791 H   0  0  0  0  0  0  0  0  0  0  0  0
   56.7380   28.4670   53.1140 H   0  0  0  0  0  0  0  0  0  0  0  0
   58.7781   29.5307   50.9584 H   0  0  0  0  0  0  0  0  0  0  0  0
   58.4825   31.0514   48.5306 H   0  0  0  0  0  0  0  0  0  0  0  0
   57.9258   32.3366   49.6657 H   0  0  0  0  0  0  0  0  0  0  0  0
   57.4198   32.4715   47.0322 H   0  0  0  0  0  0  0  0  0  0  0  0
   57.8074   33.9473   48.0256 H   0  0  0  0  0  0  0  0  0  0  0  0
   57.8746   31.2330   46.0978 H   0  0  0  0  0  0  0  0  0  0  0  0
  1  2  1  0
  2  3  2  0
  2  4  1  0
  4  5  2  0
  5  6  1  0
  6  7  2  0
  7  8  1  0
  8  9  1  0
  9 10  1  0
 10 11  1  0
 11 12  1  0
 12 13  2  0
 12 14  1  0
 14 15  1  0
 15 16  1  0
 16 17  1  0
 17 18  1  0
 18 19  1  0
 19 20  2  0
 20 21  1  0
 21 22  2  0
 22 23  1  0
 23 24  1  0
 23 25  2  0
 17 26  1  0
 26 27  1  0
  8 28  2  0
 28  4  1  0
 14  9  1  0
 25 19  1  0
 27 14  1  0
  1 29  1  0
  5 30  1  0
  6 31  1  0
  7 32  1  0
 10 33  1  0
 10 34  1  0
 15 35  1  0
 15 36  1  0
 16 37  1  0
 16 38  1  0
 18 39  1  0
 18 40  1  0
 20 41  1  0
 21 42  1  0
 22 43  1  0
 24 44  1  0
 25 45  1  0
 26 46  1  0
 26 47  1  0
 27 48  1  0
 27 49  1  0
 28 50  1  0
M  CHG  2   1  -1  11  -1
M  END
>  <UniqueID>  (65) 
62

>  <SMILES>  (65) 
[NH-]C(=O)c1cccc(N2C[N-]C(=O)C23CCN(Cc2cccc(O)c2)CC3)c1

>  <Energy>  (65) 
76.64081581502441

>  <Genealogy>  (65) 
[NH-]C(=O)c1cccc(N2C[N-]C(=O)C23CCN(Cc2cccc(O)c2)CC3)c1 (protonated)
[NH-]C(=O)c1cccc(N2C[N-]C(=O)C23CCN(Cc2cccc(O)c2)CC3)c1 (3D coordinates assigned)
[NH-]C(=O)c1cccc(N2C[N-]C(=O)C23CCN(Cc2cccc(O)c2)CC3)c1 (nonaromatic ring conformer: 76.64081581502441 kcal/mol)

>  <smiles>  (65) 
NC(=O)c1cccc(N2CNC(=O)C23CCN(Cc2cccc(O)c2)CC3)c1

>  <score_type>  (65) 
oracle

>  <origin>  (65) 
adg

>  <m_score__min__energy>  (65) 
-12.6

>  <m_primary>  (65) 
energy

$$$$
65:0
     RDKit          3D

 35 36  0  0  0  0  0  0  0  0999 V2000
   60.0120   34.5620   48.9890 C   0  0  0  0  0  0  0  0  0  0  0  0
   60.4200   34.1190   47.7000 O   0  0  0  0  0  0  0  0  0  0  0  0
   59.5410   33.8090   46.6480 C   0  0  0  0  0  0  0  0  0  0  0  0
   59.2830   34.7240   45.6070 C   0  0  0  0  0  0  0  0  0  0  0  0
   58.3830   34.4030   44.5910 C   0  0  0  0  0  0  0  0  0  0  0  0
   57.7400   33.1660   44.5900 C   0  0  0  0  0  0  0  0  0  0  0  0
   57.9890   32.2420   45.6070 C   0  0  0  0  0  0  0  0  0  0  0  0
   57.3520   31.0060   45.5660 O   0  0  0  0  0  0  0  0  0  0  0  0
   58.8810   32.5610   46.6520 C   0  0  0  0  0  0  0  0  0  0  0  0
   59.1090   31.6050   47.7650 C   0  0  0  0  0  0  0  0  0  0  0  0
   58.5310   31.8010   48.8670 O   0  0  0  0  0  0  0  0  0  0  0  0
   60.0330   30.4530   47.6530 C   0  0  0  0  0  0  0  0  0  0  0  0
   59.6730   29.1610   47.7320 C   0  0  0  0  0  0  0  0  0  0  0  0
   58.9820   28.4170   46.6590 C   0  0  0  0  0  0  0  0  0  0  0  0
   59.3930   28.5330   45.3230 C   0  0  0  0  0  0  0  0  0  0  0  0
   58.7460   27.8010   44.3250 C   0  0  0  0  0  0  0  0  0  0  0  0
   57.6760   26.9640   44.6490 C   0  0  0  0  0  0  0  0  0  0  0  0
   57.2310   26.8590   45.9790 C   0  0  0  0  0  0  0  0  0  0  0  0
   56.0950   25.9730   46.3250 C   0  0  0  0  0  0  0  0  0  0  0  0
   54.7920   26.2260   45.8030 N   0  0  0  0  0  0  0  0  0  0  0  0
   56.2690   24.9830   47.0870 O   0  0  0  0  0  0  0  0  0  0  0  0
   57.8860   27.6030   46.9780 C   0  0  0  0  0  0  0  0  0  0  0  0
   60.5434   33.9850   49.7602 H   0  0  0  0  0  0  0  0  0  0  0  0
   60.2492   35.6302   49.1017 H   0  0  0  0  0  0  0  0  0  0  0  0
   58.9279   34.4133   49.1017 H   0  0  0  0  0  0  0  0  0  0  0  0
   59.7949   35.6976   45.5960 H   0  0  0  0  0  0  0  0  0  0  0  0
   58.1800   35.1276   43.7886 H   0  0  0  0  0  0  0  0  0  0  0  0
   57.0335   32.9167   43.7846 H   0  0  0  0  0  0  0  0  0  0  0  0
   61.0988   30.6726   47.4924 H   0  0  0  0  0  0  0  0  0  0  0  0
   59.9092   28.6197   48.6600 H   0  0  0  0  0  0  0  0  0  0  0  0
   60.2262   29.2016   45.0609 H   0  0  0  0  0  0  0  0  0  0  0  0
   59.0803   27.8840   43.2803 H   0  0  0  0  0  0  0  0  0  0  0  0
   57.1780   26.3831   43.8587 H   0  0  0  0  0  0  0  0  0  0  0  0
   54.0690   26.7130   46.3780 H   0  0  0  0  0  0  0  0  0  0  0  0
   57.5348   27.5453   48.0188 H   0  0  0  0  0  0  0  0  0  0  0  0
  1  2  1  0
  2  3  1  0
  3  4  2  0
  4  5  1  0
  5  6  2  0
  6  7  1  0
  7  8  1  0
  7  9  2  0
  9 10  1  0
 10 11  2  0
 10 12  1  0
 12 13  2  3
 13 14  1  0
 14 15  2  0
 15 16  1  0
 16 17  2  0
 17 18  1  0
 18 19  1  0
 19 20  1  0
 19 21  2  0
 18 22  2  0
  9  3  1  0
 22 14  1  0
  1 23  1  0
  1 24  1  0
  1 25  1  0
  4 26  1  0
  5 27  1  0
  6 28  1  0
 12 29  1  0
 13 30  1  0
 15 31  1  0
 16 32  1  0
 17 33  1  0
 20 34  1  0
 22 35  1  0
M  CHG  2   8  -1  20  -1
M  END
>  <UniqueID>  (66) 
63

>  <SMILES>  (66) 
COc1cccc([O-])c1C(=O)C=Cc1cccc(C([NH-])=O)c1

>  <Energy>  (66) 
47.25496111261327

>  <Genealogy>  (66) 
COc1cccc([O-])c1C(=O)C=Cc1cccc(C([NH-])=O)c1 (protonated)
COc1cccc([O-])c1C(=O)C=Cc1cccc(C([NH-])=O)c1 (3D coordinates assigned)
COc1cccc([O-])c1C(=O)C=Cc1cccc(C([NH-])=O)c1 (optimized conformer: 47.25496111261327 kcal/mol)

>  <smiles>  (66) 
COc1cccc(O)c1C(=O)C=Cc1cccc(C(N)=O)c1

>  <score_type>  (66) 
oracle

>  <origin>  (66) 
adg

>  <m_score__min__energy>  (66) 
-13.42

>  <m_primary>  (66) 
energy

$$$$
66:0
     RDKit          3D

 39 40  0  0  0  0  0  0  0  0999 V2000
   58.9220   22.2780   45.1180 C   0  0  0  0  0  0  0  0  0  0  0  0
   58.0840   22.4100   44.0900 C   0  0  0  0  0  0  0  0  0  0  0  0
   56.6230   22.3360   44.2450 C   0  0  0  0  0  0  0  0  0  0  0  0
   55.9400   21.8000   43.3330 O   0  0  0  0  0  0  0  0  0  0  0  0
   55.9930   22.8470   45.4270 N   0  0  0  0  0  0  0  0  0  0  0  0
   55.4760   24.1720   45.6140 C   0  0  0  0  0  0  0  0  0  0  0  0
   54.1900   24.6320   45.4250 C   0  0  0  0  0  0  0  0  0  0  0  0
   54.1730   25.9590   45.6630 N   0  0  0  0  0  0  0  0  0  0  0  0
   55.3970   26.3540   45.9870 N   0  0  0  0  0  0  0  0  0  0  0  0
   56.2130   25.2830   45.9560 C   0  0  0  0  0  0  0  0  0  0  0  0
   57.6770   25.3320   46.2710 C   0  0  0  0  0  0  0  0  0  0  0  0
   58.3720   26.2320   45.3380 N   0  0  0  0  0  0  0  0  0  0  0  0
   58.0170   26.2030   43.9150 C   0  0  0  0  0  0  0  0  0  0  0  0
   59.4170   27.1310   45.7790 C   0  0  0  0  0  0  0  0  0  0  0  0
   60.0410   26.8770   46.8470 O   0  0  0  0  0  0  0  0  0  0  0  0
   59.7930   28.3560   44.9760 C   0  0  0  0  0  0  0  0  0  0  0  0
   58.6540   29.3360   44.8460 C   0  0  0  0  0  0  0  0  0  0  0  0
   58.9120   30.7150   44.7680 C   0  0  0  0  0  0  0  0  0  0  0  0
   57.8590   31.6210   44.6180 C   0  0  0  0  0  0  0  0  0  0  0  0
   56.5420   31.1590   44.5350 C   0  0  0  0  0  0  0  0  0  0  0  0
   56.2750   29.7840   44.5980 C   0  0  0  0  0  0  0  0  0  0  0  0
   54.9680   29.3110   44.5100 O   0  0  0  0  0  0  0  0  0  0  0  0
   57.3290   28.8760   44.7500 C   0  0  0  0  0  0  0  0  0  0  0  0
   60.0079   22.3406   44.9539 H   0  0  0  0  0  0  0  0  0  0  0  0
   58.5277   22.1064   46.1305 H   0  0  0  0  0  0  0  0  0  0  0  0
   58.5011   22.5809   43.0866 H   0  0  0  0  0  0  0  0  0  0  0  0
   53.3247   24.0202   45.1301 H   0  0  0  0  0  0  0  0  0  0  0  0
   57.8146   25.6988   47.2989 H   0  0  0  0  0  0  0  0  0  0  0  0
   58.0976   24.3205   46.1714 H   0  0  0  0  0  0  0  0  0  0  0  0
   56.9255   26.1138   43.8111 H   0  0  0  0  0  0  0  0  0  0  0  0
   58.3565   27.1319   43.4334 H   0  0  0  0  0  0  0  0  0  0  0  0
   58.5027   25.3415   43.4334 H   0  0  0  0  0  0  0  0  0  0  0  0
   60.6353   28.8587   45.4738 H   0  0  0  0  0  0  0  0  0  0  0  0
   60.0617   28.0211   43.9633 H   0  0  0  0  0  0  0  0  0  0  0  0
   59.9471   31.0827   44.8253 H   0  0  0  0  0  0  0  0  0  0  0  0
   58.0666   32.6999   44.5651 H   0  0  0  0  0  0  0  0  0  0  0  0
   55.7147   31.8748   44.4202 H   0  0  0  0  0  0  0  0  0  0  0  0
   54.7650   28.3180   44.4840 H   0  0  0  0  0  0  0  0  0  0  0  0
   57.1197   27.7970   44.7946 H   0  0  0  0  0  0  0  0  0  0  0  0
  1  2  2  0
  2  3  1  0
  3  4  2  0
  3  5  1  0
  5  6  1  0
  6  7  1  0
  7  8  2  0
  8  9  1  0
  9 10  1  0
 10 11  1  0
 11 12  1  0
 12 13  1  0
 12 14  1  0
 14 15  2  0
 14 16  1  0
 16 17  1  0
 17 18  2  0
 18 19  1  0
 19 20  2  0
 20 21  1  0
 21 22  1  0
 21 23  2  0
 10  6  2  0
 23 17  1  0
  1 24  1  0
  1 25  1  0
  2 26  1  0
  7 27  1  0
 11 28  1  0
 11 29  1  0
 13 30  1  0
 13 31  1  0
 13 32  1  0
 16 33  1  0
 16 34  1  0
 18 35  1  0
 19 36  1  0
 20 37  1  0
 22 38  1  0
 23 39  1  0
M  CHG  2   5  -1   9  -1
M  END
>  <UniqueID>  (67) 
64

>  <SMILES>  (67) 
C=CC(=O)[N-]c1cn[n-]c1CN(C)C(=O)Cc1cccc(O)c1

>  <Energy>  (67) 
65.74604043924137

>  <Genealogy>  (67) 
C=CC(=O)[N-]c1cn[n-]c1CN(C)C(=O)Cc1cccc(O)c1 (protonated)
C=CC(=O)[N-]c1cn[n-]c1CN(C)C(=O)Cc1cccc(O)c1 (3D coordinates assigned)
C=CC(=O)[N-]c1cn[n-]c1CN(C)C(=O)Cc1cccc(O)c1 (optimized conformer: 65.74604043924137 kcal/mol)

>  <smiles>  (67) 
C=CC(=O)Nc1cn[nH]c1CN(C)C(=O)Cc1cccc(O)c1

>  <score_type>  (67) 
oracle

>  <origin>  (67) 
adg

>  <m_score__min__energy>  (67) 
-11.68

>  <m_primary>  (67) 
energy

$$$$
67:0
     RDKit          3D

 55 58  0  0  0  0  0  0  0  0999 V2000
   51.0300   33.0950   51.6720 O   0  0  0  0  0  0  0  0  0  0  0  0
   51.4650   32.1320   50.9890 C   0  0  0  0  0  0  0  0  0  0  0  0
   50.9310   31.8950   49.7280 O   0  0  0  0  0  0  0  0  0  0  0  0
   52.5280   31.2680   51.5300 C   0  0  0  0  0  0  0  0  0  0  0  0
   52.2790   29.9220   51.8410 C   0  0  0  0  0  0  0  0  0  0  0  0
   53.3150   29.1330   52.3450 C   0  0  0  0  0  0  0  0  0  0  0  0
   54.5830   29.6850   52.5340 C   0  0  0  0  0  0  0  0  0  0  0  0
   54.7990   31.0350   52.2230 C   0  0  0  0  0  0  0  0  0  0  0  0
   56.1610   31.6500   52.3700 C   0  0  0  0  0  0  0  0  0  0  0  0
   57.2240   30.8200   51.6940 C   0  0  0  0  0  0  0  0  0  0  0  0
   57.0940   29.5650   51.6550 O   0  0  0  0  0  0  0  0  0  0  0  0
   58.3600   31.4350   51.0460 N   0  0  0  0  0  0  0  0  0  0  0  0
   59.7270   31.1470   51.5100 C   0  0  0  0  0  0  0  0  0  0  0  0
   60.6500   32.3390   51.2740 C   0  0  0  0  0  0  0  0  0  0  0  0
   60.5910   32.7510   49.8360 C   0  0  0  0  0  0  0  0  0  0  0  0
   61.7520   33.1870   49.1800 C   0  0  0  0  0  0  0  0  0  0  0  0
   61.6960   33.5900   47.8470 C   0  0  0  0  0  0  0  0  0  0  0  0
   60.4800   33.5850   47.1650 C   0  0  0  0  0  0  0  0  0  0  0  0
   59.3020   33.1960   47.8180 C   0  0  0  0  0  0  0  0  0  0  0  0
   58.0730   33.2230   47.0830 N   0  0  0  0  0  0  0  0  0  0  0  0
   57.9580   33.9290   45.5000 S   0  0  0  0  0  0  0  0  0  0  0  0
   56.5480   34.4050   45.3020 O   0  0  0  0  0  0  0  0  0  0  0  0
   58.8780   35.1120   45.4020 O   0  0  0  0  0  0  0  0  0  0  0  0
   58.3080   32.7350   44.2070 C   0  0  0  0  0  0  0  0  0  0  0  0
   57.8460   31.3480   44.5680 C   0  0  0  0  0  0  0  0  0  0  0  0
   56.6540   30.8330   44.0290 C   0  0  0  0  0  0  0  0  0  0  0  0
   56.2390   29.5360   44.3450 C   0  0  0  0  0  0  0  0  0  0  0  0
   56.9980   28.7510   45.2170 C   0  0  0  0  0  0  0  0  0  0  0  0
   58.1670   29.2660   45.7820 C   0  0  0  0  0  0  0  0  0  0  0  0
   58.5870   30.5610   45.4660 C   0  0  0  0  0  0  0  0  0  0  0  0
   59.3560   32.7450   49.1590 C   0  0  0  0  0  0  0  0  0  0  0  0
   58.1010   32.3100   49.8880 C   0  0  0  0  0  0  0  0  0  0  0  0
   53.7750   31.7810   51.7250 N   0  0  0  0  0  0  0  0  0  0  0  0
   51.2776   29.4930   51.6892 H   0  0  0  0  0  0  0  0  0  0  0  0
   53.1319   28.0771   52.5929 H   0  0  0  0  0  0  0  0  0  0  0  0
   55.4052   29.0666   52.9233 H   0  0  0  0  0  0  0  0  0  0  0  0
   56.1502   32.6526   51.9175 H   0  0  0  0  0  0  0  0  0  0  0  0
   56.3988   31.7041   53.4426 H   0  0  0  0  0  0  0  0  0  0  0  0
   59.7008   30.9204   52.5861 H   0  0  0  0  0  0  0  0  0  0  0  0
   60.1145   30.2876   50.9432 H   0  0  0  0  0  0  0  0  0  0  0  0
   60.3302   33.1793   51.9078 H   0  0  0  0  0  0  0  0  0  0  0  0
   61.6818   32.0544   51.5276 H   0  0  0  0  0  0  0  0  0  0  0  0
   62.7101   33.2109   49.7198 H   0  0  0  0  0  0  0  0  0  0  0  0
   62.6129   33.9126   47.3320 H   0  0  0  0  0  0  0  0  0  0  0  0
   60.4447   33.8881   46.1082 H   0  0  0  0  0  0  0  0  0  0  0  0
   57.3480   32.5130   47.3290 H   0  0  0  0  0  0  0  0  0  0  0  0
   57.7949   33.0501   43.2865 H   0  0  0  0  0  0  0  0  0  0  0  0
   59.3986   32.7003   44.0680 H   0  0  0  0  0  0  0  0  0  0  0  0
   56.0449   31.4537   43.3553 H   0  0  0  0  0  0  0  0  0  0  0  0
   55.3140   29.1330   43.9068 H   0  0  0  0  0  0  0  0  0  0  0  0
   56.6749   27.7276   45.4584 H   0  0  0  0  0  0  0  0  0  0  0  0
   58.7580   28.6513   46.4768 H   0  0  0  0  0  0  0  0  0  0  0  0
   59.5021   30.9662   45.9225 H   0  0  0  0  0  0  0  0  0  0  0  0
   57.5765   33.2094   50.2430 H   0  0  0  0  0  0  0  0  0  0  0  0
   57.5005   31.7276   49.1737 H   0  0  0  0  0  0  0  0  0  0  0  0
  1  2  2  0
  2  3  1  0
  2  4  1  0
  4  5  2  0
  5  6  1  0
  6  7  2  0
  7  8  1  0
  8  9  1  0
  9 10  1  0
 10 11  2  0
 10 12  1  0
 12 13  1  0
 13 14  1  0
 14 15  1  0
 15 16  2  0
 16 17  1  0
 17 18  2  0
 18 19  1  0
 19 20  1  0
 20 21  1  0
 21 22  2  0
 21 23  2  0
 21 24  1  0
 24 25  1  0
 25 26  2  0
 26 27  1  0
 27 28  2  0
 28 29  1  0
 29 30  2  0
 19 31  2  0
 31 32  1  0
  8 33  2  0
 33  4  1  0
 32 12  1  0
 31 15  1  0
 30 25  1  0
  5 34  1  0
  6 35  1  0
  7 36  1  0
  9 37  1  0
  9 38  1  0
 13 39  1  0
 13 40  1  0
 14 41  1  0
 14 42  1  0
 16 43  1  0
 17 44  1  0
 18 45  1  0
 20 46  1  0
 24 47  1  0
 24 48  1  0
 26 49  1  0
 27 50  1  0
 28 51  1  0
 29 52  1  0
 30 53  1  0
 32 54  1  0
 32 55  1  0
M  CHG  1   3  -1
M  END
>  <UniqueID>  (68) 
65

>  <SMILES>  (68) 
O=C([O-])c1cccc(CC(=O)N2CCc3cccc(NS(=O)(=O)Cc4ccccc4)c3C2)n1

>  <Energy>  (68) 
61.03307334883283

>  <Genealogy>  (68) 
O=C([O-])c1cccc(CC(=O)N2CCc3cccc(NS(=O)(=O)Cc4ccccc4)c3C2)n1 (protonated)
O=C([O-])c1cccc(CC(=O)N2CCc3cccc(NS(=O)(=O)Cc4ccccc4)c3C2)n1 (3D coordinates assigned)
O=C([O-])c1cccc(CC(=O)N2CCc3cccc(NS(=O)(=O)Cc4ccccc4)c3C2)n1 (nonaromatic ring conformer: 61.03307334883283 kcal/mol)

>  <smiles>  (68) 
O=C(O)c1cccc(CC(=O)N2CCc3cccc(NS(=O)(=O)Cc4ccccc4)c3C2)n1

>  <score_type>  (68) 
oracle

>  <origin>  (68) 
adg

>  <m_score__min__energy>  (68) 
-14.41

>  <m_primary>  (68) 
energy

$$$$
68:0
     RDKit          3D

 81 85  0  0  0  0  0  0  0  0999 V2000
   51.8560   19.4820   45.5240 C   0  0  0  0  0  0  0  0  0  0  0  0
   53.1740   20.1060   45.9770 C   0  0  0  0  0  0  0  0  0  0  0  0
   53.1120   21.5760   45.8930 N   0  0  0  0  0  0  0  0  0  0  0  0
   51.7950   22.2350   45.8500 C   0  0  0  0  0  0  0  0  0  0  0  0
   51.7240   23.2130   44.6810 C   0  0  0  0  0  0  0  0  0  0  0  0
   54.3090   22.3930   45.9400 C   0  0  0  0  0  0  0  0  0  0  0  0
   55.5950   21.8260   45.9760 C   0  0  0  0  0  0  0  0  0  0  0  0
   56.7360   22.6470   46.0140 C   0  0  0  0  0  0  0  0  0  0  0  0
   58.1000   22.0070   46.0380 C   0  0  0  0  0  0  0  0  0  0  0  0
   56.5730   24.0520   46.0270 C   0  0  0  0  0  0  0  0  0  0  0  0
   57.6660   24.9440   46.0790 C   0  0  0  0  0  0  0  0  0  0  0  0
   57.4580   26.3310   46.1010 C   0  0  0  0  0  0  0  0  0  0  0  0
   58.5870   27.2170   46.1400 N   0  0  0  0  0  0  0  0  0  0  0  0
   59.3740   27.4370   47.3240 C   0  0  0  0  0  0  0  0  0  0  0  0
   59.3300   26.6040   48.2740 O   0  0  0  0  0  0  0  0  0  0  0  0
   60.2640   28.6150   47.4290 C   0  0  0  0  0  0  0  0  0  0  0  0
   60.7610   29.2440   46.2740 C   0  0  0  0  0  0  0  0  0  0  0  0
   61.5470   30.3940   46.3790 C   0  0  0  0  0  0  0  0  0  0  0  0
   61.8490   30.9390   47.6400 C   0  0  0  0  0  0  0  0  0  0  0  0
   62.6520   32.2210   47.7510 C   0  0  0  0  0  0  0  0  0  0  0  0
   61.8280   33.4530   47.6990 N   0  0  0  0  0  0  0  0  0  0  0  0
   61.5200   33.9460   46.3370 C   0  0  0  0  0  0  0  0  0  0  0  0
   60.0690   33.6280   45.9310 C   0  0  0  0  0  0  0  0  0  0  0  0
   59.0730   34.2190   46.8630 N   0  0  0  0  0  0  0  0  0  0  0  0
   57.8570   33.3780   46.8980 C   0  0  0  0  0  0  0  0  0  0  0  0
   57.8480   32.3590   45.7870 C   0  0  0  0  0  0  0  0  0  0  0  0
   57.9810   30.9930   46.0800 C   0  0  0  0  0  0  0  0  0  0  0  0
   57.9830   30.0500   45.0500 C   0  0  0  0  0  0  0  0  0  0  0  0
   57.8650   30.4600   43.7190 C   0  0  0  0  0  0  0  0  0  0  0  0
   57.7520   31.8220   43.4070 C   0  0  0  0  0  0  0  0  0  0  0  0
   57.5990   32.2510   41.9780 C   0  0  0  0  0  0  0  0  0  0  0  0
   57.7200   32.7670   44.4480 C   0  0  0  0  0  0  0  0  0  0  0  0
   59.6180   34.4750   48.2220 C   0  0  0  0  0  0  0  0  0  0  0  0
   60.6710   33.4320   48.6220 C   0  0  0  0  0  0  0  0  0  0  0  0
   61.4050   30.2710   48.7940 C   0  0  0  0  0  0  0  0  0  0  0  0
   60.6010   29.1330   48.6890 C   0  0  0  0  0  0  0  0  0  0  0  0
   56.1480   26.8350   46.0350 C   0  0  0  0  0  0  0  0  0  0  0  0
   55.0600   25.9640   45.9850 C   0  0  0  0  0  0  0  0  0  0  0  0
   55.2630   24.5800   45.9850 C   0  0  0  0  0  0  0  0  0  0  0  0
   54.1910   23.7470   45.9390 N   0  0  0  0  0  0  0  0  0  0  0  0
   51.2614   19.2005   46.4056 H   0  0  0  0  0  0  0  0  0  0  0  0
   51.2942   20.2098   44.9200 H   0  0  0  0  0  0  0  0  0  0  0  0
   52.0629   18.5862   44.9200 H   0  0  0  0  0  0  0  0  0  0  0  0
   53.3733   19.8122   47.0181 H   0  0  0  0  0  0  0  0  0  0  0  0
   53.9789   19.7484   45.3180 H   0  0  0  0  0  0  0  0  0  0  0  0
   51.0120   21.4715   45.7312 H   0  0  0  0  0  0  0  0  0  0  0  0
   51.6445   22.7902   46.7876 H   0  0  0  0  0  0  0  0  0  0  0  0
   51.6494   24.2405   45.0666 H   0  0  0  0  0  0  0  0  0  0  0  0
   52.6315   23.1168   44.0668 H   0  0  0  0  0  0  0  0  0  0  0  0
   50.8399   22.9868   44.0668 H   0  0  0  0  0  0  0  0  0  0  0  0
   55.7095   20.7320   45.9744 H   0  0  0  0  0  0  0  0  0  0  0  0
   58.4169   21.8583   47.0808 H   0  0  0  0  0  0  0  0  0  0  0  0
   58.0579   21.0347   45.5254 H   0  0  0  0  0  0  0  0  0  0  0  0
   58.8209   22.6609   45.5254 H   0  0  0  0  0  0  0  0  0  0  0  0
   58.6916   24.5471   46.1025 H   0  0  0  0  0  0  0  0  0  0  0  0
   58.9140   27.6400   45.2410 H   0  0  0  0  0  0  0  0  0  0  0  0
   60.5296   28.8283   45.2822 H   0  0  0  0  0  0  0  0  0  0  0  0
   61.9325   30.8768   45.4689 H   0  0  0  0  0  0  0  0  0  0  0  0
   63.1951   32.2077   48.7075 H   0  0  0  0  0  0  0  0  0  0  0  0
   63.3265   32.2513   46.8826 H   0  0  0  0  0  0  0  0  0  0  0  0
   61.6669   35.0358   46.3106 H   0  0  0  0  0  0  0  0  0  0  0  0
   62.1930   33.4404   45.6289 H   0  0  0  0  0  0  0  0  0  0  0  0
   59.8893   34.0288   44.9225 H   0  0  0  0  0  0  0  0  0  0  0  0
   59.9462   32.5353   45.9606 H   0  0  0  0  0  0  0  0  0  0  0  0
   57.8154   32.8524   47.8634 H   0  0  0  0  0  0  0  0  0  0  0  0
   56.9840   34.0342   46.7668 H   0  0  0  0  0  0  0  0  0  0  0  0
   58.0840   30.6640   47.1246 H   0  0  0  0  0  0  0  0  0  0  0  0
   58.0778   28.9801   45.2872 H   0  0  0  0  0  0  0  0  0  0  0  0
   57.8608   29.7111   42.9133 H   0  0  0  0  0  0  0  0  0  0  0  0
   57.2297   33.2866   41.9436 H   0  0  0  0  0  0  0  0  0  0  0  0
   58.5735   32.1922   41.4712 H   0  0  0  0  0  0  0  0  0  0  0  0
   56.8816   31.5888   41.4712 H   0  0  0  0  0  0  0  0  0  0  0  0
   57.5938   33.8341   44.2125 H   0  0  0  0  0  0  0  0  0  0  0  0
   60.0816   35.4724   48.2372 H   0  0  0  0  0  0  0  0  0  0  0  0
   58.7869   34.4132   48.9399 H   0  0  0  0  0  0  0  0  0  0  0  0
   61.0221   33.6503   49.6414 H   0  0  0  0  0  0  0  0  0  0  0  0
   60.2076   32.4355   48.5744 H   0  0  0  0  0  0  0  0  0  0  0  0
   61.6925   30.6467   49.7871 H   0  0  0  0  0  0  0  0  0  0  0  0
   60.2299   28.6401   49.5997 H   0  0  0  0  0  0  0  0  0  0  0  0
   55.9798   27.9220   46.0227 H   0  0  0  0  0  0  0  0  0  0  0  0
   54.0373   26.3673   45.9454 H   0  0  0  0  0  0  0  0  0  0  0  0
  1  2  1  0
  2  3  1  0
  3  4  1  0
  4  5  1  0
  3  6  1  0
  6  7  2  0
  7  8  1  0
  8  9  1  0
  8 10  2  0
 10 11  1  0
 11 12  2  0
 12 13  1  0
 13 14  1  0
 14 15  2  0
 14 16  1  0
 16 17  2  0
 17 18  1  0
 18 19  2  0
 19 20  1  0
 20 21  1  0
 21 22  1  0
 22 23  1  0
 23 24  1  0
 24 25  1  0
 25 26  1  0
 26 27  2  0
 27 28  1  0
 28 29  2  0
 29 30  1  0
 30 31  1  0
 30 32  2  0
 24 33  1  0
 33 34  1  0
 19 35  1  0
 35 36  2  0
 12 37  1  0
 37 38  2  0
 38 39  1  0
 39 40  2  0
 40  6  1  0
 39 10  1  0
 36 16  1  0
 34 21  1  0
 32 26  1  0
  1 41  1  0
  1 42  1  0
  1 43  1  0
  2 44  1  0
  2 45  1  0
  4 46  1  0
  4 47  1  0
  5 48  1  0
  5 49  1  0
  5 50  1  0
  7 51  1  0
  9 52  1  0
  9 53  1  0
  9 54  1  0
 11 55  1  0
 13 56  1  0
 17 57  1  0
 18 58  1  0
 20 59  1  0
 20 60  1  0
 22 61  1  0
 22 62  1  0
 23 63  1  0
 23 64  1  0
 25 65  1  0
 25 66  1  0
 27 67  1  0
 28 68  1  0
 29 69  1  0
 31 70  1  0
 31 71  1  0
 31 72  1  0
 32 73  1  0
 33 74  1  0
 33 75  1  0
 34 76  1  0
 34 77  1  0
 35 78  1  0
 36 79  1  0
 37 80  1  0
 38 81  1  0
M  END
>  <UniqueID>  (69) 
66

>  <SMILES>  (69) 
CCN(CC)c1cc(C)c2cc(NC(=O)c3ccc(CN4CCN(Cc5cccc(C)c5)CC4)cc3)ccc2n1

>  <Energy>  (69) 
106.98134341845828

>  <Genealogy>  (69) 
CCN(CC)c1cc(C)c2cc(NC(=O)c3ccc(CN4CCN(Cc5cccc(C)c5)CC4)cc3)ccc2n1 (3D coordinates assigned)
CCN(CC)c1cc(C)c2cc(NC(=O)c3ccc(CN4CCN(Cc5cccc(C)c5)CC4)cc3)ccc2n1 (nonaromatic ring conformer: 106.98134341845828 kcal/mol)

>  <smiles>  (69) 
CCN(CC)c1cc(C)c2cc(NC(=O)c3ccc(CN4CCN(Cc5cccc(C)c5)CC4)cc3)ccc2n1

>  <score_type>  (69) 
oracle

>  <origin>  (69) 
adg

>  <m_score__min__energy>  (69) 
-8.6799999999999997

>  <m_primary>  (69) 
energy

$$$$
69:0
     RDKit          3D

 47 49  0  0  0  0  0  0  0  0999 V2000
   57.0240   34.2390   44.8760 C   0  0  0  0  0  0  0  0  0  0  0  0
   57.9180   33.3050   45.6450 C   0  0  0  0  0  0  0  0  0  0  0  0
   58.9570   33.8230   46.4370 C   0  0  0  0  0  0  0  0  0  0  0  0
   59.7740   32.9670   47.1790 C   0  0  0  0  0  0  0  0  0  0  0  0
   59.5590   31.5850   47.1490 C   0  0  0  0  0  0  0  0  0  0  0  0
   60.5550   30.5170   48.1370 S   0  0  0  0  0  0  0  0  0  0  0  0
   60.5800   31.0420   49.5440 O   0  0  0  0  0  0  0  0  0  0  0  0
   61.9610   30.5040   47.6070 O   0  0  0  0  0  0  0  0  0  0  0  0
   59.8960   28.9010   48.1250 N   0  0  0  0  0  0  0  0  0  0  0  0
   60.2590   28.2060   49.3660 C   0  0  0  0  0  0  0  0  0  0  0  0
   60.3890   28.1600   46.9560 C   0  0  0  0  0  0  0  0  0  0  0  0
   58.5170   31.0620   46.3730 C   0  0  0  0  0  0  0  0  0  0  0  0
   57.7030   31.9110   45.6050 C   0  0  0  0  0  0  0  0  0  0  0  0
   56.6030   31.3780   44.8520 N   0  0  0  0  0  0  0  0  0  0  0  0
   56.4180   30.0000   44.5050 C   0  0  0  0  0  0  0  0  0  0  0  0
   55.3420   29.4300   44.8290 O   0  0  0  0  0  0  0  0  0  0  0  0
   57.4000   29.2650   43.6360 C   0  0  0  0  0  0  0  0  0  0  0  0
   57.7270   27.9760   44.2350 N   0  0  0  0  0  0  0  0  0  0  0  0
   57.5580   27.6230   45.6120 C   0  0  0  0  0  0  0  0  0  0  0  0
   57.3990   28.4550   46.5460 O   0  0  0  0  0  0  0  0  0  0  0  0
   57.5660   26.1720   45.7600 C   0  0  0  0  0  0  0  0  0  0  0  0
   57.4300   25.3740   46.8950 C   0  0  0  0  0  0  0  0  0  0  0  0
   57.4510   23.9780   46.7230 C   0  0  0  0  0  0  0  0  0  0  0  0
   57.6000   23.4150   45.4340 C   0  0  0  0  0  0  0  0  0  0  0  0
   57.7300   24.2430   44.3050 C   0  0  0  0  0  0  0  0  0  0  0  0
   57.7110   25.6230   44.5020 C   0  0  0  0  0  0  0  0  0  0  0  0
   57.7980   26.7220   43.5480 C   0  0  0  0  0  0  0  0  0  0  0  0
   57.8980   26.6030   42.2970 O   0  0  0  0  0  0  0  0  0  0  0  0
   56.4395   34.8496   45.5799 H   0  0  0  0  0  0  0  0  0  0  0  0
   57.6382   34.8962   44.2429 H   0  0  0  0  0  0  0  0  0  0  0  0
   56.3406   33.6541   44.2429 H   0  0  0  0  0  0  0  0  0  0  0  0
   59.1278   34.9091   46.4727 H   0  0  0  0  0  0  0  0  0  0  0  0
   60.5899   33.3812   47.7895 H   0  0  0  0  0  0  0  0  0  0  0  0
   58.8530   28.9710   48.0680 H   0  0  0  0  0  0  0  0  0  0  0  0
   59.9438   28.8095   50.2299 H   0  0  0  0  0  0  0  0  0  0  0  0
   59.7565   27.2280   49.3990 H   0  0  0  0  0  0  0  0  0  0  0  0
   61.3487   28.0596   49.3990 H   0  0  0  0  0  0  0  0  0  0  0  0
   60.9691   27.2881   47.2925 H   0  0  0  0  0  0  0  0  0  0  0  0
   59.5357   27.8211   46.3501 H   0  0  0  0  0  0  0  0  0  0  0  0
   61.0313   28.8161   46.3501 H   0  0  0  0  0  0  0  0  0  0  0  0
   58.3345   29.9773   46.3649 H   0  0  0  0  0  0  0  0  0  0  0  0
   56.9574   29.1033   42.6421 H   0  0  0  0  0  0  0  0  0  0  0  0
   58.3182   29.8634   43.5419 H   0  0  0  0  0  0  0  0  0  0  0  0
   57.3102   25.8215   47.8927 H   0  0  0  0  0  0  0  0  0  0  0  0
   57.3507   23.3189   47.5980 H   0  0  0  0  0  0  0  0  0  0  0  0
   57.6143   22.3217   45.3139 H   0  0  0  0  0  0  0  0  0  0  0  0
   57.8431   23.8153   43.2979 H   0  0  0  0  0  0  0  0  0  0  0  0
  1  2  1  0
  2  3  2  0
  3  4  1  0
  4  5  2  0
  5  6  1  0
  6  7  2  0
  6  8  2  0
  6  9  1  0
  9 10  1  0
  9 11  1  0
  5 12  1  0
 12 13  2  0
 13 14  1  0
 14 15  1  0
 15 16  2  0
 15 17  1  0
 17 18  1  0
 18 19  1  0
 19 20  2  0
 19 21  1  0
 21 22  2  0
 22 23  1  0
 23 24  2  0
 24 25  1  0
 25 26  2  0
 26 27  1  0
 27 28  2  0
 13  2  1  0
 27 18  1  0
 26 21  1  0
  1 29  1  0
  1 30  1  0
  1 31  1  0
  3 32  1  0
  4 33  1  0
  9 34  1  0
 10 35  1  0
 10 36  1  0
 10 37  1  0
 11 38  1  0
 11 39  1  0
 11 40  1  0
 12 41  1  0
 17 42  1  0
 17 43  1  0
 22 44  1  0
 23 45  1  0
 24 46  1  0
 25 47  1  0
M  CHG  2   9   1  14  -1
M  END
>  <UniqueID>  (70) 
67

>  <SMILES>  (70) 
Cc1ccc(S(=O)(=O)[NH+](C)C)cc1[N-]C(=O)CN1C(=O)c2ccccc2C1=O

>  <Energy>  (70) 
80.97188257122026

>  <Genealogy>  (70) 
Cc1ccc(S(=O)(=O)[NH+](C)C)cc1[N-]C(=O)CN1C(=O)c2ccccc2C1=O (protonated)
Cc1ccc(S(=O)(=O)[NH+](C)C)cc1[N-]C(=O)CN1C(=O)c2ccccc2C1=O (3D coordinates assigned)
Cc1ccc(S(=O)(=O)[NH+](C)C)cc1[N-]C(=O)CN1C(=O)c2ccccc2C1=O (nonaromatic ring conformer: 80.97188257122026 kcal/mol)

>  <smiles>  (70) 
Cc1ccc(S(=O)(=O)N(C)C)cc1NC(=O)CN1C(=O)c2ccccc2C1=O

>  <score_type>  (70) 
oracle

>  <origin>  (70) 
adg

>  <m_score__min__energy>  (70) 
-9.2400000000000002

>  <m_primary>  (70) 
energy

$$$$
70:0
     RDKit          3D

 60 63  0  0  0  0  0  0  0  0999 V2000
   56.6430   28.9610   42.4430 C   0  0  0  0  0  0  0  0  0  0  0  0
   56.8150   30.0180   43.5610 C   0  0  0  0  0  0  0  0  0  0  0  0
   57.4000   31.2900   42.9050 C   0  0  0  0  0  0  0  0  0  0  0  0
   55.4220   30.3350   44.1390 C   0  0  0  0  0  0  0  0  0  0  0  0
   57.7370   29.5420   44.7040 C   0  0  0  0  0  0  0  0  0  0  0  0
   59.1430   29.7080   44.6690 C   0  0  0  0  0  0  0  0  0  0  0  0
   59.9480   29.2490   45.7140 C   0  0  0  0  0  0  0  0  0  0  0  0
   59.3790   28.6250   46.8300 C   0  0  0  0  0  0  0  0  0  0  0  0
   60.2350   28.1620   47.9410 C   0  0  0  0  0  0  0  0  0  0  0  0
   60.5160   26.9330   48.0200 O   0  0  0  0  0  0  0  0  0  0  0  0
   60.7630   29.0810   48.9200 N   0  0  0  0  0  0  0  0  0  0  0  0
   61.1730   28.5820   50.2360 C   0  0  0  0  0  0  0  0  0  0  0  0
   60.9300   29.6330   51.3410 C   0  0  0  0  0  0  0  0  0  0  0  0
   61.0630   31.0520   50.8940 N   0  0  0  0  0  0  0  0  0  0  0  0
   59.7420   31.7200   50.7570 C   0  0  0  0  0  0  0  0  0  0  0  0
   59.6710   32.5840   49.5180 C   0  0  0  0  0  0  0  0  0  0  0  0
   60.4810   33.7280   49.4150 C   0  0  0  0  0  0  0  0  0  0  0  0
   60.4270   34.5360   48.2750 C   0  0  0  0  0  0  0  0  0  0  0  0
   59.5590   34.2140   47.2210 C   0  0  0  0  0  0  0  0  0  0  0  0
   59.4970   35.0190   46.0710 C   0  0  0  0  0  0  0  0  0  0  0  0
   58.6280   34.6860   45.0270 C   0  0  0  0  0  0  0  0  0  0  0  0
   57.8160   33.5510   45.1200 C   0  0  0  0  0  0  0  0  0  0  0  0
   57.8690   32.7390   46.2590 C   0  0  0  0  0  0  0  0  0  0  0  0
   58.7380   33.0630   47.3160 C   0  0  0  0  0  0  0  0  0  0  0  0
   58.8020   32.2540   48.4630 C   0  0  0  0  0  0  0  0  0  0  0  0
   61.8580   31.1780   49.6520 C   0  0  0  0  0  0  0  0  0  0  0  0
   61.2110   30.4120   48.4890 C   0  0  0  0  0  0  0  0  0  0  0  0
   57.9950   28.4150   46.8630 C   0  0  0  0  0  0  0  0  0  0  0  0
   57.1870   28.8590   45.8130 C   0  0  0  0  0  0  0  0  0  0  0  0
   56.4820   27.9714   42.8956 H   0  0  0  0  0  0  0  0  0  0  0  0
   55.7759   29.2245   41.8195 H   0  0  0  0  0  0  0  0  0  0  0  0
   57.5489   28.9360   41.8195 H   0  0  0  0  0  0  0  0  0  0  0  0
   57.7226   31.9914   43.6885 H   0  0  0  0  0  0  0  0  0  0  0  0
   58.2628   31.0165   42.2799 H   0  0  0  0  0  0  0  0  0  0  0  0
   56.6308   31.7671   42.2799 H   0  0  0  0  0  0  0  0  0  0  0  0
   55.4698   30.3241   45.2379 H   0  0  0  0  0  0  0  0  0  0  0  0
   55.1002   31.3293   43.7958 H   0  0  0  0  0  0  0  0  0  0  0  0
   54.7016   29.5778   43.7958 H   0  0  0  0  0  0  0  0  0  0  0  0
   59.6082   30.2061   43.8056 H   0  0  0  0  0  0  0  0  0  0  0  0
   61.0389   29.3791   45.6594 H   0  0  0  0  0  0  0  0  0  0  0  0
   60.5946   27.6763   50.4708 H   0  0  0  0  0  0  0  0  0  0  0  0
   62.2500   28.3610   50.2009 H   0  0  0  0  0  0  0  0  0  0  0  0
   59.9113   29.4908   51.7308 H   0  0  0  0  0  0  0  0  0  0  0  0
   61.7104   29.4721   52.0993 H   0  0  0  0  0  0  0  0  0  0  0  0
   61.6070   31.5650   51.6290 H   0  0  0  0  0  0  0  0  0  0  0  0
   58.9588   30.9499   50.6985 H   0  0  0  0  0  0  0  0  0  0  0  0
   59.5965   32.3690   51.6331 H   0  0  0  0  0  0  0  0  0  0  0  0
   61.1628   33.9898   50.2376 H   0  0  0  0  0  0  0  0  0  0  0  0
   61.0676   35.4275   48.2044 H   0  0  0  0  0  0  0  0  0  0  0  0
   60.1332   35.9128   45.9917 H   0  0  0  0  0  0  0  0  0  0  0  0
   58.5829   35.3195   44.1288 H   0  0  0  0  0  0  0  0  0  0  0  0
   57.1338   33.2957   44.2957 H   0  0  0  0  0  0  0  0  0  0  0  0
   57.2300   31.8462   46.3273 H   0  0  0  0  0  0  0  0  0  0  0  0
   58.1688   31.3575   48.5360 H   0  0  0  0  0  0  0  0  0  0  0  0
   61.9325   32.2417   49.3818 H   0  0  0  0  0  0  0  0  0  0  0  0
   62.8544   30.7496   49.8353 H   0  0  0  0  0  0  0  0  0  0  0  0
   60.3448   30.9814   48.1209 H   0  0  0  0  0  0  0  0  0  0  0  0
   61.9584   30.2890   47.6914 H   0  0  0  0  0  0  0  0  0  0  0  0
   57.5410   27.8973   47.7208 H   0  0  0  0  0  0  0  0  0  0  0  0
   56.1033   28.6738   45.8499 H   0  0  0  0  0  0  0  0  0  0  0  0
  1  2  1  0
  2  3  1  0
  2  4  1  0
  2  5  1  0
  5  6  2  0
  6  7  1  0
  7  8  2  0
  8  9  1  0
  9 10  2  0
  9 11  1  0
 11 12  1  0
 12 13  1  0
 13 14  1  0
 14 15  1  0
 15 16  1  0
 16 17  2  0
 17 18  1  0
 18 19  2  0
 19 20  1  0
 20 21  2  0
 21 22  1  0
 22 23  2  0
 23 24  1  0
 24 25  2  0
 14 26  1  0
 26 27  1  0
  8 28  1  0
 28 29  2  0
 29  5  1  0
 27 11  1  0
 25 16  1  0
 24 19  1  0
  1 30  1  0
  1 31  1  0
  1 32  1  0
  3 33  1  0
  3 34  1  0
  3 35  1  0
  4 36  1  0
  4 37  1  0
  4 38  1  0
  6 39  1  0
  7 40  1  0
 12 41  1  0
 12 42  1  0
 13 43  1  0
 13 44  1  0
 14 45  1  0
 15 46  1  0
 15 47  1  0
 17 48  1  0
 18 49  1  0
 20 50  1  0
 21 51  1  0
 22 52  1  0
 23 53  1  0
 25 54  1  0
 26 55  1  0
 26 56  1  0
 27 57  1  0
 27 58  1  0
 28 59  1  0
 29 60  1  0
M  CHG  1  14   1
M  END
>  <UniqueID>  (71) 
68

>  <SMILES>  (71) 
CC(C)(C)c1ccc(C(=O)N2CC[NH+](Cc3ccc4ccccc4c3)CC2)cc1

>  <Energy>  (71) 
81.34920222348555

>  <Genealogy>  (71) 
CC(C)(C)c1ccc(C(=O)N2CC[NH+](Cc3ccc4ccccc4c3)CC2)cc1 (protonated)
CC(C)(C)c1ccc(C(=O)N2CC[NH+](Cc3ccc4ccccc4c3)CC2)cc1 (3D coordinates assigned)
CC(C)(C)c1ccc(C(=O)N2CC[NH+](Cc3ccc4ccccc4c3)CC2)cc1 (nonaromatic ring conformer: 81.34920222348555 kcal/mol)

>  <smiles>  (71) 
CC(C)(C)c1ccc(C(=O)N2CCN(Cc3ccc4ccccc4c3)CC2)cc1

>  <score_type>  (71) 
oracle

>  <origin>  (71) 
adg

>  <m_score__min__energy>  (71) 
-7.7800000000000002

>  <m_primary>  (71) 
energy

$$$$
71:0
     RDKit          3D

 51 54  0  0  0  0  0  0  0  0999 V2000
   57.5920   29.8350   43.8540 C   0  0  0  0  0  0  0  0  0  0  0  0
   57.9470   29.5610   45.1200 C   0  0  0  0  0  0  0  0  0  0  0  0
   58.1180   28.2840   45.6810 C   0  0  0  0  0  0  0  0  0  0  0  0
   57.7750   27.0630   45.2260 C   0  0  0  0  0  0  0  0  0  0  0  0
   57.1910   25.9790   46.0330 C   0  0  0  0  0  0  0  0  0  0  0  0
   57.8590   24.8880   46.4510 N   0  0  0  0  0  0  0  0  0  0  0  0
   56.8950   24.1310   47.0180 C   0  0  0  0  0  0  0  0  0  0  0  0
   57.1340   23.0150   47.5490 O   0  0  0  0  0  0  0  0  0  0  0  0
   55.6540   24.6580   46.9620 N   0  0  0  0  0  0  0  0  0  0  0  0
   55.8580   25.8210   46.3210 C   0  0  0  0  0  0  0  0  0  0  0  0
   54.8450   26.7160   46.0030 O   0  0  0  0  0  0  0  0  0  0  0  0
   58.7350   28.4790   46.9020 C   0  0  0  0  0  0  0  0  0  0  0  0
   58.8540   29.8410   47.0800 C   0  0  0  0  0  0  0  0  0  0  0  0
   59.4400   30.4660   48.2850 C   0  0  0  0  0  0  0  0  0  0  0  0
   58.8810   30.2790   49.3980 O   0  0  0  0  0  0  0  0  0  0  0  0
   60.6780   31.2840   48.2160 C   0  0  0  0  0  0  0  0  0  0  0  0
   61.6180   31.0570   47.1930 C   0  0  0  0  0  0  0  0  0  0  0  0
   62.8000   31.8010   47.1370 C   0  0  0  0  0  0  0  0  0  0  0  0
   63.0630   32.7730   48.1050 C   0  0  0  0  0  0  0  0  0  0  0  0
   62.1450   33.0010   49.1310 C   0  0  0  0  0  0  0  0  0  0  0  0
   60.9590   32.2630   49.1900 C   0  0  0  0  0  0  0  0  0  0  0  0
   58.3600   30.5070   46.0070 N   0  0  0  0  0  0  0  0  0  0  0  0
   58.4570   31.9590   45.7760 C   0  0  0  0  0  0  0  0  0  0  0  0
   57.9220   32.7430   46.9810 C   0  0  0  0  0  0  0  0  0  0  0  0
   57.8860   34.1930   46.6800 N   0  0  0  0  0  0  0  0  0  0  0  0
   58.9430   34.9380   47.3910 C   0  0  0  0  0  0  0  0  0  0  0  0
   60.3450   34.6320   46.8140 C   0  0  0  0  0  0  0  0  0  0  0  0
   60.2970   34.0090   45.5420 O   0  0  0  0  0  0  0  0  0  0  0  0
   59.3710   34.6750   44.7090 C   0  0  0  0  0  0  0  0  0  0  0  0
   57.9310   34.4750   45.2260 C   0  0  0  0  0  0  0  0  0  0  0  0
   57.4884   30.8797   43.5257 H   0  0  0  0  0  0  0  0  0  0  0  0
   57.4049   29.0147   43.1455 H   0  0  0  0  0  0  0  0  0  0  0  0
   57.9462   26.8584   44.1589 H   0  0  0  0  0  0  0  0  0  0  0  0
   59.0680   27.6963   47.5995 H   0  0  0  0  0  0  0  0  0  0  0  0
   61.4208   30.2880   46.4316 H   0  0  0  0  0  0  0  0  0  0  0  0
   63.5244   31.6207   46.3291 H   0  0  0  0  0  0  0  0  0  0  0  0
   63.9931   33.3584   48.0586 H   0  0  0  0  0  0  0  0  0  0  0  0
   62.3551   33.7635   49.8955 H   0  0  0  0  0  0  0  0  0  0  0  0
   60.2404   32.4477   50.0021 H   0  0  0  0  0  0  0  0  0  0  0  0
   59.5109   32.2276   45.6109 H   0  0  0  0  0  0  0  0  0  0  0  0
   57.8519   32.2153   44.8938 H   0  0  0  0  0  0  0  0  0  0  0  0
   56.9048   32.3964   47.2161 H   0  0  0  0  0  0  0  0  0  0  0  0
   58.5875   32.5737   47.8403 H   0  0  0  0  0  0  0  0  0  0  0  0
   58.7455   36.0159   47.2952 H   0  0  0  0  0  0  0  0  0  0  0  0
   58.9310   34.6275   48.4462 H   0  0  0  0  0  0  0  0  0  0  0  0
   60.8994   35.5774   46.7204 H   0  0  0  0  0  0  0  0  0  0  0  0
   60.8391   33.9325   47.5043 H   0  0  0  0  0  0  0  0  0  0  0  0
   59.6043   35.7499   44.6966 H   0  0  0  0  0  0  0  0  0  0  0  0
   59.4438   34.2572   43.6940 H   0  0  0  0  0  0  0  0  0  0  0  0
   57.3537   35.3897   45.0257 H   0  0  0  0  0  0  0  0  0  0  0  0
   57.5049   33.6062   44.7029 H   0  0  0  0  0  0  0  0  0  0  0  0
  1  2  2  0
  2  3  1  0
  3  4  2  3
  4  5  1  0
  5  6  1  0
  6  7  1  0
  7  8  2  0
  7  9  1  0
  9 10  1  0
 10 11  1  0
  3 12  1  0
 12 13  2  0
 13 14  1  0
 14 15  2  0
 14 16  1  0
 16 17  2  0
 17 18  1  0
 18 19  2  0
 19 20  1  0
 20 21  2  0
 13 22  1  0
 22 23  1  0
 23 24  1  0
 24 25  1  0
 25 26  1  0
 26 27  1  0
 27 28  1  0
 28 29  1  0
 29 30  1  0
 22  2  1  0
 30 25  1  0
 10  5  2  0
 21 16  1  0
  1 31  1  0
  1 32  1  0
  4 33  1  0
 12 34  1  0
 17 35  1  0
 18 36  1  0
 19 37  1  0
 20 38  1  0
 21 39  1  0
 23 40  1  0
 23 41  1  0
 24 42  1  0
 24 43  1  0
 26 44  1  0
 26 45  1  0
 27 46  1  0
 27 47  1  0
 29 48  1  0
 29 49  1  0
 30 50  1  0
 30 51  1  0
M  CHG  3   6  -1   9  -1  11  -1
M  END
>  <UniqueID>  (72) 
69

>  <SMILES>  (72) 
C=c1c(=Cc2[n-]c(=O)[n-]c2[O-])cc(C(=O)c2ccccc2)n1CCN1CCOCC1

>  <Energy>  (72) 
137.77520878638478

>  <Genealogy>  (72) 
C=c1c(=Cc2[n-]c(=O)[n-]c2[O-])cc(C(=O)c2ccccc2)n1CCN1CCOCC1 (protonated)
C=c1c(=Cc2[n-]c(=O)[n-]c2[O-])cc(C(=O)c2ccccc2)n1CCN1CCOCC1 (3D coordinates assigned)
C=c1c(=Cc2[n-]c(=O)[n-]c2[O-])cc(C(=O)c2ccccc2)n1CCN1CCOCC1 (nonaromatic ring conformer: 137.77520878638478 kcal/mol)

>  <smiles>  (72) 
C=c1c(=Cc2[nH]c(=O)[nH]c2O)cc(C(=O)c2ccccc2)n1CCN1CCOCC1

>  <score_type>  (72) 
oracle

>  <origin>  (72) 
adg

>  <m_score__min__energy>  (72) 
-16.739999999999998

>  <m_primary>  (72) 
energy

$$$$
72:0
     RDKit          3D

 43 45  0  0  0  0  0  0  0  0999 V2000
   59.9980   29.4921   44.3884 H   0  0  0  0  0  0  0  0  0  0  0  0
   59.3360   28.6560   44.6580 C   0  0  0  0  0  0  0  0  0  0  0  0
   59.7430   27.3490   45.6410 S   0  0  0  0  0  0  0  0  0  0  0  0
   58.2210   26.6350   45.4990 C   0  0  0  0  0  0  0  0  0  0  0  0
   57.8360   25.5350   46.0770 N   0  0  0  0  0  0  0  0  0  0  0  0
   57.3040   24.3990   45.3820 C   0  0  0  0  0  0  0  0  0  0  0  0
   58.1960   23.4130   44.9390 C   0  0  0  0  0  0  0  0  0  0  0  0
   59.2681   23.5043   45.1675 H   0  0  0  0  0  0  0  0  0  0  0  0
   57.7340   22.3160   44.2100 C   0  0  0  0  0  0  0  0  0  0  0  0
   58.4421   21.5500   43.8611 H   0  0  0  0  0  0  0  0  0  0  0  0
   56.3750   22.1910   43.9240 C   0  0  0  0  0  0  0  0  0  0  0  0
   56.0146   21.3334   43.3370 H   0  0  0  0  0  0  0  0  0  0  0  0
   55.4700   23.1520   44.3810 C   0  0  0  0  0  0  0  0  0  0  0  0
   54.3993   23.0451   44.1526 H   0  0  0  0  0  0  0  0  0  0  0  0
   55.9170   24.2570   45.1320 C   0  0  0  0  0  0  0  0  0  0  0  0
   54.9580   25.1960   45.6510 N   0  0  0  0  0  0  0  0  0  0  0  0
   55.3230   26.3360   46.0090 O   0  0  0  0  0  0  0  0  0  0  0  0
   53.6130   24.9070   45.6370 O   0  0  0  0  0  0  0  0  0  0  0  0
   57.4000   27.3760   44.7250 N   0  0  0  0  0  0  0  0  0  0  0  0
   56.4050   27.1240   44.5250 H   0  0  0  0  0  0  0  0  0  0  0  0
   58.0140   28.4930   44.2460 C   0  0  0  0  0  0  0  0  0  0  0  0
   57.2910   29.5010   43.4060 C   0  0  0  0  0  0  0  0  0  0  0  0
   56.8846   29.0065   42.5114 H   0  0  0  0  0  0  0  0  0  0  0  0
   57.9926   30.2932   43.1057 H   0  0  0  0  0  0  0  0  0  0  0  0
   56.1720   30.1050   44.1900 C   0  0  0  0  0  0  0  0  0  0  0  0
   55.1850   29.3900   44.5110 O   0  0  0  0  0  0  0  0  0  0  0  0
   56.2630   31.4820   44.5920 N   0  0  0  0  0  0  0  0  0  0  0  0
   57.2460   32.0630   45.2170 C   0  0  0  0  0  0  0  0  0  0  0  0
   57.8240   31.5130   46.3040 N   0  0  0  0  0  0  0  0  0  0  0  0
   58.8260   32.2880   46.8040 C   0  0  0  0  0  0  0  0  0  0  0  0
   59.6010   31.8570   48.0100 C   0  0  0  0  0  0  0  0  0  0  0  0
   59.0606   32.1575   48.9198 H   0  0  0  0  0  0  0  0  0  0  0  0
   59.7194   30.7635   47.9982 H   0  0  0  0  0  0  0  0  0  0  0  0
   60.5925   32.3333   47.9982 H   0  0  0  0  0  0  0  0  0  0  0  0
   59.0470   33.4830   46.1020 C   0  0  0  0  0  0  0  0  0  0  0  0
   60.0340   34.5380   46.3910 C   0  0  0  0  0  0  0  0  0  0  0  0
   59.6570   35.6940   46.7250 O   0  0  0  0  0  0  0  0  0  0  0  0
   61.3970   34.2440   46.2830 O   0  0  0  0  0  0  0  0  0  0  0  0
   62.1690   33.7740   47.3820 C   0  0  0  0  0  0  0  0  0  0  0  0
   61.6837   34.0694   48.3239 H   0  0  0  0  0  0  0  0  0  0  0  0
   62.2430   32.6775   47.3358 H   0  0  0  0  0  0  0  0  0  0  0  0
   63.1771   34.2118   47.3358 H   0  0  0  0  0  0  0  0  0  0  0  0
   57.9510   33.5450   44.8250 S   0  0  0  0  0  0  0  0  0  0  0  0
  1  2  1  0
  2  3  1  0
  3  4  1  0
  4  5  2  0
  5  6  1  0
  6  7  2  0
  7  8  1  0
  7  9  1  0
  9 10  1  0
  9 11  2  0
 11 12  1  0
 11 13  1  0
 13 14  1  0
 13 15  2  0
 15 16  1  0
 16 17  2  0
 16 18  1  0
  4 19  1  0
 19 20  1  0
 19 21  1  0
 21 22  1  0
 22 23  1  0
 22 24  1  0
 22 25  1  0
 25 26  2  0
 25 27  1  0
 27 28  2  0
 28 29  1  0
 29 30  1  0
 30 31  1  0
 31 32  1  0
 31 33  1  0
 31 34  1  0
 30 35  2  0
 35 36  1  0
 36 37  2  0
 36 38  1  0
 38 39  1  0
 39 40  1  0
 39 41  1  0
 39 42  1  0
 35 43  1  0
 21  2  2  0
 43 28  1  0
 15  6  1  0
M  CHG  3  16   1  18  -1  29  -1
M  END
>  <UniqueID>  (73) 
70

>  <SMILES>  (73) 
COC(=O)c1s/c(=N\C(=O)Cc2cs/c(=N\c3ccccc3[N+](=O)[O-])[nH]2)[n-]c1C

>  <Energy>  (73) 
114.98560653127899

>  <Genealogy>  (73) 
COC(=O)c1sc(=NC(=O)Cc2csc(=Nc3ccccc3[N+](=O)[O-])[nH]2)[n-]c1C (protonated)
COC(=O)c1s/c(=N\C(=O)Cc2cs/c(=N\c3ccccc3[N+](=O)[O-])[nH]2)[n-]c1C (cis-trans isomerization)
COC(=O)c1s/c(=N\C(=O)Cc2cs/c(=N\c3ccccc3[N+](=O)[O-])[nH]2)[n-]c1C (3D coordinates assigned)
COC(=O)c1s/c(=N\C(=O)Cc2cs/c(=N\c3ccccc3[N+](=O)[O-])[nH]2)[n-]c1C (optimized conformer: 114.98560653127899 kcal/mol)

>  <smiles>  (73) 
COC(=O)c1sc(=NC(=O)Cc2csc(=Nc3ccccc3[N+](=O)[O-])[nH]2)[nH]c1C

>  <score_type>  (73) 
oracle

>  <origin>  (73) 
adg

>  <m_score__min__energy>  (73) 
-11.26

>  <m_primary>  (73) 
energy

$$$$
73:0
     RDKit          3D

 54 57  0  0  0  0  0  0  0  0999 V2000
   54.8350   24.4310   47.6160 H   0  0  0  0  0  0  0  0  0  0  0  0
   55.8460   24.4570   47.5590 O   0  0  0  0  0  0  0  0  0  0  0  0
   56.5240   25.5040   46.9370 C   0  0  0  0  0  0  0  0  0  0  0  0
   57.9060   25.6230   47.1170 C   0  0  0  0  0  0  0  0  0  0  0  0
   58.4407   24.8947   47.7445 H   0  0  0  0  0  0  0  0  0  0  0  0
   58.6110   26.6620   46.5040 C   0  0  0  0  0  0  0  0  0  0  0  0
   59.6961   26.7532   46.6594 H   0  0  0  0  0  0  0  0  0  0  0  0
   57.9410   27.5910   45.6900 C   0  0  0  0  0  0  0  0  0  0  0  0
   58.7010   28.7010   45.0080 C   0  0  0  0  0  0  0  0  0  0  0  0
   59.2457   28.2785   44.1508 H   0  0  0  0  0  0  0  0  0  0  0  0
   59.3840   29.1389   45.7508 H   0  0  0  0  0  0  0  0  0  0  0  0
   57.8020   29.8080   44.5100 C   0  0  0  0  0  0  0  0  0  0  0  0
   57.4490   29.8010   43.3010 O   0  0  0  0  0  0  0  0  0  0  0  0
   57.4000   30.9120   45.3390 N   0  0  0  0  0  0  0  0  0  0  0  0
   58.0080   32.0530   45.5040 C   0  0  0  0  0  0  0  0  0  0  0  0
   57.5390   33.1370   44.8320 N   0  0  0  0  0  0  0  0  0  0  0  0
   58.1200   34.3600   44.9340 C   0  0  0  0  0  0  0  0  0  0  0  0
   57.7079   35.2114   44.3725 H   0  0  0  0  0  0  0  0  0  0  0  0
   59.2370   34.5400   45.7480 C   0  0  0  0  0  0  0  0  0  0  0  0
   59.7201   35.5261   45.8131 H   0  0  0  0  0  0  0  0  0  0  0  0
   59.7430   33.4560   46.4850 C   0  0  0  0  0  0  0  0  0  0  0  0
   60.9390   33.6000   47.3530 C   0  0  0  0  0  0  0  0  0  0  0  0
   60.7930   33.5050   48.7050 N   0  0  0  0  0  0  0  0  0  0  0  0
   61.8330   33.6250   49.5730 C   0  0  0  0  0  0  0  0  0  0  0  0
   61.5920   33.5200   50.8490 N   0  0  0  0  0  0  0  0  0  0  0  0
   61.2200   32.3070   51.5820 C   0  0  0  0  0  0  0  0  0  0  0  0
   60.4961   32.5715   52.3669 H   0  0  0  0  0  0  0  0  0  0  0  0
   62.1319   31.8750   52.0200 H   0  0  0  0  0  0  0  0  0  0  0  0
   60.5960   31.2720   50.6640 C   0  0  0  0  0  0  0  0  0  0  0  0
   61.4020   30.2270   50.1710 C   0  0  0  0  0  0  0  0  0  0  0  0
   62.4650   30.1820   50.4501 H   0  0  0  0  0  0  0  0  0  0  0  0
   60.8670   29.2490   49.3330 C   0  0  0  0  0  0  0  0  0  0  0  0
   61.5122   28.4475   48.9440 H   0  0  0  0  0  0  0  0  0  0  0  0
   59.5180   29.2840   48.9870 C   0  0  0  0  0  0  0  0  0  0  0  0
   59.1023   28.5176   48.3163 H   0  0  0  0  0  0  0  0  0  0  0  0
   58.6940   30.2910   49.4910 C   0  0  0  0  0  0  0  0  0  0  0  0
   57.6288   30.3105   49.2173 H   0  0  0  0  0  0  0  0  0  0  0  0
   59.2110   31.2810   50.3450 C   0  0  0  0  0  0  0  0  0  0  0  0
   58.2770   32.3310   50.8890 C   0  0  0  0  0  0  0  0  0  0  0  0
   58.2986   32.3068   51.9885 H   0  0  0  0  0  0  0  0  0  0  0  0
   58.5964   33.3233   50.5378 H   0  0  0  0  0  0  0  0  0  0  0  0
   57.2542   32.1294   50.5378 H   0  0  0  0  0  0  0  0  0  0  0  0
   63.1250   33.8580   49.0620 C   0  0  0  0  0  0  0  0  0  0  0  0
   63.9834   33.9507   49.7436 H   0  0  0  0  0  0  0  0  0  0  0  0
   63.3050   33.9700   47.6840 C   0  0  0  0  0  0  0  0  0  0  0  0
   64.3088   34.1583   47.2755 H   0  0  0  0  0  0  0  0  0  0  0  0
   62.2160   33.8440   46.8220 C   0  0  0  0  0  0  0  0  0  0  0  0
   62.3562   33.9350   45.7348 H   0  0  0  0  0  0  0  0  0  0  0  0
   59.1130   32.2060   46.3660 C   0  0  0  0  0  0  0  0  0  0  0  0
   59.4818   31.3467   46.9453 H   0  0  0  0  0  0  0  0  0  0  0  0
   56.5500   27.4780   45.5220 C   0  0  0  0  0  0  0  0  0  0  0  0
   56.0131   28.2112   44.9022 H   0  0  0  0  0  0  0  0  0  0  0  0
   55.8440   26.4390   46.1380 C   0  0  0  0  0  0  0  0  0  0  0  0
   54.4710   26.3400   45.9520 O   0  0  0  0  0  0  0  0  0  0  0  0
  1  2  1  0
  2  3  1  0
  3  4  2  0
  4  5  1  0
  4  6  1  0
  6  7  1  0
  6  8  2  0
  8  9  1  0
  9 10  1  0
  9 11  1  0
  9 12  1  0
 12 13  2  0
 12 14  1  0
 14 15  2  3
 15 16  1  0
 16 17  1  0
 17 18  1  0
 17 19  2  0
 19 20  1  0
 19 21  1  0
 21 22  1  0
 22 23  1  0
 23 24  1  0
 24 25  2  0
 25 26  1  0
 26 27  1  0
 26 28  1  0
 26 29  1  0
 29 30  2  0
 30 31  1  0
 30 32  1  0
 32 33  1  0
 32 34  2  0
 34 35  1  0
 34 36  1  0
 36 37  1  0
 36 38  2  0
 38 39  1  0
 39 40  1  0
 39 41  1  0
 39 42  1  0
 24 43  1  0
 43 44  1  0
 43 45  2  0
 45 46  1  0
 45 47  1  0
 47 48  1  0
 21 49  2  0
 49 50  1  0
  8 51  1  0
 51 52  1  0
 51 53  2  0
 53 54  1  0
 53  3  1  0
 49 15  1  0
 47 22  2  0
 38 29  1  0
M  CHG  3  16  -1  23  -1  54  -1
M  END
>  <UniqueID>  (74) 
71

>  <SMILES>  (74) 
Cc1ccccc1C/N=c1\cccc(-c2cc[n-]c(=NC(=O)Cc3ccc(O)c([O-])c3)c2)[n-]1

>  <Energy>  (74) 
75.01296602442707

>  <Genealogy>  (74) 
Cc1ccccc1CN=c1cccc(-c2cc[n-]c(=NC(=O)Cc3ccc(O)c([O-])c3)c2)[n-]1 (protonated)
Cc1ccccc1C/N=c1\cccc(-c2cc[n-]c(=NC(=O)Cc3ccc(O)c([O-])c3)c2)[n-]1 (cis-trans isomerization)
Cc1ccccc1C/N=c1\cccc(-c2cc[n-]c(=NC(=O)Cc3ccc(O)c([O-])c3)c2)[n-]1 (3D coordinates assigned)
Cc1ccccc1C/N=c1\cccc(-c2cc[n-]c(=NC(=O)Cc3ccc(O)c([O-])c3)c2)[n-]1 (optimized conformer: 75.01296602442707 kcal/mol)

>  <smiles>  (74) 
Cc1ccccc1CN=c1cccc(-c2cc[nH]c(=NC(=O)Cc3ccc(O)c(O)c3)c2)[nH]1

>  <score_type>  (74) 
oracle

>  <origin>  (74) 
adg

>  <m_score__min__energy>  (74) 
-15.98

>  <m_primary>  (74) 
energy

$$$$
74:0
     RDKit          3D

 48 51  0  0  0  0  0  0  0  0999 V2000
   57.8020   21.8590   45.1460 C   0  0  0  0  0  0  0  0  0  0  0  0
   56.9020   23.0410   45.3540 C   0  0  0  0  0  0  0  0  0  0  0  0
   55.6190   22.8670   45.8930 C   0  0  0  0  0  0  0  0  0  0  0  0
   54.7910   23.9710   46.1090 C   0  0  0  0  0  0  0  0  0  0  0  0
   55.2420   25.2610   45.8100 C   0  0  0  0  0  0  0  0  0  0  0  0
   54.3800   26.3370   45.9840 O   0  0  0  0  0  0  0  0  0  0  0  0
   56.5480   25.4540   45.3140 C   0  0  0  0  0  0  0  0  0  0  0  0
   57.0460   26.7650   45.0030 N   0  0  0  0  0  0  0  0  0  0  0  0
   58.1160   27.3890   45.7320 C   0  0  0  0  0  0  0  0  0  0  0  0
   58.8660   26.6860   46.4640 O   0  0  0  0  0  0  0  0  0  0  0  0
   58.3800   28.8430   45.6020 C   0  0  0  0  0  0  0  0  0  0  0  0
   59.2680   29.4990   46.4740 C   0  0  0  0  0  0  0  0  0  0  0  0
   59.5160   30.8680   46.3390 C   0  0  0  0  0  0  0  0  0  0  0  0
   58.8850   31.6060   45.3240 C   0  0  0  0  0  0  0  0  0  0  0  0
   59.1110   33.0110   45.1490 N   0  0  0  0  0  0  0  0  0  0  0  0
   58.9090   34.2180   46.3770 S   0  0  0  0  0  0  0  0  0  0  0  0
   59.3610   35.5500   45.8440 O   0  0  0  0  0  0  0  0  0  0  0  0
   57.4650   34.3040   46.7850 O   0  0  0  0  0  0  0  0  0  0  0  0
   59.8750   33.7660   47.7850 C   0  0  0  0  0  0  0  0  0  0  0  0
   59.2460   33.5020   49.0110 C   0  0  0  0  0  0  0  0  0  0  0  0
   60.0000   33.1440   50.1320 C   0  0  0  0  0  0  0  0  0  0  0  0
   61.3890   33.0450   50.0450 C   0  0  0  0  0  0  0  0  0  0  0  0
   62.0360   33.3040   48.8300 C   0  0  0  0  0  0  0  0  0  0  0  0
   63.4290   33.2100   48.7160 C   0  0  0  0  0  0  0  0  0  0  0  0
   64.0460   33.4730   47.4920 C   0  0  0  0  0  0  0  0  0  0  0  0
   63.2650   33.8260   46.3910 C   0  0  0  0  0  0  0  0  0  0  0  0
   61.9130   33.9150   46.5120 N   0  0  0  0  0  0  0  0  0  0  0  0
   61.2770   33.6660   47.6910 C   0  0  0  0  0  0  0  0  0  0  0  0
   58.0090   30.9560   44.4500 C   0  0  0  0  0  0  0  0  0  0  0  0
   57.7590   29.5870   44.5830 C   0  0  0  0  0  0  0  0  0  0  0  0
   57.3630   24.3360   45.0740 C   0  0  0  0  0  0  0  0  0  0  0  0
   58.1091   21.4557   46.1222 H   0  0  0  0  0  0  0  0  0  0  0  0
   57.2638   21.0832   44.5816 H   0  0  0  0  0  0  0  0  0  0  0  0
   58.6930   22.1714   44.5816 H   0  0  0  0  0  0  0  0  0  0  0  0
   55.2635   21.8574   46.1466 H   0  0  0  0  0  0  0  0  0  0  0  0
   53.7795   23.8254   46.5161 H   0  0  0  0  0  0  0  0  0  0  0  0
   56.7470   27.1960   44.1000 H   0  0  0  0  0  0  0  0  0  0  0  0
   59.7716   28.9296   47.2691 H   0  0  0  0  0  0  0  0  0  0  0  0
   60.2085   31.3697   47.0309 H   0  0  0  0  0  0  0  0  0  0  0  0
   58.1515   33.5773   49.0905 H   0  0  0  0  0  0  0  0  0  0  0  0
   59.4957   32.9392   51.0879 H   0  0  0  0  0  0  0  0  0  0  0  0
   61.9765   32.7633   50.9313 H   0  0  0  0  0  0  0  0  0  0  0  0
   64.0356   32.9294   49.5897 H   0  0  0  0  0  0  0  0  0  0  0  0
   65.1395   33.4025   47.3961 H   0  0  0  0  0  0  0  0  0  0  0  0
   63.7438   34.0329   45.4225 H   0  0  0  0  0  0  0  0  0  0  0  0
   57.5123   31.5262   43.6511 H   0  0  0  0  0  0  0  0  0  0  0  0
   57.0710   29.0877   43.8849 H   0  0  0  0  0  0  0  0  0  0  0  0
   58.3732   24.4771   44.6622 H   0  0  0  0  0  0  0  0  0  0  0  0
  1  2  1  0
  2  3  2  0
  3  4  1  0
  4  5  2  0
  5  6  1  0
  5  7  1  0
  7  8  1  0
  8  9  1  0
  9 10  2  0
  9 11  1  0
 11 12  2  0
 12 13  1  0
 13 14  2  0
 14 15  1  0
 15 16  1  0
 16 17  2  0
 16 18  2  0
 16 19  1  0
 19 20  2  0
 20 21  1  0
 21 22  2  0
 22 23  1  0
 23 24  2  0
 24 25  1  0
 25 26  2  0
 26 27  1  0
 27 28  2  0
 14 29  1  0
 29 30  2  0
  7 31  2  0
 31  2  1  0
 30 11  1  0
 28 19  1  0
 28 23  1  0
  1 32  1  0
  1 33  1  0
  1 34  1  0
  3 35  1  0
  4 36  1  0
  8 37  1  0
 12 38  1  0
 13 39  1  0
 20 40  1  0
 21 41  1  0
 22 42  1  0
 24 43  1  0
 25 44  1  0
 26 45  1  0
 29 46  1  0
 30 47  1  0
 31 48  1  0
M  CHG  2   6  -1  15  -1
M  END
>  <UniqueID>  (75) 
72

>  <SMILES>  (75) 
Cc1ccc([O-])c(NC(=O)c2ccc([N-]S(=O)(=O)c3cccc4cccnc34)cc2)c1

>  <Energy>  (75) 
67.49649086266444

>  <Genealogy>  (75) 
Cc1ccc([O-])c(NC(=O)c2ccc([N-]S(=O)(=O)c3cccc4cccnc34)cc2)c1 (protonated)
Cc1ccc([O-])c(NC(=O)c2ccc([N-]S(=O)(=O)c3cccc4cccnc34)cc2)c1 (3D coordinates assigned)
Cc1ccc([O-])c(NC(=O)c2ccc([N-]S(=O)(=O)c3cccc4cccnc34)cc2)c1 (optimized conformer: 67.49649086266444 kcal/mol)

>  <smiles>  (75) 
Cc1ccc(O)c(NC(=O)c2ccc(NS(=O)(=O)c3cccc4cccnc34)cc2)c1

>  <score_type>  (75) 
oracle

>  <origin>  (75) 
adg

>  <m_score__min__energy>  (75) 
-14.48

>  <m_primary>  (75) 
energy

$$$$
75:0
     RDKit          3D

 55 57  0  0  0  0  0  0  0  0999 V2000
   57.9564   34.1372   46.1847 H   0  0  0  0  0  0  0  0  0  0  0  0
   58.1920   33.1280   45.8160 C   0  0  0  0  0  0  0  0  0  0  0  0
   57.3850   32.5420   44.8360 C   0  0  0  0  0  0  0  0  0  0  0  0
   56.5132   33.0883   44.4467 H   0  0  0  0  0  0  0  0  0  0  0  0
   57.6810   31.2620   44.3470 C   0  0  0  0  0  0  0  0  0  0  0  0
   56.7980   30.6190   43.3080 C   0  0  0  0  0  0  0  0  0  0  0  0
   57.4202   29.9820   42.6621 H   0  0  0  0  0  0  0  0  0  0  0  0
   56.3137   31.4250   42.7372 H   0  0  0  0  0  0  0  0  0  0  0  0
   55.7140   29.7760   43.9140 C   0  0  0  0  0  0  0  0  0  0  0  0
   54.5760   29.6930   43.3740 O   0  0  0  0  0  0  0  0  0  0  0  0
   55.9970   29.0380   45.1030 N   0  0  0  0  0  0  0  0  0  0  0  0
   57.1640   28.1770   45.2430 C   0  0  0  0  0  0  0  0  0  0  0  0
   58.0560   28.7947   45.4240 H   0  0  0  0  0  0  0  0  0  0  0  0
   57.3032   27.5944   44.3204 H   0  0  0  0  0  0  0  0  0  0  0  0
   56.9600   27.2470   46.3940 C   0  0  0  0  0  0  0  0  0  0  0  0
   57.7710   27.2700   47.3600 O   0  0  0  0  0  0  0  0  0  0  0  0
   55.8510   26.3360   46.3750 N   0  0  0  0  0  0  0  0  0  0  0  0
   55.8530   25.1370   45.8730 C   0  0  0  0  0  0  0  0  0  0  0  0
   55.1000   24.1150   46.3360 N   0  0  0  0  0  0  0  0  0  0  0  0
   55.3140   22.9690   45.6340 C   0  0  0  0  0  0  0  0  0  0  0  0
   54.5820   21.7100   45.9790 C   0  0  0  0  0  0  0  0  0  0  0  0
   54.5228   21.6082   47.0727 H   0  0  0  0  0  0  0  0  0  0  0  0
   53.5661   21.7496   45.5589 H   0  0  0  0  0  0  0  0  0  0  0  0
   55.1190   20.8468   45.5589 H   0  0  0  0  0  0  0  0  0  0  0  0
   56.2520   23.0840   44.5940 C   0  0  0  0  0  0  0  0  0  0  0  0
   56.6940   22.0310   43.6530 C   0  0  0  0  0  0  0  0  0  0  0  0
   55.9030   21.5800   42.7810 O   0  0  0  0  0  0  0  0  0  0  0  0
   58.0860   21.4830   43.7220 C   0  0  0  0  0  0  0  0  0  0  0  0
   58.3824   21.3663   44.7749 H   0  0  0  0  0  0  0  0  0  0  0  0
   58.1200   20.5044   43.2209 H   0  0  0  0  0  0  0  0  0  0  0  0
   58.7781   22.1758   43.2209 H   0  0  0  0  0  0  0  0  0  0  0  0
   56.8120   24.6750   44.5790 S   0  0  0  0  0  0  0  0  0  0  0  0
   58.7790   30.5630   44.8710 C   0  0  0  0  0  0  0  0  0  0  0  0
   59.0084   29.5511   44.5057 H   0  0  0  0  0  0  0  0  0  0  0  0
   59.5830   31.1460   45.8550 C   0  0  0  0  0  0  0  0  0  0  0  0
   60.4422   30.5897   46.2578 H   0  0  0  0  0  0  0  0  0  0  0  0
   59.3020   32.4380   46.3340 C   0  0  0  0  0  0  0  0  0  0  0  0
   60.1340   33.0420   47.3490 N   0  0  0  0  0  0  0  0  0  0  0  0
   59.8060   32.8960   48.7720 C   0  0  0  0  0  0  0  0  0  0  0  0
   58.7178   32.7821   48.8852 H   0  0  0  0  0  0  0  0  0  0  0  0
   60.3175   32.0078   49.1712 H   0  0  0  0  0  0  0  0  0  0  0  0
   60.2710   34.1370   49.5480 C   0  0  0  0  0  0  0  0  0  0  0  0
   59.6601   34.9948   49.2302 H   0  0  0  0  0  0  0  0  0  0  0  0
   60.1517   33.9113   50.6180 H   0  0  0  0  0  0  0  0  0  0  0  0
   61.7030   34.4740   49.3310 N   0  0  0  0  0  0  0  0  0  0  0  0
   62.5030   34.2210   50.5410 C   0  0  0  0  0  0  0  0  0  0  0  0
   61.8896   34.4150   51.4333 H   0  0  0  0  0  0  0  0  0  0  0  0
   62.8377   33.1732   50.5468 H   0  0  0  0  0  0  0  0  0  0  0  0
   63.3793   34.8859   50.5468 H   0  0  0  0  0  0  0  0  0  0  0  0
   62.3260   33.8160   48.1610 C   0  0  0  0  0  0  0  0  0  0  0  0
   63.2196   34.3853   47.8656 H   0  0  0  0  0  0  0  0  0  0  0  0
   62.5911   32.7873   48.4465 H   0  0  0  0  0  0  0  0  0  0  0  0
   61.3640   33.7490   46.9710 C   0  0  0  0  0  0  0  0  0  0  0  0
   61.1115   34.7706   46.6506 H   0  0  0  0  0  0  0  0  0  0  0  0
   61.8506   33.2052   46.1478 H   0  0  0  0  0  0  0  0  0  0  0  0
  1  2  1  0
  2  3  2  0
  3  4  1  0
  3  5  1  0
  5  6  1  0
  6  7  1  0
  6  8  1  0
  6  9  1  0
  9 10  2  0
  9 11  1  0
 11 12  1  0
 12 13  1  0
 12 14  1  0
 12 15  1  0
 15 16  2  0
 15 17  1  0
 17 18  2  0
 18 19  1  0
 19 20  1  0
 20 21  1  0
 21 22  1  0
 21 23  1  0
 21 24  1  0
 20 25  2  0
 25 26  1  0
 26 27  2  0
 26 28  1  0
 28 29  1  0
 28 30  1  0
 28 31  1  0
 25 32  1  0
  5 33  2  0
 33 34  1  0
 33 35  1  0
 35 36  1  0
 35 37  2  0
 37 38  1  0
 38 39  1  0
 39 40  1  0
 39 41  1  0
 39 42  1  0
 42 43  1  0
 42 44  1  0
 42 45  1  0
 45 46  1  0
 46 47  1  0
 46 48  1  0
 46 49  1  0
 45 50  1  0
 50 51  1  0
 50 52  1  0
 50 53  1  0
 53 54  1  0
 53 55  1  0
 37  2  1  0
 53 38  1  0
 32 18  1  0
M  CHG  2  11  -1  19  -1
M  END
>  <UniqueID>  (76) 
73

>  <SMILES>  (76) 
CC(=O)c1s/c(=N/C(=O)C[N-]C(=O)Cc2ccc(N3CCN(C)CC3)cc2)[n-]c1C

>  <Energy>  (76) 
91.60345427557714

>  <Genealogy>  (76) 
CC(=O)c1sc(=NC(=O)C[N-]C(=O)Cc2ccc(N3CCN(C)CC3)cc2)[n-]c1C (protonated)
CC(=O)c1s/c(=N/C(=O)C[N-]C(=O)Cc2ccc(N3CCN(C)CC3)cc2)[n-]c1C (cis-trans isomerization)
CC(=O)c1s/c(=N/C(=O)C[N-]C(=O)Cc2ccc(N3CCN(C)CC3)cc2)[n-]c1C (3D coordinates assigned)
CC(=O)c1s/c(=N/C(=O)C[N-]C(=O)Cc2ccc(N3CCN(C)CC3)cc2)[n-]c1C (nonaromatic ring conformer: 91.60345427557714 kcal/mol)

>  <smiles>  (76) 
CC(=O)c1sc(=NC(=O)CNC(=O)Cc2ccc(N3CCN(C)CC3)cc2)[nH]c1C

>  <score_type>  (76) 
oracle

>  <origin>  (76) 
adg

>  <m_score__min__energy>  (76) 
-12.98

>  <m_primary>  (76) 
energy

$$$$
76:0
     RDKit          3D

 57 59  0  0  0  0  0  0  0  0999 V2000
   63.0160   34.4530   48.5440 N   0  0  0  0  0  0  0  0  0  0  0  0
   63.3270   33.8740   47.2800 C   0  0  0  0  0  0  0  0  0  0  0  0
   63.3580   34.5960   46.2480 O   0  0  0  0  0  0  0  0  0  0  0  0
   63.6550   32.4160   47.1860 C   0  0  0  0  0  0  0  0  0  0  0  0
   63.1550   31.6690   48.4280 C   0  0  0  0  0  0  0  0  0  0  0  0
   61.6350   31.4050   48.3770 C   0  0  0  0  0  0  0  0  0  0  0  0
   61.0420   30.9240   49.7150 C   0  0  0  0  0  0  0  0  0  0  0  0
   60.6960   29.4250   49.7680 C   0  0  0  0  0  0  0  0  0  0  0  0
   59.7580   28.9540   48.6480 C   0  0  0  0  0  0  0  0  0  0  0  0
   60.5130   28.5770   47.4560 N   0  0  0  0  0  0  0  0  0  0  0  0
   59.9690   27.8550   46.3450 C   0  0  0  0  0  0  0  0  0  0  0  0
   60.7070   27.5450   45.3700 O   0  0  0  0  0  0  0  0  0  0  0  0
   58.5220   27.5470   46.3010 C   0  0  0  0  0  0  0  0  0  0  0  0
   58.0830   26.3240   46.8350 C   0  0  0  0  0  0  0  0  0  0  0  0
   56.7530   25.9210   46.6960 C   0  0  0  0  0  0  0  0  0  0  0  0
   56.3440   24.7000   47.2190 O   0  0  0  0  0  0  0  0  0  0  0  0
   55.8410   26.7390   46.0250 C   0  0  0  0  0  0  0  0  0  0  0  0
   54.5210   26.3270   45.8760 O   0  0  0  0  0  0  0  0  0  0  0  0
   56.2510   27.9730   45.5120 C   0  0  0  0  0  0  0  0  0  0  0  0
   55.3190   28.7840   44.8680 O   0  0  0  0  0  0  0  0  0  0  0  0
   57.5840   28.4000   45.6640 C   0  0  0  0  0  0  0  0  0  0  0  0
   57.9570   29.7520   45.2020 C   0  0  0  0  0  0  0  0  0  0  0  0
   58.5590   30.0170   44.0270 N   0  0  0  0  0  0  0  0  0  0  0  0
   58.7190   31.3300   43.9820 N   0  0  0  0  0  0  0  0  0  0  0  0
   58.2050   31.8160   45.1280 C   0  0  0  0  0  0  0  0  0  0  0  0
   58.1480   33.2480   45.4600 C   0  0  0  0  0  0  0  0  0  0  0  0
   58.0350   34.0840   44.5250 O   0  0  0  0  0  0  0  0  0  0  0  0
   58.1880   33.7300   46.8110 N   0  0  0  0  0  0  0  0  0  0  0  0
   59.3870   33.9670   47.6150 C   0  0  0  0  0  0  0  0  0  0  0  0
   59.2030   33.4830   49.0320 C   0  0  0  0  0  0  0  0  0  0  0  0
   58.3050   32.4420   49.3220 C   0  0  0  0  0  0  0  0  0  0  0  0
   58.1380   31.9990   50.6380 C   0  0  0  0  0  0  0  0  0  0  0  0
   58.8530   32.6020   51.6750 C   0  0  0  0  0  0  0  0  0  0  0  0
   59.7320   33.6530   51.4000 C   0  0  0  0  0  0  0  0  0  0  0  0
   59.9000   34.1000   50.0870 C   0  0  0  0  0  0  0  0  0  0  0  0
   57.7510   30.8490   45.8860 O   0  0  0  0  0  0  0  0  0  0  0  0
   63.7180   34.4650   49.3160 H   0  0  0  0  0  0  0  0  0  0  0  0
   63.1729   31.9940   46.2919 H   0  0  0  0  0  0  0  0  0  0  0  0
   64.7470   32.3019   47.1193 H   0  0  0  0  0  0  0  0  0  0  0  0
   63.6799   30.7048   48.4967 H   0  0  0  0  0  0  0  0  0  0  0  0
   63.3590   32.2993   49.3061 H   0  0  0  0  0  0  0  0  0  0  0  0
   61.1302   32.3392   48.0899 H   0  0  0  0  0  0  0  0  0  0  0  0
   61.4744   30.5980   47.6470 H   0  0  0  0  0  0  0  0  0  0  0  0
   61.7741   31.1341   50.5086 H   0  0  0  0  0  0  0  0  0  0  0  0
   60.0929   31.4648   49.8444 H   0  0  0  0  0  0  0  0  0  0  0  0
   61.6325   28.8524   49.6968 H   0  0  0  0  0  0  0  0  0  0  0  0
   60.1640   29.2575   50.7161 H   0  0  0  0  0  0  0  0  0  0  0  0
   59.1851   28.0838   49.0009 H   0  0  0  0  0  0  0  0  0  0  0  0
   59.0815   29.7811   48.3869 H   0  0  0  0  0  0  0  0  0  0  0  0
   58.7946   25.6767   47.3685 H   0  0  0  0  0  0  0  0  0  0  0  0
   60.2341   33.4319   47.1610 H   0  0  0  0  0  0  0  0  0  0  0  0
   59.5786   35.0499   47.6407 H   0  0  0  0  0  0  0  0  0  0  0  0
   57.7303   31.9730   48.5097 H   0  0  0  0  0  0  0  0  0  0  0  0
   57.4429   31.1749   50.8564 H   0  0  0  0  0  0  0  0  0  0  0  0
   58.7242   32.2494   52.7090 H   0  0  0  0  0  0  0  0  0  0  0  0
   60.2923   34.1289   52.2183 H   0  0  0  0  0  0  0  0  0  0  0  0
   60.5805   34.9384   49.8771 H   0  0  0  0  0  0  0  0  0  0  0  0
  1  2  1  0
  2  3  2  0
  2  4  1  0
  4  5  1  0
  5  6  1  0
  6  7  1  0
  7  8  1  0
  8  9  1  0
  9 10  1  0
 10 11  1  0
 11 12  2  0
 11 13  1  0
 13 14  2  0
 14 15  1  0
 15 16  1  0
 15 17  2  0
 17 18  1  0
 17 19  1  0
 19 20  1  0
 19 21  2  0
 21 22  1  0
 22 23  2  0
 23 24  1  0
 24 25  2  0
 25 26  1  0
 26 27  2  0
 26 28  1  0
 28 29  1  0
 29 30  1  0
 30 31  2  0
 31 32  1  0
 32 33  2  0
 33 34  1  0
 34 35  2  0
 25 36  1  0
 21 13  1  0
 36 22  1  0
 35 30  1  0
  1 37  1  0
  4 38  1  0
  4 39  1  0
  5 40  1  0
  5 41  1  0
  6 42  1  0
  6 43  1  0
  7 44  1  0
  7 45  1  0
  8 46  1  0
  8 47  1  0
  9 48  1  0
  9 49  1  0
 14 50  1  0
 29 51  1  0
 29 52  1  0
 31 53  1  0
 32 54  1  0
 33 55  1  0
 34 56  1  0
 35 57  1  0
M  CHG  6   1  -1  10  -1  16  -1  18  -1  20  -1  28  -1
M  END
>  <UniqueID>  (77) 
74

>  <SMILES>  (77) 
[NH-]C(=O)CCCCCC[N-]C(=O)c1cc([O-])c([O-])c([O-])c1-c1nnc(C(=O)[N-]Cc2ccccc2)o1

>  <Energy>  (77) 
90.8960934393449

>  <Genealogy>  (77) 
[NH-]C(=O)CCCCCC[N-]C(=O)c1cc([O-])c([O-])c([O-])c1-c1nnc(C(=O)[N-]Cc2ccccc2)o1 (protonated)
[NH-]C(=O)CCCCCC[N-]C(=O)c1cc([O-])c([O-])c([O-])c1-c1nnc(C(=O)[N-]Cc2ccccc2)o1 (3D coordinates assigned)
[NH-]C(=O)CCCCCC[N-]C(=O)c1cc([O-])c([O-])c([O-])c1-c1nnc(C(=O)[N-]Cc2ccccc2)o1 (optimized conformer: 90.8960934393449 kcal/mol)

>  <smiles>  (77) 
NC(=O)CCCCCCNC(=O)c1cc(O)c(O)c(O)c1-c1nnc(C(=O)NCc2ccccc2)o1

>  <score_type>  (77) 
oracle

>  <origin>  (77) 
adg

>  <m_score__min__energy>  (77) 
-19.98

>  <m_primary>  (77) 
energy

$$$$
77:0
     RDKit          3D

 57 61  0  0  0  0  0  0  0  0999 V2000
   60.0348   27.0394   46.1864 H   0  0  0  0  0  0  0  0  0  0  0  0
   58.9390   26.9530   46.1450 C   0  0  0  0  0  0  0  0  0  0  0  0
   58.1990   27.9520   45.5960 N   0  0  0  0  0  0  0  0  0  0  0  0
   56.8390   27.8870   45.5190 C   0  0  0  0  0  0  0  0  0  0  0  0
   56.1490   28.8600   44.9940 N   0  0  0  0  0  0  0  0  0  0  0  0
   56.5730   29.7060   43.9120 C   0  0  0  0  0  0  0  0  0  0  0  0
   56.3750   29.3160   42.7300 O   0  0  0  0  0  0  0  0  0  0  0  0
   57.2830   30.9870   44.1450 C   0  0  0  0  0  0  0  0  0  0  0  0
   57.4920   31.8940   43.0900 C   0  0  0  0  0  0  0  0  0  0  0  0
   57.1174   31.6566   42.0834 H   0  0  0  0  0  0  0  0  0  0  0  0
   58.1720   33.0940   43.3120 C   0  0  0  0  0  0  0  0  0  0  0  0
   58.3398   33.7925   42.4789 H   0  0  0  0  0  0  0  0  0  0  0  0
   58.6390   33.4080   44.5900 C   0  0  0  0  0  0  0  0  0  0  0  0
   59.1833   34.3490   44.7580 H   0  0  0  0  0  0  0  0  0  0  0  0
   58.4170   32.5280   45.6620 C   0  0  0  0  0  0  0  0  0  0  0  0
   58.8820   32.8570   46.9830 N   0  0  0  0  0  0  0  0  0  0  0  0
   58.2290   32.2090   48.1360 C   0  0  0  0  0  0  0  0  0  0  0  0
   57.2461   32.6733   48.3041 H   0  0  0  0  0  0  0  0  0  0  0  0
   58.1086   31.1368   47.9220 H   0  0  0  0  0  0  0  0  0  0  0  0
   59.0670   32.3680   49.3670 C   0  0  0  0  0  0  0  0  0  0  0  0
   58.8890   31.8890   50.6560 C   0  0  0  0  0  0  0  0  0  0  0  0
   57.8120   31.0050   51.1400 C   0  0  0  0  0  0  0  0  0  0  0  0
   58.0140   29.7630   51.2230 O   0  0  0  0  0  0  0  0  0  0  0  0
   56.5260   31.5550   51.4750 N   0  0  0  0  0  0  0  0  0  0  0  0
   56.2850   32.5050   51.1090 H   0  0  0  0  0  0  0  0  0  0  0  0
   55.4960   30.8160   52.1540 C   0  0  0  0  0  0  0  0  0  0  0  0
   54.1860   30.8380   51.6510 C   0  0  0  0  0  0  0  0  0  0  0  0
   53.9588   31.4108   50.7398 H   0  0  0  0  0  0  0  0  0  0  0  0
   53.1670   30.1340   52.3040 C   0  0  0  0  0  0  0  0  0  0  0  0
   52.1466   30.1381   51.8932 H   0  0  0  0  0  0  0  0  0  0  0  0
   53.4440   29.4260   53.4770 C   0  0  0  0  0  0  0  0  0  0  0  0
   52.6435   28.8670   53.9837 H   0  0  0  0  0  0  0  0  0  0  0  0
   54.7390   29.4280   54.0070 C   0  0  0  0  0  0  0  0  0  0  0  0
   54.9520   28.8871   54.9409 H   0  0  0  0  0  0  0  0  0  0  0  0
   55.7630   30.1180   53.3490 C   0  0  0  0  0  0  0  0  0  0  0  0
   56.7808   30.1157   53.7661 H   0  0  0  0  0  0  0  0  0  0  0  0
   59.8770   32.3680   51.4440 N   0  0  0  0  0  0  0  0  0  0  0  0
   60.6580   33.1350   50.6950 N   0  0  0  0  0  0  0  0  0  0  0  0
   61.8410   33.8270   51.1920 C   0  0  0  0  0  0  0  0  0  0  0  0
   61.8334   33.8225   52.2920 H   0  0  0  0  0  0  0  0  0  0  0  0
   62.7446   33.3151   50.8295 H   0  0  0  0  0  0  0  0  0  0  0  0
   61.8376   34.8656   50.8295 H   0  0  0  0  0  0  0  0  0  0  0  0
   60.1750   33.1700   49.4380 C   0  0  0  0  0  0  0  0  0  0  0  0
   60.7600   33.8800   48.2570 C   0  0  0  0  0  0  0  0  0  0  0  0
   61.1507   34.8578   48.5753 H   0  0  0  0  0  0  0  0  0  0  0  0
   61.5762   33.2743   47.8363 H   0  0  0  0  0  0  0  0  0  0  0  0
   59.6770   34.0870   47.1860 C   0  0  0  0  0  0  0  0  0  0  0  0
   59.0068   34.8984   47.5060 H   0  0  0  0  0  0  0  0  0  0  0  0
   60.1708   34.3425   46.2369 H   0  0  0  0  0  0  0  0  0  0  0  0
   57.7330   31.3230   45.4340 C   0  0  0  0  0  0  0  0  0  0  0  0
   57.5474   30.6352   46.2721 H   0  0  0  0  0  0  0  0  0  0  0  0
   56.1710   26.7680   46.0400 C   0  0  0  0  0  0  0  0  0  0  0  0
   54.7840   26.6800   45.9970 O   0  0  0  0  0  0  0  0  0  0  0  0
   56.9150   25.7300   46.6070 C   0  0  0  0  0  0  0  0  0  0  0  0
   56.4043   24.8449   47.0142 H   0  0  0  0  0  0  0  0  0  0  0  0
   58.3090   25.8180   46.6560 C   0  0  0  0  0  0  0  0  0  0  0  0
   58.9028   25.0014   47.0926 H   0  0  0  0  0  0  0  0  0  0  0  0
  1  2  1  0
  2  3  1  0
  3  4  1  0
  4  5  2  0
  5  6  1  0
  6  7  2  0
  6  8  1  0
  8  9  2  0
  9 10  1  0
  9 11  1  0
 11 12  1  0
 11 13  2  0
 13 14  1  0
 13 15  1  0
 15 16  1  0
 16 17  1  0
 17 18  1  0
 17 19  1  0
 17 20  1  0
 20 21  1  0
 21 22  1  0
 22 23  2  0
 22 24  1  0
 24 25  1  0
 24 26  1  0
 26 27  2  0
 27 28  1  0
 27 29  1  0
 29 30  1  0
 29 31  2  0
 31 32  1  0
 31 33  1  0
 33 34  1  0
 33 35  2  0
 35 36  1  0
 21 37  2  0
 37 38  1  0
 38 39  1  0
 39 40  1  0
 39 41  1  0
 39 42  1  0
 38 43  1  0
 43 44  1  0
 44 45  1  0
 44 46  1  0
 44 47  1  0
 47 48  1  0
 47 49  1  0
 15 50  2  0
 50 51  1  0
  4 52  1  0
 52 53  1  0
 52 54  2  0
 54 55  1  0
 54 56  1  0
 56 57  1  0
 56  2  2  0
 50  8  1  0
 47 16  1  0
 43 20  2  0
 35 26  1  0
M  CHG  2   3  -1  53  -1
M  END
>  <UniqueID>  (78) 
75

>  <SMILES>  (78) 
Cn1nc(C(=O)Nc2ccccc2)c2c1CCN(c1cccc(C(=O)/N=c3\[n-]cccc3[O-])c1)C2

>  <Energy>  (78) 
112.43962887349791

>  <Genealogy>  (78) 
Cn1nc(C(=O)Nc2ccccc2)c2c1CCN(c1cccc(C(=O)N=c3[n-]cccc3[O-])c1)C2 (protonated)
Cn1nc(C(=O)Nc2ccccc2)c2c1CCN(c1cccc(C(=O)/N=c3\[n-]cccc3[O-])c1)C2 (cis-trans isomerization)
Cn1nc(C(=O)Nc2ccccc2)c2c1CCN(c1cccc(C(=O)/N=c3\[n-]cccc3[O-])c1)C2 (3D coordinates assigned)
Cn1nc(C(=O)Nc2ccccc2)c2c1CCN(c1cccc(C(=O)/N=c3\[n-]cccc3[O-])c1)C2 (nonaromatic ring conformer: 112.43962887349791 kcal/mol)

>  <smiles>  (78) 
Cn1nc(C(=O)Nc2ccccc2)c2c1CCN(c1cccc(C(=O)N=c3[nH]cccc3O)c1)C2

>  <score_type>  (78) 
oracle

>  <origin>  (78) 
adg

>  <m_score__min__energy>  (78) 
-15.970000000000001

>  <m_primary>  (78) 
energy

$$$$
78:0
     RDKit          3D

 55 58  0  0  0  0  0  0  0  0999 V2000
   58.2448   21.7773   43.9807 H   0  0  0  0  0  0  0  0  0  0  0  0
   57.8640   22.7220   44.3960 C   0  0  0  0  0  0  0  0  0  0  0  0
   56.6670   23.2610   43.9220 C   0  0  0  0  0  0  0  0  0  0  0  0
   56.1036   22.7383   43.1350 H   0  0  0  0  0  0  0  0  0  0  0  0
   56.1820   24.4640   44.4450 C   0  0  0  0  0  0  0  0  0  0  0  0
   55.2405   24.8860   44.0636 H   0  0  0  0  0  0  0  0  0  0  0  0
   56.8920   25.1380   45.4570 C   0  0  0  0  0  0  0  0  0  0  0  0
   56.3910   26.4200   46.0010 C   0  0  0  0  0  0  0  0  0  0  0  0
   55.1540   26.6730   45.9860 O   0  0  0  0  0  0  0  0  0  0  0  0
   57.3010   27.3660   46.5710 N   0  0  0  0  0  0  0  0  0  0  0  0
   57.4780   28.6870   46.0510 C   0  0  0  0  0  0  0  0  0  0  0  0
   58.4430   29.5640   46.5830 C   0  0  0  0  0  0  0  0  0  0  0  0
   59.3270   29.1590   47.7250 C   0  0  0  0  0  0  0  0  0  0  0  0
   58.8252   29.3889   48.6765 H   0  0  0  0  0  0  0  0  0  0  0  0
   59.5280   28.0790   47.6680 H   0  0  0  0  0  0  0  0  0  0  0  0
   60.2761   29.7121   47.6680 H   0  0  0  0  0  0  0  0  0  0  0  0
   58.5730   30.8150   46.0610 N   0  0  0  0  0  0  0  0  0  0  0  0
   57.8020   31.2680   45.0360 C   0  0  0  0  0  0  0  0  0  0  0  0
   57.9870   32.4890   44.6190 N   0  0  0  0  0  0  0  0  0  0  0  0
   57.5980   33.7070   45.2770 C   0  0  0  0  0  0  0  0  0  0  0  0
   56.5870   34.3490   44.8710 O   0  0  0  0  0  0  0  0  0  0  0  0
   58.4490   34.2620   46.3060 N   0  0  0  0  0  0  0  0  0  0  0  0
   58.0470   35.1950   46.5660 H   0  0  0  0  0  0  0  0  0  0  0  0
   59.8240   34.5150   45.7860 C   0  0  0  0  0  0  0  0  0  0  0  0
   59.7859   34.5321   44.6868 H   0  0  0  0  0  0  0  0  0  0  0  0
   60.1612   35.4771   46.1991 H   0  0  0  0  0  0  0  0  0  0  0  0
   60.8340   33.4470   46.2240 C   0  0  0  0  0  0  0  0  0  0  0  0
   60.5507   32.4752   45.7935 H   0  0  0  0  0  0  0  0  0  0  0  0
   61.8384   33.7239   45.8713 H   0  0  0  0  0  0  0  0  0  0  0  0
   60.8370   33.3520   47.6870 N   0  0  0  0  0  0  0  0  0  0  0  0
   62.0340   32.9700   48.3800 C   0  0  0  0  0  0  0  0  0  0  0  0
   61.9640   32.0880   49.4690 C   0  0  0  0  0  0  0  0  0  0  0  0
   60.9892   31.6975   49.7965 H   0  0  0  0  0  0  0  0  0  0  0  0
   63.1290   31.7040   50.1390 C   0  0  0  0  0  0  0  0  0  0  0  0
   63.0699   31.0114   50.9915 H   0  0  0  0  0  0  0  0  0  0  0  0
   64.3700   32.2000   49.7260 C   0  0  0  0  0  0  0  0  0  0  0  0
   65.2866   31.8946   50.2519 H   0  0  0  0  0  0  0  0  0  0  0  0
   64.4460   33.0830   48.6460 C   0  0  0  0  0  0  0  0  0  0  0  0
   65.4223   33.4753   48.3252 H   0  0  0  0  0  0  0  0  0  0  0  0
   63.2830   33.4690   47.9720 C   0  0  0  0  0  0  0  0  0  0  0  0
   63.3670   34.3400   46.9360 F   0  0  0  0  0  0  0  0  0  0  0  0
   59.5970   33.5920   48.4330 C   0  0  0  0  0  0  0  0  0  0  0  0
   59.5341   32.8839   49.2724 H   0  0  0  0  0  0  0  0  0  0  0  0
   59.5992   34.6238   48.8144 H   0  0  0  0  0  0  0  0  0  0  0  0
   58.3850   33.3980   47.5130 C   0  0  0  0  0  0  0  0  0  0  0  0
   58.3483   32.3461   47.1934 H   0  0  0  0  0  0  0  0  0  0  0  0
   57.4845   33.6776   48.0795 H   0  0  0  0  0  0  0  0  0  0  0  0
   56.8120   30.4190   44.4990 C   0  0  0  0  0  0  0  0  0  0  0  0
   56.1703   30.7678   43.6764 H   0  0  0  0  0  0  0  0  0  0  0  0
   56.6520   29.1340   45.0180 C   0  0  0  0  0  0  0  0  0  0  0  0
   55.8732   28.4714   44.6124 H   0  0  0  0  0  0  0  0  0  0  0  0
   58.0970   24.5830   45.9280 C   0  0  0  0  0  0  0  0  0  0  0  0
   58.6635   25.0973   46.7183 H   0  0  0  0  0  0  0  0  0  0  0  0
   58.5780   23.3830   45.3980 C   0  0  0  0  0  0  0  0  0  0  0  0
   59.5215   22.9578   45.7709 H   0  0  0  0  0  0  0  0  0  0  0  0
  1  2  1  0
  2  3  2  0
  3  4  1  0
  3  5  1  0
  5  6  1  0
  5  7  2  0
  7  8  1  0
  8  9  2  0
  8 10  1  0
 10 11  1  0
 11 12  2  0
 12 13  1  0
 13 14  1  0
 13 15  1  0
 13 16  1  0
 12 17  1  0
 17 18  1  0
 18 19  2  0
 19 20  1  0
 20 21  2  0
 20 22  1  0
 22 23  1  0
 22 24  1  0
 24 25  1  0
 24 26  1  0
 24 27  1  0
 27 28  1  0
 27 29  1  0
 27 30  1  0
 30 31  1  0
 31 32  2  0
 32 33  1  0
 32 34  1  0
 34 35  1  0
 34 36  2  0
 36 37  1  0
 36 38  1  0
 38 39  1  0
 38 40  2  0
 40 41  1  0
 30 42  1  0
 42 43  1  0
 42 44  1  0
 42 45  1  0
 45 46  1  0
 45 47  1  0
 18 48  1  0
 48 49  1  0
 48 50  2  0
 50 51  1  0
  7 52  1  0
 52 53  1  0
 52 54  2  0
 54 55  1  0
 54  2  1  0
 50 11  1  0
 45 22  1  0
 40 31  1  0
M  CHG  3  10  -1  17  -1  22   1
M  END
>  <UniqueID>  (79) 
76

>  <SMILES>  (79) 
Cc1[n-]/c(=N/C(=O)[NH+]2CCN(c3ccccc3F)CC2)ccc1[N-]C(=O)c1ccccc1

>  <Energy>  (79) 
88.68544628149822

>  <Genealogy>  (79) 
Cc1[n-]c(=NC(=O)[NH+]2CCN(c3ccccc3F)CC2)ccc1[N-]C(=O)c1ccccc1 (protonated)
Cc1[n-]/c(=N/C(=O)[NH+]2CCN(c3ccccc3F)CC2)ccc1[N-]C(=O)c1ccccc1 (cis-trans isomerization)
Cc1[n-]/c(=N/C(=O)[NH+]2CCN(c3ccccc3F)CC2)ccc1[N-]C(=O)c1ccccc1 (3D coordinates assigned)
Cc1[n-]/c(=N/C(=O)[NH+]2CCN(c3ccccc3F)CC2)ccc1[N-]C(=O)c1ccccc1 (nonaromatic ring conformer: 88.68544628149822 kcal/mol)

>  <smiles>  (79) 
Cc1[nH]c(=NC(=O)N2CCN(c3ccccc3F)CC2)ccc1NC(=O)c1ccccc1

>  <score_type>  (79) 
oracle

>  <origin>  (79) 
adg

>  <m_score__min__energy>  (79) 
-10.460000000000001

>  <m_primary>  (79) 
energy

$$$$
79:0
     RDKit          3D

 47 50  0  0  0  0  0  0  0  0999 V2000
   59.8820   27.8220   48.5660 C   0  0  0  0  0  0  0  0  0  0  0  0
   59.4720   28.9590   47.9820 C   0  0  0  0  0  0  0  0  0  0  0  0
   58.7720   29.0830   46.7690 C   0  0  0  0  0  0  0  0  0  0  0  0
   58.4690   28.1740   45.8220 C   0  0  0  0  0  0  0  0  0  0  0  0
   57.3970   27.1720   45.9050 C   0  0  0  0  0  0  0  0  0  0  0  0
   57.5880   25.6220   46.5290 S   0  0  0  0  0  0  0  0  0  0  0  0
   55.9440   25.2860   46.4200 C   0  0  0  0  0  0  0  0  0  0  0  0
   55.4220   24.1880   46.7470 O   0  0  0  0  0  0  0  0  0  0  0  0
   55.2290   26.3300   45.9510 N   0  0  0  0  0  0  0  0  0  0  0  0
   56.0360   27.3890   45.6800 C   0  0  0  0  0  0  0  0  0  0  0  0
   55.5220   28.6000   45.2330 O   0  0  0  0  0  0  0  0  0  0  0  0
   58.4210   30.4170   46.6590 C   0  0  0  0  0  0  0  0  0  0  0  0
   58.9450   31.0610   47.7590 C   0  0  0  0  0  0  0  0  0  0  0  0
   58.8120   32.5030   48.0030 C   0  0  0  0  0  0  0  0  0  0  0  0
   58.5750   32.9200   49.1680 O   0  0  0  0  0  0  0  0  0  0  0  0
   59.0080   33.4380   46.9440 N   0  0  0  0  0  0  0  0  0  0  0  0
   59.5300   33.4360   45.5640 C   0  0  0  0  0  0  0  0  0  0  0  0
   59.4190   34.9100   45.3520 C   0  0  0  0  0  0  0  0  0  0  0  0
   58.8990   34.8940   46.7520 C   0  0  0  0  0  0  0  0  0  0  0  0
   59.5940   30.1840   48.5620 N   0  0  0  0  0  0  0  0  0  0  0  0
   60.3990   30.5310   49.7430 C   0  0  0  0  0  0  0  0  0  0  0  0
   61.8920   30.4380   49.4130 C   0  0  0  0  0  0  0  0  0  0  0  0
   62.3540   31.6830   48.7040 C   0  0  0  0  0  0  0  0  0  0  0  0
   63.0530   31.5870   47.4890 C   0  0  0  0  0  0  0  0  0  0  0  0
   63.5110   32.7430   46.8490 C   0  0  0  0  0  0  0  0  0  0  0  0
   63.2860   33.9970   47.4220 C   0  0  0  0  0  0  0  0  0  0  0  0
   62.6040   34.0990   48.6380 C   0  0  0  0  0  0  0  0  0  0  0  0
   62.1420   32.9460   49.2810 C   0  0  0  0  0  0  0  0  0  0  0  0
   60.4246   27.8594   49.5221 H   0  0  0  0  0  0  0  0  0  0  0  0
   59.6754   26.8529   48.0884 H   0  0  0  0  0  0  0  0  0  0  0  0
   59.0776   28.1825   44.9058 H   0  0  0  0  0  0  0  0  0  0  0  0
   57.8356   30.8757   45.8485 H   0  0  0  0  0  0  0  0  0  0  0  0
   60.5672   33.0749   45.5027 H   0  0  0  0  0  0  0  0  0  0  0  0
   59.0225   32.7852   44.8368 H   0  0  0  0  0  0  0  0  0  0  0  0
   60.3708   35.4415   45.2051 H   0  0  0  0  0  0  0  0  0  0  0  0
   58.8894   35.3708   44.5051 H   0  0  0  0  0  0  0  0  0  0  0  0
   59.5343   35.4624   47.4472 H   0  0  0  0  0  0  0  0  0  0  0  0
   57.9126   35.3491   46.9247 H   0  0  0  0  0  0  0  0  0  0  0  0
   60.1597   31.5578   50.0566 H   0  0  0  0  0  0  0  0  0  0  0  0
   60.1668   29.8260   50.5548 H   0  0  0  0  0  0  0  0  0  0  0  0
   62.4623   30.3202   50.3462 H   0  0  0  0  0  0  0  0  0  0  0  0
   62.0576   29.5720   48.7553 H   0  0  0  0  0  0  0  0  0  0  0  0
   63.2404   30.6004   47.0402 H   0  0  0  0  0  0  0  0  0  0  0  0
   64.0493   32.6647   45.8929 H   0  0  0  0  0  0  0  0  0  0  0  0
   63.6458   34.9050   46.9159 H   0  0  0  0  0  0  0  0  0  0  0  0
   62.4305   35.0869   49.0896 H   0  0  0  0  0  0  0  0  0  0  0  0
   61.6113   33.0285   50.2410 H   0  0  0  0  0  0  0  0  0  0  0  0
  1  2  2  0
  2  3  1  0
  3  4  2  3
  4  5  1  0
  5  6  1  0
  6  7  1  0
  7  8  2  0
  7  9  1  0
  9 10  1  0
 10 11  1  0
  3 12  1  0
 12 13  2  0
 13 14  1  0
 14 15  2  0
 14 16  1  0
 16 17  1  0
 17 18  1  0
 18 19  1  0
 13 20  1  0
 20 21  1  0
 21 22  1  0
 22 23  1  0
 23 24  2  0
 24 25  1  0
 25 26  2  0
 26 27  1  0
 27 28  2  0
 20  2  1  0
 28 23  1  0
 10  5  2  0
 19 16  1  0
  1 29  1  0
  1 30  1  0
  4 31  1  0
 12 32  1  0
 17 33  1  0
 17 34  1  0
 18 35  1  0
 18 36  1  0
 19 37  1  0
 19 38  1  0
 21 39  1  0
 21 40  1  0
 22 41  1  0
 22 42  1  0
 24 43  1  0
 25 44  1  0
 26 45  1  0
 27 46  1  0
 28 47  1  0
M  CHG  2   9  -1  11  -1
M  END
>  <UniqueID>  (80) 
77

>  <SMILES>  (80) 
C=c1c(=Cc2sc(=O)[n-]c2[O-])cc(C(=O)N2CCC2)n1CCc1ccccc1

>  <Energy>  (80) 
167.2259352464418

>  <Genealogy>  (80) 
C=c1c(=Cc2sc(=O)[n-]c2[O-])cc(C(=O)N2CCC2)n1CCc1ccccc1 (protonated)
C=c1c(=Cc2sc(=O)[n-]c2[O-])cc(C(=O)N2CCC2)n1CCc1ccccc1 (3D coordinates assigned)
C=c1c(=Cc2sc(=O)[n-]c2[O-])cc(C(=O)N2CCC2)n1CCc1ccccc1 (nonaromatic ring conformer: 167.2259352464418 kcal/mol)

>  <smiles>  (80) 
C=c1c(=Cc2sc(=O)[nH]c2O)cc(C(=O)N2CCC2)n1CCc1ccccc1

>  <score_type>  (80) 
oracle

>  <origin>  (80) 
adg

>  <m_score__min__energy>  (80) 
-14.6

>  <m_primary>  (80) 
energy

$$$$
80:0
     RDKit          3D

 39 40  0  0  0  0  0  0  0  0999 V2000
   59.0569   36.0814   45.1321 H   0  0  0  0  0  0  0  0  0  0  0  0
   59.2390   35.0020   45.2410 C   0  0  0  0  0  0  0  0  0  0  0  0
   60.1977   34.6439   45.6443 H   0  0  0  0  0  0  0  0  0  0  0  0
   58.3000   34.1300   44.8850 C   0  0  0  0  0  0  0  0  0  0  0  0
   57.3440   34.4961   44.4825 H   0  0  0  0  0  0  0  0  0  0  0  0
   58.5240   32.6750   45.0230 C   0  0  0  0  0  0  0  0  0  0  0  0
   59.2345   32.3316   45.7894 H   0  0  0  0  0  0  0  0  0  0  0  0
   57.9090   31.7430   44.2650 C   0  0  0  0  0  0  0  0  0  0  0  0
   57.4370   30.4820   44.8960 C   0  0  0  0  0  0  0  0  0  0  0  0
   56.2150   30.1730   44.8400 O   0  0  0  0  0  0  0  0  0  0  0  0
   58.3520   29.6370   45.6130 N   0  0  0  0  0  0  0  0  0  0  0  0
   59.2090   30.0790   46.0190 H   0  0  0  0  0  0  0  0  0  0  0  0
   58.0910   28.2590   45.9280 C   0  0  0  0  0  0  0  0  0  0  0  0
   59.1080   27.4760   46.4950 C   0  0  0  0  0  0  0  0  0  0  0  0
   60.0887   27.9264   46.7081 H   0  0  0  0  0  0  0  0  0  0  0  0
   58.8850   26.1290   46.7910 C   0  0  0  0  0  0  0  0  0  0  0  0
   59.6911   25.5264   47.2348 H   0  0  0  0  0  0  0  0  0  0  0  0
   57.6400   25.5400   46.5260 C   0  0  0  0  0  0  0  0  0  0  0  0
   57.4270   24.1050   46.8170 C   0  0  0  0  0  0  0  0  0  0  0  0
   57.1690   23.7470   48.1040 N   0  0  0  0  0  0  0  0  0  0  0  0
   56.9940   22.4500   48.4610 C   0  0  0  0  0  0  0  0  0  0  0  0
   56.6930   22.0670   50.0190 S   0  0  0  0  0  0  0  0  0  0  0  0
   57.0630   21.4740   47.5250 N   0  0  0  0  0  0  0  0  0  0  0  0
   57.3070   21.7690   46.2220 C   0  0  0  0  0  0  0  0  0  0  0  0
   57.3571   20.9603   45.4780 H   0  0  0  0  0  0  0  0  0  0  0  0
   57.4960   23.1030   45.8190 C   0  0  0  0  0  0  0  0  0  0  0  0
   57.6590   23.4470   44.3820 C   0  0  0  0  0  0  0  0  0  0  0  0
   58.6773   23.5881   43.9908 H   0  0  0  0  0  0  0  0  0  0  0  0
   56.6330   23.5930   43.5440 C   0  0  0  0  0  0  0  0  0  0  0  0
   56.8159   23.8484   42.4898 H   0  0  0  0  0  0  0  0  0  0  0  0
   55.6033   23.4581   43.9065 H   0  0  0  0  0  0  0  0  0  0  0  0
   56.6340   26.3110   45.9180 C   0  0  0  0  0  0  0  0  0  0  0  0
   55.6653   25.8508   45.6736 H   0  0  0  0  0  0  0  0  0  0  0  0
   56.8570   27.6590   45.6220 C   0  0  0  0  0  0  0  0  0  0  0  0
   56.0626   28.2534   45.1471 H   0  0  0  0  0  0  0  0  0  0  0  0
   57.7070   31.9430   42.7830 C   0  0  0  0  0  0  0  0  0  0  0  0
   56.9341   32.7082   42.6183 H   0  0  0  0  0  0  0  0  0  0  0  0
   58.6517   32.2715   42.3252 H   0  0  0  0  0  0  0  0  0  0  0  0
   57.3879   30.9951   42.3252 H   0  0  0  0  0  0  0  0  0  0  0  0
  1  2  1  0
  2  3  1  0
  2  4  2  0
  4  5  1  0
  4  6  1  0
  6  7  1  0
  6  8  2  0
  8  9  1  0
  9 10  2  0
  9 11  1  0
 11 12  1  0
 11 13  1  0
 13 14  2  0
 14 15  1  0
 14 16  1  0
 16 17  1  0
 16 18  2  0
 18 19  1  0
 19 20  2  0
 20 21  1  0
 21 22  2  0
 21 23  1  0
 23 24  1  0
 24 25  1  0
 24 26  2  0
 26 27  1  0
 27 28  1  0
 27 29  2  0
 29 30  1  0
 29 31  1  0
 18 32  1  0
 32 33  1  0
 32 34  2  0
 34 35  1  0
  8 36  1  0
 36 37  1  0
 36 38  1  0
 36 39  1  0
 34 13  1  0
 26 19  1  0
M  CHG  1  23  -1
M  END
>  <UniqueID>  (81) 
78

>  <SMILES>  (81) 
C=C/C=C(\C)C(=O)Nc1ccc(-c2nc(=S)[n-]cc2C=C)cc1

>  <Energy>  (81) 
52.53179847278495

>  <Genealogy>  (81) 
C=CC=C(C)C(=O)Nc1ccc(-c2nc(=S)[n-]cc2C=C)cc1 (protonated)
C=C/C=C(\C)C(=O)Nc1ccc(-c2nc(=S)[n-]cc2C=C)cc1 (cis-trans isomerization)
C=C/C=C(\C)C(=O)Nc1ccc(-c2nc(=S)[n-]cc2C=C)cc1 (3D coordinates assigned)
C=C/C=C(\C)C(=O)Nc1ccc(-c2nc(=S)[n-]cc2C=C)cc1 (optimized conformer: 52.53179847278495 kcal/mol)

>  <smiles>  (81) 
C=CC=C(C)C(=O)Nc1ccc(-c2nc(=S)[nH]cc2C=C)cc1

>  <score_type>  (81) 
oracle

>  <origin>  (81) 
adg

>  <m_score__min__energy>  (81) 
-8.9600000000000009

>  <m_primary>  (81) 
energy

$$$$
81:0
     RDKit          3D

 66 70  0  0  0  0  0  0  0  0999 V2000
   56.2690   21.8120   42.8900 C   0  0  0  0  0  0  0  0  0  0  0  0
   56.4170   22.9160   43.8500 N   0  0  0  0  0  0  0  0  0  0  0  0
   57.7790   23.4670   43.7900 C   0  0  0  0  0  0  0  0  0  0  0  0
   57.8390   24.7370   44.6320 C   0  0  0  0  0  0  0  0  0  0  0  0
   57.3250   24.4990   45.9900 N   0  0  0  0  0  0  0  0  0  0  0  0
   57.6610   25.4280   47.0470 C   0  0  0  0  0  0  0  0  0  0  0  0
   57.6850   25.0310   48.2470 O   0  0  0  0  0  0  0  0  0  0  0  0
   58.0570   26.8230   46.7600 C   0  0  0  0  0  0  0  0  0  0  0  0
   59.1230   27.4110   47.4840 C   0  0  0  0  0  0  0  0  0  0  0  0
   59.5420   28.7180   47.2000 C   0  0  0  0  0  0  0  0  0  0  0  0
   58.8650   29.4200   46.2040 C   0  0  0  0  0  0  0  0  0  0  0  0
   59.1000   30.6840   45.8050 N   0  0  0  0  0  0  0  0  0  0  0  0
   58.1810   30.9500   44.8420 C   0  0  0  0  0  0  0  0  0  0  0  0
   58.1670   32.2050   44.0510 C   0  0  0  0  0  0  0  0  0  0  0  0
   57.9870   32.1500   42.8070 O   0  0  0  0  0  0  0  0  0  0  0  0
   58.4660   33.4770   44.6420 N   0  0  0  0  0  0  0  0  0  0  0  0
   59.1770   33.7020   45.8660 C   0  0  0  0  0  0  0  0  0  0  0  0
   58.4620   34.1370   46.9850 C   0  0  0  0  0  0  0  0  0  0  0  0
   59.1210   34.3870   48.1910 C   0  0  0  0  0  0  0  0  0  0  0  0
   60.4990   34.1870   48.2900 C   0  0  0  0  0  0  0  0  0  0  0  0
   61.2260   33.6990   47.1900 C   0  0  0  0  0  0  0  0  0  0  0  0
   62.6870   33.4950   47.2900 C   0  0  0  0  0  0  0  0  0  0  0  0
   63.4330   33.9350   46.3720 O   0  0  0  0  0  0  0  0  0  0  0  0
   63.2760   32.8250   48.4190 N   0  0  0  0  0  0  0  0  0  0  0  0
   64.6400   33.0690   48.8490 C   0  0  0  0  0  0  0  0  0  0  0  0
   64.9580   31.9820   49.8720 C   0  0  0  0  0  0  0  0  0  0  0  0
   63.6370   31.2780   50.1850 C   0  0  0  0  0  0  0  0  0  0  0  0
   62.6560   31.6990   49.0980 C   0  0  0  0  0  0  0  0  0  0  0  0
   60.5600   33.4640   45.9760 C   0  0  0  0  0  0  0  0  0  0  0  0
   57.3660   29.8300   44.6300 C   0  0  0  0  0  0  0  0  0  0  0  0
   56.2250   29.7160   43.7120 C   0  0  0  0  0  0  0  0  0  0  0  0
   56.3930   29.9480   42.3080 N   0  0  0  0  0  0  0  0  0  0  0  0
   55.0850   29.4320   44.1680 O   0  0  0  0  0  0  0  0  0  0  0  0
   57.8200   28.8640   45.5110 C   0  0  0  0  0  0  0  0  0  0  0  0
   57.3750   27.5700   45.7760 C   0  0  0  0  0  0  0  0  0  0  0  0
   56.8340   23.1600   46.3550 C   0  0  0  0  0  0  0  0  0  0  0  0
   56.0330   22.4850   45.2180 C   0  0  0  0  0  0  0  0  0  0  0  0
   56.1421   20.8657   43.4362 H   0  0  0  0  0  0  0  0  0  0  0  0
   55.3869   21.9916   42.2578 H   0  0  0  0  0  0  0  0  0  0  0  0
   57.1673   21.7529   42.2578 H   0  0  0  0  0  0  0  0  0  0  0  0
   58.4930   22.7290   44.1845 H   0  0  0  0  0  0  0  0  0  0  0  0
   58.0397   23.7002   42.7471 H   0  0  0  0  0  0  0  0  0  0  0  0
   58.8837   25.0750   44.6978 H   0  0  0  0  0  0  0  0  0  0  0  0
   57.2132   25.5036   44.1517 H   0  0  0  0  0  0  0  0  0  0  0  0
   59.6263   26.8370   48.2759 H   0  0  0  0  0  0  0  0  0  0  0  0
   60.3797   29.1759   47.7465 H   0  0  0  0  0  0  0  0  0  0  0  0
   59.8760   31.3010   46.1360 H   0  0  0  0  0  0  0  0  0  0  0  0
   57.3740   34.2834   46.9158 H   0  0  0  0  0  0  0  0  0  0  0  0
   58.5534   34.7419   49.0638 H   0  0  0  0  0  0  0  0  0  0  0  0
   61.0185   34.4123   49.2331 H   0  0  0  0  0  0  0  0  0  0  0  0
   65.3284   33.0023   47.9936 H   0  0  0  0  0  0  0  0  0  0  0  0
   64.7533   34.0745   49.2804 H   0  0  0  0  0  0  0  0  0  0  0  0
   65.6800   31.2657   49.4529 H   0  0  0  0  0  0  0  0  0  0  0  0
   65.4046   32.4108   50.7812 H   0  0  0  0  0  0  0  0  0  0  0  0
   63.7750   30.1868   50.1708 H   0  0  0  0  0  0  0  0  0  0  0  0
   63.2665   31.5519   51.1838 H   0  0  0  0  0  0  0  0  0  0  0  0
   62.4878   30.8718   48.3927 H   0  0  0  0  0  0  0  0  0  0  0  0
   61.6767   31.9698   49.5194 H   0  0  0  0  0  0  0  0  0  0  0  0
   61.1220   33.0920   45.1067 H   0  0  0  0  0  0  0  0  0  0  0  0
   55.5800   29.8470   41.6640 H   0  0  0  0  0  0  0  0  0  0  0  0
   57.3000   30.2930   41.9180 H   0  0  0  0  0  0  0  0  0  0  0  0
   56.5178   27.1438   45.2343 H   0  0  0  0  0  0  0  0  0  0  0  0
   57.6972   22.5245   46.6021 H   0  0  0  0  0  0  0  0  0  0  0  0
   56.1556   23.2785   47.2128 H   0  0  0  0  0  0  0  0  0  0  0  0
   56.1846   21.3979   45.2903 H   0  0  0  0  0  0  0  0  0  0  0  0
   54.9837   22.7849   45.3559 H   0  0  0  0  0  0  0  0  0  0  0  0
  1  2  1  0
  2  3  1  0
  3  4  1  0
  4  5  1  0
  5  6  1  0
  6  7  2  0
  6  8  1  0
  8  9  2  0
  9 10  1  0
 10 11  2  0
 11 12  1  0
 12 13  1  0
 13 14  1  0
 14 15  2  0
 14 16  1  0
 16 17  1  0
 17 18  2  0
 18 19  1  0
 19 20  2  0
 20 21  1  0
 21 22  1  0
 22 23  2  0
 22 24  1  0
 24 25  1  0
 25 26  1  0
 26 27  1  0
 27 28  1  0
 21 29  2  0
 13 30  2  0
 30 31  1  0
 31 32  1  0
 31 33  2  0
 30 34  1  0
 34 35  2  0
  5 36  1  0
 36 37  1  0
 37  2  1  0
 35  8  1  0
 34 11  1  0
 29 17  1  0
 28 24  1  0
  1 38  1  0
  1 39  1  0
  1 40  1  0
  3 41  1  0
  3 42  1  0
  4 43  1  0
  4 44  1  0
  9 45  1  0
 10 46  1  0
 12 47  1  0
 18 48  1  0
 19 49  1  0
 20 50  1  0
 25 51  1  0
 25 52  1  0
 26 53  1  0
 26 54  1  0
 27 55  1  0
 27 56  1  0
 28 57  1  0
 28 58  1  0
 29 59  1  0
 32 60  1  0
 32 61  1  0
 35 62  1  0
 36 63  1  0
 36 64  1  0
 37 65  1  0
 37 66  1  0
M  CHG  1  16  -1
M  END
>  <UniqueID>  (82) 
79

>  <SMILES>  (82) 
CN1CCN(C(=O)c2ccc3[nH]c(C(=O)[N-]c4cccc(C(=O)N5CCCC5)c4)c(C(N)=O)c3c2)CC1

>  <Energy>  (82) 
126.85478896038506

>  <Genealogy>  (82) 
CN1CCN(C(=O)c2ccc3[nH]c(C(=O)[N-]c4cccc(C(=O)N5CCCC5)c4)c(C(N)=O)c3c2)CC1 (protonated)
CN1CCN(C(=O)c2ccc3[nH]c(C(=O)[N-]c4cccc(C(=O)N5CCCC5)c4)c(C(N)=O)c3c2)CC1 (3D coordinates assigned)
CN1CCN(C(=O)c2ccc3[nH]c(C(=O)[N-]c4cccc(C(=O)N5CCCC5)c4)c(C(N)=O)c3c2)CC1 (nonaromatic ring conformer: 126.85478896038506 kcal/mol)

>  <smiles>  (82) 
CN1CCN(C(=O)c2ccc3[nH]c(C(=O)Nc4cccc(C(=O)N5CCCC5)c4)c(C(N)=O)c3c2)CC1

>  <score_type>  (82) 
oracle

>  <origin>  (82) 
adg

>  <m_score__min__energy>  (82) 
-11.74

>  <m_primary>  (82) 
energy

$$$$
82:0
     RDKit          3D

 43 45  0  0  0  0  0  0  0  0999 V2000
   55.1410   27.9790   45.9630 H   0  0  0  0  0  0  0  0  0  0  0  0
   55.5780   27.0700   46.0130 O   0  0  0  0  0  0  0  0  0  0  0  0
   56.9610   26.8720   46.0800 C   0  0  0  0  0  0  0  0  0  0  0  0
   57.4160   25.6350   46.5600 C   0  0  0  0  0  0  0  0  0  0  0  0
   56.4630   24.6800   47.0480 N   0  0  0  0  0  0  0  0  0  0  0  0
   55.4580   24.1980   46.3760 C   0  0  0  0  0  0  0  0  0  0  0  0
   54.4690   22.8050   46.8940 S   0  0  0  0  0  0  0  0  0  0  0  0
   53.2640   23.2560   45.5950 C   0  0  0  0  0  0  0  0  0  0  0  0
   52.4650   23.8728   46.0321 H   0  0  0  0  0  0  0  0  0  0  0  0
   52.8240   22.3440   45.1653 H   0  0  0  0  0  0  0  0  0  0  0  0
   53.9830   24.0500   44.4960 C   0  0  0  0  0  0  0  0  0  0  0  0
   53.2986   24.7939   44.0621 H   0  0  0  0  0  0  0  0  0  0  0  0
   54.3180   23.3790   43.6913 H   0  0  0  0  0  0  0  0  0  0  0  0
   55.1150   24.7170   45.1060 N   0  0  0  0  0  0  0  0  0  0  0  0
   55.6890   25.4330   44.6060 H   0  0  0  0  0  0  0  0  0  0  0  0
   58.7880   25.3650   46.6040 C   0  0  0  0  0  0  0  0  0  0  0  0
   59.1466   24.4175   47.0325 H   0  0  0  0  0  0  0  0  0  0  0  0
   59.7000   26.2900   46.1080 C   0  0  0  0  0  0  0  0  0  0  0  0
   60.7733   26.0490   46.1070 H   0  0  0  0  0  0  0  0  0  0  0  0
   59.2680   27.5220   45.6110 C   0  0  0  0  0  0  0  0  0  0  0  0
   60.6300   28.6470   44.8580 Br  0  0  0  0  0  0  0  0  0  0  0  0
   57.8890   27.8560   45.6420 C   0  0  0  0  0  0  0  0  0  0  0  0
   57.3060   29.4530   45.1130 S   0  0  0  0  0  0  0  0  0  0  0  0
   58.0240   29.8580   43.8570 O   0  0  0  0  0  0  0  0  0  0  0  0
   55.8370   29.4550   44.8030 O   0  0  0  0  0  0  0  0  0  0  0  0
   57.6360   30.6040   46.3600 N   0  0  0  0  0  0  0  0  0  0  0  0
   58.5730   31.6580   46.1410 C   0  0  0  0  0  0  0  0  0  0  0  0
   59.8510   31.7460   46.6560 C   0  0  0  0  0  0  0  0  0  0  0  0
   60.5360   30.7440   47.5260 C   0  0  0  0  0  0  0  0  0  0  0  0
   60.3632   30.9968   48.5825 H   0  0  0  0  0  0  0  0  0  0  0  0
   60.1332   29.7417   47.3182 H   0  0  0  0  0  0  0  0  0  0  0  0
   61.6161   30.7555   47.3182 H   0  0  0  0  0  0  0  0  0  0  0  0
   60.3550   32.9650   46.3750 N   0  0  0  0  0  0  0  0  0  0  0  0
   59.4390   33.6310   45.6840 N   0  0  0  0  0  0  0  0  0  0  0  0
   59.6130   35.0080   45.2350 C   0  0  0  0  0  0  0  0  0  0  0  0
   59.6968   35.6708   46.1089 H   0  0  0  0  0  0  0  0  0  0  0  0
   60.5278   35.0832   44.6288 H   0  0  0  0  0  0  0  0  0  0  0  0
   58.7457   35.3084   44.6288 H   0  0  0  0  0  0  0  0  0  0  0  0
   58.3370   32.8670   45.5230 C   0  0  0  0  0  0  0  0  0  0  0  0
   57.0600   33.3120   44.8800 C   0  0  0  0  0  0  0  0  0  0  0  0
   56.3268   33.5675   45.6592 H   0  0  0  0  0  0  0  0  0  0  0  0
   57.2531   34.1958   44.2542 H   0  0  0  0  0  0  0  0  0  0  0  0
   56.6620   32.4996   44.2542 H   0  0  0  0  0  0  0  0  0  0  0  0
  1  2  1  0
  2  3  1  0
  3  4  2  0
  4  5  1  0
  5  6  2  0
  6  7  1  0
  7  8  1  0
  8  9  1  0
  8 10  1  0
  8 11  1  0
 11 12  1  0
 11 13  1  0
 11 14  1  0
 14 15  1  0
  4 16  1  0
 16 17  1  0
 16 18  2  0
 18 19  1  0
 18 20  1  0
 20 21  1  0
 20 22  2  0
 22 23  1  0
 23 24  2  0
 23 25  2  0
 23 26  1  0
 26 27  1  0
 27 28  1  0
 28 29  1  0
 29 30  1  0
 29 31  1  0
 29 32  1  0
 28 33  2  0
 33 34  1  0
 34 35  1  0
 35 36  1  0
 35 37  1  0
 35 38  1  0
 34 39  1  0
 39 40  1  0
 40 41  1  0
 40 42  1  0
 40 43  1  0
 22  3  1  0
 39 27  2  0
 14  6  1  0
M  CHG  1  26  -1
M  END
>  <UniqueID>  (83) 
80

>  <SMILES>  (83) 
Cc1nn(C)c(C)c1[N-]S(=O)(=O)c1c(Br)ccc(/N=C2/NCCS2)c1O

>  <Energy>  (83) 
100.03700350264234

>  <Genealogy>  (83) 
Cc1nn(C)c(C)c1[N-]S(=O)(=O)c1c(Br)ccc(N=C2NCCS2)c1O (protonated)
Cc1nn(C)c(C)c1[N-]S(=O)(=O)c1c(Br)ccc(/N=C2/NCCS2)c1O (cis-trans isomerization)
Cc1nn(C)c(C)c1[N-]S(=O)(=O)c1c(Br)ccc(/N=C2/NCCS2)c1O (3D coordinates assigned)
Cc1nn(C)c(C)c1[N-]S(=O)(=O)c1c(Br)ccc(/N=C2/NCCS2)c1O (nonaromatic ring conformer: 100.03700350264234 kcal/mol)

>  <smiles>  (83) 
Cc1nn(C)c(C)c1NS(=O)(=O)c1c(Br)ccc(N=C2NCCS2)c1O

>  <score_type>  (83) 
oracle

>  <origin>  (83) 
adg

>  <m_score__min__energy>  (83) 
-10.76

>  <m_primary>  (83) 
energy

$$$$
83:0
     RDKit          3D

 55 58  0  0  0  0  0  0  0  0999 V2000
   57.8240   25.3440   47.4280 O   0  0  0  0  0  0  0  0  0  0  0  0
   56.9890   26.0030   46.7480 C   0  0  0  0  0  0  0  0  0  0  0  0
   55.6470   25.5140   46.6420 N   0  0  0  0  0  0  0  0  0  0  0  0
   55.1930   24.5860   45.6120 C   0  0  0  0  0  0  0  0  0  0  0  0
   56.2060   23.4820   45.4440 C   0  0  0  0  0  0  0  0  0  0  0  0
   56.1420   22.3520   46.2770 C   0  0  0  0  0  0  0  0  0  0  0  0
   57.0900   21.3320   46.1640 C   0  0  0  0  0  0  0  0  0  0  0  0
   58.1160   21.4310   45.2200 C   0  0  0  0  0  0  0  0  0  0  0  0
   58.1960   22.5510   44.3880 C   0  0  0  0  0  0  0  0  0  0  0  0
   57.2480   23.5770   44.4910 C   0  0  0  0  0  0  0  0  0  0  0  0
   57.3970   24.9720   43.4210 Cl  0  0  0  0  0  0  0  0  0  0  0  0
   57.4120   27.2700   46.1150 C   0  0  0  0  0  0  0  0  0  0  0  0
   56.5500   27.9430   45.2350 C   0  0  0  0  0  0  0  0  0  0  0  0
   56.9670   29.1120   44.5910 C   0  0  0  0  0  0  0  0  0  0  0  0
   58.2570   29.6190   44.8100 C   0  0  0  0  0  0  0  0  0  0  0  0
   58.7330   30.8380   44.0720 C   0  0  0  0  0  0  0  0  0  0  0  0
   57.4280   32.1130   44.0220 S   0  0  0  0  0  0  0  0  0  0  0  0
   58.1440   33.1160   45.3190 C   0  0  0  0  0  0  0  0  0  0  0  0
   58.7540   34.2890   45.0110 N   0  0  0  0  0  0  0  0  0  0  0  0
   59.2960   35.0680   45.9820 C   0  0  0  0  0  0  0  0  0  0  0  0
   59.8450   36.1580   45.6760 O   0  0  0  0  0  0  0  0  0  0  0  0
   59.2410   34.6580   47.3160 C   0  0  0  0  0  0  0  0  0  0  0  0
   58.6270   33.4330   47.6190 C   0  0  0  0  0  0  0  0  0  0  0  0
   58.5420   32.9320   48.9610 N   0  0  0  0  0  0  0  0  0  0  0  0
   59.9100   32.4990   49.9360 S   0  0  0  0  0  0  0  0  0  0  0  0
   59.7490   31.0950   50.4480 O   0  0  0  0  0  0  0  0  0  0  0  0
   59.9780   33.4220   51.1210 O   0  0  0  0  0  0  0  0  0  0  0  0
   61.3940   32.6640   48.9980 C   0  0  0  0  0  0  0  0  0  0  0  0
   61.7130   31.7020   48.0270 C   0  0  0  0  0  0  0  0  0  0  0  0
   62.8800   31.8290   47.2640 C   0  0  0  0  0  0  0  0  0  0  0  0
   63.7360   32.9130   47.4710 C   0  0  0  0  0  0  0  0  0  0  0  0
   63.4250   33.8720   48.4360 C   0  0  0  0  0  0  0  0  0  0  0  0
   62.2530   33.7540   49.1960 C   0  0  0  0  0  0  0  0  0  0  0  0
   58.0860   32.6990   46.6100 N   0  0  0  0  0  0  0  0  0  0  0  0
   59.1230   28.9390   45.6790 C   0  0  0  0  0  0  0  0  0  0  0  0
   58.7060   27.7710   46.3210 C   0  0  0  0  0  0  0  0  0  0  0  0
   54.2262   24.1536   45.9092 H   0  0  0  0  0  0  0  0  0  0  0  0
   55.0783   25.1246   44.6598 H   0  0  0  0  0  0  0  0  0  0  0  0
   55.3389   22.2699   47.0242 H   0  0  0  0  0  0  0  0  0  0  0  0
   57.0289   20.4501   46.8186 H   0  0  0  0  0  0  0  0  0  0  0  0
   58.8611   20.6266   45.1319 H   0  0  0  0  0  0  0  0  0  0  0  0
   59.0071   22.6272   43.6489 H   0  0  0  0  0  0  0  0  0  0  0  0
   55.5399   27.5482   45.0508 H   0  0  0  0  0  0  0  0  0  0  0  0
   56.2808   29.6365   43.9097 H   0  0  0  0  0  0  0  0  0  0  0  0
   59.6176   31.2466   44.5825 H   0  0  0  0  0  0  0  0  0  0  0  0
   58.9860   30.5506   43.0408 H   0  0  0  0  0  0  0  0  0  0  0  0
   59.6703   35.2827   48.1131 H   0  0  0  0  0  0  0  0  0  0  0  0
   57.5980   32.7190   49.3490 H   0  0  0  0  0  0  0  0  0  0  0  0
   61.0432   30.8446   47.8648 H   0  0  0  0  0  0  0  0  0  0  0  0
   63.1228   31.0747   46.5011 H   0  0  0  0  0  0  0  0  0  0  0  0
   64.6546   33.0108   46.8739 H   0  0  0  0  0  0  0  0  0  0  0  0
   64.1018   34.7233   48.6008 H   0  0  0  0  0  0  0  0  0  0  0  0
   62.0071   34.5176   49.9486 H   0  0  0  0  0  0  0  0  0  0  0  0
   60.1366   29.3280   45.8558 H   0  0  0  0  0  0  0  0  0  0  0  0
   59.3968   27.2403   46.9927 H   0  0  0  0  0  0  0  0  0  0  0  0
  1  2  2  0
  2  3  1  0
  3  4  1  0
  4  5  1  0
  5  6  2  0
  6  7  1  0
  7  8  2  0
  8  9  1  0
  9 10  2  0
 10 11  1  0
  2 12  1  0
 12 13  2  0
 13 14  1  0
 14 15  2  0
 15 16  1  0
 16 17  1  0
 17 18  1  0
 18 19  2  0
 19 20  1  0
 20 21  2  0
 20 22  1  0
 22 23  2  0
 23 24  1  0
 24 25  1  0
 25 26  2  0
 25 27  2  0
 25 28  1  0
 28 29  2  0
 29 30  1  0
 30 31  2  0
 31 32  1  0
 32 33  2  0
 23 34  1  0
 15 35  1  0
 35 36  2  0
 10  5  1  0
 36 12  1  0
 34 18  1  0
 33 28  1  0
  4 37  1  0
  4 38  1  0
  6 39  1  0
  7 40  1  0
  8 41  1  0
  9 42  1  0
 13 43  1  0
 14 44  1  0
 16 45  1  0
 16 46  1  0
 22 47  1  0
 24 48  1  0
 29 49  1  0
 30 50  1  0
 31 51  1  0
 32 52  1  0
 33 53  1  0
 35 54  1  0
 36 55  1  0
M  CHG  2   3  -1  34  -1
M  END
>  <UniqueID>  (84) 
81

>  <SMILES>  (84) 
O=C([N-]Cc1ccccc1Cl)c1ccc(CSc2nc(=O)cc(NS(=O)(=O)c3ccccc3)[n-]2)cc1

>  <Energy>  (84) 
64.84666777677022

>  <Genealogy>  (84) 
O=C([N-]Cc1ccccc1Cl)c1ccc(CSc2nc(=O)cc(NS(=O)(=O)c3ccccc3)[n-]2)cc1 (protonated)
O=C([N-]Cc1ccccc1Cl)c1ccc(CSc2nc(=O)cc(NS(=O)(=O)c3ccccc3)[n-]2)cc1 (3D coordinates assigned)
O=C([N-]Cc1ccccc1Cl)c1ccc(CSc2nc(=O)cc(NS(=O)(=O)c3ccccc3)[n-]2)cc1 (optimized conformer: 64.84666777677022 kcal/mol)

>  <smiles>  (84) 
O=C(NCc1ccccc1Cl)c1ccc(CSc2nc(=O)cc(NS(=O)(=O)c3ccccc3)[nH]2)cc1

>  <score_type>  (84) 
oracle

>  <origin>  (84) 
adg

>  <m_score__min__energy>  (84) 
-12.4

>  <m_primary>  (84) 
energy

$$$$
84:0
     RDKit          3D

 33 35  0  0  0  0  0  0  0  0999 V2000
   58.6110   30.0580   43.9700 O   0  0  0  0  0  0  0  0  0  0  0  0
   57.5670   29.9260   44.6640 C   0  0  0  0  0  0  0  0  0  0  0  0
   56.6720   31.0350   44.8370 N   0  0  0  0  0  0  0  0  0  0  0  0
   57.0440   32.4030   44.4850 C   0  0  0  0  0  0  0  0  0  0  0  0
   57.8710   33.0100   45.5840 C   0  0  0  0  0  0  0  0  0  0  0  0
   57.9900   32.3520   46.8190 C   0  0  0  0  0  0  0  0  0  0  0  0
   58.7910   32.8920   47.8310 C   0  0  0  0  0  0  0  0  0  0  0  0
   59.4800   34.0880   47.6160 C   0  0  0  0  0  0  0  0  0  0  0  0
   60.2570   34.6090   48.5980 F   0  0  0  0  0  0  0  0  0  0  0  0
   59.3720   34.7460   46.3870 C   0  0  0  0  0  0  0  0  0  0  0  0
   58.5730   34.2090   45.3720 C   0  0  0  0  0  0  0  0  0  0  0  0
   57.2400   28.6020   45.2260 C   0  0  0  0  0  0  0  0  0  0  0  0
   55.9310   28.2380   45.2660 N   0  0  0  0  0  0  0  0  0  0  0  0
   55.5300   27.0850   45.7980 N   0  0  0  0  0  0  0  0  0  0  0  0
   56.4090   26.2010   46.3320 C   0  0  0  0  0  0  0  0  0  0  0  0
   55.9770   25.1280   46.8330 O   0  0  0  0  0  0  0  0  0  0  0  0
   57.7830   26.4910   46.3090 C   0  0  0  0  0  0  0  0  0  0  0  0
   58.7300   25.5900   46.8300 C   0  0  0  0  0  0  0  0  0  0  0  0
   60.0940   25.8790   46.7560 C   0  0  0  0  0  0  0  0  0  0  0  0
   60.5270   27.0590   46.1530 C   0  0  0  0  0  0  0  0  0  0  0  0
   59.6000   27.9670   45.6350 C   0  0  0  0  0  0  0  0  0  0  0  0
   58.2160   27.7090   45.7280 C   0  0  0  0  0  0  0  0  0  0  0  0
   55.7230   30.8650   45.2380 H   0  0  0  0  0  0  0  0  0  0  0  0
   57.6278   32.3933   43.5527 H   0  0  0  0  0  0  0  0  0  0  0  0
   56.1313   33.0013   44.3475 H   0  0  0  0  0  0  0  0  0  0  0  0
   57.4514   31.4085   46.9913 H   0  0  0  0  0  0  0  0  0  0  0  0
   58.8784   32.3740   48.7975 H   0  0  0  0  0  0  0  0  0  0  0  0
   59.9160   35.6870   46.2180 H   0  0  0  0  0  0  0  0  0  0  0  0
   58.4939   34.7269   44.4048 H   0  0  0  0  0  0  0  0  0  0  0  0
   58.3939   24.6530   47.2981 H   0  0  0  0  0  0  0  0  0  0  0  0
   60.8281   25.1745   47.1741 H   0  0  0  0  0  0  0  0  0  0  0  0
   61.6032   27.2762   46.0847 H   0  0  0  0  0  0  0  0  0  0  0  0
   59.9519   28.8900   45.1510 H   0  0  0  0  0  0  0  0  0  0  0  0
  1  2  2  0
  2  3  1  0
  3  4  1  0
  4  5  1  0
  5  6  2  0
  6  7  1  0
  7  8  2  0
  8  9  1  0
  8 10  1  0
 10 11  2  0
  2 12  1  0
 12 13  2  0
 13 14  1  0
 14 15  1  0
 15 16  2  0
 15 17  1  0
 17 18  2  0
 18 19  1  0
 19 20  2  0
 20 21  1  0
 21 22  2  0
 11  5  1  0
 22 12  1  0
 22 17  1  0
  3 23  1  0
  4 24  1  0
  4 25  1  0
  6 26  1  0
  7 27  1  0
 10 28  1  0
 11 29  1  0
 18 30  1  0
 19 31  1  0
 20 32  1  0
 21 33  1  0
M  CHG  1  14  -1
M  END
>  <UniqueID>  (85) 
82

>  <SMILES>  (85) 
O=C(NCc1ccc(F)cc1)c1n[n-]c(=O)c2ccccc12

>  <Energy>  (85) 
44.95614615539433

>  <Genealogy>  (85) 
O=C(NCc1ccc(F)cc1)c1n[n-]c(=O)c2ccccc12 (protonated)
O=C(NCc1ccc(F)cc1)c1n[n-]c(=O)c2ccccc12 (3D coordinates assigned)
O=C(NCc1ccc(F)cc1)c1n[n-]c(=O)c2ccccc12 (optimized conformer: 44.95614615539433 kcal/mol)

>  <smiles>  (85) 
O=C(NCc1ccc(F)cc1)c1n[nH]c(=O)c2ccccc12

>  <score_type>  (85) 
oracle

>  <origin>  (85) 
adg

>  <m_score__min__energy>  (85) 
-9.9199999999999999

>  <m_primary>  (85) 
energy

$$$$
85:0
     RDKit          3D

 49 51  0  0  0  0  0  0  0  0999 V2000
   56.6640   34.3560   44.9280 C   0  0  0  0  0  0  0  0  0  0  0  0
   57.4790   33.3470   45.2550 C   0  0  0  0  0  0  0  0  0  0  0  0
   57.0830   32.0600   45.1790 N   0  0  0  0  0  0  0  0  0  0  0  0
   58.1640   31.2890   45.4120 C   0  0  0  0  0  0  0  0  0  0  0  0
   58.1510   29.8040   45.3990 C   0  0  0  0  0  0  0  0  0  0  0  0
   59.3500   29.0780   45.2820 C   0  0  0  0  0  0  0  0  0  0  0  0
   59.3330   27.6820   45.2700 C   0  0  0  0  0  0  0  0  0  0  0  0
   58.1240   26.9910   45.3780 C   0  0  0  0  0  0  0  0  0  0  0  0
   56.9160   27.6970   45.5010 C   0  0  0  0  0  0  0  0  0  0  0  0
   55.6500   27.0340   45.6220 N   0  0  0  0  0  0  0  0  0  0  0  0
   55.4070   25.3210   45.7390 S   0  0  0  0  0  0  0  0  0  0  0  0
   56.3260   24.4860   44.4630 C   0  0  0  0  0  0  0  0  0  0  0  0
   53.9430   25.0000   45.6270 O   0  0  0  0  0  0  0  0  0  0  0  0
   55.9040   24.8520   47.0760 O   0  0  0  0  0  0  0  0  0  0  0  0
   56.9380   29.0990   45.5090 C   0  0  0  0  0  0  0  0  0  0  0  0
   59.2710   32.0870   45.6500 C   0  0  0  0  0  0  0  0  0  0  0  0
   58.8400   33.4020   45.5870 C   0  0  0  0  0  0  0  0  0  0  0  0
   59.6520   34.4510   45.8300 C   0  0  0  0  0  0  0  0  0  0  0  0
   59.7950   35.1500   47.1160 C   0  0  0  0  0  0  0  0  0  0  0  0
   60.4550   34.6000   48.1430 C   0  0  0  0  0  0  0  0  0  0  0  0
   60.4410   33.1440   48.4050 C   0  0  0  0  0  0  0  0  0  0  0  0
   59.2260   32.5760   48.8220 C   0  0  0  0  0  0  0  0  0  0  0  0
   59.1550   31.2270   49.1740 C   0  0  0  0  0  0  0  0  0  0  0  0
   60.2940   30.4280   49.1090 C   0  0  0  0  0  0  0  0  0  0  0  0
   61.5040   30.9650   48.6680 C   0  0  0  0  0  0  0  0  0  0  0  0
   61.5930   32.3160   48.2860 C   0  0  0  0  0  0  0  0  0  0  0  0
   62.8750   32.8020   47.7270 C   0  0  0  0  0  0  0  0  0  0  0  0
   63.7500   31.9240   47.0150 N   0  0  0  0  0  0  0  0  0  0  0  0
   63.2230   33.9980   47.9160 O   0  0  0  0  0  0  0  0  0  0  0  0
   57.0181   35.3949   45.0012 H   0  0  0  0  0  0  0  0  0  0  0  0
   55.6397   34.1469   44.5859 H   0  0  0  0  0  0  0  0  0  0  0  0
   56.1270   31.7280   44.9160 H   0  0  0  0  0  0  0  0  0  0  0  0
   60.3073   29.6136   45.1994 H   0  0  0  0  0  0  0  0  0  0  0  0
   60.2761   27.1238   45.1751 H   0  0  0  0  0  0  0  0  0  0  0  0
   58.1179   25.8911   45.3667 H   0  0  0  0  0  0  0  0  0  0  0  0
   57.0654   23.8142   44.9235 H   0  0  0  0  0  0  0  0  0  0  0  0
   55.6362   23.8992   43.8386 H   0  0  0  0  0  0  0  0  0  0  0  0
   56.8442   25.2287   43.8386 H   0  0  0  0  0  0  0  0  0  0  0  0
   55.9939   29.6556   45.6026 H   0  0  0  0  0  0  0  0  0  0  0  0
   60.2962   31.7424   45.8506 H   0  0  0  0  0  0  0  0  0  0  0  0
   60.2622   34.8166   44.9909 H   0  0  0  0  0  0  0  0  0  0  0  0
   59.3492   36.1483   47.2370 H   0  0  0  0  0  0  0  0  0  0  0  0
   61.0283   35.2543   48.8162 H   0  0  0  0  0  0  0  0  0  0  0  0
   58.3216   33.2002   48.8717 H   0  0  0  0  0  0  0  0  0  0  0  0
   58.1986   30.7946   49.5030 H   0  0  0  0  0  0  0  0  0  0  0  0
   60.2395   29.3703   49.4063 H   0  0  0  0  0  0  0  0  0  0  0  0
   62.3975   30.3254   48.6185 H   0  0  0  0  0  0  0  0  0  0  0  0
   64.6320   32.2900   46.5940 H   0  0  0  0  0  0  0  0  0  0  0  0
   63.5560   30.8990   46.9620 H   0  0  0  0  0  0  0  0  0  0  0  0
  1  2  2  0
  2  3  1  0
  3  4  1  0
  4  5  1  0
  5  6  2  0
  6  7  1  0
  7  8  2  0
  8  9  1  0
  9 10  1  0
 10 11  1  0
 11 12  1  0
 11 13  2  0
 11 14  2  0
  9 15  2  0
  4 16  2  0
 16 17  1  0
 17 18  2  3
 18 19  1  0
 19 20  2  3
 20 21  1  0
 21 22  2  0
 22 23  1  0
 23 24  2  0
 24 25  1  0
 25 26  2  0
 26 27  1  0
 27 28  1  0
 27 29  2  0
 17  2  1  0
 26 21  1  0
 15  5  1  0
  1 30  1  0
  1 31  1  0
  3 32  1  0
  6 33  1  0
  7 34  1  0
  8 35  1  0
 12 36  1  0
 12 37  1  0
 12 38  1  0
 15 39  1  0
 16 40  1  0
 18 41  1  0
 19 42  1  0
 20 43  1  0
 22 44  1  0
 23 45  1  0
 24 46  1  0
 25 47  1  0
 28 48  1  0
 28 49  1  0
M  CHG  1  10  -1
M  END
>  <UniqueID>  (86) 
83

>  <SMILES>  (86) 
C=c1[nH]c(-c2cccc([N-]S(C)(=O)=O)c2)cc1=CC=Cc1ccccc1C(N)=O

>  <Energy>  (86) 
99.92991196993813

>  <Genealogy>  (86) 
C=c1[nH]c(-c2cccc([N-]S(C)(=O)=O)c2)cc1=CC=Cc1ccccc1C(N)=O (protonated)
C=c1[nH]c(-c2cccc([N-]S(C)(=O)=O)c2)cc1=CC=Cc1ccccc1C(N)=O (3D coordinates assigned)
C=c1[nH]c(-c2cccc([N-]S(C)(=O)=O)c2)cc1=CC=Cc1ccccc1C(N)=O (optimized conformer: 99.92991196993813 kcal/mol)

>  <smiles>  (86) 
C=c1[nH]c(-c2cccc(NS(C)(=O)=O)c2)cc1=CC=Cc1ccccc1C(N)=O

>  <score_type>  (86) 
oracle

>  <origin>  (86) 
adg

>  <m_score__min__energy>  (86) 
-13.15

>  <m_primary>  (86) 
energy

$$$$
86:0
     RDKit          3D

 51 54  0  0  0  0  0  0  0  0999 V2000
   56.2467   28.2310   42.7442 H   0  0  0  0  0  0  0  0  0  0  0  0
   56.5710   29.1650   42.2620 C   0  0  0  0  0  0  0  0  0  0  0  0
   56.6907   29.2071   41.1693 H   0  0  0  0  0  0  0  0  0  0  0  0
   56.8210   30.2550   43.0080 C   0  0  0  0  0  0  0  0  0  0  0  0
   57.2330   31.4200   42.3300 C   0  0  0  0  0  0  0  0  0  0  0  0
   57.1317   31.4741   41.2360 H   0  0  0  0  0  0  0  0  0  0  0  0
   57.7660   32.5030   43.0230 C   0  0  0  0  0  0  0  0  0  0  0  0
   58.0784   33.4030   42.4731 H   0  0  0  0  0  0  0  0  0  0  0  0
   57.9070   32.4550   44.4120 C   0  0  0  0  0  0  0  0  0  0  0  0
   58.5280   33.5810   45.1470 C   0  0  0  0  0  0  0  0  0  0  0  0
   58.3640   34.7550   44.7150 O   0  0  0  0  0  0  0  0  0  0  0  0
   59.3070   33.3710   46.3420 N   0  0  0  0  0  0  0  0  0  0  0  0
   60.1340   32.1630   46.5030 C   0  0  0  0  0  0  0  0  0  0  0  0
   59.6060   31.4556   47.1594 H   0  0  0  0  0  0  0  0  0  0  0  0
   60.3019   31.7298   45.5059 H   0  0  0  0  0  0  0  0  0  0  0  0
   61.5130   32.4860   47.1230 C   0  0  0  0  0  0  0  0  0  0  0  0
   61.7771   31.6825   47.8263 H   0  0  0  0  0  0  0  0  0  0  0  0
   62.2336   32.5638   46.2956 H   0  0  0  0  0  0  0  0  0  0  0  0
   61.5370   33.7740   47.8500 N   0  0  0  0  0  0  0  0  0  0  0  0
   62.7510   33.9190   48.6940 C   0  0  0  0  0  0  0  0  0  0  0  0
   62.9463   35.0011   48.6649 H   0  0  0  0  0  0  0  0  0  0  0  0
   63.9950   33.1780   48.1660 C   0  0  0  0  0  0  0  0  0  0  0  0
   63.7023   32.4149   47.4297 H   0  0  0  0  0  0  0  0  0  0  0  0
   64.6913   33.8646   47.6623 H   0  0  0  0  0  0  0  0  0  0  0  0
   64.6350   32.5240   49.3800 C   0  0  0  0  0  0  0  0  0  0  0  0
   65.1043   31.5695   49.0996 H   0  0  0  0  0  0  0  0  0  0  0  0
   65.4249   33.1547   49.8139 H   0  0  0  0  0  0  0  0  0  0  0  0
   63.5000   32.2890   50.3610 C   0  0  0  0  0  0  0  0  0  0  0  0
   63.0182   31.3197   50.1654 H   0  0  0  0  0  0  0  0  0  0  0  0
   63.8593   32.2663   51.4004 H   0  0  0  0  0  0  0  0  0  0  0  0
   62.5170   33.4260   50.1310 C   0  0  0  0  0  0  0  0  0  0  0  0
   61.4843   33.0650   50.2458 H   0  0  0  0  0  0  0  0  0  0  0  0
   62.6673   34.2362   50.8597 H   0  0  0  0  0  0  0  0  0  0  0  0
   60.2500   34.0580   48.5150 C   0  0  0  0  0  0  0  0  0  0  0  0
   59.9306   33.1840   49.1017 H   0  0  0  0  0  0  0  0  0  0  0  0
   60.3500   34.9148   49.1975 H   0  0  0  0  0  0  0  0  0  0  0  0
   59.2220   34.3580   47.4280 C   0  0  0  0  0  0  0  0  0  0  0  0
   58.2137   34.3257   47.8665 H   0  0  0  0  0  0  0  0  0  0  0  0
   59.4279   35.3561   47.0140 H   0  0  0  0  0  0  0  0  0  0  0  0
   57.4650   31.3210   45.1080 C   0  0  0  0  0  0  0  0  0  0  0  0
   57.6126   31.2662   46.1967 H   0  0  0  0  0  0  0  0  0  0  0  0
   56.8340   30.2470   44.4410 C   0  0  0  0  0  0  0  0  0  0  0  0
   56.2630   29.2950   45.2230 C   0  0  0  0  0  0  0  0  0  0  0  0
   55.2470   29.4962   45.5934 H   0  0  0  0  0  0  0  0  0  0  0  0
   56.8810   28.0140   45.6220 C   0  0  0  0  0  0  0  0  0  0  0  0
   58.2020   27.7550   45.6000 N   0  0  0  0  0  0  0  0  0  0  0  0
   58.2690   26.4480   45.9290 C   0  0  0  0  0  0  0  0  0  0  0  0
   59.3600   25.8280   46.0270 O   0  0  0  0  0  0  0  0  0  0  0  0
   57.0740   25.8520   46.1360 N   0  0  0  0  0  0  0  0  0  0  0  0
   56.2070   26.8570   45.9250 C   0  0  0  0  0  0  0  0  0  0  0  0
   54.8280   26.7150   46.0050 O   0  0  0  0  0  0  0  0  0  0  0  0
  1  2  1  0
  2  3  1  0
  2  4  2  0
  4  5  1  0
  5  6  1  0
  5  7  2  0
  7  8  1  0
  7  9  1  0
  9 10  1  0
 10 11  2  0
 10 12  1  0
 12 13  1  0
 13 14  1  0
 13 15  1  0
 13 16  1  0
 16 17  1  0
 16 18  1  0
 16 19  1  0
 19 20  1  0
 20 21  1  0
 20 22  1  0
 22 23  1  0
 22 24  1  0
 22 25  1  0
 25 26  1  0
 25 27  1  0
 25 28  1  0
 28 29  1  0
 28 30  1  0
 28 31  1  0
 31 32  1  0
 31 33  1  0
 19 34  1  0
 34 35  1  0
 34 36  1  0
 34 37  1  0
 37 38  1  0
 37 39  1  0
  9 40  2  0
 40 41  1  0
 40 42  1  0
 42 43  2  0
 43 44  1  0
 43 45  1  0
 45 46  1  0
 46 47  1  0
 47 48  2  0
 47 49  1  0
 49 50  1  0
 50 51  1  0
 42  4  1  0
 50 45  2  0
 37 12  1  0
 31 20  1  0
M  CHG  3  46  -1  49  -1  51  -1
M  END
>  <UniqueID>  (87) 
84

>  <SMILES>  (87) 
C=c1ccc(C(=O)N2CCN(C3CCCC3)CC2)c/c1=C/c1[n-]c(=O)[n-]c1[O-]

>  <Energy>  (87) 
118.89387398729639

>  <Genealogy>  (87) 
C=c1ccc(C(=O)N2CCN(C3CCCC3)CC2)cc1=Cc1[n-]c(=O)[n-]c1[O-] (protonated)
C=c1ccc(C(=O)N2CCN(C3CCCC3)CC2)c/c1=C/c1[n-]c(=O)[n-]c1[O-] (cis-trans isomerization)
C=c1ccc(C(=O)N2CCN(C3CCCC3)CC2)c/c1=C/c1[n-]c(=O)[n-]c1[O-] (3D coordinates assigned)
C=c1ccc(C(=O)N2CCN(C3CCCC3)CC2)c/c1=C/c1[n-]c(=O)[n-]c1[O-] (nonaromatic ring conformer: 118.89387398729639 kcal/mol)

>  <smiles>  (87) 
C=c1ccc(C(=O)N2CCN(C3CCCC3)CC2)cc1=Cc1[nH]c(=O)[nH]c1O

>  <score_type>  (87) 
oracle

>  <origin>  (87) 
adg

>  <m_score__min__energy>  (87) 
-18.02

>  <m_primary>  (87) 
energy

$$$$
87:0
     RDKit          3D

 55 58  0  0  0  0  0  0  0  0999 V2000
   60.3470   25.7990   46.2760 C   0  0  0  0  0  0  0  0  0  0  0  0
   59.2720   26.5450   46.0030 C   0  0  0  0  0  0  0  0  0  0  0  0
   58.0580   26.0590   46.1330 O   0  0  0  0  0  0  0  0  0  0  0  0
   57.1930   26.9910   45.8210 C   0  0  0  0  0  0  0  0  0  0  0  0
   55.7760   26.7900   45.8240 N   0  0  0  0  0  0  0  0  0  0  0  0
   55.2360   25.6530   46.3420 O   0  0  0  0  0  0  0  0  0  0  0  0
   54.8150   24.8600   45.2540 C   0  0  0  0  0  0  0  0  0  0  0  0
   55.8530   23.8280   44.8880 C   0  0  0  0  0  0  0  0  0  0  0  0
   55.9150   23.3220   43.5790 C   0  0  0  0  0  0  0  0  0  0  0  0
   56.8600   22.3470   43.2450 C   0  0  0  0  0  0  0  0  0  0  0  0
   57.7420   21.8640   44.2160 C   0  0  0  0  0  0  0  0  0  0  0  0
   57.6890   22.3650   45.5200 C   0  0  0  0  0  0  0  0  0  0  0  0
   56.7460   23.3430   45.8550 C   0  0  0  0  0  0  0  0  0  0  0  0
   57.8410   28.1590   45.4670 C   0  0  0  0  0  0  0  0  0  0  0  0
   57.1580   29.4030   45.0680 C   0  0  0  0  0  0  0  0  0  0  0  0
   55.9010   29.4600   45.1420 O   0  0  0  0  0  0  0  0  0  0  0  0
   57.9180   30.5070   44.5510 N   0  0  0  0  0  0  0  0  0  0  0  0
   57.9840   31.6970   45.0690 C   0  0  0  0  0  0  0  0  0  0  0  0
   58.5470   31.9000   46.2910 N   0  0  0  0  0  0  0  0  0  0  0  0
   58.5760   33.1320   46.8640 C   0  0  0  0  0  0  0  0  0  0  0  0
   59.1280   33.2810   48.2530 C   0  0  0  0  0  0  0  0  0  0  0  0
   60.6260   33.1420   48.2160 C   0  0  0  0  0  0  0  0  0  0  0  0
   61.2170   31.9540   47.7520 C   0  0  0  0  0  0  0  0  0  0  0  0
   62.6060   31.7990   47.7910 C   0  0  0  0  0  0  0  0  0  0  0  0
   63.4130   32.8230   48.2930 C   0  0  0  0  0  0  0  0  0  0  0  0
   62.8320   34.0030   48.7650 C   0  0  0  0  0  0  0  0  0  0  0  0
   61.4430   34.1620   48.7330 C   0  0  0  0  0  0  0  0  0  0  0  0
   58.0070   34.2180   46.1880 C   0  0  0  0  0  0  0  0  0  0  0  0
   57.4420   33.9970   44.9340 C   0  0  0  0  0  0  0  0  0  0  0  0
   57.4380   32.7470   44.4010 N   0  0  0  0  0  0  0  0  0  0  0  0
   59.2090   27.8870   45.5790 C   0  0  0  0  0  0  0  0  0  0  0  0
   60.2260   28.7530   45.3610 C   0  0  0  0  0  0  0  0  0  0  0  0
   60.2230   30.0110   45.9580 O   0  0  0  0  0  0  0  0  0  0  0  0
   61.3000   28.4110   44.5450 O   0  0  0  0  0  0  0  0  0  0  0  0
   61.3550   26.2240   46.1610 H   0  0  0  0  0  0  0  0  0  0  0  0
   60.2236   24.7601   46.6157 H   0  0  0  0  0  0  0  0  0  0  0  0
   55.1500   27.4740   45.3460 H   0  0  0  0  0  0  0  0  0  0  0  0
   53.8809   24.3467   45.5261 H   0  0  0  0  0  0  0  0  0  0  0  0
   54.6615   25.5181   44.3861 H   0  0  0  0  0  0  0  0  0  0  0  0
   55.2176   23.6941   42.8140 H   0  0  0  0  0  0  0  0  0  0  0  0
   56.9094   21.9595   42.2167 H   0  0  0  0  0  0  0  0  0  0  0  0
   58.4779   21.0895   43.9540 H   0  0  0  0  0  0  0  0  0  0  0  0
   58.3882   21.9906   46.2822 H   0  0  0  0  0  0  0  0  0  0  0  0
   56.7047   23.7337   46.8824 H   0  0  0  0  0  0  0  0  0  0  0  0
   58.8615   34.2721   48.6489 H   0  0  0  0  0  0  0  0  0  0  0  0
   58.7036   32.5004   48.9015 H   0  0  0  0  0  0  0  0  0  0  0  0
   60.5853   31.1445   47.3574 H   0  0  0  0  0  0  0  0  0  0  0  0
   63.0646   30.8684   47.4255 H   0  0  0  0  0  0  0  0  0  0  0  0
   64.5059   32.7004   48.3167 H   0  0  0  0  0  0  0  0  0  0  0  0
   63.4680   34.8078   49.1622 H   0  0  0  0  0  0  0  0  0  0  0  0
   60.9884   35.0885   49.1137 H   0  0  0  0  0  0  0  0  0  0  0  0
   58.0061   35.2224   46.6366 H   0  0  0  0  0  0  0  0  0  0  0  0
   56.9990   34.8345   44.3751 H   0  0  0  0  0  0  0  0  0  0  0  0
   59.3560   30.4910   46.1650 H   0  0  0  0  0  0  0  0  0  0  0  0
   61.1680   28.1910   43.5650 H   0  0  0  0  0  0  0  0  0  0  0  0
  1  2  2  0
  2  3  1  0
  3  4  1  0
  4  5  1  0
  5  6  1  0
  6  7  1  0
  7  8  1  0
  8  9  2  0
  9 10  1  0
 10 11  2  0
 11 12  1  0
 12 13  2  0
  4 14  2  0
 14 15  1  0
 15 16  2  0
 15 17  1  0
 17 18  2  3
 18 19  1  0
 19 20  2  0
 20 21  1  0
 21 22  1  0
 22 23  2  0
 23 24  1  0
 24 25  2  0
 25 26  1  0
 26 27  2  0
 20 28  1  0
 28 29  2  0
 29 30  1  0
 14 31  1  0
 31 32  2  3
 32 33  1  0
 32 34  1  0
 31  2  1  0
 13  8  1  0
 30 18  1  0
 27 22  1  0
  1 35  1  0
  1 36  1  0
  5 37  1  0
  7 38  1  0
  7 39  1  0
  9 40  1  0
 10 41  1  0
 11 42  1  0
 12 43  1  0
 13 44  1  0
 21 45  1  0
 21 46  1  0
 23 47  1  0
 24 48  1  0
 25 49  1  0
 26 50  1  0
 27 51  1  0
 28 52  1  0
 29 53  1  0
 33 54  1  0
 34 55  1  0
M  CHG  1  30  -1
M  END
>  <UniqueID>  (88) 
85

>  <SMILES>  (88) 
C=c1oc(NOCc2ccccc2)c(C(=O)N=c2nc(Cc3ccccc3)cc[n-]2)c1=C(O)O

>  <Energy>  (88) 
95.69338116972973

>  <Genealogy>  (88) 
C=c1oc(NOCc2ccccc2)c(C(=O)N=c2nc(Cc3ccccc3)cc[n-]2)c1=C(O)O (protonated)
C=c1oc(NOCc2ccccc2)c(C(=O)N=c2nc(Cc3ccccc3)cc[n-]2)c1=C(O)O (3D coordinates assigned)
C=c1oc(NOCc2ccccc2)c(C(=O)N=c2nc(Cc3ccccc3)cc[n-]2)c1=C(O)O (optimized conformer: 95.69338116972973 kcal/mol)

>  <smiles>  (88) 
C=c1oc(NOCc2ccccc2)c(C(=O)N=c2nc(Cc3ccccc3)cc[nH]2)c1=C(O)O

>  <score_type>  (88) 
oracle

>  <origin>  (88) 
adg

>  <m_score__min__energy>  (88) 
-10.9

>  <m_primary>  (88) 
energy

$$$$
88:0
     RDKit          3D

 46 48  0  0  0  0  0  0  0  0999 V2000
   54.0200   26.3380   46.4250 H   0  0  0  0  0  0  0  0  0  0  0  0
   54.9490   26.4850   46.0500 O   0  0  0  0  0  0  0  0  0  0  0  0
   56.0330   25.7040   46.4430 C   0  0  0  0  0  0  0  0  0  0  0  0
   55.9430   24.7380   47.3730 N   0  0  0  0  0  0  0  0  0  0  0  0
   57.2020   24.2570   47.4290 C   0  0  0  0  0  0  0  0  0  0  0  0
   57.5360   23.3170   48.1970 O   0  0  0  0  0  0  0  0  0  0  0  0
   58.0750   24.8590   46.5940 N   0  0  0  0  0  0  0  0  0  0  0  0
   57.3290   25.7910   45.9720 C   0  0  0  0  0  0  0  0  0  0  0  0
   57.8080   26.6850   44.8960 C   0  0  0  0  0  0  0  0  0  0  0  0
   58.1680   26.2163   43.9682 H   0  0  0  0  0  0  0  0  0  0  0  0
   57.8370   28.0330   44.9660 C   0  0  0  0  0  0  0  0  0  0  0  0
   58.2040   28.8030   46.0620 C   0  0  0  0  0  0  0  0  0  0  0  0
   58.5626   28.4324   47.0336 H   0  0  0  0  0  0  0  0  0  0  0  0
   58.0320   30.1230   45.6970 C   0  0  0  0  0  0  0  0  0  0  0  0
   58.2780   31.2620   46.6020 C   0  0  0  0  0  0  0  0  0  0  0  0
   57.4690   32.2290   46.5900 O   0  0  0  0  0  0  0  0  0  0  0  0
   59.4300   31.3070   47.4680 N   0  0  0  0  0  0  0  0  0  0  0  0
   59.3540   32.0860   48.7140 C   0  0  0  0  0  0  0  0  0  0  0  0
   58.5231   31.7034   49.3248 H   0  0  0  0  0  0  0  0  0  0  0  0
   59.1928   33.1421   48.4519 H   0  0  0  0  0  0  0  0  0  0  0  0
   60.6520   31.9830   49.5190 C   0  0  0  0  0  0  0  0  0  0  0  0
   60.7303   30.9781   49.9595 H   0  0  0  0  0  0  0  0  0  0  0  0
   60.6453   32.7376   50.3193 H   0  0  0  0  0  0  0  0  0  0  0  0
   61.8010   32.2200   48.6370 N   0  0  0  0  0  0  0  0  0  0  0  0
   62.7200   33.2850   48.9360 C   0  0  0  0  0  0  0  0  0  0  0  0
   62.2730   34.4170   49.2680 O   0  0  0  0  0  0  0  0  0  0  0  0
   64.1800   33.1000   48.8500 C   0  0  0  0  0  0  0  0  0  0  0  0
   64.7283   33.5938   48.0342 H   0  0  0  0  0  0  0  0  0  0  0  0
   64.8610   32.3580   49.7220 C   0  0  0  0  0  0  0  0  0  0  0  0
   65.9506   32.2485   49.6181 H   0  0  0  0  0  0  0  0  0  0  0  0
   64.3337   31.8549   50.5459 H   0  0  0  0  0  0  0  0  0  0  0  0
   61.8800   31.5410   47.3350 C   0  0  0  0  0  0  0  0  0  0  0  0
   62.8024   30.9428   47.2999 H   0  0  0  0  0  0  0  0  0  0  0  0
   61.8786   32.3081   46.5466 H   0  0  0  0  0  0  0  0  0  0  0  0
   60.6780   30.6160   47.1060 C   0  0  0  0  0  0  0  0  0  0  0  0
   60.7885   29.7155   47.7280 H   0  0  0  0  0  0  0  0  0  0  0  0
   60.6380   30.3351   46.0432 H   0  0  0  0  0  0  0  0  0  0  0  0
   57.6000   30.2100   44.4170 N   0  0  0  0  0  0  0  0  0  0  0  0
   57.3860   31.4370   43.6430 C   0  0  0  0  0  0  0  0  0  0  0  0
   57.2384   32.2830   44.3303 H   0  0  0  0  0  0  0  0  0  0  0  0
   58.2643   31.6285   43.0090 H   0  0  0  0  0  0  0  0  0  0  0  0
   56.4947   31.3199   43.0090 H   0  0  0  0  0  0  0  0  0  0  0  0
   57.4610   28.9380   43.9640 C   0  0  0  0  0  0  0  0  0  0  0  0
   57.0270   28.6280   42.7320 C   0  0  0  0  0  0  0  0  0  0  0  0
   56.7588   29.4277   42.0259 H   0  0  0  0  0  0  0  0  0  0  0  0
   56.9396   27.5743   42.4286 H   0  0  0  0  0  0  0  0  0  0  0  0
  1  2  1  0
  2  3  1  0
  3  4  1  0
  4  5  1  0
  5  6  2  0
  5  7  1  0
  7  8  1  0
  8  9  1  0
  9 10  1  0
  9 11  2  0
 11 12  1  0
 12 13  1  0
 12 14  2  0
 14 15  1  0
 15 16  2  0
 15 17  1  0
 17 18  1  0
 18 19  1  0
 18 20  1  0
 18 21  1  0
 21 22  1  0
 21 23  1  0
 21 24  1  0
 24 25  1  0
 25 26  2  0
 25 27  1  0
 27 28  1  0
 27 29  2  0
 29 30  1  0
 29 31  1  0
 24 32  1  0
 32 33  1  0
 32 34  1  0
 32 35  1  0
 35 36  1  0
 35 37  1  0
 14 38  1  0
 38 39  1  0
 39 40  1  0
 39 41  1  0
 39 42  1  0
 38 43  1  0
 43 44  2  0
 44 45  1  0
 44 46  1  0
  8  3  2  0
 43 11  1  0
 35 17  1  0
M  CHG  2   4  -1   7  -1
M  END
>  <UniqueID>  (89) 
86

>  <SMILES>  (89) 
C=CC(=O)N1CCN(C(=O)c2c/c(=C\c3[n-]c(=O)[n-]c3O)c(=C)n2C)CC1

>  <Energy>  (89) 
118.20448516352744

>  <Genealogy>  (89) 
C=CC(=O)N1CCN(C(=O)c2cc(=Cc3[n-]c(=O)[n-]c3O)c(=C)n2C)CC1 (protonated)
C=CC(=O)N1CCN(C(=O)c2c/c(=C\c3[n-]c(=O)[n-]c3O)c(=C)n2C)CC1 (cis-trans isomerization)
C=CC(=O)N1CCN(C(=O)c2c/c(=C\c3[n-]c(=O)[n-]c3O)c(=C)n2C)CC1 (3D coordinates assigned)
C=CC(=O)N1CCN(C(=O)c2c/c(=C\c3[n-]c(=O)[n-]c3O)c(=C)n2C)CC1 (nonaromatic ring conformer: 118.20448516352744 kcal/mol)

>  <smiles>  (89) 
C=CC(=O)N1CCN(C(=O)c2cc(=Cc3[nH]c(=O)[nH]c3O)c(=C)n2C)CC1

>  <score_type>  (89) 
oracle

>  <origin>  (89) 
adg

>  <m_score__min__energy>  (89) 
-12.56

>  <m_primary>  (89) 
energy

$$$$
