0:0
     RDKit          3D

 46 49  0  0  0  0  0  0  0  0999 V2000
   58.1490   28.4570   47.7030 O   0  0  0  0  0  0  0  0  0  0  0  0
   59.1440   29.0820   48.1550 C   0  0  0  0  0  0  0  0  0  0  0  0
   59.4400   29.0050   49.5480 N   0  0  0  0  0  0  0  0  0  0  0  0
   59.3350   30.3820   50.5920 S   0  0  0  0  0  0  0  0  0  0  0  0
   60.7070   30.9640   50.7800 O   0  0  0  0  0  0  0  0  0  0  0  0
   58.4450   31.4200   49.9670 O   0  0  0  0  0  0  0  0  0  0  0  0
   58.6850   29.9230   52.1360 N   0  0  0  0  0  0  0  0  0  0  0  0
   57.2790   29.8330   52.4270 C   0  0  0  0  0  0  0  0  0  0  0  0
   56.4260   30.8630   52.0060 C   0  0  0  0  0  0  0  0  0  0  0  0
   55.0600   30.8140   52.2870 C   0  0  0  0  0  0  0  0  0  0  0  0
   54.5200   29.7430   53.0040 C   0  0  0  0  0  0  0  0  0  0  0  0
   53.1430   29.7370   53.2690 O   0  0  0  0  0  0  0  0  0  0  0  0
   52.2540   30.7760   52.9630 C   0  0  0  0  0  0  0  0  0  0  0  0
   51.7940   31.7110   53.9200 C   0  0  0  0  0  0  0  0  0  0  0  0
   50.9080   32.7410   53.5270 C   0  0  0  0  0  0  0  0  0  0  0  0
   50.5040   32.8510   52.2260 N   0  0  0  0  0  0  0  0  0  0  0  0
   50.9660   31.9550   51.3200 C   0  0  0  0  0  0  0  0  0  0  0  0
   50.6730   31.9210   50.0140 N   0  0  0  0  0  0  0  0  0  0  0  0
   51.3940   30.8450   49.6010 C   0  0  0  0  0  0  0  0  0  0  0  0
   51.4000   30.4580   48.4040 O   0  0  0  0  0  0  0  0  0  0  0  0
   52.1100   30.2160   50.5720 N   0  0  0  0  0  0  0  0  0  0  0  0
   51.8130   30.9500   51.6540 C   0  0  0  0  0  0  0  0  0  0  0  0
   55.3590   28.6840   53.3920 C   0  0  0  0  0  0  0  0  0  0  0  0
   54.8500   27.5790   53.9950 F   0  0  0  0  0  0  0  0  0  0  0  0
   56.7280   28.7330   53.1120 C   0  0  0  0  0  0  0  0  0  0  0  0
   59.9480   29.8530   47.3070 O   0  0  0  0  0  0  0  0  0  0  0  0
   60.4570   31.1360   47.6640 C   0  0  0  0  0  0  0  0  0  0  0  0
   59.6420   32.2140   47.0030 C   0  0  0  0  0  0  0  0  0  0  0  0
   58.3740   31.9140   46.4810 C   0  0  0  0  0  0  0  0  0  0  0  0
   57.6000   32.9180   45.8910 C   0  0  0  0  0  0  0  0  0  0  0  0
   58.0800   34.2280   45.8300 C   0  0  0  0  0  0  0  0  0  0  0  0
   59.3350   34.5370   46.3600 C   0  0  0  0  0  0  0  0  0  0  0  0
   60.1130   33.5360   46.9490 C   0  0  0  0  0  0  0  0  0  0  0  0
   59.3730   29.6780   52.8810 H   0  0  0  0  0  0  0  0  0  0  0  0
   56.8374   31.7177   51.4490 H   0  0  0  0  0  0  0  0  0  0  0  0
   54.4027   31.6254   51.9411 H   0  0  0  0  0  0  0  0  0  0  0  0
   52.1244   31.6371   54.9666 H   0  0  0  0  0  0  0  0  0  0  0  0
   50.5410   33.4595   54.2747 H   0  0  0  0  0  0  0  0  0  0  0  0
   57.3798   27.9057   53.4293 H   0  0  0  0  0  0  0  0  0  0  0  0
   60.4051   31.2577   48.7560 H   0  0  0  0  0  0  0  0  0  0  0  0
   61.5018   31.2163   47.3294 H   0  0  0  0  0  0  0  0  0  0  0  0
   57.9879   30.8855   46.5363 H   0  0  0  0  0  0  0  0  0  0  0  0
   56.6113   32.6755   45.4742 H   0  0  0  0  0  0  0  0  0  0  0  0
   57.4700   35.0163   45.3647 H   0  0  0  0  0  0  0  0  0  0  0  0
   59.7116   35.5695   46.3138 H   0  0  0  0  0  0  0  0  0  0  0  0
   61.0976   33.7847   47.3717 H   0  0  0  0  0  0  0  0  0  0  0  0
  1  2  2  0
  2  3  1  0
  3  4  1  0
  4  5  2  0
  4  6  2  0
  4  7  1  0
  7  8  1  0
  8  9  2  0
  9 10  1  0
 10 11  2  0
 11 12  1  0
 12 13  1  0
 13 14  2  0
 14 15  1  0
 15 16  2  0
 16 17  1  0
 17 18  1  0
 18 19  1  0
 19 20  2  0
 19 21  1  0
 21 22  1  0
 11 23  1  0
 23 24  1  0
 23 25  2  0
  2 26  1  0
 26 27  1  0
 27 28  1  0
 28 29  2  0
 29 30  1  0
 30 31  2  0
 31 32  1  0
 32 33  2  0
 25  8  1  0
 33 28  1  0
 22 13  1  0
 22 17  2  0
  7 34  1  0
  9 35  1  0
 10 36  1  0
 14 37  1  0
 15 38  1  0
 25 39  1  0
 27 40  1  0
 27 41  1  0
 29 42  1  0
 30 43  1  0
 31 44  1  0
 32 45  1  0
 33 46  1  0
M  CHG  3   3  -1  18  -1  21  -1
M  END
>  <UniqueID>  (1) 
1

>  <SMILES>  (1) 
O=C([N-]S(=O)(=O)Nc1ccc(Oc2ccnc3[n-]c(=O)[n-]c23)c(F)c1)OCc1ccccc1

>  <Energy>  (1) 
90.88974363103675

>  <Genealogy>  (1) 
O=C([N-]S(=O)(=O)Nc1ccc(Oc2ccnc3[n-]c(=O)[n-]c23)c(F)c1)OCc1ccccc1 (protonated)
O=C([N-]S(=O)(=O)Nc1ccc(Oc2ccnc3[n-]c(=O)[n-]c23)c(F)c1)OCc1ccccc1 (3D coordinates assigned)
O=C([N-]S(=O)(=O)Nc1ccc(Oc2ccnc3[n-]c(=O)[n-]c23)c(F)c1)OCc1ccccc1 (optimized conformer: 90.88974363103675 kcal/mol)

>  <smiles>  (1) 
O=C(NS(=O)(=O)Nc1ccc(Oc2ccnc3[nH]c(=O)[nH]c23)c(F)c1)OCc1ccccc1

>  <score_type>  (1) 
oracle

>  <origin>  (1) 
adg

>  <m_score__min__energy>  (1) 
-13.1

>  <m_primary>  (1) 
energy

$$$$
1:0
     RDKit          3D

 49 51  0  0  0  0  0  0  0  0999 V2000
   55.9710   30.0340   52.7790 C   0  0  0  0  0  0  0  0  0  0  0  0
   56.9560   29.7990   51.7730 O   0  0  0  0  0  0  0  0  0  0  0  0
   57.7660   30.7990   51.2150 C   0  0  0  0  0  0  0  0  0  0  0  0
   57.7950   32.0520   51.8340 C   0  0  0  0  0  0  0  0  0  0  0  0
   58.5770   33.0870   51.3120 C   0  0  0  0  0  0  0  0  0  0  0  0
   59.3560   32.8730   50.1660 C   0  0  0  0  0  0  0  0  0  0  0  0
   60.1460   33.9960   49.5600 C   0  0  0  0  0  0  0  0  0  0  0  0
   59.4730   34.4450   48.3440 N   0  0  0  0  0  0  0  0  0  0  0  0
   59.7770   33.9890   47.0210 C   0  0  0  0  0  0  0  0  0  0  0  0
   60.7140   34.5490   46.3880 O   0  0  0  0  0  0  0  0  0  0  0  0
   58.9990   32.9210   46.3600 C   0  0  0  0  0  0  0  0  0  0  0  0
   59.5260   31.6240   46.2170 C   0  0  0  0  0  0  0  0  0  0  0  0
   58.7940   30.6330   45.5540 C   0  0  0  0  0  0  0  0  0  0  0  0
   57.5250   30.9250   45.0320 C   0  0  0  0  0  0  0  0  0  0  0  0
   56.6170   29.7260   44.1180 S   0  0  0  0  0  0  0  0  0  0  0  0
   55.5290   30.3680   43.3080 O   0  0  0  0  0  0  0  0  0  0  0  0
   57.5510   29.0080   43.1870 O   0  0  0  0  0  0  0  0  0  0  0  0
   55.9480   28.5870   45.2430 N   0  0  0  0  0  0  0  0  0  0  0  0
   56.6960   27.5020   45.8030 C   0  0  0  0  0  0  0  0  0  0  0  0
   58.0650   27.6320   46.0920 C   0  0  0  0  0  0  0  0  0  0  0  0
   58.7840   26.5660   46.6660 C   0  0  0  0  0  0  0  0  0  0  0  0
   60.1690   26.7200   47.0270 N   0  0  0  0  0  0  0  0  0  0  0  0
   60.5590   26.4340   48.1730 O   0  0  0  0  0  0  0  0  0  0  0  0
   61.1000   27.1160   46.0920 O   0  0  0  0  0  0  0  0  0  0  0  0
   58.1100   25.3550   46.9200 C   0  0  0  0  0  0  0  0  0  0  0  0
   56.7440   25.2240   46.6370 C   0  0  0  0  0  0  0  0  0  0  0  0
   56.0350   26.2980   46.0900 C   0  0  0  0  0  0  0  0  0  0  0  0
   54.6750   26.1680   45.8130 O   0  0  0  0  0  0  0  0  0  0  0  0
   57.0040   32.2190   45.1650 C   0  0  0  0  0  0  0  0  0  0  0  0
   57.7370   33.2110   45.8210 C   0  0  0  0  0  0  0  0  0  0  0  0
   59.3260   31.6190   49.5380 C   0  0  0  0  0  0  0  0  0  0  0  0
   58.5390   30.5860   50.0560 C   0  0  0  0  0  0  0  0  0  0  0  0
   56.4289   29.9247   53.7732 H   0  0  0  0  0  0  0  0  0  0  0  0
   55.5709   31.0528   52.6695 H   0  0  0  0  0  0  0  0  0  0  0  0
   55.1541   29.3056   52.6695 H   0  0  0  0  0  0  0  0  0  0  0  0
   57.1968   32.2255   52.7406 H   0  0  0  0  0  0  0  0  0  0  0  0
   58.5810   34.0719   51.8018 H   0  0  0  0  0  0  0  0  0  0  0  0
   60.2115   34.8293   50.2750 H   0  0  0  0  0  0  0  0  0  0  0  0
   61.1614   33.6493   49.3178 H   0  0  0  0  0  0  0  0  0  0  0  0
   60.5185   31.3881   46.6286 H   0  0  0  0  0  0  0  0  0  0  0  0
   59.2144   29.6227   45.4418 H   0  0  0  0  0  0  0  0  0  0  0  0
   58.5808   28.5772   45.8673 H   0  0  0  0  0  0  0  0  0  0  0  0
   58.6619   24.5036   47.3449 H   0  0  0  0  0  0  0  0  0  0  0  0
   56.2285   24.2749   46.8454 H   0  0  0  0  0  0  0  0  0  0  0  0
   54.2250   26.7160   45.0880 H   0  0  0  0  0  0  0  0  0  0  0  0
   56.0127   32.4549   44.7507 H   0  0  0  0  0  0  0  0  0  0  0  0
   57.3220   34.2253   45.9153 H   0  0  0  0  0  0  0  0  0  0  0  0
   59.9257   31.4472   48.6320 H   0  0  0  0  0  0  0  0  0  0  0  0
   58.5231   29.6053   49.5580 H   0  0  0  0  0  0  0  0  0  0  0  0
  1  2  1  0
  2  3  1  0
  3  4  2  0
  4  5  1  0
  5  6  2  0
  6  7  1  0
  7  8  1  0
  8  9  1  0
  9 10  2  0
  9 11  1  0
 11 12  2  0
 12 13  1  0
 13 14  2  0
 14 15  1  0
 15 16  2  0
 15 17  2  0
 15 18  1  0
 18 19  1  0
 19 20  2  0
 20 21  1  0
 21 22  1  0
 22 23  2  0
 22 24  1  0
 21 25  2  0
 25 26  1  0
 26 27  2  0
 27 28  1  0
 14 29  1  0
 29 30  2  0
  6 31  1  0
 31 32  2  0
 32  3  1  0
 30 11  1  0
 27 19  1  0
  1 33  1  0
  1 34  1  0
  1 35  1  0
  4 36  1  0
  5 37  1  0
  7 38  1  0
  7 39  1  0
 12 40  1  0
 13 41  1  0
 20 42  1  0
 25 43  1  0
 26 44  1  0
 28 45  1  0
 29 46  1  0
 30 47  1  0
 31 48  1  0
 32 49  1  0
M  CHG  4   8  -1  18  -1  22   1  24  -1
M  END
>  <UniqueID>  (2) 
2

>  <SMILES>  (2) 
COc1ccc(C[N-]C(=O)c2ccc(S(=O)(=O)[N-]c3cc([N+](=O)[O-])ccc3O)cc2)cc1

>  <Energy>  (2) 
61.71480817477624

>  <Genealogy>  (2) 
COc1ccc(C[N-]C(=O)c2ccc(S(=O)(=O)[N-]c3cc([N+](=O)[O-])ccc3O)cc2)cc1 (protonated)
COc1ccc(C[N-]C(=O)c2ccc(S(=O)(=O)[N-]c3cc([N+](=O)[O-])ccc3O)cc2)cc1 (3D coordinates assigned)
COc1ccc(C[N-]C(=O)c2ccc(S(=O)(=O)[N-]c3cc([N+](=O)[O-])ccc3O)cc2)cc1 (optimized conformer: 61.71480817477624 kcal/mol)

>  <smiles>  (2) 
COc1ccc(CNC(=O)c2ccc(S(=O)(=O)Nc3cc([N+](=O)[O-])ccc3O)cc2)cc1

>  <score_type>  (2) 
oracle

>  <origin>  (2) 
adg

>  <m_score__min__energy>  (2) 
-12.42

>  <m_primary>  (2) 
energy

$$$$
2:0
     RDKit          3D

 50 53  0  0  0  0  0  0  0  0999 V2000
   52.8530   20.9780   51.1430 C   0  0  0  0  0  0  0  0  0  0  0  0
   53.5590   21.6080   49.9840 C   0  0  0  0  0  0  0  0  0  0  0  0
   52.7840   22.4850   48.7790 S   0  0  0  0  0  0  0  0  0  0  0  0
   54.1710   22.8020   47.8830 C   0  0  0  0  0  0  0  0  0  0  0  0
   54.2280   23.6480   46.7270 N   0  0  0  0  0  0  0  0  0  0  0  0
   54.0750   23.2030   45.3750 C   0  0  0  0  0  0  0  0  0  0  0  0
   52.9170   22.9860   44.9320 O   0  0  0  0  0  0  0  0  0  0  0  0
   55.2260   23.0430   44.4690 C   0  0  0  0  0  0  0  0  0  0  0  0
   56.0410   24.0490   43.9860 C   0  0  0  0  0  0  0  0  0  0  0  0
   56.9570   23.4260   43.1660 C   0  0  0  0  0  0  0  0  0  0  0  0
   56.6420   22.0820   43.1930 C   0  0  0  0  0  0  0  0  0  0  0  0
   55.6050   21.8870   43.9750 O   0  0  0  0  0  0  0  0  0  0  0  0
   55.2830   22.2550   48.5260 C   0  0  0  0  0  0  0  0  0  0  0  0
   56.6640   22.4210   48.0110 C   0  0  0  0  0  0  0  0  0  0  0  0
   57.2360   21.4520   47.4450 O   0  0  0  0  0  0  0  0  0  0  0  0
   57.3540   23.6660   48.1790 N   0  0  0  0  0  0  0  0  0  0  0  0
   57.5600   24.6760   47.1810 C   0  0  0  0  0  0  0  0  0  0  0  0
   58.7070   24.7000   46.3670 C   0  0  0  0  0  0  0  0  0  0  0  0
   58.8560   25.6880   45.3890 C   0  0  0  0  0  0  0  0  0  0  0  0
   57.8550   26.6510   45.1990 C   0  0  0  0  0  0  0  0  0  0  0  0
   58.0440   27.9030   43.9760 S   0  0  0  0  0  0  0  0  0  0  0  0
   59.4370   28.4620   44.0580 O   0  0  0  0  0  0  0  0  0  0  0  0
   57.8090   27.3170   42.6120 O   0  0  0  0  0  0  0  0  0  0  0  0
   56.8830   29.1610   44.2590 N   0  0  0  0  0  0  0  0  0  0  0  0
   57.1630   30.4270   44.2020 C   0  0  0  0  0  0  0  0  0  0  0  0
   57.5070   31.0170   43.0230 N   0  0  0  0  0  0  0  0  0  0  0  0
   57.8010   32.3410   42.9620 C   0  0  0  0  0  0  0  0  0  0  0  0
   57.7540   33.1180   44.1190 C   0  0  0  0  0  0  0  0  0  0  0  0
   57.4000   32.5000   45.3170 C   0  0  0  0  0  0  0  0  0  0  0  0
   57.1130   31.1730   45.3380 N   0  0  0  0  0  0  0  0  0  0  0  0
   56.7040   26.6170   45.9970 C   0  0  0  0  0  0  0  0  0  0  0  0
   56.5550   25.6290   46.9750 C   0  0  0  0  0  0  0  0  0  0  0  0
   54.9300   21.5470   49.7030 C   0  0  0  0  0  0  0  0  0  0  0  0
   55.9120   20.8110   50.5740 C   0  0  0  0  0  0  0  0  0  0  0  0
   53.2794   21.3585   52.0829 H   0  0  0  0  0  0  0  0  0  0  0  0
   51.7823   21.2263   51.0991 H   0  0  0  0  0  0  0  0  0  0  0  0
   52.9783   19.8860   51.0991 H   0  0  0  0  0  0  0  0  0  0  0  0
   55.9728   25.1239   44.2096 H   0  0  0  0  0  0  0  0  0  0  0  0
   57.7735   23.9029   42.6040 H   0  0  0  0  0  0  0  0  0  0  0  0
   57.1780   21.2944   42.6432 H   0  0  0  0  0  0  0  0  0  0  0  0
   59.4896   23.9386   46.5004 H   0  0  0  0  0  0  0  0  0  0  0  0
   59.7624   25.7098   44.7661 H   0  0  0  0  0  0  0  0  0  0  0  0
   58.0760   32.8003   42.0010 H   0  0  0  0  0  0  0  0  0  0  0  0
   57.9904   34.1918   44.0869 H   0  0  0  0  0  0  0  0  0  0  0  0
   57.3531   33.0874   46.2458 H   0  0  0  0  0  0  0  0  0  0  0  0
   55.9150   27.3700   45.8537 H   0  0  0  0  0  0  0  0  0  0  0  0
   55.6415   25.6001   47.5871 H   0  0  0  0  0  0  0  0  0  0  0  0
   55.6709   20.9917   51.6319 H   0  0  0  0  0  0  0  0  0  0  0  0
   55.8528   19.7330   50.3634 H   0  0  0  0  0  0  0  0  0  0  0  0
   56.9301   21.1704   50.3634 H   0  0  0  0  0  0  0  0  0  0  0  0
  1  2  1  0
  2  3  1  0
  3  4  1  0
  4  5  1  0
  5  6  1  0
  6  7  2  0
  6  8  1  0
  8  9  2  0
  9 10  1  0
 10 11  2  0
 11 12  1  0
  4 13  2  0
 13 14  1  0
 14 15  2  0
 14 16  1  0
 16 17  1  0
 17 18  2  0
 18 19  1  0
 19 20  2  0
 20 21  1  0
 21 22  2  0
 21 23  2  0
 21 24  1  0
 24 25  2  3
 25 26  1  0
 26 27  2  0
 27 28  1  0
 28 29  2  0
 29 30  1  0
 20 31  1  0
 31 32  2  0
 13 33  1  0
 33 34  1  0
 33  2  2  0
 12  8  1  0
 32 17  1  0
 30 25  1  0
  1 35  1  0
  1 36  1  0
  1 37  1  0
  9 38  1  0
 10 39  1  0
 11 40  1  0
 18 41  1  0
 19 42  1  0
 27 43  1  0
 28 44  1  0
 29 45  1  0
 31 46  1  0
 32 47  1  0
 34 48  1  0
 34 49  1  0
 34 50  1  0
M  CHG  3   5  -1  16  -1  30  -1
M  END
>  <UniqueID>  (3) 
3

>  <SMILES>  (3) 
Cc1sc([N-]C(=O)c2ccco2)c(C(=O)[N-]c2ccc(S(=O)(=O)N=c3nccc[n-]3)cc2)c1C

>  <Energy>  (3) 
121.13996182202881

>  <Genealogy>  (3) 
Cc1sc([N-]C(=O)c2ccco2)c(C(=O)[N-]c2ccc(S(=O)(=O)N=c3nccc[n-]3)cc2)c1C (protonated)
Cc1sc([N-]C(=O)c2ccco2)c(C(=O)[N-]c2ccc(S(=O)(=O)N=c3nccc[n-]3)cc2)c1C (3D coordinates assigned)
Cc1sc([N-]C(=O)c2ccco2)c(C(=O)[N-]c2ccc(S(=O)(=O)N=c3nccc[n-]3)cc2)c1C (optimized conformer: 121.13996182202881 kcal/mol)

>  <smiles>  (3) 
Cc1sc(NC(=O)c2ccco2)c(C(=O)Nc2ccc(S(=O)(=O)N=c3nccc[nH]3)cc2)c1C

>  <score_type>  (3) 
oracle

>  <origin>  (3) 
adg

>  <m_score__min__energy>  (3) 
-14.35

>  <m_primary>  (3) 
energy

$$$$
3:0
     RDKit          3D

 43 45  0  0  0  0  0  0  0  0999 V2000
   56.2830   31.1660   45.2410 H   0  0  0  0  0  0  0  0  0  0  0  0
   56.6140   31.8430   44.5950 O   0  0  0  0  0  0  0  0  0  0  0  0
   56.9190   31.1570   43.4100 C   0  0  0  0  0  0  0  0  0  0  0  0
   57.9471   30.7706   43.4702 H   0  0  0  0  0  0  0  0  0  0  0  0
   56.8231   31.8520   42.5628 H   0  0  0  0  0  0  0  0  0  0  0  0
   55.9560   29.9910   43.2020 C   0  0  0  0  0  0  0  0  0  0  0  0
   56.3855   29.2898   42.4713 H   0  0  0  0  0  0  0  0  0  0  0  0
   54.9963   30.3777   42.8287 H   0  0  0  0  0  0  0  0  0  0  0  0
   55.7330   29.2950   44.4670 N   0  0  0  0  0  0  0  0  0  0  0  0
   56.6580   28.8860   45.2880 C   0  0  0  0  0  0  0  0  0  0  0  0
   57.3590   29.8110   45.9900 N   0  0  0  0  0  0  0  0  0  0  0  0
   58.3380   29.4360   46.8520 C   0  0  0  0  0  0  0  0  0  0  0  0
   59.0040   30.3110   47.5470 N   0  0  0  0  0  0  0  0  0  0  0  0
   59.2430   31.6860   47.2020 C   0  0  0  0  0  0  0  0  0  0  0  0
   60.5430   32.1940   47.0070 C   0  0  0  0  0  0  0  0  0  0  0  0
   61.4114   31.5240   47.0904 H   0  0  0  0  0  0  0  0  0  0  0  0
   60.7330   33.5460   46.7080 C   0  0  0  0  0  0  0  0  0  0  0  0
   61.7487   33.9338   46.5409 H   0  0  0  0  0  0  0  0  0  0  0  0
   59.6350   34.4060   46.6210 C   0  0  0  0  0  0  0  0  0  0  0  0
   59.7856   35.4680   46.3771 H   0  0  0  0  0  0  0  0  0  0  0  0
   58.3460   33.9160   46.8440 C   0  0  0  0  0  0  0  0  0  0  0  0
   57.4824   34.5946   46.7834 H   0  0  0  0  0  0  0  0  0  0  0  0
   58.1520   32.5650   47.1440 C   0  0  0  0  0  0  0  0  0  0  0  0
   57.1364   32.1885   47.3360 H   0  0  0  0  0  0  0  0  0  0  0  0
   58.6010   28.1180   47.0240 N   0  0  0  0  0  0  0  0  0  0  0  0
   57.9110   27.1750   46.3290 C   0  0  0  0  0  0  0  0  0  0  0  0
   58.1720   25.9100   46.4860 N   0  0  0  0  0  0  0  0  0  0  0  0
   58.1720   24.9160   45.4130 C   0  0  0  0  0  0  0  0  0  0  0  0
   58.8379   24.0853   45.6896 H   0  0  0  0  0  0  0  0  0  0  0  0
   58.5244   25.3935   44.4868 H   0  0  0  0  0  0  0  0  0  0  0  0
   56.7820   24.3820   45.1860 C   0  0  0  0  0  0  0  0  0  0  0  0
   55.8180   24.4760   46.2030 C   0  0  0  0  0  0  0  0  0  0  0  0
   56.0855   24.9233   47.1717 H   0  0  0  0  0  0  0  0  0  0  0  0
   54.5190   24.0030   45.9890 C   0  0  0  0  0  0  0  0  0  0  0  0
   53.7689   24.0757   46.7903 H   0  0  0  0  0  0  0  0  0  0  0  0
   54.1730   23.4380   44.7580 C   0  0  0  0  0  0  0  0  0  0  0  0
   52.8820   22.9690   44.5460 O   0  0  0  0  0  0  0  0  0  0  0  0
   55.1260   23.3450   43.7400 C   0  0  0  0  0  0  0  0  0  0  0  0
   54.8530   22.9004   42.7716 H   0  0  0  0  0  0  0  0  0  0  0  0
   56.4260   23.8160   43.9500 C   0  0  0  0  0  0  0  0  0  0  0  0
   57.1722   23.7432   43.1451 H   0  0  0  0  0  0  0  0  0  0  0  0
   56.9390   27.5590   45.4590 N   0  0  0  0  0  0  0  0  0  0  0  0
   56.4180   26.8210   44.9330 H   0  0  0  0  0  0  0  0  0  0  0  0
  1  2  1  0
  2  3  1  0
  3  4  1  0
  3  5  1  0
  3  6  1  0
  6  7  1  0
  6  8  1  0
  6  9  1  0
  9 10  2  0
 10 11  1  0
 11 12  1  0
 12 13  2  0
 13 14  1  0
 14 15  2  0
 15 16  1  0
 15 17  1  0
 17 18  1  0
 17 19  2  0
 19 20  1  0
 19 21  1  0
 21 22  1  0
 21 23  2  0
 23 24  1  0
 12 25  1  0
 25 26  1  0
 26 27  2  3
 27 28  1  0
 28 29  1  0
 28 30  1  0
 28 31  1  0
 31 32  2  0
 32 33  1  0
 32 34  1  0
 34 35  1  0
 34 36  2  0
 36 37  1  0
 36 38  1  0
 38 39  1  0
 38 40  2  0
 40 41  1  0
 26 42  1  0
 42 43  1  0
 42 10  1  0
 23 14  1  0
 40 31  1  0
M  CHG  3  11  -1  25  -1  37  -1
M  END
>  <UniqueID>  (4) 
4

>  <SMILES>  (4) 
[O-]c1ccc(CN=c2[n-]/c(=N/c3ccccc3)[n-]/c(=N/CCO)[nH]2)cc1

>  <Energy>  (4) 
49.362506735236884

>  <Genealogy>  (4) 
[O-]c1ccc(CN=c2[n-]c(=Nc3ccccc3)[n-]c(=NCCO)[nH]2)cc1 (protonated)
[O-]c1ccc(CN=c2[n-]/c(=N/c3ccccc3)[n-]/c(=N/CCO)[nH]2)cc1 (cis-trans isomerization)
[O-]c1ccc(CN=c2[n-]/c(=N/c3ccccc3)[n-]/c(=N/CCO)[nH]2)cc1 (3D coordinates assigned)
[O-]c1ccc(CN=c2[n-]/c(=N/c3ccccc3)[n-]/c(=N/CCO)[nH]2)cc1 (optimized conformer: 49.362506735236884 kcal/mol)

>  <smiles>  (4) 
OCCN=c1[nH]c(=NCc2ccc(O)cc2)[nH]c(=Nc2ccccc2)[nH]1

>  <score_type>  (4) 
oracle

>  <origin>  (4) 
adg

>  <m_score__min__energy>  (4) 
-12.23

>  <m_primary>  (4) 
energy

$$$$
4:0
     RDKit          3D

 33 34  0  0  0  0  0  0  0  0999 V2000
   55.2370   29.6440   44.9250 N   0  0  0  0  0  0  0  0  0  0  0  0
   56.6960   30.0810   44.1080 S   0  0  0  0  0  0  0  0  0  0  0  0
   56.3740   30.4460   42.6860 O   0  0  0  0  0  0  0  0  0  0  0  0
   57.6430   28.9130   44.1000 O   0  0  0  0  0  0  0  0  0  0  0  0
   57.4470   31.4510   44.9370 C   0  0  0  0  0  0  0  0  0  0  0  0
   57.0490   32.7550   44.6040 C   0  0  0  0  0  0  0  0  0  0  0  0
   57.6370   33.8570   45.2280 C   0  0  0  0  0  0  0  0  0  0  0  0
   58.6220   33.6690   46.1950 C   0  0  0  0  0  0  0  0  0  0  0  0
   59.0250   32.3790   46.5420 C   0  0  0  0  0  0  0  0  0  0  0  0
   58.4520   31.2570   45.9140 C   0  0  0  0  0  0  0  0  0  0  0  0
   58.8460   29.9330   46.3120 N   0  0  0  0  0  0  0  0  0  0  0  0
   59.0450   29.5460   47.6800 C   0  0  0  0  0  0  0  0  0  0  0  0
   59.1070   30.4190   48.5890 O   0  0  0  0  0  0  0  0  0  0  0  0
   59.1990   28.0980   48.0350 C   0  0  0  0  0  0  0  0  0  0  0  0
   58.4390   27.2360   47.0560 C   0  0  0  0  0  0  0  0  0  0  0  0
   57.0430   27.3700   46.9600 C   0  0  0  0  0  0  0  0  0  0  0  0
   56.3100   26.5630   46.0860 C   0  0  0  0  0  0  0  0  0  0  0  0
   54.9320   26.7080   45.9980 O   0  0  0  0  0  0  0  0  0  0  0  0
   56.9640   25.6090   45.3030 C   0  0  0  0  0  0  0  0  0  0  0  0
   58.3490   25.4580   45.3950 C   0  0  0  0  0  0  0  0  0  0  0  0
   59.0920   26.2610   46.2700 C   0  0  0  0  0  0  0  0  0  0  0  0
   60.8320   26.0100   46.3560 Cl  0  0  0  0  0  0  0  0  0  0  0  0
   55.1440   28.6060   44.8490 H   0  0  0  0  0  0  0  0  0  0  0  0
   56.2677   32.9101   43.8454 H   0  0  0  0  0  0  0  0  0  0  0  0
   57.3220   34.8751   44.9556 H   0  0  0  0  0  0  0  0  0  0  0  0
   59.0828   34.5389   46.6858 H   0  0  0  0  0  0  0  0  0  0  0  0
   59.7970   32.2376   47.3128 H   0  0  0  0  0  0  0  0  0  0  0  0
   59.0180   29.2160   45.5730 H   0  0  0  0  0  0  0  0  0  0  0  0
   60.2650   27.8282   48.0049 H   0  0  0  0  0  0  0  0  0  0  0  0
   58.7972   27.9321   49.0455 H   0  0  0  0  0  0  0  0  0  0  0  0
   56.5231   28.1166   47.5783 H   0  0  0  0  0  0  0  0  0  0  0  0
   56.3871   24.9758   44.6129 H   0  0  0  0  0  0  0  0  0  0  0  0
   58.8594   24.7045   44.7771 H   0  0  0  0  0  0  0  0  0  0  0  0
  1  2  1  0
  2  3  2  0
  2  4  2  0
  2  5  1  0
  5  6  2  0
  6  7  1  0
  7  8  2  0
  8  9  1  0
  9 10  2  0
 10 11  1  0
 11 12  1  0
 12 13  2  0
 12 14  1  0
 14 15  1  0
 15 16  2  0
 16 17  1  0
 17 18  1  0
 17 19  2  0
 19 20  1  0
 20 21  2  0
 21 22  1  0
 10  5  1  0
 21 15  1  0
  1 23  1  0
  6 24  1  0
  7 25  1  0
  8 26  1  0
  9 27  1  0
 11 28  1  0
 14 29  1  0
 14 30  1  0
 16 31  1  0
 19 32  1  0
 20 33  1  0
M  CHG  2   1  -1  18  -1
M  END
>  <UniqueID>  (5) 
5

>  <SMILES>  (5) 
[NH-]S(=O)(=O)c1ccccc1NC(=O)Cc1cc([O-])ccc1Cl

>  <Energy>  (5) 
37.397181677477896

>  <Genealogy>  (5) 
[NH-]S(=O)(=O)c1ccccc1NC(=O)Cc1cc([O-])ccc1Cl (protonated)
[NH-]S(=O)(=O)c1ccccc1NC(=O)Cc1cc([O-])ccc1Cl (3D coordinates assigned)
[NH-]S(=O)(=O)c1ccccc1NC(=O)Cc1cc([O-])ccc1Cl (optimized conformer: 37.397181677477896 kcal/mol)

>  <smiles>  (5) 
NS(=O)(=O)c1ccccc1NC(=O)Cc1cc(O)ccc1Cl

>  <score_type>  (5) 
oracle

>  <origin>  (5) 
adg

>  <m_score__min__energy>  (5) 
-13.779999999999999

>  <m_primary>  (5) 
energy

$$$$
5:0
     RDKit          3D

 42 44  0  0  0  0  0  0  0  0999 V2000
   57.7030   28.3740   43.4360 N   0  0  0  0  0  0  0  0  0  0  0  0
   57.0680   28.9520   44.9370 S   0  0  0  0  0  0  0  0  0  0  0  0
   56.2960   27.8520   45.6110 O   0  0  0  0  0  0  0  0  0  0  0  0
   56.1380   30.1030   44.6770 O   0  0  0  0  0  0  0  0  0  0  0  0
   58.3900   29.4700   45.9790 C   0  0  0  0  0  0  0  0  0  0  0  0
   59.2900   30.4410   45.5350 C   0  0  0  0  0  0  0  0  0  0  0  0
   60.3350   30.8700   46.3560 C   0  0  0  0  0  0  0  0  0  0  0  0
   60.5050   30.3350   47.6570 C   0  0  0  0  0  0  0  0  0  0  0  0
   59.5670   29.3660   48.1040 C   0  0  0  0  0  0  0  0  0  0  0  0
   59.6820   28.8400   49.3900 C   0  0  0  0  0  0  0  0  0  0  0  0
   60.6990   29.2740   50.2260 C   0  0  0  0  0  0  0  0  0  0  0  0
   61.6160   30.2230   49.7740 C   0  0  0  0  0  0  0  0  0  0  0  0
   62.5170   30.6060   50.5700 O   0  0  0  0  0  0  0  0  0  0  0  0
   61.5370   30.7320   48.4960 N   0  0  0  0  0  0  0  0  0  0  0  0
   62.5470   31.7260   48.0630 C   0  0  0  0  0  0  0  0  0  0  0  0
   62.3240   33.0370   48.7520 C   0  0  0  0  0  0  0  0  0  0  0  0
   63.3050   33.7980   48.9760 O   0  0  0  0  0  0  0  0  0  0  0  0
   61.0020   33.4200   49.1440 N   0  0  0  0  0  0  0  0  0  0  0  0
   60.3130   34.5940   48.6210 C   0  0  0  0  0  0  0  0  0  0  0  0
   59.5500   34.2410   47.3730 C   0  0  0  0  0  0  0  0  0  0  0  0
   60.0050   34.6890   46.1210 C   0  0  0  0  0  0  0  0  0  0  0  0
   59.2890   34.3820   44.9610 C   0  0  0  0  0  0  0  0  0  0  0  0
   58.1140   33.6290   45.0410 C   0  0  0  0  0  0  0  0  0  0  0  0
   57.4210   33.3320   43.9130 F   0  0  0  0  0  0  0  0  0  0  0  0
   57.6520   33.1840   46.2830 C   0  0  0  0  0  0  0  0  0  0  0  0
   58.3660   33.4880   47.4460 C   0  0  0  0  0  0  0  0  0  0  0  0
   58.5240   28.9410   47.2660 C   0  0  0  0  0  0  0  0  0  0  0  0
   56.9420   27.8320   42.9710 H   0  0  0  0  0  0  0  0  0  0  0  0
   57.8840   29.2120   42.8390 H   0  0  0  0  0  0  0  0  0  0  0  0
   59.1748   30.8718   44.5295 H   0  0  0  0  0  0  0  0  0  0  0  0
   61.0358   31.6337   45.9877 H   0  0  0  0  0  0  0  0  0  0  0  0
   58.9666   28.0816   49.7408 H   0  0  0  0  0  0  0  0  0  0  0  0
   60.7829   28.8701   51.2457 H   0  0  0  0  0  0  0  0  0  0  0  0
   63.5515   31.3529   48.3117 H   0  0  0  0  0  0  0  0  0  0  0  0
   62.4553   31.8755   46.9771 H   0  0  0  0  0  0  0  0  0  0  0  0
   59.6119   34.9711   49.3801 H   0  0  0  0  0  0  0  0  0  0  0  0
   61.0576   35.3663   48.3779 H   0  0  0  0  0  0  0  0  0  0  0  0
   60.9281   35.2835   46.0540 H   0  0  0  0  0  0  0  0  0  0  0  0
   59.6505   34.7334   43.9833 H   0  0  0  0  0  0  0  0  0  0  0  0
   56.7257   32.5940   46.3454 H   0  0  0  0  0  0  0  0  0  0  0  0
   57.9995   33.1364   48.4217 H   0  0  0  0  0  0  0  0  0  0  0  0
   57.8077   28.1870   47.6243 H   0  0  0  0  0  0  0  0  0  0  0  0
  1  2  1  0
  2  3  2  0
  2  4  2  0
  2  5  1  0
  5  6  2  0
  6  7  1  0
  7  8  2  0
  8  9  1  0
  9 10  1  0
 10 11  2  0
 11 12  1  0
 12 13  2  0
 12 14  1  0
 14 15  1  0
 15 16  1  0
 16 17  2  0
 16 18  1  0
 18 19  1  0
 19 20  1  0
 20 21  2  0
 21 22  1  0
 22 23  2  0
 23 24  1  0
 23 25  1  0
 25 26  2  0
  9 27  2  0
 27  5  1  0
 14  8  1  0
 26 20  1  0
  1 28  1  0
  1 29  1  0
  6 30  1  0
  7 31  1  0
 10 32  1  0
 11 33  1  0
 15 34  1  0
 15 35  1  0
 19 36  1  0
 19 37  1  0
 21 38  1  0
 22 39  1  0
 25 40  1  0
 26 41  1  0
 27 42  1  0
M  CHG  1  18  -1
M  END
>  <UniqueID>  (6) 
6

>  <SMILES>  (6) 
NS(=O)(=O)c1ccc2c(ccc(=O)n2CC(=O)[N-]Cc2ccc(F)cc2)c1

>  <Energy>  (6) 
50.05591149224354

>  <Genealogy>  (6) 
NS(=O)(=O)c1ccc2c(ccc(=O)n2CC(=O)[N-]Cc2ccc(F)cc2)c1 (protonated)
NS(=O)(=O)c1ccc2c(ccc(=O)n2CC(=O)[N-]Cc2ccc(F)cc2)c1 (3D coordinates assigned)
NS(=O)(=O)c1ccc2c(ccc(=O)n2CC(=O)[N-]Cc2ccc(F)cc2)c1 (optimized conformer: 50.05591149224354 kcal/mol)

>  <smiles>  (6) 
NS(=O)(=O)c1ccc2c(ccc(=O)n2CC(=O)NCc2ccc(F)cc2)c1

>  <score_type>  (6) 
oracle

>  <origin>  (6) 
adg

>  <m_score__min__energy>  (6) 
-11.199999999999999

>  <m_primary>  (6) 
energy

$$$$
6:0
     RDKit          3D

 24 25  0  0  0  0  0  0  0  0999 V2000
   57.0080   25.6120   47.2630 H   0  0  0  0  0  0  0  0  0  0  0  0
   56.0780   25.2130   47.2260 O   0  0  0  0  0  0  0  0  0  0  0  0
   55.6690   24.4520   46.1350 C   0  0  0  0  0  0  0  0  0  0  0  0
   54.3610   24.1050   46.0080 N   0  0  0  0  0  0  0  0  0  0  0  0
   53.9300   23.3650   44.9560 C   0  0  0  0  0  0  0  0  0  0  0  0
   52.7150   23.0520   44.8630 O   0  0  0  0  0  0  0  0  0  0  0  0
   54.8060   22.9680   43.9980 N   0  0  0  0  0  0  0  0  0  0  0  0
   56.1230   23.2900   44.0770 C   0  0  0  0  0  0  0  0  0  0  0  0
   56.8990   22.9350   43.1490 O   0  0  0  0  0  0  0  0  0  0  0  0
   56.6010   24.0290   45.1760 C   0  0  0  0  0  0  0  0  0  0  0  0
   58.0250   24.4190   45.3050 C   0  0  0  0  0  0  0  0  0  0  0  0
   58.7875   23.7183   44.9339 H   0  0  0  0  0  0  0  0  0  0  0  0
   58.4300   25.5410   45.8310 N   0  0  0  0  0  0  0  0  0  0  0  0
   58.0930   26.8730   45.4120 C   0  0  0  0  0  0  0  0  0  0  0  0
   59.1110   27.7110   44.9380 C   0  0  0  0  0  0  0  0  0  0  0  0
   60.1499   27.3501   44.9149 H   0  0  0  0  0  0  0  0  0  0  0  0
   58.8140   29.0040   44.4940 C   0  0  0  0  0  0  0  0  0  0  0  0
   59.6206   29.6620   44.1384 H   0  0  0  0  0  0  0  0  0  0  0  0
   57.4930   29.4600   44.5020 C   0  0  0  0  0  0  0  0  0  0  0  0
   57.2618   30.4811   44.1643 H   0  0  0  0  0  0  0  0  0  0  0  0
   56.4650   28.6190   44.9390 C   0  0  0  0  0  0  0  0  0  0  0  0
   55.1490   29.0660   44.9270 O   0  0  0  0  0  0  0  0  0  0  0  0
   56.7600   27.3250   45.3830 C   0  0  0  0  0  0  0  0  0  0  0  0
   55.9479   26.6591   45.7103 H   0  0  0  0  0  0  0  0  0  0  0  0
  1  2  1  0
  2  3  1  0
  3  4  1  0
  4  5  1  0
  5  6  2  0
  5  7  1  0
  7  8  1  0
  8  9  2  0
  8 10  1  0
 10 11  1  0
 11 12  1  0
 11 13  2  0
 13 14  1  0
 14 15  2  0
 15 16  1  0
 15 17  1  0
 17 18  1  0
 17 19  2  0
 19 20  1  0
 19 21  1  0
 21 22  1  0
 21 23  2  0
 23 24  1  0
 10  3  2  0
 23 14  1  0
M  CHG  3   4  -1   7  -1  22  -1
M  END
>  <UniqueID>  (7) 
7

>  <SMILES>  (7) 
O=c1[n-]c(O)c(/C=N\c2cccc([O-])c2)c(=O)[n-]1

>  <Energy>  (7) 
38.8816897077201

>  <Genealogy>  (7) 
O=c1[n-]c(O)c(C=Nc2cccc([O-])c2)c(=O)[n-]1 (protonated)
O=c1[n-]c(O)c(/C=N\c2cccc([O-])c2)c(=O)[n-]1 (cis-trans isomerization)
O=c1[n-]c(O)c(/C=N\c2cccc([O-])c2)c(=O)[n-]1 (3D coordinates assigned)
O=c1[n-]c(O)c(/C=N\c2cccc([O-])c2)c(=O)[n-]1 (optimized conformer: 38.8816897077201 kcal/mol)

>  <smiles>  (7) 
O=c1[nH]c(O)c(C=Nc2cccc(O)c2)c(=O)[nH]1

>  <score_type>  (7) 
oracle

>  <origin>  (7) 
adg

>  <m_score__min__energy>  (7) 
-12.66

>  <m_primary>  (7) 
energy

$$$$
7:0
     RDKit          3D

 60 63  0  0  0  0  0  0  0  0999 V2000
   58.4360   26.1560   46.9380 O   0  0  0  0  0  0  0  0  0  0  0  0
   57.3690   26.1870   46.2700 C   0  0  0  0  0  0  0  0  0  0  0  0
   56.5780   27.3820   46.2870 N   0  0  0  0  0  0  0  0  0  0  0  0
   57.0410   28.7000   45.9480 C   0  0  0  0  0  0  0  0  0  0  0  0
   58.2500   29.2070   46.4590 C   0  0  0  0  0  0  0  0  0  0  0  0
   58.7090   30.4760   46.0820 C   0  0  0  0  0  0  0  0  0  0  0  0
   60.2270   31.0940   46.7410 S   0  0  0  0  0  0  0  0  0  0  0  0
   61.3520   30.1920   46.3170 O   0  0  0  0  0  0  0  0  0  0  0  0
   60.4880   32.4600   46.1690 O   0  0  0  0  0  0  0  0  0  0  0  0
   60.1880   31.1870   48.4880 N   0  0  0  0  0  0  0  0  0  0  0  0
   58.9580   31.8610   48.9390 C   0  0  0  0  0  0  0  0  0  0  0  0
   58.7620   31.6420   50.4490 C   0  0  0  0  0  0  0  0  0  0  0  0
   58.6900   30.2760   50.8460 O   0  0  0  0  0  0  0  0  0  0  0  0
   59.1270   29.3650   49.8470 C   0  0  0  0  0  0  0  0  0  0  0  0
   60.3840   29.8570   49.1120 C   0  0  0  0  0  0  0  0  0  0  0  0
   57.9550   31.2440   45.1850 C   0  0  0  0  0  0  0  0  0  0  0  0
   56.7600   30.7400   44.6640 C   0  0  0  0  0  0  0  0  0  0  0  0
   56.3070   29.4700   45.0360 C   0  0  0  0  0  0  0  0  0  0  0  0
   55.1220   28.9770   44.4990 O   0  0  0  0  0  0  0  0  0  0  0  0
   56.9840   25.0140   45.4580 C   0  0  0  0  0  0  0  0  0  0  0  0
   57.9670   24.2090   44.8630 C   0  0  0  0  0  0  0  0  0  0  0  0
   57.6010   23.0880   44.1100 C   0  0  0  0  0  0  0  0  0  0  0  0
   56.2500   22.7750   43.9250 C   0  0  0  0  0  0  0  0  0  0  0  0
   55.9110   21.6170   43.2330 O   0  0  0  0  0  0  0  0  0  0  0  0
   55.2530   23.6090   44.4660 C   0  0  0  0  0  0  0  0  0  0  0  0
   53.8180   23.3490   44.2360 C   0  0  0  0  0  0  0  0  0  0  0  0
   53.2960   23.7130   43.1470 O   0  0  0  0  0  0  0  0  0  0  0  0
   53.0150   22.6250   45.1780 N   0  0  0  0  0  0  0  0  0  0  0  0
   52.3810   23.2030   46.3600 C   0  0  0  0  0  0  0  0  0  0  0  0
   52.4320   22.2130   47.5280 C   0  0  0  0  0  0  0  0  0  0  0  0
   53.8400   22.0090   48.0230 C   0  0  0  0  0  0  0  0  0  0  0  0
   54.2010   20.8180   48.6740 C   0  0  0  0  0  0  0  0  0  0  0  0
   55.5130   20.6280   49.1220 C   0  0  0  0  0  0  0  0  0  0  0  0
   56.4710   21.6270   48.9300 C   0  0  0  0  0  0  0  0  0  0  0  0
   57.7720   21.4420   49.3830 O   0  0  0  0  0  0  0  0  0  0  0  0
   56.1200   22.8130   48.2780 C   0  0  0  0  0  0  0  0  0  0  0  0
   54.8150   23.0000   47.8160 C   0  0  0  0  0  0  0  0  0  0  0  0
   55.6290   24.7020   45.2640 C   0  0  0  0  0  0  0  0  0  0  0  0
   58.8408   28.6009   47.1616 H   0  0  0  0  0  0  0  0  0  0  0  0
   59.0372   32.9389   48.7344 H   0  0  0  0  0  0  0  0  0  0  0  0
   58.0970   31.4412   48.3983 H   0  0  0  0  0  0  0  0  0  0  0  0
   59.6076   32.1082   50.9758 H   0  0  0  0  0  0  0  0  0  0  0  0
   57.7920   32.0926   50.7059 H   0  0  0  0  0  0  0  0  0  0  0  0
   59.3522   28.3997   50.3239 H   0  0  0  0  0  0  0  0  0  0  0  0
   58.3208   29.2706   49.1046 H   0  0  0  0  0  0  0  0  0  0  0  0
   61.2119   29.9235   49.8332 H   0  0  0  0  0  0  0  0  0  0  0  0
   60.6064   29.1387   48.3091 H   0  0  0  0  0  0  0  0  0  0  0  0
   58.3039   32.2448   44.8905 H   0  0  0  0  0  0  0  0  0  0  0  0
   56.1727   31.3452   43.9578 H   0  0  0  0  0  0  0  0  0  0  0  0
   59.0305   24.4603   44.9891 H   0  0  0  0  0  0  0  0  0  0  0  0
   58.3778   22.4508   43.6621 H   0  0  0  0  0  0  0  0  0  0  0  0
   52.9110   24.1247   46.6421 H   0  0  0  0  0  0  0  0  0  0  0  0
   51.3298   23.4290   46.1279 H   0  0  0  0  0  0  0  0  0  0  0  0
   51.8169   22.6023   48.3527 H   0  0  0  0  0  0  0  0  0  0  0  0
   52.0487   21.2445   47.1742 H   0  0  0  0  0  0  0  0  0  0  0  0
   53.4490   20.0310   48.8324 H   0  0  0  0  0  0  0  0  0  0  0  0
   55.7907   19.6906   49.6262 H   0  0  0  0  0  0  0  0  0  0  0  0
   56.8732   23.6006   48.1285 H   0  0  0  0  0  0  0  0  0  0  0  0
   54.5491   23.9274   47.2876 H   0  0  0  0  0  0  0  0  0  0  0  0
   54.8542   25.3196   45.7417 H   0  0  0  0  0  0  0  0  0  0  0  0
  1  2  2  0
  2  3  1  0
  3  4  1  0
  4  5  2  0
  5  6  1  0
  6  7  1  0
  7  8  2  0
  7  9  2  0
  7 10  1  0
 10 11  1  0
 11 12  1  0
 12 13  1  0
 13 14  1  0
 14 15  1  0
  6 16  2  0
 16 17  1  0
 17 18  2  0
 18 19  1  0
  2 20  1  0
 20 21  2  0
 21 22  1  0
 22 23  2  0
 23 24  1  0
 23 25  1  0
 25 26  1  0
 26 27  2  0
 26 28  1  0
 28 29  1  0
 29 30  1  0
 30 31  1  0
 31 32  2  0
 32 33  1  0
 33 34  2  0
 34 35  1  0
 34 36  1  0
 36 37  2  0
 25 38  2  0
 18  4  1  0
 38 20  1  0
 15 10  1  0
 37 31  1  0
  5 39  1  0
 11 40  1  0
 11 41  1  0
 12 42  1  0
 12 43  1  0
 14 44  1  0
 14 45  1  0
 15 46  1  0
 15 47  1  0
 16 48  1  0
 17 49  1  0
 21 50  1  0
 22 51  1  0
 29 52  1  0
 29 53  1  0
 30 54  1  0
 30 55  1  0
 32 56  1  0
 33 57  1  0
 36 58  1  0
 37 59  1  0
 38 60  1  0
M  CHG  5   3  -1  19  -1  24  -1  28  -1  35  -1
M  END
>  <UniqueID>  (8) 
8

>  <SMILES>  (8) 
O=C([N-]c1cc(S(=O)(=O)N2CCOCC2)ccc1[O-])c1ccc([O-])c(C(=O)[N-]CCc2ccc([O-])cc2)c1

>  <Energy>  (8) 
82.39486702401464

>  <Genealogy>  (8) 
O=C([N-]c1cc(S(=O)(=O)N2CCOCC2)ccc1[O-])c1ccc([O-])c(C(=O)[N-]CCc2ccc([O-])cc2)c1 (protonated)
O=C([N-]c1cc(S(=O)(=O)N2CCOCC2)ccc1[O-])c1ccc([O-])c(C(=O)[N-]CCc2ccc([O-])cc2)c1 (3D coordinates assigned)
O=C([N-]c1cc(S(=O)(=O)N2CCOCC2)ccc1[O-])c1ccc([O-])c(C(=O)[N-]CCc2ccc([O-])cc2)c1 (nonaromatic ring conformer: 82.39486702401464 kcal/mol)

>  <smiles>  (8) 
O=C(Nc1cc(S(=O)(=O)N2CCOCC2)ccc1O)c1ccc(O)c(C(=O)NCCc2ccc(O)cc2)c1

>  <score_type>  (8) 
oracle

>  <origin>  (8) 
adg

>  <m_score__min__energy>  (8) 
-19.489999999999998

>  <m_primary>  (8) 
energy

$$$$
8:0
     RDKit          3D

 32 34  0  0  0  0  0  0  0  0999 V2000
   57.9820   30.3290   46.7080 O   0  0  0  0  0  0  0  0  0  0  0  0
   58.5610   31.3410   47.1890 C   0  0  0  0  0  0  0  0  0  0  0  0
   59.2290   31.2300   48.5250 C   0  0  0  0  0  0  0  0  0  0  0  0
   59.2240   32.5830   49.2380 C   0  0  0  0  0  0  0  0  0  0  0  0
   59.8700   33.7160   48.3880 C   0  0  1  0  0  0  0  0  0  0  0  0
   59.5830   34.9680   48.9830 O   0  0  0  0  0  0  0  0  0  0  0  0
   61.3940   33.5200   48.3260 C   0  0  0  0  0  0  0  0  0  0  0  0
   62.0400   33.0870   47.1450 C   0  0  0  0  0  0  0  0  0  0  0  0
   63.4220   32.8730   47.1210 C   0  0  0  0  0  0  0  0  0  0  0  0
   64.1810   33.0670   48.2740 C   0  0  0  0  0  0  0  0  0  0  0  0
   63.5600   33.4660   49.4580 C   0  0  0  0  0  0  0  0  0  0  0  0
   62.1790   33.6810   49.4900 C   0  0  0  0  0  0  0  0  0  0  0  0
   59.2600   33.7460   46.9830 C   0  0  0  0  0  0  0  0  0  0  0  0
   59.3870   34.9080   46.1960 C   0  0  0  0  0  0  0  0  0  0  0  0
   58.8640   34.9550   44.9030 C   0  0  0  0  0  0  0  0  0  0  0  0
   58.2210   33.8410   44.3670 C   0  0  0  0  0  0  0  0  0  0  0  0
   58.1120   32.6690   45.1160 C   0  0  0  0  0  0  0  0  0  0  0  0
   58.6390   32.6020   46.4190 C   0  0  0  0  0  0  0  0  0  0  0  0
   58.6897   30.4944   49.1398 H   0  0  0  0  0  0  0  0  0  0  0  0
   60.2706   30.9085   48.3774 H   0  0  0  0  0  0  0  0  0  0  0  0
   58.1826   32.8598   49.4590 H   0  0  0  0  0  0  0  0  0  0  0  0
   59.8215   32.4758   50.1553 H   0  0  0  0  0  0  0  0  0  0  0  0
   58.8970   35.4450   48.4470 H   0  0  0  0  0  0  0  0  0  0  0  0
   61.4482   32.9163   46.2336 H   0  0  0  0  0  0  0  0  0  0  0  0
   63.9112   32.5508   46.1899 H   0  0  0  0  0  0  0  0  0  0  0  0
   65.2688   32.9056   48.2504 H   0  0  0  0  0  0  0  0  0  0  0  0
   64.1589   33.6118   50.3691 H   0  0  0  0  0  0  0  0  0  0  0  0
   61.6974   33.9792   50.4330 H   0  0  0  0  0  0  0  0  0  0  0  0
   59.9043   35.7881   46.6055 H   0  0  0  0  0  0  0  0  0  0  0  0
   58.9596   35.8736   44.3055 H   0  0  0  0  0  0  0  0  0  0  0  0
   57.7989   33.8857   43.3522 H   0  0  0  0  0  0  0  0  0  0  0  0
   57.6101   31.7904   44.6845 H   0  0  0  0  0  0  0  0  0  0  0  0
  1  2  2  0
  2  3  1  0
  3  4  1  0
  4  5  1  0
  5  6  1  1
  5  7  1  0
  7  8  2  0
  8  9  1  0
  9 10  2  0
 10 11  1  0
 11 12  2  0
  5 13  1  0
 13 14  2  0
 14 15  1  0
 15 16  2  0
 16 17  1  0
 17 18  2  0
 18  2  1  0
 12  7  1  0
 18 13  1  0
  3 19  1  0
  3 20  1  0
  4 21  1  0
  4 22  1  0
  6 23  1  0
  8 24  1  0
  9 25  1  0
 10 26  1  0
 11 27  1  0
 12 28  1  0
 14 29  1  0
 15 30  1  0
 16 31  1  0
 17 32  1  0
M  END
>  <UniqueID>  (9) 
9

>  <SMILES>  (9) 
O=C1CC[C@@](O)(c2ccccc2)c2ccccc21

>  <Energy>  (9) 
42.26731266109561

>  <Genealogy>  (9) 
O=C1CC[C@@](O)(c2ccccc2)c2ccccc21 (chirality)
O=C1CC[C@@](O)(c2ccccc2)c2ccccc21 (3D coordinates assigned)
O=C1CC[C@@](O)(c2ccccc2)c2ccccc21 (nonaromatic ring conformer: 42.26731266109561 kcal/mol)

>  <smiles>  (9) 
O=C1CCC(O)(c2ccccc2)c2ccccc21

>  <score_type>  (9) 
oracle

>  <origin>  (9) 
adg

>  <m_score__min__energy>  (9) 
-6.79

>  <m_primary>  (9) 
energy

$$$$
9:0
     RDKit          3D

 46 48  0  0  0  0  0  0  0  0999 V2000
   56.6980   21.0230   43.0280 C   0  0  0  0  0  0  0  0  0  0  0  0
   56.3620   22.2630   43.8020 C   0  0  0  0  0  0  0  0  0  0  0  0
   56.9440   23.4920   43.4560 C   0  0  0  0  0  0  0  0  0  0  0  0
   56.6620   24.6390   44.2030 C   0  0  0  0  0  0  0  0  0  0  0  0
   55.8180   24.5720   45.3200 C   0  0  0  0  0  0  0  0  0  0  0  0
   55.5350   25.7780   46.0430 N   0  0  0  0  0  0  0  0  0  0  0  0
   56.3010   26.9850   46.0060 C   0  0  0  0  0  0  0  0  0  0  0  0
   57.3290   27.0760   46.7290 O   0  0  0  0  0  0  0  0  0  0  0  0
   55.8470   28.1130   45.2480 N   0  0  0  0  0  0  0  0  0  0  0  0
   56.5800   29.3220   45.0050 C   0  0  0  0  0  0  0  0  0  0  0  0
   57.4450   29.7950   45.9970 C   0  0  0  0  0  0  0  0  0  0  0  0
   58.1560   30.9850   45.8130 C   0  0  0  0  0  0  0  0  0  0  0  0
   57.9920   31.7310   44.6320 C   0  0  0  0  0  0  0  0  0  0  0  0
   58.6920   32.9620   44.4030 N   0  0  0  0  0  0  0  0  0  0  0  0
   58.4880   34.4120   45.3290 S   0  0  0  0  0  0  0  0  0  0  0  0
   57.0340   34.7930   45.3450 O   0  0  0  0  0  0  0  0  0  0  0  0
   59.2870   35.5110   44.6880 O   0  0  0  0  0  0  0  0  0  0  0  0
   59.0590   34.1480   46.9440 N   0  0  0  0  0  0  0  0  0  0  0  0
   60.4230   33.8950   47.3050 C   0  0  0  0  0  0  0  0  0  0  0  0
   61.4290   33.7070   46.3400 C   0  0  0  0  0  0  0  0  0  0  0  0
   62.7480   33.4650   46.7360 C   0  0  0  0  0  0  0  0  0  0  0  0
   63.0780   33.4090   48.0970 C   0  0  0  0  0  0  0  0  0  0  0  0
   64.4270   33.1580   48.5000 N   0  0  0  0  0  0  0  0  0  0  0  0
   62.0770   33.5950   49.0590 C   0  0  0  0  0  0  0  0  0  0  0  0
   60.7570   33.8350   48.6630 C   0  0  0  0  0  0  0  0  0  0  0  0
   57.1120   31.2670   43.6470 C   0  0  0  0  0  0  0  0  0  0  0  0
   56.4040   30.0750   43.8310 C   0  0  0  0  0  0  0  0  0  0  0  0
   55.2270   23.3420   45.6600 C   0  0  0  0  0  0  0  0  0  0  0  0
   55.5090   22.1930   44.9130 C   0  0  0  0  0  0  0  0  0  0  0  0
   56.9201   20.2033   43.7271 H   0  0  0  0  0  0  0  0  0  0  0  0
   55.8433   20.7432   42.3946 H   0  0  0  0  0  0  0  0  0  0  0  0
   57.5770   21.2130   42.3946 H   0  0  0  0  0  0  0  0  0  0  0  0
   57.6245   23.5529   42.5939 H   0  0  0  0  0  0  0  0  0  0  0  0
   57.1061   25.6024   43.9119 H   0  0  0  0  0  0  0  0  0  0  0  0
   57.5671   29.2258   46.9303 H   0  0  0  0  0  0  0  0  0  0  0  0
   58.8453   31.3385   46.5939 H   0  0  0  0  0  0  0  0  0  0  0  0
   61.1772   33.7505   45.2701 H   0  0  0  0  0  0  0  0  0  0  0  0
   63.5298   33.3180   45.9763 H   0  0  0  0  0  0  0  0  0  0  0  0
   64.6730   33.0490   49.5080 H   0  0  0  0  0  0  0  0  0  0  0  0
   65.1920   33.0880   47.7920 H   0  0  0  0  0  0  0  0  0  0  0  0
   62.3296   33.5522   50.1288 H   0  0  0  0  0  0  0  0  0  0  0  0
   59.9759   33.9776   49.4243 H   0  0  0  0  0  0  0  0  0  0  0  0
   56.9763   31.8447   42.7208 H   0  0  0  0  0  0  0  0  0  0  0  0
   55.7073   29.7256   43.0547 H   0  0  0  0  0  0  0  0  0  0  0  0
   54.5400   23.2830   46.5170 H   0  0  0  0  0  0  0  0  0  0  0  0
   55.0596   21.2304   45.1984 H   0  0  0  0  0  0  0  0  0  0  0  0
  1  2  1  0
  2  3  2  0
  3  4  1  0
  4  5  2  0
  5  6  1  0
  6  7  1  0
  7  8  2  0
  7  9  1  0
  9 10  1  0
 10 11  2  0
 11 12  1  0
 12 13  2  0
 13 14  1  0
 14 15  1  0
 15 16  2  0
 15 17  2  0
 15 18  1  0
 18 19  1  0
 19 20  2  0
 20 21  1  0
 21 22  2  0
 22 23  1  0
 22 24  1  0
 24 25  2  0
 13 26  1  0
 26 27  2  0
  5 28  1  0
 28 29  2  0
 29  2  1  0
 27 10  1  0
 25 19  1  0
  1 30  1  0
  1 31  1  0
  1 32  1  0
  3 33  1  0
  4 34  1  0
 11 35  1  0
 12 36  1  0
 20 37  1  0
 21 38  1  0
 23 39  1  0
 23 40  1  0
 24 41  1  0
 25 42  1  0
 26 43  1  0
 27 44  1  0
 28 45  1  0
 29 46  1  0
M  CHG  4   6  -1   9  -1  14  -1  18  -1
M  END
>  <UniqueID>  (10) 
10

>  <SMILES>  (10) 
Cc1ccc([N-]C(=O)[N-]c2ccc([N-]S(=O)(=O)[N-]c3ccc(N)cc3)cc2)cc1

>  <Energy>  (10) 
58.75466955524082

>  <Genealogy>  (10) 
Cc1ccc([N-]C(=O)[N-]c2ccc([N-]S(=O)(=O)[N-]c3ccc(N)cc3)cc2)cc1 (protonated)
Cc1ccc([N-]C(=O)[N-]c2ccc([N-]S(=O)(=O)[N-]c3ccc(N)cc3)cc2)cc1 (3D coordinates assigned)
Cc1ccc([N-]C(=O)[N-]c2ccc([N-]S(=O)(=O)[N-]c3ccc(N)cc3)cc2)cc1 (optimized conformer: 58.75466955524082 kcal/mol)

>  <smiles>  (10) 
Cc1ccc(NC(=O)Nc2ccc(NS(=O)(=O)Nc3ccc(N)cc3)cc2)cc1

>  <score_type>  (10) 
oracle

>  <origin>  (10) 
adg

>  <m_score__min__energy>  (10) 
-14.119999999999999

>  <m_primary>  (10) 
energy

$$$$
10:0
     RDKit          3D

 30 31  0  0  0  0  0  0  0  0999 V2000
   57.5360   23.7320   47.4520 O   0  0  0  0  0  0  0  0  0  0  0  0
   56.7970   24.5360   46.8250 C   0  0  0  0  0  0  0  0  0  0  0  0
   55.3970   24.1310   46.5600 C   0  0  0  0  0  0  0  0  0  0  0  0
   55.0070   23.2070   45.6670 C   0  0  0  0  0  0  0  0  0  0  0  0
   55.9100   22.4820   44.7480 C   0  0  0  0  0  0  0  0  0  0  0  0
   55.8920   22.7810   43.3810 C   0  0  0  0  0  0  0  0  0  0  0  0
   56.7480   22.1080   42.5080 C   0  0  0  0  0  0  0  0  0  0  0  0
   57.6010   21.1230   43.0100 C   0  0  0  0  0  0  0  0  0  0  0  0
   57.5870   20.8170   44.3360 N   0  0  0  0  0  0  0  0  0  0  0  0
   56.7600   21.4620   45.2050 C   0  0  0  0  0  0  0  0  0  0  0  0
   57.3530   25.8500   46.4160 C   0  0  0  0  0  0  0  0  0  0  0  0
   58.7410   26.0480   46.4750 C   0  0  0  0  0  0  0  0  0  0  0  0
   59.3010   27.2510   46.0520 C   0  0  0  0  0  0  0  0  0  0  0  0
   58.4860   28.2740   45.5700 C   0  0  0  0  0  0  0  0  0  0  0  0
   57.0900   28.1170   45.5190 C   0  0  0  0  0  0  0  0  0  0  0  0
   56.2710   29.1930   45.0140 N   0  0  0  0  0  0  0  0  0  0  0  0
   55.1570   28.9700   44.5000 O   0  0  0  0  0  0  0  0  0  0  0  0
   56.7360   30.4890   45.0390 O   0  0  0  0  0  0  0  0  0  0  0  0
   56.5210   26.9010   45.9690 C   0  0  0  0  0  0  0  0  0  0  0  0
   55.1390   26.7430   45.9960 O   0  0  0  0  0  0  0  0  0  0  0  0
   54.6098   24.6296   47.1445 H   0  0  0  0  0  0  0  0  0  0  0  0
   53.9337   22.9716   45.6154 H   0  0  0  0  0  0  0  0  0  0  0  0
   55.2031   23.5465   42.9945 H   0  0  0  0  0  0  0  0  0  0  0  0
   56.7507   22.3511   41.4352 H   0  0  0  0  0  0  0  0  0  0  0  0
   58.2861   20.5930   42.3319 H   0  0  0  0  0  0  0  0  0  0  0  0
   58.2230   20.0720   44.6950 H   0  0  0  0  0  0  0  0  0  0  0  0
   56.7580   21.1828   46.2690 H   0  0  0  0  0  0  0  0  0  0  0  0
   59.3912   25.2476   46.8579 H   0  0  0  0  0  0  0  0  0  0  0  0
   60.3906   27.3944   46.0984 H   0  0  0  0  0  0  0  0  0  0  0  0
   58.9404   29.2147   45.2257 H   0  0  0  0  0  0  0  0  0  0  0  0
  1  2  2  0
  2  3  1  0
  3  4  2  3
  4  5  1  0
  5  6  2  0
  6  7  1  0
  7  8  2  0
  8  9  1  0
  9 10  2  0
  2 11  1  0
 11 12  2  0
 12 13  1  0
 13 14  2  0
 14 15  1  0
 15 16  1  0
 16 17  2  0
 16 18  1  0
 15 19  2  0
 19 20  1  0
 10  5  1  0
 19 11  1  0
  3 21  1  0
  4 22  1  0
  6 23  1  0
  7 24  1  0
  8 25  1  0
  9 26  1  0
 10 27  1  0
 12 28  1  0
 13 29  1  0
 14 30  1  0
M  CHG  4   9   1  16   1  18  -1  20  -1
M  END
>  <UniqueID>  (11) 
11

>  <SMILES>  (11) 
O=C(C=Cc1ccc[nH+]c1)c1cccc([N+](=O)[O-])c1[O-]

>  <Energy>  (11) 
45.433425519734

>  <Genealogy>  (11) 
O=C(C=Cc1ccc[nH+]c1)c1cccc([N+](=O)[O-])c1[O-] (protonated)
O=C(C=Cc1ccc[nH+]c1)c1cccc([N+](=O)[O-])c1[O-] (3D coordinates assigned)
O=C(C=Cc1ccc[nH+]c1)c1cccc([N+](=O)[O-])c1[O-] (optimized conformer: 45.433425519734 kcal/mol)

>  <smiles>  (11) 
O=C(C=Cc1cccnc1)c1cccc([N+](=O)[O-])c1O

>  <score_type>  (11) 
oracle

>  <origin>  (11) 
adg

>  <m_score__min__energy>  (11) 
-10.84

>  <m_primary>  (11) 
energy

$$$$
11:0
     RDKit          3D

 49 51  0  0  0  0  0  0  0  0999 V2000
   54.3920   28.9650   44.5340 H   0  0  0  0  0  0  0  0  0  0  0  0
   55.1200   29.6450   44.7140 O   0  0  0  0  0  0  0  0  0  0  0  0
   56.4150   29.2890   45.0960 C   0  0  0  0  0  0  0  0  0  0  0  0
   56.6310   28.0340   45.5560 N   0  0  0  0  0  0  0  0  0  0  0  0
   57.8630   27.6140   45.9400 C   0  0  0  0  0  0  0  0  0  0  0  0
   58.0010   26.4260   46.3390 O   0  0  0  0  0  0  0  0  0  0  0  0
   58.9330   28.4700   45.8940 N   0  0  0  0  0  0  0  0  0  0  0  0
   60.2750   28.0020   46.2940 C   0  0  0  0  0  0  0  0  0  0  0  0
   60.4188   26.9693   45.9434 H   0  0  0  0  0  0  0  0  0  0  0  0
   61.0327   28.6609   45.8449 H   0  0  0  0  0  0  0  0  0  0  0  0
   60.4190   28.0430   47.8190 C   0  0  0  0  0  0  0  0  0  0  0  0
   59.5939   27.4739   48.2721 H   0  0  0  0  0  0  0  0  0  0  0  0
   61.3901   27.6018   48.0878 H   0  0  0  0  0  0  0  0  0  0  0  0
   60.3800   29.4820   48.3440 C   0  0  0  0  0  0  0  0  0  0  0  0
   61.0314   29.5648   49.2265 H   0  0  0  0  0  0  0  0  0  0  0  0
   60.7306   30.1624   47.5540 H   0  0  0  0  0  0  0  0  0  0  0  0
   59.0580   29.8340   48.7040 O   0  0  0  0  0  0  0  0  0  0  0  0
   59.0510   30.5400   49.9250 C   0  0  0  0  0  0  0  0  0  0  0  0
   59.0581   29.8258   50.7616 H   0  0  0  0  0  0  0  0  0  0  0  0
   59.9428   31.1813   49.9828 H   0  0  0  0  0  0  0  0  0  0  0  0
   58.1466   31.1635   49.9828 H   0  0  0  0  0  0  0  0  0  0  0  0
   58.7600   29.7480   45.4240 C   0  0  0  0  0  0  0  0  0  0  0  0
   59.7380   30.5480   45.3810 O   0  0  0  0  0  0  0  0  0  0  0  0
   57.4910   30.1850   44.9970 C   0  0  0  0  0  0  0  0  0  0  0  0
   57.2820   31.5670   44.5090 C   0  0  0  0  0  0  0  0  0  0  0  0
   56.4580   31.7562   43.8053 H   0  0  0  0  0  0  0  0  0  0  0  0
   58.0540   32.6020   44.8870 C   0  0  0  0  0  0  0  0  0  0  0  0
   58.6950   33.5150   44.0620 C   0  0  0  0  0  0  0  0  0  0  0  0
   58.6686   33.5048   42.9624 H   0  0  0  0  0  0  0  0  0  0  0  0
   59.3540   34.4150   44.8150 N   0  0  0  0  0  0  0  0  0  0  0  0
   59.1510   34.1170   46.0900 N   0  0  0  0  0  0  0  0  0  0  0  0
   59.7710   34.8710   47.1820 C   0  0  0  0  0  0  0  0  0  0  0  0
   60.0396   35.8753   46.8224 H   0  0  0  0  0  0  0  0  0  0  0  0
   59.0562   34.9468   48.0146 H   0  0  0  0  0  0  0  0  0  0  0  0
   61.0110   34.1690   47.6650 C   0  0  0  0  0  0  0  0  0  0  0  0
   61.1870   33.8790   49.0300 C   0  0  0  0  0  0  0  0  0  0  0  0
   60.4160   34.1743   49.7569 H   0  0  0  0  0  0  0  0  0  0  0  0
   62.3380   33.2170   49.4660 C   0  0  0  0  0  0  0  0  0  0  0  0
   62.4697   32.9918   50.5346 H   0  0  0  0  0  0  0  0  0  0  0  0
   63.3230   32.8400   48.5470 C   0  0  0  0  0  0  0  0  0  0  0  0
   64.4380   32.1980   48.9740 F   0  0  0  0  0  0  0  0  0  0  0  0
   63.1570   33.1290   47.1900 C   0  0  0  0  0  0  0  0  0  0  0  0
   63.9322   32.8352   46.4670 H   0  0  0  0  0  0  0  0  0  0  0  0
   62.0070   33.7910   46.7500 C   0  0  0  0  0  0  0  0  0  0  0  0
   61.8815   34.0171   45.6808 H   0  0  0  0  0  0  0  0  0  0  0  0
   58.3650   33.0160   46.1790 C   0  0  0  0  0  0  0  0  0  0  0  0
   57.9770   32.4420   47.3260 C   0  0  0  0  0  0  0  0  0  0  0  0
   58.2926   32.8694   48.2892 H   0  0  0  0  0  0  0  0  0  0  0  0
   57.3429   31.5434   47.3044 H   0  0  0  0  0  0  0  0  0  0  0  0
  1  2  1  0
  2  3  1  0
  3  4  1  0
  4  5  1  0
  5  6  2  0
  5  7  1  0
  7  8  1  0
  8  9  1  0
  8 10  1  0
  8 11  1  0
 11 12  1  0
 11 13  1  0
 11 14  1  0
 14 15  1  0
 14 16  1  0
 14 17  1  0
 17 18  1  0
 18 19  1  0
 18 20  1  0
 18 21  1  0
  7 22  1  0
 22 23  2  0
 22 24  1  0
 24 25  1  0
 25 26  1  0
 25 27  2  0
 27 28  1  0
 28 29  1  0
 28 30  2  0
 30 31  1  0
 31 32  1  0
 32 33  1  0
 32 34  1  0
 32 35  1  0
 35 36  2  0
 36 37  1  0
 36 38  1  0
 38 39  1  0
 38 40  2  0
 40 41  1  0
 40 42  1  0
 42 43  1  0
 42 44  2  0
 44 45  1  0
 31 46  1  0
 46 47  2  0
 47 48  1  0
 47 49  1  0
 24  3  2  0
 46 27  1  0
 44 35  1  0
M  CHG  1   4  -1
M  END
>  <UniqueID>  (12) 
12

>  <SMILES>  (12) 
C=c1/c(=C/c2c(O)[n-]c(=O)n(CCCOC)c2=O)cnn1Cc1ccc(F)cc1

>  <Energy>  (12) 
94.08221984116705

>  <Genealogy>  (12) 
C=c1c(=Cc2c(O)[n-]c(=O)n(CCCOC)c2=O)cnn1Cc1ccc(F)cc1 (protonated)
C=c1/c(=C/c2c(O)[n-]c(=O)n(CCCOC)c2=O)cnn1Cc1ccc(F)cc1 (cis-trans isomerization)
C=c1/c(=C/c2c(O)[n-]c(=O)n(CCCOC)c2=O)cnn1Cc1ccc(F)cc1 (3D coordinates assigned)
C=c1/c(=C/c2c(O)[n-]c(=O)n(CCCOC)c2=O)cnn1Cc1ccc(F)cc1 (optimized conformer: 94.08221984116705 kcal/mol)

>  <smiles>  (12) 
C=c1c(=Cc2c(O)[nH]c(=O)n(CCCOC)c2=O)cnn1Cc1ccc(F)cc1

>  <score_type>  (12) 
oracle

>  <origin>  (12) 
adg

>  <m_score__min__energy>  (12) 
-10.98

>  <m_primary>  (12) 
energy

$$$$
12:0
     RDKit          3D

 54 57  0  0  0  0  0  0  0  0999 V2000
   54.9470   26.3400   45.9980 N   0  0  0  0  0  0  0  0  0  0  0  0
   56.4730   25.5460   46.1580 S   0  0  0  0  0  0  0  0  0  0  0  0
   56.4420   24.2470   45.4020 O   0  0  0  0  0  0  0  0  0  0  0  0
   56.7390   25.2530   47.6080 O   0  0  0  0  0  0  0  0  0  0  0  0
   57.7440   26.5830   45.5180 C   0  0  0  0  0  0  0  0  0  0  0  0
   57.9460   26.6840   44.1360 C   0  0  0  0  0  0  0  0  0  0  0  0
   58.9320   27.5340   43.6310 C   0  0  0  0  0  0  0  0  0  0  0  0
   59.7240   28.2840   44.5040 C   0  0  0  0  0  0  0  0  0  0  0  0
   59.5470   28.1800   45.8890 C   0  0  0  0  0  0  0  0  0  0  0  0
   60.3630   28.9880   46.7480 N   0  0  0  0  0  0  0  0  0  0  0  0
   59.9010   29.8760   47.7750 C   0  0  0  0  0  0  0  0  0  0  0  0
   60.6750   30.2470   48.6980 O   0  0  0  0  0  0  0  0  0  0  0  0
   58.5150   30.4490   47.7120 C   0  0  0  0  0  0  0  0  0  0  0  0
   58.4720   31.6800   46.8830 N   0  0  0  0  0  0  0  0  0  0  0  0
   58.7940   32.9030   47.4490 C   0  0  0  0  0  0  0  0  0  0  0  0
   59.1430   33.0740   48.9210 C   0  0  0  0  0  0  0  0  0  0  0  0
   60.2010   34.1670   49.1530 C   0  0  0  0  0  0  0  0  0  0  0  0
   61.5510   33.7690   48.6160 C   0  0  0  0  0  0  0  0  0  0  0  0
   61.8190   33.8490   47.2390 C   0  0  0  0  0  0  0  0  0  0  0  0
   63.0850   33.5180   46.7470 C   0  0  0  0  0  0  0  0  0  0  0  0
   64.0940   33.1100   47.6260 C   0  0  0  0  0  0  0  0  0  0  0  0
   63.8380   33.0340   48.9980 C   0  0  0  0  0  0  0  0  0  0  0  0
   65.1060   32.5330   50.1010 Cl  0  0  0  0  0  0  0  0  0  0  0  0
   62.5710   33.3660   49.4940 C   0  0  0  0  0  0  0  0  0  0  0  0
   58.8280   34.0590   46.6590 C   0  0  0  0  0  0  0  0  0  0  0  0
   58.5220   34.0010   45.3090 C   0  0  0  0  0  0  0  0  0  0  0  0
   58.5860   35.0550   44.6190 O   0  0  0  0  0  0  0  0  0  0  0  0
   58.1330   32.7850   44.7380 C   0  0  0  0  0  0  0  0  0  0  0  0
   57.7740   32.7160   43.3770 C   0  0  0  0  0  0  0  0  0  0  0  0
   57.3390   31.5180   42.8190 C   0  0  0  0  0  0  0  0  0  0  0  0
   57.2410   30.3780   43.6100 C   0  0  0  0  0  0  0  0  0  0  0  0
   57.5990   30.4210   44.9580 C   0  0  0  0  0  0  0  0  0  0  0  0
   58.0810   31.6170   45.5510 C   0  0  0  0  0  0  0  0  0  0  0  0
   58.5350   27.3420   46.3920 C   0  0  0  0  0  0  0  0  0  0  0  0
   55.1340   27.3660   46.0200 H   0  0  0  0  0  0  0  0  0  0  0  0
   57.3262   26.0921   43.4464 H   0  0  0  0  0  0  0  0  0  0  0  0
   59.0853   27.6132   42.5446 H   0  0  0  0  0  0  0  0  0  0  0  0
   60.4917   28.9607   44.1006 H   0  0  0  0  0  0  0  0  0  0  0  0
   57.8382   29.7000   47.2750 H   0  0  0  0  0  0  0  0  0  0  0  0
   58.2029   30.7102   48.7339 H   0  0  0  0  0  0  0  0  0  0  0  0
   58.2296   33.3449   49.4709 H   0  0  0  0  0  0  0  0  0  0  0  0
   59.5626   32.1218   49.2777 H   0  0  0  0  0  0  0  0  0  0  0  0
   59.8758   35.0888   48.6484 H   0  0  0  0  0  0  0  0  0  0  0  0
   60.2987   34.3203   50.2379 H   0  0  0  0  0  0  0  0  0  0  0  0
   61.0294   34.1734   46.5453 H   0  0  0  0  0  0  0  0  0  0  0  0
   63.2880   33.5784   45.6676 H   0  0  0  0  0  0  0  0  0  0  0  0
   65.0893   32.8489   47.2372 H   0  0  0  0  0  0  0  0  0  0  0  0
   62.3738   33.3110   50.5748 H   0  0  0  0  0  0  0  0  0  0  0  0
   59.1003   35.0224   47.1148 H   0  0  0  0  0  0  0  0  0  0  0  0
   57.8383   33.6176   42.7501 H   0  0  0  0  0  0  0  0  0  0  0  0
   57.0727   31.4724   41.7527 H   0  0  0  0  0  0  0  0  0  0  0  0
   56.8791   29.4369   43.1702 H   0  0  0  0  0  0  0  0  0  0  0  0
   57.5061   29.5126   45.5714 H   0  0  0  0  0  0  0  0  0  0  0  0
   58.3634   27.2820   47.4769 H   0  0  0  0  0  0  0  0  0  0  0  0
  1  2  1  0
  2  3  2  0
  2  4  2  0
  2  5  1  0
  5  6  2  0
  6  7  1  0
  7  8  2  0
  8  9  1  0
  9 10  1  0
 10 11  1  0
 11 12  2  0
 11 13  1  0
 13 14  1  0
 14 15  1  0
 15 16  1  0
 16 17  1  0
 17 18  1  0
 18 19  2  0
 19 20  1  0
 20 21  2  0
 21 22  1  0
 22 23  1  0
 22 24  2  0
 15 25  2  0
 25 26  1  0
 26 27  2  0
 26 28  1  0
 28 29  2  0
 29 30  1  0
 30 31  2  0
 31 32  1  0
 32 33  2  0
  9 34  2  0
 34  5  1  0
 33 14  1  0
 24 18  1  0
 33 28  1  0
  1 35  1  0
  6 36  1  0
  7 37  1  0
  8 38  1  0
 13 39  1  0
 13 40  1  0
 16 41  1  0
 16 42  1  0
 17 43  1  0
 17 44  1  0
 19 45  1  0
 20 46  1  0
 21 47  1  0
 24 48  1  0
 25 49  1  0
 29 50  1  0
 30 51  1  0
 31 52  1  0
 32 53  1  0
 34 54  1  0
M  CHG  2   1  -1  10  -1
M  END
>  <UniqueID>  (13) 
13

>  <SMILES>  (13) 
[NH-]S(=O)(=O)c1cccc([N-]C(=O)Cn2c(CCc3cccc(Cl)c3)cc(=O)c3ccccc32)c1

>  <Energy>  (13) 
71.65212980755287

>  <Genealogy>  (13) 
[NH-]S(=O)(=O)c1cccc([N-]C(=O)Cn2c(CCc3cccc(Cl)c3)cc(=O)c3ccccc32)c1 (protonated)
[NH-]S(=O)(=O)c1cccc([N-]C(=O)Cn2c(CCc3cccc(Cl)c3)cc(=O)c3ccccc32)c1 (3D coordinates assigned)
[NH-]S(=O)(=O)c1cccc([N-]C(=O)Cn2c(CCc3cccc(Cl)c3)cc(=O)c3ccccc32)c1 (optimized conformer: 71.65212980755287 kcal/mol)

>  <smiles>  (13) 
NS(=O)(=O)c1cccc(NC(=O)Cn2c(CCc3cccc(Cl)c3)cc(=O)c3ccccc32)c1

>  <score_type>  (13) 
oracle

>  <origin>  (13) 
adg

>  <m_score__min__energy>  (13) 
-14.869999999999999

>  <m_primary>  (13) 
energy

$$$$
13:0
     RDKit          3D

 48 50  0  0  0  0  0  0  0  0999 V2000
   57.0620   34.2040   45.0200 C   0  0  0  0  0  0  0  0  0  0  0  0
   58.3020   34.1280   45.8630 C   0  0  0  0  0  0  0  0  0  0  0  0
   59.5710   34.2690   45.2810 C   0  0  0  0  0  0  0  0  0  0  0  0
   60.7220   34.1600   46.0670 C   0  0  0  0  0  0  0  0  0  0  0  0
   60.6190   33.9000   47.4400 C   0  0  0  0  0  0  0  0  0  0  0  0
   62.0820   33.7600   48.4100 S   0  0  0  0  0  0  0  0  0  0  0  0
   62.1820   34.9710   49.2990 O   0  0  0  0  0  0  0  0  0  0  0  0
   63.3000   33.7050   47.5300 O   0  0  0  0  0  0  0  0  0  0  0  0
   62.0170   32.2870   49.3810 C   0  0  0  0  0  0  0  0  0  0  0  0
   61.9460   32.3540   50.7770 C   0  0  0  0  0  0  0  0  0  0  0  0
   61.9020   31.2150   51.5120 N   0  0  0  0  0  0  0  0  0  0  0  0
   61.9170   29.9960   50.9130 C   0  0  0  0  0  0  0  0  0  0  0  0
   61.8420   28.5120   51.9120 S   0  0  0  0  0  0  0  0  0  0  0  0
   60.0180   28.5000   52.0340 C   0  0  0  0  0  0  0  0  0  0  0  0
   59.3930   29.1080   50.8150 C   0  0  0  0  0  0  0  0  0  0  0  0
   58.5410   30.0260   50.9530 O   0  0  0  0  0  0  0  0  0  0  0  0
   59.7910   28.6690   49.5070 N   0  0  0  0  0  0  0  0  0  0  0  0
   59.0680   28.9780   48.3030 C   0  0  0  0  0  0  0  0  0  0  0  0
   58.8770   30.3080   47.8870 C   0  0  0  0  0  0  0  0  0  0  0  0
   58.1480   30.5840   46.7270 C   0  0  0  0  0  0  0  0  0  0  0  0
   57.5880   29.5420   45.9790 C   0  0  0  0  0  0  0  0  0  0  0  0
   56.6600   29.9060   44.5260 S   0  0  0  0  0  0  0  0  0  0  0  0
   55.1440   29.0770   44.5810 N   0  0  0  0  0  0  0  0  0  0  0  0
   57.4110   29.4540   43.3060 O   0  0  0  0  0  0  0  0  0  0  0  0
   56.4210   31.3880   44.4440 O   0  0  0  0  0  0  0  0  0  0  0  0
   57.7680   28.2160   46.3960 C   0  0  0  0  0  0  0  0  0  0  0  0
   58.4930   27.9380   47.5590 C   0  0  0  0  0  0  0  0  0  0  0  0
   61.9870   29.9040   49.5600 N   0  0  0  0  0  0  0  0  0  0  0  0
   62.0380   31.0170   48.7840 C   0  0  0  0  0  0  0  0  0  0  0  0
   62.1050   30.8960   47.5320 O   0  0  0  0  0  0  0  0  0  0  0  0
   59.3520   33.7430   48.0210 C   0  0  0  0  0  0  0  0  0  0  0  0
   58.2000   33.8510   47.2360 C   0  0  0  0  0  0  0  0  0  0  0  0
   56.1779   34.2582   45.6723 H   0  0  0  0  0  0  0  0  0  0  0  0
   57.1047   35.1012   44.3850 H   0  0  0  0  0  0  0  0  0  0  0  0
   56.9948   33.3083   44.3850 H   0  0  0  0  0  0  0  0  0  0  0  0
   59.6605   34.4660   44.2025 H   0  0  0  0  0  0  0  0  0  0  0  0
   61.7133   34.2789   45.6053 H   0  0  0  0  0  0  0  0  0  0  0  0
   61.9258   33.3324   51.2792 H   0  0  0  0  0  0  0  0  0  0  0  0
   59.6713   27.4610   52.1355 H   0  0  0  0  0  0  0  0  0  0  0  0
   59.7221   29.0932   52.9118 H   0  0  0  0  0  0  0  0  0  0  0  0
   60.6820   28.1290   49.4240 H   0  0  0  0  0  0  0  0  0  0  0  0
   59.3027   31.1334   48.4765 H   0  0  0  0  0  0  0  0  0  0  0  0
   58.0136   31.6257   46.4001 H   0  0  0  0  0  0  0  0  0  0  0  0
   54.6810   29.3500   45.4780 H   0  0  0  0  0  0  0  0  0  0  0  0
   57.3381   27.3923   45.8072 H   0  0  0  0  0  0  0  0  0  0  0  0
   58.6130   26.8966   47.8923 H   0  0  0  0  0  0  0  0  0  0  0  0
   59.2644   33.5343   49.0975 H   0  0  0  0  0  0  0  0  0  0  0  0
   57.2096   33.7184   47.6958 H   0  0  0  0  0  0  0  0  0  0  0  0
  1  2  1  0
  2  3  2  0
  3  4  1  0
  4  5  2  0
  5  6  1  0
  6  7  2  0
  6  8  2  0
  6  9  1  0
  9 10  2  0
 10 11  1  0
 11 12  1  0
 12 13  1  0
 13 14  1  0
 14 15  1  0
 15 16  2  0
 15 17  1  0
 17 18  1  0
 18 19  2  0
 19 20  1  0
 20 21  2  0
 21 22  1  0
 22 23  1  0
 22 24  2  0
 22 25  2  0
 21 26  1  0
 26 27  2  0
 12 28  2  0
 28 29  1  0
 29 30  2  0
  5 31  1  0
 31 32  2  0
 32  2  1  0
 29  9  1  0
 27 18  1  0
  1 33  1  0
  1 34  1  0
  1 35  1  0
  3 36  1  0
  4 37  1  0
 10 38  1  0
 14 39  1  0
 14 40  1  0
 17 41  1  0
 19 42  1  0
 20 43  1  0
 23 44  1  0
 26 45  1  0
 27 46  1  0
 31 47  1  0
 32 48  1  0
M  CHG  2  11  -1  23  -1
M  END
>  <UniqueID>  (14) 
14

>  <SMILES>  (14) 
Cc1ccc(S(=O)(=O)c2c[n-]c(SCC(=O)Nc3ccc(S([NH-])(=O)=O)cc3)nc2=O)cc1

>  <Energy>  (14) 
51.15225809501633

>  <Genealogy>  (14) 
Cc1ccc(S(=O)(=O)c2c[n-]c(SCC(=O)Nc3ccc(S([NH-])(=O)=O)cc3)nc2=O)cc1 (protonated)
Cc1ccc(S(=O)(=O)c2c[n-]c(SCC(=O)Nc3ccc(S([NH-])(=O)=O)cc3)nc2=O)cc1 (3D coordinates assigned)
Cc1ccc(S(=O)(=O)c2c[n-]c(SCC(=O)Nc3ccc(S([NH-])(=O)=O)cc3)nc2=O)cc1 (optimized conformer: 51.15225809501633 kcal/mol)

>  <smiles>  (14) 
Cc1ccc(S(=O)(=O)c2c[nH]c(SCC(=O)Nc3ccc(S(N)(=O)=O)cc3)nc2=O)cc1

>  <score_type>  (14) 
oracle

>  <origin>  (14) 
adg

>  <m_score__min__energy>  (14) 
-12.23

>  <m_primary>  (14) 
energy

$$$$
14:0
     RDKit          3D

 54 57  0  0  0  0  0  0  0  0999 V2000
   56.5570   34.2120   45.3590 O   0  0  0  0  0  0  0  0  0  0  0  0
   57.7250   33.9150   45.7280 C   0  0  0  0  0  0  0  0  0  0  0  0
   58.1550   34.2140   47.0560 N   0  0  0  0  0  0  0  0  0  0  0  0
   59.7220   33.7670   47.6410 S   0  0  0  0  0  0  0  0  0  0  0  0
   59.9930   34.4720   48.9420 O   0  0  0  0  0  0  0  0  0  0  0  0
   60.7630   34.1860   46.6410 O   0  0  0  0  0  0  0  0  0  0  0  0
   59.7880   32.0200   47.8540 C   0  0  0  0  0  0  0  0  0  0  0  0
   59.1010   31.1690   46.9770 C   0  0  0  0  0  0  0  0  0  0  0  0
   59.1940   29.7820   47.1250 C   0  0  0  0  0  0  0  0  0  0  0  0
   59.9740   29.2290   48.1510 C   0  0  0  0  0  0  0  0  0  0  0  0
   60.0530   27.7380   48.3370 C   0  0  0  0  0  0  0  0  0  0  0  0
   58.8050   27.1100   47.9100 N   0  0  0  0  0  0  0  0  0  0  0  0
   58.7680   26.0670   46.9260 C   0  0  0  0  0  0  0  0  0  0  0  0
   59.8450   25.6260   46.4390 O   0  0  0  0  0  0  0  0  0  0  0  0
   57.4660   25.5730   46.4240 C   0  0  0  0  0  0  0  0  0  0  0  0
   56.3600   26.2960   46.7450 N   0  0  0  0  0  0  0  0  0  0  0  0
   55.1480   25.9870   46.2850 N   0  0  0  0  0  0  0  0  0  0  0  0
   54.9440   24.9300   45.4620 C   0  0  0  0  0  0  0  0  0  0  0  0
   53.7790   24.6900   45.0400 O   0  0  0  0  0  0  0  0  0  0  0  0
   56.0290   24.1160   45.0980 C   0  0  0  0  0  0  0  0  0  0  0  0
   55.8510   22.9970   44.2600 C   0  0  0  0  0  0  0  0  0  0  0  0
   56.9360   22.1820   43.9360 C   0  0  0  0  0  0  0  0  0  0  0  0
   58.2000   22.4580   44.4560 C   0  0  0  0  0  0  0  0  0  0  0  0
   58.3940   23.5640   45.2890 C   0  0  0  0  0  0  0  0  0  0  0  0
   57.3190   24.4270   45.5990 C   0  0  0  0  0  0  0  0  0  0  0  0
   60.6550   30.0840   49.0320 C   0  0  0  0  0  0  0  0  0  0  0  0
   60.5700   31.4720   48.8770 C   0  0  0  0  0  0  0  0  0  0  0  0
   58.6210   33.2540   44.8270 N   0  0  0  0  0  0  0  0  0  0  0  0
   58.1540   32.6080   43.6050 C   0  0  0  0  0  0  0  0  0  0  0  0
   57.7430   31.1950   43.9050 C   0  0  0  0  0  0  0  0  0  0  0  0
   58.7180   30.1930   44.0500 C   0  0  0  0  0  0  0  0  0  0  0  0
   58.3430   28.8820   44.3740 C   0  0  0  0  0  0  0  0  0  0  0  0
   56.9950   28.5670   44.5680 C   0  0  0  0  0  0  0  0  0  0  0  0
   56.0210   29.5620   44.4420 C   0  0  0  0  0  0  0  0  0  0  0  0
   56.3900   30.8740   44.1150 C   0  0  0  0  0  0  0  0  0  0  0  0
   58.4866   31.5941   46.1696 H   0  0  0  0  0  0  0  0  0  0  0  0
   58.6523   29.1206   46.4328 H   0  0  0  0  0  0  0  0  0  0  0  0
   60.8842   27.3403   47.7361 H   0  0  0  0  0  0  0  0  0  0  0  0
   60.2203   27.5172   49.4016 H   0  0  0  0  0  0  0  0  0  0  0  0
   57.9130   27.4310   48.3510 H   0  0  0  0  0  0  0  0  0  0  0  0
   54.8529   22.7653   43.8599 H   0  0  0  0  0  0  0  0  0  0  0  0
   56.7939   21.3193   43.2685 H   0  0  0  0  0  0  0  0  0  0  0  0
   59.0484   21.8026   44.2097 H   0  0  0  0  0  0  0  0  0  0  0  0
   59.3918   23.7640   45.7065 H   0  0  0  0  0  0  0  0  0  0  0  0
   61.2585   29.6605   49.8484 H   0  0  0  0  0  0  0  0  0  0  0  0
   61.1197   32.1347   49.5616 H   0  0  0  0  0  0  0  0  0  0  0  0
   59.5990   33.0690   45.1430 H   0  0  0  0  0  0  0  0  0  0  0  0
   57.2923   33.1623   43.2046 H   0  0  0  0  0  0  0  0  0  0  0  0
   58.9660   32.6016   42.8630 H   0  0  0  0  0  0  0  0  0  0  0  0
   59.7807   30.4390   43.9085 H   0  0  0  0  0  0  0  0  0  0  0  0
   59.1101   28.1002   44.4757 H   0  0  0  0  0  0  0  0  0  0  0  0
   56.7009   27.5373   44.8195 H   0  0  0  0  0  0  0  0  0  0  0  0
   54.9610   29.3142   44.6001 H   0  0  0  0  0  0  0  0  0  0  0  0
   55.6199   31.6540   44.0225 H   0  0  0  0  0  0  0  0  0  0  0  0
  1  2  2  0
  2  3  1  0
  3  4  1  0
  4  5  2  0
  4  6  2  0
  4  7  1  0
  7  8  2  0
  8  9  1  0
  9 10  2  0
 10 11  1  0
 11 12  1  0
 12 13  1  0
 13 14  2  0
 13 15  1  0
 15 16  2  0
 16 17  1  0
 17 18  1  0
 18 19  2  0
 18 20  1  0
 20 21  2  0
 21 22  1  0
 22 23  2  0
 23 24  1  0
 24 25  2  0
 10 26  1  0
 26 27  2  0
  2 28  1  0
 28 29  1  0
 29 30  1  0
 30 31  2  0
 31 32  1  0
 32 33  2  0
 33 34  1  0
 34 35  2  0
 27  7  1  0
 35 30  1  0
 25 15  1  0
 25 20  1  0
  8 36  1  0
  9 37  1  0
 11 38  1  0
 11 39  1  0
 12 40  1  0
 21 41  1  0
 22 42  1  0
 23 43  1  0
 24 44  1  0
 26 45  1  0
 27 46  1  0
 28 47  1  0
 29 48  1  0
 29 49  1  0
 31 50  1  0
 32 51  1  0
 33 52  1  0
 34 53  1  0
 35 54  1  0
M  CHG  2   3  -1  17  -1
M  END
>  <UniqueID>  (15) 
15

>  <SMILES>  (15) 
O=C([N-]S(=O)(=O)c1ccc(CNC(=O)c2n[n-]c(=O)c3ccccc23)cc1)NCc1ccccc1

>  <Energy>  (15) 
66.97138139039724

>  <Genealogy>  (15) 
O=C([N-]S(=O)(=O)c1ccc(CNC(=O)c2n[n-]c(=O)c3ccccc23)cc1)NCc1ccccc1 (protonated)
O=C([N-]S(=O)(=O)c1ccc(CNC(=O)c2n[n-]c(=O)c3ccccc23)cc1)NCc1ccccc1 (3D coordinates assigned)
O=C([N-]S(=O)(=O)c1ccc(CNC(=O)c2n[n-]c(=O)c3ccccc23)cc1)NCc1ccccc1 (optimized conformer: 66.97138139039724 kcal/mol)

>  <smiles>  (15) 
O=C(NCc1ccccc1)NS(=O)(=O)c1ccc(CNC(=O)c2n[nH]c(=O)c3ccccc23)cc1

>  <score_type>  (15) 
oracle

>  <origin>  (15) 
adg

>  <m_score__min__energy>  (15) 
-13.57

>  <m_primary>  (15) 
energy

$$$$
15:0
     RDKit          3D

 38 39  0  0  0  0  0  0  0  0999 V2000
   59.6680   35.2590   46.0000 C   0  0  0  0  0  0  0  0  0  0  0  0
   58.9490   33.9640   45.7640 C   0  0  0  0  0  0  0  0  0  0  0  0
   58.4070   33.6770   44.5020 C   0  0  0  0  0  0  0  0  0  0  0  0
   57.7700   32.4540   44.2710 C   0  0  0  0  0  0  0  0  0  0  0  0
   57.6630   31.5050   45.2980 C   0  0  0  0  0  0  0  0  0  0  0  0
   57.0170   30.2040   45.0380 C   0  0  0  0  0  0  0  0  0  0  0  0
   55.8580   30.1840   44.5450 O   0  0  0  0  0  0  0  0  0  0  0  0
   57.6630   28.9590   45.3310 N   0  0  0  0  0  0  0  0  0  0  0  0
   59.0140   28.6070   44.9110 C   0  0  0  0  0  0  0  0  0  0  0  0
   59.8560   28.3190   46.1200 C   0  0  0  0  0  0  0  0  0  0  0  0
   60.5450   29.2480   46.6160 O   0  0  0  0  0  0  0  0  0  0  0  0
   59.9470   27.0070   46.6920 N   0  0  0  0  0  0  0  0  0  0  0  0
   59.1950   25.8490   46.3010 C   0  0  0  0  0  0  0  0  0  0  0  0
   59.8810   24.6700   45.9880 C   0  0  0  0  0  0  0  0  0  0  0  0
   59.1760   23.5240   45.6060 C   0  0  0  0  0  0  0  0  0  0  0  0
   57.7800   23.5460   45.5510 C   0  0  0  0  0  0  0  0  0  0  0  0
   57.0800   24.7100   45.8950 C   0  0  0  0  0  0  0  0  0  0  0  0
   55.3220   24.7210   45.8230 S   0  0  0  0  0  0  0  0  0  0  0  0
   54.7510   26.3420   45.9980 N   0  0  0  0  0  0  0  0  0  0  0  0
   54.7720   23.8670   46.9320 O   0  0  0  0  0  0  0  0  0  0  0  0
   54.8490   24.1760   44.5030 O   0  0  0  0  0  0  0  0  0  0  0  0
   57.7900   25.8550   46.2850 C   0  0  0  0  0  0  0  0  0  0  0  0
   58.2410   31.7780   46.5480 C   0  0  0  0  0  0  0  0  0  0  0  0
   58.8790   32.9990   46.7800 C   0  0  0  0  0  0  0  0  0  0  0  0
   59.7646   35.4329   47.0819 H   0  0  0  0  0  0  0  0  0  0  0  0
   60.6686   35.2109   45.5456 H   0  0  0  0  0  0  0  0  0  0  0  0
   59.0981   36.0829   45.5456 H   0  0  0  0  0  0  0  0  0  0  0  0
   58.4835   34.4168   43.6915 H   0  0  0  0  0  0  0  0  0  0  0  0
   57.3504   32.2349   43.2781 H   0  0  0  0  0  0  0  0  0  0  0  0
   58.9773   27.7146   44.2689 H   0  0  0  0  0  0  0  0  0  0  0  0
   59.4532   29.4452   44.3501 H   0  0  0  0  0  0  0  0  0  0  0  0
   60.9793   24.6445   46.0426 H   0  0  0  0  0  0  0  0  0  0  0  0
   59.7213   22.6041   45.3485 H   0  0  0  0  0  0  0  0  0  0  0  0
   57.2291   22.6472   45.2368 H   0  0  0  0  0  0  0  0  0  0  0  0
   53.7350   26.3370   45.7500 H   0  0  0  0  0  0  0  0  0  0  0  0
   57.2437   26.7630   46.5801 H   0  0  0  0  0  0  0  0  0  0  0  0
   58.1912   31.0261   47.3494 H   0  0  0  0  0  0  0  0  0  0  0  0
   59.3281   33.2046   47.7629 H   0  0  0  0  0  0  0  0  0  0  0  0
  1  2  1  0
  2  3  2  0
  3  4  1  0
  4  5  2  0
  5  6  1  0
  6  7  2  0
  6  8  1  0
  8  9  1  0
  9 10  1  0
 10 11  2  0
 10 12  1  0
 12 13  1  0
 13 14  2  0
 14 15  1  0
 15 16  2  0
 16 17  1  0
 17 18  1  0
 18 19  1  0
 18 20  2  0
 18 21  2  0
 17 22  2  0
  5 23  1  0
 23 24  2  0
 24  2  1  0
 22 13  1  0
  1 25  1  0
  1 26  1  0
  1 27  1  0
  3 28  1  0
  4 29  1  0
  9 30  1  0
  9 31  1  0
 14 32  1  0
 15 33  1  0
 16 34  1  0
 19 35  1  0
 22 36  1  0
 23 37  1  0
 24 38  1  0
M  CHG  3   8  -1  12  -1  19  -1
M  END
>  <UniqueID>  (16) 
16

>  <SMILES>  (16) 
Cc1ccc(C(=O)[N-]CC(=O)[N-]c2cccc(S([NH-])(=O)=O)c2)cc1

>  <Energy>  (16) 
43.357129656146455

>  <Genealogy>  (16) 
Cc1ccc(C(=O)[N-]CC(=O)[N-]c2cccc(S([NH-])(=O)=O)c2)cc1 (protonated)
Cc1ccc(C(=O)[N-]CC(=O)[N-]c2cccc(S([NH-])(=O)=O)c2)cc1 (3D coordinates assigned)
Cc1ccc(C(=O)[N-]CC(=O)[N-]c2cccc(S([NH-])(=O)=O)c2)cc1 (optimized conformer: 43.357129656146455 kcal/mol)

>  <smiles>  (16) 
Cc1ccc(C(=O)NCC(=O)Nc2cccc(S(N)(=O)=O)c2)cc1

>  <score_type>  (16) 
oracle

>  <origin>  (16) 
adg

>  <m_score__min__energy>  (16) 
-13.369999999999999

>  <m_primary>  (16) 
energy

$$$$
16:0
     RDKit          3D

 44 45  0  0  0  0  0  0  0  0999 V2000
   60.9150   33.1370   47.7370 C   0  0  0  0  0  0  0  0  0  0  0  0
   62.1980   32.5750   48.1880 N   0  0  0  0  0  0  0  0  0  0  0  0
   63.2150   32.7560   47.1380 C   0  0  0  0  0  0  0  0  0  0  0  0
   62.0450   31.1430   48.5330 C   0  0  0  0  0  0  0  0  0  0  0  0
   60.8020   30.5530   47.8560 C   0  0  0  0  0  0  0  0  0  0  0  0
   60.9880   30.4480   46.4100 N   0  0  0  0  0  0  0  0  0  0  0  0
   60.8070   29.2580   45.6290 C   0  0  0  0  0  0  0  0  0  0  0  0
   61.7040   28.9250   44.8100 O   0  0  0  0  0  0  0  0  0  0  0  0
   59.6190   28.3940   45.7800 C   0  0  0  0  0  0  0  0  0  0  0  0
   59.7220   27.2400   46.5690 C   0  0  0  0  0  0  0  0  0  0  0  0
   58.6000   26.4470   46.8170 C   0  0  0  0  0  0  0  0  0  0  0  0
   57.3490   26.7920   46.2780 C   0  0  0  0  0  0  0  0  0  0  0  0
   56.1500   25.9700   46.5660 C   0  0  0  0  0  0  0  0  0  0  0  0
   54.8790   26.3280   46.0270 N   0  0  0  0  0  0  0  0  0  0  0  0
   56.2420   24.9420   47.2900 O   0  0  0  0  0  0  0  0  0  0  0  0
   57.2520   27.9330   45.4620 C   0  0  0  0  0  0  0  0  0  0  0  0
   58.3780   28.7190   45.1850 C   0  0  0  0  0  0  0  0  0  0  0  0
   58.2210   29.8250   44.3390 O   0  0  0  0  0  0  0  0  0  0  0  0
   58.0410   31.1480   44.7700 C   0  0  0  0  0  0  0  0  0  0  0  0
   58.0140   31.4790   46.1390 C   0  0  0  0  0  0  0  0  0  0  0  0
   57.8360   32.8050   46.5400 C   0  0  0  0  0  0  0  0  0  0  0  0
   57.6970   33.8130   45.5850 C   0  0  0  0  0  0  0  0  0  0  0  0
   57.7400   33.4980   44.2240 C   0  0  0  0  0  0  0  0  0  0  0  0
   57.9130   32.1720   43.8110 C   0  0  0  0  0  0  0  0  0  0  0  0
   57.9490   31.8880   42.4460 O   0  0  0  0  0  0  0  0  0  0  0  0
   60.3042   33.4046   48.6118 H   0  0  0  0  0  0  0  0  0  0  0  0
   61.1012   34.0360   47.1310 H   0  0  0  0  0  0  0  0  0  0  0  0
   60.3805   32.3906   47.1310 H   0  0  0  0  0  0  0  0  0  0  0  0
   64.1960   32.9306   47.6039 H   0  0  0  0  0  0  0  0  0  0  0  0
   63.2616   31.8520   46.5130 H   0  0  0  0  0  0  0  0  0  0  0  0
   62.9469   33.6205   46.5130 H   0  0  0  0  0  0  0  0  0  0  0  0
   62.9357   30.5929   48.1953 H   0  0  0  0  0  0  0  0  0  0  0  0
   61.9312   31.0518   49.6233 H   0  0  0  0  0  0  0  0  0  0  0  0
   60.6111   29.5507   48.2670 H   0  0  0  0  0  0  0  0  0  0  0  0
   59.9494   31.2204   48.0502 H   0  0  0  0  0  0  0  0  0  0  0  0
   60.6952   26.9568   46.9964 H   0  0  0  0  0  0  0  0  0  0  0  0
   58.6961   25.5450   47.4393 H   0  0  0  0  0  0  0  0  0  0  0  0
   54.7940   26.7230   45.0630 H   0  0  0  0  0  0  0  0  0  0  0  0
   56.2776   28.2125   45.0349 H   0  0  0  0  0  0  0  0  0  0  0  0
   58.1336   30.6896   46.8956 H   0  0  0  0  0  0  0  0  0  0  0  0
   57.8053   33.0553   47.6107 H   0  0  0  0  0  0  0  0  0  0  0  0
   57.5535   34.8560   45.9036 H   0  0  0  0  0  0  0  0  0  0  0  0
   57.6374   34.2960   43.4739 H   0  0  0  0  0  0  0  0  0  0  0  0
   58.1210   30.9540   42.0940 H   0  0  0  0  0  0  0  0  0  0  0  0
  1  2  1  0
  2  3  1  0
  2  4  1  0
  4  5  1  0
  5  6  1  0
  6  7  1  0
  7  8  2  0
  7  9  1  0
  9 10  2  0
 10 11  1  0
 11 12  2  0
 12 13  1  0
 13 14  1  0
 13 15  2  0
 12 16  1  0
 16 17  2  0
 17 18  1  0
 18 19  1  0
 19 20  2  0
 20 21  1  0
 21 22  2  0
 22 23  1  0
 23 24  2  0
 24 25  1  0
 17  9  1  0
 24 19  1  0
  1 26  1  0
  1 27  1  0
  1 28  1  0
  3 29  1  0
  3 30  1  0
  3 31  1  0
  4 32  1  0
  4 33  1  0
  5 34  1  0
  5 35  1  0
 10 36  1  0
 11 37  1  0
 14 38  1  0
 16 39  1  0
 20 40  1  0
 21 41  1  0
 22 42  1  0
 23 43  1  0
 25 44  1  0
M  CHG  2   6  -1  14  -1
M  END
>  <UniqueID>  (17) 
17

>  <SMILES>  (17) 
CN(C)CC[N-]C(=O)c1ccc(C([NH-])=O)cc1Oc1ccccc1O

>  <Energy>  (17) 
54.704100120046164

>  <Genealogy>  (17) 
CN(C)CC[N-]C(=O)c1ccc(C([NH-])=O)cc1Oc1ccccc1O (protonated)
CN(C)CC[N-]C(=O)c1ccc(C([NH-])=O)cc1Oc1ccccc1O (3D coordinates assigned)
CN(C)CC[N-]C(=O)c1ccc(C([NH-])=O)cc1Oc1ccccc1O (optimized conformer: 54.704100120046164 kcal/mol)

>  <smiles>  (17) 
CN(C)CCNC(=O)c1ccc(C(N)=O)cc1Oc1ccccc1O

>  <score_type>  (17) 
oracle

>  <origin>  (17) 
adg

>  <m_score__min__energy>  (17) 
-10.720000000000001

>  <m_primary>  (17) 
energy

$$$$
17:0
     RDKit          3D

 55 58  0  0  0  0  0  0  0  0999 V2000
   63.0100   33.9620   50.4530 N   0  0  0  0  0  0  0  0  0  0  0  0
   62.9940   33.9320   49.0260 C   0  0  0  0  0  0  0  0  0  0  0  0
   64.0870   33.9540   48.4000 O   0  0  0  0  0  0  0  0  0  0  0  0
   61.7110   33.8760   48.2890 C   0  0  0  0  0  0  0  0  0  0  0  0
   60.4860   33.8440   48.9800 C   0  0  0  0  0  0  0  0  0  0  0  0
   59.2770   33.7910   48.2800 C   0  0  0  0  0  0  0  0  0  0  0  0
   59.2710   33.7550   46.8750 C   0  0  0  0  0  0  0  0  0  0  0  0
   58.0780   33.7160   46.1390 O   0  0  0  0  0  0  0  0  0  0  0  0
   57.8420   32.9150   45.0110 C   0  0  0  0  0  0  0  0  0  0  0  0
   58.1730   33.4180   43.7500 C   0  0  0  0  0  0  0  0  0  0  0  0
   57.9570   32.6490   42.6070 C   0  0  0  0  0  0  0  0  0  0  0  0
   57.4240   31.3630   42.7150 C   0  0  0  0  0  0  0  0  0  0  0  0
   57.1210   30.8180   43.9750 C   0  0  0  0  0  0  0  0  0  0  0  0
   56.5270   29.4590   44.1430 C   0  0  0  0  0  0  0  0  0  0  0  0
   55.2840   29.3550   43.9420 O   0  0  0  0  0  0  0  0  0  0  0  0
   57.2530   28.2700   44.5790 N   0  0  0  0  0  0  0  0  0  0  0  0
   58.6690   28.3150   44.1450 C   0  0  0  0  0  0  0  0  0  0  0  0
   59.5330   29.1660   45.0760 C   0  0  0  0  0  0  0  0  0  0  0  0
   59.3050   28.8100   46.4830 N   0  0  0  0  0  0  0  0  0  0  0  0
   60.1620   29.3660   47.5030 C   0  0  0  0  0  0  0  0  0  0  0  0
   60.0360   28.9580   48.8420 C   0  0  0  0  0  0  0  0  0  0  0  0
   60.8700   29.4910   49.8300 C   0  0  0  0  0  0  0  0  0  0  0  0
   61.8440   30.4490   49.5010 C   0  0  0  0  0  0  0  0  0  0  0  0
   62.7050   30.9910   50.5190 N   0  0  0  0  0  0  0  0  0  0  0  0
   63.9220   31.1610   50.3000 O   0  0  0  0  0  0  0  0  0  0  0  0
   62.2050   31.3110   51.7600 O   0  0  0  0  0  0  0  0  0  0  0  0
   61.9620   30.8660   48.1640 C   0  0  0  0  0  0  0  0  0  0  0  0
   61.1310   30.3290   47.1770 C   0  0  0  0  0  0  0  0  0  0  0  0
   58.3640   27.7320   46.8110 C   0  0  0  0  0  0  0  0  0  0  0  0
   57.0580   27.8590   46.0040 C   0  0  0  0  0  0  0  0  0  0  0  0
   57.3300   31.6100   45.1200 C   0  0  0  0  0  0  0  0  0  0  0  0
   60.4850   33.8070   46.1860 C   0  0  0  0  0  0  0  0  0  0  0  0
   61.6960   33.8600   46.8820 C   0  0  0  0  0  0  0  0  0  0  0  0
   63.1850   33.0940   51.0070 H   0  0  0  0  0  0  0  0  0  0  0  0
   60.4794   33.8608   50.0799 H   0  0  0  0  0  0  0  0  0  0  0  0
   58.3255   33.7774   48.8317 H   0  0  0  0  0  0  0  0  0  0  0  0
   58.6059   34.4251   43.6586 H   0  0  0  0  0  0  0  0  0  0  0  0
   58.2074   33.0570   41.6166 H   0  0  0  0  0  0  0  0  0  0  0  0
   57.2396   30.7712   41.8063 H   0  0  0  0  0  0  0  0  0  0  0  0
   56.8300   27.4940   44.0120 H   0  0  0  0  0  0  0  0  0  0  0  0
   59.0676   27.2899   44.1308 H   0  0  0  0  0  0  0  0  0  0  0  0
   58.7007   28.7715   43.1447 H   0  0  0  0  0  0  0  0  0  0  0  0
   60.5929   29.0025   44.8315 H   0  0  0  0  0  0  0  0  0  0  0  0
   59.2617   30.2227   44.9350 H   0  0  0  0  0  0  0  0  0  0  0  0
   59.2745   28.2127   49.1153 H   0  0  0  0  0  0  0  0  0  0  0  0
   60.7627   29.1577   50.8728 H   0  0  0  0  0  0  0  0  0  0  0  0
   62.7144   31.6210   47.8923 H   0  0  0  0  0  0  0  0  0  0  0  0
   61.2369   30.6638   46.1346 H   0  0  0  0  0  0  0  0  0  0  0  0
   58.8341   26.7646   46.5806 H   0  0  0  0  0  0  0  0  0  0  0  0
   58.1174   27.8022   47.8807 H   0  0  0  0  0  0  0  0  0  0  0  0
   56.5500   26.8834   46.0148 H   0  0  0  0  0  0  0  0  0  0  0  0
   56.4673   28.6536   46.4833 H   0  0  0  0  0  0  0  0  0  0  0  0
   57.0896   31.2025   46.1130 H   0  0  0  0  0  0  0  0  0  0  0  0
   60.4880   33.8062   45.0860 H   0  0  0  0  0  0  0  0  0  0  0  0
   62.6445   33.8894   46.3257 H   0  0  0  0  0  0  0  0  0  0  0  0
  1  2  1  0
  2  3  2  0
  2  4  1  0
  4  5  2  0
  5  6  1  0
  6  7  2  0
  7  8  1  0
  8  9  1  0
  9 10  2  0
 10 11  1  0
 11 12  2  0
 12 13  1  0
 13 14  1  0
 14 15  2  0
 14 16  1  0
 16 17  1  0
 17 18  1  0
 18 19  1  0
 19 20  1  0
 20 21  2  0
 21 22  1  0
 22 23  2  0
 23 24  1  0
 24 25  2  0
 24 26  1  0
 23 27  1  0
 27 28  2  0
 19 29  1  0
 29 30  1  0
 13 31  2  0
  7 32  1  0
 32 33  2  0
 33  4  1  0
 31  9  1  0
 30 16  1  0
 28 20  1  0
  1 34  1  0
  5 35  1  0
  6 36  1  0
 10 37  1  0
 11 38  1  0
 12 39  1  0
 16 40  1  0
 17 41  1  0
 17 42  1  0
 18 43  1  0
 18 44  1  0
 21 45  1  0
 22 46  1  0
 27 47  1  0
 28 48  1  0
 29 49  1  0
 29 50  1  0
 30 51  1  0
 30 52  1  0
 31 53  1  0
 32 54  1  0
 33 55  1  0
M  CHG  4   1  -1  16   1  24   1  26  -1
M  END
>  <UniqueID>  (18) 
18

>  <SMILES>  (18) 
[NH-]C(=O)c1ccc(Oc2cccc(C(=O)[NH+]3CCN(c4ccc([N+](=O)[O-])cc4)CC3)c2)cc1

>  <Energy>  (18) 
91.20598439310922

>  <Genealogy>  (18) 
[NH-]C(=O)c1ccc(Oc2cccc(C(=O)[NH+]3CCN(c4ccc([N+](=O)[O-])cc4)CC3)c2)cc1 (protonated)
[NH-]C(=O)c1ccc(Oc2cccc(C(=O)[NH+]3CCN(c4ccc([N+](=O)[O-])cc4)CC3)c2)cc1 (3D coordinates assigned)
[NH-]C(=O)c1ccc(Oc2cccc(C(=O)[NH+]3CCN(c4ccc([N+](=O)[O-])cc4)CC3)c2)cc1 (nonaromatic ring conformer: 91.20598439310922 kcal/mol)

>  <smiles>  (18) 
NC(=O)c1ccc(Oc2cccc(C(=O)N3CCN(c4ccc([N+](=O)[O-])cc4)CC3)c2)cc1

>  <score_type>  (18) 
oracle

>  <origin>  (18) 
adg

>  <m_score__min__energy>  (18) 
-10.52

>  <m_primary>  (18) 
energy

$$$$
18:0
     RDKit          3D

 39 41  0  0  0  0  0  0  0  0999 V2000
   55.0000   26.3840   45.9220 N   0  0  0  0  0  0  0  0  0  0  0  0
   56.0690   25.5610   46.3830 C   0  0  0  0  0  0  0  0  0  0  0  0
   55.8760   24.3240   46.5250 O   0  0  0  0  0  0  0  0  0  0  0  0
   57.3930   26.1500   46.6910 C   0  0  0  0  0  0  0  0  0  0  0  0
   58.5850   25.4160   46.4440 C   0  0  0  0  0  0  0  0  0  0  0  0
   59.8460   25.9690   46.7350 C   0  0  0  0  0  0  0  0  0  0  0  0
   59.8830   27.2530   47.2680 C   0  0  0  0  0  0  0  0  0  0  0  0
   60.9630   27.9660   47.6160 N   0  0  0  0  0  0  0  0  0  0  0  0
   60.4150   29.1260   48.0640 C   0  0  0  0  0  0  0  0  0  0  0  0
   61.2390   30.2610   48.5830 C   0  0  0  0  0  0  0  0  0  0  0  0
   61.1250   31.3980   47.7260 O   0  0  0  0  0  0  0  0  0  0  0  0
   59.9620   31.7830   47.0380 C   0  0  0  0  0  0  0  0  0  0  0  0
   59.1880   32.8930   47.4250 C   0  0  0  0  0  0  0  0  0  0  0  0
   58.0310   33.2260   46.7150 C   0  0  0  0  0  0  0  0  0  0  0  0
   57.6430   32.4670   45.6110 C   0  0  0  0  0  0  0  0  0  0  0  0
   58.4170   31.3710   45.1950 C   0  0  0  0  0  0  0  0  0  0  0  0
   58.0150   30.5600   44.0770 N   0  0  0  0  0  0  0  0  0  0  0  0
   57.2400   29.3530   44.1860 C   0  0  0  0  0  0  0  0  0  0  0  0
   57.3950   28.3340   43.1940 N   0  0  0  0  0  0  0  0  0  0  0  0
   56.3540   29.2100   45.1260 N   0  0  0  0  0  0  0  0  0  0  0  0
   59.5670   31.0270   45.9270 C   0  0  0  0  0  0  0  0  0  0  0  0
   60.3140   29.9590   45.5490 F   0  0  0  0  0  0  0  0  0  0  0  0
   59.0560   29.1660   48.0200 N   0  0  0  0  0  0  0  0  0  0  0  0
   58.7500   27.9650   47.5080 C   0  0  0  0  0  0  0  0  0  0  0  0
   57.4840   27.4550   47.2350 C   0  0  0  0  0  0  0  0  0  0  0  0
   55.1540   27.0960   45.1740 H   0  0  0  0  0  0  0  0  0  0  0  0
   58.5210   24.4030   46.0201 H   0  0  0  0  0  0  0  0  0  0  0  0
   60.7713   25.4046   46.5472 H   0  0  0  0  0  0  0  0  0  0  0  0
   60.8889   30.5309   49.5902 H   0  0  0  0  0  0  0  0  0  0  0  0
   62.2928   29.9474   48.6178 H   0  0  0  0  0  0  0  0  0  0  0  0
   59.4947   33.5005   48.2892 H   0  0  0  0  0  0  0  0  0  0  0  0
   57.4248   34.0890   47.0277 H   0  0  0  0  0  0  0  0  0  0  0  0
   56.7257   32.7281   45.0630 H   0  0  0  0  0  0  0  0  0  0  0  0
   58.3240   30.8490   43.1230 H   0  0  0  0  0  0  0  0  0  0  0  0
   56.8260   27.4590   43.2290 H   0  0  0  0  0  0  0  0  0  0  0  0
   58.0910   28.4500   42.4250 H   0  0  0  0  0  0  0  0  0  0  0  0
   55.9740   30.0410   45.6320 H   0  0  0  0  0  0  0  0  0  0  0  0
   56.0210   28.2660   45.4230 H   0  0  0  0  0  0  0  0  0  0  0  0
   56.5798   28.0483   47.4359 H   0  0  0  0  0  0  0  0  0  0  0  0
  1  2  1  0
  2  3  2  0
  2  4  1  0
  4  5  2  0
  5  6  1  0
  6  7  2  0
  7  8  1  0
  8  9  1  0
  9 10  1  0
 10 11  1  0
 11 12  1  0
 12 13  2  0
 13 14  1  0
 14 15  2  0
 15 16  1  0
 16 17  1  0
 17 18  1  0
 18 19  1  0
 18 20  2  0
 16 21  2  0
 21 22  1  0
  9 23  2  0
 23 24  1  0
 24 25  2  0
 25  4  1  0
 24  7  1  0
 21 12  1  0
  1 26  1  0
  5 27  1  0
  6 28  1  0
 10 29  1  0
 10 30  1  0
 13 31  1  0
 14 32  1  0
 15 33  1  0
 17 34  1  0
 19 35  1  0
 19 36  1  0
 20 37  1  0
 20 38  1  0
 25 39  1  0
M  CHG  3   1  -1   8  -1  20   1
M  END
>  <UniqueID>  (19) 
19

>  <SMILES>  (19) 
[NH-]C(=O)c1ccc2[n-]c(COc3cccc(NC(N)=[NH2+])c3F)nc2c1

>  <Energy>  (19) 
78.3311861675402

>  <Genealogy>  (19) 
[NH-]C(=O)c1ccc2[n-]c(COc3cccc(NC(N)=[NH2+])c3F)nc2c1 (protonated)
[NH-]C(=O)c1ccc2[n-]c(COc3cccc(NC(N)=[NH2+])c3F)nc2c1 (3D coordinates assigned)
[NH-]C(=O)c1ccc2[n-]c(COc3cccc(NC(N)=[NH2+])c3F)nc2c1 (optimized conformer: 78.3311861675402 kcal/mol)

>  <smiles>  (19) 
N=C(N)Nc1cccc(OCc2nc3cc(C(N)=O)ccc3[nH]2)c1F

>  <score_type>  (19) 
oracle

>  <origin>  (19) 
adg

>  <m_score__min__energy>  (19) 
-10.4

>  <m_primary>  (19) 
energy

$$$$
19:0
     RDKit          3D

 25 26  0  0  0  0  0  0  0  0999 V2000
   51.7650   29.2780   54.8380 O   0  0  0  0  0  0  0  0  0  0  0  0
   52.0150   29.5740   53.6380 C   0  0  0  0  0  0  0  0  0  0  0  0
   52.1660   31.0130   53.2530 C   0  0  0  0  0  0  0  0  0  0  0  0
   51.7660   31.2030   51.8250 C   0  0  0  0  0  0  0  0  0  0  0  0
   51.9690   30.2940   50.8550 N   0  0  0  0  0  0  0  0  0  0  0  0
   51.3920   30.8590   49.7730 C   0  0  0  0  0  0  0  0  0  0  0  0
   51.3780   30.3040   48.6440 O   0  0  0  0  0  0  0  0  0  0  0  0
   50.8230   32.0640   49.9970 N   0  0  0  0  0  0  0  0  0  0  0  0
   51.0630   32.2630   51.3030 C   0  0  0  0  0  0  0  0  0  0  0  0
   50.6440   33.3860   52.0050 O   0  0  0  0  0  0  0  0  0  0  0  0
   52.1610   28.5480   52.6450 N   0  0  0  0  0  0  0  0  0  0  0  0
   51.7790   27.1750   52.8410 C   0  0  0  0  0  0  0  0  0  0  0  0
   52.6280   26.3210   53.5610 C   0  0  0  0  0  0  0  0  0  0  0  0
   52.2900   24.9770   53.7460 C   0  0  0  0  0  0  0  0  0  0  0  0
   51.1080   24.4700   53.1980 C   0  0  0  0  0  0  0  0  0  0  0  0
   50.2680   25.3070   52.4590 C   0  0  0  0  0  0  0  0  0  0  0  0
   50.6020   26.6510   52.2730 C   0  0  0  0  0  0  0  0  0  0  0  0
   51.5240   31.6320   53.8969 H   0  0  0  0  0  0  0  0  0  0  0  0
   53.2171   31.3125   53.3773 H   0  0  0  0  0  0  0  0  0  0  0  0
   52.6340   28.8010   51.7480 H   0  0  0  0  0  0  0  0  0  0  0  0
   53.5659   26.7115   53.9828 H   0  0  0  0  0  0  0  0  0  0  0  0
   52.9549   24.3178   54.3234 H   0  0  0  0  0  0  0  0  0  0  0  0
   50.8397   23.4139   53.3484 H   0  0  0  0  0  0  0  0  0  0  0  0
   49.3411   24.9068   52.0224 H   0  0  0  0  0  0  0  0  0  0  0  0
   49.9427   27.3023   51.6804 H   0  0  0  0  0  0  0  0  0  0  0  0
  1  2  2  0
  2  3  1  0
  3  4  1  0
  4  5  1  0
  5  6  1  0
  6  7  2  0
  6  8  1  0
  8  9  1  0
  9 10  1  0
  2 11  1  0
 11 12  1  0
 12 13  2  0
 13 14  1  0
 14 15  2  0
 15 16  1  0
 16 17  2  0
  9  4  2  0
 17 12  1  0
  3 18  1  0
  3 19  1  0
 11 20  1  0
 13 21  1  0
 14 22  1  0
 15 23  1  0
 16 24  1  0
 17 25  1  0
M  CHG  3   5  -1   8  -1  10  -1
M  END
>  <UniqueID>  (20) 
20

>  <SMILES>  (20) 
O=C(Cc1[n-]c(=O)[n-]c1[O-])Nc1ccccc1

>  <Energy>  (20) 
55.74957236803897

>  <Genealogy>  (20) 
O=C(Cc1[n-]c(=O)[n-]c1[O-])Nc1ccccc1 (protonated)
O=C(Cc1[n-]c(=O)[n-]c1[O-])Nc1ccccc1 (3D coordinates assigned)
O=C(Cc1[n-]c(=O)[n-]c1[O-])Nc1ccccc1 (optimized conformer: 55.74957236803897 kcal/mol)

>  <smiles>  (20) 
O=C(Cc1[nH]c(=O)[nH]c1O)Nc1ccccc1

>  <score_type>  (20) 
oracle

>  <origin>  (20) 
adg

>  <m_score__min__energy>  (20) 
-14.859999999999999

>  <m_primary>  (20) 
energy

$$$$
20:0
     RDKit          3D

 57 59  0  0  0  0  0  0  0  0999 V2000
   62.4100   32.3990   47.6610 C   0  0  0  0  0  0  0  0  0  0  0  0
   61.4300   31.9020   48.7190 C   0  0  0  0  0  0  0  0  0  0  0  0
   60.2430   32.7650   48.7680 N   0  0  0  0  0  0  0  0  0  0  0  0
   59.6970   33.1650   50.0420 C   0  0  0  0  0  0  0  0  0  0  0  0
   60.1090   34.2160   50.6040 O   0  0  0  0  0  0  0  0  0  0  0  0
   58.6670   32.3460   50.7160 C   0  0  0  0  0  0  0  0  0  0  0  0
   58.5890   30.9670   50.4720 C   0  0  0  0  0  0  0  0  0  0  0  0
   57.6610   30.1810   51.1550 C   0  0  0  0  0  0  0  0  0  0  0  0
   56.8010   30.7510   52.1130 C   0  0  0  0  0  0  0  0  0  0  0  0
   55.8980   29.9220   52.8880 N   0  0  0  0  0  0  0  0  0  0  0  0
   56.2170   28.5070   53.1150 C   0  0  0  0  0  0  0  0  0  0  0  0
   54.6490   30.4710   53.4430 C   0  0  0  0  0  0  0  0  0  0  0  0
   53.6000   30.6260   52.3690 C   0  0  0  0  0  0  0  0  0  0  0  0
   53.6060   29.7880   51.2400 C   0  0  0  0  0  0  0  0  0  0  0  0
   52.6250   29.9290   50.2540 C   0  0  0  0  0  0  0  0  0  0  0  0
   51.6410   30.9120   50.3800 C   0  0  0  0  0  0  0  0  0  0  0  0
   51.6270   31.7500   51.5000 C   0  0  0  0  0  0  0  0  0  0  0  0
   50.6430   32.7220   51.6280 O   0  0  0  0  0  0  0  0  0  0  0  0
   52.6050   31.6100   52.4900 C   0  0  0  0  0  0  0  0  0  0  0  0
   56.8610   32.1440   52.3250 C   0  0  0  0  0  0  0  0  0  0  0  0
   57.7780   32.9330   51.6260 C   0  0  0  0  0  0  0  0  0  0  0  0
   59.4940   33.0020   47.5580 C   0  0  0  0  0  0  0  0  0  0  0  0
   59.3150   34.3070   47.0780 C   0  0  0  0  0  0  0  0  0  0  0  0
   58.5610   34.5350   45.9260 C   0  0  0  0  0  0  0  0  0  0  0  0
   57.9890   33.4630   45.2360 C   0  0  0  0  0  0  0  0  0  0  0  0
   58.1680   32.1430   45.6890 C   0  0  0  0  0  0  0  0  0  0  0  0
   57.5580   31.0130   44.9400 C   0  0  0  0  0  0  0  0  0  0  0  0
   56.3020   30.9310   44.8590 O   0  0  0  0  0  0  0  0  0  0  0  0
   58.3660   30.0200   44.2890 N   0  0  0  0  0  0  0  0  0  0  0  0
   57.7830   28.7900   43.7660 C   0  0  0  0  0  0  0  0  0  0  0  0
   58.9120   31.9270   46.8650 C   0  0  0  0  0  0  0  0  0  0  0  0
   63.2871   32.8438   48.1538 H   0  0  0  0  0  0  0  0  0  0  0  0
   62.7310   31.5548   47.0331 H   0  0  0  0  0  0  0  0  0  0  0  0
   61.9186   33.1568   47.0331 H   0  0  0  0  0  0  0  0  0  0  0  0
   61.1211   30.8755   48.4722 H   0  0  0  0  0  0  0  0  0  0  0  0
   61.9258   31.9238   49.7007 H   0  0  0  0  0  0  0  0  0  0  0  0
   59.2637   30.5026   49.7377 H   0  0  0  0  0  0  0  0  0  0  0  0
   57.6003   29.1034   50.9427 H   0  0  0  0  0  0  0  0  0  0  0  0
   56.2614   28.3100   54.1963 H   0  0  0  0  0  0  0  0  0  0  0  0
   55.4381   27.8779   52.6594 H   0  0  0  0  0  0  0  0  0  0  0  0
   57.1905   28.2729   52.6594 H   0  0  0  0  0  0  0  0  0  0  0  0
   54.2706   29.7896   54.2193 H   0  0  0  0  0  0  0  0  0  0  0  0
   54.8619   31.4623   53.8695 H   0  0  0  0  0  0  0  0  0  0  0  0
   54.3851   29.0190   51.1322 H   0  0  0  0  0  0  0  0  0  0  0  0
   52.6282   29.2645   49.3774 H   0  0  0  0  0  0  0  0  0  0  0  0
   50.8762   31.0274   49.5978 H   0  0  0  0  0  0  0  0  0  0  0  0
   52.5949   32.2735   53.3673 H   0  0  0  0  0  0  0  0  0  0  0  0
   56.1786   32.6143   53.0483 H   0  0  0  0  0  0  0  0  0  0  0  0
   57.8021   34.0203   51.7909 H   0  0  0  0  0  0  0  0  0  0  0  0
   59.7705   35.1543   47.6114 H   0  0  0  0  0  0  0  0  0  0  0  0
   58.4165   35.5622   45.5599 H   0  0  0  0  0  0  0  0  0  0  0  0
   57.3936   33.6527   44.3308 H   0  0  0  0  0  0  0  0  0  0  0  0
   59.3860   30.1800   44.1340 H   0  0  0  0  0  0  0  0  0  0  0  0
   57.4771   28.1446   44.6026 H   0  0  0  0  0  0  0  0  0  0  0  0
   56.9045   29.0335   43.1504 H   0  0  0  0  0  0  0  0  0  0  0  0
   58.5277   28.2641   43.1504 H   0  0  0  0  0  0  0  0  0  0  0  0
   59.0393   30.9030   47.2462 H   0  0  0  0  0  0  0  0  0  0  0  0
  1  2  1  0
  2  3  1  0
  3  4  1  0
  4  5  2  0
  4  6  1  0
  6  7  2  0
  7  8  1  0
  8  9  2  0
  9 10  1  0
 10 11  1  0
 10 12  1  0
 12 13  1  0
 13 14  2  0
 14 15  1  0
 15 16  2  0
 16 17  1  0
 17 18  1  0
 17 19  2  0
  9 20  1  0
 20 21  2  0
  3 22  1  0
 22 23  2  0
 23 24  1  0
 24 25  2  0
 25 26  1  0
 26 27  1  0
 27 28  2  0
 27 29  1  0
 29 30  1  0
 26 31  2  0
 21  6  1  0
 31 22  1  0
 19 13  1  0
  1 32  1  0
  1 33  1  0
  1 34  1  0
  2 35  1  0
  2 36  1  0
  7 37  1  0
  8 38  1  0
 11 39  1  0
 11 40  1  0
 11 41  1  0
 12 42  1  0
 12 43  1  0
 14 44  1  0
 15 45  1  0
 16 46  1  0
 19 47  1  0
 20 48  1  0
 21 49  1  0
 23 50  1  0
 24 51  1  0
 25 52  1  0
 29 53  1  0
 30 54  1  0
 30 55  1  0
 30 56  1  0
 31 57  1  0
M  CHG  1  18  -1
M  END
>  <UniqueID>  (21) 
21

>  <SMILES>  (21) 
CCN(C(=O)c1ccc(N(C)Cc2cccc([O-])c2)cc1)c1cccc(C(=O)NC)c1

>  <Energy>  (21) 
62.99879371465615

>  <Genealogy>  (21) 
CCN(C(=O)c1ccc(N(C)Cc2cccc([O-])c2)cc1)c1cccc(C(=O)NC)c1 (protonated)
CCN(C(=O)c1ccc(N(C)Cc2cccc([O-])c2)cc1)c1cccc(C(=O)NC)c1 (3D coordinates assigned)
CCN(C(=O)c1ccc(N(C)Cc2cccc([O-])c2)cc1)c1cccc(C(=O)NC)c1 (optimized conformer: 62.99879371465615 kcal/mol)

>  <smiles>  (21) 
CCN(C(=O)c1ccc(N(C)Cc2cccc(O)c2)cc1)c1cccc(C(=O)NC)c1

>  <score_type>  (21) 
oracle

>  <origin>  (21) 
adg

>  <m_score__min__energy>  (21) 
-13.48

>  <m_primary>  (21) 
energy

$$$$
21:0
     RDKit          3D

 52 55  0  0  0  0  0  0  0  0999 V2000
   57.5030   29.3960   43.7800 C   0  0  0  0  0  0  0  0  0  0  0  0
   56.3130   30.0460   44.4000 C   0  0  0  0  0  0  0  0  0  0  0  0
   55.3930   29.3280   44.8770 O   0  0  0  0  0  0  0  0  0  0  0  0
   56.2880   31.4400   44.5390 O   0  0  0  0  0  0  0  0  0  0  0  0
   57.3640   32.2310   44.9710 C   0  0  0  0  0  0  0  0  0  0  0  0
   58.1050   31.8010   46.0780 C   0  0  0  0  0  0  0  0  0  0  0  0
   59.1910   32.5480   46.5390 C   0  0  0  0  0  0  0  0  0  0  0  0
   59.5560   33.7400   45.8940 C   0  0  0  0  0  0  0  0  0  0  0  0
   60.7540   34.5210   46.3620 C   0  0  0  0  0  0  0  0  0  0  0  0
   61.2790   33.9520   47.6000 N   0  0  0  0  0  0  0  0  0  0  0  0
   62.6380   33.6360   47.8910 C   0  0  0  0  0  0  0  0  0  0  0  0
   63.5140   33.4530   47.0050 O   0  0  0  0  0  0  0  0  0  0  0  0
   62.9140   33.5480   49.2890 N   0  0  0  0  0  0  0  0  0  0  0  0
   61.8030   33.8530   49.8840 C   0  0  0  0  0  0  0  0  0  0  0  0
   61.6190   33.7810   51.3670 C   0  0  0  0  0  0  0  0  0  0  0  0
   60.2590   33.2430   51.6730 C   0  0  0  0  0  0  0  0  0  0  0  0
   59.2620   33.9180   52.3690 C   0  0  0  0  0  0  0  0  0  0  0  0
   58.0300   33.2560   52.3470 C   0  0  0  0  0  0  0  0  0  0  0  0
   58.0590   32.0680   51.6280 C   0  0  0  0  0  0  0  0  0  0  0  0
   56.8800   31.1940   51.3400 C   0  0  0  0  0  0  0  0  0  0  0  0
   56.3430   30.2970   52.8390 S   0  0  0  0  0  0  0  0  0  0  0  0
   54.6080   30.2290   52.3750 C   0  0  0  0  0  0  0  0  0  0  0  0
   54.0140   31.1860   51.6330 N   0  0  0  0  0  0  0  0  0  0  0  0
   52.7440   30.7520   51.4920 C   0  0  0  0  0  0  0  0  0  0  0  0
   52.5880   29.5510   52.1470 C   0  0  0  0  0  0  0  0  0  0  0  0
   53.7610   29.2330   52.7160 N   0  0  0  0  0  0  0  0  0  0  0  0
   54.0460   28.0200   53.4780 C   0  0  0  0  0  0  0  0  0  0  0  0
   59.6060   31.8420   51.0060 S   0  0  0  0  0  0  0  0  0  0  0  0
   60.7550   34.1220   48.9060 C   0  0  0  0  0  0  0  0  0  0  0  0
   59.5690   34.4600   49.1610 O   0  0  0  0  0  0  0  0  0  0  0  0
   58.8340   34.1580   44.7660 C   0  0  0  0  0  0  0  0  0  0  0  0
   57.7460   33.4110   44.3060 C   0  0  0  0  0  0  0  0  0  0  0  0
   58.1741   29.0294   44.5707 H   0  0  0  0  0  0  0  0  0  0  0  0
   57.1759   28.5513   43.1559 H   0  0  0  0  0  0  0  0  0  0  0  0
   58.0370   30.1277   43.1559 H   0  0  0  0  0  0  0  0  0  0  0  0
   57.8295   30.8667   46.5891 H   0  0  0  0  0  0  0  0  0  0  0  0
   59.7632   32.2006   47.4119 H   0  0  0  0  0  0  0  0  0  0  0  0
   61.5344   34.4868   45.5875 H   0  0  0  0  0  0  0  0  0  0  0  0
   60.4517   35.5623   46.5473 H   0  0  0  0  0  0  0  0  0  0  0  0
   62.3821   33.1173   51.7997 H   0  0  0  0  0  0  0  0  0  0  0  0
   61.7218   34.7873   51.7992 H   0  0  0  0  0  0  0  0  0  0  0  0
   59.4257   34.8757   52.8847 H   0  0  0  0  0  0  0  0  0  0  0  0
   57.1287   33.6379   52.8488 H   0  0  0  0  0  0  0  0  0  0  0  0
   56.0498   31.8185   50.9785 H   0  0  0  0  0  0  0  0  0  0  0  0
   57.1702   30.4566   50.5771 H   0  0  0  0  0  0  0  0  0  0  0  0
   51.9530   31.2782   50.9376 H   0  0  0  0  0  0  0  0  0  0  0  0
   51.6638   28.9564   52.1954 H   0  0  0  0  0  0  0  0  0  0  0  0
   53.9938   28.2422   54.5541 H   0  0  0  0  0  0  0  0  0  0  0  0
   53.3051   27.2467   53.2269 H   0  0  0  0  0  0  0  0  0  0  0  0
   55.0538   27.6575   53.2269 H   0  0  0  0  0  0  0  0  0  0  0  0
   59.1260   35.0792   44.2405 H   0  0  0  0  0  0  0  0  0  0  0  0
   57.1861   33.7467   43.4207 H   0  0  0  0  0  0  0  0  0  0  0  0
  1  2  1  0
  2  3  2  0
  2  4  1  0
  4  5  1  0
  5  6  2  0
  6  7  1  0
  7  8  2  0
  8  9  1  0
  9 10  1  0
 10 11  1  0
 11 12  2  0
 11 13  1  0
 13 14  2  0
 14 15  1  0
 15 16  1  0
 16 17  2  0
 17 18  1  0
 18 19  2  0
 19 20  1  0
 20 21  1  0
 21 22  1  0
 22 23  2  0
 23 24  1  0
 24 25  2  0
 25 26  1  0
 26 27  1  0
 19 28  1  0
 14 29  1  0
 29 30  2  0
  8 31  1  0
 31 32  2  0
 32  5  1  0
 29 10  1  0
 28 16  1  0
 26 22  1  0
  1 33  1  0
  1 34  1  0
  1 35  1  0
  6 36  1  0
  7 37  1  0
  9 38  1  0
  9 39  1  0
 15 40  1  0
 15 41  1  0
 17 42  1  0
 18 43  1  0
 20 44  1  0
 20 45  1  0
 24 46  1  0
 25 47  1  0
 27 48  1  0
 27 49  1  0
 27 50  1  0
 31 51  1  0
 32 52  1  0
M  END
>  <UniqueID>  (22) 
22

>  <SMILES>  (22) 
CC(=O)Oc1ccc(CN2C(=O)N=C(Cc3ccc(CSc4nccn4C)s3)C2=O)cc1

>  <Energy>  (22) 
129.7631194595922

>  <Genealogy>  (22) 
CC(=O)Oc1ccc(CN2C(=O)N=C(Cc3ccc(CSc4nccn4C)s3)C2=O)cc1 (3D coordinates assigned)
CC(=O)Oc1ccc(CN2C(=O)N=C(Cc3ccc(CSc4nccn4C)s3)C2=O)cc1 (nonaromatic ring conformer: 129.7631194595922 kcal/mol)

>  <smiles>  (22) 
CC(=O)Oc1ccc(CN2C(=O)N=C(Cc3ccc(CSc4nccn4C)s3)C2=O)cc1

>  <score_type>  (22) 
oracle

>  <origin>  (22) 
adg

>  <m_score__min__energy>  (22) 
-10.380000000000001

>  <m_primary>  (22) 
energy

$$$$
22:0
     RDKit          3D

 40 42  0  0  0  0  0  0  0  0999 V2000
   55.1530   29.3270   44.9110 N   0  0  0  0  0  0  0  0  0  0  0  0
   56.4640   30.2260   44.2340 S   0  0  0  0  0  0  0  0  0  0  0  0
   56.4630   30.0620   42.7400 O   0  0  0  0  0  0  0  0  0  0  0  0
   56.2950   31.6840   44.5600 O   0  0  0  0  0  0  0  0  0  0  0  0
   57.9850   29.6390   44.9000 C   0  0  0  0  0  0  0  0  0  0  0  0
   58.7510   28.7020   44.1930 C   0  0  0  0  0  0  0  0  0  0  0  0
   59.9590   28.2430   44.7210 C   0  0  0  0  0  0  0  0  0  0  0  0
   60.4030   28.7060   45.9620 C   0  0  0  0  0  0  0  0  0  0  0  0
   59.6330   29.6190   46.6960 C   0  0  0  0  0  0  0  0  0  0  0  0
   60.1180   30.0900   47.9630 N   0  0  0  0  0  0  0  0  0  0  0  0
   59.4920   29.7970   49.2220 C   0  0  0  0  0  0  0  0  0  0  0  0
   58.5050   29.0150   49.2850 O   0  0  0  0  0  0  0  0  0  0  0  0
   60.0610   30.3560   50.4900 C   0  0  0  0  0  0  0  0  0  0  0  0
   60.0490   32.1810   50.4570 S   0  0  0  0  0  0  0  0  0  0  0  0
   61.3300   32.3210   49.2060 C   0  0  0  0  0  0  0  0  0  0  0  0
   62.3380   31.4360   49.0790 N   0  0  0  0  0  0  0  0  0  0  0  0
   63.0920   31.8510   48.0710 N   0  0  0  0  0  0  0  0  0  0  0  0
   62.5300   32.9800   47.6030 C   0  0  0  0  0  0  0  0  0  0  0  0
   63.1580   33.8490   46.3660 S   0  0  0  0  0  0  0  0  0  0  0  0
   61.4130   33.3040   48.2870 N   0  0  0  0  0  0  0  0  0  0  0  0
   60.5680   34.4920   48.1520 C   0  0  0  0  0  0  0  0  0  0  0  0
   59.4400   34.2100   47.2120 C   0  0  0  0  0  0  0  0  0  0  0  0
   59.4020   34.5400   45.8730 C   0  0  0  0  0  0  0  0  0  0  0  0
   58.1990   34.0560   45.4080 C   0  0  0  0  0  0  0  0  0  0  0  0
   57.5820   33.4580   46.4880 C   0  0  0  0  0  0  0  0  0  0  0  0
   58.3480   33.5630   47.5500 O   0  0  0  0  0  0  0  0  0  0  0  0
   58.4270   30.0950   46.1500 C   0  0  0  0  0  0  0  0  0  0  0  0
   55.1800   28.3760   44.4790 H   0  0  0  0  0  0  0  0  0  0  0  0
   58.3996   28.3276   43.2202 H   0  0  0  0  0  0  0  0  0  0  0  0
   60.5625   27.5153   44.1587 H   0  0  0  0  0  0  0  0  0  0  0  0
   61.3630   28.3519   46.3658 H   0  0  0  0  0  0  0  0  0  0  0  0
   61.0480   30.5680   47.9810 H   0  0  0  0  0  0  0  0  0  0  0  0
   59.4575   30.0068   51.3408 H   0  0  0  0  0  0  0  0  0  0  0  0
   61.1010   30.0121   50.5913 H   0  0  0  0  0  0  0  0  0  0  0  0
   60.1622   34.7648   49.1373 H   0  0  0  0  0  0  0  0  0  0  0  0
   61.1710   35.3221   47.7554 H   0  0  0  0  0  0  0  0  0  0  0  0
   60.1707   35.0767   45.2976 H   0  0  0  0  0  0  0  0  0  0  0  0
   57.8087   34.1310   44.3823 H   0  0  0  0  0  0  0  0  0  0  0  0
   56.5977   32.9676   46.4633 H   0  0  0  0  0  0  0  0  0  0  0  0
   57.8270   30.8295   46.7073 H   0  0  0  0  0  0  0  0  0  0  0  0
  1  2  1  0
  2  3  2  0
  2  4  2  0
  2  5  1  0
  5  6  2  0
  6  7  1  0
  7  8  2  0
  8  9  1  0
  9 10  1  0
 10 11  1  0
 11 12  2  0
 11 13  1  0
 13 14  1  0
 14 15  1  0
 15 16  2  0
 16 17  1  0
 17 18  1  0
 18 19  2  0
 18 20  1  0
 20 21  1  0
 21 22  1  0
 22 23  2  0
 23 24  1  0
 24 25  2  0
 25 26  1  0
  9 27  2  0
 27  5  1  0
 20 15  1  0
 26 22  1  0
  1 28  1  0
  6 29  1  0
  7 30  1  0
  8 31  1  0
 10 32  1  0
 13 33  1  0
 13 34  1  0
 21 35  1  0
 21 36  1  0
 23 37  1  0
 24 38  1  0
 25 39  1  0
 27 40  1  0
M  CHG  2   1  -1  17  -1
M  END
>  <UniqueID>  (23) 
23

>  <SMILES>  (23) 
[NH-]S(=O)(=O)c1cccc(NC(=O)CSc2n[n-]c(=S)n2Cc2ccco2)c1

>  <Energy>  (23) 
99.02528582512443

>  <Genealogy>  (23) 
[NH-]S(=O)(=O)c1cccc(NC(=O)CSc2n[n-]c(=S)n2Cc2ccco2)c1 (protonated)
[NH-]S(=O)(=O)c1cccc(NC(=O)CSc2n[n-]c(=S)n2Cc2ccco2)c1 (3D coordinates assigned)
[NH-]S(=O)(=O)c1cccc(NC(=O)CSc2n[n-]c(=S)n2Cc2ccco2)c1 (optimized conformer: 99.02528582512443 kcal/mol)

>  <smiles>  (23) 
NS(=O)(=O)c1cccc(NC(=O)CSc2n[nH]c(=S)n2Cc2ccco2)c1

>  <score_type>  (23) 
oracle

>  <origin>  (23) 
adg

>  <m_score__min__energy>  (23) 
-12.390000000000001

>  <m_primary>  (23) 
energy

$$$$
23:0
     RDKit          3D

 79 82  0  0  0  0  0  0  0  0999 V2000
   62.7830   33.8820   46.3700 C   0  0  0  0  0  0  0  0  0  0  0  0
   61.3770   33.8480   46.1530 O   0  0  0  0  0  0  0  0  0  0  0  0
   60.4370   33.3670   47.0800 C   0  0  0  0  0  0  0  0  0  0  0  0
   60.8280   32.6300   48.2160 C   0  0  0  0  0  0  0  0  0  0  0  0
   59.8690   32.1530   49.1130 C   0  0  0  0  0  0  0  0  0  0  0  0
   58.5150   32.4020   48.8900 C   0  0  0  0  0  0  0  0  0  0  0  0
   58.1130   33.1310   47.7710 C   0  0  0  0  0  0  0  0  0  0  0  0
   59.0650   33.6250   46.8630 C   0  0  0  0  0  0  0  0  0  0  0  0
   58.5940   34.3560   45.6270 C   0  0  0  0  0  0  0  0  0  0  0  0
   58.1090   33.3770   44.5510 C   0  0  0  0  0  0  0  0  0  0  0  0
   58.4020   31.9960   44.9340 N   0  0  0  0  0  0  0  0  0  0  0  0
   57.4260   30.9460   44.8180 C   0  0  0  0  0  0  0  0  0  0  0  0
   56.2370   31.2390   44.5130 O   0  0  0  0  0  0  0  0  0  0  0  0
   57.7950   29.5180   45.0070 C   0  0  0  0  0  0  0  0  0  0  0  0
   58.1380   29.0500   46.2900 C   0  0  0  0  0  0  0  0  0  0  0  0
   58.4630   27.7070   46.4970 C   0  0  0  0  0  0  0  0  0  0  0  0
   58.4730   26.8070   45.4210 C   0  0  0  0  0  0  0  0  0  0  0  0
   58.7470   25.3710   45.6230 C   0  0  0  0  0  0  0  0  0  0  0  0
   58.0380   24.3670   45.0860 C   0  0  0  0  0  0  0  0  0  0  0  0
   56.8790   24.5310   44.1400 C   0  0  0  0  0  0  0  0  0  0  0  0
   55.6390   24.1580   44.8200 N   0  0  0  0  0  0  0  0  0  0  0  0
   55.0510   22.9510   44.8480 C   0  0  0  0  0  0  0  0  0  0  0  0
   55.4890   21.8400   44.1390 O   0  0  0  0  0  0  0  0  0  0  0  0
   53.9670   23.0030   45.6970 C   0  0  0  0  0  0  0  0  0  0  0  0
   53.0210   21.8850   46.0030 C   0  0  0  0  0  0  0  0  0  0  0  0
   52.2650   22.1680   47.2720 C   0  0  0  0  0  0  0  0  0  0  0  0
   50.8700   22.3180   47.2470 C   0  0  0  0  0  0  0  0  0  0  0  0
   50.1720   22.6050   48.4230 C   0  0  0  0  0  0  0  0  0  0  0  0
   50.8590   22.7380   49.6320 C   0  0  0  0  0  0  0  0  0  0  0  0
   52.2560   22.5820   49.6740 C   0  0  0  0  0  0  0  0  0  0  0  0
   52.9970   22.7390   50.8910 N   0  0  0  0  0  0  0  0  0  0  0  0
   52.6090   23.5610   51.9970 C   0  0  0  0  0  0  0  0  0  0  0  0
   52.7150   23.0990   53.1630 O   0  0  0  0  0  0  0  0  0  0  0  0
   52.0850   24.8440   51.7690 O   0  0  0  0  0  0  0  0  0  0  0  0
   50.7740   25.3050   52.1270 C   0  0  0  0  0  0  0  0  0  0  0  0
   50.0480   25.8880   50.8990 C   0  0  0  0  0  0  0  0  0  0  0  0
   50.9560   26.4160   53.1710 C   0  0  0  0  0  0  0  0  0  0  0  0
   49.9530   24.1620   52.7540 C   0  0  0  0  0  0  0  0  0  0  0  0
   52.9540   22.3230   48.4870 C   0  0  0  0  0  0  0  0  0  0  0  0
   53.8570   24.2480   46.2100 N   0  0  0  0  0  0  0  0  0  0  0  0
   54.9000   24.9100   45.6620 C   0  0  0  0  0  0  0  0  0  0  0  0
   55.1530   26.1180   45.9190 O   0  0  0  0  0  0  0  0  0  0  0  0
   58.1210   27.2620   44.1440 C   0  0  0  0  0  0  0  0  0  0  0  0
   57.8020   28.6070   43.9330 C   0  0  0  0  0  0  0  0  0  0  0  0
   62.9872   33.8869   47.4509 H   0  0  0  0  0  0  0  0  0  0  0  0
   63.2460   32.9948   45.9134 H   0  0  0  0  0  0  0  0  0  0  0  0
   63.2026   34.7906   45.9134 H   0  0  0  0  0  0  0  0  0  0  0  0
   61.8942   32.4293   48.3973 H   0  0  0  0  0  0  0  0  0  0  0  0
   60.1827   31.5794   49.9976 H   0  0  0  0  0  0  0  0  0  0  0  0
   57.7630   32.0229   49.5977 H   0  0  0  0  0  0  0  0  0  0  0  0
   57.0434   33.3206   47.5980 H   0  0  0  0  0  0  0  0  0  0  0  0
   57.7659   35.0263   45.9009 H   0  0  0  0  0  0  0  0  0  0  0  0
   59.4399   34.9287   45.2191 H   0  0  0  0  0  0  0  0  0  0  0  0
   57.0227   33.4925   44.4218 H   0  0  0  0  0  0  0  0  0  0  0  0
   58.6328   33.6002   43.6098 H   0  0  0  0  0  0  0  0  0  0  0  0
   59.4000   31.7690   45.1280 H   0  0  0  0  0  0  0  0  0  0  0  0
   58.1502   29.7496   47.1388 H   0  0  0  0  0  0  0  0  0  0  0  0
   58.7122   27.3537   47.5085 H   0  0  0  0  0  0  0  0  0  0  0  0
   59.5996   25.1030   46.2643 H   0  0  0  0  0  0  0  0  0  0  0  0
   58.3269   23.3413   45.3590 H   0  0  0  0  0  0  0  0  0  0  0  0
   56.8173   25.5797   43.8138 H   0  0  0  0  0  0  0  0  0  0  0  0
   57.0262   23.8828   43.2635 H   0  0  0  0  0  0  0  0  0  0  0  0
   52.3075   21.7770   45.1728 H   0  0  0  0  0  0  0  0  0  0  0  0
   53.5967   20.9565   46.1311 H   0  0  0  0  0  0  0  0  0  0  0  0
   50.3240   22.2093   46.2983 H   0  0  0  0  0  0  0  0  0  0  0  0
   49.0790   22.7265   48.3967 H   0  0  0  0  0  0  0  0  0  0  0  0
   50.3051   22.9656   50.5547 H   0  0  0  0  0  0  0  0  0  0  0  0
   49.2309   26.5441   51.2334 H   0  0  0  0  0  0  0  0  0  0  0  0
   50.7598   26.4683   50.2935 H   0  0  0  0  0  0  0  0  0  0  0  0
   49.6351   25.0677   50.2935 H   0  0  0  0  0  0  0  0  0  0  0  0
   50.8855   25.9854   54.1808 H   0  0  0  0  0  0  0  0  0  0  0  0
   51.9428   26.8841   53.0401 H   0  0  0  0  0  0  0  0  0  0  0  0
   50.1701   27.1745   53.0401 H   0  0  0  0  0  0  0  0  0  0  0  0
   50.0038   24.2328   53.8505 H   0  0  0  0  0  0  0  0  0  0  0  0
   48.9050   24.2425   52.4296 H   0  0  0  0  0  0  0  0  0  0  0  0
   50.3640   23.1946   52.4296 H   0  0  0  0  0  0  0  0  0  0  0  0
   54.0507   22.2403   48.5063 H   0  0  0  0  0  0  0  0  0  0  0  0
   58.0953   26.5561   43.3008 H   0  0  0  0  0  0  0  0  0  0  0  0
   57.5545   28.9564   42.9198 H   0  0  0  0  0  0  0  0  0  0  0  0
  1  2  1  0
  2  3  1  0
  3  4  2  0
  4  5  1  0
  5  6  2  0
  6  7  1  0
  7  8  2  0
  8  9  1  0
  9 10  1  0
 10 11  1  0
 11 12  1  0
 12 13  2  0
 12 14  1  0
 14 15  2  0
 15 16  1  0
 16 17  2  0
 17 18  1  0
 18 19  2  3
 19 20  1  0
 20 21  1  0
 21 22  1  0
 22 23  1  0
 22 24  2  0
 24 25  1  0
 25 26  1  0
 26 27  2  0
 27 28  1  0
 28 29  2  0
 29 30  1  0
 30 31  1  0
 31 32  1  0
 32 33  2  0
 32 34  1  0
 34 35  1  0
 35 36  1  0
 35 37  1  0
 35 38  1  0
 30 39  2  0
 24 40  1  0
 40 41  1  0
 41 42  2  0
 17 43  1  0
 43 44  2  0
  8  3  1  0
 44 14  1  0
 41 21  1  0
 39 26  1  0
  1 45  1  0
  1 46  1  0
  1 47  1  0
  4 48  1  0
  5 49  1  0
  6 50  1  0
  7 51  1  0
  9 52  1  0
  9 53  1  0
 10 54  1  0
 10 55  1  0
 11 56  1  0
 15 57  1  0
 16 58  1  0
 18 59  1  0
 19 60  1  0
 20 61  1  0
 20 62  1  0
 25 63  1  0
 25 64  1  0
 27 65  1  0
 28 66  1  0
 29 67  1  0
 36 68  1  0
 36 69  1  0
 36 70  1  0
 37 71  1  0
 37 72  1  0
 37 73  1  0
 38 74  1  0
 38 75  1  0
 38 76  1  0
 39 77  1  0
 43 78  1  0
 44 79  1  0
M  CHG  3  23  -1  31  -1  40  -1
M  END
>  <UniqueID>  (24) 
24

>  <SMILES>  (24) 
COc1ccccc1CCNC(=O)c1ccc(C=CCn2c([O-])c(Cc3cccc([N-]C(=O)OC(C)(C)C)c3)[n-]c2=O)cc1

>  <Energy>  (24) 
113.06425711664832

>  <Genealogy>  (24) 
COc1ccccc1CCNC(=O)c1ccc(C=CCn2c([O-])c(Cc3cccc([N-]C(=O)OC(C)(C)C)c3)[n-]c2=O)cc1 (protonated)
COc1ccccc1CCNC(=O)c1ccc(C=CCn2c([O-])c(Cc3cccc([N-]C(=O)OC(C)(C)C)c3)[n-]c2=O)cc1 (3D coordinates assigned)
COc1ccccc1CCNC(=O)c1ccc(C=CCn2c([O-])c(Cc3cccc([N-]C(=O)OC(C)(C)C)c3)[n-]c2=O)cc1 (optimized conformer: 113.06425711664832 kcal/mol)

>  <smiles>  (24) 
COc1ccccc1CCNC(=O)c1ccc(C=CCn2c(O)c(Cc3cccc(NC(=O)OC(C)(C)C)c3)[nH]c2=O)cc1

>  <score_type>  (24) 
oracle

>  <origin>  (24) 
adg

>  <m_score__min__energy>  (24) 
-14.789999999999999

>  <m_primary>  (24) 
energy

$$$$
24:0
     RDKit          3D

 27 28  0  0  0  0  0  0  0  0999 V2000
   58.5103   33.3750   47.5234 H   0  0  0  0  0  0  0  0  0  0  0  0
   58.3310   33.2020   46.4520 C   0  0  0  0  0  0  0  0  0  0  0  0
   57.3950   32.3040   46.0570 N   0  0  0  0  0  0  0  0  0  0  0  0
   57.1240   32.0350   44.7490 C   0  0  0  0  0  0  0  0  0  0  0  0
   56.1580   31.1870   44.5160 N   0  0  0  0  0  0  0  0  0  0  0  0
   56.1810   29.7630   44.3610 C   0  0  0  0  0  0  0  0  0  0  0  0
   55.2420   29.0560   44.8140 O   0  0  0  0  0  0  0  0  0  0  0  0
   57.3800   29.1060   43.7570 C   0  0  0  0  0  0  0  0  0  0  0  0
   57.0774   28.1622   43.2798 H   0  0  0  0  0  0  0  0  0  0  0  0
   57.8213   29.7772   43.0055 H   0  0  0  0  0  0  0  0  0  0  0  0
   58.3930   28.8220   44.8200 C   0  0  0  0  0  0  0  0  0  0  0  0
   58.1010   27.9560   46.2320 S   0  0  0  0  0  0  0  0  0  0  0  0
   59.6230   28.1930   46.9070 C   0  0  0  0  0  0  0  0  0  0  0  0
   59.9668   27.7985   47.8746 H   0  0  0  0  0  0  0  0  0  0  0  0
   60.3720   28.9720   46.0340 C   0  0  0  0  0  0  0  0  0  0  0  0
   61.4088   29.2772   46.2387 H   0  0  0  0  0  0  0  0  0  0  0  0
   59.6840   29.3320   44.8700 C   0  0  0  0  0  0  0  0  0  0  0  0
   60.1208   29.9552   44.0758 H   0  0  0  0  0  0  0  0  0  0  0  0
   57.9180   32.6750   43.7430 C   0  0  0  0  0  0  0  0  0  0  0  0
   57.8940   32.3230   42.2770 C   0  0  0  0  0  0  0  0  0  0  0  0
   57.8196   31.2314   42.1632 H   0  0  0  0  0  0  0  0  0  0  0  0
   57.0264   32.8015   41.7992 H   0  0  0  0  0  0  0  0  0  0  0  0
   58.8185   32.6793   41.7992 H   0  0  0  0  0  0  0  0  0  0  0  0
   58.8580   33.6370   44.1540 C   0  0  0  0  0  0  0  0  0  0  0  0
   59.4386   34.1861   43.3981 H   0  0  0  0  0  0  0  0  0  0  0  0
   59.0630   33.9030   45.5030 C   0  0  0  0  0  0  0  0  0  0  0  0
   59.7970   34.6605   45.8151 H   0  0  0  0  0  0  0  0  0  0  0  0
  1  2  1  0
  2  3  1  0
  3  4  1  0
  4  5  2  0
  5  6  1  0
  6  7  2  0
  6  8  1  0
  8  9  1  0
  8 10  1  0
  8 11  1  0
 11 12  1  0
 12 13  1  0
 13 14  1  0
 13 15  2  0
 15 16  1  0
 15 17  1  0
 17 18  1  0
  4 19  1  0
 19 20  1  0
 20 21  1  0
 20 22  1  0
 20 23  1  0
 19 24  2  0
 24 25  1  0
 24 26  1  0
 26 27  1  0
 26  2  2  0
 17 11  2  0
M  CHG  1   3  -1
M  END
>  <UniqueID>  (25) 
25

>  <SMILES>  (25) 
Cc1ccc[n-]/c1=N/C(=O)Cc1cccs1

>  <Energy>  (25) 
66.8181078739342

>  <Genealogy>  (25) 
Cc1ccc[n-]c1=NC(=O)Cc1cccs1 (protonated)
Cc1ccc[n-]/c1=N/C(=O)Cc1cccs1 (cis-trans isomerization)
Cc1ccc[n-]/c1=N/C(=O)Cc1cccs1 (3D coordinates assigned)
Cc1ccc[n-]/c1=N/C(=O)Cc1cccs1 (optimized conformer: 66.8181078739342 kcal/mol)

>  <smiles>  (25) 
Cc1ccc[nH]c1=NC(=O)Cc1cccs1

>  <score_type>  (25) 
oracle

>  <origin>  (25) 
adg

>  <m_score__min__energy>  (25) 
-8.3699999999999992

>  <m_primary>  (25) 
energy

$$$$
25:0
     RDKit          3D

 35 37  0  0  0  0  0  0  0  0999 V2000
   58.6410   31.0240   52.8610 C   0  0  0  0  0  0  0  0  0  0  0  0
   57.7140   30.6830   51.3790 S   0  0  0  0  0  0  0  0  0  0  0  0
   58.3390   29.5060   50.6870 O   0  0  0  0  0  0  0  0  0  0  0  0
   56.2890   30.3470   51.7190 O   0  0  0  0  0  0  0  0  0  0  0  0
   57.7610   32.0510   50.3090 N   0  0  0  0  0  0  0  0  0  0  0  0
   58.7290   32.2110   49.2570 C   0  0  0  0  0  0  0  0  0  0  0  0
   59.6390   33.2770   49.3190 C   0  0  0  0  0  0  0  0  0  0  0  0
   60.5780   33.4670   48.3020 C   0  0  0  0  0  0  0  0  0  0  0  0
   60.6140   32.5980   47.2090 C   0  0  0  0  0  0  0  0  0  0  0  0
   59.7100   31.5280   47.1260 C   0  0  0  0  0  0  0  0  0  0  0  0
   59.7450   30.5860   45.9470 C   0  0  0  0  0  0  0  0  0  0  0  0
   59.3920   29.1810   46.3630 C   0  0  0  0  0  0  0  0  0  0  0  0
   60.2750   28.3840   47.1030 C   0  0  0  0  0  0  0  0  0  0  0  0
   59.5310   26.9160   47.4850 S   0  0  0  0  0  0  0  0  0  0  0  0
   58.0920   27.2860   46.7140 C   0  0  0  0  0  0  0  0  0  0  0  0
   56.9900   26.5020   46.6410 N   0  0  0  0  0  0  0  0  0  0  0  0
   55.8930   26.9680   45.9790 C   0  0  0  0  0  0  0  0  0  0  0  0
   54.8280   26.2400   45.8930 N   0  0  0  0  0  0  0  0  0  0  0  0
   55.9130   28.2070   45.4050 N   0  0  0  0  0  0  0  0  0  0  0  0
   57.0130   29.0090   45.4710 C   0  0  0  0  0  0  0  0  0  0  0  0
   56.9890   30.1410   44.9220 O   0  0  0  0  0  0  0  0  0  0  0  0
   58.1490   28.5460   46.1490 C   0  0  0  0  0  0  0  0  0  0  0  0
   58.7930   31.3220   48.1710 C   0  0  0  0  0  0  0  0  0  0  0  0
   58.0219   30.7963   53.7413 H   0  0  0  0  0  0  0  0  0  0  0  0
   59.5469   30.4002   52.8785 H   0  0  0  0  0  0  0  0  0  0  0  0
   58.9267   32.0861   52.8785 H   0  0  0  0  0  0  0  0  0  0  0  0
   56.9580   32.7180   50.3610 H   0  0  0  0  0  0  0  0  0  0  0  0
   59.6130   33.9681   50.1744 H   0  0  0  0  0  0  0  0  0  0  0  0
   61.2906   34.3028   48.3622 H   0  0  0  0  0  0  0  0  0  0  0  0
   61.3540   32.7531   46.4101 H   0  0  0  0  0  0  0  0  0  0  0  0
   59.0226   30.9291   45.1917 H   0  0  0  0  0  0  0  0  0  0  0  0
   60.7645   30.5818   45.5339 H   0  0  0  0  0  0  0  0  0  0  0  0
   61.2972   28.6704   47.3914 H   0  0  0  0  0  0  0  0  0  0  0  0
   53.9250   26.5400   46.3270 H   0  0  0  0  0  0  0  0  0  0  0  0
   58.1175   30.4545   48.1382 H   0  0  0  0  0  0  0  0  0  0  0  0
  1  2  1  0
  2  3  2  0
  2  4  2  0
  2  5  1  0
  5  6  1  0
  6  7  2  0
  7  8  1  0
  8  9  2  0
  9 10  1  0
 10 11  1  0
 11 12  1  0
 12 13  2  0
 13 14  1  0
 14 15  1  0
 15 16  1  0
 16 17  1  0
 17 18  2  3
 17 19  1  0
 19 20  1  0
 20 21  2  0
 20 22  1  0
 10 23  2  0
 23  6  1  0
 22 12  1  0
 22 15  2  0
  1 24  1  0
  1 25  1  0
  1 26  1  0
  5 27  1  0
  7 28  1  0
  8 29  1  0
  9 30  1  0
 11 31  1  0
 11 32  1  0
 13 33  1  0
 18 34  1  0
 23 35  1  0
M  CHG  2  16  -1  19  -1
M  END
>  <UniqueID>  (26) 
26

>  <SMILES>  (26) 
CS(=O)(=O)Nc1cccc(Cc2csc3[n-]c(=N)[n-]c(=O)c23)c1

>  <Energy>  (26) 
68.90074953595617

>  <Genealogy>  (26) 
CS(=O)(=O)Nc1cccc(Cc2csc3[n-]c(=N)[n-]c(=O)c23)c1 (protonated)
CS(=O)(=O)Nc1cccc(Cc2csc3[n-]c(=N)[n-]c(=O)c23)c1 (3D coordinates assigned)
CS(=O)(=O)Nc1cccc(Cc2csc3[n-]c(=N)[n-]c(=O)c23)c1 (optimized conformer: 68.90074953595617 kcal/mol)

>  <smiles>  (26) 
CS(=O)(=O)Nc1cccc(Cc2csc3[nH]c(=N)[nH]c(=O)c23)c1

>  <score_type>  (26) 
oracle

>  <origin>  (26) 
adg

>  <m_score__min__energy>  (26) 
-12.109999999999999

>  <m_primary>  (26) 
energy

$$$$
26:0
     RDKit          3D

 45 47  0  0  0  0  0  0  0  0999 V2000
   56.2730   30.2610   42.6060 O   0  0  0  0  0  0  0  0  0  0  0  0
   56.7100   29.9160   43.7360 C   0  0  0  0  0  0  0  0  0  0  0  0
   57.3920   28.5970   43.9000 C   0  0  0  0  0  0  0  0  0  0  0  0
   58.3780   28.6910   45.0310 C   0  0  0  0  0  0  0  0  0  0  0  0
   59.6830   29.1610   44.7950 C   0  0  0  0  0  0  0  0  0  0  0  0
   60.5780   29.3190   45.8590 C   0  0  0  0  0  0  0  0  0  0  0  0
   60.1750   29.0180   47.1630 C   0  0  0  0  0  0  0  0  0  0  0  0
   58.8750   28.5660   47.4070 C   0  0  0  0  0  0  0  0  0  0  0  0
   57.9780   28.4070   46.3470 C   0  0  0  0  0  0  0  0  0  0  0  0
   56.6280   30.8110   44.8480 N   0  0  0  0  0  0  0  0  0  0  0  0
   57.6030   31.8200   45.1500 C   0  0  0  0  0  0  0  0  0  0  0  0
   58.1450   31.9380   46.4410 C   0  0  0  0  0  0  0  0  0  0  0  0
   59.0260   32.9830   46.7490 C   0  0  0  0  0  0  0  0  0  0  0  0
   59.6590   33.1500   48.3850 S   0  0  0  0  0  0  0  0  0  0  0  0
   58.6080   32.7200   49.3700 O   0  0  0  0  0  0  0  0  0  0  0  0
   59.9970   34.5970   48.6170 O   0  0  0  0  0  0  0  0  0  0  0  0
   61.0950   32.1610   48.5660 N   0  0  0  0  0  0  0  0  0  0  0  0
   61.9230   32.5910   49.7160 C   0  0  0  0  0  0  0  0  0  0  0  0
   63.1350   33.4390   49.2910 C   0  0  0  0  0  0  0  0  0  0  0  0
   62.8130   34.2180   48.1620 O   0  0  0  0  0  0  0  0  0  0  0  0
   62.6480   33.3900   47.0240 C   0  0  0  0  0  0  0  0  0  0  0  0
   61.8660   32.0850   47.3130 C   0  0  0  0  0  0  0  0  0  0  0  0
   59.3860   33.9010   45.7560 C   0  0  0  0  0  0  0  0  0  0  0  0
   58.8490   33.7910   44.4710 C   0  0  0  0  0  0  0  0  0  0  0  0
   57.9470   32.7610   44.1670 C   0  0  0  0  0  0  0  0  0  0  0  0
   57.3920   32.6660   42.8920 O   0  0  0  0  0  0  0  0  0  0  0  0
   56.6452   27.8216   44.1258 H   0  0  0  0  0  0  0  0  0  0  0  0
   57.9179   28.3333   42.9705 H   0  0  0  0  0  0  0  0  0  0  0  0
   60.0008   29.4051   43.7706 H   0  0  0  0  0  0  0  0  0  0  0  0
   61.5994   29.6803   45.6690 H   0  0  0  0  0  0  0  0  0  0  0  0
   60.8813   29.1369   47.9978 H   0  0  0  0  0  0  0  0  0  0  0  0
   58.5575   28.3351   48.4346 H   0  0  0  0  0  0  0  0  0  0  0  0
   56.9538   28.0577   46.5444 H   0  0  0  0  0  0  0  0  0  0  0  0
   57.8757   31.2047   47.2154 H   0  0  0  0  0  0  0  0  0  0  0  0
   61.2975   33.1873   50.3966 H   0  0  0  0  0  0  0  0  0  0  0  0
   62.3073   31.6844   50.2062 H   0  0  0  0  0  0  0  0  0  0  0  0
   63.4227   34.1024   50.1199 H   0  0  0  0  0  0  0  0  0  0  0  0
   63.9702   32.7693   49.0382 H   0  0  0  0  0  0  0  0  0  0  0  0
   62.1029   33.9590   46.2564 H   0  0  0  0  0  0  0  0  0  0  0  0
   63.6543   33.0953   46.6917 H   0  0  0  0  0  0  0  0  0  0  0  0
   61.1713   31.8973   46.4810 H   0  0  0  0  0  0  0  0  0  0  0  0
   62.5977   31.2703   47.4170 H   0  0  0  0  0  0  0  0  0  0  0  0
   60.0933   34.7109   45.9877 H   0  0  0  0  0  0  0  0  0  0  0  0
   59.1349   34.5155   43.6942 H   0  0  0  0  0  0  0  0  0  0  0  0
   56.7700   31.9070   42.6390 H   0  0  0  0  0  0  0  0  0  0  0  0
  1  2  2  0
  2  3  1  0
  3  4  1  0
  4  5  2  0
  5  6  1  0
  6  7  2  0
  7  8  1  0
  8  9  2  0
  2 10  1  0
 10 11  1  0
 11 12  2  0
 12 13  1  0
 13 14  1  0
 14 15  2  0
 14 16  2  0
 14 17  1  0
 17 18  1  0
 18 19  1  0
 19 20  1  0
 20 21  1  0
 21 22  1  0
 13 23  2  0
 23 24  1  0
 24 25  2  0
 25 26  1  0
  9  4  1  0
 25 11  1  0
 22 17  1  0
  3 27  1  0
  3 28  1  0
  5 29  1  0
  6 30  1  0
  7 31  1  0
  8 32  1  0
  9 33  1  0
 12 34  1  0
 18 35  1  0
 18 36  1  0
 19 37  1  0
 19 38  1  0
 21 39  1  0
 21 40  1  0
 22 41  1  0
 22 42  1  0
 23 43  1  0
 24 44  1  0
 26 45  1  0
M  CHG  1  10  -1
M  END
>  <UniqueID>  (27) 
27

>  <SMILES>  (27) 
O=C(Cc1ccccc1)[N-]c1cc(S(=O)(=O)N2CCOCC2)ccc1O

>  <Energy>  (27) 
57.722997869997045

>  <Genealogy>  (27) 
O=C(Cc1ccccc1)[N-]c1cc(S(=O)(=O)N2CCOCC2)ccc1O (protonated)
O=C(Cc1ccccc1)[N-]c1cc(S(=O)(=O)N2CCOCC2)ccc1O (3D coordinates assigned)
O=C(Cc1ccccc1)[N-]c1cc(S(=O)(=O)N2CCOCC2)ccc1O (nonaromatic ring conformer: 57.722997869997045 kcal/mol)

>  <smiles>  (27) 
O=C(Cc1ccccc1)Nc1cc(S(=O)(=O)N2CCOCC2)ccc1O

>  <score_type>  (27) 
oracle

>  <origin>  (27) 
adg

>  <m_score__min__energy>  (27) 
-10.119999999999999

>  <m_primary>  (27) 
energy

$$$$
27:0
     RDKit          3D

 46 49  0  0  0  0  0  0  0  0999 V2000
   59.3400   29.9750   49.6610 O   0  0  0  0  0  0  0  0  0  0  0  0
   58.5720   30.9090   50.0190 C   0  0  0  0  0  0  0  0  0  0  0  0
   58.2610   31.9720   49.1140 N   0  0  0  0  0  0  0  0  0  0  0  0
   59.1650   33.0830   48.8570 C   0  0  0  0  0  0  0  0  0  0  0  0
   58.9090   33.6230   47.4810 C   0  0  0  0  0  0  0  0  0  0  0  0
   59.8350   34.4870   46.8740 C   0  0  0  0  0  0  0  0  0  0  0  0
   59.6110   34.9580   45.5760 C   0  0  0  0  0  0  0  0  0  0  0  0
   58.4720   34.5590   44.8720 C   0  0  0  0  0  0  0  0  0  0  0  0
   57.5550   33.6860   45.4640 C   0  0  0  0  0  0  0  0  0  0  0  0
   57.7740   33.2140   46.7630 C   0  0  0  0  0  0  0  0  0  0  0  0
   57.9160   30.8450   51.3350 C   0  0  0  0  0  0  0  0  0  0  0  0
   56.7210   30.1990   51.3860 N   0  0  0  0  0  0  0  0  0  0  0  0
   55.9440   30.1590   52.4960 C   0  0  0  0  0  0  0  0  0  0  0  0
   54.6590   29.3790   52.4540 C   0  0  0  0  0  0  0  0  0  0  0  0
   53.4880   30.3140   52.3220 C   0  0  0  0  0  0  0  0  0  0  0  0
   52.6190   30.5150   53.4070 C   0  0  0  0  0  0  0  0  0  0  0  0
   51.5500   31.4090   53.2970 C   0  0  0  0  0  0  0  0  0  0  0  0
   51.3440   32.1140   52.1080 C   0  0  0  0  0  0  0  0  0  0  0  0
   50.2810   33.0020   52.0000 O   0  0  0  0  0  0  0  0  0  0  0  0
   52.2110   31.9260   51.0260 C   0  0  0  0  0  0  0  0  0  0  0  0
   53.2810   31.0330   51.1320 C   0  0  0  0  0  0  0  0  0  0  0  0
   56.3650   30.8120   53.6610 C   0  0  0  0  0  0  0  0  0  0  0  0
   55.5650   30.7900   54.8010 O   0  0  0  0  0  0  0  0  0  0  0  0
   57.6040   31.4780   53.6700 C   0  0  0  0  0  0  0  0  0  0  0  0
   58.0460   32.1320   54.8350 C   0  0  0  0  0  0  0  0  0  0  0  0
   59.2920   32.7530   54.8680 C   0  0  0  0  0  0  0  0  0  0  0  0
   60.1270   32.7030   53.7560 C   0  0  0  0  0  0  0  0  0  0  0  0
   59.7200   32.0530   52.5890 C   0  0  0  0  0  0  0  0  0  0  0  0
   60.6380   31.9570   51.5500 O   0  0  0  0  0  0  0  0  0  0  0  0
   58.4230   31.4740   52.5050 C   0  0  0  0  0  0  0  0  0  0  0  0
   58.9937   33.8755   49.6004 H   0  0  0  0  0  0  0  0  0  0  0  0
   60.2060   32.7348   48.9282 H   0  0  0  0  0  0  0  0  0  0  0  0
   60.7388   34.7941   47.4207 H   0  0  0  0  0  0  0  0  0  0  0  0
   60.3330   35.6438   45.1087 H   0  0  0  0  0  0  0  0  0  0  0  0
   58.2970   34.9319   43.8520 H   0  0  0  0  0  0  0  0  0  0  0  0
   56.6601   33.3696   44.9081 H   0  0  0  0  0  0  0  0  0  0  0  0
   57.0547   32.5204   47.2230 H   0  0  0  0  0  0  0  0  0  0  0  0
   54.6770   28.6952   51.5925 H   0  0  0  0  0  0  0  0  0  0  0  0
   54.5568   28.8051   53.3868 H   0  0  0  0  0  0  0  0  0  0  0  0
   52.7803   29.9668   54.3469 H   0  0  0  0  0  0  0  0  0  0  0  0
   50.8694   31.5579   54.1482 H   0  0  0  0  0  0  0  0  0  0  0  0
   52.0503   32.4819   50.0905 H   0  0  0  0  0  0  0  0  0  0  0  0
   53.9637   30.8923   50.2810 H   0  0  0  0  0  0  0  0  0  0  0  0
   57.4022   32.1528   55.7267 H   0  0  0  0  0  0  0  0  0  0  0  0
   59.6168   33.2841   55.7749 H   0  0  0  0  0  0  0  0  0  0  0  0
   61.1173   33.1801   53.7966 H   0  0  0  0  0  0  0  0  0  0  0  0
  1  2  2  0
  2  3  1  0
  3  4  1  0
  4  5  1  0
  5  6  2  0
  6  7  1  0
  7  8  2  0
  8  9  1  0
  9 10  2  0
  2 11  1  0
 11 12  2  0
 12 13  1  0
 13 14  1  0
 14 15  1  0
 15 16  2  0
 16 17  1  0
 17 18  2  0
 18 19  1  0
 18 20  1  0
 20 21  2  0
 13 22  2  0
 22 23  1  0
 22 24  1  0
 24 25  2  0
 25 26  1  0
 26 27  2  0
 27 28  1  0
 28 29  1  0
 28 30  2  0
 10  5  1  0
 30 11  1  0
 21 15  1  0
 30 24  1  0
  4 31  1  0
  4 32  1  0
  6 33  1  0
  7 34  1  0
  8 35  1  0
  9 36  1  0
 10 37  1  0
 14 38  1  0
 14 39  1  0
 16 40  1  0
 17 41  1  0
 20 42  1  0
 21 43  1  0
 25 44  1  0
 26 45  1  0
 27 46  1  0
M  CHG  4   3  -1  19  -1  23  -1  29  -1
M  END
>  <UniqueID>  (28) 
28

>  <SMILES>  (28) 
O=C([N-]Cc1ccccc1)c1nc(Cc2ccc([O-])cc2)c([O-])c2cccc([O-])c12

>  <Energy>  (28) 
62.419185713174116

>  <Genealogy>  (28) 
O=C([N-]Cc1ccccc1)c1nc(Cc2ccc([O-])cc2)c([O-])c2cccc([O-])c12 (protonated)
O=C([N-]Cc1ccccc1)c1nc(Cc2ccc([O-])cc2)c([O-])c2cccc([O-])c12 (3D coordinates assigned)
O=C([N-]Cc1ccccc1)c1nc(Cc2ccc([O-])cc2)c([O-])c2cccc([O-])c12 (optimized conformer: 62.419185713174116 kcal/mol)

>  <smiles>  (28) 
O=C(NCc1ccccc1)c1nc(Cc2ccc(O)cc2)c(O)c2cccc(O)c12

>  <score_type>  (28) 
oracle

>  <origin>  (28) 
adg

>  <m_score__min__energy>  (28) 
-15.1

>  <m_primary>  (28) 
energy

$$$$
28:0
     RDKit          3D

 55 58  0  0  0  0  0  0  0  0999 V2000
   55.5900   29.9710   44.3010 C   0  0  0  0  0  0  0  0  0  0  0  0
   56.9870   30.1950   44.8040 C   0  0  0  0  0  0  0  0  0  0  0  0
   57.3610   31.4730   45.0620 N   0  0  0  0  0  0  0  0  0  0  0  0
   58.5840   31.7990   45.5410 C   0  0  0  0  0  0  0  0  0  0  0  0
   58.9430   33.4890   45.8780 S   0  0  0  0  0  0  0  0  0  0  0  0
   58.1650   34.3570   44.9270 O   0  0  0  0  0  0  0  0  0  0  0  0
   60.4090   33.7220   45.6440 O   0  0  0  0  0  0  0  0  0  0  0  0
   58.5500   33.8910   47.5390 N   0  0  0  0  0  0  0  0  0  0  0  0
   59.6430   34.5900   48.2400 C   0  0  0  0  0  0  0  0  0  0  0  0
   60.8830   33.7050   48.4320 C   0  0  0  0  0  0  0  0  0  0  0  0
   60.5240   32.3180   48.8920 C   0  0  0  0  0  0  0  0  0  0  0  0
   61.5370   31.4740   49.3770 C   0  0  0  0  0  0  0  0  0  0  0  0
   61.2430   30.1630   49.7580 C   0  0  0  0  0  0  0  0  0  0  0  0
   59.9380   29.6800   49.6500 C   0  0  0  0  0  0  0  0  0  0  0  0
   58.9240   30.5050   49.1580 C   0  0  0  0  0  0  0  0  0  0  0  0
   59.2100   31.8210   48.7600 C   0  0  0  0  0  0  0  0  0  0  0  0
   58.0830   32.7110   48.2870 C   0  0  0  0  0  0  0  0  0  0  0  0
   59.5290   30.7990   45.7930 C   0  0  0  0  0  0  0  0  0  0  0  0
   60.7620   31.1700   46.3370 O   0  0  0  0  0  0  0  0  0  0  0  0
   59.2080   29.4510   45.5060 C   0  0  0  0  0  0  0  0  0  0  0  0
   60.2590   28.3870   45.7380 C   0  0  0  0  0  0  0  0  0  0  0  0
   57.8970   29.1310   45.0420 C   0  0  0  0  0  0  0  0  0  0  0  0
   57.4800   27.6930   44.7740 C   0  0  0  0  0  0  0  0  0  0  0  0
   56.8760   27.0750   45.9980 C   0  0  0  0  0  0  0  0  0  0  0  0
   57.4390   27.2170   47.1170 O   0  0  0  0  0  0  0  0  0  0  0  0
   55.7480   26.2020   45.8700 N   0  0  0  0  0  0  0  0  0  0  0  0
   55.7130   24.9030   45.7500 C   0  0  0  0  0  0  0  0  0  0  0  0
   55.0900   24.2080   46.7420 N   0  0  0  0  0  0  0  0  0  0  0  0
   54.9580   22.8570   46.7280 C   0  0  0  0  0  0  0  0  0  0  0  0
   55.4770   22.1190   45.6680 C   0  0  0  0  0  0  0  0  0  0  0  0
   55.3100   20.3730   45.6360 Cl  0  0  0  0  0  0  0  0  0  0  0  0
   56.1550   22.7820   44.6460 C   0  0  0  0  0  0  0  0  0  0  0  0
   56.3000   24.1740   44.6740 C   0  0  0  0  0  0  0  0  0  0  0  0
   57.3590   24.8630   43.4430 Cl  0  0  0  0  0  0  0  0  0  0  0  0
   54.9059   29.8613   45.1553 H   0  0  0  0  0  0  0  0  0  0  0  0
   55.2782   30.8306   43.6896 H   0  0  0  0  0  0  0  0  0  0  0  0
   55.5626   29.0570   43.6896 H   0  0  0  0  0  0  0  0  0  0  0  0
   59.9293   35.4747   47.6524 H   0  0  0  0  0  0  0  0  0  0  0  0
   59.2743   34.8678   49.2385 H   0  0  0  0  0  0  0  0  0  0  0  0
   61.4190   33.6332   47.4741 H   0  0  0  0  0  0  0  0  0  0  0  0
   61.5113   34.1667   49.2079 H   0  0  0  0  0  0  0  0  0  0  0  0
   62.5683   31.8482   49.4572 H   0  0  0  0  0  0  0  0  0  0  0  0
   62.0404   29.5107   50.1434 H   0  0  0  0  0  0  0  0  0  0  0  0
   59.7077   28.6479   49.9529 H   0  0  0  0  0  0  0  0  0  0  0  0
   57.8957   30.1218   49.0819 H   0  0  0  0  0  0  0  0  0  0  0  0
   57.4229   32.1217   47.6336 H   0  0  0  0  0  0  0  0  0  0  0  0
   57.5587   33.0777   49.1818 H   0  0  0  0  0  0  0  0  0  0  0  0
   61.1150   32.1180   46.3420 H   0  0  0  0  0  0  0  0  0  0  0  0
   60.4019   28.2423   46.8190 H   0  0  0  0  0  0  0  0  0  0  0  0
   59.9305   27.4415   45.2818 H   0  0  0  0  0  0  0  0  0  0  0  0
   61.2085   28.7038   45.2818 H   0  0  0  0  0  0  0  0  0  0  0  0
   56.7399   27.6782   43.9604 H   0  0  0  0  0  0  0  0  0  0  0  0
   58.3723   27.1149   44.4919 H   0  0  0  0  0  0  0  0  0  0  0  0
   54.4413   22.3459   47.5537 H   0  0  0  0  0  0  0  0  0  0  0  0
   56.5797   22.2063   43.8104 H   0  0  0  0  0  0  0  0  0  0  0  0
  1  2  1  0
  2  3  2  0
  3  4  1  0
  4  5  1  0
  5  6  2  0
  5  7  2  0
  5  8  1  0
  8  9  1  0
  9 10  1  0
 10 11  1  0
 11 12  2  0
 12 13  1  0
 13 14  2  0
 14 15  1  0
 15 16  2  0
 16 17  1  0
  4 18  2  0
 18 19  1  0
 18 20  1  0
 20 21  1  0
 20 22  2  0
 22 23  1  0
 23 24  1  0
 24 25  2  0
 24 26  1  0
 26 27  2  3
 27 28  1  0
 28 29  1  0
 29 30  2  0
 30 31  1  0
 30 32  1  0
 32 33  2  0
 33 34  1  0
 22  2  1  0
 33 27  1  0
 17  8  1  0
 16 11  1  0
  1 35  1  0
  1 36  1  0
  1 37  1  0
  9 38  1  0
  9 39  1  0
 10 40  1  0
 10 41  1  0
 12 42  1  0
 13 43  1  0
 14 44  1  0
 15 45  1  0
 17 46  1  0
 17 47  1  0
 19 48  1  0
 21 49  1  0
 21 50  1  0
 21 51  1  0
 23 52  1  0
 23 53  1  0
 29 54  1  0
 32 55  1  0
M  CHG  1  28  -1
M  END
>  <UniqueID>  (29) 
29

>  <SMILES>  (29) 
Cc1nc(S(=O)(=O)N2CCc3ccccc3C2)c(O)c(C)c1CC(=O)N=c1[n-]cc(Cl)cc1Cl

>  <Energy>  (29) 
82.69781042601608

>  <Genealogy>  (29) 
Cc1nc(S(=O)(=O)N2CCc3ccccc3C2)c(O)c(C)c1CC(=O)N=c1[n-]cc(Cl)cc1Cl (protonated)
Cc1nc(S(=O)(=O)N2CCc3ccccc3C2)c(O)c(C)c1CC(=O)N=c1[n-]cc(Cl)cc1Cl (3D coordinates assigned)
Cc1nc(S(=O)(=O)N2CCc3ccccc3C2)c(O)c(C)c1CC(=O)N=c1[n-]cc(Cl)cc1Cl (nonaromatic ring conformer: 82.69781042601608 kcal/mol)

>  <smiles>  (29) 
Cc1nc(S(=O)(=O)N2CCc3ccccc3C2)c(O)c(C)c1CC(=O)N=c1[nH]cc(Cl)cc1Cl

>  <score_type>  (29) 
oracle

>  <origin>  (29) 
adg

>  <m_score__min__energy>  (29) 
-11.48

>  <m_primary>  (29) 
energy

$$$$
29:0
     RDKit          3D

 37 39  0  0  0  0  0  0  0  0999 V2000
   55.3790   26.4250   46.0320 O   0  0  0  0  0  0  0  0  0  0  0  0
   56.5920   26.7380   45.8790 C   0  0  0  0  0  0  0  0  0  0  0  0
   57.6040   25.7180   45.9460 N   0  0  0  0  0  0  0  0  0  0  0  0
   57.3400   24.3150   45.7700 C   0  0  0  0  0  0  0  0  0  0  0  0
   57.0200   23.5300   46.8870 C   0  0  0  0  0  0  0  0  0  0  0  0
   56.7870   22.1590   46.7460 C   0  0  0  0  0  0  0  0  0  0  0  0
   56.8820   21.5580   45.4890 C   0  0  0  0  0  0  0  0  0  0  0  0
   57.2080   22.3260   44.3610 C   0  0  0  0  0  0  0  0  0  0  0  0
   57.3650   21.6680   43.0180 C   0  0  0  0  0  0  0  0  0  0  0  0
   56.2050   21.8510   42.2530 O   0  0  0  0  0  0  0  0  0  0  0  0
   57.4560   23.7000   44.5090 C   0  0  0  0  0  0  0  0  0  0  0  0
   56.9680   28.1600   45.6680 C   0  0  0  0  0  0  0  0  0  0  0  0
   56.1600   28.9840   44.8660 C   0  0  0  0  0  0  0  0  0  0  0  0
   56.4800   30.2890   44.6720 N   0  0  0  0  0  0  0  0  0  0  0  0
   57.5780   30.8540   45.2350 C   0  0  0  0  0  0  0  0  0  0  0  0
   57.8620   32.2040   45.0010 C   0  0  0  0  0  0  0  0  0  0  0  0
   58.9950   32.8070   45.5770 C   0  0  0  0  0  0  0  0  0  0  0  0
   59.2900   34.1960   45.3380 N   0  0  0  0  0  0  0  0  0  0  0  0
   59.6040   34.5940   44.1960 O   0  0  0  0  0  0  0  0  0  0  0  0
   59.2290   35.1100   46.3640 O   0  0  0  0  0  0  0  0  0  0  0  0
   59.8390   32.0330   46.3920 C   0  0  0  0  0  0  0  0  0  0  0  0
   59.5600   30.6850   46.6290 C   0  0  0  0  0  0  0  0  0  0  0  0
   58.4270   30.0800   46.0550 C   0  0  0  0  0  0  0  0  0  0  0  0
   58.1160   28.7230   46.2700 C   0  0  0  0  0  0  0  0  0  0  0  0
   58.8700   28.0100   46.9900 O   0  0  0  0  0  0  0  0  0  0  0  0
   58.5640   26.0010   46.2460 H   0  0  0  0  0  0  0  0  0  0  0  0
   56.9519   23.9963   47.8809 H   0  0  0  0  0  0  0  0  0  0  0  0
   56.5284   21.5525   47.6265 H   0  0  0  0  0  0  0  0  0  0  0  0
   56.7005   20.4783   45.3829 H   0  0  0  0  0  0  0  0  0  0  0  0
   58.2218   22.1145   42.4921 H   0  0  0  0  0  0  0  0  0  0  0  0
   57.5344   20.5908   43.1627 H   0  0  0  0  0  0  0  0  0  0  0  0
   56.4300   22.5200   41.5550 H   0  0  0  0  0  0  0  0  0  0  0  0
   57.7431   24.3004   43.6331 H   0  0  0  0  0  0  0  0  0  0  0  0
   55.2596   28.5675   44.3909 H   0  0  0  0  0  0  0  0  0  0  0  0
   57.1936   32.7989   44.3612 H   0  0  0  0  0  0  0  0  0  0  0  0
   60.7280   32.4934   46.8477 H   0  0  0  0  0  0  0  0  0  0  0  0
   60.2306   30.0925   47.2687 H   0  0  0  0  0  0  0  0  0  0  0  0
  1  2  2  0
  2  3  1  0
  3  4  1  0
  4  5  2  0
  5  6  1  0
  6  7  2  0
  7  8  1  0
  8  9  1  0
  9 10  1  0
  8 11  2  0
  2 12  1  0
 12 13  2  0
 13 14  1  0
 14 15  1  0
 15 16  2  0
 16 17  1  0
 17 18  1  0
 18 19  2  0
 18 20  1  0
 17 21  2  0
 21 22  1  0
 22 23  2  0
 23 24  1  0
 24 25  2  0
 11  4  1  0
 24 12  1  0
 23 15  1  0
  3 26  1  0
  5 27  1  0
  6 28  1  0
  7 29  1  0
  9 30  1  0
  9 31  1  0
 10 32  1  0
 11 33  1  0
 13 34  1  0
 16 35  1  0
 21 36  1  0
 22 37  1  0
M  CHG  3  14  -1  18   1  20  -1
M  END
>  <UniqueID>  (30) 
30

>  <SMILES>  (30) 
O=C(Nc1cccc(CO)c1)c1c[n-]c2cc([N+](=O)[O-])ccc2c1=O

>  <Energy>  (30) 
52.461876517270326

>  <Genealogy>  (30) 
O=C(Nc1cccc(CO)c1)c1c[n-]c2cc([N+](=O)[O-])ccc2c1=O (protonated)
O=C(Nc1cccc(CO)c1)c1c[n-]c2cc([N+](=O)[O-])ccc2c1=O (3D coordinates assigned)
O=C(Nc1cccc(CO)c1)c1c[n-]c2cc([N+](=O)[O-])ccc2c1=O (optimized conformer: 52.461876517270326 kcal/mol)

>  <smiles>  (30) 
O=C(Nc1cccc(CO)c1)c1c[nH]c2cc([N+](=O)[O-])ccc2c1=O

>  <score_type>  (30) 
oracle

>  <origin>  (30) 
adg

>  <m_score__min__energy>  (30) 
-9.5199999999999996

>  <m_primary>  (30) 
energy

$$$$
30:0
     RDKit          3D

 56 59  0  0  0  0  0  0  0  0999 V2000
   51.0830   23.9150   44.6810 C   0  0  0  0  0  0  0  0  0  0  0  0
   52.2830   23.3690   45.3960 C   0  0  0  0  0  0  0  0  0  0  0  0
   53.5770   23.7190   44.9800 C   0  0  0  0  0  0  0  0  0  0  0  0
   54.6950   23.2650   45.6880 C   0  0  0  0  0  0  0  0  0  0  0  0
   54.5320   22.4630   46.8260 C   0  0  0  0  0  0  0  0  0  0  0  0
   55.9420   21.9910   47.7730 S   0  0  0  0  0  0  0  0  0  0  0  0
   56.0380   20.4900   47.7810 O   0  0  0  0  0  0  0  0  0  0  0  0
   55.8270   22.4880   49.1880 O   0  0  0  0  0  0  0  0  0  0  0  0
   57.3780   22.6530   47.0570 N   0  0  0  0  0  0  0  0  0  0  0  0
   57.5030   24.0020   46.5860 C   0  0  0  0  0  0  0  0  0  0  0  0
   57.8210   24.2970   45.2490 C   0  0  0  0  0  0  0  0  0  0  0  0
   58.0480   25.6150   44.8520 C   0  0  0  0  0  0  0  0  0  0  0  0
   57.9380   26.6650   45.7770 C   0  0  0  0  0  0  0  0  0  0  0  0
   58.2680   28.0500   45.3760 C   0  0  0  0  0  0  0  0  0  0  0  0
   59.3970   28.5330   45.6640 O   0  0  0  0  0  0  0  0  0  0  0  0
   57.3340   28.8100   44.5930 N   0  0  0  0  0  0  0  0  0  0  0  0
   57.4560   30.2150   44.3220 C   0  0  0  0  0  0  0  0  0  0  0  0
   57.3380   30.7250   43.0180 C   0  0  0  0  0  0  0  0  0  0  0  0
   57.5090   32.0920   42.7810 C   0  0  0  0  0  0  0  0  0  0  0  0
   57.8190   32.9550   43.8360 C   0  0  0  0  0  0  0  0  0  0  0  0
   57.9760   32.4560   45.1350 C   0  0  0  0  0  0  0  0  0  0  0  0
   58.2900   33.3680   46.1990 N   0  0  0  0  0  0  0  0  0  0  0  0
   59.3690   34.3150   46.2180 C   0  0  0  0  0  0  0  0  0  0  0  0
   59.2750   35.3540   45.5110 O   0  0  0  0  0  0  0  0  0  0  0  0
   60.5990   34.0880   47.0110 C   0  0  0  0  0  0  0  0  0  0  0  0
   61.7990   33.7330   46.3680 C   0  0  0  0  0  0  0  0  0  0  0  0
   62.9650   33.5260   47.1110 C   0  0  0  0  0  0  0  0  0  0  0  0
   62.9440   33.6640   48.5020 C   0  0  0  0  0  0  0  0  0  0  0  0
   64.0710   33.4390   49.2230 F   0  0  0  0  0  0  0  0  0  0  0  0
   61.7560   34.0060   49.1510 C   0  0  0  0  0  0  0  0  0  0  0  0
   60.5880   34.2130   48.4120 C   0  0  0  0  0  0  0  0  0  0  0  0
   57.7720   31.0860   45.3740 C   0  0  0  0  0  0  0  0  0  0  0  0
   57.5460   26.3760   47.0950 C   0  0  0  0  0  0  0  0  0  0  0  0
   57.3340   25.0530   47.4940 C   0  0  0  0  0  0  0  0  0  0  0  0
   53.2400   22.1100   47.2430 C   0  0  0  0  0  0  0  0  0  0  0  0
   52.1220   22.5670   46.5370 C   0  0  0  0  0  0  0  0  0  0  0  0
   50.3396   24.2532   45.4178 H   0  0  0  0  0  0  0  0  0  0  0  0
   51.3866   24.7636   44.0504 H   0  0  0  0  0  0  0  0  0  0  0  0
   50.6427   23.1286   44.0504 H   0  0  0  0  0  0  0  0  0  0  0  0
   53.7129   24.3540   44.0921 H   0  0  0  0  0  0  0  0  0  0  0  0
   55.7056   23.5384   45.3504 H   0  0  0  0  0  0  0  0  0  0  0  0
   57.8913   23.4839   44.5114 H   0  0  0  0  0  0  0  0  0  0  0  0
   58.3149   25.8328   43.8073 H   0  0  0  0  0  0  0  0  0  0  0  0
   56.5930   28.2840   44.0750 H   0  0  0  0  0  0  0  0  0  0  0  0
   57.1106   30.0472   42.1820 H   0  0  0  0  0  0  0  0  0  0  0  0
   57.3993   32.4897   41.7613 H   0  0  0  0  0  0  0  0  0  0  0  0
   57.9402   34.0315   43.6449 H   0  0  0  0  0  0  0  0  0  0  0  0
   61.8199   33.6176   45.2743 H   0  0  0  0  0  0  0  0  0  0  0  0
   63.9005   33.2541   46.6003 H   0  0  0  0  0  0  0  0  0  0  0  0
   61.7393   34.1127   50.2457 H   0  0  0  0  0  0  0  0  0  0  0  0
   59.6536   34.4755   48.9296 H   0  0  0  0  0  0  0  0  0  0  0  0
   57.8613   30.6931   46.3975 H   0  0  0  0  0  0  0  0  0  0  0  0
   57.4053   27.1945   47.8162 H   0  0  0  0  0  0  0  0  0  0  0  0
   57.0321   24.8367   48.5294 H   0  0  0  0  0  0  0  0  0  0  0  0
   53.1054   21.4714   48.1285 H   0  0  0  0  0  0  0  0  0  0  0  0
   51.1116   22.2966   46.8776 H   0  0  0  0  0  0  0  0  0  0  0  0
  1  2  1  0
  2  3  2  0
  3  4  1  0
  4  5  2  0
  5  6  1  0
  6  7  2  0
  6  8  2  0
  6  9  1  0
  9 10  1  0
 10 11  2  0
 11 12  1  0
 12 13  2  0
 13 14  1  0
 14 15  2  0
 14 16  1  0
 16 17  1  0
 17 18  2  0
 18 19  1  0
 19 20  2  0
 20 21  1  0
 21 22  1  0
 22 23  1  0
 23 24  2  0
 23 25  1  0
 25 26  2  0
 26 27  1  0
 27 28  2  0
 28 29  1  0
 28 30  1  0
 30 31  2  0
 21 32  2  0
 13 33  1  0
 33 34  2  0
  5 35  1  0
 35 36  2  0
 36  2  1  0
 34 10  1  0
 32 17  1  0
 31 25  1  0
  1 37  1  0
  1 38  1  0
  1 39  1  0
  3 40  1  0
  4 41  1  0
 11 42  1  0
 12 43  1  0
 16 44  1  0
 18 45  1  0
 19 46  1  0
 20 47  1  0
 26 48  1  0
 27 49  1  0
 30 50  1  0
 31 51  1  0
 32 52  1  0
 33 53  1  0
 34 54  1  0
 35 55  1  0
 36 56  1  0
M  CHG  2   9  -1  22  -1
M  END
>  <UniqueID>  (31) 
31

>  <SMILES>  (31) 
Cc1ccc(S(=O)(=O)[N-]c2ccc(C(=O)Nc3cccc([N-]C(=O)c4ccc(F)cc4)c3)cc2)cc1

>  <Energy>  (31) 
76.02459380605113

>  <Genealogy>  (31) 
Cc1ccc(S(=O)(=O)[N-]c2ccc(C(=O)Nc3cccc([N-]C(=O)c4ccc(F)cc4)c3)cc2)cc1 (protonated)
Cc1ccc(S(=O)(=O)[N-]c2ccc(C(=O)Nc3cccc([N-]C(=O)c4ccc(F)cc4)c3)cc2)cc1 (3D coordinates assigned)
Cc1ccc(S(=O)(=O)[N-]c2ccc(C(=O)Nc3cccc([N-]C(=O)c4ccc(F)cc4)c3)cc2)cc1 (optimized conformer: 76.02459380605113 kcal/mol)

>  <smiles>  (31) 
Cc1ccc(S(=O)(=O)Nc2ccc(C(=O)Nc3cccc(NC(=O)c4ccc(F)cc4)c3)cc2)cc1

>  <score_type>  (31) 
oracle

>  <origin>  (31) 
adg

>  <m_score__min__energy>  (31) 
-11.98

>  <m_primary>  (31) 
energy

$$$$
31:0
     RDKit          3D

 42 44  0  0  0  0  0  0  0  0999 V2000
   60.7510   28.2480   45.1700 C   0  0  0  0  0  0  0  0  0  0  0  0
   59.4130   28.5750   45.6770 N   0  0  0  0  0  0  0  0  0  0  0  0
   58.6630   29.3440   44.6670 C   0  0  0  0  0  0  0  0  0  0  0  0
   57.2140   29.4440   45.0340 C   0  0  0  0  0  0  0  0  0  0  0  0
   56.6880   30.5780   45.1910 O   0  0  0  0  0  0  0  0  0  0  0  0
   56.4540   28.2450   45.2290 N   0  0  0  0  0  0  0  0  0  0  0  0
   56.9720   26.9430   45.5400 C   0  0  0  0  0  0  0  0  0  0  0  0
   56.8000   26.3570   46.8080 C   0  0  0  0  0  0  0  0  0  0  0  0
   57.3050   25.0790   47.0670 C   0  0  0  0  0  0  0  0  0  0  0  0
   57.9680   24.3700   46.0620 C   0  0  0  0  0  0  0  0  0  0  0  0
   58.1210   24.9360   44.7940 C   0  0  0  0  0  0  0  0  0  0  0  0
   57.6180   26.2150   44.5310 C   0  0  0  0  0  0  0  0  0  0  0  0
   57.7750   26.7530   43.2950 F   0  0  0  0  0  0  0  0  0  0  0  0
   59.5390   29.4620   47.1870 S   0  0  0  0  0  0  0  0  0  0  0  0
   58.1500   29.7180   47.7030 O   0  0  0  0  0  0  0  0  0  0  0  0
   60.2320   28.6230   48.2250 O   0  0  0  0  0  0  0  0  0  0  0  0
   60.3640   31.0310   46.9860 C   0  0  0  0  0  0  0  0  0  0  0  0
   61.7380   31.0690   47.2830 C   0  0  0  0  0  0  0  0  0  0  0  0
   62.4710   32.2470   47.1580 C   0  0  0  0  0  0  0  0  0  0  0  0
   61.8510   33.4160   46.7330 C   0  0  0  0  0  0  0  0  0  0  0  0
   60.4850   33.4170   46.4300 C   0  0  0  0  0  0  0  0  0  0  0  0
   59.8630   34.5970   46.0040 C   0  0  0  0  0  0  0  0  0  0  0  0
   58.5050   34.5980   45.7060 C   0  0  0  0  0  0  0  0  0  0  0  0
   57.7760   33.4190   45.8360 C   0  0  0  0  0  0  0  0  0  0  0  0
   58.3820   32.2720   46.2490 N   0  0  0  0  0  0  0  0  0  0  0  0
   59.7180   32.2270   46.5520 C   0  0  0  0  0  0  0  0  0  0  0  0
   61.4333   28.0813   46.0166 H   0  0  0  0  0  0  0  0  0  0  0  0
   60.6980   27.3364   44.5567 H   0  0  0  0  0  0  0  0  0  0  0  0
   61.1245   29.0813   44.5567 H   0  0  0  0  0  0  0  0  0  0  0  0
   59.0872   30.3566   44.5981 H   0  0  0  0  0  0  0  0  0  0  0  0
   58.7443   28.8251   43.7005 H   0  0  0  0  0  0  0  0  0  0  0  0
   56.2666   26.9061   47.5979 H   0  0  0  0  0  0  0  0  0  0  0  0
   57.1801   24.6310   48.0638 H   0  0  0  0  0  0  0  0  0  0  0  0
   58.3692   23.3669   46.2691 H   0  0  0  0  0  0  0  0  0  0  0  0
   58.6377   24.3754   44.0011 H   0  0  0  0  0  0  0  0  0  0  0  0
   62.2432   30.1519   47.6202 H   0  0  0  0  0  0  0  0  0  0  0  0
   63.5448   32.2520   47.3966 H   0  0  0  0  0  0  0  0  0  0  0  0
   62.4356   34.3426   46.6346 H   0  0  0  0  0  0  0  0  0  0  0  0
   60.4486   35.5229   45.9052 H   0  0  0  0  0  0  0  0  0  0  0  0
   58.0111   35.5219   45.3706 H   0  0  0  0  0  0  0  0  0  0  0  0
   56.7010   33.4142   45.6030 H   0  0  0  0  0  0  0  0  0  0  0  0
   57.7710   31.4370   46.3300 H   0  0  0  0  0  0  0  0  0  0  0  0
  1  2  1  0
  2  3  1  0
  3  4  1  0
  4  5  2  0
  4  6  1  0
  6  7  1  0
  7  8  2  0
  8  9  1  0
  9 10  2  0
 10 11  1  0
 11 12  2  0
 12 13  1  0
  2 14  1  0
 14 15  2  0
 14 16  2  0
 14 17  1  0
 17 18  2  0
 18 19  1  0
 19 20  2  0
 20 21  1  0
 21 22  2  0
 22 23  1  0
 23 24  2  0
 24 25  1  0
 25 26  2  0
 12  7  1  0
 26 17  1  0
 26 21  1  0
  1 27  1  0
  1 28  1  0
  1 29  1  0
  3 30  1  0
  3 31  1  0
  8 32  1  0
  9 33  1  0
 10 34  1  0
 11 35  1  0
 18 36  1  0
 19 37  1  0
 20 38  1  0
 22 39  1  0
 23 40  1  0
 24 41  1  0
 25 42  1  0
M  CHG  2   6  -1  25   1
M  END
>  <UniqueID>  (32) 
32

>  <SMILES>  (32) 
CN(CC(=O)[N-]c1ccccc1F)S(=O)(=O)c1cccc2ccc[nH+]c12

>  <Energy>  (32) 
54.21845699077999

>  <Genealogy>  (32) 
CN(CC(=O)[N-]c1ccccc1F)S(=O)(=O)c1cccc2ccc[nH+]c12 (protonated)
CN(CC(=O)[N-]c1ccccc1F)S(=O)(=O)c1cccc2ccc[nH+]c12 (3D coordinates assigned)
CN(CC(=O)[N-]c1ccccc1F)S(=O)(=O)c1cccc2ccc[nH+]c12 (optimized conformer: 54.21845699077999 kcal/mol)

>  <smiles>  (32) 
CN(CC(=O)Nc1ccccc1F)S(=O)(=O)c1cccc2cccnc12

>  <score_type>  (32) 
oracle

>  <origin>  (32) 
adg

>  <m_score__min__energy>  (32) 
-8.7300000000000004

>  <m_primary>  (32) 
energy

$$$$
32:0
     RDKit          3D

 44 47  0  0  0  0  0  0  0  0999 V2000
   55.1600   26.6440   45.9940 N   0  0  0  0  0  0  0  0  0  0  0  0
   56.5000   27.0680   45.7520 C   0  0  0  0  0  0  0  0  0  0  0  0
   57.4430   26.2450   45.9090 O   0  0  0  0  0  0  0  0  0  0  0  0
   56.7870   28.4550   45.3180 C   0  0  0  0  0  0  0  0  0  0  0  0
   58.0450   29.0350   45.5650 C   0  0  0  0  0  0  0  0  0  0  0  0
   58.3200   30.3430   45.1530 C   0  0  0  0  0  0  0  0  0  0  0  0
   57.3460   31.0850   44.4620 C   0  0  0  0  0  0  0  0  0  0  0  0
   57.5840   32.4360   44.0370 N   0  0  0  0  0  0  0  0  0  0  0  0
   57.4620   33.6140   44.8450 C   0  0  0  0  0  0  0  0  0  0  0  0
   56.6280   34.4960   44.4990 O   0  0  0  0  0  0  0  0  0  0  0  0
   58.3050   33.8410   46.0440 C   0  0  0  0  0  0  0  0  0  0  0  0
   59.2020   34.9410   46.0790 C   0  0  0  0  0  0  0  0  0  0  0  0
   60.0230   35.1650   47.2000 C   0  0  0  0  0  0  0  0  0  0  0  0
   59.9180   34.2800   48.2670 C   0  0  0  0  0  0  0  0  0  0  0  0
   60.5920   34.3040   49.4230 N   0  0  0  0  0  0  0  0  0  0  0  0
   60.0870   33.2290   50.0820 C   0  0  0  0  0  0  0  0  0  0  0  0
   60.5600   32.8200   51.4390 C   0  0  0  0  0  0  0  0  0  0  0  0
   61.7410   31.4340   51.3090 S   0  0  0  0  0  0  0  0  0  0  0  0
   62.3800   31.9190   49.7030 C   0  0  0  0  0  0  0  0  0  0  0  0
   61.9720   31.2330   48.5510 C   0  0  0  0  0  0  0  0  0  0  0  0
   62.4650   31.6110   47.2980 C   0  0  0  0  0  0  0  0  0  0  0  0
   63.3760   32.6690   47.1950 C   0  0  0  0  0  0  0  0  0  0  0  0
   63.8040   33.3370   48.3460 C   0  0  0  0  0  0  0  0  0  0  0  0
   63.3120   32.9590   49.6000 C   0  0  0  0  0  0  0  0  0  0  0  0
   59.1530   32.5300   49.3880 N   0  0  0  0  0  0  0  0  0  0  0  0
   59.0660   33.2200   48.2420 C   0  0  0  0  0  0  0  0  0  0  0  0
   58.2480   32.9560   47.1470 C   0  0  0  0  0  0  0  0  0  0  0  0
   56.0890   30.5180   44.2290 C   0  0  0  0  0  0  0  0  0  0  0  0
   55.8100   29.2130   44.6440 C   0  0  0  0  0  0  0  0  0  0  0  0
   54.5900   27.0780   46.7530 H   0  0  0  0  0  0  0  0  0  0  0  0
   58.8196   28.4541   46.0871 H   0  0  0  0  0  0  0  0  0  0  0  0
   59.3004   30.7921   45.3701 H   0  0  0  0  0  0  0  0  0  0  0  0
   59.2559   35.6261   45.2201 H   0  0  0  0  0  0  0  0  0  0  0  0
   60.7242   36.0119   47.2309 H   0  0  0  0  0  0  0  0  0  0  0  0
   61.0555   33.6745   51.9231 H   0  0  0  0  0  0  0  0  0  0  0  0
   59.6948   32.4972   52.0366 H   0  0  0  0  0  0  0  0  0  0  0  0
   61.2629   30.3960   48.6325 H   0  0  0  0  0  0  0  0  0  0  0  0
   62.1371   31.0772   46.3938 H   0  0  0  0  0  0  0  0  0  0  0  0
   63.7549   32.9746   46.2086 H   0  0  0  0  0  0  0  0  0  0  0  0
   64.5285   34.1608   48.2657 H   0  0  0  0  0  0  0  0  0  0  0  0
   63.6575   33.4791   50.5056 H   0  0  0  0  0  0  0  0  0  0  0  0
   57.5767   32.0847   47.1392 H   0  0  0  0  0  0  0  0  0  0  0  0
   55.3132   31.1042   43.7147 H   0  0  0  0  0  0  0  0  0  0  0  0
   54.8211   28.7752   44.4430 H   0  0  0  0  0  0  0  0  0  0  0  0
  1  2  1  0
  2  3  2  0
  2  4  1  0
  4  5  2  0
  5  6  1  0
  6  7  2  0
  7  8  1  0
  8  9  1  0
  9 10  2  0
  9 11  1  0
 11 12  2  0
 12 13  1  0
 13 14  2  0
 14 15  1  0
 15 16  1  0
 16 17  1  0
 17 18  1  0
 18 19  1  0
 19 20  2  0
 20 21  1  0
 21 22  2  0
 22 23  1  0
 23 24  2  0
 16 25  2  0
 25 26  1  0
 26 27  2  0
  7 28  1  0
 28 29  2  0
 29  4  1  0
 27 11  1  0
 26 14  1  0
 24 19  1  0
  1 30  1  0
  5 31  1  0
  6 32  1  0
 12 33  1  0
 13 34  1  0
 17 35  1  0
 17 36  1  0
 20 37  1  0
 21 38  1  0
 22 39  1  0
 23 40  1  0
 24 41  1  0
 27 42  1  0
 28 43  1  0
 29 44  1  0
M  CHG  3   1  -1   8  -1  15  -1
M  END
>  <UniqueID>  (33) 
33

>  <SMILES>  (33) 
[NH-]C(=O)c1ccc([N-]C(=O)c2ccc3[n-]c(CSc4ccccc4)nc3c2)cc1

>  <Energy>  (33) 
85.3068343537937

>  <Genealogy>  (33) 
[NH-]C(=O)c1ccc([N-]C(=O)c2ccc3[n-]c(CSc4ccccc4)nc3c2)cc1 (protonated)
[NH-]C(=O)c1ccc([N-]C(=O)c2ccc3[n-]c(CSc4ccccc4)nc3c2)cc1 (3D coordinates assigned)
[NH-]C(=O)c1ccc([N-]C(=O)c2ccc3[n-]c(CSc4ccccc4)nc3c2)cc1 (optimized conformer: 85.3068343537937 kcal/mol)

>  <smiles>  (33) 
NC(=O)c1ccc(NC(=O)c2ccc3[nH]c(CSc4ccccc4)nc3c2)cc1

>  <score_type>  (33) 
oracle

>  <origin>  (33) 
adg

>  <m_score__min__energy>  (33) 
-13.65

>  <m_primary>  (33) 
energy

$$$$
33:0
     RDKit          3D

 39 41  0  0  0  0  0  0  0  0999 V2000
   60.0680   29.3040   49.0760 C   0  0  0  0  0  0  0  0  0  0  0  0
   59.4840   29.1570   47.8830 C   0  0  0  0  0  0  0  0  0  0  0  0
   58.8150   28.0470   47.5230 N   0  0  0  0  0  0  0  0  0  0  0  0
   58.3470   28.2380   46.2710 C   0  0  0  0  0  0  0  0  0  0  0  0
   57.6480   27.2770   45.6360 C   0  0  0  0  0  0  0  0  0  0  0  0
   57.1730   26.0140   46.2210 C   0  0  0  0  0  0  0  0  0  0  0  0
   57.9520   25.1280   46.8680 N   0  0  0  0  0  0  0  0  0  0  0  0
   57.0670   24.2250   47.3450 C   0  0  0  0  0  0  0  0  0  0  0  0
   57.4190   23.2140   48.0050 O   0  0  0  0  0  0  0  0  0  0  0  0
   55.7740   24.4990   47.0690 N   0  0  0  0  0  0  0  0  0  0  0  0
   55.8600   25.6430   46.3710 C   0  0  0  0  0  0  0  0  0  0  0  0
   54.7590   26.3410   45.8820 O   0  0  0  0  0  0  0  0  0  0  0  0
   58.6880   29.5290   45.8360 C   0  0  0  0  0  0  0  0  0  0  0  0
   58.3360   30.2060   44.5400 C   0  0  0  0  0  0  0  0  0  0  0  0
   59.4390   30.0970   46.8640 C   0  0  0  0  0  0  0  0  0  0  0  0
   60.0550   31.4420   46.8800 C   0  0  0  0  0  0  0  0  0  0  0  0
   61.2440   31.5660   47.2820 O   0  0  0  0  0  0  0  0  0  0  0  0
   59.3360   32.5970   46.4080 N   0  0  0  0  0  0  0  0  0  0  0  0
   57.9030   32.7460   46.6920 C   0  0  0  0  0  0  0  0  0  0  0  0
   57.2510   33.6240   45.6220 C   0  0  0  0  0  0  0  0  0  0  0  0
   57.9500   34.8470   45.4820 O   0  0  0  0  0  0  0  0  0  0  0  0
   59.2540   34.5980   44.9910 C   0  0  0  0  0  0  0  0  0  0  0  0
   60.0750   33.7970   46.0060 C   0  0  0  0  0  0  0  0  0  0  0  0
   60.6023   30.2351   49.3158 H   0  0  0  0  0  0  0  0  0  0  0  0
   60.0144   28.4939   49.8182 H   0  0  0  0  0  0  0  0  0  0  0  0
   58.6960   27.1850   48.1050 H   0  0  0  0  0  0  0  0  0  0  0  0
   57.4094   27.4543   44.5769 H   0  0  0  0  0  0  0  0  0  0  0  0
   54.3960   27.1440   46.3790 H   0  0  0  0  0  0  0  0  0  0  0  0
   57.8379   31.1640   44.7502 H   0  0  0  0  0  0  0  0  0  0  0  0
   59.2532   30.3889   43.9609 H   0  0  0  0  0  0  0  0  0  0  0  0
   57.6594   29.5603   43.9609 H   0  0  0  0  0  0  0  0  0  0  0  0
   57.4257   31.7549   46.6917 H   0  0  0  0  0  0  0  0  0  0  0  0
   57.7752   33.2187   47.6770 H   0  0  0  0  0  0  0  0  0  0  0  0
   57.2626   33.0897   44.6606 H   0  0  0  0  0  0  0  0  0  0  0  0
   56.2165   33.8415   45.9262 H   0  0  0  0  0  0  0  0  0  0  0  0
   59.1832   34.0267   44.0536 H   0  0  0  0  0  0  0  0  0  0  0  0
   59.7542   35.5619   44.8158 H   0  0  0  0  0  0  0  0  0  0  0  0
   61.0311   33.5010   45.5497 H   0  0  0  0  0  0  0  0  0  0  0  0
   60.2638   34.4204   46.8924 H   0  0  0  0  0  0  0  0  0  0  0  0
  1  2  2  0
  2  3  1  0
  3  4  1  0
  4  5  2  3
  5  6  1  0
  6  7  1  0
  7  8  1  0
  8  9  2  0
  8 10  1  0
 10 11  1  0
 11 12  1  0
  4 13  1  0
 13 14  1  0
 13 15  2  0
 15 16  1  0
 16 17  2  0
 16 18  1  0
 18 19  1  0
 19 20  1  0
 20 21  1  0
 21 22  1  0
 22 23  1  0
 15  2  1  0
 23 18  1  0
 11  6  2  0
  1 24  1  0
  1 25  1  0
  3 26  1  0
  5 27  1  0
 12 28  1  0
 14 29  1  0
 14 30  1  0
 14 31  1  0
 19 32  1  0
 19 33  1  0
 20 34  1  0
 20 35  1  0
 22 36  1  0
 22 37  1  0
 23 38  1  0
 23 39  1  0
M  CHG  2   7  -1  10  -1
M  END
>  <UniqueID>  (34) 
34

>  <SMILES>  (34) 
C=c1[nH]c(=Cc2[n-]c(=O)[n-]c2O)c(C)c1C(=O)N1CCOCC1

>  <Energy>  (34) 
111.33274220698691

>  <Genealogy>  (34) 
C=c1[nH]c(=Cc2[n-]c(=O)[n-]c2O)c(C)c1C(=O)N1CCOCC1 (protonated)
C=c1[nH]c(=Cc2[n-]c(=O)[n-]c2O)c(C)c1C(=O)N1CCOCC1 (3D coordinates assigned)
C=c1[nH]c(=Cc2[n-]c(=O)[n-]c2O)c(C)c1C(=O)N1CCOCC1 (nonaromatic ring conformer: 111.33274220698691 kcal/mol)

>  <smiles>  (34) 
C=c1[nH]c(=Cc2[nH]c(=O)[nH]c2O)c(C)c1C(=O)N1CCOCC1

>  <score_type>  (34) 
oracle

>  <origin>  (34) 
adg

>  <m_score__min__energy>  (34) 
-12.5

>  <m_primary>  (34) 
energy

$$$$
34:0
     RDKit          3D

 52 55  0  0  0  0  0  0  0  0999 V2000
   55.8910   31.8480   52.0210 N   0  0  0  0  0  0  0  0  0  0  0  0
   56.4230   30.6980   52.6900 C   0  0  0  0  0  0  0  0  0  0  0  0
   55.6220   29.5530   52.8330 C   0  0  0  0  0  0  0  0  0  0  0  0
   56.1190   28.4180   53.4760 C   0  0  0  0  0  0  0  0  0  0  0  0
   57.4230   28.4110   53.9720 C   0  0  0  0  0  0  0  0  0  0  0  0
   58.2310   29.5430   53.8340 C   0  0  0  0  0  0  0  0  0  0  0  0
   57.7330   30.7050   53.2130 C   0  0  0  0  0  0  0  0  0  0  0  0
   58.5560   31.8710   53.0360 N   0  0  0  0  0  0  0  0  0  0  0  0
   58.5940   32.7340   51.8910 C   0  0  0  0  0  0  0  0  0  0  0  0
   58.2110   33.9330   51.9890 O   0  0  0  0  0  0  0  0  0  0  0  0
   59.0410   32.2080   50.5800 C   0  0  0  0  0  0  0  0  0  0  0  0
   60.0180   31.1980   50.5100 C   0  0  0  0  0  0  0  0  0  0  0  0
   60.4470   30.7100   49.2720 C   0  0  0  0  0  0  0  0  0  0  0  0
   59.9190   31.2340   48.0810 C   0  0  0  0  0  0  0  0  0  0  0  0
   60.3760   30.7080   46.7460 C   0  0  0  0  0  0  0  0  0  0  0  0
   59.3570   29.8130   46.1700 N   0  0  0  0  0  0  0  0  0  0  0  0
   59.3050   28.5170   46.6100 C   0  0  0  0  0  0  0  0  0  0  0  0
   58.3540   27.6180   46.1040 C   0  0  0  0  0  0  0  0  0  0  0  0
   58.2980   26.2240   46.6040 C   0  0  0  0  0  0  0  0  0  0  0  0
   59.3620   25.5520   46.6700 O   0  0  0  0  0  0  0  0  0  0  0  0
   57.0810   25.6320   47.0870 N   0  0  0  0  0  0  0  0  0  0  0  0
   56.2900   24.8440   46.4150 C   0  0  0  0  0  0  0  0  0  0  0  0
   56.5790   23.5180   46.2690 N   0  0  0  0  0  0  0  0  0  0  0  0
   55.7590   22.6730   45.5870 C   0  0  0  0  0  0  0  0  0  0  0  0
   54.5780   23.1530   45.0190 C   0  0  0  0  0  0  0  0  0  0  0  0
   54.2510   24.5030   45.1610 C   0  0  0  0  0  0  0  0  0  0  0  0
   55.1060   25.3570   45.8630 C   0  0  0  0  0  0  0  0  0  0  0  0
   54.7780   26.7000   46.0060 O   0  0  0  0  0  0  0  0  0  0  0  0
   57.4350   28.0790   45.1530 C   0  0  0  0  0  0  0  0  0  0  0  0
   57.4870   29.4000   44.7130 C   0  0  0  0  0  0  0  0  0  0  0  0
   56.3240   29.9580   43.5160 Cl  0  0  0  0  0  0  0  0  0  0  0  0
   58.4590   30.2660   45.2340 C   0  0  0  0  0  0  0  0  0  0  0  0
   58.4960   31.4630   44.8340 O   0  0  0  0  0  0  0  0  0  0  0  0
   58.9410   32.2380   48.1460 C   0  0  0  0  0  0  0  0  0  0  0  0
   58.5040   32.7190   49.3840 C   0  0  0  0  0  0  0  0  0  0  0  0
   56.3920   32.7640   52.0230 H   0  0  0  0  0  0  0  0  0  0  0  0
   54.9830   31.7920   51.5060 H   0  0  0  0  0  0  0  0  0  0  0  0
   54.5963   29.5507   52.4357 H   0  0  0  0  0  0  0  0  0  0  0  0
   55.4821   27.5286   53.5917 H   0  0  0  0  0  0  0  0  0  0  0  0
   57.8156   27.5135   54.4723 H   0  0  0  0  0  0  0  0  0  0  0  0
   59.2635   29.5263   54.2132 H   0  0  0  0  0  0  0  0  0  0  0  0
   60.4476   30.7891   51.4364 H   0  0  0  0  0  0  0  0  0  0  0  0
   61.2022   29.9113   49.2307 H   0  0  0  0  0  0  0  0  0  0  0  0
   60.5446   31.5529   46.0620 H   0  0  0  0  0  0  0  0  0  0  0  0
   61.3092   30.1427   46.8859 H   0  0  0  0  0  0  0  0  0  0  0  0
   60.0205   28.1754   47.3725 H   0  0  0  0  0  0  0  0  0  0  0  0
   56.0270   21.6112   45.4833 H   0  0  0  0  0  0  0  0  0  0  0  0
   53.9119   22.4750   44.4653 H   0  0  0  0  0  0  0  0  0  0  0  0
   53.3217   24.8938   44.7209 H   0  0  0  0  0  0  0  0  0  0  0  0
   56.6706   27.3968   44.7526 H   0  0  0  0  0  0  0  0  0  0  0  0
   58.5159   32.6488   47.2183 H   0  0  0  0  0  0  0  0  0  0  0  0
   57.7339   33.5035   49.4233 H   0  0  0  0  0  0  0  0  0  0  0  0
  1  2  1  0
  2  3  2  0
  3  4  1  0
  4  5  2  0
  5  6  1  0
  6  7  2  0
  7  8  1  0
  8  9  1  0
  9 10  2  0
  9 11  1  0
 11 12  2  0
 12 13  1  0
 13 14  2  0
 14 15  1  0
 15 16  1  0
 16 17  1  0
 17 18  2  0
 18 19  1  0
 19 20  2  0
 19 21  1  0
 21 22  2  3
 22 23  1  0
 23 24  1  0
 24 25  2  0
 25 26  1  0
 26 27  2  0
 27 28  1  0
 18 29  1  0
 29 30  2  0
 30 31  1  0
 30 32  1  0
 32 33  2  0
 14 34  1  0
 34 35  2  0
  7  2  1  0
 35 11  1  0
 32 16  1  0
 27 22  1  0
  1 36  1  0
  1 37  1  0
  3 38  1  0
  4 39  1  0
  5 40  1  0
  6 41  1  0
 12 42  1  0
 13 43  1  0
 15 44  1  0
 15 45  1  0
 17 46  1  0
 24 47  1  0
 25 48  1  0
 26 49  1  0
 29 50  1  0
 34 51  1  0
 35 52  1  0
M  CHG  3   8  -1  23  -1  28  -1
M  END
>  <UniqueID>  (35) 
35

>  <SMILES>  (35) 
Nc1ccccc1[N-]C(=O)c1ccc(Cn2cc(C(=O)N=c3[n-]cccc3[O-])cc(Cl)c2=O)cc1

>  <Energy>  (35) 
72.72818134390195

>  <Genealogy>  (35) 
Nc1ccccc1[N-]C(=O)c1ccc(Cn2cc(C(=O)N=c3[n-]cccc3[O-])cc(Cl)c2=O)cc1 (protonated)
Nc1ccccc1[N-]C(=O)c1ccc(Cn2cc(C(=O)N=c3[n-]cccc3[O-])cc(Cl)c2=O)cc1 (3D coordinates assigned)
Nc1ccccc1[N-]C(=O)c1ccc(Cn2cc(C(=O)N=c3[n-]cccc3[O-])cc(Cl)c2=O)cc1 (optimized conformer: 72.72818134390195 kcal/mol)

>  <smiles>  (35) 
Nc1ccccc1NC(=O)c1ccc(Cn2cc(C(=O)N=c3[nH]cccc3O)cc(Cl)c2=O)cc1

>  <score_type>  (35) 
oracle

>  <origin>  (35) 
adg

>  <m_score__min__energy>  (35) 
-14.75

>  <m_primary>  (35) 
energy

$$$$
35:0
     RDKit          3D

 46 48  0  0  0  0  0  0  0  0999 V2000
   50.5910   33.5900   51.9980 O   0  0  0  0  0  0  0  0  0  0  0  0
   51.1510   32.3320   52.1860 C   0  0  0  0  0  0  0  0  0  0  0  0
   51.0680   31.7090   53.4350 C   0  0  0  0  0  0  0  0  0  0  0  0
   51.6320   30.4440   53.6260 C   0  0  0  0  0  0  0  0  0  0  0  0
   52.2860   29.7910   52.5670 C   0  0  0  0  0  0  0  0  0  0  0  0
   52.9180   28.4390   52.7740 C   0  0  0  0  0  0  0  0  0  0  0  0
   54.2880   28.5800   53.3950 C   0  0  0  0  0  0  0  0  0  0  0  0
   55.2520   29.3720   52.7500 C   0  0  0  0  0  0  0  0  0  0  0  0
   56.5260   29.5820   53.3100 C   0  0  0  0  0  0  0  0  0  0  0  0
   57.5230   30.4310   52.5290 C   0  0  1  0  0  0  0  0  0  0  0  0
   57.4510   30.0530   51.1610 O   0  0  0  0  0  0  0  0  0  0  0  0
   58.4810   30.6220   50.3630 C   0  0  2  0  0  0  0  0  0  0  0  0
   59.8280   29.8740   50.5100 C   0  0  0  0  0  0  0  0  0  0  0  0
   60.8670   30.7220   50.9020 O   0  0  0  0  0  0  0  0  0  0  0  0
   58.5180   32.1760   50.4460 C   0  0  2  0  0  0  0  0  0  0  0  0
   59.6090   32.7230   49.7460 O   0  0  0  0  0  0  0  0  0  0  0  0
   58.4130   32.7260   51.8870 C   0  0  2  0  0  0  0  0  0  0  0  0
   59.6510   32.6310   52.5460 O   0  0  0  0  0  0  0  0  0  0  0  0
   57.3340   31.9650   52.6800 C   0  0  1  0  0  0  0  0  0  0  0  0
   56.0440   32.3800   52.2930 O   0  0  0  0  0  0  0  0  0  0  0  0
   56.8370   28.9370   54.5250 C   0  0  0  0  0  0  0  0  0  0  0  0
   55.8840   28.1520   55.1750 C   0  0  0  0  0  0  0  0  0  0  0  0
   54.6110   27.9740   54.6280 C   0  0  0  0  0  0  0  0  0  0  0  0
   53.4630   26.9740   55.5100 Cl  0  0  0  0  0  0  0  0  0  0  0  0
   52.3640   30.4240   51.3150 C   0  0  0  0  0  0  0  0  0  0  0  0
   51.7990   31.6890   51.1270 C   0  0  0  0  0  0  0  0  0  0  0  0
   50.5583   32.2147   54.2684 H   0  0  0  0  0  0  0  0  0  0  0  0
   51.5636   29.9573   54.6101 H   0  0  0  0  0  0  0  0  0  0  0  0
   52.2795   27.8400   53.4399 H   0  0  0  0  0  0  0  0  0  0  0  0
   53.0214   27.9434   51.7974 H   0  0  0  0  0  0  0  0  0  0  0  0
   55.0056   29.8389   51.7850 H   0  0  0  0  0  0  0  0  0  0  0  0
   58.5178   30.2324   52.9542 H   0  0  0  0  0  0  0  0  0  0  0  0
   58.2284   30.4510   49.3062 H   0  0  0  0  0  0  0  0  0  0  0  0
   59.7126   29.0834   51.2661 H   0  0  0  0  0  0  0  0  0  0  0  0
   60.0888   29.4555   49.5267 H   0  0  0  0  0  0  0  0  0  0  0  0
   60.4390   31.4980   51.3500 H   0  0  0  0  0  0  0  0  0  0  0  0
   57.6041   32.5152   49.9364 H   0  0  0  0  0  0  0  0  0  0  0  0
   60.3850   32.7690   50.3620 H   0  0  0  0  0  0  0  0  0  0  0  0
   58.1263   33.7863   51.8274 H   0  0  0  0  0  0  0  0  0  0  0  0
   60.3540   32.6620   51.8460 H   0  0  0  0  0  0  0  0  0  0  0  0
   57.4461   32.2049   53.7477 H   0  0  0  0  0  0  0  0  0  0  0  0
   55.8350   31.9710   51.4140 H   0  0  0  0  0  0  0  0  0  0  0  0
   57.8389   29.0537   54.9638 H   0  0  0  0  0  0  0  0  0  0  0  0
   56.1381   27.6676   56.1294 H   0  0  0  0  0  0  0  0  0  0  0  0
   52.8721   29.9218   50.4786 H   0  0  0  0  0  0  0  0  0  0  0  0
   51.8644   32.1791   50.1444 H   0  0  0  0  0  0  0  0  0  0  0  0
  1  2  1  0
  2  3  2  0
  3  4  1  0
  4  5  2  0
  5  6  1  0
  6  7  1  0
  7  8  2  0
  8  9  1  0
  9 10  1  0
 10 11  1  0
 11 12  1  0
 12 13  1  0
 13 14  1  0
 12 15  1  0
 15 16  1  0
 15 17  1  0
 17 18  1  0
 17 19  1  0
 19 20  1  0
  9 21  2  0
 21 22  1  0
 22 23  2  0
 23 24  1  0
  5 25  1  0
 25 26  2  0
 26  2  1  0
 23  7  1  0
 19 10  1  0
  3 27  1  0
  4 28  1  0
  6 29  1  0
  6 30  1  0
  8 31  1  0
 10 32  1  1
 12 33  1  6
 13 34  1  0
 13 35  1  0
 14 36  1  0
 15 37  1  6
 16 38  1  0
 17 39  1  6
 18 40  1  0
 19 41  1  1
 20 42  1  0
 21 43  1  0
 22 44  1  0
 25 45  1  0
 26 46  1  0
M  CHG  1   1  -1
M  END
>  <UniqueID>  (36) 
36

>  <SMILES>  (36) 
[O-]c1ccc(Cc2cc([C@H]3O[C@H](CO)C(O)C(O)C3O)ccc2Cl)cc1

>  <Energy>  (36) 
63.608764618653446

>  <Genealogy>  (36) 
[O-]c1ccc(Cc2cc(C3OC(CO)C(O)C(O)C3O)ccc2Cl)cc1 (protonated)
[O-]c1ccc(Cc2cc([C@H]3O[C@H](CO)C(O)C(O)C3O)ccc2Cl)cc1 (chirality)
[O-]c1ccc(Cc2cc([C@H]3O[C@H](CO)C(O)C(O)C3O)ccc2Cl)cc1 (3D coordinates assigned)
[O-]c1ccc(Cc2cc([C@H]3O[C@H](CO)C(O)C(O)C3O)ccc2Cl)cc1 (nonaromatic ring conformer: 63.608764618653446 kcal/mol)

>  <smiles>  (36) 
OCC1OC(c2ccc(Cl)c(Cc3ccc(O)cc3)c2)C(O)C(O)C1O

>  <score_type>  (36) 
oracle

>  <origin>  (36) 
adg

>  <m_score__min__energy>  (36) 
-9.9499999999999993

>  <m_primary>  (36) 
energy

$$$$
36:0
     RDKit          3D

 50 52  0  0  0  0  0  0  0  0999 V2000
   58.1230   33.4740   47.3700 C   0  0  0  0  0  0  0  0  0  0  0  0
   58.5920   33.6310   45.9900 N   0  0  0  0  0  0  0  0  0  0  0  0
   59.5370   34.7080   45.6730 C   0  0  0  0  0  0  0  0  0  0  0  0
   58.0750   32.7820   44.9370 C   0  0  0  0  0  0  0  0  0  0  0  0
   58.2610   33.1230   43.5830 C   0  0  0  0  0  0  0  0  0  0  0  0
   57.8230   32.2690   42.5690 C   0  0  0  0  0  0  0  0  0  0  0  0
   57.1950   31.0640   42.8870 C   0  0  0  0  0  0  0  0  0  0  0  0
   56.9810   30.7130   44.2260 C   0  0  0  0  0  0  0  0  0  0  0  0
   56.3580   29.4170   44.5650 C   0  0  0  0  0  0  0  0  0  0  0  0
   55.1340   29.3740   44.8580 O   0  0  0  0  0  0  0  0  0  0  0  0
   57.1110   28.1960   44.5460 N   0  0  0  0  0  0  0  0  0  0  0  0
   58.0490   27.7880   45.5550 C   0  0  0  0  0  0  0  0  0  0  0  0
   58.6230   26.5140   45.4820 C   0  0  0  0  0  0  0  0  0  0  0  0
   59.5290   26.0920   46.4600 C   0  0  0  0  0  0  0  0  0  0  0  0
   59.8690   26.9400   47.5170 C   0  0  0  0  0  0  0  0  0  0  0  0
   59.3030   28.2210   47.6060 C   0  0  0  0  0  0  0  0  0  0  0  0
   59.6550   29.0880   48.6970 N   0  0  0  0  0  0  0  0  0  0  0  0
   59.8960   30.4940   48.5210 C   0  0  0  0  0  0  0  0  0  0  0  0
   60.3500   30.9080   47.4190 O   0  0  0  0  0  0  0  0  0  0  0  0
   59.6420   31.4630   49.6150 C   0  0  0  0  0  0  0  0  0  0  0  0
   60.4610   32.5960   49.7540 C   0  0  0  0  0  0  0  0  0  0  0  0
   60.2210   33.5260   50.7640 C   0  0  0  0  0  0  0  0  0  0  0  0
   59.1570   33.3490   51.6520 C   0  0  0  0  0  0  0  0  0  0  0  0
   58.9120   34.5680   52.9000 Cl  0  0  0  0  0  0  0  0  0  0  0  0
   58.3110   32.2240   51.5300 C   0  0  0  0  0  0  0  0  0  0  0  0
   57.1480   32.0280   52.4780 C   0  0  0  0  0  0  0  0  0  0  0  0
   56.4850   30.8550   52.1620 F   0  0  0  0  0  0  0  0  0  0  0  0
   57.5630   31.9490   53.7970 F   0  0  0  0  0  0  0  0  0  0  0  0
   56.2700   33.0900   52.3650 F   0  0  0  0  0  0  0  0  0  0  0  0
   58.5630   31.2910   50.5020 C   0  0  0  0  0  0  0  0  0  0  0  0
   58.3640   28.6220   46.6410 C   0  0  0  0  0  0  0  0  0  0  0  0
   57.4080   31.5790   45.2460 C   0  0  0  0  0  0  0  0  0  0  0  0
   58.9315   33.7446   48.0651 H   0  0  0  0  0  0  0  0  0  0  0  0
   57.2577   34.1315   47.5402 H   0  0  0  0  0  0  0  0  0  0  0  0
   57.8279   32.4281   47.5402 H   0  0  0  0  0  0  0  0  0  0  0  0
   59.9209   35.1455   46.6064 H   0  0  0  0  0  0  0  0  0  0  0  0
   60.3743   34.3005   45.0875 H   0  0  0  0  0  0  0  0  0  0  0  0
   59.0241   35.4853   45.0875 H   0  0  0  0  0  0  0  0  0  0  0  0
   58.7556   34.0703   43.3223 H   0  0  0  0  0  0  0  0  0  0  0  0
   57.9735   32.5470   41.5154 H   0  0  0  0  0  0  0  0  0  0  0  0
   56.8671   30.3878   42.0837 H   0  0  0  0  0  0  0  0  0  0  0  0
   58.3605   25.8417   44.6519 H   0  0  0  0  0  0  0  0  0  0  0  0
   59.9756   25.0887   46.3969 H   0  0  0  0  0  0  0  0  0  0  0  0
   60.5831   26.6022   48.2824 H   0  0  0  0  0  0  0  0  0  0  0  0
   59.8420   28.6610   49.6330 H   0  0  0  0  0  0  0  0  0  0  0  0
   61.2996   32.7506   49.0591 H   0  0  0  0  0  0  0  0  0  0  0  0
   60.8740   34.4057   50.8627 H   0  0  0  0  0  0  0  0  0  0  0  0
   57.9059   30.4157   50.3922 H   0  0  0  0  0  0  0  0  0  0  0  0
   57.8698   29.6000   46.7367 H   0  0  0  0  0  0  0  0  0  0  0  0
   57.2200   31.3157   46.2973 H   0  0  0  0  0  0  0  0  0  0  0  0
  1  2  1  0
  2  3  1  0
  2  4  1  0
  4  5  2  0
  5  6  1  0
  6  7  2  0
  7  8  1  0
  8  9  1  0
  9 10  2  0
  9 11  1  0
 11 12  1  0
 12 13  2  0
 13 14  1  0
 14 15  2  0
 15 16  1  0
 16 17  1  0
 17 18  1  0
 18 19  2  0
 18 20  1  0
 20 21  2  0
 21 22  1  0
 22 23  2  0
 23 24  1  0
 23 25  1  0
 25 26  1  0
 26 27  1  0
 26 28  1  0
 26 29  1  0
 25 30  2  0
 16 31  2  0
  8 32  2  0
 32  4  1  0
 31 12  1  0
 30 20  1  0
  1 33  1  0
  1 34  1  0
  1 35  1  0
  3 36  1  0
  3 37  1  0
  3 38  1  0
  5 39  1  0
  6 40  1  0
  7 41  1  0
 13 42  1  0
 14 43  1  0
 15 44  1  0
 17 45  1  0
 21 46  1  0
 22 47  1  0
 30 48  1  0
 31 49  1  0
 32 50  1  0
M  CHG  1  11  -1
M  END
>  <UniqueID>  (37) 
37

>  <SMILES>  (37) 
CN(C)c1cccc(C(=O)[N-]c2cccc(NC(=O)c3ccc(Cl)c(C(F)(F)F)c3)c2)c1

>  <Energy>  (37) 
66.9367314572219

>  <Genealogy>  (37) 
CN(C)c1cccc(C(=O)[N-]c2cccc(NC(=O)c3ccc(Cl)c(C(F)(F)F)c3)c2)c1 (protonated)
CN(C)c1cccc(C(=O)[N-]c2cccc(NC(=O)c3ccc(Cl)c(C(F)(F)F)c3)c2)c1 (3D coordinates assigned)
CN(C)c1cccc(C(=O)[N-]c2cccc(NC(=O)c3ccc(Cl)c(C(F)(F)F)c3)c2)c1 (optimized conformer: 66.9367314572219 kcal/mol)

>  <smiles>  (37) 
CN(C)c1cccc(C(=O)Nc2cccc(NC(=O)c3ccc(Cl)c(C(F)(F)F)c3)c2)c1

>  <score_type>  (37) 
oracle

>  <origin>  (37) 
adg

>  <m_score__min__energy>  (37) 
-10.91

>  <m_primary>  (37) 
energy

$$$$
37:0
     RDKit          3D

 55 58  0  0  0  0  0  0  0  0999 V2000
   56.2760   27.4780   45.8500 N   0  0  0  0  0  0  0  0  0  0  0  0
   57.6500   28.5340   45.7740 S   0  0  0  0  0  0  0  0  0  0  0  0
   58.9050   27.7150   45.5760 O   0  0  0  0  0  0  0  0  0  0  0  0
   57.7710   29.2630   47.0760 O   0  0  0  0  0  0  0  0  0  0  0  0
   57.4560   29.6990   44.4430 C   0  0  0  0  0  0  0  0  0  0  0  0
   56.7750   29.2770   43.2920 C   0  0  0  0  0  0  0  0  0  0  0  0
   56.5700   30.1530   42.2320 C   0  0  0  0  0  0  0  0  0  0  0  0
   57.0380   31.4650   42.3090 C   0  0  0  0  0  0  0  0  0  0  0  0
   57.7300   31.9010   43.4380 C   0  0  0  0  0  0  0  0  0  0  0  0
   57.9660   31.0240   44.5030 C   0  0  0  0  0  0  0  0  0  0  0  0
   58.7550   31.5090   45.6510 C   0  0  0  0  0  0  0  0  0  0  0  0
   59.9330   30.8530   46.0210 C   0  0  0  0  0  0  0  0  0  0  0  0
   60.6990   31.3180   47.1040 C   0  0  0  0  0  0  0  0  0  0  0  0
   60.2880   32.4500   47.8320 C   0  0  0  0  0  0  0  0  0  0  0  0
   61.1260   32.9660   48.9480 C   0  0  0  0  0  0  0  0  0  0  0  0
   61.9610   33.8810   48.7240 O   0  0  0  0  0  0  0  0  0  0  0  0
   60.9880   32.4770   50.2900 N   0  0  0  0  0  0  0  0  0  0  0  0
   60.0050   31.5260   50.7260 C   0  0  0  0  0  0  0  0  0  0  0  0
   60.1920   30.1460   50.5440 C   0  0  0  0  0  0  0  0  0  0  0  0
   59.2110   29.2420   50.9620 C   0  0  0  0  0  0  0  0  0  0  0  0
   58.0340   29.7100   51.5530 C   0  0  0  0  0  0  0  0  0  0  0  0
   57.8420   31.0840   51.7460 C   0  0  0  0  0  0  0  0  0  0  0  0
   56.3240   31.6660   52.4230 S   0  0  0  0  0  0  0  0  0  0  0  0
   56.2590   33.1700   52.3610 O   0  0  0  0  0  0  0  0  0  0  0  0
   56.2400   31.2280   53.8660 O   0  0  0  0  0  0  0  0  0  0  0  0
   54.9880   30.9790   51.5530 N   0  0  0  0  0  0  0  0  0  0  0  0
   54.1180   29.9690   52.1020 C   0  0  0  0  0  0  0  0  0  0  0  0
   54.6370   28.9760   52.9620 C   0  0  0  0  0  0  0  0  0  0  0  0
   53.7940   28.0140   53.5340 C   0  0  0  0  0  0  0  0  0  0  0  0
   52.4190   28.0450   53.2730 C   0  0  0  0  0  0  0  0  0  0  0  0
   51.8810   29.0250   52.4200 C   0  0  0  0  0  0  0  0  0  0  0  0
   52.7220   29.9890   51.8100 C   0  0  0  0  0  0  0  0  0  0  0  0
   52.1220   31.0170   50.9100 C   0  0  0  0  0  0  0  0  0  0  0  0
   51.7500   30.7000   49.7410 O   0  0  0  0  0  0  0  0  0  0  0  0
   51.9460   32.3380   51.3320 O   0  0  0  0  0  0  0  0  0  0  0  0
   58.8390   31.9880   51.3490 C   0  0  0  0  0  0  0  0  0  0  0  0
   59.1030   33.1080   47.4470 C   0  0  0  0  0  0  0  0  0  0  0  0
   58.3350   32.6300   46.3800 C   0  0  0  0  0  0  0  0  0  0  0  0
   55.5300   27.9090   45.2600 H   0  0  0  0  0  0  0  0  0  0  0  0
   56.4001   28.2449   43.2273 H   0  0  0  0  0  0  0  0  0  0  0  0
   56.0383   29.8113   41.3317 H   0  0  0  0  0  0  0  0  0  0  0  0
   56.8601   32.1592   41.4745 H   0  0  0  0  0  0  0  0  0  0  0  0
   58.0920   32.9383   43.4920 H   0  0  0  0  0  0  0  0  0  0  0  0
   60.2629   29.9661   45.4602 H   0  0  0  0  0  0  0  0  0  0  0  0
   61.6248   30.7941   47.3840 H   0  0  0  0  0  0  0  0  0  0  0  0
   61.1133   29.7753   50.0710 H   0  0  0  0  0  0  0  0  0  0  0  0
   59.3655   28.1615   50.8257 H   0  0  0  0  0  0  0  0  0  0  0  0
   57.2568   28.9978   51.8672 H   0  0  0  0  0  0  0  0  0  0  0  0
   55.7140   28.9577   53.1850 H   0  0  0  0  0  0  0  0  0  0  0  0
   54.2125   27.2347   54.1879 H   0  0  0  0  0  0  0  0  0  0  0  0
   51.7565   27.2995   53.7372 H   0  0  0  0  0  0  0  0  0  0  0  0
   50.7987   29.0435   52.2246 H   0  0  0  0  0  0  0  0  0  0  0  0
   58.7041   33.0649   51.5280 H   0  0  0  0  0  0  0  0  0  0  0  0
   58.7784   34.0071   47.9913 H   0  0  0  0  0  0  0  0  0  0  0  0
   57.3963   33.1367   46.1116 H   0  0  0  0  0  0  0  0  0  0  0  0
  1  2  1  0
  2  3  2  0
  2  4  2  0
  2  5  1  0
  5  6  2  0
  6  7  1  0
  7  8  2  0
  8  9  1  0
  9 10  2  0
 10 11  1  0
 11 12  2  0
 12 13  1  0
 13 14  2  0
 14 15  1  0
 15 16  2  0
 15 17  1  0
 17 18  1  0
 18 19  2  0
 19 20  1  0
 20 21  2  0
 21 22  1  0
 22 23  1  0
 23 24  2  0
 23 25  2  0
 23 26  1  0
 26 27  1  0
 27 28  2  0
 28 29  1  0
 29 30  2  0
 30 31  1  0
 31 32  2  0
 32 33  1  0
 33 34  2  0
 33 35  1  0
 22 36  2  0
 14 37  1  0
 37 38  2  0
 10  5  1  0
 38 11  1  0
 36 18  1  0
 32 27  1  0
  1 39  1  0
  6 40  1  0
  7 41  1  0
  8 42  1  0
  9 43  1  0
 12 44  1  0
 13 45  1  0
 19 46  1  0
 20 47  1  0
 21 48  1  0
 28 49  1  0
 29 50  1  0
 30 51  1  0
 31 52  1  0
 36 53  1  0
 37 54  1  0
 38 55  1  0
M  CHG  4   1  -1  17  -1  26  -1  35  -1
M  END
>  <UniqueID>  (38) 
38

>  <SMILES>  (38) 
[NH-]S(=O)(=O)c1ccccc1-c1ccc(C(=O)[N-]c2cccc(S(=O)(=O)[N-]c3ccccc3C(=O)[O-])c2)cc1

>  <Energy>  (38) 
81.96529631028655

>  <Genealogy>  (38) 
[NH-]S(=O)(=O)c1ccccc1-c1ccc(C(=O)[N-]c2cccc(S(=O)(=O)[N-]c3ccccc3C(=O)[O-])c2)cc1 (protonated)
[NH-]S(=O)(=O)c1ccccc1-c1ccc(C(=O)[N-]c2cccc(S(=O)(=O)[N-]c3ccccc3C(=O)[O-])c2)cc1 (3D coordinates assigned)
[NH-]S(=O)(=O)c1ccccc1-c1ccc(C(=O)[N-]c2cccc(S(=O)(=O)[N-]c3ccccc3C(=O)[O-])c2)cc1 (optimized conformer: 81.96529631028655 kcal/mol)

>  <smiles>  (38) 
NS(=O)(=O)c1ccccc1-c1ccc(C(=O)Nc2cccc(S(=O)(=O)Nc3ccccc3C(=O)O)c2)cc1

>  <score_type>  (38) 
oracle

>  <origin>  (38) 
adg

>  <m_score__min__energy>  (38) 
-16.899999999999999

>  <m_primary>  (38) 
energy

$$$$
38:0
     RDKit          3D

 32 34  0  0  0  0  0  0  0  0999 V2000
   55.5570   21.1450   44.5240 N   0  0  0  0  0  0  0  0  0  0  0  0
   56.3230   22.3020   43.4930 S   0  0  0  0  0  0  0  0  0  0  0  0
   57.6830   21.7850   43.1140 O   0  0  0  0  0  0  0  0  0  0  0  0
   55.4990   22.4970   42.2530 O   0  0  0  0  0  0  0  0  0  0  0  0
   56.4810   23.8380   44.3390 C   0  0  0  0  0  0  0  0  0  0  0  0
   57.6180   24.6340   44.1410 C   0  0  0  0  0  0  0  0  0  0  0  0
   57.7510   25.8500   44.8180 C   0  0  0  0  0  0  0  0  0  0  0  0
   56.7560   26.2810   45.7020 C   0  0  0  0  0  0  0  0  0  0  0  0
   56.9260   27.5320   46.3800 N   0  0  0  0  0  0  0  0  0  0  0  0
   57.7540   28.4110   45.9830 N   0  0  0  0  0  0  0  0  0  0  0  0
   57.3310   29.6870   45.4910 C   0  0  0  0  0  0  0  0  0  0  0  0
   56.1330   29.9410   44.8420 C   0  0  0  0  0  0  0  0  0  0  0  0
   55.1530   28.9930   44.5640 O   0  0  0  0  0  0  0  0  0  0  0  0
   56.0150   31.2440   44.4960 N   0  0  0  0  0  0  0  0  0  0  0  0
   57.1570   31.8100   44.9380 C   0  0  0  0  0  0  0  0  0  0  0  0
   57.5110   33.1530   44.8170 C   0  0  0  0  0  0  0  0  0  0  0  0
   58.7500   33.5610   45.3430 C   0  0  0  0  0  0  0  0  0  0  0  0
   59.6030   32.6280   45.9710 C   0  0  0  0  0  0  0  0  0  0  0  0
   59.2250   31.2770   46.0810 C   0  0  0  0  0  0  0  0  0  0  0  0
   57.9880   30.8990   45.5510 C   0  0  0  0  0  0  0  0  0  0  0  0
   55.6190   25.4780   45.9060 C   0  0  0  0  0  0  0  0  0  0  0  0
   55.4860   24.2630   45.2290 C   0  0  0  0  0  0  0  0  0  0  0  0
   54.6170   21.5300   44.7700 H   0  0  0  0  0  0  0  0  0  0  0  0
   58.4075   24.3010   43.4512 H   0  0  0  0  0  0  0  0  0  0  0  0
   58.6436   26.4718   44.6546 H   0  0  0  0  0  0  0  0  0  0  0  0
   55.1480   28.0930   45.0310 H   0  0  0  0  0  0  0  0  0  0  0  0
   56.8407   33.8728   44.3244 H   0  0  0  0  0  0  0  0  0  0  0  0
   59.0564   34.6145   45.2644 H   0  0  0  0  0  0  0  0  0  0  0  0
   60.5700   32.9593   46.3773 H   0  0  0  0  0  0  0  0  0  0  0  0
   59.8821   30.5418   46.5686 H   0  0  0  0  0  0  0  0  0  0  0  0
   54.8323   25.8077   46.6006 H   0  0  0  0  0  0  0  0  0  0  0  0
   54.5965   23.6377   45.3955 H   0  0  0  0  0  0  0  0  0  0  0  0
  1  2  1  0
  2  3  2  0
  2  4  2  0
  2  5  1  0
  5  6  2  0
  6  7  1  0
  7  8  2  0
  8  9  1  0
  9 10  2  3
 10 11  1  0
 11 12  2  0
 12 13  1  0
 12 14  1  0
 14 15  1  0
 15 16  2  0
 16 17  1  0
 17 18  2  0
 18 19  1  0
 19 20  2  0
  8 21  1  0
 21 22  2  0
 22  5  1  0
 20 11  1  0
 20 15  1  0
  1 23  1  0
  6 24  1  0
  7 25  1  0
 13 26  1  0
 16 27  1  0
 17 28  1  0
 18 29  1  0
 19 30  1  0
 21 31  1  0
 22 32  1  0
M  CHG  2   1  -1  14  -1
M  END
>  <UniqueID>  (39) 
39

>  <SMILES>  (39) 
[NH-]S(=O)(=O)c1ccc(N=Nc2c(O)[n-]c3ccccc23)cc1

>  <Energy>  (39) 
68.63038275352271

>  <Genealogy>  (39) 
[NH-]S(=O)(=O)c1ccc(N=Nc2c(O)[n-]c3ccccc23)cc1 (protonated)
[NH-]S(=O)(=O)c1ccc(N=Nc2c(O)[n-]c3ccccc23)cc1 (3D coordinates assigned)
[NH-]S(=O)(=O)c1ccc(N=Nc2c(O)[n-]c3ccccc23)cc1 (optimized conformer: 68.63038275352271 kcal/mol)

>  <smiles>  (39) 
NS(=O)(=O)c1ccc(N=Nc2c(O)[nH]c3ccccc23)cc1

>  <score_type>  (39) 
oracle

>  <origin>  (39) 
adg

>  <m_score__min__energy>  (39) 
-11.380000000000001

>  <m_primary>  (39) 
energy

$$$$
39:0
     RDKit          3D

 74 77  0  0  0  0  0  0  0  0999 V2000
   57.5200   27.9740   46.1570 C   0  0  0  0  0  0  0  0  0  0  0  0
   56.9990   29.2840   45.9410 O   0  0  0  0  0  0  0  0  0  0  0  0
   57.0280   29.9630   44.7130 C   0  0  0  0  0  0  0  0  0  0  0  0
   56.5510   29.3630   43.5290 C   0  0  0  0  0  0  0  0  0  0  0  0
   56.5890   30.0580   42.3190 C   0  0  0  0  0  0  0  0  0  0  0  0
   57.1010   31.3550   42.2690 C   0  0  0  0  0  0  0  0  0  0  0  0
   57.5820   31.9620   43.4320 C   0  0  0  0  0  0  0  0  0  0  0  0
   57.5470   31.2790   44.6610 C   0  0  0  0  0  0  0  0  0  0  0  0
   58.0990   31.9650   45.8860 C   0  0  0  0  0  0  0  0  0  0  0  0
   57.2590   33.0570   46.2240 O   0  0  0  0  0  0  0  0  0  0  0  0
   57.6060   34.2150   45.4830 C   0  0  0  0  0  0  0  0  0  0  0  0
   59.1290   34.3950   45.3620 C   0  0  0  0  0  0  0  0  0  0  0  0
   59.7090   35.2970   46.4620 C   0  0  0  0  0  0  0  0  0  0  0  0
   60.6160   34.5760   47.3010 O   0  0  0  0  0  0  0  0  0  0  0  0
   60.2970   34.0110   48.5480 C   0  0  0  0  0  0  0  0  0  0  0  0
   61.0910   34.1960   49.6930 C   0  0  0  0  0  0  0  0  0  0  0  0
   60.7300   33.6090   50.9090 C   0  0  0  0  0  0  0  0  0  0  0  0
   59.5690   32.8170   51.0110 C   0  0  0  0  0  0  0  0  0  0  0  0
   59.1570   32.2060   52.2710 N   0  0  1  0  0  0  0  0  0  0  0  0
   57.7330   32.3620   52.4800 C   0  0  0  0  0  0  0  0  0  0  0  0
   57.2570   33.4730   52.6590 O   0  0  0  0  0  0  0  0  0  0  0  0
   56.8380   31.1550   52.5310 C   0  0  0  0  0  0  0  0  0  0  0  0
   57.2460   30.1940   51.5010 N   0  0  0  0  0  0  0  0  0  0  0  0
   58.6750   29.8200   51.5540 C   0  0  0  0  0  0  0  0  0  0  0  0
   59.5530   30.7750   52.4050 C   0  0  1  0  0  0  0  0  0  0  0  0
   61.0600   30.5320   52.1330 C   0  0  0  0  0  0  0  0  0  0  0  0
   61.2700   29.8060   50.9180 O   0  0  0  0  0  0  0  0  0  0  0  0
   61.5810   30.3470   49.6570 C   0  0  0  0  0  0  0  0  0  0  0  0
   62.6600   31.2400   49.6140 C   0  0  0  0  0  0  0  0  0  0  0  0
   63.0440   31.8450   48.4200 C   0  0  0  0  0  0  0  0  0  0  0  0
   62.3430   31.5830   47.2470 C   0  0  0  0  0  0  0  0  0  0  0  0
   61.2400   30.7080   47.2570 C   0  0  0  0  0  0  0  0  0  0  0  0
   60.5120   30.4320   46.0870 O   0  0  0  0  0  0  0  0  0  0  0  0
   60.6470   29.2490   45.3050 C   0  0  0  0  0  0  0  0  0  0  0  0
   60.8530   30.0840   48.4640 C   0  0  0  0  0  0  0  0  0  0  0  0
   59.6640   29.2190   48.4420 C   0  0  0  0  0  0  0  0  0  0  0  0
   58.5160   29.7150   48.5850 O   0  0  0  0  0  0  0  0  0  0  0  0
   58.7800   32.6410   49.8580 C   0  0  0  0  0  0  0  0  0  0  0  0
   59.1420   33.2300   48.6440 C   0  0  0  0  0  0  0  0  0  0  0  0
   57.5959   27.7832   47.2377 H   0  0  0  0  0  0  0  0  0  0  0  0
   56.8484   27.2323   45.7000 H   0  0  0  0  0  0  0  0  0  0  0  0
   58.5175   27.8962   45.7000 H   0  0  0  0  0  0  0  0  0  0  0  0
   56.1463   28.3406   43.5593 H   0  0  0  0  0  0  0  0  0  0  0  0
   56.2139   29.5813   41.4014 H   0  0  0  0  0  0  0  0  0  0  0  0
   57.1260   31.8998   41.3137 H   0  0  0  0  0  0  0  0  0  0  0  0
   57.9912   32.9820   43.3860 H   0  0  0  0  0  0  0  0  0  0  0  0
   58.1323   31.2527   46.7236 H   0  0  0  0  0  0  0  0  0  0  0  0
   59.1162   32.3295   45.6802 H   0  0  0  0  0  0  0  0  0  0  0  0
   57.1783   34.1303   44.4731 H   0  0  0  0  0  0  0  0  0  0  0  0
   57.2048   35.0892   46.0167 H   0  0  0  0  0  0  0  0  0  0  0  0
   59.6066   33.4064   45.4295 H   0  0  0  0  0  0  0  0  0  0  0  0
   59.3304   34.8791   44.3950 H   0  0  0  0  0  0  0  0  0  0  0  0
   60.2445   36.1354   45.9926 H   0  0  0  0  0  0  0  0  0  0  0  0
   58.8789   35.6644   47.0832 H   0  0  0  0  0  0  0  0  0  0  0  0
   62.0034   34.8074   49.6316 H   0  0  0  0  0  0  0  0  0  0  0  0
   61.3597   33.7672   51.7970 H   0  0  0  0  0  0  0  0  0  0  0  0
   59.6120   32.7220   53.0600 H   0  0  0  0  0  0  0  0  0  0  0  0
   56.9154   30.6839   53.5220 H   0  0  0  0  0  0  0  0  0  0  0  0
   55.7981   31.4643   52.3496 H   0  0  0  0  0  0  0  0  0  0  0  0
   56.6680   29.3290   51.6130 H   0  0  0  0  0  0  0  0  0  0  0  0
   58.7511   28.8093   51.9814 H   0  0  0  0  0  0  0  0  0  0  0  0
   59.0544   29.8775   50.5231 H   0  0  0  0  0  0  0  0  0  0  0  0
   59.3706   30.5313   53.4620 H   0  0  0  0  0  0  0  0  0  0  0  0
   61.5699   31.5039   52.0598 H   0  0  0  0  0  0  0  0  0  0  0  0
   61.4654   29.9346   52.9629 H   0  0  0  0  0  0  0  0  0  0  0  0
   63.2123   31.4666   50.5379 H   0  0  0  0  0  0  0  0  0  0  0  0
   63.9033   32.5315   48.4041 H   0  0  0  0  0  0  0  0  0  0  0  0
   62.6523   32.0622   46.3064 H   0  0  0  0  0  0  0  0  0  0  0  0
   60.7463   28.3789   45.9706 H   0  0  0  0  0  0  0  0  0  0  0  0
   59.7571   29.1255   44.6703 H   0  0  0  0  0  0  0  0  0  0  0  0
   61.5418   29.3292   44.6703 H   0  0  0  0  0  0  0  0  0  0  0  0
   59.7783   28.1342   48.3000 H   0  0  0  0  0  0  0  0  0  0  0  0
   57.8661   32.0314   49.9140 H   0  0  0  0  0  0  0  0  0  0  0  0
   58.5120   33.0776   47.7553 H   0  0  0  0  0  0  0  0  0  0  0  0
  1  2  1  0
  2  3  1  0
  3  4  2  0
  4  5  1  0
  5  6  2  0
  6  7  1  0
  7  8  2  0
  8  9  1  0
  9 10  1  0
 10 11  1  0
 11 12  1  0
 12 13  1  0
 13 14  1  0
 14 15  1  0
 15 16  2  0
 16 17  1  0
 17 18  2  0
 18 19  1  0
 19 20  1  0
 20 21  2  0
 20 22  1  0
 22 23  1  0
 23 24  1  0
 24 25  1  0
 25 26  1  0
 26 27  1  0
 27 28  1  0
 28 29  2  0
 29 30  1  0
 30 31  2  0
 31 32  1  0
 32 33  1  0
 33 34  1  0
 32 35  2  0
 35 36  1  0
 36 37  2  0
 18 38  1  0
 38 39  2  0
  8  3  1  0
 39 15  1  0
 25 19  1  0
 35 28  1  0
  1 40  1  0
  1 41  1  0
  1 42  1  0
  4 43  1  0
  5 44  1  0
  6 45  1  0
  7 46  1  0
  9 47  1  0
  9 48  1  0
 11 49  1  0
 11 50  1  0
 12 51  1  0
 12 52  1  0
 13 53  1  0
 13 54  1  0
 16 55  1  0
 17 56  1  0
 19 57  1  1
 22 58  1  0
 22 59  1  0
 23 60  1  0
 24 61  1  0
 24 62  1  0
 25 63  1  1
 26 64  1  0
 26 65  1  0
 29 66  1  0
 30 67  1  0
 31 68  1  0
 34 69  1  0
 34 70  1  0
 34 71  1  0
 36 72  1  0
 38 73  1  0
 39 74  1  0
M  CHG  1  19   1
M  END
>  <UniqueID>  (40) 
40

>  <SMILES>  (40) 
COc1ccccc1COCCCOc1ccc([N@H+]2C(=O)CNC[C@H]2COc2cccc(OC)c2C=O)cc1

>  <Energy>  (40) 
104.66885298757498

>  <Genealogy>  (40) 
COc1ccccc1COCCCOc1ccc([NH+]2C(=O)CNCC2COc2cccc(OC)c2C=O)cc1 (protonated)
COc1ccccc1COCCCOc1ccc([N@H+]2C(=O)CNC[C@H]2COc2cccc(OC)c2C=O)cc1 (chirality)
COc1ccccc1COCCCOc1ccc([N@H+]2C(=O)CNC[C@H]2COc2cccc(OC)c2C=O)cc1 (3D coordinates assigned)
COc1ccccc1COCCCOc1ccc([N@H+]2C(=O)CNC[C@H]2COc2cccc(OC)c2C=O)cc1 (nonaromatic ring conformer: 104.66885298757498 kcal/mol)

>  <smiles>  (40) 
COc1ccccc1COCCCOc1ccc(N2C(=O)CNCC2COc2cccc(OC)c2C=O)cc1

>  <score_type>  (40) 
oracle

>  <origin>  (40) 
adg

>  <m_score__min__energy>  (40) 
-7.4199999999999999

>  <m_primary>  (40) 
energy

$$$$
40:0
     RDKit          3D

 64 68  0  0  0  0  0  0  0  0999 V2000
   54.8170   27.0740   45.8290 H   0  0  0  0  0  0  0  0  0  0  0  0
   54.7540   26.0750   45.9570 O   0  0  0  0  0  0  0  0  0  0  0  0
   55.6420   25.1560   45.3970 C   0  0  0  0  0  0  0  0  0  0  0  0
   55.1570   24.1440   44.5260 C   0  0  0  0  0  0  0  0  0  0  0  0
   53.8080   24.0020   44.1410 O   0  0  0  0  0  0  0  0  0  0  0  0
   52.7730   23.2800   44.8130 C   0  0  0  0  0  0  0  0  0  0  0  0
   52.4836   22.4066   44.2102 H   0  0  0  0  0  0  0  0  0  0  0  0
   51.5720   24.2110   44.9990 C   0  0  0  0  0  0  0  0  0  0  0  0
   51.8837   25.0806   45.5962 H   0  0  0  0  0  0  0  0  0  0  0  0
   51.2213   24.5226   44.0041 H   0  0  0  0  0  0  0  0  0  0  0  0
   50.4060   23.4990   45.7210 C   0  0  0  0  0  0  0  0  0  0  0  0
   49.8830   24.2361   46.3480 H   0  0  0  0  0  0  0  0  0  0  0  0
   49.7543   23.0755   44.9426 H   0  0  0  0  0  0  0  0  0  0  0  0
   50.8400   22.3790   46.5800 N   0  0  0  0  0  0  0  0  0  0  0  0
   50.9290   21.5150   45.9950 H   0  0  0  0  0  0  0  0  0  0  0  0
   52.1310   22.6520   47.2230 C   0  0  0  0  0  0  0  0  0  0  0  0
   52.0597   23.5977   47.7803 H   0  0  0  0  0  0  0  0  0  0  0  0
   52.3635   21.8155   47.8985 H   0  0  0  0  0  0  0  0  0  0  0  0
   53.2670   22.7660   46.1860 C   0  0  0  0  0  0  0  0  0  0  0  0
   54.0258   23.4634   46.5705 H   0  0  0  0  0  0  0  0  0  0  0  0
   53.6805   21.7580   46.0341 H   0  0  0  0  0  0  0  0  0  0  0  0
   56.0490   23.1950   44.0160 C   0  0  0  0  0  0  0  0  0  0  0  0
   55.6747   22.4029   43.3507 H   0  0  0  0  0  0  0  0  0  0  0  0
   57.4030   23.2370   44.3370 C   0  0  0  0  0  0  0  0  0  0  0  0
   58.0886   22.4809   43.9267 H   0  0  0  0  0  0  0  0  0  0  0  0
   57.8900   24.2340   45.1760 C   0  0  0  0  0  0  0  0  0  0  0  0
   58.9616   24.2625   45.4227 H   0  0  0  0  0  0  0  0  0  0  0  0
   57.0280   25.2040   45.7110 C   0  0  0  0  0  0  0  0  0  0  0  0
   57.6000   26.2350   46.6580 C   0  0  0  0  0  0  0  0  0  0  0  0
   58.6604   26.0075   46.8418 H   0  0  0  0  0  0  0  0  0  0  0  0
   57.0336   26.2022   47.6004 H   0  0  0  0  0  0  0  0  0  0  0  0
   57.4860   27.6110   46.0750 C   0  0  0  0  0  0  0  0  0  0  0  0
   58.4590   28.5310   46.3020 N   0  0  0  0  0  0  0  0  0  0  0  0
   58.3750   29.7840   45.7870 C   0  0  0  0  0  0  0  0  0  0  0  0
   59.2940   30.6130   46.0170 O   0  0  0  0  0  0  0  0  0  0  0  0
   57.2810   30.1420   44.9900 C   0  0  0  0  0  0  0  0  0  0  0  0
   57.2270   31.4490   44.3950 N   0  0  0  0  0  0  0  0  0  0  0  0
   57.0040   32.5370   45.0310 N   0  0  0  0  0  0  0  0  0  0  0  0
   57.9530   33.2320   45.8590 C   0  0  0  0  0  0  0  0  0  0  0  0
   58.6670   34.3060   45.3170 C   0  0  0  0  0  0  0  0  0  0  0  0
   58.4943   34.6071   44.2732 H   0  0  0  0  0  0  0  0  0  0  0  0
   59.5970   34.9970   46.0940 C   0  0  0  0  0  0  0  0  0  0  0  0
   60.1642   35.8318   45.6565 H   0  0  0  0  0  0  0  0  0  0  0  0
   59.8110   34.6320   47.4280 C   0  0  0  0  0  0  0  0  0  0  0  0
   60.5581   35.1707   48.0294 H   0  0  0  0  0  0  0  0  0  0  0  0
   59.0760   33.5800   48.0040 C   0  0  0  0  0  0  0  0  0  0  0  0
   59.3040   33.1810   49.4180 C   0  0  0  0  0  0  0  0  0  0  0  0
   60.2390   33.8720   50.2130 C   0  0  0  0  0  0  0  0  0  0  0  0
   60.7954   34.7206   49.7884 H   0  0  0  0  0  0  0  0  0  0  0  0
   60.4650   33.4870   51.5380 C   0  0  0  0  0  0  0  0  0  0  0  0
   61.1991   34.0313   52.1502 H   0  0  0  0  0  0  0  0  0  0  0  0
   59.7600   32.4120   52.0860 C   0  0  0  0  0  0  0  0  0  0  0  0
   59.9379   32.1119   53.1292 H   0  0  0  0  0  0  0  0  0  0  0  0
   58.8310   31.7200   51.3100 C   0  0  0  0  0  0  0  0  0  0  0  0
   58.2775   30.8732   51.7420 H   0  0  0  0  0  0  0  0  0  0  0  0
   58.6010   32.1000   49.9830 C   0  0  0  0  0  0  0  0  0  0  0  0
   57.8658   31.5502   49.3771 H   0  0  0  0  0  0  0  0  0  0  0  0
   58.1310   32.8980   47.2150 C   0  0  0  0  0  0  0  0  0  0  0  0
   57.5254   32.0960   47.6623 H   0  0  0  0  0  0  0  0  0  0  0  0
   56.2630   29.1880   44.7960 C   0  0  0  0  0  0  0  0  0  0  0  0
   55.0640   29.5070   44.0830 N   0  0  0  0  0  0  0  0  0  0  0  0
   54.6380   28.8470   43.3960 H   0  0  0  0  0  0  0  0  0  0  0  0
   54.6380   30.4560   44.1800 H   0  0  0  0  0  0  0  0  0  0  0  0
   56.3990   27.9470   45.3320 N   0  0  0  0  0  0  0  0  0  0  0  0
  1  2  1  0
  2  3  1  0
  3  4  2  0
  4  5  1  0
  5  6  1  0
  6  7  1  0
  6  8  1  0
  8  9  1  0
  8 10  1  0
  8 11  1  0
 11 12  1  0
 11 13  1  0
 11 14  1  0
 14 15  1  0
 14 16  1  0
 16 17  1  0
 16 18  1  0
 16 19  1  0
 19 20  1  0
 19 21  1  0
  4 22  1  0
 22 23  1  0
 22 24  2  0
 24 25  1  0
 24 26  1  0
 26 27  1  0
 26 28  2  0
 28 29  1  0
 29 30  1  0
 29 31  1  0
 29 32  1  0
 32 33  2  0
 33 34  1  0
 34 35  2  0
 34 36  1  0
 36 37  1  0
 37 38  2  0
 38 39  1  0
 39 40  2  0
 40 41  1  0
 40 42  1  0
 42 43  1  0
 42 44  2  0
 44 45  1  0
 44 46  1  0
 46 47  1  0
 47 48  2  0
 48 49  1  0
 48 50  1  0
 50 51  1  0
 50 52  2  0
 52 53  1  0
 52 54  1  0
 54 55  1  0
 54 56  2  0
 56 57  1  0
 46 58  2  0
 58 59  1  0
 36 60  2  0
 60 61  1  0
 61 62  1  0
 61 63  1  0
 60 64  1  0
 28  3  1  0
 64 32  1  0
 19  6  1  0
 58 39  1  0
 56 47  1  0
M  CHG  1  64  -1
M  END
>  <UniqueID>  (41) 
41

>  <SMILES>  (41) 
Nc1[n-]c(Cc2cccc(OC3CCNCC3)c2O)nc(=O)c1/N=N\c1cccc(-c2ccccc2)c1

>  <Energy>  (41) 
98.4410557210428

>  <Genealogy>  (41) 
Nc1[n-]c(Cc2cccc(OC3CCNCC3)c2O)nc(=O)c1N=Nc1cccc(-c2ccccc2)c1 (protonated)
Nc1[n-]c(Cc2cccc(OC3CCNCC3)c2O)nc(=O)c1/N=N\c1cccc(-c2ccccc2)c1 (cis-trans isomerization)
Nc1[n-]c(Cc2cccc(OC3CCNCC3)c2O)nc(=O)c1/N=N\c1cccc(-c2ccccc2)c1 (3D coordinates assigned)
Nc1[n-]c(Cc2cccc(OC3CCNCC3)c2O)nc(=O)c1/N=N\c1cccc(-c2ccccc2)c1 (nonaromatic ring conformer: 98.4410557210428 kcal/mol)

>  <smiles>  (41) 
Nc1[nH]c(Cc2cccc(OC3CCNCC3)c2O)nc(=O)c1N=Nc1cccc(-c2ccccc2)c1

>  <score_type>  (41) 
oracle

>  <origin>  (41) 
adg

>  <m_score__min__energy>  (41) 
-14.07

>  <m_primary>  (41) 
energy

$$$$
41:0
     RDKit          3D

 54 56  0  0  0  0  0  0  0  0999 V2000
   56.6730   33.3960   45.2430 C   0  0  0  0  0  0  0  0  0  0  0  0
   57.8260   32.4520   45.5870 C   0  0  2  0  0  0  0  0  0  0  0  0
   59.1060   33.0900   45.2520 N   0  0  0  0  0  0  0  0  0  0  0  0
   59.6650   34.1230   46.5340 S   0  0  0  0  0  0  0  0  0  0  0  0
   60.6310   35.1350   45.9820 O   0  0  0  0  0  0  0  0  0  0  0  0
   58.4920   34.8570   47.1220 O   0  0  0  0  0  0  0  0  0  0  0  0
   60.4390   33.1690   47.7970 C   0  0  0  0  0  0  0  0  0  0  0  0
   60.5160   33.6540   49.1090 C   0  0  0  0  0  0  0  0  0  0  0  0
   61.1570   32.9040   50.1000 C   0  0  0  0  0  0  0  0  0  0  0  0
   61.7320   31.6570   49.7870 C   0  0  0  0  0  0  0  0  0  0  0  0
   62.3860   30.8630   50.7420 O   0  0  0  0  0  0  0  0  0  0  0  0
   61.7590   29.8830   51.5700 C   0  0  0  0  0  0  0  0  0  0  0  0
   60.6650   29.1800   50.8230 C   0  0  0  0  0  0  0  0  0  0  0  0
   59.5160   29.1130   51.3380 O   0  0  0  0  0  0  0  0  0  0  0  0
   60.9310   28.5780   49.5450 N   0  0  0  0  0  0  0  0  0  0  0  0
   59.9200   27.9930   48.7080 C   0  0  0  0  0  0  0  0  0  0  0  0
   59.9480   26.6130   48.4560 C   0  0  0  0  0  0  0  0  0  0  0  0
   58.9880   26.0240   47.6280 C   0  0  0  0  0  0  0  0  0  0  0  0
   57.9990   26.8110   47.0240 C   0  0  0  0  0  0  0  0  0  0  0  0
   56.7830   26.0690   45.9920 S   0  0  0  0  0  0  0  0  0  0  0  0
   55.5330   27.2150   45.6630 N   0  0  0  0  0  0  0  0  0  0  0  0
   56.1950   24.8690   46.6790 O   0  0  0  0  0  0  0  0  0  0  0  0
   57.4120   25.6260   44.7000 O   0  0  0  0  0  0  0  0  0  0  0  0
   57.9760   28.1930   47.2580 C   0  0  0  0  0  0  0  0  0  0  0  0
   58.9350   28.7830   48.0870 C   0  0  0  0  0  0  0  0  0  0  0  0
   61.6570   31.1830   48.4720 C   0  0  0  0  0  0  0  0  0  0  0  0
   61.0160   31.9330   47.4810 C   0  0  0  0  0  0  0  0  0  0  0  0
   57.6880   31.1600   44.8130 C   0  0  0  0  0  0  0  0  0  0  0  0
   56.5080   30.8680   44.1020 C   0  0  0  0  0  0  0  0  0  0  0  0
   56.3810   29.6620   43.4080 C   0  0  0  0  0  0  0  0  0  0  0  0
   57.4230   28.7310   43.4220 C   0  0  0  0  0  0  0  0  0  0  0  0
   58.5930   29.0050   44.1340 C   0  0  0  0  0  0  0  0  0  0  0  0
   58.7260   30.2110   44.8290 C   0  0  0  0  0  0  0  0  0  0  0  0
   56.2161   33.7701   46.1710 H   0  0  0  0  0  0  0  0  0  0  0  0
   57.0558   34.2434   44.6553 H   0  0  0  0  0  0  0  0  0  0  0  0
   55.9178   32.8535   44.6553 H   0  0  0  0  0  0  0  0  0  0  0  0
   57.7967   32.2316   46.6643 H   0  0  0  0  0  0  0  0  0  0  0  0
   60.0708   34.6279   49.3605 H   0  0  0  0  0  0  0  0  0  0  0  0
   61.2124   33.2897   51.1287 H   0  0  0  0  0  0  0  0  0  0  0  0
   62.5103   29.1455   51.8889 H   0  0  0  0  0  0  0  0  0  0  0  0
   61.3228   30.3862   52.4455 H   0  0  0  0  0  0  0  0  0  0  0  0
   61.9290   28.4600   49.2580 H   0  0  0  0  0  0  0  0  0  0  0  0
   60.7309   25.9902   48.9132 H   0  0  0  0  0  0  0  0  0  0  0  0
   59.0093   24.9387   47.4501 H   0  0  0  0  0  0  0  0  0  0  0  0
   54.7880   27.0700   46.3790 H   0  0  0  0  0  0  0  0  0  0  0  0
   57.2006   28.8156   46.7877 H   0  0  0  0  0  0  0  0  0  0  0  0
   58.9194   29.8701   48.2545 H   0  0  0  0  0  0  0  0  0  0  0  0
   62.1062   30.2121   48.2160 H   0  0  0  0  0  0  0  0  0  0  0  0
   60.9649   31.5510   46.4507 H   0  0  0  0  0  0  0  0  0  0  0  0
   55.6814   31.5937   44.0930 H   0  0  0  0  0  0  0  0  0  0  0  0
   55.4586   29.4449   42.8493 H   0  0  0  0  0  0  0  0  0  0  0  0
   57.3219   27.7833   42.8728 H   0  0  0  0  0  0  0  0  0  0  0  0
   59.4116   28.2704   44.1480 H   0  0  0  0  0  0  0  0  0  0  0  0
   59.6481   30.4188   45.3917 H   0  0  0  0  0  0  0  0  0  0  0  0
  1  2  1  0
  2  3  1  0
  3  4  1  0
  4  5  2  0
  4  6  2  0
  4  7  1  0
  7  8  2  0
  8  9  1  0
  9 10  2  0
 10 11  1  0
 11 12  1  0
 12 13  1  0
 13 14  2  0
 13 15  1  0
 15 16  1  0
 16 17  2  0
 17 18  1  0
 18 19  2  0
 19 20  1  0
 20 21  1  0
 20 22  2  0
 20 23  2  0
 19 24  1  0
 24 25  2  0
 10 26  1  0
 26 27  2  0
  2 28  1  0
 28 29  2  0
 29 30  1  0
 30 31  2  0
 31 32  1  0
 32 33  2  0
 27  7  1  0
 33 28  1  0
 25 16  1  0
  1 34  1  0
  1 35  1  0
  1 36  1  0
  2 37  1  1
  8 38  1  0
  9 39  1  0
 12 40  1  0
 12 41  1  0
 15 42  1  0
 17 43  1  0
 18 44  1  0
 21 45  1  0
 24 46  1  0
 25 47  1  0
 26 48  1  0
 27 49  1  0
 29 50  1  0
 30 51  1  0
 31 52  1  0
 32 53  1  0
 33 54  1  0
M  CHG  2   3  -1  21  -1
M  END
>  <UniqueID>  (42) 
42

>  <SMILES>  (42) 
C[C@H]([N-]S(=O)(=O)c1ccc(OCC(=O)Nc2ccc(S([NH-])(=O)=O)cc2)cc1)c1ccccc1

>  <Energy>  (42) 
56.69028324641414

>  <Genealogy>  (42) 
CC([N-]S(=O)(=O)c1ccc(OCC(=O)Nc2ccc(S([NH-])(=O)=O)cc2)cc1)c1ccccc1 (protonated)
C[C@H]([N-]S(=O)(=O)c1ccc(OCC(=O)Nc2ccc(S([NH-])(=O)=O)cc2)cc1)c1ccccc1 (chirality)
C[C@H]([N-]S(=O)(=O)c1ccc(OCC(=O)Nc2ccc(S([NH-])(=O)=O)cc2)cc1)c1ccccc1 (3D coordinates assigned)
C[C@H]([N-]S(=O)(=O)c1ccc(OCC(=O)Nc2ccc(S([NH-])(=O)=O)cc2)cc1)c1ccccc1 (optimized conformer: 56.69028324641414 kcal/mol)

>  <smiles>  (42) 
CC(NS(=O)(=O)c1ccc(OCC(=O)Nc2ccc(S(N)(=O)=O)cc2)cc1)c1ccccc1

>  <score_type>  (42) 
oracle

>  <origin>  (42) 
adg

>  <m_score__min__energy>  (42) 
-12.109999999999999

>  <m_primary>  (42) 
energy

$$$$
42:0
     RDKit          3D

 44 47  0  0  0  0  0  0  0  0999 V2000
   56.9710   18.9510   46.0010 C   0  0  0  0  0  0  0  0  0  0  0  0
   55.9390   19.6150   45.2770 O   0  0  0  0  0  0  0  0  0  0  0  0
   56.0110   20.9460   44.8380 C   0  0  0  0  0  0  0  0  0  0  0  0
   56.6220   21.2060   43.6070 C   0  0  0  0  0  0  0  0  0  0  0  0
   56.7050   22.5120   43.1190 C   0  0  0  0  0  0  0  0  0  0  0  0
   56.1880   23.5730   43.8650 C   0  0  0  0  0  0  0  0  0  0  0  0
   55.5950   23.3340   45.1170 C   0  0  0  0  0  0  0  0  0  0  0  0
   55.0380   24.3950   45.9050 N   0  0  0  0  0  0  0  0  0  0  0  0
   55.6990   25.6110   46.2740 C   0  0  0  0  0  0  0  0  0  0  0  0
   55.1510   26.7100   45.9950 O   0  0  0  0  0  0  0  0  0  0  0  0
   56.9580   25.5750   46.9600 N   0  0  0  0  0  0  0  0  0  0  0  0
   58.1060   26.3940   46.6990 C   0  0  0  0  0  0  0  0  0  0  0  0
   59.3900   25.8470   46.5300 C   0  0  0  0  0  0  0  0  0  0  0  0
   60.4750   26.6790   46.2480 C   0  0  0  0  0  0  0  0  0  0  0  0
   60.2910   28.0580   46.1160 C   0  0  0  0  0  0  0  0  0  0  0  0
   59.0100   28.6220   46.2570 C   0  0  0  0  0  0  0  0  0  0  0  0
   58.8080   30.0840   46.1010 C   0  0  0  0  0  0  0  0  0  0  0  0
   57.6560   30.5640   45.5550 N   0  0  0  0  0  0  0  0  0  0  0  0
   57.4410   31.8960   45.3980 C   0  0  0  0  0  0  0  0  0  0  0  0
   56.3580   32.2890   44.8880 O   0  0  0  0  0  0  0  0  0  0  0  0
   58.4230   32.8120   45.8060 C   0  0  0  0  0  0  0  0  0  0  0  0
   58.2620   34.2040   45.6740 C   0  0  0  0  0  0  0  0  0  0  0  0
   59.2760   35.0680   46.0990 C   0  0  0  0  0  0  0  0  0  0  0  0
   60.4520   34.5540   46.6550 C   0  0  0  0  0  0  0  0  0  0  0  0
   60.6190   33.1720   46.7910 C   0  0  0  0  0  0  0  0  0  0  0  0
   59.6100   32.2990   46.3690 C   0  0  0  0  0  0  0  0  0  0  0  0
   59.7710   30.9570   46.5020 N   0  0  0  0  0  0  0  0  0  0  0  0
   57.9220   27.7740   46.5410 C   0  0  0  0  0  0  0  0  0  0  0  0
   55.4900   22.0190   45.5870 C   0  0  0  0  0  0  0  0  0  0  0  0
   56.7934   19.0653   47.0805 H   0  0  0  0  0  0  0  0  0  0  0  0
   56.9722   17.8822   45.7407 H   0  0  0  0  0  0  0  0  0  0  0  0
   57.9441   19.3929   45.7407 H   0  0  0  0  0  0  0  0  0  0  0  0
   57.0402   20.3758   43.0189 H   0  0  0  0  0  0  0  0  0  0  0  0
   57.1786   22.7051   42.1451 H   0  0  0  0  0  0  0  0  0  0  0  0
   56.2449   24.5988   43.4719 H   0  0  0  0  0  0  0  0  0  0  0  0
   59.5401   24.7610   46.6202 H   0  0  0  0  0  0  0  0  0  0  0  0
   61.4796   26.2470   46.1291 H   0  0  0  0  0  0  0  0  0  0  0  0
   61.1531   28.7064   45.9005 H   0  0  0  0  0  0  0  0  0  0  0  0
   57.3388   34.6121   45.2367 H   0  0  0  0  0  0  0  0  0  0  0  0
   59.1484   36.1557   45.9957 H   0  0  0  0  0  0  0  0  0  0  0  0
   61.2472   35.2381   46.9860 H   0  0  0  0  0  0  0  0  0  0  0  0
   61.5444   32.7710   47.2301 H   0  0  0  0  0  0  0  0  0  0  0  0
   56.9132   28.2012   46.6402 H   0  0  0  0  0  0  0  0  0  0  0  0
   54.9961   21.8223   46.5500 H   0  0  0  0  0  0  0  0  0  0  0  0
  1  2  1  0
  2  3  1  0
  3  4  2  0
  4  5  1  0
  5  6  2  0
  6  7  1  0
  7  8  1  0
  8  9  1  0
  9 10  2  0
  9 11  1  0
 11 12  1  0
 12 13  2  0
 13 14  1  0
 14 15  2  0
 15 16  1  0
 16 17  1  0
 17 18  2  0
 18 19  1  0
 19 20  2  0
 19 21  1  0
 21 22  2  0
 22 23  1  0
 23 24  2  0
 24 25  1  0
 25 26  2  0
 26 27  1  0
 16 28  2  0
  7 29  2  0
 29  3  1  0
 28 12  1  0
 27 17  1  0
 26 21  1  0
  1 30  1  0
  1 31  1  0
  1 32  1  0
  4 33  1  0
  5 34  1  0
  6 35  1  0
 13 36  1  0
 14 37  1  0
 15 38  1  0
 22 39  1  0
 23 40  1  0
 24 41  1  0
 25 42  1  0
 28 43  1  0
 29 44  1  0
M  CHG  3   8  -1  11  -1  27  -1
M  END
>  <UniqueID>  (43) 
43

>  <SMILES>  (43) 
COc1cccc([N-]C(=O)[N-]c2cccc(-c3nc(=O)c4ccccc4[n-]3)c2)c1

>  <Energy>  (43) 
61.389707298813725

>  <Genealogy>  (43) 
COc1cccc([N-]C(=O)[N-]c2cccc(-c3nc(=O)c4ccccc4[n-]3)c2)c1 (protonated)
COc1cccc([N-]C(=O)[N-]c2cccc(-c3nc(=O)c4ccccc4[n-]3)c2)c1 (3D coordinates assigned)
COc1cccc([N-]C(=O)[N-]c2cccc(-c3nc(=O)c4ccccc4[n-]3)c2)c1 (optimized conformer: 61.389707298813725 kcal/mol)

>  <smiles>  (43) 
COc1cccc(NC(=O)Nc2cccc(-c3nc(=O)c4ccccc4[nH]3)c2)c1

>  <score_type>  (43) 
oracle

>  <origin>  (43) 
adg

>  <m_score__min__energy>  (43) 
-13.74

>  <m_primary>  (43) 
energy

$$$$
43:0
     RDKit          3D

 48 51  0  0  0  0  0  0  0  0999 V2000
   59.2740   31.5210   51.2440 C   0  0  0  0  0  0  0  0  0  0  0  0
   60.2250   30.6040   50.7130 O   0  0  0  0  0  0  0  0  0  0  0  0
   60.2560   30.1770   49.3750 C   0  0  0  0  0  0  0  0  0  0  0  0
   59.2580   29.3450   48.8330 C   0  0  0  0  0  0  0  0  0  0  0  0
   59.3130   28.9360   47.4890 C   0  0  0  0  0  0  0  0  0  0  0  0
   58.2480   28.0290   46.9130 C   0  0  2  0  0  0  0  0  0  0  0  0
   59.0090   26.4250   46.4210 S   0  0  0  0  0  0  0  0  0  0  0  0
   57.6960   25.6980   45.3700 C   0  0  0  0  0  0  0  0  0  0  0  0
   56.3120   25.8920   45.9100 C   0  0  0  0  0  0  0  0  0  0  0  0
   55.7670   24.9800   46.5870 O   0  0  0  0  0  0  0  0  0  0  0  0
   55.5840   27.0870   45.6200 N   0  0  0  0  0  0  0  0  0  0  0  0
   56.2650   28.3030   45.3110 C   0  0  0  0  0  0  0  0  0  0  0  0
   55.8300   29.3170   44.4970 C   0  0  0  0  0  0  0  0  0  0  0  0
   56.7550   30.2510   44.5130 O   0  0  0  0  0  0  0  0  0  0  0  0
   57.7530   29.9280   45.2900 N   0  0  0  0  0  0  0  0  0  0  0  0
   57.4830   28.7080   45.8000 C   0  0  0  0  0  0  0  0  0  0  0  0
   60.3870   29.3590   46.6930 C   0  0  0  0  0  0  0  0  0  0  0  0
   61.3800   30.1840   47.2220 C   0  0  0  0  0  0  0  0  0  0  0  0
   61.3190   30.6030   48.5650 C   0  0  0  0  0  0  0  0  0  0  0  0
   62.2960   31.4390   49.1350 O   0  0  0  0  0  0  0  0  0  0  0  0
   62.2370   32.8640   49.1930 C   0  0  0  0  0  0  0  0  0  0  0  0
   60.9570   33.3660   48.5920 C   0  0  0  0  0  0  0  0  0  0  0  0
   60.2210   34.1320   49.2700 O   0  0  0  0  0  0  0  0  0  0  0  0
   60.5710   32.9610   47.2680 N   0  0  0  0  0  0  0  0  0  0  0  0
   59.4360   33.4920   46.5640 C   0  0  0  0  0  0  0  0  0  0  0  0
   58.1580   32.9770   46.8340 C   0  0  0  0  0  0  0  0  0  0  0  0
   57.0400   33.4600   46.1480 C   0  0  0  0  0  0  0  0  0  0  0  0
   57.1910   34.4520   45.1760 C   0  0  0  0  0  0  0  0  0  0  0  0
   58.4610   34.9560   44.8830 C   0  0  0  0  0  0  0  0  0  0  0  0
   59.5820   34.4750   45.5680 C   0  0  0  0  0  0  0  0  0  0  0  0
   59.3075   31.4887   52.3430 H   0  0  0  0  0  0  0  0  0  0  0  0
   59.5133   32.5379   50.8996 H   0  0  0  0  0  0  0  0  0  0  0  0
   58.2665   31.2448   50.8996 H   0  0  0  0  0  0  0  0  0  0  0  0
   58.4249   29.0108   49.4689 H   0  0  0  0  0  0  0  0  0  0  0  0
   57.4931   27.8090   47.6822 H   0  0  0  0  0  0  0  0  0  0  0  0
   57.7490   26.1657   44.3758 H   0  0  0  0  0  0  0  0  0  0  0  0
   57.8772   24.6136   45.3356 H   0  0  0  0  0  0  0  0  0  0  0  0
   54.8843   29.3439   43.9358 H   0  0  0  0  0  0  0  0  0  0  0  0
   60.4472   29.0377   45.6427 H   0  0  0  0  0  0  0  0  0  0  0  0
   62.2162   30.5093   46.5857 H   0  0  0  0  0  0  0  0  0  0  0  0
   62.2933   33.1854   50.2435 H   0  0  0  0  0  0  0  0  0  0  0  0
   63.0819   33.2768   48.6222 H   0  0  0  0  0  0  0  0  0  0  0  0
   61.0840   32.1620   46.8320 H   0  0  0  0  0  0  0  0  0  0  0  0
   58.0357   32.1880   47.5906 H   0  0  0  0  0  0  0  0  0  0  0  0
   56.0409   33.0589   46.3736 H   0  0  0  0  0  0  0  0  0  0  0  0
   56.3100   34.8364   44.6412 H   0  0  0  0  0  0  0  0  0  0  0  0
   58.5795   35.7321   44.1126 H   0  0  0  0  0  0  0  0  0  0  0  0
   60.5812   34.8668   45.3270 H   0  0  0  0  0  0  0  0  0  0  0  0
  1  2  1  0
  2  3  1  0
  3  4  2  0
  4  5  1  0
  5  6  1  0
  6  7  1  0
  7  8  1  0
  8  9  1  0
  9 10  2  0
  9 11  1  0
 11 12  1  0
 12 13  2  0
 13 14  1  0
 14 15  1  0
 15 16  2  0
  5 17  2  0
 17 18  1  0
 18 19  2  0
 19 20  1  0
 20 21  1  0
 21 22  1  0
 22 23  2  0
 22 24  1  0
 24 25  1  0
 25 26  2  0
 26 27  1  0
 27 28  2  0
 28 29  1  0
 29 30  2  0
 19  3  1  0
 30 25  1  0
 16  6  1  0
 16 12  1  0
  1 31  1  0
  1 32  1  0
  1 33  1  0
  4 34  1  0
  6 35  1  1
  8 36  1  0
  8 37  1  0
 13 38  1  0
 17 39  1  0
 18 40  1  0
 21 41  1  0
 21 42  1  0
 24 43  1  0
 26 44  1  0
 27 45  1  0
 28 46  1  0
 29 47  1  0
 30 48  1  0
M  CHG  1  11  -1
M  END
>  <UniqueID>  (44) 
44

>  <SMILES>  (44) 
COc1cc([C@@H]2SCC(=O)[N-]c3conc32)ccc1OCC(=O)Nc1ccccc1

>  <Energy>  (44) 
95.47253323946633

>  <Genealogy>  (44) 
COc1cc(C2SCC(=O)[N-]c3conc32)ccc1OCC(=O)Nc1ccccc1 (protonated)
COc1cc([C@@H]2SCC(=O)[N-]c3conc32)ccc1OCC(=O)Nc1ccccc1 (chirality)
COc1cc([C@@H]2SCC(=O)[N-]c3conc32)ccc1OCC(=O)Nc1ccccc1 (3D coordinates assigned)
COc1cc([C@@H]2SCC(=O)[N-]c3conc32)ccc1OCC(=O)Nc1ccccc1 (nonaromatic ring conformer: 95.47253323946633 kcal/mol)

>  <smiles>  (44) 
COc1cc(C2SCC(=O)Nc3conc32)ccc1OCC(=O)Nc1ccccc1

>  <score_type>  (44) 
oracle

>  <origin>  (44) 
adg

>  <m_score__min__energy>  (44) 
-8.3000000000000007

>  <m_primary>  (44) 
energy

$$$$
44:0
     RDKit          3D

 42 44  0  0  0  0  0  0  0  0999 V2000
   58.0610   29.6330   43.8400 O   0  0  0  0  0  0  0  0  0  0  0  0
   57.0560   29.9210   44.5430 C   0  0  0  0  0  0  0  0  0  0  0  0
   56.5300   31.2480   44.4660 N   0  0  0  0  0  0  0  0  0  0  0  0
   57.3900   32.6750   44.9390 S   0  0  0  0  0  0  0  0  0  0  0  0
   56.4090   33.7720   45.2350 O   0  0  0  0  0  0  0  0  0  0  0  0
   58.2770   33.1070   43.8070 O   0  0  0  0  0  0  0  0  0  0  0  0
   58.3380   32.3410   46.3850 C   0  0  0  0  0  0  0  0  0  0  0  0
   58.3520   33.2500   47.4500 C   0  0  0  0  0  0  0  0  0  0  0  0
   59.1840   33.0290   48.5510 C   0  0  0  0  0  0  0  0  0  0  0  0
   60.0050   31.8880   48.6050 C   0  0  0  0  0  0  0  0  0  0  0  0
   60.9240   31.7020   49.6980 N   0  0  0  0  0  0  0  0  0  0  0  0
   62.2020   32.2750   49.3500 C   0  0  0  0  0  0  0  0  0  0  0  0
   63.3290   32.0400   50.1520 C   0  0  0  0  0  0  0  0  0  0  0  0
   64.5680   32.5520   49.7700 C   0  0  0  0  0  0  0  0  0  0  0  0
   64.6830   33.2690   48.6200 N   0  0  0  0  0  0  0  0  0  0  0  0
   63.6150   33.5080   47.8180 C   0  0  0  0  0  0  0  0  0  0  0  0
   63.7660   34.1670   46.7570 O   0  0  0  0  0  0  0  0  0  0  0  0
   62.3530   33.0180   48.1680 C   0  0  0  0  0  0  0  0  0  0  0  0
   59.9700   30.9700   47.5400 C   0  0  0  0  0  0  0  0  0  0  0  0
   59.1420   31.1950   46.4400 C   0  0  0  0  0  0  0  0  0  0  0  0
   56.4300   28.9140   45.3620 N   0  0  0  0  0  0  0  0  0  0  0  0
   56.9970   27.6110   45.6250 C   0  0  0  0  0  0  0  0  0  0  0  0
   58.3910   27.4120   45.6240 C   0  0  0  0  0  0  0  0  0  0  0  0
   58.9250   26.1580   45.9310 C   0  0  0  0  0  0  0  0  0  0  0  0
   58.0780   25.0910   46.2500 C   0  0  0  0  0  0  0  0  0  0  0  0
   56.6930   25.2840   46.2750 C   0  0  0  0  0  0  0  0  0  0  0  0
   56.1520   26.5370   45.9660 C   0  0  0  0  0  0  0  0  0  0  0  0
   54.7700   26.7090   45.9920 O   0  0  0  0  0  0  0  0  0  0  0  0
   57.7066   34.1402   47.4200 H   0  0  0  0  0  0  0  0  0  0  0  0
   59.1969   33.7516   49.3803 H   0  0  0  0  0  0  0  0  0  0  0  0
   61.0290   30.6800   49.9000 H   0  0  0  0  0  0  0  0  0  0  0  0
   60.5540   32.1450   50.5700 H   0  0  0  0  0  0  0  0  0  0  0  0
   63.2353   31.4542   51.0783 H   0  0  0  0  0  0  0  0  0  0  0  0
   65.4531   32.3760   50.3990 H   0  0  0  0  0  0  0  0  0  0  0  0
   61.4844   33.2132   47.5219 H   0  0  0  0  0  0  0  0  0  0  0  0
   60.5996   30.0687   47.5746 H   0  0  0  0  0  0  0  0  0  0  0  0
   59.1203   30.4701   45.6129 H   0  0  0  0  0  0  0  0  0  0  0  0
   55.4800   29.1010   45.7430 H   0  0  0  0  0  0  0  0  0  0  0  0
   59.0629   28.2481   45.3803 H   0  0  0  0  0  0  0  0  0  0  0  0
   60.0148   26.0091   45.9219 H   0  0  0  0  0  0  0  0  0  0  0  0
   58.5007   24.1020   46.4807 H   0  0  0  0  0  0  0  0  0  0  0  0
   56.0273   24.4488   46.5382 H   0  0  0  0  0  0  0  0  0  0  0  0
  1  2  2  0
  2  3  1  0
  3  4  1  0
  4  5  2  0
  4  6  2  0
  4  7  1  0
  7  8  2  0
  8  9  1  0
  9 10  2  0
 10 11  1  0
 11 12  1  0
 12 13  1  0
 13 14  2  0
 14 15  1  0
 15 16  1  0
 16 17  2  0
 16 18  1  0
 10 19  1  0
 19 20  2  0
  2 21  1  0
 21 22  1  0
 22 23  2  0
 23 24  1  0
 24 25  2  0
 25 26  1  0
 26 27  2  0
 27 28  1  0
 20  7  1  0
 27 22  1  0
 18 12  2  0
  8 29  1  0
  9 30  1  0
 11 31  1  0
 11 32  1  0
 13 33  1  0
 14 34  1  0
 18 35  1  0
 19 36  1  0
 20 37  1  0
 21 38  1  0
 23 39  1  0
 24 40  1  0
 25 41  1  0
 26 42  1  0
M  CHG  4   3  -1  11   1  15  -1  28  -1
M  END
>  <UniqueID>  (45) 
45

>  <SMILES>  (45) 
O=C([N-]S(=O)(=O)c1ccc([NH2+]c2cc[n-]c(=O)c2)cc1)Nc1ccccc1[O-]

>  <Energy>  (45) 
52.92306134302357

>  <Genealogy>  (45) 
O=C([N-]S(=O)(=O)c1ccc([NH2+]c2cc[n-]c(=O)c2)cc1)Nc1ccccc1[O-] (protonated)
O=C([N-]S(=O)(=O)c1ccc([NH2+]c2cc[n-]c(=O)c2)cc1)Nc1ccccc1[O-] (3D coordinates assigned)
O=C([N-]S(=O)(=O)c1ccc([NH2+]c2cc[n-]c(=O)c2)cc1)Nc1ccccc1[O-] (optimized conformer: 52.92306134302357 kcal/mol)

>  <smiles>  (45) 
O=C(Nc1ccccc1O)NS(=O)(=O)c1ccc(Nc2cc[nH]c(=O)c2)cc1

>  <score_type>  (45) 
oracle

>  <origin>  (45) 
adg

>  <m_score__min__energy>  (45) 
-14.140000000000001

>  <m_primary>  (45) 
energy

$$$$
45:0
     RDKit          3D

 60 64  0  0  0  0  0  0  0  0999 V2000
   58.4360   25.1330   45.8430 O   0  0  0  0  0  0  0  0  0  0  0  0
   57.2850   25.5400   46.1570 C   0  0  0  0  0  0  0  0  0  0  0  0
   57.1210   26.8280   46.7660 N   0  0  0  0  0  0  0  0  0  0  0  0
   58.1800   27.8340   46.7580 C   0  0  0  0  0  0  0  0  0  0  0  0
   57.7450   29.0270   45.9520 C   0  0  0  0  0  0  0  0  0  0  0  0
   56.8040   28.8760   44.9220 C   0  0  0  0  0  0  0  0  0  0  0  0
   56.4460   29.9690   44.1300 C   0  0  0  0  0  0  0  0  0  0  0  0
   57.0380   31.2160   44.3460 C   0  0  0  0  0  0  0  0  0  0  0  0
   57.9970   31.3830   45.3590 C   0  0  0  0  0  0  0  0  0  0  0  0
   58.6580   32.6970   45.5640 C   0  0  0  0  0  0  0  0  0  0  0  0
   58.2670   33.8210   44.8130 C   0  0  0  0  0  0  0  0  0  0  0  0
   58.8880   35.0550   45.0150 C   0  0  0  0  0  0  0  0  0  0  0  0
   59.9080   35.1830   45.9580 C   0  0  0  0  0  0  0  0  0  0  0  0
   60.3220   34.0720   46.7080 C   0  0  0  0  0  0  0  0  0  0  0  0
   61.4410   34.2080   47.7140 C   0  0  0  0  0  0  0  0  0  0  0  0
   62.5890   33.3100   47.4520 N   0  0  0  0  0  0  0  0  0  0  0  0
   63.9140   33.8260   47.8650 C   0  0  0  0  0  0  0  0  0  0  0  0
   64.4960   33.0900   49.0810 C   0  0  0  0  0  0  0  0  0  0  0  0
   63.4210   32.5480   49.9100 N   0  0  0  0  0  0  0  0  0  0  0  0
   62.7130   31.4820   49.1910 C   0  0  0  0  0  0  0  0  0  0  0  0
   62.3550   31.8800   47.7430 C   0  0  0  0  0  0  0  0  0  0  0  0
   59.6800   32.8370   46.5190 C   0  0  0  0  0  0  0  0  0  0  0  0
   58.3390   30.2810   46.1630 C   0  0  0  0  0  0  0  0  0  0  0  0
   56.1120   24.6660   45.9490 C   0  0  0  0  0  0  0  0  0  0  0  0
   54.8850   25.2470   45.9270 N   0  0  0  0  0  0  0  0  0  0  0  0
   53.7650   24.5380   45.8040 N   0  0  0  0  0  0  0  0  0  0  0  0
   53.7830   23.1880   45.6970 C   0  0  0  0  0  0  0  0  0  0  0  0
   52.6930   22.5630   45.5950 O   0  0  0  0  0  0  0  0  0  0  0  0
   55.0130   22.5100   45.6930 C   0  0  0  0  0  0  0  0  0  0  0  0
   55.0760   21.1090   45.5630 C   0  0  0  0  0  0  0  0  0  0  0  0
   56.3110   20.4610   45.5140 C   0  0  0  0  0  0  0  0  0  0  0  0
   57.4910   21.2000   45.5790 C   0  0  0  0  0  0  0  0  0  0  0  0
   57.4480   22.5890   45.7140 C   0  0  0  0  0  0  0  0  0  0  0  0
   56.2090   23.2620   45.8010 C   0  0  0  0  0  0  0  0  0  0  0  0
   56.1730   27.1160   47.0980 H   0  0  0  0  0  0  0  0  0  0  0  0
   58.3922   28.1488   47.7904 H   0  0  0  0  0  0  0  0  0  0  0  0
   59.0863   27.4030   46.3076 H   0  0  0  0  0  0  0  0  0  0  0  0
   56.3465   27.8927   44.7377 H   0  0  0  0  0  0  0  0  0  0  0  0
   55.6962   29.8479   43.3343 H   0  0  0  0  0  0  0  0  0  0  0  0
   56.7512   32.0728   43.7186 H   0  0  0  0  0  0  0  0  0  0  0  0
   57.4679   33.7269   44.0629 H   0  0  0  0  0  0  0  0  0  0  0  0
   58.5717   35.9299   44.4281 H   0  0  0  0  0  0  0  0  0  0  0  0
   60.3899   36.1594   46.1142 H   0  0  0  0  0  0  0  0  0  0  0  0
   61.8013   35.2471   47.6944 H   0  0  0  0  0  0  0  0  0  0  0  0
   61.0287   33.9254   48.6939 H   0  0  0  0  0  0  0  0  0  0  0  0
   64.6114   33.7143   47.0217 H   0  0  0  0  0  0  0  0  0  0  0  0
   63.7802   34.8792   48.1528 H   0  0  0  0  0  0  0  0  0  0  0  0
   65.1366   32.2660   48.7337 H   0  0  0  0  0  0  0  0  0  0  0  0
   65.0855   33.7999   49.6797 H   0  0  0  0  0  0  0  0  0  0  0  0
   63.8470   32.1330   50.7690 H   0  0  0  0  0  0  0  0  0  0  0  0
   63.3551   30.5893   49.1626 H   0  0  0  0  0  0  0  0  0  0  0  0
   61.7717   31.2873   49.7258 H   0  0  0  0  0  0  0  0  0  0  0  0
   62.9678   31.2794   47.0547 H   0  0  0  0  0  0  0  0  0  0  0  0
   61.2788   31.6940   47.6119 H   0  0  0  0  0  0  0  0  0  0  0  0
   59.9804   31.9696   47.1251 H   0  0  0  0  0  0  0  0  0  0  0  0
   59.0804   30.4032   46.9663 H   0  0  0  0  0  0  0  0  0  0  0  0
   54.1474   20.5228   45.4998 H   0  0  0  0  0  0  0  0  0  0  0  0
   56.3533   19.3655   45.4240 H   0  0  0  0  0  0  0  0  0  0  0  0
   58.4619   20.6859   45.5236 H   0  0  0  0  0  0  0  0  0  0  0  0
   58.3854   23.1633   45.7529 H   0  0  0  0  0  0  0  0  0  0  0  0
  1  2  2  0
  2  3  1  0
  3  4  1  0
  4  5  1  0
  5  6  2  0
  6  7  1  0
  7  8  2  0
  8  9  1  0
  9 10  1  0
 10 11  2  0
 11 12  1  0
 12 13  2  0
 13 14  1  0
 14 15  1  0
 15 16  1  0
 16 17  1  0
 17 18  1  0
 18 19  1  0
 19 20  1  0
 20 21  1  0
 14 22  2  0
  9 23  2  0
  2 24  1  0
 24 25  2  0
 25 26  1  0
 26 27  1  0
 27 28  2  0
 27 29  1  0
 29 30  2  0
 30 31  1  0
 31 32  2  0
 32 33  1  0
 33 34  2  0
 23  5  1  0
 34 24  1  0
 22 10  1  0
 34 29  1  0
 21 16  1  0
  3 35  1  0
  4 36  1  0
  4 37  1  0
  6 38  1  0
  7 39  1  0
  8 40  1  0
 11 41  1  0
 12 42  1  0
 13 43  1  0
 15 44  1  0
 15 45  1  0
 17 46  1  0
 17 47  1  0
 18 48  1  0
 18 49  1  0
 19 50  1  0
 20 51  1  0
 20 52  1  0
 21 53  1  0
 21 54  1  0
 22 55  1  0
 23 56  1  0
 30 57  1  0
 31 58  1  0
 32 59  1  0
 33 60  1  0
M  CHG  1  26  -1
M  END
>  <UniqueID>  (46) 
46

>  <SMILES>  (46) 
O=C(NCc1cccc(-c2cccc(CN3CCNCC3)c2)c1)c1n[n-]c(=O)c2ccccc12

>  <Energy>  (46) 
91.75593455293696

>  <Genealogy>  (46) 
O=C(NCc1cccc(-c2cccc(CN3CCNCC3)c2)c1)c1n[n-]c(=O)c2ccccc12 (protonated)
O=C(NCc1cccc(-c2cccc(CN3CCNCC3)c2)c1)c1n[n-]c(=O)c2ccccc12 (3D coordinates assigned)
O=C(NCc1cccc(-c2cccc(CN3CCNCC3)c2)c1)c1n[n-]c(=O)c2ccccc12 (nonaromatic ring conformer: 91.75593455293696 kcal/mol)

>  <smiles>  (46) 
O=C(NCc1cccc(-c2cccc(CN3CCNCC3)c2)c1)c1n[nH]c(=O)c2ccccc12

>  <score_type>  (46) 
oracle

>  <origin>  (46) 
adg

>  <m_score__min__energy>  (46) 
-13.67

>  <m_primary>  (46) 
energy

$$$$
46:0
     RDKit          3D

 45 48  0  0  0  0  0  0  0  0999 V2000
   57.3870   22.3930   47.7350 N   0  0  0  0  0  0  0  0  0  0  0  0
   57.7550   22.8700   46.1150 S   0  0  0  0  0  0  0  0  0  0  0  0
   56.9850   21.9940   45.1670 O   0  0  0  0  0  0  0  0  0  0  0  0
   59.2280   22.7060   45.8640 O   0  0  0  0  0  0  0  0  0  0  0  0
   57.3050   24.5550   45.8760 C   0  0  0  0  0  0  0  0  0  0  0  0
   58.2380   25.4650   45.3630 C   0  0  0  0  0  0  0  0  0  0  0  0
   57.8810   26.8010   45.1650 C   0  0  0  0  0  0  0  0  0  0  0  0
   56.5830   27.2420   45.4520 C   0  0  0  0  0  0  0  0  0  0  0  0
   56.2690   28.6320   45.2630 N   0  0  0  0  0  0  0  0  0  0  0  0
   57.0390   29.6460   45.5310 C   0  0  0  0  0  0  0  0  0  0  0  0
   56.8530   30.8550   44.9430 N   0  0  0  0  0  0  0  0  0  0  0  0
   57.8110   31.6010   45.5140 C   0  0  0  0  0  0  0  0  0  0  0  0
   58.0990   32.9410   45.2780 C   0  0  0  0  0  0  0  0  0  0  0  0
   59.1590   33.5190   45.9990 C   0  0  0  0  0  0  0  0  0  0  0  0
   59.8960   32.7540   46.9470 C   0  0  0  0  0  0  0  0  0  0  0  0
   60.9970   33.3260   47.6750 N   0  0  0  0  0  0  0  0  0  0  0  0
   62.2420   32.6460   47.9040 C   0  0  0  0  0  0  0  0  0  0  0  0
   62.5880   31.7030   47.1400 O   0  0  0  0  0  0  0  0  0  0  0  0
   63.1510   33.0730   48.9970 C   0  0  0  0  0  0  0  0  0  0  0  0
   62.7060   33.9930   49.9620 C   0  0  0  0  0  0  0  0  0  0  0  0
   63.5550   34.4040   50.9910 C   0  0  0  0  0  0  0  0  0  0  0  0
   64.8590   33.9100   51.0670 C   0  0  0  0  0  0  0  0  0  0  0  0
   65.3310   32.9970   50.1080 C   0  0  0  0  0  0  0  0  0  0  0  0
   66.6780   32.4920   50.1770 N   0  0  0  0  0  0  0  0  0  0  0  0
   66.8950   31.2890   50.4260 O   0  0  0  0  0  0  0  0  0  0  0  0
   67.7510   33.3290   49.9670 O   0  0  0  0  0  0  0  0  0  0  0  0
   64.4700   32.5860   49.0740 C   0  0  0  0  0  0  0  0  0  0  0  0
   59.5760   31.3920   47.1390 C   0  0  0  0  0  0  0  0  0  0  0  0
   58.5200   30.8570   46.4040 C   0  0  0  0  0  0  0  0  0  0  0  0
   58.0480   29.6030   46.4440 N   0  0  0  0  0  0  0  0  0  0  0  0
   55.6530   26.3310   45.9890 C   0  0  0  0  0  0  0  0  0  0  0  0
   56.0110   24.9930   46.1880 C   0  0  0  0  0  0  0  0  0  0  0  0
   57.3900   21.3490   47.7540 H   0  0  0  0  0  0  0  0  0  0  0  0
   59.2549   25.1267   45.1153 H   0  0  0  0  0  0  0  0  0  0  0  0
   58.6260   27.5130   44.7802 H   0  0  0  0  0  0  0  0  0  0  0  0
   57.5176   33.5286   44.5523 H   0  0  0  0  0  0  0  0  0  0  0  0
   59.4216   34.5735   45.8287 H   0  0  0  0  0  0  0  0  0  0  0  0
   60.9270   34.3310   47.9540 H   0  0  0  0  0  0  0  0  0  0  0  0
   61.6823   34.3916   49.9060 H   0  0  0  0  0  0  0  0  0  0  0  0
   63.1955   35.1198   51.7449 H   0  0  0  0  0  0  0  0  0  0  0  0
   65.5209   34.2373   51.8823 H   0  0  0  0  0  0  0  0  0  0  0  0
   64.8317   31.8754   48.3163 H   0  0  0  0  0  0  0  0  0  0  0  0
   60.1438   30.7716   47.8480 H   0  0  0  0  0  0  0  0  0  0  0  0
   54.6413   26.6725   46.2530 H   0  0  0  0  0  0  0  0  0  0  0  0
   55.2741   24.2825   46.5908 H   0  0  0  0  0  0  0  0  0  0  0  0
  1  2  1  0
  2  3  2  0
  2  4  2  0
  2  5  1  0
  5  6  2  0
  6  7  1  0
  7  8  2  0
  8  9  1  0
  9 10  2  3
 10 11  1  0
 11 12  1  0
 12 13  2  0
 13 14  1  0
 14 15  2  0
 15 16  1  0
 16 17  1  0
 17 18  2  0
 17 19  1  0
 19 20  2  0
 20 21  1  0
 21 22  2  0
 22 23  1  0
 23 24  1  0
 24 25  2  0
 24 26  1  0
 23 27  2  0
 15 28  1  0
 28 29  2  0
 29 30  1  0
  8 31  1  0
 31 32  2  0
 32  5  1  0
 30 10  1  0
 29 12  1  0
 27 19  1  0
  1 33  1  0
  6 34  1  0
  7 35  1  0
 13 36  1  0
 14 37  1  0
 16 38  1  0
 20 39  1  0
 21 40  1  0
 22 41  1  0
 27 42  1  0
 28 43  1  0
 31 44  1  0
 32 45  1  0
M  CHG  5   1  -1  11  -1  24   1  26  -1  30  -1
M  END
>  <UniqueID>  (47) 
47

>  <SMILES>  (47) 
[NH-]S(=O)(=O)c1ccc(N=c2[n-]c3ccc(NC(=O)c4cccc([N+](=O)[O-])c4)cc3[n-]2)cc1

>  <Energy>  (47) 
97.4816482523441

>  <Genealogy>  (47) 
[NH-]S(=O)(=O)c1ccc(N=c2[n-]c3ccc(NC(=O)c4cccc([N+](=O)[O-])c4)cc3[n-]2)cc1 (protonated)
[NH-]S(=O)(=O)c1ccc(N=c2[n-]c3ccc(NC(=O)c4cccc([N+](=O)[O-])c4)cc3[n-]2)cc1 (3D coordinates assigned)
[NH-]S(=O)(=O)c1ccc(N=c2[n-]c3ccc(NC(=O)c4cccc([N+](=O)[O-])c4)cc3[n-]2)cc1 (optimized conformer: 97.4816482523441 kcal/mol)

>  <smiles>  (47) 
NS(=O)(=O)c1ccc(N=c2[nH]c3ccc(NC(=O)c4cccc([N+](=O)[O-])c4)cc3[nH]2)cc1

>  <score_type>  (47) 
oracle

>  <origin>  (47) 
adg

>  <m_score__min__energy>  (47) 
-12.66

>  <m_primary>  (47) 
energy

$$$$
47:0
     RDKit          3D

 34 36  0  0  0  0  0  0  0  0999 V2000
   56.5670   30.8540   44.5100 O   0  0  0  0  0  0  0  0  0  0  0  0
   57.1540   29.9880   45.2120 C   0  0  0  0  0  0  0  0  0  0  0  0
   56.8070   28.6410   45.0990 C   0  0  0  0  0  0  0  0  0  0  0  0
   57.4830   27.7020   45.8960 C   0  0  0  0  0  0  0  0  0  0  0  0
   57.1630   26.2550   45.8220 C   0  0  0  0  0  0  0  0  0  0  0  0
   58.1950   25.3040   45.6960 C   0  0  0  0  0  0  0  0  0  0  0  0
   57.8990   23.9410   45.6100 C   0  0  0  0  0  0  0  0  0  0  0  0
   56.5730   23.5080   45.6450 C   0  0  0  0  0  0  0  0  0  0  0  0
   55.5380   24.4370   45.7670 C   0  0  0  0  0  0  0  0  0  0  0  0
   55.8250   25.8050   45.8560 C   0  0  0  0  0  0  0  0  0  0  0  0
   54.7710   26.7030   45.9950 O   0  0  0  0  0  0  0  0  0  0  0  0
   58.4550   28.1360   46.7440 N   0  0  0  0  0  0  0  0  0  0  0  0
   58.7800   29.4500   46.8370 C   0  0  0  0  0  0  0  0  0  0  0  0
   60.0870   29.9730   47.9430 S   0  0  0  0  0  0  0  0  0  0  0  0
   60.8490   31.1220   46.7440 C   0  0  0  0  0  0  0  0  0  0  0  0
   60.1880   32.4730   46.7980 C   0  0  0  0  0  0  0  0  0  0  0  0
   60.7820   33.5160   47.5240 C   0  0  0  0  0  0  0  0  0  0  0  0
   60.1380   34.7520   47.5990 C   0  0  0  0  0  0  0  0  0  0  0  0
   58.9140   34.9370   46.9590 C   0  0  0  0  0  0  0  0  0  0  0  0
   58.3470   33.8770   46.2490 C   0  0  0  0  0  0  0  0  0  0  0  0
   58.9860   32.6760   46.1830 N   0  0  0  0  0  0  0  0  0  0  0  0
   58.1290   30.3670   46.0760 N   0  0  0  0  0  0  0  0  0  0  0  0
   56.0202   28.3209   44.4001 H   0  0  0  0  0  0  0  0  0  0  0  0
   59.2428   25.6374   45.6651 H   0  0  0  0  0  0  0  0  0  0  0  0
   58.7133   23.2077   45.5145 H   0  0  0  0  0  0  0  0  0  0  0  0
   56.3431   22.4345   45.5765 H   0  0  0  0  0  0  0  0  0  0  0  0
   54.4934   24.0933   45.7933 H   0  0  0  0  0  0  0  0  0  0  0  0
   61.9171   31.2342   46.9819 H   0  0  0  0  0  0  0  0  0  0  0  0
   60.7212   30.7091   45.7325 H   0  0  0  0  0  0  0  0  0  0  0  0
   61.7466   33.3612   48.0296 H   0  0  0  0  0  0  0  0  0  0  0  0
   60.5958   35.5786   48.1623 H   0  0  0  0  0  0  0  0  0  0  0  0
   58.4000   35.9080   47.0127 H   0  0  0  0  0  0  0  0  0  0  0  0
   57.3807   34.0123   45.7411 H   0  0  0  0  0  0  0  0  0  0  0  0
   58.5310   31.8990   45.6530 H   0  0  0  0  0  0  0  0  0  0  0  0
  1  2  2  0
  2  3  1  0
  3  4  2  0
  4  5  1  0
  5  6  2  0
  6  7  1  0
  7  8  2  0
  8  9  1  0
  9 10  2  0
 10 11  1  0
  4 12  1  0
 12 13  1  0
 13 14  1  0
 14 15  1  0
 15 16  1  0
 16 17  2  0
 17 18  1  0
 18 19  2  0
 19 20  1  0
 20 21  2  0
 13 22  2  0
 22  2  1  0
 10  5  1  0
 21 16  1  0
  3 23  1  0
  6 24  1  0
  7 25  1  0
  8 26  1  0
  9 27  1  0
 15 28  1  0
 15 29  1  0
 17 30  1  0
 18 31  1  0
 19 32  1  0
 20 33  1  0
 21 34  1  0
M  CHG  3  11  -1  12  -1  21   1
M  END
>  <UniqueID>  (48) 
48

>  <SMILES>  (48) 
O=c1cc(-c2ccccc2[O-])[n-]c(SCc2cccc[nH+]2)n1

>  <Energy>  (48) 
38.05246316605347

>  <Genealogy>  (48) 
O=c1cc(-c2ccccc2[O-])[n-]c(SCc2cccc[nH+]2)n1 (protonated)
O=c1cc(-c2ccccc2[O-])[n-]c(SCc2cccc[nH+]2)n1 (3D coordinates assigned)
O=c1cc(-c2ccccc2[O-])[n-]c(SCc2cccc[nH+]2)n1 (optimized conformer: 38.05246316605347 kcal/mol)

>  <smiles>  (48) 
O=c1cc(-c2ccccc2O)[nH]c(SCc2ccccn2)n1

>  <score_type>  (48) 
oracle

>  <origin>  (48) 
adg

>  <m_score__min__energy>  (48) 
-11.15

>  <m_primary>  (48) 
energy

$$$$
48:0
     RDKit          3D

 35 37  0  0  0  0  0  0  0  0999 V2000
   55.8459   28.9355   42.8561 H   0  0  0  0  0  0  0  0  0  0  0  0
   56.1070   29.7150   43.5870 C   0  0  0  0  0  0  0  0  0  0  0  0
   55.2470   30.0870   44.4280 O   0  0  0  0  0  0  0  0  0  0  0  0
   57.4200   30.2890   43.5650 N   0  0  0  0  0  0  0  0  0  0  0  0
   58.1400   29.8170   42.9730 H   0  0  0  0  0  0  0  0  0  0  0  0
   57.8070   31.4240   44.3610 C   0  0  0  0  0  0  0  0  0  0  0  0
   57.7620   32.7180   43.8100 C   0  0  0  0  0  0  0  0  0  0  0  0
   57.3819   32.8620   42.7879 H   0  0  0  0  0  0  0  0  0  0  0  0
   58.1950   33.8200   44.5480 C   0  0  0  0  0  0  0  0  0  0  0  0
   58.1509   34.8268   44.1070 H   0  0  0  0  0  0  0  0  0  0  0  0
   58.6840   33.6490   45.8440 C   0  0  0  0  0  0  0  0  0  0  0  0
   59.2310   35.0670   46.7930 S   0  0  0  0  0  0  0  0  0  0  0  0
   60.6340   34.1830   47.4670 C   0  0  0  0  0  0  0  0  0  0  0  0
   60.6710   33.8900   48.7950 N   0  0  0  0  0  0  0  0  0  0  0  0
   61.7210   33.2280   49.3520 C   0  0  0  0  0  0  0  0  0  0  0  0
   61.7230   33.0074   50.4296 H   0  0  0  0  0  0  0  0  0  0  0  0
   62.7980   32.8280   48.5540 C   0  0  0  0  0  0  0  0  0  0  0  0
   64.1580   31.9760   49.2620 Cl  0  0  0  0  0  0  0  0  0  0  0  0
   62.7790   33.1170   47.1870 C   0  0  0  0  0  0  0  0  0  0  0  0
   63.6192   32.8102   46.5468 H   0  0  0  0  0  0  0  0  0  0  0  0
   61.6910   33.7960   46.6360 C   0  0  0  0  0  0  0  0  0  0  0  0
   61.6649   34.0243   45.5603 H   0  0  0  0  0  0  0  0  0  0  0  0
   58.7480   32.3680   46.4000 C   0  0  0  0  0  0  0  0  0  0  0  0
   59.1341   32.2367   47.4216 H   0  0  0  0  0  0  0  0  0  0  0  0
   58.3240   31.2460   45.6670 C   0  0  0  0  0  0  0  0  0  0  0  0
   58.3630   29.9100   46.3080 C   0  0  0  0  0  0  0  0  0  0  0  0
   58.4830   29.8340   47.5600 O   0  0  0  0  0  0  0  0  0  0  0  0
   58.3480   28.6930   45.5450 N   0  0  0  0  0  0  0  0  0  0  0  0
   57.6630   27.6240   45.8220 C   0  0  0  0  0  0  0  0  0  0  0  0
   56.3290   27.5030   45.6370 N   0  0  0  0  0  0  0  0  0  0  0  0
   55.8790   26.2860   46.0420 C   0  0  0  0  0  0  0  0  0  0  0  0
   54.8215   25.9928   45.9669 H   0  0  0  0  0  0  0  0  0  0  0  0
   56.8530   25.4390   46.5580 C   0  0  0  0  0  0  0  0  0  0  0  0
   56.6873   24.4190   46.9349 H   0  0  0  0  0  0  0  0  0  0  0  0
   58.3300   26.2450   46.5060 S   0  0  0  0  0  0  0  0  0  0  0  0
  1  2  1  0
  2  3  2  0
  2  4  1  0
  4  5  1  0
  4  6  1  0
  6  7  2  0
  7  8  1  0
  7  9  1  0
  9 10  1  0
  9 11  2  0
 11 12  1  0
 12 13  1  0
 13 14  2  0
 14 15  1  0
 15 16  1  0
 15 17  2  0
 17 18  1  0
 17 19  1  0
 19 20  1  0
 19 21  2  0
 21 22  1  0
 11 23  1  0
 23 24  1  0
 23 25  2  0
 25 26  1  0
 26 27  2  0
 26 28  1  0
 28 29  2  0
 29 30  1  0
 30 31  1  0
 31 32  1  0
 31 33  2  0
 33 34  1  0
 33 35  1  0
 25  6  1  0
 35 29  1  0
 21 13  1  0
M  CHG  1  30  -1
M  END
>  <UniqueID>  (49) 
49

>  <SMILES>  (49) 
O=CNc1ccc(Sc2ccc(Cl)cn2)cc1C(=O)/N=c1\[n-]ccs1

>  <Energy>  (49) 
76.10616904074891

>  <Genealogy>  (49) 
O=CNc1ccc(Sc2ccc(Cl)cn2)cc1C(=O)N=c1[n-]ccs1 (protonated)
O=CNc1ccc(Sc2ccc(Cl)cn2)cc1C(=O)/N=c1\[n-]ccs1 (cis-trans isomerization)
O=CNc1ccc(Sc2ccc(Cl)cn2)cc1C(=O)/N=c1\[n-]ccs1 (3D coordinates assigned)
O=CNc1ccc(Sc2ccc(Cl)cn2)cc1C(=O)/N=c1\[n-]ccs1 (optimized conformer: 76.10616904074891 kcal/mol)

>  <smiles>  (49) 
O=CNc1ccc(Sc2ccc(Cl)cn2)cc1C(=O)N=c1[nH]ccs1

>  <score_type>  (49) 
oracle

>  <origin>  (49) 
adg

>  <m_score__min__energy>  (49) 
-10.6

>  <m_primary>  (49) 
energy

$$$$
49:0
     RDKit          3D

 56 60  0  0  0  0  0  0  0  0999 V2000
   58.4040   25.5560   45.9540 O   0  0  0  0  0  0  0  0  0  0  0  0
   57.9750   26.6880   46.2970 C   0  0  0  0  0  0  0  0  0  0  0  0
   56.8170   27.2140   45.6290 N   0  0  0  0  0  0  0  0  0  0  0  0
   56.7270   28.3710   45.0440 C   0  0  0  0  0  0  0  0  0  0  0  0
   55.5400   28.9930   44.8640 N   0  0  0  0  0  0  0  0  0  0  0  0
   55.6900   30.2060   44.2690 C   0  0  0  0  0  0  0  0  0  0  0  0
   57.0050   30.5520   43.9720 C   0  0  0  0  0  0  0  0  0  0  0  0
   57.4590   31.8370   43.3520 C   0  0  0  0  0  0  0  0  0  0  0  0
   57.9310   32.7890   44.4200 C   0  0  0  0  0  0  0  0  0  0  0  0
   57.4170   32.7020   45.7290 C   0  0  0  0  0  0  0  0  0  0  0  0
   57.8330   33.6100   46.7120 C   0  0  0  0  0  0  0  0  0  0  0  0
   58.7580   34.6130   46.3960 C   0  0  0  0  0  0  0  0  0  0  0  0
   59.2650   34.7140   45.0930 C   0  0  0  0  0  0  0  0  0  0  0  0
   58.8510   33.8090   44.1070 C   0  0  0  0  0  0  0  0  0  0  0  0
   58.0190   29.3130   44.4930 S   0  0  0  0  0  0  0  0  0  0  0  0
   58.7170   27.4630   47.3170 C   0  0  0  0  0  0  0  0  0  0  0  0
   58.4430   28.8280   47.5030 C   0  0  0  0  0  0  0  0  0  0  0  0
   59.1420   29.5650   48.4640 C   0  0  0  0  0  0  0  0  0  0  0  0
   60.1120   28.9440   49.2630 C   0  0  0  0  0  0  0  0  0  0  0  0
   60.9870   29.8570   50.4870 S   0  0  0  0  0  0  0  0  0  0  0  0
   60.3970   29.5270   51.8310 O   0  0  0  0  0  0  0  0  0  0  0  0
   62.4440   29.4820   50.4960 O   0  0  0  0  0  0  0  0  0  0  0  0
   60.8400   31.5650   50.1650 N   0  0  0  0  0  0  0  0  0  0  0  0
   59.7650   32.2810   50.8690 C   0  0  0  0  0  0  0  0  0  0  0  0
   59.9140   33.7980   50.7480 C   0  0  0  0  0  0  0  0  0  0  0  0
   60.0310   34.2010   49.2790 C   0  0  0  0  0  0  0  0  0  0  0  0
   61.1780   33.4810   48.6250 C   0  0  0  0  0  0  0  0  0  0  0  0
   61.8390   34.0750   47.5380 C   0  0  0  0  0  0  0  0  0  0  0  0
   62.8980   33.4170   46.9110 C   0  0  0  0  0  0  0  0  0  0  0  0
   63.3020   32.1610   47.3620 C   0  0  0  0  0  0  0  0  0  0  0  0
   62.6420   31.5520   48.4320 C   0  0  0  0  0  0  0  0  0  0  0  0
   61.5540   32.1900   49.0650 C   0  0  0  0  0  0  0  0  0  0  0  0
   60.3770   27.5790   49.0920 C   0  0  0  0  0  0  0  0  0  0  0  0
   59.6820   26.8410   48.1290 C   0  0  0  0  0  0  0  0  0  0  0  0
   54.8381   30.8632   44.0400 H   0  0  0  0  0  0  0  0  0  0  0  0
   58.2856   31.6328   42.6555 H   0  0  0  0  0  0  0  0  0  0  0  0
   56.6169   32.2925   42.8103 H   0  0  0  0  0  0  0  0  0  0  0  0
   56.6867   31.9187   45.9802 H   0  0  0  0  0  0  0  0  0  0  0  0
   57.4323   33.5348   47.7337 H   0  0  0  0  0  0  0  0  0  0  0  0
   59.0867   35.3217   47.1704 H   0  0  0  0  0  0  0  0  0  0  0  0
   59.9885   35.5045   44.8445 H   0  0  0  0  0  0  0  0  0  0  0  0
   59.2460   33.8952   43.0840 H   0  0  0  0  0  0  0  0  0  0  0  0
   57.6742   29.3200   46.8892 H   0  0  0  0  0  0  0  0  0  0  0  0
   58.9298   30.6365   48.5935 H   0  0  0  0  0  0  0  0  0  0  0  0
   58.7979   31.9834   50.4375 H   0  0  0  0  0  0  0  0  0  0  0  0
   59.8222   32.0174   51.9354 H   0  0  0  0  0  0  0  0  0  0  0  0
   59.0327   34.2861   51.1896 H   0  0  0  0  0  0  0  0  0  0  0  0
   60.8237   34.1129   51.2802 H   0  0  0  0  0  0  0  0  0  0  0  0
   59.0973   33.9434   48.7575 H   0  0  0  0  0  0  0  0  0  0  0  0
   60.2115   35.2845   49.2207 H   0  0  0  0  0  0  0  0  0  0  0  0
   61.5204   35.0646   47.1786 H   0  0  0  0  0  0  0  0  0  0  0  0
   63.4136   33.8889   46.0616 H   0  0  0  0  0  0  0  0  0  0  0  0
   64.1434   31.6478   46.8735 H   0  0  0  0  0  0  0  0  0  0  0  0
   62.9739   30.5645   48.7850 H   0  0  0  0  0  0  0  0  0  0  0  0
   61.1351   27.0857   49.7180 H   0  0  0  0  0  0  0  0  0  0  0  0
   59.8912   25.7681   48.0059 H   0  0  0  0  0  0  0  0  0  0  0  0
  1  2  2  0
  2  3  1  0
  3  4  2  3
  4  5  1  0
  5  6  1  0
  6  7  2  0
  7  8  1  0
  8  9  1  0
  9 10  2  0
 10 11  1  0
 11 12  2  0
 12 13  1  0
 13 14  2  0
  7 15  1  0
  2 16  1  0
 16 17  2  0
 17 18  1  0
 18 19  2  0
 19 20  1  0
 20 21  2  0
 20 22  2  0
 20 23  1  0
 23 24  1  0
 24 25  1  0
 25 26  1  0
 26 27  1  0
 27 28  2  0
 28 29  1  0
 29 30  2  0
 30 31  1  0
 31 32  2  0
 19 33  1  0
 33 34  2  0
 15  4  1  0
 34 16  1  0
 14  9  1  0
 32 23  1  0
 32 27  1  0
  6 35  1  0
  8 36  1  0
  8 37  1  0
 10 38  1  0
 11 39  1  0
 12 40  1  0
 13 41  1  0
 14 42  1  0
 17 43  1  0
 18 44  1  0
 24 45  1  0
 24 46  1  0
 25 47  1  0
 25 48  1  0
 26 49  1  0
 26 50  1  0
 28 51  1  0
 29 52  1  0
 30 53  1  0
 31 54  1  0
 33 55  1  0
 34 56  1  0
M  CHG  1   5  -1
M  END
>  <UniqueID>  (50) 
50

>  <SMILES>  (50) 
O=C(N=c1[n-]cc(Cc2ccccc2)s1)c1ccc(S(=O)(=O)N2CCCc3ccccc32)cc1

>  <Energy>  (50) 
101.60663108935634

>  <Genealogy>  (50) 
O=C(N=c1[n-]cc(Cc2ccccc2)s1)c1ccc(S(=O)(=O)N2CCCc3ccccc32)cc1 (protonated)
O=C(N=c1[n-]cc(Cc2ccccc2)s1)c1ccc(S(=O)(=O)N2CCCc3ccccc32)cc1 (3D coordinates assigned)
O=C(N=c1[n-]cc(Cc2ccccc2)s1)c1ccc(S(=O)(=O)N2CCCc3ccccc32)cc1 (nonaromatic ring conformer: 101.60663108935634 kcal/mol)

>  <smiles>  (50) 
O=C(N=c1[nH]cc(Cc2ccccc2)s1)c1ccc(S(=O)(=O)N2CCCc3ccccc32)cc1

>  <score_type>  (50) 
oracle

>  <origin>  (50) 
adg

>  <m_score__min__energy>  (50) 
-12.74

>  <m_primary>  (50) 
energy

$$$$
50:0
     RDKit          3D

 54 56  0  0  0  0  0  0  0  0999 V2000
   56.7790   21.4300   43.0180 C   0  0  0  0  0  0  0  0  0  0  0  0
   55.8880   22.4030   43.5500 O   0  0  0  0  0  0  0  0  0  0  0  0
   56.2890   23.6430   44.0710 C   0  0  0  0  0  0  0  0  0  0  0  0
   55.6220   24.1380   45.1970 C   0  0  0  0  0  0  0  0  0  0  0  0
   55.9840   25.3670   45.7550 C   0  0  0  0  0  0  0  0  0  0  0  0
   57.0310   26.1160   45.1970 C   0  0  0  0  0  0  0  0  0  0  0  0
   57.3970   27.4560   45.7740 C   0  0  0  0  0  0  0  0  0  0  0  0
   58.3650   28.1950   44.8450 C   0  0  0  0  0  0  0  0  0  0  0  0
   57.9870   29.6090   44.7360 N   0  0  0  0  0  0  0  0  0  0  0  0
   57.1440   30.1410   43.8220 C   0  0  0  0  0  0  0  0  0  0  0  0
   56.3810   29.3560   42.7970 C   0  0  0  0  0  0  0  0  0  0  0  0
   57.0320   31.5030   44.0070 C   0  0  0  0  0  0  0  0  0  0  0  0
   57.8450   31.8250   45.0770 C   0  0  0  0  0  0  0  0  0  0  0  0
   57.9630   33.1850   45.6470 C   0  0  0  0  0  0  0  0  0  0  0  0
   58.2110   34.1490   44.8740 O   0  0  0  0  0  0  0  0  0  0  0  0
   57.7480   33.4700   47.1080 C   0  0  0  0  0  0  0  0  0  0  0  0
   58.9930   33.6230   47.7870 O   0  0  0  0  0  0  0  0  0  0  0  0
   60.0590   34.3750   47.2800 C   0  0  0  0  0  0  0  0  0  0  0  0
   59.8550   35.4920   46.7320 O   0  0  0  0  0  0  0  0  0  0  0  0
   61.4270   33.8630   47.3970 C   0  0  0  0  0  0  0  0  0  0  0  0
   62.3540   33.7930   46.3740 C   0  0  0  0  0  0  0  0  0  0  0  0
   63.4890   33.2450   46.9350 C   0  0  0  0  0  0  0  0  0  0  0  0
   63.1750   33.0140   48.2600 C   0  0  0  0  0  0  0  0  0  0  0  0
   64.0990   32.4450   49.2850 C   0  0  0  0  0  0  0  0  0  0  0  0
   61.9440   33.3940   48.5100 O   0  0  0  0  0  0  0  0  0  0  0  0
   58.4480   30.6380   45.4900 C   0  0  0  0  0  0  0  0  0  0  0  0
   59.4630   30.4970   46.5910 C   0  0  0  0  0  0  0  0  0  0  0  0
   57.6930   25.6290   44.0590 C   0  0  0  0  0  0  0  0  0  0  0  0
   57.3300   24.3990   43.5010 C   0  0  0  0  0  0  0  0  0  0  0  0
   57.2706   20.8932   43.8427 H   0  0  0  0  0  0  0  0  0  0  0  0
   56.2153   20.7157   42.4000 H   0  0  0  0  0  0  0  0  0  0  0  0
   57.5401   21.9288   42.4000 H   0  0  0  0  0  0  0  0  0  0  0  0
   54.8053   23.5545   45.6470 H   0  0  0  0  0  0  0  0  0  0  0  0
   55.4460   25.7487   46.6352 H   0  0  0  0  0  0  0  0  0  0  0  0
   56.4846   28.0577   45.8985 H   0  0  0  0  0  0  0  0  0  0  0  0
   57.8862   27.3022   46.7472 H   0  0  0  0  0  0  0  0  0  0  0  0
   59.3846   28.1222   45.2513 H   0  0  0  0  0  0  0  0  0  0  0  0
   58.3236   27.7356   43.8464 H   0  0  0  0  0  0  0  0  0  0  0  0
   55.7004   28.6558   43.3034 H   0  0  0  0  0  0  0  0  0  0  0  0
   55.7974   30.0442   42.1679 H   0  0  0  0  0  0  0  0  0  0  0  0
   57.0855   28.7922   42.1679 H   0  0  0  0  0  0  0  0  0  0  0  0
   56.4156   32.1977   43.4176 H   0  0  0  0  0  0  0  0  0  0  0  0
   57.1652   34.3971   47.2118 H   0  0  0  0  0  0  0  0  0  0  0  0
   57.2067   32.6229   47.5546 H   0  0  0  0  0  0  0  0  0  0  0  0
   62.2155   34.1087   45.3294 H   0  0  0  0  0  0  0  0  0  0  0  0
   64.4446   33.0357   46.4320 H   0  0  0  0  0  0  0  0  0  0  0  0
   63.7196   32.6786   50.2907 H   0  0  0  0  0  0  0  0  0  0  0  0
   64.1582   31.3538   49.1598 H   0  0  0  0  0  0  0  0  0  0  0  0
   65.1001   32.8833   49.1598 H   0  0  0  0  0  0  0  0  0  0  0  0
   58.9585   30.5671   47.5660 H   0  0  0  0  0  0  0  0  0  0  0  0
   59.9628   29.5208   46.5061 H   0  0  0  0  0  0  0  0  0  0  0  0
   60.2100   31.3000   46.5061 H   0  0  0  0  0  0  0  0  0  0  0  0
   58.5023   26.2184   43.6033 H   0  0  0  0  0  0  0  0  0  0  0  0
   57.8598   24.0215   42.6140 H   0  0  0  0  0  0  0  0  0  0  0  0
  1  2  1  0
  2  3  1  0
  3  4  2  0
  4  5  1  0
  5  6  2  0
  6  7  1  0
  7  8  1  0
  8  9  1  0
  9 10  1  0
 10 11  1  0
 10 12  2  0
 12 13  1  0
 13 14  1  0
 14 15  2  0
 14 16  1  0
 16 17  1  0
 17 18  1  0
 18 19  2  0
 18 20  1  0
 20 21  2  0
 21 22  1  0
 22 23  2  0
 23 24  1  0
 23 25  1  0
 13 26  2  0
 26 27  1  0
  6 28  1  0
 28 29  2  0
 29  3  1  0
 26  9  1  0
 25 20  1  0
  1 30  1  0
  1 31  1  0
  1 32  1  0
  4 33  1  0
  5 34  1  0
  7 35  1  0
  7 36  1  0
  8 37  1  0
  8 38  1  0
 11 39  1  0
 11 40  1  0
 11 41  1  0
 12 42  1  0
 16 43  1  0
 16 44  1  0
 21 45  1  0
 22 46  1  0
 24 47  1  0
 24 48  1  0
 24 49  1  0
 27 50  1  0
 27 51  1  0
 27 52  1  0
 28 53  1  0
 29 54  1  0
M  END
>  <UniqueID>  (51) 
51

>  <SMILES>  (51) 
COc1ccc(CCn2c(C)cc(C(=O)COC(=O)c3ccc(C)o3)c2C)cc1

>  <Energy>  (51) 
99.8633562408263

>  <Genealogy>  (51) 
COc1ccc(CCn2c(C)cc(C(=O)COC(=O)c3ccc(C)o3)c2C)cc1 (3D coordinates assigned)
COc1ccc(CCn2c(C)cc(C(=O)COC(=O)c3ccc(C)o3)c2C)cc1 (optimized conformer: 99.8633562408263 kcal/mol)

>  <smiles>  (51) 
COc1ccc(CCn2c(C)cc(C(=O)COC(=O)c3ccc(C)o3)c2C)cc1

>  <score_type>  (51) 
oracle

>  <origin>  (51) 
adg

>  <m_score__min__energy>  (51) 
-8.4900000000000002

>  <m_primary>  (51) 
energy

$$$$
51:0
     RDKit          3D

 47 49  0  0  0  0  0  0  0  0999 V2000
   58.7230   31.2180   43.1470 O   0  0  0  0  0  0  0  0  0  0  0  0
   57.9590   31.7560   43.9940 C   0  0  0  0  0  0  0  0  0  0  0  0
   57.6440   33.2150   43.8770 C   0  0  0  0  0  0  0  0  0  0  0  0
   58.7720   34.0580   44.4790 C   0  0  0  0  0  0  0  0  0  0  0  0
   59.0060   33.6780   45.9170 C   0  0  0  0  0  0  0  0  0  0  0  0
   60.3110   33.5310   46.4080 C   0  0  0  0  0  0  0  0  0  0  0  0
   60.5280   33.1470   47.7350 C   0  0  0  0  0  0  0  0  0  0  0  0
   59.4420   32.8960   48.5920 C   0  0  0  0  0  0  0  0  0  0  0  0
   59.6690   32.4910   50.0000 C   0  0  0  0  0  0  0  0  0  0  0  0
   59.0150   33.0450   50.9250 O   0  0  0  0  0  0  0  0  0  0  0  0
   60.6690   31.5100   50.3120 N   0  0  0  0  0  0  0  0  0  0  0  0
   60.6210   30.1060   50.0200 C   0  0  0  0  0  0  0  0  0  0  0  0
   59.8980   29.6780   48.8980 C   0  0  0  0  0  0  0  0  0  0  0  0
   59.8060   28.3180   48.5890 C   0  0  0  0  0  0  0  0  0  0  0  0
   60.4240   27.3720   49.4110 C   0  0  0  0  0  0  0  0  0  0  0  0
   61.1280   27.7840   50.5450 C   0  0  0  0  0  0  0  0  0  0  0  0
   61.2220   29.1450   50.8560 C   0  0  0  0  0  0  0  0  0  0  0  0
   58.1340   33.0290   48.0900 C   0  0  0  0  0  0  0  0  0  0  0  0
   57.9190   33.4120   46.7630 C   0  0  0  0  0  0  0  0  0  0  0  0
   57.3350   30.9670   45.0180 N   0  0  0  0  0  0  0  0  0  0  0  0
   57.6500   29.5850   45.2500 C   0  0  0  0  0  0  0  0  0  0  0  0
   58.9940   29.1960   45.3000 C   0  0  0  0  0  0  0  0  0  0  0  0
   59.3350   27.8620   45.5140 C   0  0  0  0  0  0  0  0  0  0  0  0
   58.3380   26.8990   45.6680 C   0  0  0  0  0  0  0  0  0  0  0  0
   56.9770   27.2550   45.5940 C   0  0  0  0  0  0  0  0  0  0  0  0
   55.9380   26.2040   45.7450 C   0  0  0  0  0  0  0  0  0  0  0  0
   54.7740   26.5100   46.1190 O   0  0  0  0  0  0  0  0  0  0  0  0
   56.2220   24.8700   45.4750 O   0  0  0  0  0  0  0  0  0  0  0  0
   56.6380   28.6090   45.3660 C   0  0  0  0  0  0  0  0  0  0  0  0
   55.3060   28.9860   45.2170 O   0  0  0  0  0  0  0  0  0  0  0  0
   57.5249   33.4754   42.8149 H   0  0  0  0  0  0  0  0  0  0  0  0
   56.7134   33.4228   44.4255 H   0  0  0  0  0  0  0  0  0  0  0  0
   59.6953   33.8894   43.9054 H   0  0  0  0  0  0  0  0  0  0  0  0
   58.4854   35.1191   44.4340 H   0  0  0  0  0  0  0  0  0  0  0  0
   61.1690   33.7188   45.7457 H   0  0  0  0  0  0  0  0  0  0  0  0
   61.5562   33.0405   48.1112 H   0  0  0  0  0  0  0  0  0  0  0  0
   59.3990   30.4184   48.2555 H   0  0  0  0  0  0  0  0  0  0  0  0
   59.2473   27.9925   47.6991 H   0  0  0  0  0  0  0  0  0  0  0  0
   60.3561   26.3020   49.1649 H   0  0  0  0  0  0  0  0  0  0  0  0
   61.6090   27.0376   51.1942 H   0  0  0  0  0  0  0  0  0  0  0  0
   61.7670   29.4654   51.7562 H   0  0  0  0  0  0  0  0  0  0  0  0
   57.2744   32.8301   48.7468 H   0  0  0  0  0  0  0  0  0  0  0  0
   56.8920   33.5053   46.3800 H   0  0  0  0  0  0  0  0  0  0  0  0
   56.5080   31.3730   45.5130 H   0  0  0  0  0  0  0  0  0  0  0  0
   59.7859   29.9483   45.1695 H   0  0  0  0  0  0  0  0  0  0  0  0
   60.3938   27.5675   45.5616 H   0  0  0  0  0  0  0  0  0  0  0  0
   58.6173   25.8506   45.8491 H   0  0  0  0  0  0  0  0  0  0  0  0
  1  2  2  0
  2  3  1  0
  3  4  1  0
  4  5  1  0
  5  6  2  0
  6  7  1  0
  7  8  2  0
  8  9  1  0
  9 10  2  0
  9 11  1  0
 11 12  1  0
 12 13  2  0
 13 14  1  0
 14 15  2  0
 15 16  1  0
 16 17  2  0
  8 18  1  0
 18 19  2  0
  2 20  1  0
 20 21  1  0
 21 22  2  0
 22 23  1  0
 23 24  2  0
 24 25  1  0
 25 26  1  0
 26 27  2  0
 26 28  1  0
 25 29  2  0
 29 30  1  0
 19  5  1  0
 29 21  1  0
 17 12  1  0
  3 31  1  0
  3 32  1  0
  4 33  1  0
  4 34  1  0
  6 35  1  0
  7 36  1  0
 13 37  1  0
 14 38  1  0
 15 39  1  0
 16 40  1  0
 17 41  1  0
 18 42  1  0
 19 43  1  0
 20 44  1  0
 22 45  1  0
 23 46  1  0
 24 47  1  0
M  CHG  3  11  -1  28  -1  30  -1
M  END
>  <UniqueID>  (52) 
52

>  <SMILES>  (52) 
O=C(CCc1ccc(C(=O)[N-]c2ccccc2)cc1)Nc1cccc(C(=O)[O-])c1[O-]

>  <Energy>  (52) 
57.62788762154639

>  <Genealogy>  (52) 
O=C(CCc1ccc(C(=O)[N-]c2ccccc2)cc1)Nc1cccc(C(=O)[O-])c1[O-] (protonated)
O=C(CCc1ccc(C(=O)[N-]c2ccccc2)cc1)Nc1cccc(C(=O)[O-])c1[O-] (3D coordinates assigned)
O=C(CCc1ccc(C(=O)[N-]c2ccccc2)cc1)Nc1cccc(C(=O)[O-])c1[O-] (optimized conformer: 57.62788762154639 kcal/mol)

>  <smiles>  (52) 
O=C(CCc1ccc(C(=O)Nc2ccccc2)cc1)Nc1cccc(C(=O)O)c1O

>  <score_type>  (52) 
oracle

>  <origin>  (52) 
adg

>  <m_score__min__energy>  (52) 
-16.129999999999999

>  <m_primary>  (52) 
energy

$$$$
52:0
     RDKit          3D

 49 51  0  0  0  0  0  0  0  0999 V2000
   55.6820   26.8670   46.1720 N   0  0  0  0  0  0  0  0  0  0  0  0
   57.1080   26.9820   46.2640 C   0  0  0  0  0  0  0  0  0  0  0  0
   57.8690   25.8480   46.5890 C   0  0  0  0  0  0  0  0  0  0  0  0
   59.2590   25.9350   46.6930 C   0  0  0  0  0  0  0  0  0  0  0  0
   59.9010   27.1520   46.4650 C   0  0  0  0  0  0  0  0  0  0  0  0
   59.1560   28.2880   46.1370 C   0  0  0  0  0  0  0  0  0  0  0  0
   57.7530   28.2180   46.0480 C   0  0  0  0  0  0  0  0  0  0  0  0
   56.9740   29.3620   45.6680 N   0  0  0  0  0  0  0  0  0  0  0  0
   56.2340   29.5330   44.4480 C   0  0  0  0  0  0  0  0  0  0  0  0
   55.0290   29.1720   44.3760 O   0  0  0  0  0  0  0  0  0  0  0  0
   56.8910   30.1170   43.2300 C   0  0  0  0  0  0  0  0  0  0  0  0
   57.7140   31.3260   43.5600 C   0  0  0  0  0  0  0  0  0  0  0  0
   57.7120   32.3140   42.7750 O   0  0  0  0  0  0  0  0  0  0  0  0
   58.4960   31.3530   44.7620 N   0  0  0  0  0  0  0  0  0  0  0  0
   58.9370   32.5600   45.4070 C   0  0  0  0  0  0  0  0  0  0  0  0
   58.3890   33.7890   45.0150 C   0  0  0  0  0  0  0  0  0  0  0  0
   58.8120   34.9760   45.6160 C   0  0  0  0  0  0  0  0  0  0  0  0
   59.8080   34.9500   46.5940 C   0  0  0  0  0  0  0  0  0  0  0  0
   60.4060   33.7390   46.9640 C   0  0  0  0  0  0  0  0  0  0  0  0
   61.4310   33.7580   47.9690 N   0  0  0  0  0  0  0  0  0  0  0  0
   61.2360   33.7040   49.3900 C   0  0  0  0  0  0  0  0  0  0  0  0
   61.9660   34.3930   50.1540 O   0  0  0  0  0  0  0  0  0  0  0  0
   60.1440   32.8800   49.9590 C   0  0  0  0  0  0  0  0  0  0  0  0
   59.3000   33.4030   50.9530 C   0  0  0  0  0  0  0  0  0  0  0  0
   58.2650   32.6300   51.4880 C   0  0  0  0  0  0  0  0  0  0  0  0
   58.0520   31.3150   51.0420 C   0  0  0  0  0  0  0  0  0  0  0  0
   56.9820   30.5240   51.5920 N   0  0  0  0  0  0  0  0  0  0  0  0
   57.1950   29.3650   52.0060 O   0  0  0  0  0  0  0  0  0  0  0  0
   55.7010   31.0240   51.6480 O   0  0  0  0  0  0  0  0  0  0  0  0
   58.8980   30.7890   50.0500 C   0  0  0  0  0  0  0  0  0  0  0  0
   59.9320   31.5620   49.5140 C   0  0  0  0  0  0  0  0  0  0  0  0
   59.9550   32.5410   46.3820 C   0  0  0  0  0  0  0  0  0  0  0  0
   55.1360   27.5080   45.5560 H   0  0  0  0  0  0  0  0  0  0  0  0
   55.1570   26.1410   46.7080 H   0  0  0  0  0  0  0  0  0  0  0  0
   57.3673   24.8847   46.7629 H   0  0  0  0  0  0  0  0  0  0  0  0
   59.8476   25.0434   46.9548 H   0  0  0  0  0  0  0  0  0  0  0  0
   60.9962   27.2178   46.5435 H   0  0  0  0  0  0  0  0  0  0  0  0
   59.6690   29.2424   45.9473 H   0  0  0  0  0  0  0  0  0  0  0  0
   57.5441   29.3552   42.7793 H   0  0  0  0  0  0  0  0  0  0  0  0
   56.0988   30.4259   42.5322 H   0  0  0  0  0  0  0  0  0  0  0  0
   58.7760   30.4370   45.1830 H   0  0  0  0  0  0  0  0  0  0  0  0
   57.6205   33.8185   44.2285 H   0  0  0  0  0  0  0  0  0  0  0  0
   58.3597   35.9335   45.3184 H   0  0  0  0  0  0  0  0  0  0  0  0
   60.1249   35.8862   47.0767 H   0  0  0  0  0  0  0  0  0  0  0  0
   59.4549   34.4305   51.3138 H   0  0  0  0  0  0  0  0  0  0  0  0
   57.6121   33.0551   52.2646 H   0  0  0  0  0  0  0  0  0  0  0  0
   58.7449   29.7601   49.6925 H   0  0  0  0  0  0  0  0  0  0  0  0
   60.5853   31.1365   48.7380 H   0  0  0  0  0  0  0  0  0  0  0  0
   60.3994   31.5829   46.6895 H   0  0  0  0  0  0  0  0  0  0  0  0
  1  2  1  0
  2  3  2  0
  3  4  1  0
  4  5  2  0
  5  6  1  0
  6  7  2  0
  7  8  1  0
  8  9  1  0
  9 10  2  0
  9 11  1  0
 11 12  1  0
 12 13  2  0
 12 14  1  0
 14 15  1  0
 15 16  2  0
 16 17  1  0
 17 18  2  0
 18 19  1  0
 19 20  1  0
 20 21  1  0
 21 22  2  0
 21 23  1  0
 23 24  2  0
 24 25  1  0
 25 26  2  0
 26 27  1  0
 27 28  2  0
 27 29  1  0
 26 30  1  0
 30 31  2  0
 19 32  2  0
  7  2  1  0
 32 15  1  0
 31 23  1  0
  1 33  1  0
  1 34  1  0
  3 35  1  0
  4 36  1  0
  5 37  1  0
  6 38  1  0
 11 39  1  0
 11 40  1  0
 14 41  1  0
 16 42  1  0
 17 43  1  0
 18 44  1  0
 24 45  1  0
 25 46  1  0
 30 47  1  0
 31 48  1  0
 32 49  1  0
M  CHG  4   8  -1  20  -1  27   1  29  -1
M  END
>  <UniqueID>  (53) 
53

>  <SMILES>  (53) 
Nc1ccccc1[N-]C(=O)CC(=O)Nc1cccc([N-]C(=O)c2ccc([N+](=O)[O-])cc2)c1

>  <Energy>  (53) 
61.07239944514605

>  <Genealogy>  (53) 
Nc1ccccc1[N-]C(=O)CC(=O)Nc1cccc([N-]C(=O)c2ccc([N+](=O)[O-])cc2)c1 (protonated)
Nc1ccccc1[N-]C(=O)CC(=O)Nc1cccc([N-]C(=O)c2ccc([N+](=O)[O-])cc2)c1 (3D coordinates assigned)
Nc1ccccc1[N-]C(=O)CC(=O)Nc1cccc([N-]C(=O)c2ccc([N+](=O)[O-])cc2)c1 (optimized conformer: 61.07239944514605 kcal/mol)

>  <smiles>  (53) 
Nc1ccccc1NC(=O)CC(=O)Nc1cccc(NC(=O)c2ccc([N+](=O)[O-])cc2)c1

>  <score_type>  (53) 
oracle

>  <origin>  (53) 
adg

>  <m_score__min__energy>  (53) 
-12.449999999999999

>  <m_primary>  (53) 
energy

$$$$
53:0
     RDKit          3D

 52 55  0  0  0  0  0  0  0  0999 V2000
   59.3930   27.8200   45.5260 O   0  0  0  0  0  0  0  0  0  0  0  0
   58.7880   28.2230   46.5560 C   0  0  0  0  0  0  0  0  0  0  0  0
   57.7860   27.3350   47.2250 C   0  0  0  0  0  0  0  0  0  0  0  0
   57.4470   26.2170   46.3460 N   0  0  0  0  0  0  0  0  0  0  0  0
   58.2600   25.1980   45.9870 C   0  0  0  0  0  0  0  0  0  0  0  0
   59.5930   25.0890   46.3660 O   0  0  0  0  0  0  0  0  0  0  0  0
   57.5700   24.2790   45.2210 C   0  0  0  0  0  0  0  0  0  0  0  0
   56.2710   24.7300   45.1490 C   0  0  0  0  0  0  0  0  0  0  0  0
   56.2300   25.9250   45.8360 C   0  0  0  0  0  0  0  0  0  0  0  0
   55.1020   26.7190   46.0020 O   0  0  0  0  0  0  0  0  0  0  0  0
   55.1830   24.0360   44.3880 C   0  0  0  0  0  0  0  0  0  0  0  0
   55.5570   22.5570   44.1540 C   0  0  0  0  0  0  0  0  0  0  0  0
   57.0160   22.4020   43.6710 C   0  0  0  0  0  0  0  0  0  0  0  0
   58.0250   22.9480   44.7030 C   0  0  0  0  0  0  0  0  0  0  0  0
   59.0910   29.4980   47.1360 N   0  0  0  0  0  0  0  0  0  0  0  0
   58.8490   30.7850   46.5490 C   0  0  0  0  0  0  0  0  0  0  0  0
   58.0220   30.9500   45.4240 C   0  0  0  0  0  0  0  0  0  0  0  0
   57.8050   32.2250   44.8940 C   0  0  0  0  0  0  0  0  0  0  0  0
   58.3980   33.3430   45.4860 C   0  0  0  0  0  0  0  0  0  0  0  0
   59.2010   33.1930   46.6230 C   0  0  0  0  0  0  0  0  0  0  0  0
   59.9640   34.6040   47.3520 S   0  0  0  0  0  0  0  0  0  0  0  0
   59.2410   34.9780   48.6160 O   0  0  0  0  0  0  0  0  0  0  0  0
   59.8720   35.7560   46.3900 O   0  0  0  0  0  0  0  0  0  0  0  0
   61.6410   34.2560   47.6930 N   0  0  0  0  0  0  0  0  0  0  0  0
   62.3130   33.7530   46.4800 C   0  0  0  0  0  0  0  0  0  0  0  0
   63.6660   33.1000   46.8270 C   0  0  0  0  0  0  0  0  0  0  0  0
   64.1010   33.5040   48.1110 O   0  0  0  0  0  0  0  0  0  0  0  0
   63.2230   32.9930   49.1010 C   0  0  0  0  0  0  0  0  0  0  0  0
   61.7380   33.2690   48.7780 C   0  0  0  0  0  0  0  0  0  0  0  0
   59.4200   31.9130   47.1540 C   0  0  0  0  0  0  0  0  0  0  0  0
   58.2112   26.9463   48.1621 H   0  0  0  0  0  0  0  0  0  0  0  0
   56.8763   27.9142   47.4417 H   0  0  0  0  0  0  0  0  0  0  0  0
   54.2470   24.0875   44.9636 H   0  0  0  0  0  0  0  0  0  0  0  0
   55.0528   24.5319   43.4148 H   0  0  0  0  0  0  0  0  0  0  0  0
   55.4342   22.0054   45.0977 H   0  0  0  0  0  0  0  0  0  0  0  0
   54.8945   22.1571   43.3722 H   0  0  0  0  0  0  0  0  0  0  0  0
   57.2230   21.3350   43.5014 H   0  0  0  0  0  0  0  0  0  0  0  0
   57.1310   22.9808   42.7427 H   0  0  0  0  0  0  0  0  0  0  0  0
   58.1054   22.2405   45.5414 H   0  0  0  0  0  0  0  0  0  0  0  0
   59.0043   23.0688   44.2168 H   0  0  0  0  0  0  0  0  0  0  0  0
   57.5449   30.0741   44.9601 H   0  0  0  0  0  0  0  0  0  0  0  0
   57.1652   32.3486   44.0078 H   0  0  0  0  0  0  0  0  0  0  0  0
   58.2337   34.3429   45.0580 H   0  0  0  0  0  0  0  0  0  0  0  0
   61.6673   33.0062   45.9948 H   0  0  0  0  0  0  0  0  0  0  0  0
   62.4969   34.6014   45.8045 H   0  0  0  0  0  0  0  0  0  0  0  0
   63.5535   32.0059   46.8115 H   0  0  0  0  0  0  0  0  0  0  0  0
   64.4128   33.4172   46.0843 H   0  0  0  0  0  0  0  0  0  0  0  0
   63.3710   31.9056   49.1757 H   0  0  0  0  0  0  0  0  0  0  0  0
   63.4577   33.5006   50.0483 H   0  0  0  0  0  0  0  0  0  0  0  0
   61.2520   32.3331   48.4652 H   0  0  0  0  0  0  0  0  0  0  0  0
   61.2379   33.6638   49.6747 H   0  0  0  0  0  0  0  0  0  0  0  0
   60.0444   31.7938   48.0517 H   0  0  0  0  0  0  0  0  0  0  0  0
  1  2  2  0
  2  3  1  0
  3  4  1  0
  4  5  1  0
  5  6  1  0
  5  7  2  0
  7  8  1  0
  8  9  2  0
  9 10  1  0
  8 11  1  0
 11 12  1  0
 12 13  1  0
 13 14  1  0
  2 15  1  0
 15 16  1  0
 16 17  2  0
 17 18  1  0
 18 19  2  0
 19 20  1  0
 20 21  1  0
 21 22  2  0
 21 23  2  0
 21 24  1  0
 24 25  1  0
 25 26  1  0
 26 27  1  0
 27 28  1  0
 28 29  1  0
 20 30  2  0
  9  4  1  0
 30 16  1  0
 14  7  1  0
 29 24  1  0
  3 31  1  0
  3 32  1  0
 11 33  1  0
 11 34  1  0
 12 35  1  0
 12 36  1  0
 13 37  1  0
 13 38  1  0
 14 39  1  0
 14 40  1  0
 17 41  1  0
 18 42  1  0
 19 43  1  0
 25 44  1  0
 25 45  1  0
 26 46  1  0
 26 47  1  0
 28 48  1  0
 28 49  1  0
 29 50  1  0
 29 51  1  0
 30 52  1  0
M  CHG  3   6  -1  10  -1  15  -1
M  END
>  <UniqueID>  (54) 
54

>  <SMILES>  (54) 
O=C(Cn1c([O-])c2c(c1[O-])CCCC2)[N-]c1cccc(S(=O)(=O)N2CCOCC2)c1

>  <Energy>  (54) 
91.510360744565

>  <Genealogy>  (54) 
O=C(Cn1c([O-])c2c(c1[O-])CCCC2)[N-]c1cccc(S(=O)(=O)N2CCOCC2)c1 (protonated)
O=C(Cn1c([O-])c2c(c1[O-])CCCC2)[N-]c1cccc(S(=O)(=O)N2CCOCC2)c1 (3D coordinates assigned)
O=C(Cn1c([O-])c2c(c1[O-])CCCC2)[N-]c1cccc(S(=O)(=O)N2CCOCC2)c1 (nonaromatic ring conformer: 91.510360744565 kcal/mol)

>  <smiles>  (54) 
O=C(Cn1c(O)c2c(c1O)CCCC2)Nc1cccc(S(=O)(=O)N2CCOCC2)c1

>  <score_type>  (54) 
oracle

>  <origin>  (54) 
adg

>  <m_score__min__energy>  (54) 
-15.640000000000001

>  <m_primary>  (54) 
energy

$$$$
54:0
     RDKit          3D

 33 35  0  0  0  0  0  0  0  0999 V2000
   56.4800   31.7230   43.2890 H   0  0  0  0  0  0  0  0  0  0  0  0
   56.7300   30.9650   44.0460 C   0  0  0  0  0  0  0  0  0  0  0  0
   56.2340   29.3590   44.0330 S   0  0  0  0  0  0  0  0  0  0  0  0
   57.0380   28.9880   45.4660 C   0  0  0  0  0  0  0  0  0  0  0  0
   57.0540   27.8360   46.0720 N   0  0  0  0  0  0  0  0  0  0  0  0
   56.4110   26.6220   45.6540 C   0  0  0  0  0  0  0  0  0  0  0  0
   55.2580   26.3150   46.0590 O   0  0  0  0  0  0  0  0  0  0  0  0
   57.1390   25.6920   44.7370 C   0  0  0  0  0  0  0  0  0  0  0  0
   58.0594   26.1800   44.3838 H   0  0  0  0  0  0  0  0  0  0  0  0
   56.4851   25.4500   43.8862 H   0  0  0  0  0  0  0  0  0  0  0  0
   57.5750   24.1440   45.6020 S   0  0  0  0  0  0  0  0  0  0  0  0
   56.8650   23.0690   44.3520 C   0  0  0  0  0  0  0  0  0  0  0  0
   56.3020   23.5060   43.2100 N   0  0  0  0  0  0  0  0  0  0  0  0
   55.9390   22.4040   42.5650 N   0  0  0  0  0  0  0  0  0  0  0  0
   56.2690   21.3320   43.2720 N   0  0  0  0  0  0  0  0  0  0  0  0
   56.8350   21.7260   44.3980 N   0  0  0  0  0  0  0  0  0  0  0  0
   57.4470   20.8350   45.3750 C   0  0  0  0  0  0  0  0  0  0  0  0
   57.2073   21.1840   46.3903 H   0  0  0  0  0  0  0  0  0  0  0  0
   57.0575   19.8157   45.2362 H   0  0  0  0  0  0  0  0  0  0  0  0
   58.5382   20.8327   45.2362 H   0  0  0  0  0  0  0  0  0  0  0  0
   57.6790   30.0640   45.9640 N   0  0  0  0  0  0  0  0  0  0  0  0
   57.5160   31.1720   45.1860 C   0  0  0  0  0  0  0  0  0  0  0  0
   58.1460   32.4700   45.5470 C   0  0  0  0  0  0  0  0  0  0  0  0
   58.3310   33.4560   44.5580 C   0  0  0  0  0  0  0  0  0  0  0  0
   58.0062   33.2605   43.5254 H   0  0  0  0  0  0  0  0  0  0  0  0
   58.9240   34.6810   44.8780 C   0  0  0  0  0  0  0  0  0  0  0  0
   59.0621   35.4441   44.0978 H   0  0  0  0  0  0  0  0  0  0  0  0
   59.3410   34.9380   46.1840 C   0  0  0  0  0  0  0  0  0  0  0  0
   59.8044   35.9039   46.4336 H   0  0  0  0  0  0  0  0  0  0  0  0
   59.1700   33.9690   47.1740 C   0  0  0  0  0  0  0  0  0  0  0  0
   59.5017   34.1716   48.2030 H   0  0  0  0  0  0  0  0  0  0  0  0
   58.5780   32.7410   46.8610 C   0  0  0  0  0  0  0  0  0  0  0  0
   58.4486   31.9813   47.6459 H   0  0  0  0  0  0  0  0  0  0  0  0
  1  2  1  0
  2  3  1  0
  3  4  1  0
  4  5  2  0
  5  6  1  0
  6  7  2  0
  6  8  1  0
  8  9  1  0
  8 10  1  0
  8 11  1  0
 11 12  1  0
 12 13  2  0
 13 14  1  0
 14 15  2  0
 15 16  1  0
 16 17  1  0
 17 18  1  0
 17 19  1  0
 17 20  1  0
  4 21  1  0
 21 22  1  0
 22 23  1  0
 23 24  2  0
 24 25  1  0
 24 26  1  0
 26 27  1  0
 26 28  2  0
 28 29  1  0
 28 30  1  0
 30 31  1  0
 30 32  2  0
 32 33  1  0
 22  2  2  0
 32 23  1  0
 16 12  1  0
M  CHG  1  21  -1
M  END
>  <UniqueID>  (55) 
55

>  <SMILES>  (55) 
Cn1nnnc1SCC(=O)/N=c1/[n-]c(-c2ccccc2)cs1

>  <Energy>  (55) 
104.95432195888748

>  <Genealogy>  (55) 
Cn1nnnc1SCC(=O)N=c1[n-]c(-c2ccccc2)cs1 (protonated)
Cn1nnnc1SCC(=O)/N=c1/[n-]c(-c2ccccc2)cs1 (cis-trans isomerization)
Cn1nnnc1SCC(=O)/N=c1/[n-]c(-c2ccccc2)cs1 (3D coordinates assigned)
Cn1nnnc1SCC(=O)/N=c1/[n-]c(-c2ccccc2)cs1 (optimized conformer: 104.95432195888748 kcal/mol)

>  <smiles>  (55) 
Cn1nnnc1SCC(=O)N=c1[nH]c(-c2ccccc2)cs1

>  <score_type>  (55) 
oracle

>  <origin>  (55) 
adg

>  <m_score__min__energy>  (55) 
-10.369999999999999

>  <m_primary>  (55) 
energy

$$$$
55:0
     RDKit          3D

 61 64  0  0  0  0  0  0  0  0999 V2000
   55.1570   29.2740   44.8110 N   0  0  0  0  0  0  0  0  0  0  0  0
   56.8790   29.3350   44.9350 S   0  0  0  0  0  0  0  0  0  0  0  0
   57.2860   29.0390   46.3510 O   0  0  0  0  0  0  0  0  0  0  0  0
   57.4890   28.2960   44.0340 O   0  0  0  0  0  0  0  0  0  0  0  0
   57.4450   30.9380   44.4770 C   0  0  0  0  0  0  0  0  0  0  0  0
   57.6780   31.2390   43.1290 C   0  0  0  0  0  0  0  0  0  0  0  0
   58.1510   32.5010   42.7650 C   0  0  0  0  0  0  0  0  0  0  0  0
   58.3870   33.4700   43.7430 C   0  0  0  0  0  0  0  0  0  0  0  0
   58.1430   33.1900   45.0940 C   0  0  0  0  0  0  0  0  0  0  0  0
   58.3970   34.1970   46.0400 O   0  0  0  0  0  0  0  0  0  0  0  0
   59.6020   34.3780   46.7300 C   0  0  0  0  0  0  0  0  0  0  0  0
   59.9800   35.5310   47.0770 O   0  0  0  0  0  0  0  0  0  0  0  0
   60.4480   33.2420   46.9540 N   0  0  0  0  0  0  0  0  0  0  0  0
   61.6490   33.2900   47.7440 C   0  0  0  0  0  0  0  0  0  0  0  0
   62.9050   33.0970   47.1470 C   0  0  0  0  0  0  0  0  0  0  0  0
   64.0720   33.1710   47.9130 C   0  0  0  0  0  0  0  0  0  0  0  0
   63.9960   33.4450   49.2800 C   0  0  0  0  0  0  0  0  0  0  0  0
   62.7540   33.6530   49.8840 C   0  0  0  0  0  0  0  0  0  0  0  0
   61.5680   33.5750   49.1220 C   0  0  0  0  0  0  0  0  0  0  0  0
   60.2980   33.7640   49.6920 O   0  0  0  0  0  0  0  0  0  0  0  0
   59.2410   32.8050   49.7070 C   0  0  0  0  0  0  0  0  0  0  0  0
   58.6790   32.6420   51.1240 C   0  0  0  0  0  0  0  0  0  0  0  0
   59.3450   31.5200   51.8210 N   0  0  0  0  0  0  0  0  0  0  0  0
   58.5400   30.2800   51.7570 C   0  0  0  0  0  0  0  0  0  0  0  0
   58.5070   29.7010   50.3310 C   0  0  0  0  0  0  0  0  0  0  0  0
   59.8340   29.7680   49.7120 N   0  0  0  0  0  0  0  0  0  0  0  0
   59.9820   29.4320   48.3220 C   0  0  0  0  0  0  0  0  0  0  0  0
   59.9030   28.0960   47.8850 C   0  0  0  0  0  0  0  0  0  0  0  0
   60.0580   27.8100   46.5270 C   0  0  0  0  0  0  0  0  0  0  0  0
   60.3010   28.8450   45.6200 C   0  0  0  0  0  0  0  0  0  0  0  0
   60.3940   30.1560   46.0890 C   0  0  0  0  0  0  0  0  0  0  0  0
   60.2390   30.4170   47.4150 N   0  0  0  0  0  0  0  0  0  0  0  0
   60.9950   30.0470   50.5640 C   0  0  0  0  0  0  0  0  0  0  0  0
   60.7560   31.3300   51.3820 C   0  0  0  0  0  0  0  0  0  0  0  0
   57.6930   31.9070   45.4590 C   0  0  0  0  0  0  0  0  0  0  0  0
   54.7790   29.3700   45.7800 H   0  0  0  0  0  0  0  0  0  0  0  0
   57.4880   30.4798   42.3560 H   0  0  0  0  0  0  0  0  0  0  0  0
   58.3382   32.7327   41.7061 H   0  0  0  0  0  0  0  0  0  0  0  0
   58.7671   34.4599   43.4504 H   0  0  0  0  0  0  0  0  0  0  0  0
   60.2140   32.3570   46.4450 H   0  0  0  0  0  0  0  0  0  0  0  0
   62.9712   32.8862   46.0694 H   0  0  0  0  0  0  0  0  0  0  0  0
   65.0516   33.0131   47.4381 H   0  0  0  0  0  0  0  0  0  0  0  0
   64.9153   33.4971   49.8819 H   0  0  0  0  0  0  0  0  0  0  0  0
   62.6996   33.8788   50.9592 H   0  0  0  0  0  0  0  0  0  0  0  0
   58.4373   33.1426   49.0362 H   0  0  0  0  0  0  0  0  0  0  0  0
   59.6372   31.8359   49.3694 H   0  0  0  0  0  0  0  0  0  0  0  0
   58.8481   33.5704   51.6892 H   0  0  0  0  0  0  0  0  0  0  0  0
   57.6019   32.4291   51.0566 H   0  0  0  0  0  0  0  0  0  0  0  0
   58.9788   29.5337   52.4356 H   0  0  0  0  0  0  0  0  0  0  0  0
   57.5092   30.5223   52.0548 H   0  0  0  0  0  0  0  0  0  0  0  0
   58.1822   28.6510   50.3754 H   0  0  0  0  0  0  0  0  0  0  0  0
   57.8049   30.2933   49.7258 H   0  0  0  0  0  0  0  0  0  0  0  0
   59.7210   27.2855   48.6061 H   0  0  0  0  0  0  0  0  0  0  0  0
   59.9889   26.7713   46.1716 H   0  0  0  0  0  0  0  0  0  0  0  0
   60.4177   28.6286   44.5478 H   0  0  0  0  0  0  0  0  0  0  0  0
   60.5927   30.9786   45.3862 H   0  0  0  0  0  0  0  0  0  0  0  0
   61.1537   29.2023   51.2505 H   0  0  0  0  0  0  0  0  0  0  0  0
   61.8824   30.1854   49.9288 H   0  0  0  0  0  0  0  0  0  0  0  0
   61.3938   31.2921   52.2774 H   0  0  0  0  0  0  0  0  0  0  0  0
   60.9984   32.1758   50.7218 H   0  0  0  0  0  0  0  0  0  0  0  0
   57.5352   31.6637   46.5201 H   0  0  0  0  0  0  0  0  0  0  0  0
  1  2  1  0
  2  3  2  0
  2  4  2  0
  2  5  1  0
  5  6  2  0
  6  7  1  0
  7  8  2  0
  8  9  1  0
  9 10  1  0
 10 11  1  0
 11 12  2  0
 11 13  1  0
 13 14  1  0
 14 15  2  0
 15 16  1  0
 16 17  2  0
 17 18  1  0
 18 19  2  0
 19 20  1  0
 20 21  1  0
 21 22  1  0
 22 23  1  0
 23 24  1  0
 24 25  1  0
 25 26  1  0
 26 27  1  0
 27 28  2  0
 28 29  1  0
 29 30  2  0
 30 31  1  0
 31 32  2  0
 26 33  1  0
 33 34  1  0
  9 35  2  0
 35  5  1  0
 19 14  1  0
 34 23  1  0
 32 27  1  0
  1 36  1  0
  6 37  1  0
  7 38  1  0
  8 39  1  0
 13 40  1  0
 15 41  1  0
 16 42  1  0
 17 43  1  0
 18 44  1  0
 21 45  1  0
 21 46  1  0
 22 47  1  0
 22 48  1  0
 24 49  1  0
 24 50  1  0
 25 51  1  0
 25 52  1  0
 28 53  1  0
 29 54  1  0
 30 55  1  0
 31 56  1  0
 33 57  1  0
 33 58  1  0
 34 59  1  0
 34 60  1  0
 35 61  1  0
M  CHG  1   1  -1
M  END
>  <UniqueID>  (56) 
56

>  <SMILES>  (56) 
[NH-]S(=O)(=O)c1cccc(OC(=O)Nc2ccccc2OCCN2CCN(c3ccccn3)CC2)c1

>  <Energy>  (56) 
83.04991904546962

>  <Genealogy>  (56) 
[NH-]S(=O)(=O)c1cccc(OC(=O)Nc2ccccc2OCCN2CCN(c3ccccn3)CC2)c1 (protonated)
[NH-]S(=O)(=O)c1cccc(OC(=O)Nc2ccccc2OCCN2CCN(c3ccccn3)CC2)c1 (3D coordinates assigned)
[NH-]S(=O)(=O)c1cccc(OC(=O)Nc2ccccc2OCCN2CCN(c3ccccn3)CC2)c1 (nonaromatic ring conformer: 83.04991904546962 kcal/mol)

>  <smiles>  (56) 
NS(=O)(=O)c1cccc(OC(=O)Nc2ccccc2OCCN2CCN(c3ccccn3)CC2)c1

>  <score_type>  (56) 
oracle

>  <origin>  (56) 
adg

>  <m_score__min__energy>  (56) 
-12.91

>  <m_primary>  (56) 
energy

$$$$
56:0
     RDKit          3D

 45 47  0  0  0  0  0  0  0  0999 V2000
   60.4935   26.8810   46.7078 H   0  0  0  0  0  0  0  0  0  0  0  0
   59.7950   27.5430   46.1750 C   0  0  0  0  0  0  0  0  0  0  0  0
   58.4190   27.4180   46.3820 C   0  0  0  0  0  0  0  0  0  0  0  0
   58.0355   26.6612   47.0821 H   0  0  0  0  0  0  0  0  0  0  0  0
   57.5290   28.2530   45.7010 C   0  0  0  0  0  0  0  0  0  0  0  0
   56.4469   28.1576   45.8741 H   0  0  0  0  0  0  0  0  0  0  0  0
   58.0110   29.2140   44.7960 C   0  0  0  0  0  0  0  0  0  0  0  0
   57.0520   30.1120   44.0580 C   0  0  0  0  0  0  0  0  0  0  0  0
   56.1523   29.5363   43.7950 H   0  0  0  0  0  0  0  0  0  0  0  0
   57.5531   30.4860   43.1530 H   0  0  0  0  0  0  0  0  0  0  0  0
   56.6700   31.2330   44.8580 O   0  0  0  0  0  0  0  0  0  0  0  0
   57.5230   32.2800   45.2460 C   0  0  0  0  0  0  0  0  0  0  0  0
   57.4600   33.4850   44.5360 C   0  0  0  0  0  0  0  0  0  0  0  0
   56.7488   33.5918   43.7037 H   0  0  0  0  0  0  0  0  0  0  0  0
   58.2940   34.5530   44.8770 C   0  0  0  0  0  0  0  0  0  0  0  0
   58.2281   35.5001   44.3214 H   0  0  0  0  0  0  0  0  0  0  0  0
   59.2120   34.4200   45.9230 C   0  0  0  0  0  0  0  0  0  0  0  0
   59.8673   35.2631   46.1872 H   0  0  0  0  0  0  0  0  0  0  0  0
   59.3010   33.2160   46.6370 C   0  0  0  0  0  0  0  0  0  0  0  0
   60.2590   33.0890   47.7050 N   0  0  0  0  0  0  0  0  0  0  0  0
   61.2350   32.8160   47.4610 H   0  0  0  0  0  0  0  0  0  0  0  0
   59.8690   32.9150   49.0740 C   0  0  0  0  0  0  0  0  0  0  0  0
   58.5040   32.7170   49.3510 C   0  0  0  0  0  0  0  0  0  0  0  0
   57.7680   32.7966   48.5374 H   0  0  0  0  0  0  0  0  0  0  0  0
   58.0830   32.4290   50.6090 N   0  0  0  0  0  0  0  0  0  0  0  0
   57.0640   32.2840   50.7860 H   0  0  0  0  0  0  0  0  0  0  0  0
   58.9590   32.3090   51.6370 C   0  0  0  0  0  0  0  0  0  0  0  0
   58.5923   32.0651   52.6450 H   0  0  0  0  0  0  0  0  0  0  0  0
   60.3230   32.4940   51.4190 C   0  0  0  0  0  0  0  0  0  0  0  0
   61.0278   32.3863   52.2567 H   0  0  0  0  0  0  0  0  0  0  0  0
   60.8060   32.8160   50.1430 C   0  0  0  0  0  0  0  0  0  0  0  0
   62.0900   33.0420   50.0490 N   0  0  0  0  0  0  0  0  0  0  0  0
   63.2170   32.8610   48.7360 S   0  0  0  0  0  0  0  0  0  0  0  0
   62.9090   31.5630   48.0450 O   0  0  0  0  0  0  0  0  0  0  0  0
   63.0530   33.9700   47.7360 O   0  0  0  0  0  0  0  0  0  0  0  0
   64.8930   32.7660   49.3340 C   0  0  0  0  0  0  0  0  0  0  0  0
   64.8904   32.7661   50.4340 H   0  0  0  0  0  0  0  0  0  0  0  0
   65.3608   31.8399   48.9686 H   0  0  0  0  0  0  0  0  0  0  0  0
   65.4624   33.6333   48.9686 H   0  0  0  0  0  0  0  0  0  0  0  0
   58.4350   32.1580   46.3110 C   0  0  0  0  0  0  0  0  0  0  0  0
   58.4704   31.2258   46.8938 H   0  0  0  0  0  0  0  0  0  0  0  0
   59.3970   29.3440   44.6050 C   0  0  0  0  0  0  0  0  0  0  0  0
   59.7860   30.1055   43.9131 H   0  0  0  0  0  0  0  0  0  0  0  0
   60.2840   28.5080   45.2920 C   0  0  0  0  0  0  0  0  0  0  0  0
   61.3680   28.6110   45.1363 H   0  0  0  0  0  0  0  0  0  0  0  0
  1  2  1  0
  2  3  2  0
  3  4  1  0
  3  5  1  0
  5  6  1  0
  5  7  2  0
  7  8  1  0
  8  9  1  0
  8 10  1  0
  8 11  1  0
 11 12  1  0
 12 13  2  0
 13 14  1  0
 13 15  1  0
 15 16  1  0
 15 17  2  0
 17 18  1  0
 17 19  1  0
 19 20  1  0
 20 21  1  0
 20 22  1  0
 22 23  2  0
 23 24  1  0
 23 25  1  0
 25 26  1  0
 25 27  1  0
 27 28  1  0
 27 29  2  0
 29 30  1  0
 29 31  1  0
 31 32  2  0
 32 33  1  0
 33 34  2  0
 33 35  2  0
 33 36  1  0
 36 37  1  0
 36 38  1  0
 36 39  1  0
 19 40  2  0
 40 41  1  0
  7 42  1  0
 42 43  1  0
 42 44  2  0
 44 45  1  0
 44  2  1  0
 40 12  1  0
 31 22  1  0
M  END
>  <UniqueID>  (57) 
57

>  <SMILES>  (57) 
CS(=O)(=O)/N=c1/cc[nH]cc1Nc1cccc(OCc2ccccc2)c1

>  <Energy>  (57) 
60.69562232146807

>  <Genealogy>  (57) 
CS(=O)(=O)/N=c1/cc[nH]cc1Nc1cccc(OCc2ccccc2)c1 (cis-trans isomerization)
CS(=O)(=O)/N=c1/cc[nH]cc1Nc1cccc(OCc2ccccc2)c1 (3D coordinates assigned)
CS(=O)(=O)/N=c1/cc[nH]cc1Nc1cccc(OCc2ccccc2)c1 (optimized conformer: 60.69562232146807 kcal/mol)

>  <smiles>  (57) 
CS(=O)(=O)N=c1cc[nH]cc1Nc1cccc(OCc2ccccc2)c1

>  <score_type>  (57) 
oracle

>  <origin>  (57) 
adg

>  <m_score__min__energy>  (57) 
-8.0899999999999999

>  <m_primary>  (57) 
energy

$$$$
57:0
     RDKit          3D

 63 65  0  0  0  0  0  0  0  0999 V2000
   63.7690   32.7650   46.7840 C   0  0  0  0  0  0  0  0  0  0  0  0
   62.5900   33.3460   47.5150 C   0  0  0  0  0  0  0  0  0  0  0  0
   61.3440   33.4650   46.8840 C   0  0  0  0  0  0  0  0  0  0  0  0
   60.2570   33.9590   47.5590 N   0  0  0  0  0  0  0  0  0  0  0  0
   58.9520   34.0840   46.8750 C   0  0  1  0  0  0  0  0  0  0  0  0
   59.0690   34.9590   45.6310 C   0  0  0  0  0  0  0  0  0  0  0  0
   58.1200   34.2980   44.6680 C   0  0  2  0  0  0  0  0  0  0  0  0
   56.8310   34.8670   44.7500 O   0  0  0  0  0  0  0  0  0  0  0  0
   58.1630   32.8350   45.1280 C   0  0  2  0  0  0  0  0  0  0  0  0
   56.8840   32.0210   44.8410 C   0  0  0  0  0  0  0  0  0  0  0  0
   57.1420   30.6780   44.1380 C   0  0  0  0  0  0  0  0  0  0  0  0
   56.5630   29.5130   44.8850 C   0  0  0  0  0  0  0  0  0  0  0  0
   55.3170   29.3210   44.8740 O   0  0  0  0  0  0  0  0  0  0  0  0
   57.4390   28.6400   45.6120 N   0  0  0  0  0  0  0  0  0  0  0  0
   58.4200   29.0010   46.5980 C   0  0  0  0  0  0  0  0  0  0  0  0
   59.3460   30.0020   46.2770 C   0  0  0  0  0  0  0  0  0  0  0  0
   60.3390   30.3710   47.1910 C   0  0  0  0  0  0  0  0  0  0  0  0
   60.4300   29.7250   48.4350 C   0  0  0  0  0  0  0  0  0  0  0  0
   61.4980   30.1200   49.4180 C   0  0  0  0  0  0  0  0  0  0  0  0
   60.8960   30.8550   50.5730 C   0  0  0  0  0  0  0  0  0  0  0  0
   61.6210   31.6160   51.2710 O   0  0  0  0  0  0  0  0  0  0  0  0
   59.5280   30.6840   50.8540 O   0  0  0  0  0  0  0  0  0  0  0  0
   58.5350   31.7180   50.9010 C   0  0  0  0  0  0  0  0  0  0  0  0
   58.1620   32.1790   49.4760 C   0  0  0  0  0  0  0  0  0  0  0  0
   57.2870   31.1180   51.5680 C   0  0  0  0  0  0  0  0  0  0  0  0
   59.0330   32.9070   51.7450 C   0  0  0  0  0  0  0  0  0  0  0  0
   59.5060   28.7160   48.7590 C   0  0  0  0  0  0  0  0  0  0  0  0
   58.5180   28.3440   47.8420 C   0  0  0  0  0  0  0  0  0  0  0  0
   58.4380   32.8130   46.5130 O   0  0  0  0  0  0  0  0  0  0  0  0
   60.4060   34.3820   48.8560 C   0  0  0  0  0  0  0  0  0  0  0  0
   59.4390   34.8930   49.4820 O   0  0  0  0  0  0  0  0  0  0  0  0
   61.6040   34.2520   49.4850 N   0  0  0  0  0  0  0  0  0  0  0  0
   62.6880   33.7370   48.8550 C   0  0  0  0  0  0  0  0  0  0  0  0
   63.7760   33.6230   49.4820 O   0  0  0  0  0  0  0  0  0  0  0  0
   64.5086   32.4005   47.5121 H   0  0  0  0  0  0  0  0  0  0  0  0
   63.4334   31.9291   46.1526 H   0  0  0  0  0  0  0  0  0  0  0  0
   64.2274   33.5404   46.1526 H   0  0  0  0  0  0  0  0  0  0  0  0
   61.2365   33.1580   45.8332 H   0  0  0  0  0  0  0  0  0  0  0  0
   58.2569   34.5583   47.5834 H   0  0  0  0  0  0  0  0  0  0  0  0
   58.7610   35.9934   45.8437 H   0  0  0  0  0  0  0  0  0  0  0  0
   60.0969   35.0345   45.2468 H   0  0  0  0  0  0  0  0  0  0  0  0
   58.3905   34.4161   43.6083 H   0  0  0  0  0  0  0  0  0  0  0  0
   56.4550   34.6710   45.6500 H   0  0  0  0  0  0  0  0  0  0  0  0
   58.9522   32.3458   44.5382 H   0  0  0  0  0  0  0  0  0  0  0  0
   56.3803   31.8194   45.7979 H   0  0  0  0  0  0  0  0  0  0  0  0
   56.2690   32.6250   44.1576 H   0  0  0  0  0  0  0  0  0  0  0  0
   56.6903   30.7130   43.1356 H   0  0  0  0  0  0  0  0  0  0  0  0
   58.2312   30.5327   44.0884 H   0  0  0  0  0  0  0  0  0  0  0  0
   59.2920   30.5018   45.2986 H   0  0  0  0  0  0  0  0  0  0  0  0
   61.0507   31.1696   46.9346 H   0  0  0  0  0  0  0  0  0  0  0  0
   62.0033   29.2155   49.7874 H   0  0  0  0  0  0  0  0  0  0  0  0
   62.2217   30.7776   48.9142 H   0  0  0  0  0  0  0  0  0  0  0  0
   57.4711   33.0329   49.5359 H   0  0  0  0  0  0  0  0  0  0  0  0
   59.0727   32.4813   48.9382 H   0  0  0  0  0  0  0  0  0  0  0  0
   57.6763   31.3514   48.9382 H   0  0  0  0  0  0  0  0  0  0  0  0
   57.3949   31.1699   52.6615 H   0  0  0  0  0  0  0  0  0  0  0  0
   56.3973   31.6868   51.2599 H   0  0  0  0  0  0  0  0  0  0  0  0
   57.1756   30.0679   51.2599 H   0  0  0  0  0  0  0  0  0  0  0  0
   58.9320   32.6660   52.8135 H   0  0  0  0  0  0  0  0  0  0  0  0
   60.0897   33.1050   51.5120 H   0  0  0  0  0  0  0  0  0  0  0  0
   58.4328   33.7989   51.5120 H   0  0  0  0  0  0  0  0  0  0  0  0
   59.5605   28.2172   49.7379 H   0  0  0  0  0  0  0  0  0  0  0  0
   57.8147   27.5360   48.0919 H   0  0  0  0  0  0  0  0  0  0  0  0
  1  2  1  0
  2  3  2  0
  3  4  1  0
  4  5  1  0
  5  6  1  0
  6  7  1  0
  7  8  1  0
  7  9  1  0
  9 10  1  0
 10 11  1  0
 11 12  1  0
 12 13  2  0
 12 14  1  0
 14 15  1  0
 15 16  2  0
 16 17  1  0
 17 18  2  0
 18 19  1  0
 19 20  1  0
 20 21  2  0
 20 22  1  0
 22 23  1  0
 23 24  1  0
 23 25  1  0
 23 26  1  0
 18 27  1  0
 27 28  2  0
  9 29  1  0
  4 30  1  0
 30 31  2  0
 30 32  1  0
 32 33  1  0
 33 34  2  0
 33  2  1  0
 29  5  1  0
 28 15  1  0
  1 35  1  0
  1 36  1  0
  1 37  1  0
  3 38  1  0
  5 39  1  1
  6 40  1  0
  6 41  1  0
  7 42  1  6
  8 43  1  0
  9 44  1  6
 10 45  1  0
 10 46  1  0
 11 47  1  0
 11 48  1  0
 16 49  1  0
 17 50  1  0
 19 51  1  0
 19 52  1  0
 24 53  1  0
 24 54  1  0
 24 55  1  0
 25 56  1  0
 25 57  1  0
 25 58  1  0
 26 59  1  0
 26 60  1  0
 26 61  1  0
 27 62  1  0
 28 63  1  0
M  CHG  2  14  -1  32  -1
M  END
>  <UniqueID>  (58) 
58

>  <SMILES>  (58) 
Cc1cn([C@H]2C[C@H](O)C(CCC(=O)[N-]c3ccc(CC(=O)OC(C)(C)C)cc3)O2)c(=O)[n-]c1=O

>  <Energy>  (58) 
64.67501146858508

>  <Genealogy>  (58) 
Cc1cn(C2CC(O)C(CCC(=O)[N-]c3ccc(CC(=O)OC(C)(C)C)cc3)O2)c(=O)[n-]c1=O (protonated)
Cc1cn([C@H]2C[C@H](O)C(CCC(=O)[N-]c3ccc(CC(=O)OC(C)(C)C)cc3)O2)c(=O)[n-]c1=O (chirality)
Cc1cn([C@H]2C[C@H](O)C(CCC(=O)[N-]c3ccc(CC(=O)OC(C)(C)C)cc3)O2)c(=O)[n-]c1=O (3D coordinates assigned)
Cc1cn([C@H]2C[C@H](O)C(CCC(=O)[N-]c3ccc(CC(=O)OC(C)(C)C)cc3)O2)c(=O)[n-]c1=O (nonaromatic ring conformer: 64.67501146858508 kcal/mol)

>  <smiles>  (58) 
Cc1cn(C2CC(O)C(CCC(=O)Nc3ccc(CC(=O)OC(C)(C)C)cc3)O2)c(=O)[nH]c1=O

>  <score_type>  (58) 
oracle

>  <origin>  (58) 
adg

>  <m_score__min__energy>  (58) 
-13.210000000000001

>  <m_primary>  (58) 
energy

$$$$
58:0
     RDKit          3D

 44 46  0  0  0  0  0  0  0  0999 V2000
   59.7570   34.1440   45.2540 N   0  0  0  0  0  0  0  0  0  0  0  0
   58.2530   33.5740   45.8870 S   0  0  0  0  0  0  0  0  0  0  0  0
   57.1690   34.5690   45.5770 O   0  0  0  0  0  0  0  0  0  0  0  0
   58.3590   33.4280   47.3790 O   0  0  0  0  0  0  0  0  0  0  0  0
   57.8590   32.0180   45.1640 C   0  0  0  0  0  0  0  0  0  0  0  0
   56.6480   31.8430   44.4800 C   0  0  0  0  0  0  0  0  0  0  0  0
   56.3410   30.6090   43.9000 C   0  0  0  0  0  0  0  0  0  0  0  0
   57.2430   29.5460   43.9930 C   0  0  0  0  0  0  0  0  0  0  0  0
   58.4630   29.7150   44.6640 C   0  0  0  0  0  0  0  0  0  0  0  0
   59.6030   28.3800   44.8090 S   0  0  0  0  0  0  0  0  0  0  0  0
   59.2350   27.2850   43.8450 O   0  0  0  0  0  0  0  0  0  0  0  0
   60.9720   28.8860   44.4490 O   0  0  0  0  0  0  0  0  0  0  0  0
   59.6310   27.7610   46.4480 N   0  0  0  0  0  0  0  0  0  0  0  0
   58.3920   28.0800   47.1840 C   0  0  0  0  0  0  0  0  0  0  0  0
   57.1870   27.2810   46.6630 C   0  0  0  0  0  0  0  0  0  0  0  0
   57.5710   25.9000   46.3560 N   0  0  0  0  0  0  0  0  0  0  0  0
   56.6540   25.0360   45.6600 C   0  0  0  0  0  0  0  0  0  0  0  0
   57.1210   23.8680   45.0350 C   0  0  0  0  0  0  0  0  0  0  0  0
   56.2360   23.0250   44.3580 C   0  0  0  0  0  0  0  0  0  0  0  0
   54.8760   23.3370   44.3020 C   0  0  0  0  0  0  0  0  0  0  0  0
   54.3980   24.4910   44.9270 C   0  0  0  0  0  0  0  0  0  0  0  0
   55.2780   25.3390   45.6080 C   0  0  0  0  0  0  0  0  0  0  0  0
   54.7760   26.4690   46.2450 O   0  0  0  0  0  0  0  0  0  0  0  0
   58.8410   25.3850   46.8720 C   0  0  0  0  0  0  0  0  0  0  0  0
   59.9990   26.3220   46.4820 C   0  0  0  0  0  0  0  0  0  0  0  0
   58.7660   30.9520   45.2490 C   0  0  0  0  0  0  0  0  0  0  0  0
   59.8610   35.1360   45.5660 H   0  0  0  0  0  0  0  0  0  0  0  0
   60.5130   33.6000   45.7270 H   0  0  0  0  0  0  0  0  0  0  0  0
   55.9376   32.6790   44.3995 H   0  0  0  0  0  0  0  0  0  0  0  0
   55.3871   30.4744   43.3691 H   0  0  0  0  0  0  0  0  0  0  0  0
   56.9959   28.5749   43.5392 H   0  0  0  0  0  0  0  0  0  0  0  0
   58.5408   27.8437   48.2480 H   0  0  0  0  0  0  0  0  0  0  0  0
   58.1776   29.1490   47.0383 H   0  0  0  0  0  0  0  0  0  0  0  0
   56.3997   27.2740   47.4311 H   0  0  0  0  0  0  0  0  0  0  0  0
   56.8197   27.7576   45.7422 H   0  0  0  0  0  0  0  0  0  0  0  0
   58.1907   23.6153   45.0788 H   0  0  0  0  0  0  0  0  0  0  0  0
   56.6111   22.1142   43.8684 H   0  0  0  0  0  0  0  0  0  0  0  0
   54.1812   22.6740   43.7657 H   0  0  0  0  0  0  0  0  0  0  0  0
   53.3260   24.7339   44.8836 H   0  0  0  0  0  0  0  0  0  0  0  0
   58.7850   25.3151   47.9683 H   0  0  0  0  0  0  0  0  0  0  0  0
   59.0252   24.3909   46.4385 H   0  0  0  0  0  0  0  0  0  0  0  0
   60.8107   26.1904   47.2126 H   0  0  0  0  0  0  0  0  0  0  0  0
   60.2982   26.0473   45.4597 H   0  0  0  0  0  0  0  0  0  0  0  0
   59.7209   31.0874   45.7779 H   0  0  0  0  0  0  0  0  0  0  0  0
  1  2  1  0
  2  3  2  0
  2  4  2  0
  2  5  1  0
  5  6  2  0
  6  7  1  0
  7  8  2  0
  8  9  1  0
  9 10  1  0
 10 11  2  0
 10 12  2  0
 10 13  1  0
 13 14  1  0
 14 15  1  0
 15 16  1  0
 16 17  1  0
 17 18  2  0
 18 19  1  0
 19 20  2  0
 20 21  1  0
 21 22  2  0
 22 23  1  0
 16 24  1  0
 24 25  1  0
  9 26  2  0
 26  5  1  0
 25 13  1  0
 22 17  1  0
  1 27  1  0
  1 28  1  0
  6 29  1  0
  7 30  1  0
  8 31  1  0
 14 32  1  0
 14 33  1  0
 15 34  1  0
 15 35  1  0
 18 36  1  0
 19 37  1  0
 20 38  1  0
 21 39  1  0
 24 40  1  0
 24 41  1  0
 25 42  1  0
 25 43  1  0
 26 44  1  0
M  CHG  1  23  -1
M  END
>  <UniqueID>  (59) 
59

>  <SMILES>  (59) 
NS(=O)(=O)c1cccc(S(=O)(=O)N2CCN(c3ccccc3[O-])CC2)c1

>  <Energy>  (59) 
55.502064826004016

>  <Genealogy>  (59) 
NS(=O)(=O)c1cccc(S(=O)(=O)N2CCN(c3ccccc3[O-])CC2)c1 (protonated)
NS(=O)(=O)c1cccc(S(=O)(=O)N2CCN(c3ccccc3[O-])CC2)c1 (3D coordinates assigned)
NS(=O)(=O)c1cccc(S(=O)(=O)N2CCN(c3ccccc3[O-])CC2)c1 (nonaromatic ring conformer: 55.502064826004016 kcal/mol)

>  <smiles>  (59) 
NS(=O)(=O)c1cccc(S(=O)(=O)N2CCN(c3ccccc3O)CC2)c1

>  <score_type>  (59) 
oracle

>  <origin>  (59) 
adg

>  <m_score__min__energy>  (59) 
-12.06

>  <m_primary>  (59) 
energy

$$$$
59:0
     RDKit          3D

 65 69  0  0  0  0  0  0  0  0999 V2000
   57.2410   23.6490   43.8850 C   0  0  0  0  0  0  0  0  0  0  0  0
   58.0580   23.6550   45.1770 C   0  0  0  0  0  0  0  0  0  0  0  0
   57.3750   22.9420   46.1480 F   0  0  0  0  0  0  0  0  0  0  0  0
   59.2670   23.0160   44.9520 F   0  0  0  0  0  0  0  0  0  0  0  0
   58.2940   25.0760   45.6400 C   0  0  0  0  0  0  0  0  0  0  0  0
   59.3280   25.3670   46.5450 C   0  0  0  0  0  0  0  0  0  0  0  0
   59.5210   26.6700   47.0070 C   0  0  0  0  0  0  0  0  0  0  0  0
   58.6660   27.7060   46.5950 C   0  0  0  0  0  0  0  0  0  0  0  0
   58.8790   29.0570   47.0250 N   0  0  0  0  0  0  0  0  0  0  0  0
   60.1020   29.6120   47.5240 C   0  0  0  0  0  0  0  0  0  0  0  0
   60.8790   30.2100   46.7370 O   0  0  0  0  0  0  0  0  0  0  0  0
   60.4620   29.3740   48.9430 C   0  0  0  0  0  0  0  0  0  0  0  0
   60.6570   28.0750   49.3070 N   0  0  0  0  0  0  0  0  0  0  0  0
   61.0070   27.6810   50.5580 C   0  0  0  0  0  0  0  0  0  0  0  0
   61.1810   26.1960   50.7970 C   0  0  0  0  0  0  0  0  0  0  0  0
   62.3460   25.7620   51.6760 C   0  0  0  0  0  0  0  0  0  0  0  0
   60.9180   25.6800   52.2030 C   0  0  0  0  0  0  0  0  0  0  0  0
   61.1940   28.6610   51.5440 C   0  0  0  0  0  0  0  0  0  0  0  0
   61.0030   30.0020   51.2240 C   0  0  0  0  0  0  0  0  0  0  0  0
   60.6290   30.3940   49.9250 C   0  0  0  0  0  0  0  0  0  0  0  0
   60.3990   31.8010   49.6620 N   0  0  0  0  0  0  0  0  0  0  0  0
   59.5400   32.3910   50.6640 C   0  0  0  0  0  0  0  0  0  0  0  0
   58.2120   31.9590   50.8220 C   0  0  0  0  0  0  0  0  0  0  0  0
   57.4000   32.5630   51.7290 N   0  0  0  0  0  0  0  0  0  0  0  0
   57.8420   33.6040   52.4800 C   0  0  0  0  0  0  0  0  0  0  0  0
   59.1020   34.0790   52.3090 N   0  0  0  0  0  0  0  0  0  0  0  0
   59.9500   33.5060   51.4150 C   0  0  0  0  0  0  0  0  0  0  0  0
   57.6120   27.4220   45.7020 C   0  0  0  0  0  0  0  0  0  0  0  0
   56.6830   28.5150   45.2290 C   0  0  0  0  0  0  0  0  0  0  0  0
   57.4280   29.5120   44.3320 C   0  0  0  0  0  0  0  0  0  0  0  0
   57.2710   30.9240   44.8270 C   0  0  0  0  0  0  0  0  0  0  0  0
   56.2480   31.5900   44.4970 O   0  0  0  0  0  0  0  0  0  0  0  0
   58.2960   31.5160   45.6440 N   0  0  0  0  0  0  0  0  0  0  0  0
   58.1290   32.7540   46.3540 C   0  0  0  0  0  0  0  0  0  0  0  0
   57.0220   33.3590   46.3440 O   0  0  0  0  0  0  0  0  0  0  0  0
   59.2460   33.3310   47.1150 C   0  0  0  0  0  0  0  0  0  0  0  0
   60.4970   32.8310   47.1320 N   0  0  0  0  0  0  0  0  0  0  0  0
   61.2020   33.6280   47.9190 N   0  0  0  0  0  0  0  0  0  0  0  0
   60.3570   34.5830   48.3550 C   0  0  0  0  0  0  0  0  0  0  0  0
   59.1540   34.4050   47.8620 O   0  0  0  0  0  0  0  0  0  0  0  0
   57.4340   26.1100   45.2320 C   0  0  0  0  0  0  0  0  0  0  0  0
   56.1685   23.6411   44.1294 H   0  0  0  0  0  0  0  0  0  0  0  0
   57.4767   24.5489   43.2979 H   0  0  0  0  0  0  0  0  0  0  0  0
   57.4899   22.7527   43.2979 H   0  0  0  0  0  0  0  0  0  0  0  0
   59.9913   24.5613   46.8926 H   0  0  0  0  0  0  0  0  0  0  0  0
   60.3484   26.8873   47.6986 H   0  0  0  0  0  0  0  0  0  0  0  0
   60.8239   25.9294   49.7913 H   0  0  0  0  0  0  0  0  0  0  0  0
   62.8996   24.8410   51.4408 H   0  0  0  0  0  0  0  0  0  0  0  0
   63.2778   26.2331   52.0222 H   0  0  0  0  0  0  0  0  0  0  0  0
   60.4410   24.6996   52.3488 H   0  0  0  0  0  0  0  0  0  0  0  0
   60.3921   26.0675   53.0880 H   0  0  0  0  0  0  0  0  0  0  0  0
   61.4896   28.3716   52.5633 H   0  0  0  0  0  0  0  0  0  0  0  0
   61.1468   30.7686   51.9996 H   0  0  0  0  0  0  0  0  0  0  0  0
   60.0250   31.9310   48.6960 H   0  0  0  0  0  0  0  0  0  0  0  0
   61.3040   32.3270   49.6760 H   0  0  0  0  0  0  0  0  0  0  0  0
   57.8287   31.1295   50.2097 H   0  0  0  0  0  0  0  0  0  0  0  0
   57.1785   34.0629   53.2277 H   0  0  0  0  0  0  0  0  0  0  0  0
   60.9614   33.9165   51.2786 H   0  0  0  0  0  0  0  0  0  0  0  0
   55.8568   28.0647   44.6593 H   0  0  0  0  0  0  0  0  0  0  0  0
   56.2944   29.0521   46.1067 H   0  0  0  0  0  0  0  0  0  0  0  0
   58.4972   29.2537   44.3218 H   0  0  0  0  0  0  0  0  0  0  0  0
   57.0006   29.4517   43.3202 H   0  0  0  0  0  0  0  0  0  0  0  0
   59.1950   30.9930   45.7600 H   0  0  0  0  0  0  0  0  0  0  0  0
   60.6381   35.4021   49.0333 H   0  0  0  0  0  0  0  0  0  0  0  0
   56.6113   25.8893   44.5360 H   0  0  0  0  0  0  0  0  0  0  0  0
  1  2  1  0
  2  3  1  0
  2  4  1  0
  2  5  1  0
  5  6  2  0
  6  7  1  0
  7  8  2  0
  8  9  1  0
  9 10  1  0
 10 11  2  0
 10 12  1  0
 12 13  2  0
 13 14  1  0
 14 15  1  0
 15 16  1  0
 16 17  1  0
 14 18  2  0
 18 19  1  0
 19 20  2  0
 20 21  1  0
 21 22  1  0
 22 23  2  0
 23 24  1  0
 24 25  2  0
 25 26  1  0
 26 27  2  0
  8 28  1  0
 28 29  1  0
 29 30  1  0
 30 31  1  0
 31 32  2  0
 31 33  1  0
 33 34  1  0
 34 35  2  0
 34 36  1  0
 36 37  2  0
 37 38  1  0
 38 39  2  0
 39 40  1  0
 28 41  2  0
 41  5  1  0
 20 12  1  0
 27 22  1  0
 40 36  1  0
 17 15  1  0
  1 42  1  0
  1 43  1  0
  1 44  1  0
  6 45  1  0
  7 46  1  0
 15 47  1  0
 16 48  1  0
 16 49  1  0
 17 50  1  0
 17 51  1  0
 18 52  1  0
 19 53  1  0
 21 54  1  0
 21 55  1  0
 23 56  1  0
 25 57  1  0
 27 58  1  0
 29 59  1  0
 29 60  1  0
 30 61  1  0
 30 62  1  0
 33 63  1  0
 39 64  1  0
 41 65  1  0
M  CHG  2   9  -1  21   1
M  END
>  <UniqueID>  (60) 
60

>  <SMILES>  (60) 
CC(F)(F)c1ccc([N-]C(=O)c2nc(C3CC3)ccc2[NH2+]c2cncnc2)c(CCC(=O)NC(=O)c2nnco2)c1

>  <Energy>  (60) 
377.4695920261922

>  <Genealogy>  (60) 
CC(F)(F)c1ccc([N-]C(=O)c2nc(C3CC3)ccc2[NH2+]c2cncnc2)c(CCC(=O)NC(=O)c2nnco2)c1 (protonated)
CC(F)(F)c1ccc([N-]C(=O)c2nc(C3CC3)ccc2[NH2+]c2cncnc2)c(CCC(=O)NC(=O)c2nnco2)c1 (3D coordinates assigned)
CC(F)(F)c1ccc([N-]C(=O)c2nc(C3CC3)ccc2[NH2+]c2cncnc2)c(CCC(=O)NC(=O)c2nnco2)c1 (nonaromatic ring conformer: 377.4695920261922 kcal/mol)

>  <smiles>  (60) 
CC(F)(F)c1ccc(NC(=O)c2nc(C3CC3)ccc2Nc2cncnc2)c(CCC(=O)NC(=O)c2nnco2)c1

>  <score_type>  (60) 
oracle

>  <origin>  (60) 
adg

>  <m_score__min__energy>  (60) 
-10.17

>  <m_primary>  (60) 
energy

$$$$
60:0
     RDKit          3D

 33 34  0  0  0  0  0  0  0  0999 V2000
   55.1460   26.5690   46.1020 N   0  0  0  0  0  0  0  0  0  0  0  0
   56.8700   26.6470   46.0200 S   0  0  0  0  0  0  0  0  0  0  0  0
   57.3620   25.7590   44.9130 O   0  0  0  0  0  0  0  0  0  0  0  0
   57.4290   26.1600   47.3270 O   0  0  0  0  0  0  0  0  0  0  0  0
   57.3640   28.3120   45.6940 C   0  0  0  0  0  0  0  0  0  0  0  0
   58.6800   28.6970   45.9950 C   0  0  0  0  0  0  0  0  0  0  0  0
   59.1110   30.0110   45.7550 C   0  0  0  0  0  0  0  0  0  0  0  0
   60.4580   30.4140   46.0260 N   0  0  0  0  0  0  0  0  0  0  0  0
   60.9240   31.0720   47.2120 C   0  0  0  0  0  0  0  0  0  0  0  0
   62.0800   31.5710   47.2070 O   0  0  0  0  0  0  0  0  0  0  0  0
   60.0090   31.3430   48.3770 C   0  0  0  0  0  0  0  0  0  0  0  0
   59.9400   33.1230   48.7890 S   0  0  0  0  0  0  0  0  0  0  0  0
   59.1520   33.6130   47.2480 C   0  0  0  0  0  0  0  0  0  0  0  0
   57.7730   33.4310   47.0940 C   0  0  0  0  0  0  0  0  0  0  0  0
   57.1550   33.8350   45.9110 C   0  0  0  0  0  0  0  0  0  0  0  0
   57.9140   34.4240   44.9010 C   0  0  0  0  0  0  0  0  0  0  0  0
   59.2870   34.5920   45.0870 C   0  0  0  0  0  0  0  0  0  0  0  0
   59.8810   34.1870   46.2440 N   0  0  0  0  0  0  0  0  0  0  0  0
   61.2370   34.3680   46.3970 O   0  0  0  0  0  0  0  0  0  0  0  0
   58.2350   30.9260   45.1640 C   0  0  0  0  0  0  0  0  0  0  0  0
   56.9210   30.5560   44.8720 C   0  0  0  0  0  0  0  0  0  0  0  0
   56.4770   29.2580   45.1420 C   0  0  0  0  0  0  0  0  0  0  0  0
   55.1590   28.9250   44.8560 O   0  0  0  0  0  0  0  0  0  0  0  0
   54.7870   26.7060   45.1310 H   0  0  0  0  0  0  0  0  0  0  0  0
   59.3790   27.9630   46.4224 H   0  0  0  0  0  0  0  0  0  0  0  0
   58.9963   30.9974   48.1219 H   0  0  0  0  0  0  0  0  0  0  0  0
   60.4025   30.8052   49.2522 H   0  0  0  0  0  0  0  0  0  0  0  0
   57.1811   32.9728   47.9000 H   0  0  0  0  0  0  0  0  0  0  0  0
   56.0731   33.6895   45.7754 H   0  0  0  0  0  0  0  0  0  0  0  0
   57.4356   34.7531   43.9667 H   0  0  0  0  0  0  0  0  0  0  0  0
   59.8933   35.0544   44.2942 H   0  0  0  0  0  0  0  0  0  0  0  0
   58.5827   31.9425   44.9279 H   0  0  0  0  0  0  0  0  0  0  0  0
   56.2318   31.2890   44.4275 H   0  0  0  0  0  0  0  0  0  0  0  0
  1  2  1  0
  2  3  2  0
  2  4  2  0
  2  5  1  0
  5  6  2  0
  6  7  1  0
  7  8  1  0
  8  9  1  0
  9 10  2  0
  9 11  1  0
 11 12  1  0
 12 13  1  0
 13 14  2  0
 14 15  1  0
 15 16  2  0
 16 17  1  0
 17 18  2  0
 18 19  1  0
  7 20  2  0
 20 21  1  0
 21 22  2  0
 22 23  1  0
 22  5  1  0
 18 13  1  0
  1 24  1  0
  6 25  1  0
 11 26  1  0
 11 27  1  0
 14 28  1  0
 15 29  1  0
 16 30  1  0
 17 31  1  0
 20 32  1  0
 21 33  1  0
M  CHG  5   1  -1   8  -1  18   1  19  -1  23  -1
M  END
>  <UniqueID>  (61) 
61

>  <SMILES>  (61) 
[NH-]S(=O)(=O)c1cc([N-]C(=O)CSc2cccc[n+]2[O-])ccc1[O-]

>  <Energy>  (61) 
34.72663959829608

>  <Genealogy>  (61) 
[NH-]S(=O)(=O)c1cc([N-]C(=O)CSc2cccc[n+]2[O-])ccc1[O-] (protonated)
[NH-]S(=O)(=O)c1cc([N-]C(=O)CSc2cccc[n+]2[O-])ccc1[O-] (3D coordinates assigned)
[NH-]S(=O)(=O)c1cc([N-]C(=O)CSc2cccc[n+]2[O-])ccc1[O-] (optimized conformer: 34.72663959829608 kcal/mol)

>  <smiles>  (61) 
NS(=O)(=O)c1cc(NC(=O)CSc2cccc[n+]2[O-])ccc1O

>  <score_type>  (61) 
oracle

>  <origin>  (61) 
adg

>  <m_score__min__energy>  (61) 
-14.460000000000001

>  <m_primary>  (61) 
energy

$$$$
61:0
     RDKit          3D

 29 30  0  0  0  0  0  0  0  0999 V2000
   54.9030   24.6134   45.9616 H   0  0  0  0  0  0  0  0  0  0  0  0
   55.6930   25.3690   45.8390 C   0  0  0  0  0  0  0  0  0  0  0  0
   55.5370   26.7000   45.9930 N   0  0  0  0  0  0  0  0  0  0  0  0
   56.7720   27.1820   45.7440 C   0  0  0  0  0  0  0  0  0  0  0  0
   57.0500   28.4460   45.7840 N   0  0  0  0  0  0  0  0  0  0  0  0
   56.6370   29.5310   44.4950 S   0  0  0  0  0  0  0  0  0  0  0  0
   57.0800   28.9390   43.1860 O   0  0  0  0  0  0  0  0  0  0  0  0
   55.1450   29.7130   44.4680 O   0  0  0  0  0  0  0  0  0  0  0  0
   57.4550   31.0780   44.7290 C   0  0  0  0  0  0  0  0  0  0  0  0
   57.9090   31.4430   46.0060 C   0  0  0  0  0  0  0  0  0  0  0  0
   57.7352   30.7729   46.8608 H   0  0  0  0  0  0  0  0  0  0  0  0
   58.5810   32.6540   46.1970 C   0  0  0  0  0  0  0  0  0  0  0  0
   59.2000   33.1380   47.9370 Br  0  0  0  0  0  0  0  0  0  0  0  0
   58.8010   33.5070   45.1140 C   0  0  0  0  0  0  0  0  0  0  0  0
   59.3288   34.4602   45.2652 H   0  0  0  0  0  0  0  0  0  0  0  0
   58.3530   33.1540   43.8390 C   0  0  0  0  0  0  0  0  0  0  0  0
   58.5290   33.8317   42.9906 H   0  0  0  0  0  0  0  0  0  0  0  0
   57.6770   31.9350   43.6330 C   0  0  0  0  0  0  0  0  0  0  0  0
   57.2180   31.5470   42.3650 O   0  0  0  0  0  0  0  0  0  0  0  0
   57.3790   32.3160   41.1770 C   0  0  0  0  0  0  0  0  0  0  0  0
   57.5977   33.3606   41.4432 H   0  0  0  0  0  0  0  0  0  0  0  0
   58.2109   31.9066   40.5851 H   0  0  0  0  0  0  0  0  0  0  0  0
   56.4527   32.2747   40.5851 H   0  0  0  0  0  0  0  0  0  0  0  0
   57.6510   26.2480   45.4550 O   0  0  0  0  0  0  0  0  0  0  0  0
   57.0040   25.1110   45.5030 C   0  0  0  0  0  0  0  0  0  0  0  0
   57.6150   23.7730   45.2570 C   0  0  0  0  0  0  0  0  0  0  0  0
   57.8363   23.2884   46.2194 H   0  0  0  0  0  0  0  0  0  0  0  0
   56.9127   23.1488   44.6851 H   0  0  0  0  0  0  0  0  0  0  0  0
   58.5467   23.8949   44.6851 H   0  0  0  0  0  0  0  0  0  0  0  0
  1  2  1  0
  2  3  1  0
  3  4  1  0
  4  5  2  0
  5  6  1  0
  6  7  2  0
  6  8  2  0
  6  9  1  0
  9 10  2  0
 10 11  1  0
 10 12  1  0
 12 13  1  0
 12 14  2  0
 14 15  1  0
 14 16  1  0
 16 17  1  0
 16 18  2  0
 18 19  1  0
 19 20  1  0
 20 21  1  0
 20 22  1  0
 20 23  1  0
  4 24  1  0
 24 25  1  0
 25 26  1  0
 26 27  1  0
 26 28  1  0
 26 29  1  0
 25  2  2  0
 18  9  1  0
M  CHG  1   3  -1
M  END
>  <UniqueID>  (62) 
62

>  <SMILES>  (62) 
COc1ccc(Br)cc1S(=O)(=O)/N=c1/[n-]cc(C)o1

>  <Energy>  (62) 
59.27284265281366

>  <Genealogy>  (62) 
COc1ccc(Br)cc1S(=O)(=O)N=c1[n-]cc(C)o1 (protonated)
COc1ccc(Br)cc1S(=O)(=O)/N=c1/[n-]cc(C)o1 (cis-trans isomerization)
COc1ccc(Br)cc1S(=O)(=O)/N=c1/[n-]cc(C)o1 (3D coordinates assigned)
COc1ccc(Br)cc1S(=O)(=O)/N=c1/[n-]cc(C)o1 (optimized conformer: 59.27284265281366 kcal/mol)

>  <smiles>  (62) 
COc1ccc(Br)cc1S(=O)(=O)N=c1[nH]cc(C)o1

>  <score_type>  (62) 
oracle

>  <origin>  (62) 
adg

>  <m_score__min__energy>  (62) 
-8.75

>  <m_primary>  (62) 
energy

$$$$
62:0
     RDKit          3D

 51 54  0  0  0  0  0  0  0  0999 V2000
   54.7700   29.3710   44.0630 O   0  0  0  0  0  0  0  0  0  0  0  0
   55.9470   29.6350   44.4330 C   0  0  0  0  0  0  0  0  0  0  0  0
   56.7360   30.6830   43.7150 C   0  0  0  0  0  0  0  0  0  0  0  0
   57.7720   31.2600   44.6400 C   0  0  0  0  0  0  0  0  0  0  0  0
   57.6050   32.5380   45.1910 C   0  0  0  0  0  0  0  0  0  0  0  0
   58.5450   33.0390   46.0940 C   0  0  0  0  0  0  0  0  0  0  0  0
   59.6550   32.2520   46.4510 C   0  0  0  0  0  0  0  0  0  0  0  0
   60.6770   32.7310   47.4180 C   0  0  0  0  0  0  0  0  0  0  0  0
   60.4610   32.5730   48.7970 C   0  0  0  0  0  0  0  0  0  0  0  0
   61.4080   33.0170   49.7230 C   0  0  0  0  0  0  0  0  0  0  0  0
   62.5940   33.6300   49.2890 C   0  0  0  0  0  0  0  0  0  0  0  0
   63.5970   34.1160   50.2640 C   0  0  0  0  0  0  0  0  0  0  0  0
   63.2160   34.7940   51.2540 O   0  0  0  0  0  0  0  0  0  0  0  0
   64.9980   33.8410   50.1150 N   0  0  0  0  0  0  0  0  0  0  0  0
   65.6710   32.6750   50.6130 C   0  0  0  0  0  0  0  0  0  0  0  0
   64.9240   31.4960   50.7510 C   0  0  0  0  0  0  0  0  0  0  0  0
   65.4950   30.3590   51.3270 C   0  0  0  0  0  0  0  0  0  0  0  0
   66.8210   30.3870   51.7620 C   0  0  0  0  0  0  0  0  0  0  0  0
   67.5890   31.5420   51.5980 C   0  0  0  0  0  0  0  0  0  0  0  0
   67.0390   32.6900   51.0000 C   0  0  0  0  0  0  0  0  0  0  0  0
   67.9260   33.8460   50.7430 C   0  0  0  0  0  0  0  0  0  0  0  0
   68.6790   33.8680   49.7350 O   0  0  0  0  0  0  0  0  0  0  0  0
   67.9720   34.9050   51.6430 O   0  0  0  0  0  0  0  0  0  0  0  0
   62.8300   33.7590   47.9130 C   0  0  0  0  0  0  0  0  0  0  0  0
   61.8800   33.3190   46.9850 C   0  0  0  0  0  0  0  0  0  0  0  0
   59.7810   31.0040   45.9150 N   0  0  0  0  0  0  0  0  0  0  0  0
   58.8790   30.4970   45.0340 C   0  0  0  0  0  0  0  0  0  0  0  0
   56.5070   28.9790   45.5780 N   0  0  0  0  0  0  0  0  0  0  0  0
   56.9690   27.7620   45.6660 C   0  0  0  0  0  0  0  0  0  0  0  0
   58.3030   27.5750   45.4630 N   0  0  0  0  0  0  0  0  0  0  0  0
   58.8920   26.3530   45.5360 C   0  0  0  0  0  0  0  0  0  0  0  0
   58.1240   25.2240   45.8170 C   0  0  0  0  0  0  0  0  0  0  0  0
   56.7510   25.3650   46.0060 C   0  0  0  0  0  0  0  0  0  0  0  0
   56.1540   26.6260   45.9200 C   0  0  0  0  0  0  0  0  0  0  0  0
   54.7710   26.7100   46.0410 O   0  0  0  0  0  0  0  0  0  0  0  0
   57.2340   30.2328   42.8436 H   0  0  0  0  0  0  0  0  0  0  0  0
   56.0594   31.4835   43.3811 H   0  0  0  0  0  0  0  0  0  0  0  0
   56.7325   33.1469   44.9118 H   0  0  0  0  0  0  0  0  0  0  0  0
   58.4182   34.0436   46.5238 H   0  0  0  0  0  0  0  0  0  0  0  0
   59.5362   32.0945   49.1515 H   0  0  0  0  0  0  0  0  0  0  0  0
   61.2232   32.8854   50.7993 H   0  0  0  0  0  0  0  0  0  0  0  0
   63.8809   31.4666   50.4031 H   0  0  0  0  0  0  0  0  0  0  0  0
   64.8994   29.4409   51.4379 H   0  0  0  0  0  0  0  0  0  0  0  0
   67.2622   29.4973   52.2351 H   0  0  0  0  0  0  0  0  0  0  0  0
   68.6344   31.5539   51.9400 H   0  0  0  0  0  0  0  0  0  0  0  0
   63.7694   34.2097   47.5603 H   0  0  0  0  0  0  0  0  0  0  0  0
   62.0749   33.4336   45.9085 H   0  0  0  0  0  0  0  0  0  0  0  0
   59.0185   29.4839   44.6288 H   0  0  0  0  0  0  0  0  0  0  0  0
   59.9754   26.2543   45.3733 H   0  0  0  0  0  0  0  0  0  0  0  0
   58.5967   24.2333   45.8887 H   0  0  0  0  0  0  0  0  0  0  0  0
   56.1343   24.4806   46.2238 H   0  0  0  0  0  0  0  0  0  0  0  0
  1  2  2  0
  2  3  1  0
  3  4  1  0
  4  5  2  0
  5  6  1  0
  6  7  2  0
  7  8  1  0
  8  9  2  0
  9 10  1  0
 10 11  2  0
 11 12  1  0
 12 13  2  0
 12 14  1  0
 14 15  1  0
 15 16  2  0
 16 17  1  0
 17 18  2  0
 18 19  1  0
 19 20  2  0
 20 21  1  0
 21 22  2  0
 21 23  1  0
 11 24  1  0
 24 25  2  0
  7 26  1  0
 26 27  2  0
  2 28  1  0
 28 29  2  3
 29 30  1  0
 30 31  1  0
 31 32  2  0
 32 33  1  0
 33 34  2  0
 34 35  1  0
 27  4  1  0
 34 29  1  0
 25  8  1  0
 20 15  1  0
  3 36  1  0
  3 37  1  0
  5 38  1  0
  6 39  1  0
  9 40  1  0
 10 41  1  0
 16 42  1  0
 17 43  1  0
 18 44  1  0
 19 45  1  0
 24 46  1  0
 25 47  1  0
 27 48  1  0
 31 49  1  0
 32 50  1  0
 33 51  1  0
M  CHG  4  14  -1  23  -1  30  -1  35  -1
M  END
>  <UniqueID>  (63) 
63

>  <SMILES>  (63) 
O=C(Cc1ccc(-c2ccc(C(=O)[N-]c3ccccc3C(=O)[O-])cc2)nc1)N=c1[n-]cccc1[O-]

>  <Energy>  (63) 
84.35477476912146

>  <Genealogy>  (63) 
O=C(Cc1ccc(-c2ccc(C(=O)[N-]c3ccccc3C(=O)[O-])cc2)nc1)N=c1[n-]cccc1[O-] (protonated)
O=C(Cc1ccc(-c2ccc(C(=O)[N-]c3ccccc3C(=O)[O-])cc2)nc1)N=c1[n-]cccc1[O-] (3D coordinates assigned)
O=C(Cc1ccc(-c2ccc(C(=O)[N-]c3ccccc3C(=O)[O-])cc2)nc1)N=c1[n-]cccc1[O-] (optimized conformer: 84.35477476912146 kcal/mol)

>  <smiles>  (63) 
O=C(Cc1ccc(-c2ccc(C(=O)Nc3ccccc3C(=O)O)cc2)nc1)N=c1[nH]cccc1O

>  <score_type>  (63) 
oracle

>  <origin>  (63) 
adg

>  <m_score__min__energy>  (63) 
-15.800000000000001

>  <m_primary>  (63) 
energy

$$$$
63:0
     RDKit          3D

 42 44  0  0  0  0  0  0  0  0999 V2000
   62.0110   33.5170   47.7020 C   0  0  0  0  0  0  0  0  0  0  0  0
   60.9700   34.5440   47.8630 N   0  0  0  0  0  0  0  0  0  0  0  0
   60.3820   34.9570   46.5770 C   0  0  0  0  0  0  0  0  0  0  0  0
   59.3670   33.9710   46.0540 C   0  0  0  0  0  0  0  0  0  0  0  0
   59.0450   33.9810   44.6890 C   0  0  0  0  0  0  0  0  0  0  0  0
   58.0480   33.1420   44.1890 C   0  0  0  0  0  0  0  0  0  0  0  0
   57.3390   32.2940   45.0440 C   0  0  0  0  0  0  0  0  0  0  0  0
   56.3230   31.4510   44.4840 N   0  0  0  0  0  0  0  0  0  0  0  0
   56.5090   29.7770   44.0700 S   0  0  0  0  0  0  0  0  0  0  0  0
   58.1570   29.2260   44.4620 C   0  0  0  0  0  0  0  0  0  0  0  0
   56.2210   29.5730   42.6090 O   0  0  0  0  0  0  0  0  0  0  0  0
   55.5270   28.9710   44.8720 O   0  0  0  0  0  0  0  0  0  0  0  0
   57.6440   32.2920   46.4160 C   0  0  0  0  0  0  0  0  0  0  0  0
   58.6590   33.1210   46.9280 C   0  0  0  0  0  0  0  0  0  0  0  0
   58.9830   33.0620   48.4100 C   0  0  1  0  0  0  0  0  0  0  0  0
   59.4740   31.6880   48.8800 C   0  0  0  0  0  0  0  0  0  0  0  0
   60.2440   30.8530   48.0380 C   0  0  0  0  0  0  0  0  0  0  0  0
   60.7010   29.6110   48.4820 C   0  0  0  0  0  0  0  0  0  0  0  0
   60.4030   29.1740   49.7710 C   0  0  0  0  0  0  0  0  0  0  0  0
   59.6430   29.9760   50.6210 C   0  0  0  0  0  0  0  0  0  0  0  0
   59.1750   31.2250   50.1900 C   0  0  0  0  0  0  0  0  0  0  0  0
   58.3860   32.0100   51.1100 C   0  0  0  0  0  0  0  0  0  0  0  0
   57.7530   32.6390   51.8480 N   0  0  0  0  0  0  0  0  0  0  0  0
   59.9380   34.1980   48.8590 C   0  0  0  0  0  0  0  0  0  0  0  0
   62.3512   33.1813   48.6927 H   0  0  0  0  0  0  0  0  0  0  0  0
   61.5993   32.6615   47.1464 H   0  0  0  0  0  0  0  0  0  0  0  0
   62.8608   33.9403   47.1464 H   0  0  0  0  0  0  0  0  0  0  0  0
   59.8884   35.9306   46.7129 H   0  0  0  0  0  0  0  0  0  0  0  0
   61.1988   35.0122   45.8422 H   0  0  0  0  0  0  0  0  0  0  0  0
   59.5828   34.6558   44.0067 H   0  0  0  0  0  0  0  0  0  0  0  0
   57.8185   33.1483   43.1132 H   0  0  0  0  0  0  0  0  0  0  0  0
   58.2798   29.1850   45.5544 H   0  0  0  0  0  0  0  0  0  0  0  0
   58.3197   28.2246   44.0369 H   0  0  0  0  0  0  0  0  0  0  0  0
   58.8892   29.9282   44.0369 H   0  0  0  0  0  0  0  0  0  0  0  0
   57.0830   31.6351   47.0970 H   0  0  0  0  0  0  0  0  0  0  0  0
   58.0205   33.2282   48.9160 H   0  0  0  0  0  0  0  0  0  0  0  0
   60.4864   31.1869   47.0183 H   0  0  0  0  0  0  0  0  0  0  0  0
   61.2984   28.9752   47.8120 H   0  0  0  0  0  0  0  0  0  0  0  0
   60.7675   28.1959   50.1180 H   0  0  0  0  0  0  0  0  0  0  0  0
   59.4089   29.6262   51.6373 H   0  0  0  0  0  0  0  0  0  0  0  0
   59.3361   35.0966   49.0597 H   0  0  0  0  0  0  0  0  0  0  0  0
   60.4673   33.8341   49.7520 H   0  0  0  0  0  0  0  0  0  0  0  0
  1  2  1  0
  2  3  1  0
  3  4  1  0
  4  5  2  0
  5  6  1  0
  6  7  2  0
  7  8  1  0
  8  9  1  0
  9 10  1  0
  9 11  2  0
  9 12  2  0
  7 13  1  0
 13 14  2  0
 14 15  1  0
 15 16  1  0
 16 17  2  0
 17 18  1  0
 18 19  2  0
 19 20  1  0
 20 21  2  0
 21 22  1  0
 22 23  3  0
 15 24  1  0
 24  2  1  0
 14  4  1  0
 21 16  1  0
  1 25  1  0
  1 26  1  0
  1 27  1  0
  3 28  1  0
  3 29  1  0
  5 30  1  0
  6 31  1  0
 10 32  1  0
 10 33  1  0
 10 34  1  0
 13 35  1  0
 15 36  1  1
 17 37  1  0
 18 38  1  0
 19 39  1  0
 20 40  1  0
 24 41  1  0
 24 42  1  0
M  CHG  1   8  -1
M  END
>  <UniqueID>  (64) 
64

>  <SMILES>  (64) 
CN1Cc2ccc([N-]S(C)(=O)=O)cc2[C@@H](c2ccccc2C#N)C1

>  <Energy>  (64) 
53.67116443202765

>  <Genealogy>  (64) 
CN1Cc2ccc([N-]S(C)(=O)=O)cc2C(c2ccccc2C#N)C1 (protonated)
CN1Cc2ccc([N-]S(C)(=O)=O)cc2[C@@H](c2ccccc2C#N)C1 (chirality)
CN1Cc2ccc([N-]S(C)(=O)=O)cc2[C@@H](c2ccccc2C#N)C1 (3D coordinates assigned)
CN1Cc2ccc([N-]S(C)(=O)=O)cc2[C@@H](c2ccccc2C#N)C1 (nonaromatic ring conformer: 53.67116443202765 kcal/mol)

>  <smiles>  (64) 
CN1Cc2ccc(NS(C)(=O)=O)cc2C(c2ccccc2C#N)C1

>  <score_type>  (64) 
oracle

>  <origin>  (64) 
adg

>  <m_score__min__energy>  (64) 
-9.5700000000000003

>  <m_primary>  (64) 
energy

$$$$
64:0
     RDKit          3D

 40 42  0  0  0  0  0  0  0  0999 V2000
   58.8030   28.8140   44.2420 O   0  0  0  0  0  0  0  0  0  0  0  0
   57.7890   28.8360   44.9920 C   0  0  0  0  0  0  0  0  0  0  0  0
   57.1460   30.0870   45.2930 N   0  0  0  0  0  0  0  0  0  0  0  0
   57.7420   31.3740   45.0560 C   0  0  0  0  0  0  0  0  0  0  0  0
   57.8250   31.9150   43.7610 C   0  0  0  0  0  0  0  0  0  0  0  0
   58.4370   33.1540   43.5530 C   0  0  0  0  0  0  0  0  0  0  0  0
   58.9810   33.8570   44.6300 C   0  0  0  0  0  0  0  0  0  0  0  0
   58.9180   33.3240   45.9230 C   0  0  0  0  0  0  0  0  0  0  0  0
   59.6420   34.1980   47.2710 S   0  0  0  0  0  0  0  0  0  0  0  0
   58.9540   33.8170   48.5530 O   0  0  0  0  0  0  0  0  0  0  0  0
   59.4540   35.6740   47.0490 O   0  0  0  0  0  0  0  0  0  0  0  0
   61.3460   33.8320   47.3660 N   0  0  0  0  0  0  0  0  0  0  0  0
   61.5730   32.4060   47.0660 C   0  0  0  0  0  0  0  0  0  0  0  0
   63.0090   31.9860   47.4380 C   0  0  0  0  0  0  0  0  0  0  0  0
   63.8250   33.1190   47.6620 O   0  0  0  0  0  0  0  0  0  0  0  0
   63.3580   33.8280   48.7980 C   0  0  0  0  0  0  0  0  0  0  0  0
   61.8530   34.1580   48.7060 C   0  0  0  0  0  0  0  0  0  0  0  0
   58.3100   32.0770   46.1300 C   0  0  0  0  0  0  0  0  0  0  0  0
   57.2460   27.5690   45.5270 C   0  0  0  0  0  0  0  0  0  0  0  0
   58.0920   26.5340   45.9510 C   0  0  0  0  0  0  0  0  0  0  0  0
   57.5350   25.3590   46.4540 C   0  0  0  0  0  0  0  0  0  0  0  0
   56.1480   25.2410   46.5230 C   0  0  0  0  0  0  0  0  0  0  0  0
   55.6200   24.1900   46.9720 O   0  0  0  0  0  0  0  0  0  0  0  0
   55.3670   26.2680   46.1030 N   0  0  0  0  0  0  0  0  0  0  0  0
   55.8980   27.3940   45.6220 N   0  0  0  0  0  0  0  0  0  0  0  0
   56.1520   30.0650   45.6180 H   0  0  0  0  0  0  0  0  0  0  0  0
   57.4065   31.3607   42.9080 H   0  0  0  0  0  0  0  0  0  0  0  0
   58.4903   33.5764   42.5387 H   0  0  0  0  0  0  0  0  0  0  0  0
   59.4605   34.8326   44.4619 H   0  0  0  0  0  0  0  0  0  0  0  0
   60.8596   31.7989   47.6427 H   0  0  0  0  0  0  0  0  0  0  0  0
   61.4293   32.2472   45.9870 H   0  0  0  0  0  0  0  0  0  0  0  0
   62.9801   31.3765   48.3533 H   0  0  0  0  0  0  0  0  0  0  0  0
   63.4328   31.4075   46.6039 H   0  0  0  0  0  0  0  0  0  0  0  0
   63.5311   33.2137   49.6939 H   0  0  0  0  0  0  0  0  0  0  0  0
   63.9080   34.7792   48.8500 H   0  0  0  0  0  0  0  0  0  0  0  0
   61.3048   33.5687   49.4558 H   0  0  0  0  0  0  0  0  0  0  0  0
   61.7075   35.2319   48.8948 H   0  0  0  0  0  0  0  0  0  0  0  0
   58.2781   31.6467   47.1418 H   0  0  0  0  0  0  0  0  0  0  0  0
   59.1842   26.6481   45.8874 H   0  0  0  0  0  0  0  0  0  0  0  0
   58.1818   24.5359   46.7920 H   0  0  0  0  0  0  0  0  0  0  0  0
  1  2  2  0
  2  3  1  0
  3  4  1  0
  4  5  2  0
  5  6  1  0
  6  7  2  0
  7  8  1  0
  8  9  1  0
  9 10  2  0
  9 11  2  0
  9 12  1  0
 12 13  1  0
 13 14  1  0
 14 15  1  0
 15 16  1  0
 16 17  1  0
  8 18  2  0
  2 19  1  0
 19 20  1  0
 20 21  2  0
 21 22  1  0
 22 23  2  0
 22 24  1  0
 24 25  1  0
 18  4  1  0
 25 19  2  0
 17 12  1  0
  3 26  1  0
  5 27  1  0
  6 28  1  0
  7 29  1  0
 13 30  1  0
 13 31  1  0
 14 32  1  0
 14 33  1  0
 16 34  1  0
 16 35  1  0
 17 36  1  0
 17 37  1  0
 18 38  1  0
 20 39  1  0
 21 40  1  0
M  CHG  1  24  -1
M  END
>  <UniqueID>  (65) 
65

>  <SMILES>  (65) 
O=C(Nc1cccc(S(=O)(=O)N2CCOCC2)c1)c1ccc(=O)[n-]n1

>  <Energy>  (65) 
53.84273920215701

>  <Genealogy>  (65) 
O=C(Nc1cccc(S(=O)(=O)N2CCOCC2)c1)c1ccc(=O)[n-]n1 (protonated)
O=C(Nc1cccc(S(=O)(=O)N2CCOCC2)c1)c1ccc(=O)[n-]n1 (3D coordinates assigned)
O=C(Nc1cccc(S(=O)(=O)N2CCOCC2)c1)c1ccc(=O)[n-]n1 (nonaromatic ring conformer: 53.84273920215701 kcal/mol)

>  <smiles>  (65) 
O=C(Nc1cccc(S(=O)(=O)N2CCOCC2)c1)c1ccc(=O)[nH]n1

>  <score_type>  (65) 
oracle

>  <origin>  (65) 
adg

>  <m_score__min__energy>  (65) 
-11.27

>  <m_primary>  (65) 
energy

$$$$
65:0
     RDKit          3D

 61 64  0  0  1  0  0  0  0  0999 V2000
   56.5240   29.3440   43.8260 C   0  0  0  0  0  0  0  0  0  0  0  0
   57.1310   30.6880   43.9560 C   0  0  0  0  0  0  0  0  0  0  0  0
   57.3750   31.1370   45.2160 N   0  0  0  0  0  0  0  0  0  0  0  0
   57.9300   32.3620   45.3980 C   0  0  0  0  0  0  0  0  0  0  0  0
   58.1860   32.8460   46.5570 N   0  0  0  0  0  0  0  0  0  0  0  0
   59.4750   33.9190   46.9270 S   0  0  0  0  0  0  0  0  0  0  0  0
   59.5140   35.0910   45.9860 O   0  0  0  0  0  0  0  0  0  0  0  0
   59.2000   34.5040   48.2850 O   0  0  0  0  0  0  0  0  0  0  0  0
   61.0260   33.1220   47.0110 C   0  0  0  0  0  0  0  0  0  0  0  0
   62.1480   33.9170   47.0550 C   0  0  0  0  0  0  0  0  0  0  0  0
   63.4290   33.4120   47.1250 C   0  0  0  0  0  0  0  0  0  0  0  0
   63.5630   32.0440   47.1520 C   0  0  0  0  0  0  0  0  0  0  0  0
   62.4340   31.2490   47.1080 C   0  0  0  0  0  0  0  0  0  0  0  0
   61.1550   31.7340   47.0370 C   0  0  0  0  0  0  0  0  0  0  0  0
   59.9760   30.9810   47.0040 N   0  0  0  0  0  0  0  0  0  0  0  0
   59.4550   29.7970   48.1120 S   0  0  0  0  0  0  0  0  0  0  0  0
   58.1430   29.1940   47.6340 O   0  0  0  0  0  0  0  0  0  0  0  0
   60.4850   28.7010   48.2770 O   0  0  0  0  0  0  0  0  0  0  0  0
   59.1000   30.5330   49.6500 C   0  0  0  0  0  0  0  0  0  0  0  0
   58.6080   31.8360   49.7660 C   0  0  0  0  0  0  0  0  0  0  0  0
   58.3290   32.4110   50.9800 C   0  0  0  0  0  0  0  0  0  0  0  0
   58.5320   31.7020   52.1620 C   0  0  0  0  0  0  0  0  0  0  0  0
   58.2240   32.3560   53.3690 N   0  0  0  0  0  0  0  0  0  0  0  0
   59.0530   33.7410   53.9220 S   0  0  0  0  0  0  0  0  0  0  0  0
   58.5600   34.1280   55.3090 O   0  0  0  0  0  0  0  0  0  0  0  0
   58.7830   34.8960   52.9860 O   0  0  0  0  0  0  0  0  0  0  0  0
   60.8050   33.5290   54.0220 C   0  0  0  0  0  0  0  0  0  0  0  0
   61.3520   33.0470   52.7130 C   0  0  0  0  0  0  0  0  0  0  0  0
   61.1860   33.8310   51.5870 C   0  0  0  0  0  0  0  0  0  0  0  0
   61.6820   33.4090   50.3630 C   0  0  0  0  0  0  0  0  0  0  0  0
   62.3470   32.1940   50.2750 C   0  0  0  0  0  0  0  0  0  0  0  0
   62.5220   31.4000   51.3830 C   0  0  0  0  0  0  0  0  0  0  0  0
   62.0170   31.8490   52.5840 C   0  0  0  0  0  0  0  0  0  0  0  0
   59.0180   30.4140   52.0720 C   0  0  0  0  0  0  0  0  0  0  0  0
   59.3000   29.8300   50.8340 C   0  0  0  0  0  0  0  0  0  0  0  0
   58.2300   33.1140   44.3020 C   0  0  0  0  0  0  0  0  0  0  0  0
   57.9780   32.6460   43.0290 C   0  0  0  0  0  0  0  0  0  0  0  0
   57.4250   31.4260   42.8660 N   0  0  0  0  0  0  0  0  0  0  0  0
   56.3362   28.9281   44.8269 H   0  0  0  0  0  0  0  0  0  0  0  0
   55.5739   29.4223   43.2773 H   0  0  0  0  0  0  0  0  0  0  0  0
   57.2109   28.6829   43.2773 H   0  0  0  0  0  0  0  0  0  0  0  0
   62.0166   35.0089   47.0333 H   0  0  0  0  0  0  0  0  0  0  0  0
   64.3061   34.0751   47.1578 H   0  0  0  0  0  0  0  0  0  0  0  0
   64.5615   31.5859   47.2082 H   0  0  0  0  0  0  0  0  0  0  0  0
   62.5708   30.1578   47.1315 H   0  0  0  0  0  0  0  0  0  0  0  0
   59.3240   31.1840   46.1790 H   0  0  0  0  0  0  0  0  0  0  0  0
   58.4383   32.4219   48.8506 H   0  0  0  0  0  0  0  0  0  0  0  0
   57.9420   33.4399   51.0204 H   0  0  0  0  0  0  0  0  0  0  0  0
   57.4290   31.9390   53.9390 H   0  0  0  0  0  0  0  0  0  0  0  0
   61.2720   34.4918   54.2767 H   0  0  0  0  0  0  0  0  0  0  0  0
   61.0287   32.7815   54.7974 H   0  0  0  0  0  0  0  0  0  0  0  0
   60.6584   34.7933   51.6622 H   0  0  0  0  0  0  0  0  0  0  0  0
   61.5493   34.0333   49.4671 H   0  0  0  0  0  0  0  0  0  0  0  0
   62.7402   31.8613   49.3031 H   0  0  0  0  0  0  0  0  0  0  0  0
   63.0485   30.4367   51.3134 H   0  0  0  0  0  0  0  0  0  0  0  0
   62.1512   31.2227   53.4783 H   0  0  0  0  0  0  0  0  0  0  0  0
   59.1868   29.8356   52.9923 H   0  0  0  0  0  0  0  0  0  0  0  0
   59.6854   28.8004   50.7951 H   0  0  0  0  0  0  0  0  0  0  0  0
   58.6798   34.1091   44.4343 H   0  0  0  0  0  0  0  0  0  0  0  0
   58.2262   33.2631   42.1529 H   0  0  0  0  0  0  0  0  0  0  0  0
   57.2330   31.0710   41.8900 H   0  0  0  0  0  0  0  0  0  0  0  0
  1  2  1  0
  2  3  2  0
  3  4  1  0
  4  5  2  0
  5  6  1  0
  6  7  2  0
  6  8  2  0
  6  9  1  0
  9 10  2  0
 10 11  1  0
 11 12  2  0
 12 13  1  0
 13 14  2  0
 14 15  1  0
 15 16  1  0
 16 17  2  0
 16 18  2  0
 16 19  1  0
 19 20  2  0
 20 21  1  0
 21 22  2  0
 22 23  1  0
 23 24  1  0
 24 25  2  0
 24 26  2  0
 24 27  1  0
 27 28  1  0
 28 29  2  0
 29 30  1  0
 30 31  2  0
 31 32  1  0
 32 33  2  0
 22 34  1  0
 34 35  2  0
  4 36  1  0
 36 37  2  0
 37 38  1  0
 38  2  1  0
 14  9  1  0
 35 19  1  0
 33 28  1  0
  1 39  1  0
  1 40  1  0
  1 41  1  0
 10 42  1  0
 11 43  1  0
 12 44  1  0
 13 45  1  0
 15 46  1  0
 20 47  1  0
 21 48  1  0
 23 49  1  0
 27 50  1  0
 27 51  1  0
 29 52  1  0
 30 53  1  0
 31 54  1  0
 32 55  1  0
 33 56  1  0
 34 57  1  0
 35 58  1  0
 36 59  1  0
 37 60  1  0
 38 61  1  0
M  END
>  <smiles>  (66) 
Cc1nc(=NS(=O)(=O)c2ccccc2NS(=O)(=O)c2ccc(NS(=O)(=O)Cc3ccccc3)cc2)cc[nH]1

>  <score_type>  (66) 
oracle

>  <origin>  (66) 
adg

>  <m_score__min__energy>  (66) 
-11.15

>  <m_primary>  (66) 
energy

$$$$
66:0
     RDKit          3D

 55 57  0  0  0  0  0  0  0  0999 V2000
   59.3720   24.7300   46.0010 C   0  0  0  0  0  0  0  0  0  0  0  0
   59.3590   26.0290   46.5830 O   0  0  0  0  0  0  0  0  0  0  0  0
   59.2060   27.2280   45.8700 C   0  0  0  0  0  0  0  0  0  0  0  0
   60.3120   27.8440   45.2500 C   0  0  0  0  0  0  0  0  0  0  0  0
   60.1610   29.0330   44.5430 C   0  0  0  0  0  0  0  0  0  0  0  0
   58.9110   29.6320   44.4420 C   0  0  0  0  0  0  0  0  0  0  0  0
   57.7890   29.0460   45.0450 C   0  0  0  0  0  0  0  0  0  0  0  0
   56.4680   29.6990   44.8930 C   0  0  0  0  0  0  0  0  0  0  0  0
   55.4280   28.9900   44.8420 O   0  0  0  0  0  0  0  0  0  0  0  0
   56.3330   31.1270   44.8560 N   0  0  0  0  0  0  0  0  0  0  0  0
   57.3530   32.0730   45.2090 C   0  0  0  0  0  0  0  0  0  0  0  0
   57.5010   33.2330   44.4410 C   0  0  0  0  0  0  0  0  0  0  0  0
   58.4950   34.1650   44.7560 C   0  0  0  0  0  0  0  0  0  0  0  0
   59.3480   33.9430   45.8390 C   0  0  0  0  0  0  0  0  0  0  0  0
   59.2160   32.7850   46.6170 C   0  0  0  0  0  0  0  0  0  0  0  0
   60.1130   32.5580   47.7180 N   0  0  0  0  0  0  0  0  0  0  0  0
   61.2840   31.7270   47.6130 C   0  0  0  0  0  0  0  0  0  0  0  0
   61.3160   30.8170   46.7390 O   0  0  0  0  0  0  0  0  0  0  0  0
   62.4650   31.9220   48.4910 C   0  0  0  0  0  0  0  0  0  0  0  0
   63.4280   32.9110   48.2270 C   0  0  0  0  0  0  0  0  0  0  0  0
   64.5340   33.0590   49.0620 C   0  0  0  0  0  0  0  0  0  0  0  0
   64.6990   32.2290   50.1690 C   0  0  0  0  0  0  0  0  0  0  0  0
   63.7490   31.2320   50.4720 C   0  0  0  0  0  0  0  0  0  0  0  0
   63.9190   30.3660   51.6280 N   0  0  0  0  0  0  0  0  0  0  0  0
   65.2540   29.8910   52.0180 C   0  0  0  0  0  0  0  0  0  0  0  0
   62.7610   29.9420   52.4250 C   0  0  0  0  0  0  0  0  0  0  0  0
   62.6320   31.0950   49.6190 C   0  0  0  0  0  0  0  0  0  0  0  0
   58.2370   31.8360   46.2740 C   0  0  0  0  0  0  0  0  0  0  0  0
   57.9240   27.8350   45.7620 C   0  0  0  0  0  0  0  0  0  0  0  0
   56.7550   27.2770   46.3160 O   0  0  0  0  0  0  0  0  0  0  0  0
   56.2970   25.9370   46.1660 C   0  0  0  0  0  0  0  0  0  0  0  0
   59.3796   23.9714   46.7975 H   0  0  0  0  0  0  0  0  0  0  0  0
   58.4751   24.5984   45.3779 H   0  0  0  0  0  0  0  0  0  0  0  0
   60.2713   24.6164   45.3779 H   0  0  0  0  0  0  0  0  0  0  0  0
   61.3061   27.3793   45.3260 H   0  0  0  0  0  0  0  0  0  0  0  0
   61.0334   29.5001   44.0627 H   0  0  0  0  0  0  0  0  0  0  0  0
   58.8010   30.5737   43.8843 H   0  0  0  0  0  0  0  0  0  0  0  0
   56.8328   33.4127   43.5859 H   0  0  0  0  0  0  0  0  0  0  0  0
   58.6052   35.0756   44.1488 H   0  0  0  0  0  0  0  0  0  0  0  0
   60.1271   34.6804   46.0825 H   0  0  0  0  0  0  0  0  0  0  0  0
   59.8670   32.9950   48.6310 H   0  0  0  0  0  0  0  0  0  0  0  0
   63.3081   33.5722   47.3561 H   0  0  0  0  0  0  0  0  0  0  0  0
   65.2817   33.8363   48.8457 H   0  0  0  0  0  0  0  0  0  0  0  0
   65.5811   32.3530   50.8144 H   0  0  0  0  0  0  0  0  0  0  0  0
   65.3278   29.8648   53.1152 H   0  0  0  0  0  0  0  0  0  0  0  0
   65.4156   28.8802   51.6153 H   0  0  0  0  0  0  0  0  0  0  0  0
   66.0178   30.5725   51.6153 H   0  0  0  0  0  0  0  0  0  0  0  0
   63.0004   30.0297   53.4950 H   0  0  0  0  0  0  0  0  0  0  0  0
   61.8987   30.5827   52.1885 H   0  0  0  0  0  0  0  0  0  0  0  0
   62.5163   28.8960   52.1885 H   0  0  0  0  0  0  0  0  0  0  0  0
   61.8766   30.3265   49.8400 H   0  0  0  0  0  0  0  0  0  0  0  0
   58.1628   30.8989   46.8453 H   0  0  0  0  0  0  0  0  0  0  0  0
   56.1437   25.4886   47.1587 H   0  0  0  0  0  0  0  0  0  0  0  0
   55.3469   25.9341   45.6117 H   0  0  0  0  0  0  0  0  0  0  0  0
   57.0466   25.3532   45.6117 H   0  0  0  0  0  0  0  0  0  0  0  0
  1  2  1  0
  2  3  1  0
  3  4  2  0
  4  5  1  0
  5  6  2  0
  6  7  1  0
  7  8  1  0
  8  9  2  0
  8 10  1  0
 10 11  1  0
 11 12  2  0
 12 13  1  0
 13 14  2  0
 14 15  1  0
 15 16  1  0
 16 17  1  0
 17 18  2  0
 17 19  1  0
 19 20  2  0
 20 21  1  0
 21 22  2  0
 22 23  1  0
 23 24  1  0
 24 25  1  0
 24 26  1  0
 23 27  2  0
 15 28  2  0
  7 29  2  0
 29 30  1  0
 30 31  1  0
 29  3  1  0
 28 11  1  0
 27 19  1  0
  1 32  1  0
  1 33  1  0
  1 34  1  0
  4 35  1  0
  5 36  1  0
  6 37  1  0
 12 38  1  0
 13 39  1  0
 14 40  1  0
 16 41  1  0
 20 42  1  0
 21 43  1  0
 22 44  1  0
 25 45  1  0
 25 46  1  0
 25 47  1  0
 26 48  1  0
 26 49  1  0
 26 50  1  0
 27 51  1  0
 28 52  1  0
 31 53  1  0
 31 54  1  0
 31 55  1  0
M  CHG  1  10  -1
M  END
>  <UniqueID>  (67) 
66

>  <SMILES>  (67) 
COc1cccc(C(=O)[N-]c2cccc(NC(=O)c3cccc(N(C)C)c3)c2)c1OC

>  <Energy>  (67) 
72.32313344524117

>  <Genealogy>  (67) 
COc1cccc(C(=O)[N-]c2cccc(NC(=O)c3cccc(N(C)C)c3)c2)c1OC (protonated)
COc1cccc(C(=O)[N-]c2cccc(NC(=O)c3cccc(N(C)C)c3)c2)c1OC (3D coordinates assigned)
COc1cccc(C(=O)[N-]c2cccc(NC(=O)c3cccc(N(C)C)c3)c2)c1OC (optimized conformer: 72.32313344524117 kcal/mol)

>  <smiles>  (67) 
COc1cccc(C(=O)Nc2cccc(NC(=O)c3cccc(N(C)C)c3)c2)c1OC

>  <score_type>  (67) 
oracle

>  <origin>  (67) 
adg

>  <m_score__min__energy>  (67) 
-10.32

>  <m_primary>  (67) 
energy

$$$$
67:0
     RDKit          3D

 37 39  0  0  0  0  0  0  0  0999 V2000
   59.8160   34.3910   49.5830 N   0  0  0  0  0  0  0  0  0  0  0  0
   60.9670   33.9140   48.3850 S   0  0  0  0  0  0  0  0  0  0  0  0
   62.3600   34.1840   48.8850 O   0  0  0  0  0  0  0  0  0  0  0  0
   60.7430   34.7090   47.1290 O   0  0  0  0  0  0  0  0  0  0  0  0
   60.7790   32.1970   48.0460 C   0  0  0  0  0  0  0  0  0  0  0  0
   60.2790   31.3340   49.0300 C   0  0  0  0  0  0  0  0  0  0  0  0
   60.1460   29.9680   48.7670 C   0  0  0  0  0  0  0  0  0  0  0  0
   60.5060   29.4500   47.5120 C   0  0  0  0  0  0  0  0  0  0  0  0
   60.4060   27.9740   47.2430 C   0  0  0  0  0  0  0  0  0  0  0  0
   59.0240   27.6320   46.7840 C   0  0  0  0  0  0  0  0  0  0  0  0
   58.4480   26.4650   47.1680 N   0  0  0  0  0  0  0  0  0  0  0  0
   57.1810   26.1550   46.7960 C   0  0  0  0  0  0  0  0  0  0  0  0
   56.6730   25.0610   47.1610 O   0  0  0  0  0  0  0  0  0  0  0  0
   56.4420   27.0490   46.0130 C   0  0  0  0  0  0  0  0  0  0  0  0
   55.1410   26.7290   45.6340 O   0  0  0  0  0  0  0  0  0  0  0  0
   57.0450   28.2630   45.6300 C   0  0  0  0  0  0  0  0  0  0  0  0
   56.3470   29.2770   44.8140 C   0  0  0  0  0  0  0  0  0  0  0  0
   55.0860   29.3360   44.8050 O   0  0  0  0  0  0  0  0  0  0  0  0
   57.1260   30.1950   44.0270 N   0  0  0  0  0  0  0  0  0  0  0  0
   57.4920   31.3910   44.3800 C   0  0  0  0  0  0  0  0  0  0  0  0
   57.4180   31.8730   45.6400 N   0  0  0  0  0  0  0  0  0  0  0  0
   57.8710   33.1530   45.7100 C   0  0  0  0  0  0  0  0  0  0  0  0
   58.3040   33.6930   44.5040 C   0  0  0  0  0  0  0  0  0  0  0  0
   58.1140   32.5220   43.3090 S   0  0  0  0  0  0  0  0  0  0  0  0
   58.3200   28.5200   46.0330 N   0  0  0  0  0  0  0  0  0  0  0  0
   61.0270   30.3140   46.5350 C   0  0  0  0  0  0  0  0  0  0  0  0
   61.1590   31.6790   46.8010 C   0  0  0  0  0  0  0  0  0  0  0  0
   59.5440   35.3780   49.3680 H   0  0  0  0  0  0  0  0  0  0  0  0
   58.9620   33.8070   49.4370 H   0  0  0  0  0  0  0  0  0  0  0  0
   59.9900   31.7333   50.0134 H   0  0  0  0  0  0  0  0  0  0  0  0
   59.7577   29.2955   49.5461 H   0  0  0  0  0  0  0  0  0  0  0  0
   61.1289   27.6959   46.4619 H   0  0  0  0  0  0  0  0  0  0  0  0
   60.6271   27.4217   48.1683 H   0  0  0  0  0  0  0  0  0  0  0  0
   57.8933   33.7202   46.6522 H   0  0  0  0  0  0  0  0  0  0  0  0
   58.7013   34.7081   44.3564 H   0  0  0  0  0  0  0  0  0  0  0  0
   61.3323   29.9144   45.5567 H   0  0  0  0  0  0  0  0  0  0  0  0
   61.5633   32.3504   46.0292 H   0  0  0  0  0  0  0  0  0  0  0  0
  1  2  1  0
  2  3  2  0
  2  4  2  0
  2  5  1  0
  5  6  2  0
  6  7  1  0
  7  8  2  0
  8  9  1  0
  9 10  1  0
 10 11  2  0
 11 12  1  0
 12 13  2  0
 12 14  1  0
 14 15  1  0
 14 16  2  0
 16 17  1  0
 17 18  2  0
 17 19  1  0
 19 20  2  3
 20 21  1  0
 21 22  1  0
 22 23  2  0
 23 24  1  0
 16 25  1  0
  8 26  1  0
 26 27  2  0
 27  5  1  0
 25 10  1  0
 24 20  1  0
  1 28  1  0
  1 29  1  0
  6 30  1  0
  7 31  1  0
  9 32  1  0
  9 33  1  0
 22 34  1  0
 23 35  1  0
 26 36  1  0
 27 37  1  0
M  CHG  3  15  -1  21  -1  25  -1
M  END
>  <UniqueID>  (68) 
67

>  <SMILES>  (68) 
NS(=O)(=O)c1ccc(Cc2nc(=O)c([O-])c(C(=O)N=c3[n-]ccs3)[n-]2)cc1

>  <Energy>  (68) 
70.87441837335834

>  <Genealogy>  (68) 
NS(=O)(=O)c1ccc(Cc2nc(=O)c([O-])c(C(=O)N=c3[n-]ccs3)[n-]2)cc1 (protonated)
NS(=O)(=O)c1ccc(Cc2nc(=O)c([O-])c(C(=O)N=c3[n-]ccs3)[n-]2)cc1 (3D coordinates assigned)
NS(=O)(=O)c1ccc(Cc2nc(=O)c([O-])c(C(=O)N=c3[n-]ccs3)[n-]2)cc1 (optimized conformer: 70.87441837335834 kcal/mol)

>  <smiles>  (68) 
NS(=O)(=O)c1ccc(Cc2nc(=O)c(O)c(C(=O)N=c3[nH]ccs3)[nH]2)cc1

>  <score_type>  (68) 
oracle

>  <origin>  (68) 
adg

>  <m_score__min__energy>  (68) 
-14.300000000000001

>  <m_primary>  (68) 
energy

$$$$
68:0
     RDKit          3D

 51 53  0  0  0  0  0  0  0  0999 V2000
   57.3970   31.6080   42.0530 C   0  0  0  0  0  0  0  0  0  0  0  0
   57.8440   32.8000   42.6890 O   0  0  0  0  0  0  0  0  0  0  0  0
   57.9590   32.9190   44.0770 C   0  0  0  0  0  0  0  0  0  0  0  0
   58.4800   31.8520   44.8160 C   0  0  0  0  0  0  0  0  0  0  0  0
   58.5950   31.9580   46.2130 C   0  0  0  0  0  0  0  0  0  0  0  0
   59.1270   30.8640   46.9920 N   0  0  0  0  0  0  0  0  0  0  0  0
   59.8250   29.7560   46.3170 C   0  0  0  0  0  0  0  0  0  0  0  0
   60.7420   29.0030   47.2870 C   0  0  0  0  0  0  0  0  0  0  0  0
   59.9730   28.4840   48.5130 C   0  0  0  0  0  0  0  0  0  0  0  0
   58.8760   29.4610   49.0070 C   0  0  1  0  0  0  0  0  0  0  0  0
   58.7730   29.4630   50.4670 N   0  0  0  0  0  0  0  0  0  0  0  0
   58.0400   30.4100   51.2570 C   0  0  0  0  0  0  0  0  0  0  0  0
   56.8640   30.1600   51.6360 O   0  0  0  0  0  0  0  0  0  0  0  0
   58.6890   31.6970   51.6500 C   0  0  0  0  0  0  0  0  0  0  0  0
   60.1000   31.6780   51.2620 N   0  0  0  0  0  0  0  0  0  0  0  0
   60.5890   33.2620   50.7390 S   0  0  0  0  0  0  0  0  0  0  0  0
   59.3690   34.1160   50.5300 O   0  0  0  0  0  0  0  0  0  0  0  0
   61.4380   33.8970   51.8060 O   0  0  0  0  0  0  0  0  0  0  0  0
   61.4870   33.1580   49.2180 C   0  0  0  0  0  0  0  0  0  0  0  0
   61.0600   33.9110   48.1110 C   0  0  0  0  0  0  0  0  0  0  0  0
   61.7610   33.8570   46.9040 C   0  0  0  0  0  0  0  0  0  0  0  0
   62.8960   33.0520   46.7900 C   0  0  0  0  0  0  0  0  0  0  0  0
   63.3320   32.3000   47.8830 C   0  0  0  0  0  0  0  0  0  0  0  0
   62.6360   32.3460   49.0980 C   0  0  0  0  0  0  0  0  0  0  0  0
   63.3050   31.2910   50.5560 Br  0  0  0  0  0  0  0  0  0  0  0  0
   59.0460   30.8890   48.4610 C   0  0  0  0  0  0  0  0  0  0  0  0
   58.1860   33.1510   46.8350 C   0  0  0  0  0  0  0  0  0  0  0  0
   57.6720   34.1940   46.0630 C   0  0  0  0  0  0  0  0  0  0  0  0
   57.5700   34.0580   44.7150 N   0  0  0  0  0  0  0  0  0  0  0  0
   57.1191   30.8669   42.8169 H   0  0  0  0  0  0  0  0  0  0  0  0
   56.5222   31.8332   41.4253 H   0  0  0  0  0  0  0  0  0  0  0  0
   58.2042   31.2025   41.4253 H   0  0  0  0  0  0  0  0  0  0  0  0
   58.7992   30.9316   44.3051 H   0  0  0  0  0  0  0  0  0  0  0  0
   59.0791   29.0560   45.9125 H   0  0  0  0  0  0  0  0  0  0  0  0
   60.4430   30.1754   45.5094 H   0  0  0  0  0  0  0  0  0  0  0  0
   61.1918   28.1482   46.7608 H   0  0  0  0  0  0  0  0  0  0  0  0
   61.5151   29.7019   47.6389 H   0  0  0  0  0  0  0  0  0  0  0  0
   59.4962   27.5289   48.2475 H   0  0  0  0  0  0  0  0  0  0  0  0
   60.7006   28.3708   49.3302 H   0  0  0  0  0  0  0  0  0  0  0  0
   57.9284   29.0818   48.5968 H   0  0  0  0  0  0  0  0  0  0  0  0
   58.1820   32.5315   51.1435 H   0  0  0  0  0  0  0  0  0  0  0  0
   58.6132   31.8247   52.7399 H   0  0  0  0  0  0  0  0  0  0  0  0
   60.2050   31.0410   50.4380 H   0  0  0  0  0  0  0  0  0  0  0  0
   60.1670   34.5477   48.1956 H   0  0  0  0  0  0  0  0  0  0  0  0
   61.4185   34.4492   46.0426 H   0  0  0  0  0  0  0  0  0  0  0  0
   63.4470   33.0101   45.8389 H   0  0  0  0  0  0  0  0  0  0  0  0
   64.2273   31.6678   47.7894 H   0  0  0  0  0  0  0  0  0  0  0  0
   58.1843   31.5003   48.7672 H   0  0  0  0  0  0  0  0  0  0  0  0
   59.9740   31.3200   48.8648 H   0  0  0  0  0  0  0  0  0  0  0  0
   58.2709   33.2618   47.9261 H   0  0  0  0  0  0  0  0  0  0  0  0
   57.3490   35.1276   46.5467 H   0  0  0  0  0  0  0  0  0  0  0  0
  1  2  1  0
  2  3  1  0
  3  4  2  0
  4  5  1  0
  5  6  1  0
  6  7  1  0
  7  8  1  0
  8  9  1  0
  9 10  1  0
 10 11  1  0
 11 12  1  0
 12 13  2  0
 12 14  1  0
 14 15  1  0
 15 16  1  0
 16 17  2  0
 16 18  2  0
 16 19  1  0
 19 20  2  0
 20 21  1  0
 21 22  2  0
 22 23  1  0
 23 24  2  0
 24 25  1  0
 10 26  1  0
  5 27  2  0
 27 28  1  0
 28 29  2  0
 29  3  1  0
 26  6  1  0
 24 19  1  0
  1 30  1  0
  1 31  1  0
  1 32  1  0
  4 33  1  0
  7 34  1  0
  7 35  1  0
  8 36  1  0
  8 37  1  0
  9 38  1  0
  9 39  1  0
 10 40  1  6
 14 41  1  0
 14 42  1  0
 15 43  1  0
 20 44  1  0
 21 45  1  0
 22 46  1  0
 23 47  1  0
 26 48  1  0
 26 49  1  0
 27 50  1  0
 28 51  1  0
M  CHG  1  11  -1
M  END
>  <UniqueID>  (69) 
68

>  <SMILES>  (69) 
COc1cc(N2CCC[C@@H]([N-]C(=O)CNS(=O)(=O)c3ccccc3Br)C2)ccn1

>  <Energy>  (69) 
53.18819005855116

>  <Genealogy>  (69) 
COc1cc(N2CCCC([N-]C(=O)CNS(=O)(=O)c3ccccc3Br)C2)ccn1 (protonated)
COc1cc(N2CCC[C@@H]([N-]C(=O)CNS(=O)(=O)c3ccccc3Br)C2)ccn1 (chirality)
COc1cc(N2CCC[C@@H]([N-]C(=O)CNS(=O)(=O)c3ccccc3Br)C2)ccn1 (3D coordinates assigned)
COc1cc(N2CCC[C@@H]([N-]C(=O)CNS(=O)(=O)c3ccccc3Br)C2)ccn1 (nonaromatic ring conformer: 53.18819005855116 kcal/mol)

>  <smiles>  (69) 
COc1cc(N2CCCC(NC(=O)CNS(=O)(=O)c3ccccc3Br)C2)ccn1

>  <score_type>  (69) 
oracle

>  <origin>  (69) 
adg

>  <m_score__min__energy>  (69) 
-10.65

>  <m_primary>  (69) 
energy

$$$$
69:0
     RDKit          3D

 46 49  0  0  0  0  0  0  0  0999 V2000
   60.9700   34.1520   49.6010 C   0  0  0  0  0  0  0  0  0  0  0  0
   60.0370   33.9210   48.4490 C   0  0  0  0  0  0  0  0  0  0  0  0
   59.0110   32.9700   48.5540 C   0  0  0  0  0  0  0  0  0  0  0  0
   58.1610   32.7280   47.4710 C   0  0  0  0  0  0  0  0  0  0  0  0
   58.3370   33.4250   46.2640 C   0  0  0  0  0  0  0  0  0  0  0  0
   57.3880   33.2040   45.1090 C   0  0  0  0  0  0  0  0  0  0  0  0
   58.0430   32.5140   43.9860 N   0  0  0  0  0  0  0  0  0  0  0  0
   57.9080   31.0820   44.0960 C   0  0  0  0  0  0  0  0  0  0  0  0
   58.7720   30.3490   44.9260 C   0  0  0  0  0  0  0  0  0  0  0  0
   58.6120   28.9680   45.0730 C   0  0  0  0  0  0  0  0  0  0  0  0
   57.5770   28.2950   44.4000 C   0  0  0  0  0  0  0  0  0  0  0  0
   57.4020   26.8740   44.5480 N   0  0  0  0  0  0  0  0  0  0  0  0
   57.5140   25.8860   43.5140 C   0  0  0  0  0  0  0  0  0  0  0  0
   58.0050   26.1280   42.3790 O   0  0  0  0  0  0  0  0  0  0  0  0
   57.0470   24.5550   43.9230 C   0  0  0  0  0  0  0  0  0  0  0  0
   57.0190   23.3910   43.1510 C   0  0  0  0  0  0  0  0  0  0  0  0
   56.5340   22.2080   43.7310 C   0  0  0  0  0  0  0  0  0  0  0  0
   56.0860   22.2010   45.0650 C   0  0  0  0  0  0  0  0  0  0  0  0
   56.1230   23.3760   45.8300 C   0  0  0  0  0  0  0  0  0  0  0  0
   56.6070   24.5400   45.2370 C   0  0  0  0  0  0  0  0  0  0  0  0
   56.7690   26.1110   45.9650 S   0  0  0  0  0  0  0  0  0  0  0  0
   55.4440   26.6950   46.3650 O   0  0  0  0  0  0  0  0  0  0  0  0
   57.7590   26.1100   47.0940 O   0  0  0  0  0  0  0  0  0  0  0  0
   56.7210   29.0270   43.5610 C   0  0  0  0  0  0  0  0  0  0  0  0
   56.8820   30.4070   43.4140 C   0  0  0  0  0  0  0  0  0  0  0  0
   59.3680   34.3700   46.1590 C   0  0  0  0  0  0  0  0  0  0  0  0
   60.2210   34.6090   47.2410 C   0  0  0  0  0  0  0  0  0  0  0  0
   60.4250   34.0171   50.5469 H   0  0  0  0  0  0  0  0  0  0  0  0
   61.8004   33.4323   49.5503 H   0  0  0  0  0  0  0  0  0  0  0  0
   61.3687   35.1760   49.5503 H   0  0  0  0  0  0  0  0  0  0  0  0
   58.8749   32.4125   49.4924 H   0  0  0  0  0  0  0  0  0  0  0  0
   57.3514   31.9892   47.5642 H   0  0  0  0  0  0  0  0  0  0  0  0
   56.5410   32.5940   45.4561 H   0  0  0  0  0  0  0  0  0  0  0  0
   57.0480   34.1879   44.7535 H   0  0  0  0  0  0  0  0  0  0  0  0
   59.0600   32.7630   43.9880 H   0  0  0  0  0  0  0  0  0  0  0  0
   57.6450   32.8540   43.0780 H   0  0  0  0  0  0  0  0  0  0  0  0
   59.5805   30.8653   45.4643 H   0  0  0  0  0  0  0  0  0  0  0  0
   59.3004   28.4041   45.7195 H   0  0  0  0  0  0  0  0  0  0  0  0
   57.3702   23.4012   42.1086 H   0  0  0  0  0  0  0  0  0  0  0  0
   56.5040   21.2812   43.1392 H   0  0  0  0  0  0  0  0  0  0  0  0
   55.7051   21.2698   45.5098 H   0  0  0  0  0  0  0  0  0  0  0  0
   55.7777   23.3784   46.8744 H   0  0  0  0  0  0  0  0  0  0  0  0
   55.9178   28.5099   43.0155 H   0  0  0  0  0  0  0  0  0  0  0  0
   56.2001   30.9693   42.7592 H   0  0  0  0  0  0  0  0  0  0  0  0
   59.5064   34.9263   45.2202 H   0  0  0  0  0  0  0  0  0  0  0  0
   61.0385   35.3386   47.1443 H   0  0  0  0  0  0  0  0  0  0  0  0
  1  2  1  0
  2  3  2  0
  3  4  1  0
  4  5  2  0
  5  6  1  0
  6  7  1  0
  7  8  1  0
  8  9  2  0
  9 10  1  0
 10 11  2  0
 11 12  1  0
 12 13  1  0
 13 14  2  0
 13 15  1  0
 15 16  2  0
 16 17  1  0
 17 18  2  0
 18 19  1  0
 19 20  2  0
 20 21  1  0
 21 22  2  0
 21 23  2  0
 11 24  1  0
 24 25  2  0
  5 26  1  0
 26 27  2  0
 27  2  1  0
 25  8  1  0
 21 12  1  0
 20 15  1  0
  1 28  1  0
  1 29  1  0
  1 30  1  0
  3 31  1  0
  4 32  1  0
  6 33  1  0
  6 34  1  0
  7 35  1  0
  7 36  1  0
  9 37  1  0
 10 38  1  0
 16 39  1  0
 17 40  1  0
 18 41  1  0
 19 42  1  0
 24 43  1  0
 25 44  1  0
 26 45  1  0
 27 46  1  0
M  CHG  1   7   1
M  END
>  <UniqueID>  (70) 
69

>  <SMILES>  (70) 
Cc1ccc(C[NH2+]c2ccc(N3C(=O)c4ccccc4S3(=O)=O)cc2)cc1

>  <Energy>  (70) 
76.67302355835325

>  <Genealogy>  (70) 
Cc1ccc(C[NH2+]c2ccc(N3C(=O)c4ccccc4S3(=O)=O)cc2)cc1 (protonated)
Cc1ccc(C[NH2+]c2ccc(N3C(=O)c4ccccc4S3(=O)=O)cc2)cc1 (3D coordinates assigned)
Cc1ccc(C[NH2+]c2ccc(N3C(=O)c4ccccc4S3(=O)=O)cc2)cc1 (nonaromatic ring conformer: 76.67302355835325 kcal/mol)

>  <smiles>  (70) 
Cc1ccc(CNc2ccc(N3C(=O)c4ccccc4S3(=O)=O)cc2)cc1

>  <score_type>  (70) 
oracle

>  <origin>  (70) 
adg

>  <m_score__min__energy>  (70) 
-7.3499999999999996

>  <m_primary>  (70) 
energy

$$$$
70:0
     RDKit          3D

 34 35  0  0  0  0  0  0  0  0999 V2000
   55.9510   24.8870   47.2620 O   0  0  0  0  0  0  0  0  0  0  0  0
   55.9070   25.6220   46.2400 C   0  0  0  0  0  0  0  0  0  0  0  0
   54.7440   26.3280   45.9520 O   0  0  0  0  0  0  0  0  0  0  0  0
   57.1050   25.7570   45.3570 C   0  0  0  0  0  0  0  0  0  0  0  0
   57.6070   27.1740   45.3800 C   0  0  0  0  0  0  0  0  0  0  0  0
   58.8330   27.3840   45.5780 O   0  0  0  0  0  0  0  0  0  0  0  0
   56.7200   28.2960   45.2760 N   0  0  0  0  0  0  0  0  0  0  0  0
   57.1390   29.6640   45.2360 C   0  0  0  0  0  0  0  0  0  0  0  0
   57.7940   30.2070   46.3470 C   0  0  0  0  0  0  0  0  0  0  0  0
   58.2100   31.5410   46.3390 C   0  0  0  0  0  0  0  0  0  0  0  0
   57.9910   32.3410   45.2090 C   0  0  0  0  0  0  0  0  0  0  0  0
   58.5160   34.0230   45.2120 S   0  0  0  0  0  0  0  0  0  0  0  0
   59.6060   34.2450   44.2010 O   0  0  0  0  0  0  0  0  0  0  0  0
   57.3450   34.8980   44.8690 O   0  0  0  0  0  0  0  0  0  0  0  0
   59.1070   34.4540   46.7850 N   0  0  0  0  0  0  0  0  0  0  0  0
   60.4180   34.1620   47.2830 C   0  0  0  0  0  0  0  0  0  0  0  0
   61.4260   33.8270   46.3680 C   0  0  0  0  0  0  0  0  0  0  0  0
   62.7200   33.5420   46.8120 C   0  0  0  0  0  0  0  0  0  0  0  0
   63.0180   33.5880   48.1760 C   0  0  0  0  0  0  0  0  0  0  0  0
   62.0210   33.9180   49.0980 C   0  0  0  0  0  0  0  0  0  0  0  0
   60.7250   34.2070   48.6570 C   0  0  0  0  0  0  0  0  0  0  0  0
   57.3640   31.7930   44.0830 C   0  0  0  0  0  0  0  0  0  0  0  0
   56.9480   30.4550   44.0850 C   0  0  0  0  0  0  0  0  0  0  0  0
   56.2410   29.7850   42.6210 Cl  0  0  0  0  0  0  0  0  0  0  0  0
   57.8983   25.0842   45.7148 H   0  0  0  0  0  0  0  0  0  0  0  0
   56.8248   25.4911   44.3271 H   0  0  0  0  0  0  0  0  0  0  0  0
   57.9824   29.5804   47.2313 H   0  0  0  0  0  0  0  0  0  0  0  0
   58.7108   31.9646   47.2221 H   0  0  0  0  0  0  0  0  0  0  0  0
   61.1967   33.7882   45.2929 H   0  0  0  0  0  0  0  0  0  0  0  0
   63.5048   33.2812   46.0867 H   0  0  0  0  0  0  0  0  0  0  0  0
   64.0372   33.3645   48.5243 H   0  0  0  0  0  0  0  0  0  0  0  0
   62.2555   33.9506   50.1722 H   0  0  0  0  0  0  0  0  0  0  0  0
   59.9437   34.4701   49.3853 H   0  0  0  0  0  0  0  0  0  0  0  0
   57.1972   32.4164   43.1922 H   0  0  0  0  0  0  0  0  0  0  0  0
  1  2  2  0
  2  3  1  0
  2  4  1  0
  4  5  1  0
  5  6  2  0
  5  7  1  0
  7  8  1  0
  8  9  2  0
  9 10  1  0
 10 11  2  0
 11 12  1  0
 12 13  2  0
 12 14  2  0
 12 15  1  0
 15 16  1  0
 16 17  2  0
 17 18  1  0
 18 19  2  0
 19 20  1  0
 20 21  2  0
 11 22  1  0
 22 23  2  0
 23 24  1  0
 23  8  1  0
 21 16  1  0
  4 25  1  0
  4 26  1  0
  9 27  1  0
 10 28  1  0
 17 29  1  0
 18 30  1  0
 19 31  1  0
 20 32  1  0
 21 33  1  0
 22 34  1  0
M  CHG  3   3  -1   7  -1  15  -1
M  END
>  <UniqueID>  (71) 
70

>  <SMILES>  (71) 
O=C([O-])CC(=O)[N-]c1ccc(S(=O)(=O)[N-]c2ccccc2)cc1Cl

>  <Energy>  (71) 
42.82689599345642

>  <Genealogy>  (71) 
O=C([O-])CC(=O)[N-]c1ccc(S(=O)(=O)[N-]c2ccccc2)cc1Cl (protonated)
O=C([O-])CC(=O)[N-]c1ccc(S(=O)(=O)[N-]c2ccccc2)cc1Cl (3D coordinates assigned)
O=C([O-])CC(=O)[N-]c1ccc(S(=O)(=O)[N-]c2ccccc2)cc1Cl (optimized conformer: 42.82689599345642 kcal/mol)

>  <smiles>  (71) 
O=C(O)CC(=O)Nc1ccc(S(=O)(=O)Nc2ccccc2)cc1Cl

>  <score_type>  (71) 
oracle

>  <origin>  (71) 
adg

>  <m_score__min__energy>  (71) 
-13.31

>  <m_primary>  (71) 
energy

$$$$
71:0
     RDKit          3D

 34 36  0  0  0  0  0  0  0  0999 V2000
   56.7704   20.1156   42.9424 H   0  0  0  0  0  0  0  0  0  0  0  0
   56.6430   21.1470   43.3030 C   0  0  0  0  0  0  0  0  0  0  0  0
   55.8980   22.0530   42.6080 N   0  0  0  0  0  0  0  0  0  0  0  0
   55.9760   23.4560   43.4980 S   0  0  0  0  0  0  0  0  0  0  0  0
   56.9360   22.8650   44.7100 C   0  0  0  0  0  0  0  0  0  0  0  0
   57.3400   23.5360   45.7420 N   0  0  0  0  0  0  0  0  0  0  0  0
   56.5830   25.0040   46.2690 S   0  0  0  0  0  0  0  0  0  0  0  0
   55.1080   24.9340   45.9900 O   0  0  0  0  0  0  0  0  0  0  0  0
   56.7860   25.1650   47.7500 O   0  0  0  0  0  0  0  0  0  0  0  0
   57.3130   26.3760   45.4400 C   0  0  0  0  0  0  0  0  0  0  0  0
   57.8440   26.2070   44.1560 C   0  0  0  0  0  0  0  0  0  0  0  0
   57.8378   25.2125   43.6860 H   0  0  0  0  0  0  0  0  0  0  0  0
   58.3820   27.2990   43.4700 C   0  0  0  0  0  0  0  0  0  0  0  0
   58.8106   27.1595   42.4666 H   0  0  0  0  0  0  0  0  0  0  0  0
   58.3770   28.5670   44.0550 C   0  0  0  0  0  0  0  0  0  0  0  0
   58.8064   29.4229   43.5137 H   0  0  0  0  0  0  0  0  0  0  0  0
   57.8240   28.7520   45.3350 C   0  0  0  0  0  0  0  0  0  0  0  0
   57.7940   30.0420   45.9610 N   0  0  0  0  0  0  0  0  0  0  0  0
   57.3940   31.2670   45.3310 C   0  0  0  0  0  0  0  0  0  0  0  0
   56.4540   31.2380   44.4940 O   0  0  0  0  0  0  0  0  0  0  0  0
   58.0800   32.5500   45.6100 C   0  0  0  0  0  0  0  0  0  0  0  0
   58.2570   32.9680   46.9410 C   0  0  0  0  0  0  0  0  0  0  0  0
   57.8772   32.3458   47.7648 H   0  0  0  0  0  0  0  0  0  0  0  0
   58.9130   34.1700   47.2230 C   0  0  0  0  0  0  0  0  0  0  0  0
   59.0569   34.4848   48.2671 H   0  0  0  0  0  0  0  0  0  0  0  0
   59.3860   34.9720   46.1820 C   0  0  0  0  0  0  0  0  0  0  0  0
   59.9065   35.9146   46.4068 H   0  0  0  0  0  0  0  0  0  0  0  0
   59.1980   34.5770   44.8550 C   0  0  0  0  0  0  0  0  0  0  0  0
   59.5659   35.2127   44.0361 H   0  0  0  0  0  0  0  0  0  0  0  0
   58.5430   33.3750   44.5650 C   0  0  0  0  0  0  0  0  0  0  0  0
   58.3300   33.0430   43.2660 F   0  0  0  0  0  0  0  0  0  0  0  0
   57.3150   27.6490   46.0310 C   0  0  0  0  0  0  0  0  0  0  0  0
   56.9143   27.7809   47.0469 H   0  0  0  0  0  0  0  0  0  0  0  0
   57.2260   21.5700   44.4660 N   0  0  0  0  0  0  0  0  0  0  0  0
  1  2  1  0
  2  3  2  0
  3  4  1  0
  4  5  1  0
  5  6  2  0
  6  7  1  0
  7  8  2  0
  7  9  2  0
  7 10  1  0
 10 11  2  0
 11 12  1  0
 11 13  1  0
 13 14  1  0
 13 15  2  0
 15 16  1  0
 15 17  1  0
 17 18  1  0
 18 19  1  0
 19 20  2  0
 19 21  1  0
 21 22  2  0
 22 23  1  0
 22 24  1  0
 24 25  1  0
 24 26  2  0
 26 27  1  0
 26 28  1  0
 28 29  1  0
 28 30  2  0
 30 31  1  0
 17 32  2  0
 32 33  1  0
  5 34  1  0
 34  2  1  0
 32 10  1  0
 30 21  1  0
M  CHG  2  18  -1  34  -1
M  END
>  <UniqueID>  (72) 
71

>  <SMILES>  (72) 
O=C([N-]c1cccc(S(=O)(=O)/N=c2\[n-]cns2)c1)c1ccccc1F

>  <Energy>  (72) 
84.87219309320872

>  <Genealogy>  (72) 
O=C([N-]c1cccc(S(=O)(=O)N=c2[n-]cns2)c1)c1ccccc1F (protonated)
O=C([N-]c1cccc(S(=O)(=O)/N=c2\[n-]cns2)c1)c1ccccc1F (cis-trans isomerization)
O=C([N-]c1cccc(S(=O)(=O)/N=c2\[n-]cns2)c1)c1ccccc1F (3D coordinates assigned)
O=C([N-]c1cccc(S(=O)(=O)/N=c2\[n-]cns2)c1)c1ccccc1F (optimized conformer: 84.87219309320872 kcal/mol)

>  <smiles>  (72) 
O=C(Nc1cccc(S(=O)(=O)N=c2[nH]cns2)c1)c1ccccc1F

>  <score_type>  (72) 
oracle

>  <origin>  (72) 
adg

>  <m_score__min__energy>  (72) 
-11.359999999999999

>  <m_primary>  (72) 
energy

$$$$
72:0
     RDKit          3D

 18 19  0  0  0  0  0  0  0  0999 V2000
   60.0540   26.6980   46.1730 C   0  0  0  0  0  0  0  0  0  0  0  0
   58.7980   27.4170   45.7820 C   0  0  0  0  0  0  0  0  0  0  0  0
   58.8330   28.7420   45.2950 C   0  0  0  0  0  0  0  0  0  0  0  0
   57.6380   29.4190   44.9640 C   0  0  0  0  0  0  0  0  0  0  0  0
   56.3900   28.7840   45.1280 C   0  0  0  0  0  0  0  0  0  0  0  0
   55.1980   29.4280   44.8120 O   0  0  0  0  0  0  0  0  0  0  0  0
   56.3860   27.4810   45.6250 C   0  0  0  0  0  0  0  0  0  0  0  0
   55.3240   26.7000   45.8690 N   0  0  0  0  0  0  0  0  0  0  0  0
   55.9040   25.5680   46.3410 C   0  0  0  0  0  0  0  0  0  0  0  0
   55.2340   24.5640   46.6940 O   0  0  0  0  0  0  0  0  0  0  0  0
   57.2600   25.5970   46.4050 N   0  0  0  0  0  0  0  0  0  0  0  0
   57.5400   26.8260   45.9430 C   0  0  0  0  0  0  0  0  0  0  0  0
   60.1264   26.6565   47.2698 H   0  0  0  0  0  0  0  0  0  0  0  0
   60.0324   25.6755   45.7680 H   0  0  0  0  0  0  0  0  0  0  0  0
   60.9248   27.2344   45.7680 H   0  0  0  0  0  0  0  0  0  0  0  0
   59.7999   29.2519   45.1722 H   0  0  0  0  0  0  0  0  0  0  0  0
   57.6815   30.4474   44.5761 H   0  0  0  0  0  0  0  0  0  0  0  0
   54.3760   28.9070   44.5290 H   0  0  0  0  0  0  0  0  0  0  0  0
  1  2  1  0
  2  3  2  0
  3  4  1  0
  4  5  2  0
  5  6  1  0
  5  7  1  0
  7  8  1  0
  8  9  1  0
  9 10  2  0
  9 11  1  0
 11 12  1  0
 12  2  1  0
 12  7  2  0
  1 13  1  0
  1 14  1  0
  1 15  1  0
  3 16  1  0
  4 17  1  0
  6 18  1  0
M  CHG  2   8  -1  11  -1
M  END
>  <UniqueID>  (73) 
72

>  <SMILES>  (73) 
Cc1ccc(O)c2[n-]c(=O)[n-]c12

>  <Energy>  (73) 
52.66533740650456

>  <Genealogy>  (73) 
Cc1ccc(O)c2[n-]c(=O)[n-]c12 (protonated)
Cc1ccc(O)c2[n-]c(=O)[n-]c12 (3D coordinates assigned)
Cc1ccc(O)c2[n-]c(=O)[n-]c12 (optimized conformer: 52.66533740650456 kcal/mol)

>  <smiles>  (73) 
Cc1ccc(O)c2[nH]c(=O)[nH]c12

>  <score_type>  (73) 
oracle

>  <origin>  (73) 
adg

>  <m_score__min__energy>  (73) 
-10.16

>  <m_primary>  (73) 
energy

$$$$
73:0
     RDKit          3D

 36 38  0  0  0  0  0  0  0  0999 V2000
   62.3420   33.4360   51.4600 C   0  0  0  0  0  0  0  0  0  0  0  0
   61.4400   32.9380   50.4770 O   0  0  0  0  0  0  0  0  0  0  0  0
   61.4430   33.3010   49.1200 C   0  0  0  0  0  0  0  0  0  0  0  0
   62.6580   33.4700   48.4260 C   0  0  0  0  0  0  0  0  0  0  0  0
   62.6630   33.8350   47.0830 C   0  0  0  0  0  0  0  0  0  0  0  0
   61.4650   34.0300   46.4060 C   0  0  0  0  0  0  0  0  0  0  0  0
   60.2350   33.8540   47.0620 C   0  0  0  0  0  0  0  0  0  0  0  0
   58.9500   34.0980   46.2970 C   0  0  2  0  0  0  0  0  0  0  0  0
   58.0090   33.0010   46.5030 N   0  0  0  0  0  0  0  0  0  0  0  0
   57.6470   32.3640   45.2970 C   0  0  0  0  0  0  0  0  0  0  0  0
   56.7850   31.3180   45.2420 N   0  0  0  0  0  0  0  0  0  0  0  0
   56.4820   30.7440   44.0440 C   0  0  0  0  0  0  0  0  0  0  0  0
   55.5390   29.5850   43.9890 C   0  0  0  0  0  0  0  0  0  0  0  0
   57.0710   31.2350   42.8660 C   0  0  0  0  0  0  0  0  0  0  0  0
   57.9550   32.3150   42.9610 C   0  0  0  0  0  0  0  0  0  0  0  0
   58.5010   32.7800   41.9250 O   0  0  0  0  0  0  0  0  0  0  0  0
   58.2180   32.8510   44.1820 N   0  0  0  0  0  0  0  0  0  0  0  0
   59.3050   34.2080   44.4890 S   0  0  0  0  0  0  0  0  0  0  0  0
   60.2140   33.5040   48.4330 C   0  0  0  0  0  0  0  0  0  0  0  0
   58.9550   33.3770   49.0540 O   0  0  0  0  0  0  0  0  0  0  0  0
   58.5180   32.3130   49.8930 C   0  0  0  0  0  0  0  0  0  0  0  0
   61.9475   33.2182   52.4635 H   0  0  0  0  0  0  0  0  0  0  0  0
   63.3217   32.9510   51.3379 H   0  0  0  0  0  0  0  0  0  0  0  0
   62.4535   34.5235   51.3379 H   0  0  0  0  0  0  0  0  0  0  0  0
   63.6116   33.3119   48.9510 H   0  0  0  0  0  0  0  0  0  0  0  0
   63.6187   33.9697   46.5554 H   0  0  0  0  0  0  0  0  0  0  0  0
   61.4799   34.3250   45.3464 H   0  0  0  0  0  0  0  0  0  0  0  0
   58.5136   35.0384   46.6648 H   0  0  0  0  0  0  0  0  0  0  0  0
   57.6240   32.7340   47.4370 H   0  0  0  0  0  0  0  0  0  0  0  0
   55.2837   29.2712   45.0119 H   0  0  0  0  0  0  0  0  0  0  0  0
   54.6231   29.8824   43.4573 H   0  0  0  0  0  0  0  0  0  0  0  0
   56.0165   28.7487   43.4573 H   0  0  0  0  0  0  0  0  0  0  0  0
   56.8419   30.7801   41.8910 H   0  0  0  0  0  0  0  0  0  0  0  0
   58.6376   32.6043   50.9470 H   0  0  0  0  0  0  0  0  0  0  0  0
   57.4586   32.0975   49.6901 H   0  0  0  0  0  0  0  0  0  0  0  0
   59.1202   31.4151   49.6901 H   0  0  0  0  0  0  0  0  0  0  0  0
  1  2  1  0
  2  3  1  0
  3  4  2  0
  4  5  1  0
  5  6  2  0
  6  7  1  0
  7  8  1  0
  8  9  1  0
  9 10  1  0
 10 11  2  0
 11 12  1  0
 12 13  1  0
 12 14  2  0
 14 15  1  0
 15 16  2  0
 15 17  1  0
 17 18  1  0
  7 19  2  0
 19 20  1  0
 20 21  1  0
 19  3  1  0
 18  8  1  0
 17 10  1  0
  1 22  1  0
  1 23  1  0
  1 24  1  0
  4 25  1  0
  5 26  1  0
  6 27  1  0
  8 28  1  1
  9 29  1  0
 13 30  1  0
 13 31  1  0
 13 32  1  0
 14 33  1  0
 21 34  1  0
 21 35  1  0
 21 36  1  0
M  END
>  <UniqueID>  (74) 
73

>  <SMILES>  (74) 
COc1cccc([C@@H]2Nc3nc(C)cc(=O)n3S2)c1OC

>  <Energy>  (74) 
51.08634959380515

>  <Genealogy>  (74) 
COc1cccc([C@@H]2Nc3nc(C)cc(=O)n3S2)c1OC (chirality)
COc1cccc([C@@H]2Nc3nc(C)cc(=O)n3S2)c1OC (3D coordinates assigned)
COc1cccc([C@@H]2Nc3nc(C)cc(=O)n3S2)c1OC (nonaromatic ring conformer: 51.08634959380515 kcal/mol)

>  <smiles>  (74) 
COc1cccc(C2Nc3nc(C)cc(=O)n3S2)c1OC

>  <score_type>  (74) 
oracle

>  <origin>  (74) 
adg

>  <m_score__min__energy>  (74) 
-6.4199999999999999

>  <m_primary>  (74) 
energy

$$$$
74:0
     RDKit          3D

 50 52  0  0  0  0  0  0  0  0999 V2000
   56.4423   34.1325   45.5781 H   0  0  0  0  0  0  0  0  0  0  0  0
   57.4080   33.6890   45.2940 C   0  0  0  0  0  0  0  0  0  0  0  0
   57.4150   32.4290   44.5330 C   0  0  0  0  0  0  0  0  0  0  0  0
   58.2440   32.2430   43.5990 O   0  0  0  0  0  0  0  0  0  0  0  0
   56.4680   31.4130   44.8670 N   0  0  0  0  0  0  0  0  0  0  0  0
   56.6070   29.7820   44.3030 S   0  0  0  0  0  0  0  0  0  0  0  0
   55.4960   28.9560   44.8880 O   0  0  0  0  0  0  0  0  0  0  0  0
   56.4910   29.7580   42.8050 O   0  0  0  0  0  0  0  0  0  0  0  0
   58.1440   29.0990   44.7990 C   0  0  0  0  0  0  0  0  0  0  0  0
   58.3350   27.6500   45.6240 S   0  0  0  0  0  0  0  0  0  0  0  0
   60.0120   27.7400   45.7410 C   0  0  0  0  0  0  0  0  0  0  0  0
   60.6636   26.9949   46.2208 H   0  0  0  0  0  0  0  0  0  0  0  0
   60.4340   28.9130   45.1300 C   0  0  0  0  0  0  0  0  0  0  0  0
   61.4907   29.2119   45.0655 H   0  0  0  0  0  0  0  0  0  0  0  0
   59.3880   29.6790   44.6040 C   0  0  0  0  0  0  0  0  0  0  0  0
   59.5370   30.6400   44.0900 H   0  0  0  0  0  0  0  0  0  0  0  0
   58.5390   34.3150   45.6530 C   0  0  0  0  0  0  0  0  0  0  0  0
   58.6180   35.3960   45.4655 H   0  0  0  0  0  0  0  0  0  0  0  0
   59.6880   33.6270   46.2890 C   0  0  0  0  0  0  0  0  0  0  0  0
   60.9730   34.1960   46.3240 C   0  0  0  0  0  0  0  0  0  0  0  0
   61.1441   35.1890   45.8828 H   0  0  0  0  0  0  0  0  0  0  0  0
   62.0330   33.5070   46.9160 C   0  0  0  0  0  0  0  0  0  0  0  0
   63.0334   33.9636   46.9417 H   0  0  0  0  0  0  0  0  0  0  0  0
   61.8330   32.2340   47.4800 C   0  0  0  0  0  0  0  0  0  0  0  0
   62.8770   31.5140   48.0830 O   0  0  0  0  0  0  0  0  0  0  0  0
   63.5990   31.9490   49.2300 C   0  0  0  0  0  0  0  0  0  0  0  0
   64.6390   31.5967   49.1642 H   0  0  0  0  0  0  0  0  0  0  0  0
   63.5868   33.0480   49.2763 H   0  0  0  0  0  0  0  0  0  0  0  0
   62.9470   31.3790   50.4870 C   0  0  0  0  0  0  0  0  0  0  0  0
   62.8691   30.2861   50.3898 H   0  0  0  0  0  0  0  0  0  0  0  0
   63.5666   31.6408   51.3574 H   0  0  0  0  0  0  0  0  0  0  0  0
   61.5700   31.9580   50.6800 C   0  0  0  0  0  0  0  0  0  0  0  0
   60.5000   31.1260   51.0500 C   0  0  0  0  0  0  0  0  0  0  0  0
   60.6740   30.0542   51.2261 H   0  0  0  0  0  0  0  0  0  0  0  0
   59.2140   31.6570   51.1950 C   0  0  0  0  0  0  0  0  0  0  0  0
   58.3813   31.0043   51.4960 H   0  0  0  0  0  0  0  0  0  0  0  0
   58.9850   33.0160   50.9580 C   0  0  0  0  0  0  0  0  0  0  0  0
   57.9732   33.4321   51.0720 H   0  0  0  0  0  0  0  0  0  0  0  0
   60.0440   33.8450   50.5760 C   0  0  0  0  0  0  0  0  0  0  0  0
   59.8639   34.9137   50.3876 H   0  0  0  0  0  0  0  0  0  0  0  0
   61.3310   33.3190   50.4330 C   0  0  0  0  0  0  0  0  0  0  0  0
   62.1596   33.9739   50.1258 H   0  0  0  0  0  0  0  0  0  0  0  0
   60.5570   31.6540   47.4430 C   0  0  0  0  0  0  0  0  0  0  0  0
   60.3860   30.3840   48.0160 O   0  0  0  0  0  0  0  0  0  0  0  0
   59.1250   29.7850   48.2850 C   0  0  0  0  0  0  0  0  0  0  0  0
   58.9770   29.7147   49.3727 H   0  0  0  0  0  0  0  0  0  0  0  0
   58.3258   30.3997   47.8452 H   0  0  0  0  0  0  0  0  0  0  0  0
   59.0965   28.7771   47.8452 H   0  0  0  0  0  0  0  0  0  0  0  0
   59.4930   32.3510   46.8380 C   0  0  0  0  0  0  0  0  0  0  0  0
   58.4958   31.8885   46.7955 H   0  0  0  0  0  0  0  0  0  0  0  0
  1  2  1  0
  2  3  1  0
  3  4  2  0
  3  5  1  0
  5  6  1  0
  6  7  2  0
  6  8  2  0
  6  9  1  0
  9 10  1  0
 10 11  1  0
 11 12  1  0
 11 13  2  0
 13 14  1  0
 13 15  1  0
 15 16  1  0
  2 17  2  0
 17 18  1  0
 17 19  1  0
 19 20  2  0
 20 21  1  0
 20 22  1  0
 22 23  1  0
 22 24  2  0
 24 25  1  0
 25 26  1  0
 26 27  1  0
 26 28  1  0
 26 29  1  0
 29 30  1  0
 29 31  1  0
 29 32  1  0
 32 33  2  0
 33 34  1  0
 33 35  1  0
 35 36  1  0
 35 37  2  0
 37 38  1  0
 37 39  1  0
 39 40  1  0
 39 41  2  0
 41 42  1  0
 24 43  1  0
 43 44  1  0
 44 45  1  0
 45 46  1  0
 45 47  1  0
 45 48  1  0
 43 49  2  0
 49 50  1  0
 15  9  2  0
 49 19  1  0
 41 32  1  0
M  CHG  1   5  -1
M  END
>  <UniqueID>  (75) 
74

>  <SMILES>  (75) 
COc1cc(/C=C/C(=O)[N-]S(=O)(=O)c2cccs2)ccc1OCCc1ccccc1

>  <Energy>  (75) 
78.01647930430619

>  <Genealogy>  (75) 
COc1cc(C=CC(=O)[N-]S(=O)(=O)c2cccs2)ccc1OCCc1ccccc1 (protonated)
COc1cc(/C=C/C(=O)[N-]S(=O)(=O)c2cccs2)ccc1OCCc1ccccc1 (cis-trans isomerization)
COc1cc(/C=C/C(=O)[N-]S(=O)(=O)c2cccs2)ccc1OCCc1ccccc1 (3D coordinates assigned)
COc1cc(/C=C/C(=O)[N-]S(=O)(=O)c2cccs2)ccc1OCCc1ccccc1 (optimized conformer: 78.01647930430619 kcal/mol)

>  <smiles>  (75) 
COc1cc(C=CC(=O)NS(=O)(=O)c2cccs2)ccc1OCCc1ccccc1

>  <score_type>  (75) 
oracle

>  <origin>  (75) 
adg

>  <m_score__min__energy>  (75) 
-11.01

>  <m_primary>  (75) 
energy

$$$$
75:0
     RDKit          3D

 35 37  0  0  0  0  0  0  0  0999 V2000
   59.9940   28.5260   44.6380 O   0  0  0  0  0  0  0  0  0  0  0  0
   58.9620   29.2110   44.6010 C   0  0  0  0  0  0  0  0  0  0  0  0
   59.0820   30.5340   44.3870 N   0  0  0  0  0  0  0  0  0  0  0  0
   58.0000   31.3340   44.3360 C   0  0  0  0  0  0  0  0  0  0  0  0
   58.2230   32.7710   44.0970 C   0  0  0  0  0  0  0  0  0  0  0  0
   58.6770   33.3830   45.3900 C   0  0  0  0  0  0  0  0  0  0  0  0
   59.2050   34.6590   45.2980 C   0  0  0  0  0  0  0  0  0  0  0  0
   59.6600   35.3260   46.4360 C   0  0  0  0  0  0  0  0  0  0  0  0
   59.5520   34.6430   47.6460 C   0  0  0  0  0  0  0  0  0  0  0  0
   59.0230   33.3700   47.7230 C   0  0  0  0  0  0  0  0  0  0  0  0
   58.9030   32.5460   49.2620 Cl  0  0  0  0  0  0  0  0  0  0  0  0
   58.5750   32.7190   46.5920 C   0  0  0  0  0  0  0  0  0  0  0  0
   56.7410   30.8500   44.4970 N   0  0  0  0  0  0  0  0  0  0  0  0
   56.5580   29.5350   44.7130 C   0  0  0  0  0  0  0  0  0  0  0  0
   55.2930   29.0080   44.8800 O   0  0  0  0  0  0  0  0  0  0  0  0
   57.6830   28.7120   44.7640 C   0  0  0  0  0  0  0  0  0  0  0  0
   57.5670   27.2750   44.9950 C   0  0  0  0  0  0  0  0  0  0  0  0
   57.8540   26.4010   43.9660 C   0  0  0  0  0  0  0  0  0  0  0  0
   57.7350   25.0630   44.2160 C   0  0  0  0  0  0  0  0  0  0  0  0
   57.3410   24.6430   45.4680 C   0  0  0  0  0  0  0  0  0  0  0  0
   57.0520   25.5110   46.5030 C   0  0  0  0  0  0  0  0  0  0  0  0
   57.1710   26.8640   46.2510 C   0  0  0  0  0  0  0  0  0  0  0  0
   58.9959   32.9072   43.3262 H   0  0  0  0  0  0  0  0  0  0  0  0
   57.2976   33.2517   43.7469 H   0  0  0  0  0  0  0  0  0  0  0  0
   59.2666   35.1528   44.3170 H   0  0  0  0  0  0  0  0  0  0  0  0
   60.0827   36.3400   46.3809 H   0  0  0  0  0  0  0  0  0  0  0  0
   59.8988   35.1330   48.5678 H   0  0  0  0  0  0  0  0  0  0  0  0
   58.1513   31.7054   46.6485 H   0  0  0  0  0  0  0  0  0  0  0  0
   55.9110   31.4520   44.4580 H   0  0  0  0  0  0  0  0  0  0  0  0
   55.1400   27.9960   45.0040 H   0  0  0  0  0  0  0  0  0  0  0  0
   58.1679   26.7692   42.9781 H   0  0  0  0  0  0  0  0  0  0  0  0
   57.9514   24.3287   43.4261 H   0  0  0  0  0  0  0  0  0  0  0  0
   57.2522   23.5622   45.6524 H   0  0  0  0  0  0  0  0  0  0  0  0
   56.7392   25.1391   47.4898 H   0  0  0  0  0  0  0  0  0  0  0  0
   56.9538   27.6010   47.0382 H   0  0  0  0  0  0  0  0  0  0  0  0
  1  2  2  0
  2  3  1  0
  3  4  2  0
  4  5  1  0
  5  6  1  0
  6  7  2  0
  7  8  1  0
  8  9  2  0
  9 10  1  0
 10 11  1  0
 10 12  2  0
  4 13  1  0
 13 14  1  0
 14 15  1  0
 14 16  2  0
 16 17  1  0
 17 18  2  0
 18 19  1  0
 19 20  2  0
 20 21  1  0
 21 22  2  0
 16  2  1  0
 22 17  1  0
 12  6  1  0
  5 23  1  0
  5 24  1  0
  7 25  1  0
  8 26  1  0
  9 27  1  0
 12 28  1  0
 13 29  1  0
 15 30  1  0
 18 31  1  0
 19 32  1  0
 20 33  1  0
 21 34  1  0
 22 35  1  0
M  END
>  <smiles>  (76) 
O=c1nc(Cc2cccc(Cl)c2)[nH]c(O)c1-c1ccccc1

>  <score_type>  (76) 
oracle

>  <origin>  (76) 
adg

>  <m_score__min__energy>  (76) 
-8.9800000000000004

>  <m_primary>  (76) 
energy

$$$$
76:0
     RDKit          3D

 45 47  0  0  0  0  0  0  0  0999 V2000
   59.7760   31.0260   48.6230 C   0  0  0  0  0  0  0  0  0  0  0  0
   59.3170   32.2950   49.0730 O   0  0  0  0  0  0  0  0  0  0  0  0
   59.3040   33.4290   48.2530 C   0  0  0  0  0  0  0  0  0  0  0  0
   59.6540   34.5490   48.7200 O   0  0  0  0  0  0  0  0  0  0  0  0
   58.8800   33.3120   46.8400 C   0  0  0  0  0  0  0  0  0  0  0  0
   59.5640   34.0140   45.8340 C   0  0  0  0  0  0  0  0  0  0  0  0
   59.1600   33.9130   44.5010 C   0  0  0  0  0  0  0  0  0  0  0  0
   58.0740   33.1040   44.1550 C   0  0  0  0  0  0  0  0  0  0  0  0
   57.3940   32.3760   45.1460 C   0  0  0  0  0  0  0  0  0  0  0  0
   56.2670   31.5460   44.8270 N   0  0  0  0  0  0  0  0  0  0  0  0
   56.3160   30.1780   44.4000 C   0  0  0  0  0  0  0  0  0  0  0  0
   55.4260   29.7590   43.6140 O   0  0  0  0  0  0  0  0  0  0  0  0
   57.3490   29.2360   44.8970 C   0  0  0  0  0  0  0  0  0  0  0  0
   58.7140   29.5440   44.7890 C   0  0  0  0  0  0  0  0  0  0  0  0
   59.6770   28.6480   45.2540 C   0  0  0  0  0  0  0  0  0  0  0  0
   59.2960   27.4420   45.8510 C   0  0  0  0  0  0  0  0  0  0  0  0
   60.5640   26.3450   46.3850 Cl  0  0  0  0  0  0  0  0  0  0  0  0
   57.9280   27.1330   45.9960 C   0  0  0  0  0  0  0  0  0  0  0  0
   57.4030   25.6220   46.7530 S   0  0  0  0  0  0  0  0  0  0  0  0
   58.1390   25.4460   48.0510 O   0  0  0  0  0  0  0  0  0  0  0  0
   55.9240   25.6680   47.0230 O   0  0  0  0  0  0  0  0  0  0  0  0
   57.7580   24.2660   45.7240 N   0  0  0  0  0  0  0  0  0  0  0  0
   56.5470   23.8340   45.0310 C   0  0  0  0  0  0  0  0  0  0  0  0
   56.8850   22.7030   44.1190 C   0  0  0  0  0  0  0  0  0  0  0  0
   58.1220   22.1010   44.0060 C   0  0  0  0  0  0  0  0  0  0  0  0
   57.9610   21.0970   43.0760 C   0  0  0  0  0  0  0  0  0  0  0  0
   56.6360   21.1460   42.6850 C   0  0  0  0  0  0  0  0  0  0  0  0
   56.0210   22.1120   43.3270 O   0  0  0  0  0  0  0  0  0  0  0  0
   56.9660   28.0320   45.5080 C   0  0  0  0  0  0  0  0  0  0  0  0
   57.7870   32.4980   46.4840 C   0  0  0  0  0  0  0  0  0  0  0  0
   60.0059   30.3904   49.4908 H   0  0  0  0  0  0  0  0  0  0  0  0
   58.9939   30.5477   48.0151 H   0  0  0  0  0  0  0  0  0  0  0  0
   60.6831   31.1586   48.0151 H   0  0  0  0  0  0  0  0  0  0  0  0
   60.4236   34.6476   46.0978 H   0  0  0  0  0  0  0  0  0  0  0  0
   59.6980   34.4718   43.7211 H   0  0  0  0  0  0  0  0  0  0  0  0
   57.7512   33.0371   43.1055 H   0  0  0  0  0  0  0  0  0  0  0  0
   59.0260   30.4964   44.3356 H   0  0  0  0  0  0  0  0  0  0  0  0
   60.7446   28.8921   45.1502 H   0  0  0  0  0  0  0  0  0  0  0  0
   55.7993   23.5032   45.7669 H   0  0  0  0  0  0  0  0  0  0  0  0
   56.1348   24.6706   44.4477 H   0  0  0  0  0  0  0  0  0  0  0  0
   59.0431   22.3670   44.5453 H   0  0  0  0  0  0  0  0  0  0  0  0
   58.7310   20.3980   42.7174 H   0  0  0  0  0  0  0  0  0  0  0  0
   56.1679   20.4771   41.9478 H   0  0  0  0  0  0  0  0  0  0  0  0
   55.8976   27.7892   45.6060 H   0  0  0  0  0  0  0  0  0  0  0  0
   57.2368   31.9528   47.2651 H   0  0  0  0  0  0  0  0  0  0  0  0
  1  2  1  0
  2  3  1  0
  3  4  2  0
  3  5  1  0
  5  6  2  0
  6  7  1  0
  7  8  2  0
  8  9  1  0
  9 10  1  0
 10 11  1  0
 11 12  2  0
 11 13  1  0
 13 14  2  0
 14 15  1  0
 15 16  2  0
 16 17  1  0
 16 18  1  0
 18 19  1  0
 19 20  2  0
 19 21  2  0
 19 22  1  0
 22 23  1  0
 23 24  1  0
 24 25  2  0
 25 26  1  0
 26 27  2  0
 27 28  1  0
 18 29  2  0
  9 30  2  0
 30  5  1  0
 29 13  1  0
 28 24  1  0
  1 31  1  0
  1 32  1  0
  1 33  1  0
  6 34  1  0
  7 35  1  0
  8 36  1  0
 14 37  1  0
 15 38  1  0
 23 39  1  0
 23 40  1  0
 25 41  1  0
 26 42  1  0
 27 43  1  0
 29 44  1  0
 30 45  1  0
M  CHG  2  10  -1  22  -1
M  END
>  <UniqueID>  (77) 
75

>  <SMILES>  (77) 
COC(=O)c1cccc([N-]C(=O)c2ccc(Cl)c(S(=O)(=O)[N-]Cc3ccco3)c2)c1

>  <Energy>  (77) 
77.17162478542222

>  <Genealogy>  (77) 
COC(=O)c1cccc([N-]C(=O)c2ccc(Cl)c(S(=O)(=O)[N-]Cc3ccco3)c2)c1 (protonated)
COC(=O)c1cccc([N-]C(=O)c2ccc(Cl)c(S(=O)(=O)[N-]Cc3ccco3)c2)c1 (3D coordinates assigned)
COC(=O)c1cccc([N-]C(=O)c2ccc(Cl)c(S(=O)(=O)[N-]Cc3ccco3)c2)c1 (optimized conformer: 77.17162478542222 kcal/mol)

>  <smiles>  (77) 
COC(=O)c1cccc(NC(=O)c2ccc(Cl)c(S(=O)(=O)NCc3ccco3)c2)c1

>  <score_type>  (77) 
oracle

>  <origin>  (77) 
adg

>  <m_score__min__energy>  (77) 
-11.779999999999999

>  <m_primary>  (77) 
energy

$$$$
77:0
     RDKit          3D

 24 25  0  0  0  0  0  0  0  0999 V2000
   53.5010   24.7270   45.6770 O   0  0  0  0  0  0  0  0  0  0  0  0
   54.7120   25.0760   45.6170 C   0  0  0  0  0  0  0  0  0  0  0  0
   55.1000   26.3910   46.0370 N   0  0  0  0  0  0  0  0  0  0  0  0
   56.3570   27.0370   45.7850 C   0  0  0  0  0  0  0  0  0  0  0  0
   57.5830   26.4320   46.1190 C   0  0  0  0  0  0  0  0  0  0  0  0
   58.7870   27.1020   45.8820 C   0  0  0  0  0  0  0  0  0  0  0  0
   58.7800   28.3840   45.3250 C   0  0  0  0  0  0  0  0  0  0  0  0
   60.2920   29.2220   45.0320 Cl  0  0  0  0  0  0  0  0  0  0  0  0
   57.5650   29.0000   45.0130 C   0  0  0  0  0  0  0  0  0  0  0  0
   56.3570   28.3340   45.2480 C   0  0  0  0  0  0  0  0  0  0  0  0
   55.1560   28.9640   44.9400 O   0  0  0  0  0  0  0  0  0  0  0  0
   55.7240   24.1110   45.1200 C   0  0  0  0  0  0  0  0  0  0  0  0
   55.8190   23.8880   43.7350 C   0  0  0  0  0  0  0  0  0  0  0  0
   56.7740   23.0040   43.2330 C   0  0  0  0  0  0  0  0  0  0  0  0
   57.6070   22.3490   44.0790 N   0  0  0  0  0  0  0  0  0  0  0  0
   57.5400   22.5280   45.4240 C   0  0  0  0  0  0  0  0  0  0  0  0
   56.6010   23.4050   45.9780 C   0  0  0  0  0  0  0  0  0  0  0  0
   56.5270   23.5160   47.7350 Cl  0  0  0  0  0  0  0  0  0  0  0  0
   57.5940   25.4280   46.5683 H   0  0  0  0  0  0  0  0  0  0  0  0
   59.7424   26.6189   46.1346 H   0  0  0  0  0  0  0  0  0  0  0  0
   57.5582   30.0117   44.5813 H   0  0  0  0  0  0  0  0  0  0  0  0
   55.1393   24.4114   43.0465 H   0  0  0  0  0  0  0  0  0  0  0  0
   56.8516   22.8378   42.1484 H   0  0  0  0  0  0  0  0  0  0  0  0
   58.2293   21.9792   46.0826 H   0  0  0  0  0  0  0  0  0  0  0  0
  1  2  2  0
  2  3  1  0
  3  4  1  0
  4  5  2  0
  5  6  1  0
  6  7  2  0
  7  8  1  0
  7  9  1  0
  9 10  2  0
 10 11  1  0
  2 12  1  0
 12 13  2  0
 13 14  1  0
 14 15  2  0
 15 16  1  0
 16 17  2  0
 17 18  1  0
 10  4  1  0
 17 12  1  0
  5 19  1  0
  6 20  1  0
  9 21  1  0
 13 22  1  0
 14 23  1  0
 16 24  1  0
M  CHG  2   3  -1  11  -1
M  END
>  <UniqueID>  (78) 
76

>  <SMILES>  (78) 
O=C([N-]c1ccc(Cl)cc1[O-])c1ccncc1Cl

>  <Energy>  (78) 
34.56587294252415

>  <Genealogy>  (78) 
O=C([N-]c1ccc(Cl)cc1[O-])c1ccncc1Cl (protonated)
O=C([N-]c1ccc(Cl)cc1[O-])c1ccncc1Cl (3D coordinates assigned)
O=C([N-]c1ccc(Cl)cc1[O-])c1ccncc1Cl (optimized conformer: 34.56587294252415 kcal/mol)

>  <smiles>  (78) 
O=C(Nc1ccc(Cl)cc1O)c1ccncc1Cl

>  <score_type>  (78) 
oracle

>  <origin>  (78) 
adg

>  <m_score__min__energy>  (78) 
-12.42

>  <m_primary>  (78) 
energy

$$$$
78:0
     RDKit          3D

 41 42  0  0  0  0  0  0  0  0999 V2000
   60.4120   34.5870   48.9700 C   0  0  0  0  0  0  0  0  0  0  0  0
   59.5910   33.7720   48.0140 C   0  0  0  0  0  0  0  0  0  0  0  0
   58.8720   34.4000   46.9910 C   0  0  0  0  0  0  0  0  0  0  0  0
   58.1200   33.6460   46.0770 C   0  0  0  0  0  0  0  0  0  0  0  0
   57.3410   34.3460   44.9960 C   0  0  0  0  0  0  0  0  0  0  0  0
   58.1060   32.2390   46.1770 C   0  0  0  0  0  0  0  0  0  0  0  0
   57.3360   31.4680   45.2430 N   0  0  0  0  0  0  0  0  0  0  0  0
   57.6120   31.4800   43.8360 C   0  0  0  0  0  0  0  0  0  0  0  0
   58.6100   32.1090   43.3900 O   0  0  0  0  0  0  0  0  0  0  0  0
   56.6980   30.7780   42.8800 C   0  0  0  0  0  0  0  0  0  0  0  0
   56.5430   29.3840   43.2750 N   0  0  0  0  0  0  0  0  0  0  0  0
   56.2400   28.9670   44.6120 C   0  0  0  0  0  0  0  0  0  0  0  0
   55.3040   29.5310   45.2410 O   0  0  0  0  0  0  0  0  0  0  0  0
   57.0290   27.8790   45.2490 C   0  0  0  0  0  0  0  0  0  0  0  0
   58.4360   27.9060   45.1820 C   0  0  0  0  0  0  0  0  0  0  0  0
   59.1980   26.8920   45.7680 C   0  0  0  0  0  0  0  0  0  0  0  0
   58.5710   25.8380   46.4300 C   0  0  0  0  0  0  0  0  0  0  0  0
   57.1780   25.7920   46.5060 C   0  0  0  0  0  0  0  0  0  0  0  0
   56.4040   26.8000   45.9210 C   0  0  0  0  0  0  0  0  0  0  0  0
   55.0180   26.7130   46.0140 O   0  0  0  0  0  0  0  0  0  0  0  0
   58.8780   31.5990   47.1740 C   0  0  0  0  0  0  0  0  0  0  0  0
   58.9330   30.0980   47.2760 C   0  0  0  0  0  0  0  0  0  0  0  0
   59.6010   32.3740   48.0930 C   0  0  0  0  0  0  0  0  0  0  0  0
   60.1437   34.3207   50.0030 H   0  0  0  0  0  0  0  0  0  0  0  0
   61.4798   34.3814   48.8039 H   0  0  0  0  0  0  0  0  0  0  0  0
   60.2143   35.6563   48.8039 H   0  0  0  0  0  0  0  0  0  0  0  0
   58.8965   35.4961   46.9023 H   0  0  0  0  0  0  0  0  0  0  0  0
   56.5972   35.0144   45.4543 H   0  0  0  0  0  0  0  0  0  0  0  0
   58.0285   34.9357   44.3718 H   0  0  0  0  0  0  0  0  0  0  0  0
   56.8279   33.5996   44.3718 H   0  0  0  0  0  0  0  0  0  0  0  0
   56.6400   30.7840   45.6170 H   0  0  0  0  0  0  0  0  0  0  0  0
   55.7145   31.2707   42.8872 H   0  0  0  0  0  0  0  0  0  0  0  0
   57.1286   30.8221   41.8687 H   0  0  0  0  0  0  0  0  0  0  0  0
   58.9401   28.7344   44.6627 H   0  0  0  0  0  0  0  0  0  0  0  0
   60.2958   26.9257   45.7067 H   0  0  0  0  0  0  0  0  0  0  0  0
   59.1737   25.0425   46.8925 H   0  0  0  0  0  0  0  0  0  0  0  0
   56.6860   24.9585   47.0288 H   0  0  0  0  0  0  0  0  0  0  0  0
   58.9438   29.8026   48.3356 H   0  0  0  0  0  0  0  0  0  0  0  0
   58.0501   29.6644   46.7835 H   0  0  0  0  0  0  0  0  0  0  0  0
   59.8452   29.7302   46.7835 H   0  0  0  0  0  0  0  0  0  0  0  0
   60.1822   31.8780   48.8844 H   0  0  0  0  0  0  0  0  0  0  0  0
  1  2  1  0
  2  3  2  0
  3  4  1  0
  4  5  1  0
  4  6  2  0
  6  7  1  0
  7  8  1  0
  8  9  2  0
  8 10  1  0
 10 11  1  0
 11 12  1  0
 12 13  2  0
 12 14  1  0
 14 15  2  0
 15 16  1  0
 16 17  2  0
 17 18  1  0
 18 19  2  0
 19 20  1  0
  6 21  1  0
 21 22  1  0
 21 23  2  0
 23  2  1  0
 19 14  1  0
  1 24  1  0
  1 25  1  0
  1 26  1  0
  3 27  1  0
  5 28  1  0
  5 29  1  0
  5 30  1  0
  7 31  1  0
 10 32  1  0
 10 33  1  0
 15 34  1  0
 16 35  1  0
 17 36  1  0
 18 37  1  0
 22 38  1  0
 22 39  1  0
 22 40  1  0
 23 41  1  0
M  CHG  2  11  -1  20  -1
M  END
>  <UniqueID>  (79) 
77

>  <SMILES>  (79) 
Cc1cc(C)c(NC(=O)C[N-]C(=O)c2ccccc2[O-])c(C)c1

>  <Energy>  (79) 
44.77080383819054

>  <Genealogy>  (79) 
Cc1cc(C)c(NC(=O)C[N-]C(=O)c2ccccc2[O-])c(C)c1 (protonated)
Cc1cc(C)c(NC(=O)C[N-]C(=O)c2ccccc2[O-])c(C)c1 (3D coordinates assigned)
Cc1cc(C)c(NC(=O)C[N-]C(=O)c2ccccc2[O-])c(C)c1 (optimized conformer: 44.77080383819054 kcal/mol)

>  <smiles>  (79) 
Cc1cc(C)c(NC(=O)CNC(=O)c2ccccc2O)c(C)c1

>  <score_type>  (79) 
oracle

>  <origin>  (79) 
adg

>  <m_score__min__energy>  (79) 
-13.460000000000001

>  <m_primary>  (79) 
energy

$$$$
79:0
     RDKit          3D

 56 58  0  0  0  0  0  0  0  0999 V2000
   63.9360   33.0590   48.4570 C   0  0  0  0  0  0  0  0  0  0  0  0
   62.8540   32.9490   47.4710 N   0  0  0  0  0  0  0  0  0  0  0  0
   63.0390   33.9460   46.4070 C   0  0  0  0  0  0  0  0  0  0  0  0
   61.3180   33.2230   48.2560 S   0  0  0  0  0  0  0  0  0  0  0  0
   61.2900   32.5450   49.6000 O   0  0  0  0  0  0  0  0  0  0  0  0
   61.1110   34.6990   48.4640 O   0  0  0  0  0  0  0  0  0  0  0  0
   60.0070   32.6040   47.2520 C   0  0  0  0  0  0  0  0  0  0  0  0
   60.1890   31.4350   46.5010 C   0  0  0  0  0  0  0  0  0  0  0  0
   59.1460   30.9340   45.7130 C   0  0  0  0  0  0  0  0  0  0  0  0
   57.9050   31.5820   45.6870 C   0  0  0  0  0  0  0  0  0  0  0  0
   56.8630   31.0630   44.8480 N   0  0  0  0  0  0  0  0  0  0  0  0
   56.3940   29.7070   44.8320 C   0  0  0  0  0  0  0  0  0  0  0  0
   55.1540   29.4920   44.8480 O   0  0  0  0  0  0  0  0  0  0  0  0
   57.3450   28.5470   44.7800 C   0  0  0  0  0  0  0  0  0  0  0  0
   57.3170   27.8450   46.0200 O   0  0  0  0  0  0  0  0  0  0  0  0
   58.3940   27.7810   46.9200 C   0  0  0  0  0  0  0  0  0  0  0  0
   58.5530   28.7150   47.9640 C   0  0  0  0  0  0  0  0  0  0  0  0
   59.6490   28.6280   48.8250 C   0  0  0  0  0  0  0  0  0  0  0  0
   60.5890   27.6120   48.6620 C   0  0  0  0  0  0  0  0  0  0  0  0
   60.4340   26.6730   47.6430 C   0  0  0  0  0  0  0  0  0  0  0  0
   59.3360   26.7500   46.7650 C   0  0  0  0  0  0  0  0  0  0  0  0
   59.1430   25.7950   45.7110 N   0  0  0  0  0  0  0  0  0  0  0  0
   58.5940   24.1650   45.9240 S   0  0  0  0  0  0  0  0  0  0  0  0
   58.1390   23.9900   47.3470 O   0  0  0  0  0  0  0  0  0  0  0  0
   59.7060   23.2000   45.6320 O   0  0  0  0  0  0  0  0  0  0  0  0
   57.2450   23.8530   44.8220 C   0  0  0  0  0  0  0  0  0  0  0  0
   57.4650   23.0220   43.7100 C   0  0  0  0  0  0  0  0  0  0  0  0
   56.4210   22.7000   42.8440 C   0  0  0  0  0  0  0  0  0  0  0  0
   55.1390   23.1900   43.0840 C   0  0  0  0  0  0  0  0  0  0  0  0
   54.9020   24.0210   44.1790 C   0  0  0  0  0  0  0  0  0  0  0  0
   55.9460   24.3780   45.0500 C   0  0  0  0  0  0  0  0  0  0  0  0
   55.6620   25.2640   46.1460 N   0  0  0  0  0  0  0  0  0  0  0  0
   55.0210   26.3170   45.9550 O   0  0  0  0  0  0  0  0  0  0  0  0
   55.8680   24.8420   47.4380 O   0  0  0  0  0  0  0  0  0  0  0  0
   57.7300   32.7660   46.4250 C   0  0  0  0  0  0  0  0  0  0  0  0
   58.7730   33.2670   47.2110 C   0  0  0  0  0  0  0  0  0  0  0  0
   63.5132   33.0160   49.4716 H   0  0  0  0  0  0  0  0  0  0  0  0
   64.6436   32.2282   48.3191 H   0  0  0  0  0  0  0  0  0  0  0  0
   64.4619   34.0152   48.3191 H   0  0  0  0  0  0  0  0  0  0  0  0
   63.2221   34.9329   46.8571 H   0  0  0  0  0  0  0  0  0  0  0  0
   63.8997   33.6618   45.7838 H   0  0  0  0  0  0  0  0  0  0  0  0
   62.1336   33.9895   45.7838 H   0  0  0  0  0  0  0  0  0  0  0  0
   61.1547   30.9092   46.5308 H   0  0  0  0  0  0  0  0  0  0  0  0
   59.3022   30.0266   45.1111 H   0  0  0  0  0  0  0  0  0  0  0  0
   57.0476   27.8668   43.9683 H   0  0  0  0  0  0  0  0  0  0  0  0
   58.3635   28.9197   44.5961 H   0  0  0  0  0  0  0  0  0  0  0  0
   57.8109   29.5153   48.1009 H   0  0  0  0  0  0  0  0  0  0  0  0
   59.7707   29.3633   49.6340 H   0  0  0  0  0  0  0  0  0  0  0  0
   61.4544   27.5508   49.3382 H   0  0  0  0  0  0  0  0  0  0  0  0
   61.1737   25.8675   47.5244 H   0  0  0  0  0  0  0  0  0  0  0  0
   58.4719   22.6214   43.5210 H   0  0  0  0  0  0  0  0  0  0  0  0
   56.6096   22.0586   41.9705 H   0  0  0  0  0  0  0  0  0  0  0  0
   54.3129   22.9213   42.4093 H   0  0  0  0  0  0  0  0  0  0  0  0
   53.8864   24.4014   44.3631 H   0  0  0  0  0  0  0  0  0  0  0  0
   56.7693   33.3003   46.3841 H   0  0  0  0  0  0  0  0  0  0  0  0
   58.6241   34.1846   47.7990 H   0  0  0  0  0  0  0  0  0  0  0  0
  1  2  1  0
  2  3  1  0
  2  4  1  0
  4  5  2  0
  4  6  2  0
  4  7  1  0
  7  8  2  0
  8  9  1  0
  9 10  2  0
 10 11  1  0
 11 12  1  0
 12 13  2  0
 12 14  1  0
 14 15  1  0
 15 16  1  0
 16 17  2  0
 17 18  1  0
 18 19  2  0
 19 20  1  0
 20 21  2  0
 21 22  1  0
 22 23  1  0
 23 24  2  0
 23 25  2  0
 23 26  1  0
 26 27  2  0
 27 28  1  0
 28 29  2  0
 29 30  1  0
 30 31  2  0
 31 32  1  0
 32 33  2  0
 32 34  1  0
 10 35  1  0
 35 36  2  0
 36  7  1  0
 21 16  1  0
 31 26  1  0
  1 37  1  0
  1 38  1  0
  1 39  1  0
  3 40  1  0
  3 41  1  0
  3 42  1  0
  8 43  1  0
  9 44  1  0
 14 45  1  0
 14 46  1  0
 17 47  1  0
 18 48  1  0
 19 49  1  0
 20 50  1  0
 27 51  1  0
 28 52  1  0
 29 53  1  0
 30 54  1  0
 35 55  1  0
 36 56  1  0
M  CHG  4  11  -1  22  -1  32   1  34  -1
M  END
>  <UniqueID>  (80) 
78

>  <SMILES>  (80) 
CN(C)S(=O)(=O)c1ccc([N-]C(=O)COc2ccccc2[N-]S(=O)(=O)c2ccccc2[N+](=O)[O-])cc1

>  <Energy>  (80) 
70.07515921269005

>  <Genealogy>  (80) 
CN(C)S(=O)(=O)c1ccc([N-]C(=O)COc2ccccc2[N-]S(=O)(=O)c2ccccc2[N+](=O)[O-])cc1 (protonated)
CN(C)S(=O)(=O)c1ccc([N-]C(=O)COc2ccccc2[N-]S(=O)(=O)c2ccccc2[N+](=O)[O-])cc1 (3D coordinates assigned)
CN(C)S(=O)(=O)c1ccc([N-]C(=O)COc2ccccc2[N-]S(=O)(=O)c2ccccc2[N+](=O)[O-])cc1 (optimized conformer: 70.07515921269005 kcal/mol)

>  <smiles>  (80) 
CN(C)S(=O)(=O)c1ccc(NC(=O)COc2ccccc2NS(=O)(=O)c2ccccc2[N+](=O)[O-])cc1

>  <score_type>  (80) 
oracle

>  <origin>  (80) 
adg

>  <m_score__min__energy>  (80) 
-13.92

>  <m_primary>  (80) 
energy

$$$$
80:0
     RDKit          3D

 52 54  0  0  0  0  0  0  0  0999 V2000
   55.4360   29.0530   44.8670 O   0  0  0  0  0  0  0  0  0  0  0  0
   56.4510   29.7970   44.8010 C   0  0  0  0  0  0  0  0  0  0  0  0
   56.3060   31.2000   44.5630 N   0  0  0  0  0  0  0  0  0  0  0  0
   57.2660   32.1970   44.9340 C   0  0  0  0  0  0  0  0  0  0  0  0
   57.8860   32.9470   43.9290 C   0  0  0  0  0  0  0  0  0  0  0  0
   58.9020   33.8510   44.2500 C   0  0  0  0  0  0  0  0  0  0  0  0
   59.3310   33.9850   45.5730 C   0  0  0  0  0  0  0  0  0  0  0  0
   58.7300   33.2250   46.5880 C   0  0  0  0  0  0  0  0  0  0  0  0
   59.3320   33.3150   48.2440 S   0  0  0  0  0  0  0  0  0  0  0  0
   58.3040   32.7330   49.1730 O   0  0  0  0  0  0  0  0  0  0  0  0
   59.5320   34.7580   48.6210 O   0  0  0  0  0  0  0  0  0  0  0  0
   60.8490   32.4580   48.4290 N   0  0  0  0  0  0  0  0  0  0  0  0
   61.5430   32.2810   47.1220 C   0  0  0  0  0  0  0  0  0  0  0  0
   62.7320   33.2360   46.9310 C   0  0  0  0  0  0  0  0  0  0  0  0
   63.7730   33.0570   48.0490 C   0  0  0  0  0  0  0  0  0  0  0  0
   63.1370   32.6600   49.3950 C   0  0  0  0  0  0  0  0  0  0  0  0
   61.6750   33.1120   49.4740 C   0  0  0  0  0  0  0  0  0  0  0  0
   57.6810   32.3520   46.2690 C   0  0  0  0  0  0  0  0  0  0  0  0
   57.7910   29.2410   44.9950 C   0  0  0  0  0  0  0  0  0  0  0  0
   58.4230   28.3150   44.1850 C   0  0  0  0  0  0  0  0  0  0  0  0
   59.6280   28.0430   44.7990 C   0  0  0  0  0  0  0  0  0  0  0  0
   59.6470   28.8170   45.9440 C   0  0  0  0  0  0  0  0  0  0  0  0
   60.7190   28.8260   46.9840 C   0  0  0  0  0  0  0  0  0  0  0  0
   60.3540   27.6130   48.3060 S   0  0  0  0  0  0  0  0  0  0  0  0
   60.4340   28.7630   49.7340 C   0  0  0  0  0  0  0  0  0  0  0  0
   59.1580   29.5950   49.8500 C   0  0  0  0  0  0  0  0  0  0  0  0
   58.9220   30.3180   48.6730 O   0  0  0  0  0  0  0  0  0  0  0  0
   58.5470   29.5250   46.0290 O   0  0  0  0  0  0  0  0  0  0  0  0
   57.5724   32.8246   42.8818 H   0  0  0  0  0  0  0  0  0  0  0  0
   59.3654   34.4589   43.4589 H   0  0  0  0  0  0  0  0  0  0  0  0
   60.1410   34.6873   45.8192 H   0  0  0  0  0  0  0  0  0  0  0  0
   60.5970   31.5050   48.7810 H   0  0  0  0  0  0  0  0  0  0  0  0
   61.9124   31.2467   47.0601 H   0  0  0  0  0  0  0  0  0  0  0  0
   60.8124   32.5081   46.3317 H   0  0  0  0  0  0  0  0  0  0  0  0
   63.2074   33.0279   45.9611 H   0  0  0  0  0  0  0  0  0  0  0  0
   62.3579   34.2699   46.9651 H   0  0  0  0  0  0  0  0  0  0  0  0
   64.4806   32.2703   47.7484 H   0  0  0  0  0  0  0  0  0  0  0  0
   64.2770   34.0242   48.1919 H   0  0  0  0  0  0  0  0  0  0  0  0
   63.1804   31.5662   49.5032 H   0  0  0  0  0  0  0  0  0  0  0  0
   63.6973   33.1532   50.2030 H   0  0  0  0  0  0  0  0  0  0  0  0
   61.2726   32.8507   50.4638 H   0  0  0  0  0  0  0  0  0  0  0  0
   61.6396   34.1996   49.3130 H   0  0  0  0  0  0  0  0  0  0  0  0
   57.1795   31.7849   47.0670 H   0  0  0  0  0  0  0  0  0  0  0  0
   58.0436   27.8849   43.2463 H   0  0  0  0  0  0  0  0  0  0  0  0
   60.4109   27.3536   44.4500 H   0  0  0  0  0  0  0  0  0  0  0  0
   61.6796   28.5686   46.5138 H   0  0  0  0  0  0  0  0  0  0  0  0
   60.7678   29.8300   47.4309 H   0  0  0  0  0  0  0  0  0  0  0  0
   60.5661   28.1793   50.6570 H   0  0  0  0  0  0  0  0  0  0  0  0
   61.2815   29.4473   49.5811 H   0  0  0  0  0  0  0  0  0  0  0  0
   58.3066   28.9240   50.0370 H   0  0  0  0  0  0  0  0  0  0  0  0
   59.2773   30.3062   50.6806 H   0  0  0  0  0  0  0  0  0  0  0  0
   58.5230   29.6820   48.0250 H   0  0  0  0  0  0  0  0  0  0  0  0
  1  2  2  0
  2  3  1  0
  3  4  1  0
  4  5  2  0
  5  6  1  0
  6  7  2  0
  7  8  1  0
  8  9  1  0
  9 10  2  0
  9 11  2  0
  9 12  1  0
 12 13  1  0
 13 14  1  0
 14 15  1  0
 15 16  1  0
 16 17  1  0
  8 18  2  0
  2 19  1  0
 19 20  2  0
 20 21  1  0
 21 22  2  0
 22 23  1  0
 23 24  1  0
 24 25  1  0
 25 26  1  0
 26 27  1  0
 22 28  1  0
 18  4  1  0
 28 19  1  0
 17 12  1  0
  5 29  1  0
  6 30  1  0
  7 31  1  0
 12 32  1  0
 13 33  1  0
 13 34  1  0
 14 35  1  0
 14 36  1  0
 15 37  1  0
 15 38  1  0
 16 39  1  0
 16 40  1  0
 17 41  1  0
 17 42  1  0
 18 43  1  0
 20 44  1  0
 21 45  1  0
 23 46  1  0
 23 47  1  0
 25 48  1  0
 25 49  1  0
 26 50  1  0
 26 51  1  0
 27 52  1  0
M  CHG  2   3  -1  12   1
M  END
>  <UniqueID>  (81) 
79

>  <SMILES>  (81) 
O=C([N-]c1cccc(S(=O)(=O)[NH+]2CCCCC2)c1)c1ccc(CSCCO)o1

>  <Energy>  (81) 
80.97537411220885

>  <Genealogy>  (81) 
O=C([N-]c1cccc(S(=O)(=O)[NH+]2CCCCC2)c1)c1ccc(CSCCO)o1 (protonated)
O=C([N-]c1cccc(S(=O)(=O)[NH+]2CCCCC2)c1)c1ccc(CSCCO)o1 (3D coordinates assigned)
O=C([N-]c1cccc(S(=O)(=O)[NH+]2CCCCC2)c1)c1ccc(CSCCO)o1 (nonaromatic ring conformer: 80.97537411220885 kcal/mol)

>  <smiles>  (81) 
O=C(Nc1cccc(S(=O)(=O)N2CCCCC2)c1)c1ccc(CSCCO)o1

>  <score_type>  (81) 
oracle

>  <origin>  (81) 
adg

>  <m_score__min__energy>  (81) 
-9.5099999999999998

>  <m_primary>  (81) 
energy

$$$$
81:0
     RDKit          3D

 44 47  0  0  0  0  0  0  0  0999 V2000
   51.4910   23.6500   44.6460 C   0  0  0  0  0  0  0  0  0  0  0  0
   52.6500   22.9540   45.1010 O   0  0  0  0  0  0  0  0  0  0  0  0
   53.9480   23.4910   45.0940 C   0  0  0  0  0  0  0  0  0  0  0  0
   55.0550   22.7870   44.5810 C   0  0  0  0  0  0  0  0  0  0  0  0
   56.3280   23.3700   44.5970 C   0  0  0  0  0  0  0  0  0  0  0  0
   56.5060   24.6600   45.1060 C   0  0  0  0  0  0  0  0  0  0  0  0
   55.4130   25.3750   45.6160 C   0  0  0  0  0  0  0  0  0  0  0  0
   55.6330   26.7010   46.1200 N   0  0  0  0  0  0  0  0  0  0  0  0
   56.8110   27.8100   45.5010 S   0  0  0  0  0  0  0  0  0  0  0  0
   56.1450   29.1000   45.1350 O   0  0  0  0  0  0  0  0  0  0  0  0
   57.4210   27.2270   44.2590 O   0  0  0  0  0  0  0  0  0  0  0  0
   58.0890   27.9950   46.7150 C   0  0  0  0  0  0  0  0  0  0  0  0
   58.5820   26.9560   47.5540 C   0  0  0  0  0  0  0  0  0  0  0  0
   58.0300   25.5660   47.5170 C   0  0  0  0  0  0  0  0  0  0  0  0
   59.5850   27.2240   48.4500 N   0  0  0  0  0  0  0  0  0  0  0  0
   60.1250   28.4670   48.5670 C   0  0  0  0  0  0  0  0  0  0  0  0
   61.0410   28.6890   49.4060 O   0  0  0  0  0  0  0  0  0  0  0  0
   59.6490   29.4520   47.7720 N   0  0  0  0  0  0  0  0  0  0  0  0
   60.0170   30.7180   47.7340 N   0  0  0  0  0  0  0  0  0  0  0  0
   59.2250   31.2720   46.7820 C   0  0  0  0  0  0  0  0  0  0  0  0
   59.2720   32.7010   46.4000 C   0  0  0  0  0  0  0  0  0  0  0  0
   58.5850   33.1650   45.2600 C   0  0  0  0  0  0  0  0  0  0  0  0
   58.6370   34.5190   44.9030 C   0  0  0  0  0  0  0  0  0  0  0  0
   59.3840   35.4190   45.6710 C   0  0  0  0  0  0  0  0  0  0  0  0
   60.0860   34.9660   46.7970 C   0  0  0  0  0  0  0  0  0  0  0  0
   60.0250   33.6160   47.1660 C   0  0  0  0  0  0  0  0  0  0  0  0
   58.3660   30.3800   46.2210 N   0  0  0  0  0  0  0  0  0  0  0  0
   58.6760   29.2500   46.8830 C   0  0  0  0  0  0  0  0  0  0  0  0
   54.1380   24.7780   45.6160 C   0  0  0  0  0  0  0  0  0  0  0  0
   50.9095   23.9992   45.5120 H   0  0  0  0  0  0  0  0  0  0  0  0
   51.7973   24.5137   44.0376 H   0  0  0  0  0  0  0  0  0  0  0  0
   50.8725   22.9738   44.0376 H   0  0  0  0  0  0  0  0  0  0  0  0
   54.9191   21.7770   44.1669 H   0  0  0  0  0  0  0  0  0  0  0  0
   57.1915   22.8108   44.2075 H   0  0  0  0  0  0  0  0  0  0  0  0
   57.5072   25.1156   45.1063 H   0  0  0  0  0  0  0  0  0  0  0  0
   57.8852   25.2015   48.5447 H   0  0  0  0  0  0  0  0  0  0  0  0
   57.0647   25.5687   46.9895 H   0  0  0  0  0  0  0  0  0  0  0  0
   58.7342   24.9058   46.9895 H   0  0  0  0  0  0  0  0  0  0  0  0
   58.0045   32.4599   44.6469 H   0  0  0  0  0  0  0  0  0  0  0  0
   58.0897   34.8749   44.0177 H   0  0  0  0  0  0  0  0  0  0  0  0
   59.4205   36.4822   45.3913 H   0  0  0  0  0  0  0  0  0  0  0  0
   60.6853   35.6715   47.3913 H   0  0  0  0  0  0  0  0  0  0  0  0
   60.5669   33.2674   48.0575 H   0  0  0  0  0  0  0  0  0  0  0  0
   53.2805   25.3282   46.0307 H   0  0  0  0  0  0  0  0  0  0  0  0
  1  2  1  0
  2  3  1  0
  3  4  2  0
  4  5  1  0
  5  6  2  0
  6  7  1  0
  7  8  1  0
  8  9  1  0
  9 10  2  0
  9 11  2  0
  9 12  1  0
 12 13  1  0
 13 14  1  0
 13 15  2  0
 15 16  1  0
 16 17  2  0
 16 18  1  0
 18 19  1  0
 19 20  1  0
 20 21  1  0
 21 22  2  0
 22 23  1  0
 23 24  2  0
 24 25  1  0
 25 26  2  0
 20 27  2  0
 27 28  1  0
  7 29  2  0
 29  3  1  0
 28 12  2  0
 28 18  1  0
 26 21  1  0
  1 30  1  0
  1 31  1  0
  1 32  1  0
  4 33  1  0
  5 34  1  0
  6 35  1  0
 14 36  1  0
 14 37  1  0
 14 38  1  0
 22 39  1  0
 23 40  1  0
 24 41  1  0
 25 42  1  0
 26 43  1  0
 29 44  1  0
M  CHG  2   8  -1  19  -1
M  END
>  <UniqueID>  (82) 
80

>  <SMILES>  (82) 
COc1cccc([N-]S(=O)(=O)c2c(C)nc(=O)n3[n-]c(-c4ccccc4)nc23)c1

>  <Energy>  (82) 
94.20867477608748

>  <Genealogy>  (82) 
COc1cccc([N-]S(=O)(=O)c2c(C)nc(=O)n3[n-]c(-c4ccccc4)nc23)c1 (protonated)
COc1cccc([N-]S(=O)(=O)c2c(C)nc(=O)n3[n-]c(-c4ccccc4)nc23)c1 (3D coordinates assigned)
COc1cccc([N-]S(=O)(=O)c2c(C)nc(=O)n3[n-]c(-c4ccccc4)nc23)c1 (optimized conformer: 94.20867477608748 kcal/mol)

>  <smiles>  (82) 
COc1cccc(NS(=O)(=O)c2c(C)nc(=O)n3[nH]c(-c4ccccc4)nc23)c1

>  <score_type>  (82) 
oracle

>  <origin>  (82) 
adg

>  <m_score__min__energy>  (82) 
-11.029999999999999

>  <m_primary>  (82) 
energy

$$$$
82:0
     RDKit          3D

 68 72  0  0  0  0  0  0  0  0999 V2000
   63.9040   32.7550   48.3680 C   0  0  0  0  0  0  0  0  0  0  0  0
   63.2030   31.4870   48.5020 N   0  0  0  0  0  0  0  0  0  0  0  0
   61.8620   31.2900   48.0440 C   0  0  0  0  0  0  0  0  0  0  0  0
   61.6290   31.1950   46.8110 O   0  0  0  0  0  0  0  0  0  0  0  0
   60.7420   31.2670   49.0080 C   0  0  0  0  0  0  0  0  0  0  0  0
   60.3530   32.3580   49.7900 C   0  0  0  0  0  0  0  0  0  0  0  0
   60.9610   33.7360   49.8060 C   0  0  0  0  0  0  0  0  0  0  0  0
   60.3380   34.6060   48.7950 N   0  0  0  0  0  0  0  0  0  0  0  0
   60.6390   34.1850   47.4180 C   0  0  0  0  0  0  0  0  0  0  0  0
   59.3750   34.0060   46.6200 C   0  0  0  0  0  0  0  0  0  0  0  0
   59.3480   34.3410   45.2550 C   0  0  0  0  0  0  0  0  0  0  0  0
   58.1640   34.2120   44.5220 C   0  0  0  0  0  0  0  0  0  0  0  0
   57.0020   33.7530   45.1440 C   0  0  0  0  0  0  0  0  0  0  0  0
   57.0210   33.4130   46.4990 C   0  0  0  0  0  0  0  0  0  0  0  0
   58.2000   33.5510   47.2390 C   0  0  0  0  0  0  0  0  0  0  0  0
   59.3190   31.8980   50.5830 C   0  0  0  0  0  0  0  0  0  0  0  0
   58.5700   32.5430   51.5680 C   0  0  0  0  0  0  0  0  0  0  0  0
   57.5780   31.8070   52.2320 C   0  0  0  0  0  0  0  0  0  0  0  0
   57.3550   30.4460   51.9100 C   0  0  0  0  0  0  0  0  0  0  0  0
   56.3380   29.6920   52.5840 N   0  0  0  0  0  0  0  0  0  0  0  0
   54.9220   29.8680   52.3690 C   0  0  0  0  0  0  0  0  0  0  0  0
   53.9770   28.9320   52.8340 C   0  0  0  0  0  0  0  0  0  0  0  0
   52.6140   29.1140   52.5730 C   0  0  0  0  0  0  0  0  0  0  0  0
   52.1790   30.2190   51.8380 C   0  0  0  0  0  0  0  0  0  0  0  0
   53.1090   31.1450   51.3640 C   0  0  0  0  0  0  0  0  0  0  0  0
   54.4720   30.9760   51.6330 C   0  0  0  0  0  0  0  0  0  0  0  0
   58.1080   29.8340   50.8920 C   0  0  0  0  0  0  0  0  0  0  0  0
   59.1050   30.5830   50.2540 C   0  0  0  0  0  0  0  0  0  0  0  0
   59.9750   30.1780   49.2990 N   0  0  0  0  0  0  0  0  0  0  0  0
   60.0120   28.8580   48.6520 C   0  0  0  0  0  0  0  0  0  0  0  0
   59.6400   28.9670   47.1960 C   0  0  0  0  0  0  0  0  0  0  0  0
   60.5890   28.6930   46.2010 C   0  0  0  0  0  0  0  0  0  0  0  0
   60.2530   28.8240   44.8530 C   0  0  0  0  0  0  0  0  0  0  0  0
   58.9630   29.2130   44.4840 C   0  0  0  0  0  0  0  0  0  0  0  0
   57.9900   29.4740   45.4660 C   0  0  0  0  0  0  0  0  0  0  0  0
   56.6200   29.8880   45.0780 C   0  0  0  0  0  0  0  0  0  0  0  0
   55.5210   28.9920   45.2280 N   0  0  0  0  0  0  0  0  0  0  0  0
   56.4130   31.0430   44.6150 O   0  0  0  0  0  0  0  0  0  0  0  0
   58.3410   29.3500   46.8220 C   0  0  0  0  0  0  0  0  0  0  0  0
   64.1269   33.1581   49.3669 H   0  0  0  0  0  0  0  0  0  0  0  0
   64.8436   32.5982   47.8179 H   0  0  0  0  0  0  0  0  0  0  0  0
   63.2715   33.4673   47.8179 H   0  0  0  0  0  0  0  0  0  0  0  0
   60.8145   34.1810   50.8013 H   0  0  0  0  0  0  0  0  0  0  0  0
   62.0326   33.6460   49.5745 H   0  0  0  0  0  0  0  0  0  0  0  0
   59.3030   34.5270   48.9260 H   0  0  0  0  0  0  0  0  0  0  0  0
   61.2633   34.9516   46.9358 H   0  0  0  0  0  0  0  0  0  0  0  0
   61.1700   33.2223   47.4540 H   0  0  0  0  0  0  0  0  0  0  0  0
   60.2611   34.7058   44.7619 H   0  0  0  0  0  0  0  0  0  0  0  0
   58.1485   34.4727   43.4535 H   0  0  0  0  0  0  0  0  0  0  0  0
   56.0703   33.6588   44.5669 H   0  0  0  0  0  0  0  0  0  0  0  0
   56.1083   33.0366   46.9842 H   0  0  0  0  0  0  0  0  0  0  0  0
   58.2065   33.3020   48.3104 H   0  0  0  0  0  0  0  0  0  0  0  0
   58.7525   33.5989   51.8166 H   0  0  0  0  0  0  0  0  0  0  0  0
   56.9681   32.2907   53.0092 H   0  0  0  0  0  0  0  0  0  0  0  0
   56.6490   29.0210   53.3210 H   0  0  0  0  0  0  0  0  0  0  0  0
   54.3122   28.0537   53.4051 H   0  0  0  0  0  0  0  0  0  0  0  0
   51.8822   28.3835   52.9484 H   0  0  0  0  0  0  0  0  0  0  0  0
   51.1073   30.3588   51.6335 H   0  0  0  0  0  0  0  0  0  0  0  0
   52.7696   32.0110   50.7767 H   0  0  0  0  0  0  0  0  0  0  0  0
   55.1967   31.7172   51.2649 H   0  0  0  0  0  0  0  0  0  0  0  0
   57.9181   28.7898   50.6030 H   0  0  0  0  0  0  0  0  0  0  0  0
   61.0276   28.4437   48.7350 H   0  0  0  0  0  0  0  0  0  0  0  0
   59.2882   28.1985   49.1532 H   0  0  0  0  0  0  0  0  0  0  0  0
   61.6027   28.3734   46.4842 H   0  0  0  0  0  0  0  0  0  0  0  0
   61.0066   28.6202   44.0781 H   0  0  0  0  0  0  0  0  0  0  0  0
   58.7065   29.3158   43.4193 H   0  0  0  0  0  0  0  0  0  0  0  0
   54.5460   29.3480   45.3120 H   0  0  0  0  0  0  0  0  0  0  0  0
   57.5898   29.5552   47.5989 H   0  0  0  0  0  0  0  0  0  0  0  0
  1  2  1  0
  2  3  1  0
  3  4  2  0
  3  5  1  0
  5  6  2  0
  6  7  1  0
  7  8  1  0
  8  9  1  0
  9 10  1  0
 10 11  2  0
 11 12  1  0
 12 13  2  0
 13 14  1  0
 14 15  2  0
  6 16  1  0
 16 17  2  0
 17 18  1  0
 18 19  2  0
 19 20  1  0
 20 21  1  0
 21 22  2  0
 22 23  1  0
 23 24  2  0
 24 25  1  0
 25 26  2  0
 19 27  1  0
 27 28  2  0
 28 29  1  0
 29 30  1  0
 30 31  1  0
 31 32  2  0
 32 33  1  0
 33 34  2  0
 34 35  1  0
 35 36  1  0
 36 37  1  0
 36 38  2  0
 35 39  2  0
 29  5  1  0
 39 31  1  0
 15 10  1  0
 28 16  1  0
 26 21  1  0
  1 40  1  0
  1 41  1  0
  1 42  1  0
  7 43  1  0
  7 44  1  0
  8 45  1  0
  9 46  1  0
  9 47  1  0
 11 48  1  0
 12 49  1  0
 13 50  1  0
 14 51  1  0
 15 52  1  0
 17 53  1  0
 18 54  1  0
 20 55  1  0
 22 56  1  0
 23 57  1  0
 24 58  1  0
 25 59  1  0
 26 60  1  0
 27 61  1  0
 30 62  1  0
 30 63  1  0
 32 64  1  0
 33 65  1  0
 34 66  1  0
 37 67  1  0
 39 68  1  0
M  CHG  2   2  -1  37  -1
M  END
>  <UniqueID>  (83) 
81

>  <SMILES>  (83) 
C[N-]C(=O)c1c(CNCc2ccccc2)c2ccc(Nc3ccccc3)cc2n1Cc1cccc(C([NH-])=O)c1

>  <Energy>  (83) 
107.20186807433272

>  <Genealogy>  (83) 
C[N-]C(=O)c1c(CNCc2ccccc2)c2ccc(Nc3ccccc3)cc2n1Cc1cccc(C([NH-])=O)c1 (protonated)
C[N-]C(=O)c1c(CNCc2ccccc2)c2ccc(Nc3ccccc3)cc2n1Cc1cccc(C([NH-])=O)c1 (3D coordinates assigned)
C[N-]C(=O)c1c(CNCc2ccccc2)c2ccc(Nc3ccccc3)cc2n1Cc1cccc(C([NH-])=O)c1 (optimized conformer: 107.20186807433272 kcal/mol)

>  <smiles>  (83) 
CNC(=O)c1c(CNCc2ccccc2)c2ccc(Nc3ccccc3)cc2n1Cc1cccc(C(N)=O)c1

>  <score_type>  (83) 
oracle

>  <origin>  (83) 
adg

>  <m_score__min__energy>  (83) 
-14.01

>  <m_primary>  (83) 
energy

$$$$
83:0
     RDKit          3D

 34 36  0  0  0  0  0  0  0  0999 V2000
   57.3594   34.9913   46.5052 H   0  0  0  0  0  0  0  0  0  0  0  0
   57.6000   34.0530   45.9840 C   0  0  0  0  0  0  0  0  0  0  0  0
   56.6470   33.1730   45.5810 N   0  0  0  0  0  0  0  0  0  0  0  0
   57.1920   32.0920   44.9770 C   0  0  0  0  0  0  0  0  0  0  0  0
   56.5040   31.1090   44.4790 N   0  0  0  0  0  0  0  0  0  0  0  0
   56.6100   29.7330   44.8750 C   0  0  0  0  0  0  0  0  0  0  0  0
   55.5610   29.0380   44.9240 O   0  0  0  0  0  0  0  0  0  0  0  0
   57.9130   29.0910   45.1720 C   0  0  0  0  0  0  0  0  0  0  0  0
   58.1360   28.4620   46.4090 C   0  0  0  0  0  0  0  0  0  0  0  0
   57.3374   28.4280   47.1648 H   0  0  0  0  0  0  0  0  0  0  0  0
   59.3770   27.8810   46.6720 C   0  0  0  0  0  0  0  0  0  0  0  0
   59.5573   27.3781   47.6336 H   0  0  0  0  0  0  0  0  0  0  0  0
   60.3880   27.9390   45.7140 C   0  0  0  0  0  0  0  0  0  0  0  0
   61.3680   27.4799   45.9112 H   0  0  0  0  0  0  0  0  0  0  0  0
   60.1430   28.5860   44.5020 C   0  0  0  0  0  0  0  0  0  0  0  0
   60.9351   28.6412   43.7407 H   0  0  0  0  0  0  0  0  0  0  0  0
   58.9280   29.1490   44.2580 N   0  0  0  0  0  0  0  0  0  0  0  0
   58.7770   29.6220   43.3380 H   0  0  0  0  0  0  0  0  0  0  0  0
   58.8670   32.1840   44.8980 S   0  0  0  0  0  0  0  0  0  0  0  0
   58.9050   33.6730   45.6850 C   0  0  0  0  0  0  0  0  0  0  0  0
   60.1470   34.4250   46.0500 C   0  0  0  0  0  0  0  0  0  0  0  0
   60.9478   34.1692   45.3405 H   0  0  0  0  0  0  0  0  0  0  0  0
   59.9372   35.5040   46.0085 H   0  0  0  0  0  0  0  0  0  0  0  0
   60.5860   34.0640   47.4470 C   0  0  0  0  0  0  0  0  0  0  0  0
   59.6350   34.0620   48.4830 C   0  0  0  0  0  0  0  0  0  0  0  0
   58.5839   34.2962   48.2588 H   0  0  0  0  0  0  0  0  0  0  0  0
   60.0140   33.7650   49.7950 C   0  0  0  0  0  0  0  0  0  0  0  0
   59.2607   33.7582   50.5965 H   0  0  0  0  0  0  0  0  0  0  0  0
   61.3480   33.4770   50.0890 C   0  0  0  0  0  0  0  0  0  0  0  0
   61.6450   33.2414   51.1216 H   0  0  0  0  0  0  0  0  0  0  0  0
   62.3050   33.4880   49.0730 C   0  0  0  0  0  0  0  0  0  0  0  0
   63.3553   33.2624   49.3098 H   0  0  0  0  0  0  0  0  0  0  0  0
   61.9380   33.7840   47.7550 C   0  0  0  0  0  0  0  0  0  0  0  0
   63.1950   33.7940   46.5230 Cl  0  0  0  0  0  0  0  0  0  0  0  0
  1  2  1  0
  2  3  1  0
  3  4  1  0
  4  5  2  0
  5  6  1  0
  6  7  2  0
  6  8  1  0
  8  9  2  0
  9 10  1  0
  9 11  1  0
 11 12  1  0
 11 13  2  0
 13 14  1  0
 13 15  1  0
 15 16  1  0
 15 17  2  0
 17 18  1  0
  4 19  1  0
 19 20  1  0
 20 21  1  0
 21 22  1  0
 21 23  1  0
 21 24  1  0
 24 25  2  0
 25 26  1  0
 25 27  1  0
 27 28  1  0
 27 29  2  0
 29 30  1  0
 29 31  1  0
 31 32  1  0
 31 33  2  0
 33 34  1  0
 20  2  2  0
 33 24  1  0
 17  8  1  0
M  CHG  2   3  -1  17   1
M  END
>  <UniqueID>  (84) 
82

>  <SMILES>  (84) 
O=C(/N=c1\[n-]cc(Cc2ccccc2Cl)s1)c1cccc[nH+]1

>  <Energy>  (84) 
73.53414463852408

>  <Genealogy>  (84) 
O=C(N=c1[n-]cc(Cc2ccccc2Cl)s1)c1cccc[nH+]1 (protonated)
O=C(/N=c1\[n-]cc(Cc2ccccc2Cl)s1)c1cccc[nH+]1 (cis-trans isomerization)
O=C(/N=c1\[n-]cc(Cc2ccccc2Cl)s1)c1cccc[nH+]1 (3D coordinates assigned)
O=C(/N=c1\[n-]cc(Cc2ccccc2Cl)s1)c1cccc[nH+]1 (optimized conformer: 73.53414463852408 kcal/mol)

>  <smiles>  (84) 
O=C(N=c1[nH]cc(Cc2ccccc2Cl)s1)c1ccccn1

>  <score_type>  (84) 
oracle

>  <origin>  (84) 
adg

>  <m_score__min__energy>  (84) 
-8.3300000000000001

>  <m_primary>  (84) 
energy

$$$$
84:0
     RDKit          3D

 34 36  0  0  0  0  0  0  0  0999 V2000
   63.1810   34.0170   48.3250 O   0  0  0  0  0  0  0  0  0  0  0  0
   63.1190   33.4560   49.4500 C   0  0  0  0  0  0  0  0  0  0  0  0
   61.8460   32.9210   49.9670 C   0  0  0  0  0  0  0  0  0  0  0  0
   60.6440   33.6310   49.8060 C   0  0  0  0  0  0  0  0  0  0  0  0
   59.4460   33.1190   50.3080 C   0  0  0  0  0  0  0  0  0  0  0  0
   59.4340   31.8840   50.9730 C   0  0  0  0  0  0  0  0  0  0  0  0
   60.6330   31.1560   51.1310 C   0  0  0  0  0  0  0  0  0  0  0  0
   61.8330   31.6880   50.6380 C   0  0  0  0  0  0  0  0  0  0  0  0
   60.6470   29.8730   51.9450 C   0  0  0  0  0  0  0  0  0  0  0  0
   59.3240   29.0810   51.8510 C   0  0  0  0  0  0  0  0  0  0  0  0
   58.1350   29.9920   51.9580 C   0  0  0  0  0  0  0  0  0  0  0  0
   56.8580   29.6030   52.3830 C   0  0  0  0  0  0  0  0  0  0  0  0
   55.9140   30.6260   52.2730 C   0  0  0  0  0  0  0  0  0  0  0  0
   54.4830   30.5580   52.6270 C   0  0  0  0  0  0  0  0  0  0  0  0
   54.1220   29.7820   53.5540 O   0  0  0  0  0  0  0  0  0  0  0  0
   53.5010   31.3490   51.9400 N   0  0  0  0  0  0  0  0  0  0  0  0
   52.0890   31.2980   52.3200 C   0  0  0  0  0  0  0  0  0  0  0  0
   51.2900   32.2770   51.5190 C   0  0  0  0  0  0  0  0  0  0  0  0
   51.7330   32.7120   50.4240 O   0  0  0  0  0  0  0  0  0  0  0  0
   50.0800   32.7510   52.0090 O   0  0  0  0  0  0  0  0  0  0  0  0
   56.6680   31.9910   51.6240 S   0  0  0  0  0  0  0  0  0  0  0  0
   58.1920   31.2930   51.4930 C   0  0  0  0  0  0  0  0  0  0  0  0
   64.0308   33.3632   50.0583 H   0  0  0  0  0  0  0  0  0  0  0  0
   60.6470   34.5974   49.2805 H   0  0  0  0  0  0  0  0  0  0  0  0
   58.5109   33.6845   50.1819 H   0  0  0  0  0  0  0  0  0  0  0  0
   62.7729   31.1341   50.7783 H   0  0  0  0  0  0  0  0  0  0  0  0
   61.4641   29.2345   51.5780 H   0  0  0  0  0  0  0  0  0  0  0  0
   60.7862   30.1549   52.9991 H   0  0  0  0  0  0  0  0  0  0  0  0
   59.2880   28.5566   50.8847 H   0  0  0  0  0  0  0  0  0  0  0  0
   59.2884   28.3637   52.6842 H   0  0  0  0  0  0  0  0  0  0  0  0
   56.6237   28.5977   52.7632 H   0  0  0  0  0  0  0  0  0  0  0  0
   53.7930   31.9630   51.1480 H   0  0  0  0  0  0  0  0  0  0  0  0
   51.7030   30.2838   52.1399 H   0  0  0  0  0  0  0  0  0  0  0  0
   52.0000   31.5567   53.3854 H   0  0  0  0  0  0  0  0  0  0  0  0
  1  2  2  0
  2  3  1  0
  3  4  2  0
  4  5  1  0
  5  6  2  0
  6  7  1  0
  7  8  2  0
  7  9  1  0
  9 10  1  0
 10 11  1  0
 11 12  1  0
 12 13  2  0
 13 14  1  0
 14 15  2  0
 14 16  1  0
 16 17  1  0
 17 18  1  0
 18 19  2  0
 18 20  1  0
 13 21  1  0
 21 22  1  0
  8  3  1  0
 22 11  2  0
 22  6  1  0
  2 23  1  0
  4 24  1  0
  5 25  1  0
  8 26  1  0
  9 27  1  0
  9 28  1  0
 10 29  1  0
 10 30  1  0
 12 31  1  0
 16 32  1  0
 17 33  1  0
 17 34  1  0
M  CHG  1  20  -1
M  END
>  <UniqueID>  (85) 
83

>  <SMILES>  (85) 
O=Cc1ccc2c(c1)CCc1cc(C(=O)NCC(=O)[O-])sc1-2

>  <Energy>  (85) 
63.50423134590967

>  <Genealogy>  (85) 
O=Cc1ccc2c(c1)CCc1cc(C(=O)NCC(=O)[O-])sc1-2 (protonated)
O=Cc1ccc2c(c1)CCc1cc(C(=O)NCC(=O)[O-])sc1-2 (3D coordinates assigned)
O=Cc1ccc2c(c1)CCc1cc(C(=O)NCC(=O)[O-])sc1-2 (nonaromatic ring conformer: 63.50423134590967 kcal/mol)

>  <smiles>  (85) 
O=Cc1ccc2c(c1)CCc1cc(C(=O)NCC(=O)O)sc1-2

>  <score_type>  (85) 
oracle

>  <origin>  (85) 
adg

>  <m_score__min__energy>  (85) 
-9.9499999999999993

>  <m_primary>  (85) 
energy

$$$$
85:0
     RDKit          3D

 26 27  0  0  0  0  0  0  0  0999 V2000
   57.0400   34.3560   44.8700 C   0  0  0  0  0  0  0  0  0  0  0  0
   57.9550   33.8210   45.9230 C   0  0  0  0  0  0  0  0  0  0  0  0
   58.5730   34.5800   46.7980 O   0  0  0  0  0  0  0  0  0  0  0  0
   59.2990   33.8180   47.5850 C   0  0  0  0  0  0  0  0  0  0  0  0
   59.1580   32.4950   47.2170 C   0  0  0  0  0  0  0  0  0  0  0  0
   58.2880   32.4920   46.1430 C   0  0  0  0  0  0  0  0  0  0  0  0
   57.8320   31.3040   45.4030 C   0  0  0  0  0  0  0  0  0  0  0  0
   56.6900   31.3110   44.8660 O   0  0  0  0  0  0  0  0  0  0  0  0
   58.6850   30.2030   45.2520 O   0  0  0  0  0  0  0  0  0  0  0  0
   58.3020   28.8570   45.3420 C   0  0  0  0  0  0  0  0  0  0  0  0
   59.2880   27.8740   45.1900 C   0  0  0  0  0  0  0  0  0  0  0  0
   58.9570   26.5190   45.2800 C   0  0  0  0  0  0  0  0  0  0  0  0
   57.6380   26.1370   45.5370 C   0  0  0  0  0  0  0  0  0  0  0  0
   56.6460   27.1100   45.7120 C   0  0  0  0  0  0  0  0  0  0  0  0
   55.3310   26.7410   45.9840 O   0  0  0  0  0  0  0  0  0  0  0  0
   56.9780   28.4670   45.6200 C   0  0  0  0  0  0  0  0  0  0  0  0
   56.1845   34.8562   45.3473 H   0  0  0  0  0  0  0  0  0  0  0  0
   57.5843   35.0782   44.2437 H   0  0  0  0  0  0  0  0  0  0  0  0
   56.6776   33.5275   44.2437 H   0  0  0  0  0  0  0  0  0  0  0  0
   59.9255   34.1803   48.4134 H   0  0  0  0  0  0  0  0  0  0  0  0
   59.6392   31.6224   47.6828 H   0  0  0  0  0  0  0  0  0  0  0  0
   60.3299   28.1703   44.9985 H   0  0  0  0  0  0  0  0  0  0  0  0
   59.7354   25.7530   45.1484 H   0  0  0  0  0  0  0  0  0  0  0  0
   57.3781   25.0701   45.6020 H   0  0  0  0  0  0  0  0  0  0  0  0
   55.0660   26.3430   46.8780 H   0  0  0  0  0  0  0  0  0  0  0  0
   56.2010   29.2319   45.7656 H   0  0  0  0  0  0  0  0  0  0  0  0
  1  2  1  0
  2  3  1  0
  3  4  1  0
  4  5  2  0
  5  6  1  0
  6  7  1  0
  7  8  2  0
  7  9  1  0
  9 10  1  0
 10 11  2  0
 11 12  1  0
 12 13  2  0
 13 14  1  0
 14 15  1  0
 14 16  2  0
  6  2  2  0
 16 10  1  0
  1 17  1  0
  1 18  1  0
  1 19  1  0
  4 20  1  0
  5 21  1  0
 11 22  1  0
 12 23  1  0
 13 24  1  0
 15 25  1  0
 16 26  1  0
M  END
>  <UniqueID>  (86) 
84

>  <SMILES>  (86) 
Cc1occc1C(=O)Oc1cccc(O)c1

>  <Energy>  (86) 
55.42602170809388

>  <Genealogy>  (86) 
Cc1occc1C(=O)Oc1cccc(O)c1 (3D coordinates assigned)
Cc1occc1C(=O)Oc1cccc(O)c1 (optimized conformer: 55.42602170809388 kcal/mol)

>  <smiles>  (86) 
Cc1occc1C(=O)Oc1cccc(O)c1

>  <score_type>  (86) 
oracle

>  <origin>  (86) 
adg

>  <m_score__min__energy>  (86) 
-6.6900000000000004

>  <m_primary>  (86) 
energy

$$$$
86:0
     RDKit          3D

 44 46  0  0  0  0  0  0  0  0999 V2000
   55.1410   26.6810   45.9970 O   0  0  0  0  0  0  0  0  0  0  0  0
   56.3540   26.3760   45.8380 C   0  0  0  0  0  0  0  0  0  0  0  0
   56.8070   25.0400   46.0860 N   0  0  0  0  0  0  0  0  0  0  0  0
   56.8760   23.9730   45.1280 C   0  0  0  0  0  0  0  0  0  0  0  0
   55.8260   23.7100   44.2280 C   0  0  0  0  0  0  0  0  0  0  0  0
   55.9210   22.6460   43.3250 C   0  0  0  0  0  0  0  0  0  0  0  0
   57.0560   21.8300   43.3220 C   0  0  0  0  0  0  0  0  0  0  0  0
   57.1460   20.7970   42.4470 F   0  0  0  0  0  0  0  0  0  0  0  0
   58.0910   22.0700   44.2270 C   0  0  0  0  0  0  0  0  0  0  0  0
   57.9990   23.1330   45.1340 C   0  0  0  0  0  0  0  0  0  0  0  0
   59.0110   23.3530   46.0100 F   0  0  0  0  0  0  0  0  0  0  0  0
   57.2590   27.3050   45.3110 O   0  0  0  0  0  0  0  0  0  0  0  0
   58.1310   28.1040   46.0650 C   0  0  0  0  0  0  0  0  0  0  0  0
   58.4920   27.7680   47.3850 C   0  0  0  0  0  0  0  0  0  0  0  0
   59.4010   28.5590   48.0920 C   0  0  0  0  0  0  0  0  0  0  0  0
   59.9710   29.6810   47.4880 C   0  0  0  0  0  0  0  0  0  0  0  0
   59.6310   30.0160   46.1750 C   0  0  0  0  0  0  0  0  0  0  0  0
   58.7050   29.2410   45.4660 C   0  0  0  0  0  0  0  0  0  0  0  0
   58.3740   29.6070   44.1260 N   0  0  0  0  0  0  0  0  0  0  0  0
   57.0980   30.7220   43.7720 S   0  0  0  0  0  0  0  0  0  0  0  0
   56.5710   30.4200   42.3980 O   0  0  0  0  0  0  0  0  0  0  0  0
   55.9900   30.5710   44.7750 O   0  0  0  0  0  0  0  0  0  0  0  0
   57.7490   32.3590   43.8240 C   0  0  0  0  0  0  0  0  0  0  0  0
   57.4280   33.2600   44.7590 C   0  0  0  0  0  0  0  0  0  0  0  0
   58.2680   33.5530   45.9320 C   0  0  0  0  0  0  0  0  0  0  0  0
   58.1020   32.8010   47.1040 C   0  0  0  0  0  0  0  0  0  0  0  0
   58.8860   33.0730   48.2300 C   0  0  0  0  0  0  0  0  0  0  0  0
   59.8280   34.1040   48.1950 C   0  0  0  0  0  0  0  0  0  0  0  0
   59.9820   34.8720   47.0380 C   0  0  0  0  0  0  0  0  0  0  0  0
   59.2000   34.6050   45.9080 C   0  0  0  0  0  0  0  0  0  0  0  0
   59.3330   35.3860   44.8060 F   0  0  0  0  0  0  0  0  0  0  0  0
   54.9270   24.3439   44.2349 H   0  0  0  0  0  0  0  0  0  0  0  0
   55.1021   22.4513   42.6168 H   0  0  0  0  0  0  0  0  0  0  0  0
   58.9806   21.4230   44.2278 H   0  0  0  0  0  0  0  0  0  0  0  0
   58.0556   26.8778   47.8615 H   0  0  0  0  0  0  0  0  0  0  0  0
   59.6680   28.2972   49.1265 H   0  0  0  0  0  0  0  0  0  0  0  0
   60.6879   30.3014   48.0459 H   0  0  0  0  0  0  0  0  0  0  0  0
   60.0926   30.8922   45.6962 H   0  0  0  0  0  0  0  0  0  0  0  0
   58.4616   32.6575   43.0410 H   0  0  0  0  0  0  0  0  0  0  0  0
   56.4838   33.8128   44.6452 H   0  0  0  0  0  0  0  0  0  0  0  0
   57.3536   31.9955   47.1379 H   0  0  0  0  0  0  0  0  0  0  0  0
   58.7606   32.4743   49.1442 H   0  0  0  0  0  0  0  0  0  0  0  0
   60.4490   34.3113   49.0790 H   0  0  0  0  0  0  0  0  0  0  0  0
   60.7192   35.6881   47.0150 H   0  0  0  0  0  0  0  0  0  0  0  0
  1  2  2  0
  2  3  1  0
  3  4  1  0
  4  5  2  0
  5  6  1  0
  6  7  2  0
  7  8  1  0
  7  9  1  0
  9 10  2  0
 10 11  1  0
  2 12  1  0
 12 13  1  0
 13 14  2  0
 14 15  1  0
 15 16  2  0
 16 17  1  0
 17 18  2  0
 18 19  1  0
 19 20  1  0
 20 21  2  0
 20 22  2  0
 20 23  1  0
 23 24  2  3
 24 25  1  0
 25 26  2  0
 26 27  1  0
 27 28  2  0
 28 29  1  0
 29 30  2  0
 30 31  1  0
 10  4  1  0
 18 13  1  0
 30 25  1  0
  5 32  1  0
  6 33  1  0
  9 34  1  0
 14 35  1  0
 15 36  1  0
 16 37  1  0
 17 38  1  0
 23 39  1  0
 24 40  1  0
 26 41  1  0
 27 42  1  0
 28 43  1  0
 29 44  1  0
M  CHG  2   3  -1  19  -1
M  END
>  <UniqueID>  (87) 
85

>  <SMILES>  (87) 
O=C([N-]c1ccc(F)cc1F)Oc1ccccc1[N-]S(=O)(=O)C=Cc1ccccc1F

>  <Energy>  (87) 
72.4967234640072

>  <Genealogy>  (87) 
O=C([N-]c1ccc(F)cc1F)Oc1ccccc1[N-]S(=O)(=O)C=Cc1ccccc1F (protonated)
O=C([N-]c1ccc(F)cc1F)Oc1ccccc1[N-]S(=O)(=O)C=Cc1ccccc1F (3D coordinates assigned)
O=C([N-]c1ccc(F)cc1F)Oc1ccccc1[N-]S(=O)(=O)C=Cc1ccccc1F (optimized conformer: 72.4967234640072 kcal/mol)

>  <smiles>  (87) 
O=C(Nc1ccc(F)cc1F)Oc1ccccc1NS(=O)(=O)C=Cc1ccccc1F

>  <score_type>  (87) 
oracle

>  <origin>  (87) 
adg

>  <m_score__min__energy>  (87) 
-12.380000000000001

>  <m_primary>  (87) 
energy

$$$$
87:0
     RDKit          3D

 25 26  0  0  0  0  0  0  0  0999 V2000
   56.5560   30.5640   44.8780 O   0  0  0  0  0  0  0  0  0  0  0  0
   57.7330   30.9830   44.7260 C   0  0  0  0  0  0  0  0  0  0  0  0
   57.9650   32.1050   43.9400 O   0  0  0  0  0  0  0  0  0  0  0  0
   58.8760   30.2940   45.4150 C   0  0  0  0  0  0  0  0  0  0  0  0
   59.1320   28.8610   44.8960 C   0  0  1  0  0  0  0  0  0  0  0  0
   60.5510   28.3360   45.2320 C   0  0  0  0  0  0  0  0  0  0  0  0
   60.3860   27.2120   46.2710 C   0  0  0  0  0  0  0  0  0  0  0  0
   58.9280   26.9530   46.2880 C   0  0  0  0  0  0  0  0  0  0  0  0
   58.2700   25.9380   46.9850 C   0  0  0  0  0  0  0  0  0  0  0  0
   56.8710   25.8430   46.8920 C   0  0  0  0  0  0  0  0  0  0  0  0
   56.2120   24.8280   47.5850 O   0  0  0  0  0  0  0  0  0  0  0  0
   56.1550   26.7710   46.1010 C   0  0  0  0  0  0  0  0  0  0  0  0
   54.7720   26.6890   45.9980 O   0  0  0  0  0  0  0  0  0  0  0  0
   56.8400   27.7860   45.4150 C   0  0  0  0  0  0  0  0  0  0  0  0
   58.2310   27.8600   45.5290 C   0  0  0  0  0  0  0  0  0  0  0  0
   59.7875   30.8895   45.2584 H   0  0  0  0  0  0  0  0  0  0  0  0
   58.6110   30.2112   46.4794 H   0  0  0  0  0  0  0  0  0  0  0  0
   58.9719   28.9543   43.8117 H   0  0  0  0  0  0  0  0  0  0  0  0
   61.0321   27.9426   44.3243 H   0  0  0  0  0  0  0  0  0  0  0  0
   61.1829   29.1445   45.6282 H   0  0  0  0  0  0  0  0  0  0  0  0
   60.9397   26.3121   45.9651 H   0  0  0  0  0  0  0  0  0  0  0  0
   60.7791   27.4883   47.2605 H   0  0  0  0  0  0  0  0  0  0  0  0
   58.8383   25.2230   47.5981 H   0  0  0  0  0  0  0  0  0  0  0  0
   55.2070   24.8270   47.7070 H   0  0  0  0  0  0  0  0  0  0  0  0
   56.2907   28.5118   44.7974 H   0  0  0  0  0  0  0  0  0  0  0  0
  1  2  2  0
  2  3  1  0
  2  4  1  0
  4  5  1  0
  5  6  1  0
  6  7  1  0
  7  8  1  0
  8  9  2  0
  9 10  1  0
 10 11  1  0
 10 12  2  0
 12 13  1  0
 12 14  1  0
 14 15  2  0
 15  5  1  0
 15  8  1  0
  4 16  1  0
  4 17  1  0
  5 18  1  6
  6 19  1  0
  6 20  1  0
  7 21  1  0
  7 22  1  0
  9 23  1  0
 11 24  1  0
 14 25  1  0
M  CHG  2   3  -1  13  -1
M  END
>  <UniqueID>  (88) 
86

>  <SMILES>  (88) 
O=C([O-])C[C@H]1CCc2cc(O)c([O-])cc21

>  <Energy>  (88) 
31.4311083720594

>  <Genealogy>  (88) 
O=C([O-])CC1CCc2cc(O)c([O-])cc21 (protonated)
O=C([O-])C[C@H]1CCc2cc(O)c([O-])cc21 (chirality)
O=C([O-])C[C@H]1CCc2cc(O)c([O-])cc21 (3D coordinates assigned)
O=C([O-])C[C@H]1CCc2cc(O)c([O-])cc21 (nonaromatic ring conformer: 31.4311083720594 kcal/mol)

>  <smiles>  (88) 
O=C(O)CC1CCc2cc(O)c(O)cc21

>  <score_type>  (88) 
oracle

>  <origin>  (88) 
adg

>  <m_score__min__energy>  (88) 
-10.970000000000001

>  <m_primary>  (88) 
energy

$$$$
88:0
     RDKit          3D

 51 54  0  0  0  0  0  0  0  0999 V2000
   55.8950   29.1390   44.5900 C   0  0  0  0  0  0  0  0  0  0  0  0
   57.3530   29.0300   44.9900 C   0  0  0  0  0  0  0  0  0  0  0  0
   58.2320   30.1090   44.7080 C   0  0  0  0  0  0  0  0  0  0  0  0
   57.6870   31.6720   43.9920 S   0  0  0  0  0  0  0  0  0  0  0  0
   58.2780   32.6330   45.3880 C   0  0  0  0  0  0  0  0  0  0  0  0
   58.1280   32.1450   46.6930 C   0  0  0  0  0  0  0  0  0  0  0  0
   58.5940   32.8930   47.7780 C   0  0  0  0  0  0  0  0  0  0  0  0
   59.2100   34.1340   47.5680 C   0  0  0  0  0  0  0  0  0  0  0  0
   59.6890   34.8980   48.6780 N   0  0  0  0  0  0  0  0  0  0  0  0
   59.3520   34.6240   46.2610 C   0  0  0  0  0  0  0  0  0  0  0  0
   58.8850   33.8760   45.1750 C   0  0  0  0  0  0  0  0  0  0  0  0
   59.5910   29.9860   44.9900 C   0  0  0  0  0  0  0  0  0  0  0  0
   60.0760   28.8620   45.5610 N   0  0  0  0  0  0  0  0  0  0  0  0
   59.2790   27.8170   45.8910 C   0  0  0  0  0  0  0  0  0  0  0  0
   59.8660   26.7030   46.4950 C   0  0  0  0  0  0  0  0  0  0  0  0
   59.0890   25.6210   46.8830 C   0  0  0  0  0  0  0  0  0  0  0  0
   57.7160   25.6400   46.6690 C   0  0  0  0  0  0  0  0  0  0  0  0
   57.0950   26.7280   46.0320 C   0  0  0  0  0  0  0  0  0  0  0  0
   55.6710   26.7020   45.8690 N   0  0  0  0  0  0  0  0  0  0  0  0
   54.8620   25.5410   45.6310 C   0  0  0  0  0  0  0  0  0  0  0  0
   53.6540   25.5700   45.9910 O   0  0  0  0  0  0  0  0  0  0  0  0
   55.3510   24.3410   44.8430 C   0  0  0  0  0  0  0  0  0  0  0  0
   56.5800   24.6130   43.9570 C   0  0  0  0  0  0  0  0  0  0  0  0
   56.9080   23.3840   43.0800 C   0  0  0  0  0  0  0  0  0  0  0  0
   56.4970   22.0990   43.6770 N   0  0  0  0  0  0  0  0  0  0  0  0
   56.5860   22.1130   45.1440 C   0  0  0  0  0  0  0  0  0  0  0  0
   55.6000   23.1230   45.7620 C   0  0  0  0  0  0  0  0  0  0  0  0
   57.8780   27.8590   45.6350 C   0  0  0  0  0  0  0  0  0  0  0  0
   55.2694   29.1858   45.4936 H   0  0  0  0  0  0  0  0  0  0  0  0
   55.7457   30.0508   43.9931 H   0  0  0  0  0  0  0  0  0  0  0  0
   55.6118   28.2595   43.9931 H   0  0  0  0  0  0  0  0  0  0  0  0
   57.6431   31.1725   46.8637 H   0  0  0  0  0  0  0  0  0  0  0  0
   58.4767   32.5059   48.8009 H   0  0  0  0  0  0  0  0  0  0  0  0
   60.5770   34.6390   49.1630 H   0  0  0  0  0  0  0  0  0  0  0  0
   59.1620   35.7320   49.0210 H   0  0  0  0  0  0  0  0  0  0  0  0
   59.8318   35.5989   46.0898 H   0  0  0  0  0  0  0  0  0  0  0  0
   58.9950   34.2653   44.1521 H   0  0  0  0  0  0  0  0  0  0  0  0
   60.2752   30.8118   44.7454 H   0  0  0  0  0  0  0  0  0  0  0  0
   60.9527   26.6832   46.6644 H   0  0  0  0  0  0  0  0  0  0  0  0
   59.5595   24.7485   47.3598 H   0  0  0  0  0  0  0  0  0  0  0  0
   57.1048   24.7889   47.0039 H   0  0  0  0  0  0  0  0  0  0  0  0
   54.5298   24.1088   44.1489 H   0  0  0  0  0  0  0  0  0  0  0  0
   56.3715   25.4750   43.3062 H   0  0  0  0  0  0  0  0  0  0  0  0
   57.4428   24.8227   44.6063 H   0  0  0  0  0  0  0  0  0  0  0  0
   56.3921   23.4989   42.1153 H   0  0  0  0  0  0  0  0  0  0  0  0
   58.0021   23.3511   42.9714 H   0  0  0  0  0  0  0  0  0  0  0  0
   55.5060   21.8940   43.4050 H   0  0  0  0  0  0  0  0  0  0  0  0
   56.3534   21.1078   45.5254 H   0  0  0  0  0  0  0  0  0  0  0  0
   57.6066   22.4128   45.4241 H   0  0  0  0  0  0  0  0  0  0  0  0
   54.6412   22.6152   45.9431 H   0  0  0  0  0  0  0  0  0  0  0  0
   56.0426   23.4940   46.6982 H   0  0  0  0  0  0  0  0  0  0  0  0
  1  2  1  0
  2  3  2  0
  3  4  1  0
  4  5  1  0
  5  6  2  0
  6  7  1  0
  7  8  2  0
  8  9  1  0
  8 10  1  0
 10 11  2  0
  3 12  1  0
 12 13  2  0
 13 14  1  0
 14 15  2  0
 15 16  1  0
 16 17  2  0
 17 18  1  0
 18 19  1  0
 19 20  1  0
 20 21  2  0
 20 22  1  0
 22 23  1  0
 23 24  1  0
 24 25  1  0
 25 26  1  0
 26 27  1  0
 18 28  2  0
 28  2  1  0
 11  5  1  0
 28 14  1  0
 27 22  1  0
  1 29  1  0
  1 30  1  0
  1 31  1  0
  6 32  1  0
  7 33  1  0
  9 34  1  0
  9 35  1  0
 10 36  1  0
 11 37  1  0
 12 38  1  0
 15 39  1  0
 16 40  1  0
 17 41  1  0
 22 42  1  0
 23 43  1  0
 23 44  1  0
 24 45  1  0
 24 46  1  0
 25 47  1  0
 26 48  1  0
 26 49  1  0
 27 50  1  0
 27 51  1  0
M  CHG  1  19  -1
M  END
>  <UniqueID>  (89) 
87

>  <SMILES>  (89) 
Cc1c(Sc2ccc(N)cc2)cnc2cccc([N-]C(=O)C3CCNCC3)c12

>  <Energy>  (89) 
74.78314669767282

>  <Genealogy>  (89) 
Cc1c(Sc2ccc(N)cc2)cnc2cccc([N-]C(=O)C3CCNCC3)c12 (protonated)
Cc1c(Sc2ccc(N)cc2)cnc2cccc([N-]C(=O)C3CCNCC3)c12 (3D coordinates assigned)
Cc1c(Sc2ccc(N)cc2)cnc2cccc([N-]C(=O)C3CCNCC3)c12 (nonaromatic ring conformer: 74.78314669767282 kcal/mol)

>  <smiles>  (89) 
Cc1c(Sc2ccc(N)cc2)cnc2cccc(NC(=O)C3CCNCC3)c12

>  <score_type>  (89) 
oracle

>  <origin>  (89) 
adg

>  <m_score__min__energy>  (89) 
-10.699999999999999

>  <m_primary>  (89) 
energy

$$$$
89:0
     RDKit          3D

 42 44  0  0  0  0  0  0  0  0999 V2000
   55.1660   29.3220   44.8540 N   0  0  0  0  0  0  0  0  0  0  0  0
   56.4020   29.7310   44.2740 C   0  0  0  0  0  0  0  0  0  0  0  0
   56.9610   28.9970   43.4150 O   0  0  0  0  0  0  0  0  0  0  0  0
   57.0470   31.0160   44.7180 C   0  0  0  0  0  0  0  0  0  0  0  0
   58.2370   30.7360   45.6570 C   0  0  0  0  0  0  0  0  0  0  0  0
   59.3190   31.8390   45.6300 C   0  0  0  0  0  0  0  0  0  0  0  0
   58.8120   33.1680   45.2260 N   0  0  0  0  0  0  0  0  0  0  0  0
   58.4060   34.0750   46.3220 C   0  0  0  0  0  0  0  0  0  0  0  0
   59.0320   33.7270   47.6530 C   0  0  0  0  0  0  0  0  0  0  0  0
   60.2970   34.2330   48.0020 C   0  0  0  0  0  0  0  0  0  0  0  0
   60.8540   33.9370   49.2470 C   0  0  0  0  0  0  0  0  0  0  0  0
   60.1640   33.1280   50.1520 C   0  0  0  0  0  0  0  0  0  0  0  0
   58.9150   32.5870   49.8070 C   0  0  0  0  0  0  0  0  0  0  0  0
   58.1950   31.7660   50.7470 N   0  0  0  0  0  0  0  0  0  0  0  0
   57.5300   32.3640   51.7800 C   0  0  0  0  0  0  0  0  0  0  0  0
   56.8120   31.5990   52.6970 C   0  0  0  0  0  0  0  0  0  0  0  0
   56.7890   30.2160   52.5350 C   0  0  0  0  0  0  0  0  0  0  0  0
   56.1480   29.4940   53.3440 O   0  0  0  0  0  0  0  0  0  0  0  0
   57.4610   29.6470   51.5040 N   0  0  0  0  0  0  0  0  0  0  0  0
   58.1600   30.4000   50.6150 C   0  0  0  0  0  0  0  0  0  0  0  0
   58.7840   29.8260   49.6820 O   0  0  0  0  0  0  0  0  0  0  0  0
   58.3600   32.8830   48.5510 C   0  0  0  0  0  0  0  0  0  0  0  0
   57.9920   33.2300   43.9920 C   0  0  0  0  0  0  0  0  0  0  0  0
   57.4920   31.8570   43.5180 C   0  0  0  0  0  0  0  0  0  0  0  0
   55.1430   28.6190   45.6270 H   0  0  0  0  0  0  0  0  0  0  0  0
   56.2946   31.5934   45.2752 H   0  0  0  0  0  0  0  0  0  0  0  0
   57.8556   30.6480   46.6850 H   0  0  0  0  0  0  0  0  0  0  0  0
   58.7131   29.8083   45.3067 H   0  0  0  0  0  0  0  0  0  0  0  0
   59.7506   31.9251   46.6381 H   0  0  0  0  0  0  0  0  0  0  0  0
   60.0615   31.5386   44.8760 H   0  0  0  0  0  0  0  0  0  0  0  0
   58.7030   35.0998   46.0544 H   0  0  0  0  0  0  0  0  0  0  0  0
   57.3169   33.9747   46.4395 H   0  0  0  0  0  0  0  0  0  0  0  0
   60.8496   34.8646   47.2908 H   0  0  0  0  0  0  0  0  0  0  0  0
   61.8404   34.3426   49.5163 H   0  0  0  0  0  0  0  0  0  0  0  0
   60.6004   32.9137   51.1387 H   0  0  0  0  0  0  0  0  0  0  0  0
   57.5617   33.4582   51.8886 H   0  0  0  0  0  0  0  0  0  0  0  0
   56.2755   32.0767   53.5300 H   0  0  0  0  0  0  0  0  0  0  0  0
   57.3894   32.4492   48.2684 H   0  0  0  0  0  0  0  0  0  0  0  0
   57.1189   33.8703   44.1861 H   0  0  0  0  0  0  0  0  0  0  0  0
   58.6359   33.6320   43.1959 H   0  0  0  0  0  0  0  0  0  0  0  0
   56.6408   31.9956   42.8352 H   0  0  0  0  0  0  0  0  0  0  0  0
   58.3090   31.3366   42.9968 H   0  0  0  0  0  0  0  0  0  0  0  0
  1  2  1  0
  2  3  2  0
  2  4  1  0
  4  5  1  0
  5  6  1  0
  6  7  1  0
  7  8  1  0
  8  9  1  0
  9 10  2  0
 10 11  1  0
 11 12  2  0
 12 13  1  0
 13 14  1  0
 14 15  1  0
 15 16  2  0
 16 17  1  0
 17 18  2  0
 17 19  1  0
 19 20  1  0
 20 21  2  0
 13 22  2  0
  7 23  1  0
 23 24  1  0
 24  4  1  0
 22  9  1  0
 20 14  1  0
  1 25  1  0
  4 26  1  0
  5 27  1  0
  5 28  1  0
  6 29  1  0
  6 30  1  0
  8 31  1  0
  8 32  1  0
 10 33  1  0
 11 34  1  0
 12 35  1  0
 15 36  1  0
 16 37  1  0
 22 38  1  0
 23 39  1  0
 23 40  1  0
 24 41  1  0
 24 42  1  0
M  CHG  2   1  -1  19  -1
M  END
>  <UniqueID>  (90) 
88

>  <SMILES>  (90) 
[NH-]C(=O)C1CCN(Cc2cccc(-n3ccc(=O)[n-]c3=O)c2)CC1

>  <Energy>  (90) 
63.3540315801979

>  <Genealogy>  (90) 
[NH-]C(=O)C1CCN(Cc2cccc(-n3ccc(=O)[n-]c3=O)c2)CC1 (protonated)
[NH-]C(=O)C1CCN(Cc2cccc(-n3ccc(=O)[n-]c3=O)c2)CC1 (3D coordinates assigned)
[NH-]C(=O)C1CCN(Cc2cccc(-n3ccc(=O)[n-]c3=O)c2)CC1 (nonaromatic ring conformer: 63.3540315801979 kcal/mol)

>  <smiles>  (90) 
NC(=O)C1CCN(Cc2cccc(-n3ccc(=O)[nH]c3=O)c2)CC1

>  <score_type>  (90) 
oracle

>  <origin>  (90) 
adg

>  <m_score__min__energy>  (90) 
-12.31

>  <m_primary>  (90) 
energy

$$$$
90:0
     RDKit          3D

 55 57  0  0  0  0  0  0  0  0999 V2000
   59.3300   33.7210   51.1810 C   0  0  0  0  0  0  0  0  0  0  0  0
   60.5330   33.8740   50.2540 C   0  0  0  0  0  0  0  0  0  0  0  0
   60.1660   34.5650   49.0580 O   0  0  0  0  0  0  0  0  0  0  0  0
   59.4980   33.9990   47.9600 C   0  0  0  0  0  0  0  0  0  0  0  0
   58.7280   32.8220   48.0570 C   0  0  0  0  0  0  0  0  0  0  0  0
   58.0970   32.2970   46.9260 C   0  0  0  0  0  0  0  0  0  0  0  0
   58.2150   32.9420   45.6840 C   0  0  0  0  0  0  0  0  0  0  0  0
   57.6010   32.3370   44.4550 C   0  0  0  0  0  0  0  0  0  0  0  0
   56.4250   31.5640   44.8470 N   0  0  0  0  0  0  0  0  0  0  0  0
   56.5030   29.9640   44.1730 S   0  0  0  0  0  0  0  0  0  0  0  0
   56.9370   30.0400   42.7350 O   0  0  0  0  0  0  0  0  0  0  0  0
   55.1390   29.3420   44.2470 O   0  0  0  0  0  0  0  0  0  0  0  0
   57.6340   28.9610   45.0810 C   0  0  0  0  0  0  0  0  0  0  0  0
   58.2810   27.8800   44.4690 C   0  0  0  0  0  0  0  0  0  0  0  0
   59.1900   27.1060   45.1920 C   0  0  0  0  0  0  0  0  0  0  0  0
   59.4690   27.4140   46.5270 C   0  0  0  0  0  0  0  0  0  0  0  0
   58.8270   28.4960   47.1570 C   0  0  0  0  0  0  0  0  0  0  0  0
   59.1390   28.8500   48.5640 C   0  0  0  0  0  0  0  0  0  0  0  0
   58.1960   28.9960   49.3890 O   0  0  0  0  0  0  0  0  0  0  0  0
   60.4810   29.0900   49.0070 N   0  0  0  0  0  0  0  0  0  0  0  0
   61.2800   30.2350   48.6820 C   0  0  0  0  0  0  0  0  0  0  0  0
   61.2860   30.7860   47.3890 C   0  0  0  0  0  0  0  0  0  0  0  0
   62.0930   31.8890   47.0970 C   0  0  0  0  0  0  0  0  0  0  0  0
   62.9160   32.4460   48.0890 C   0  0  0  0  0  0  0  0  0  0  0  0
   63.7640   33.6520   47.7800 C   0  0  0  0  0  0  0  0  0  0  0  0
   63.3940   34.2390   46.4200 C   0  0  0  0  0  0  0  0  0  0  0  0
   62.9080   31.8930   49.3790 C   0  0  0  0  0  0  0  0  0  0  0  0
   62.1060   30.7860   49.6680 C   0  0  0  0  0  0  0  0  0  0  0  0
   57.9150   29.2710   46.4200 C   0  0  0  0  0  0  0  0  0  0  0  0
   58.9890   34.1090   45.5860 C   0  0  0  0  0  0  0  0  0  0  0  0
   59.6190   34.6320   46.7170 C   0  0  0  0  0  0  0  0  0  0  0  0
   59.6658   33.7637   52.2276 H   0  0  0  0  0  0  0  0  0  0  0  0
   58.6153   34.5355   50.9917 H   0  0  0  0  0  0  0  0  0  0  0  0
   58.8419   32.7535   50.9917 H   0  0  0  0  0  0  0  0  0  0  0  0
   61.3184   34.4430   50.7730 H   0  0  0  0  0  0  0  0  0  0  0  0
   60.9008   32.8729   49.9847 H   0  0  0  0  0  0  0  0  0  0  0  0
   58.6234   32.3146   49.0274 H   0  0  0  0  0  0  0  0  0  0  0  0
   57.5048   31.3737   47.0089 H   0  0  0  0  0  0  0  0  0  0  0  0
   57.3034   33.1354   43.7593 H   0  0  0  0  0  0  0  0  0  0  0  0
   58.3304   31.6808   43.9576 H   0  0  0  0  0  0  0  0  0  0  0  0
   58.0722   27.6404   43.4159 H   0  0  0  0  0  0  0  0  0  0  0  0
   59.6881   26.2516   44.7104 H   0  0  0  0  0  0  0  0  0  0  0  0
   60.1947   26.8069   47.0881 H   0  0  0  0  0  0  0  0  0  0  0  0
   60.6529   30.3473   46.6037 H   0  0  0  0  0  0  0  0  0  0  0  0
   62.0834   32.3225   46.0861 H   0  0  0  0  0  0  0  0  0  0  0  0
   63.6048   34.4139   48.5573 H   0  0  0  0  0  0  0  0  0  0  0  0
   64.8199   33.3447   47.7566 H   0  0  0  0  0  0  0  0  0  0  0  0
   62.8125   35.1615   46.5647 H   0  0  0  0  0  0  0  0  0  0  0  0
   64.3112   34.4681   45.8577 H   0  0  0  0  0  0  0  0  0  0  0  0
   62.7916   33.5103   45.8577 H   0  0  0  0  0  0  0  0  0  0  0  0
   63.5366   32.3336   50.1669 H   0  0  0  0  0  0  0  0  0  0  0  0
   62.1240   30.3454   50.6757 H   0  0  0  0  0  0  0  0  0  0  0  0
   57.4173   30.1280   46.8973 H   0  0  0  0  0  0  0  0  0  0  0  0
   59.0996   34.6133   44.6147 H   0  0  0  0  0  0  0  0  0  0  0  0
   60.2169   35.5513   46.6305 H   0  0  0  0  0  0  0  0  0  0  0  0
  1  2  1  0
  2  3  1  0
  3  4  1  0
  4  5  2  0
  5  6  1  0
  6  7  2  0
  7  8  1  0
  8  9  1  0
  9 10  1  0
 10 11  2  0
 10 12  2  0
 10 13  1  0
 13 14  2  0
 14 15  1  0
 15 16  2  0
 16 17  1  0
 17 18  1  0
 18 19  2  0
 18 20  1  0
 20 21  1  0
 21 22  2  0
 22 23  1  0
 23 24  2  0
 24 25  1  0
 25 26  1  0
 24 27  1  0
 27 28  2  0
 17 29  2  0
  7 30  1  0
 30 31  2  0
 31  4  1  0
 29 13  1  0
 28 21  1  0
  1 32  1  0
  1 33  1  0
  1 34  1  0
  2 35  1  0
  2 36  1  0
  5 37  1  0
  6 38  1  0
  8 39  1  0
  8 40  1  0
 14 41  1  0
 15 42  1  0
 16 43  1  0
 22 44  1  0
 23 45  1  0
 25 46  1  0
 25 47  1  0
 26 48  1  0
 26 49  1  0
 26 50  1  0
 27 51  1  0
 28 52  1  0
 29 53  1  0
 30 54  1  0
 31 55  1  0
M  CHG  2   9  -1  20  -1
M  END
>  <UniqueID>  (91) 
89

>  <SMILES>  (91) 
CCOc1ccc(C[N-]S(=O)(=O)c2cccc(C(=O)[N-]c3ccc(CC)cc3)c2)cc1

>  <Energy>  (91) 
56.37431007856777

>  <Genealogy>  (91) 
CCOc1ccc(C[N-]S(=O)(=O)c2cccc(C(=O)[N-]c3ccc(CC)cc3)c2)cc1 (protonated)
CCOc1ccc(C[N-]S(=O)(=O)c2cccc(C(=O)[N-]c3ccc(CC)cc3)c2)cc1 (3D coordinates assigned)
CCOc1ccc(C[N-]S(=O)(=O)c2cccc(C(=O)[N-]c3ccc(CC)cc3)c2)cc1 (optimized conformer: 56.37431007856777 kcal/mol)

>  <smiles>  (91) 
CCOc1ccc(CNS(=O)(=O)c2cccc(C(=O)Nc3ccc(CC)cc3)c2)cc1

>  <score_type>  (91) 
oracle

>  <origin>  (91) 
adg

>  <m_score__min__energy>  (91) 
-12.06

>  <m_primary>  (91) 
energy

$$$$
91:0
     RDKit          3D

 45 49  0  0  0  0  0  0  0  0999 V2000
   53.7694   31.3581   50.4913 H   0  0  0  0  0  0  0  0  0  0  0  0
   53.5270   31.2100   51.5540 C   0  0  0  0  0  0  0  0  0  0  0  0
   52.2180   31.6770   52.0340 C   0  0  0  0  0  0  0  0  0  0  0  0
   51.8210   31.5890   53.3160 N   0  0  0  0  0  0  0  0  0  0  0  0
   50.6170   32.2020   53.3130 C   0  0  0  0  0  0  0  0  0  0  0  0
   49.9100   32.3110   54.3480 O   0  0  0  0  0  0  0  0  0  0  0  0
   50.2350   32.6960   52.1160 N   0  0  0  0  0  0  0  0  0  0  0  0
   51.2650   32.3680   51.3200 C   0  0  0  0  0  0  0  0  0  0  0  0
   51.3460   32.7220   49.9790 O   0  0  0  0  0  0  0  0  0  0  0  0
   57.6900   29.5320   53.2210 C   0  0  0  0  0  0  0  0  0  0  0  0
   54.1890   29.8850   53.4840 C   0  0  0  0  0  0  0  0  0  0  0  0
   53.1951   29.7227   53.9265 H   0  0  0  0  0  0  0  0  0  0  0  0
   55.3530   29.4050   53.9780 N   0  0  0  0  0  0  0  0  0  0  0  0
   55.4130   28.8140   54.8290 H   0  0  0  0  0  0  0  0  0  0  0  0
   56.3420   29.7910   53.1790 N   0  0  0  0  0  0  0  0  0  0  0  0
   54.4450   30.6140   52.3320 C   0  0  0  0  0  0  0  0  0  0  0  0
   58.2870   28.8620   54.1690 N   0  0  0  0  0  0  0  0  0  0  0  0
   58.2810   27.4310   54.4360 C   0  0  0  0  0  0  0  0  0  0  0  0
   59.3478   27.2372   54.2507 H   0  0  0  0  0  0  0  0  0  0  0  0
   56.9930   26.7250   54.0460 C   0  0  0  0  0  0  0  0  0  0  0  0
   56.2130   27.2689   53.4931 H   0  0  0  0  0  0  0  0  0  0  0  0
   56.7452   25.8075   53.4922 H   0  0  0  0  0  0  0  0  0  0  0  0
   57.2670   27.0610   55.5020 C   0  0  0  0  0  0  0  0  0  0  0  0
   56.6847   27.8479   56.0037 H   0  0  0  0  0  0  0  0  0  0  0  0
   57.2992   26.4867   56.4396 H   0  0  0  0  0  0  0  0  0  0  0  0
   58.4590   30.0220   52.2100 N   0  0  0  0  0  0  0  0  0  0  0  0
   57.9190   30.7430   51.1820 C   0  0  0  0  0  0  0  0  0  0  0  0
   58.7540   31.2460   50.1200 N   0  0  0  0  0  0  0  0  0  0  0  0
   59.5320   30.2970   49.3060 C   0  0  0  0  0  0  0  0  0  0  0  0
   60.0501   29.5943   49.9752 H   0  0  0  0  0  0  0  0  0  0  0  0
   58.8366   29.7658   48.6395 H   0  0  0  0  0  0  0  0  0  0  0  0
   60.5710   31.0150   48.4390 C   0  0  0  0  0  0  0  0  0  0  0  0
   61.3392   31.4540   49.0925 H   0  0  0  0  0  0  0  0  0  0  0  0
   61.0135   30.2788   47.7519 H   0  0  0  0  0  0  0  0  0  0  0  0
   59.9330   32.1320   47.6000 C   0  0  0  0  0  0  0  0  0  0  0  0
   60.7319   32.8031   47.2516 H   0  0  0  0  0  0  0  0  0  0  0  0
   59.4002   31.6441   46.7705 H   0  0  0  0  0  0  0  0  0  0  0  0
   58.8900   32.9750   48.3700 C   0  0  1  0  0  0  0  0  0  0  0  0
   59.1682   34.0301   48.2312 H   0  0  0  0  0  0  0  0  0  0  0  0
   57.6250   32.7180   47.8650 F   0  0  0  0  0  0  0  0  0  0  0  0
   58.8850   32.6910   49.8780 C   0  0  0  0  0  0  0  0  0  0  0  0
   59.8268   33.0498   50.3189 H   0  0  0  0  0  0  0  0  0  0  0  0
   58.0332   33.2119   50.3396 H   0  0  0  0  0  0  0  0  0  0  0  0
   56.5800   30.9850   51.1660 N   0  0  0  0  0  0  0  0  0  0  0  0
   55.8180   30.5170   52.1800 C   0  0  0  0  0  0  0  0  0  0  0  0
  1  2  1  0
  2  3  1  0
  3  4  1  0
  4  5  1  0
  5  6  2  0
  5  7  1  0
  7  8  1  0
  8  9  1  0
  2 10  2  0
 10 11  1  0
 11 12  1  0
 11 13  2  0
 13 14  1  0
 13 15  1  0
 15 16  1  0
 16 17  2  0
 17 18  1  0
 18 19  1  0
 18 20  1  0
 20 21  1  0
 20 22  1  0
 20 23  1  0
 23 24  1  0
 23 25  1  0
 16 26  1  0
 26 27  2  0
 27 28  1  0
 28 29  1  0
 29 30  1  0
 29 31  1  0
 29 32  1  0
 32 33  1  0
 32 34  1  0
 32 35  1  0
 35 36  1  0
 35 37  1  0
 35 38  1  0
 38 39  1  1
 38 40  1  0
 38 41  1  0
 41 42  1  0
 41 43  1  0
 27 44  1  0
 44 45  2  0
  8  3  2  0
 45 10  1  0
 45 15  1  0
 23 18  1  0
 41 28  1  0
M  CHG  4   4  -1   7  -1   9  -1  13   1
M  END
>  <UniqueID>  (92) 
90

>  <SMILES>  (92) 
O=c1[n-]c([O-])c(/C=c2/c[nH+]n3/c(=N\C4CC4)nc(N4CCC[C@@H](F)C4)nc23)[n-]1

>  <Energy>  (92) 
396.93318854138425

>  <Genealogy>  (92) 
O=c1[n-]c([O-])c(C=c2c[nH+]n3c(=NC4CC4)nc(N4CCCC(F)C4)nc23)[n-]1 (protonated)
O=c1[n-]c([O-])c(C=c2c[nH+]n3c(=NC4CC4)nc(N4CCC[C@@H](F)C4)nc23)[n-]1 (chirality)
O=c1[n-]c([O-])c(/C=c2/c[nH+]n3/c(=N\C4CC4)nc(N4CCC[C@@H](F)C4)nc23)[n-]1 (cis-trans isomerization)
O=c1[n-]c([O-])c(/C=c2/c[nH+]n3/c(=N\C4CC4)nc(N4CCC[C@@H](F)C4)nc23)[n-]1 (3D coordinates assigned)
O=c1[n-]c([O-])c(/C=c2/c[nH+]n3/c(=N\C4CC4)nc(N4CCC[C@@H](F)C4)nc23)[n-]1 (nonaromatic ring conformer: 396.93318854138425 kcal/mol)

>  <smiles>  (92) 
O=c1[nH]c(O)c(C=c2cnn3c(=NC4CC4)nc(N4CCCC(F)C4)nc23)[nH]1

>  <score_type>  (92) 
oracle

>  <origin>  (92) 
adg

>  <m_score__min__energy>  (92) 
-14.9

>  <m_primary>  (92) 
energy

$$$$
92:0
     RDKit          3D

 41 43  0  0  0  0  0  0  0  0999 V2000
   59.8291   35.1156   49.2930 H   0  0  0  0  0  0  0  0  0  0  0  0
   59.4450   34.3410   48.6130 C   0  0  0  0  0  0  0  0  0  0  0  0
   59.0540   33.1040   49.1180 C   0  0  0  0  0  0  0  0  0  0  0  0
   59.1289   32.9025   50.1968 H   0  0  0  0  0  0  0  0  0  0  0  0
   58.5670   32.1190   48.2570 C   0  0  0  0  0  0  0  0  0  0  0  0
   58.2639   31.1437   48.6655 H   0  0  0  0  0  0  0  0  0  0  0  0
   58.4580   32.3560   46.8720 C   0  0  0  0  0  0  0  0  0  0  0  0
   57.9240   31.2640   46.0180 C   0  0  0  0  0  0  0  0  0  0  0  0
   58.2520   29.9580   46.1420 N   0  0  0  0  0  0  0  0  0  0  0  0
   57.5410   29.3550   45.1710 C   0  0  0  0  0  0  0  0  0  0  0  0
   57.5820   27.8810   44.9040 C   0  0  0  0  0  0  0  0  0  0  0  0
   58.5555   27.6198   44.4634 H   0  0  0  0  0  0  0  0  0  0  0  0
   56.7697   27.6225   44.2088 H   0  0  0  0  0  0  0  0  0  0  0  0
   57.3530   26.9430   46.4560 S   0  0  0  0  0  0  0  0  0  0  0  0
   59.0910   26.4060   46.6390 C   0  0  0  0  0  0  0  0  0  0  0  0
   59.3277   25.6713   45.8553 H   0  0  0  0  0  0  0  0  0  0  0  0
   59.2218   25.9539   47.6332 H   0  0  0  0  0  0  0  0  0  0  0  0
   60.0140   27.5750   46.5130 C   0  0  0  0  0  0  0  0  0  0  0  0
   60.5140   27.8500   45.3890 O   0  0  0  0  0  0  0  0  0  0  0  0
   60.3180   28.3530   47.6820 N   0  0  0  0  0  0  0  0  0  0  0  0
   60.8320   29.5490   47.7400 C   0  0  0  0  0  0  0  0  0  0  0  0
   61.4420   30.1670   48.8220 C   0  0  0  0  0  0  0  0  0  0  0  0
   61.5983   29.7725   49.8369 H   0  0  0  0  0  0  0  0  0  0  0  0
   61.8060   31.4020   48.3120 C   0  0  0  0  0  0  0  0  0  0  0  0
   62.5040   32.4870   49.0590 C   0  0  0  0  0  0  0  0  0  0  0  0
   62.3945   32.3168   50.1402 H   0  0  0  0  0  0  0  0  0  0  0  0
   63.5716   32.4865   48.7940 H   0  0  0  0  0  0  0  0  0  0  0  0
   62.0609   33.4583   48.7940 H   0  0  0  0  0  0  0  0  0  0  0  0
   61.4390   31.4800   47.0530 O   0  0  0  0  0  0  0  0  0  0  0  0
   60.8540   30.3800   46.6830 N   0  0  0  0  0  0  0  0  0  0  0  0
   60.4740   30.1960   45.7280 H   0  0  0  0  0  0  0  0  0  0  0  0
   56.8180   30.3100   44.4880 C   0  0  0  0  0  0  0  0  0  0  0  0
   55.8930   30.1030   43.3340 C   0  0  0  0  0  0  0  0  0  0  0  0
   54.8838   29.8772   43.7089 H   0  0  0  0  0  0  0  0  0  0  0  0
   55.8608   31.0161   42.7215 H   0  0  0  0  0  0  0  0  0  0  0  0
   56.2531   29.2632   42.7215 H   0  0  0  0  0  0  0  0  0  0  0  0
   57.0730   31.4720   45.0340 O   0  0  0  0  0  0  0  0  0  0  0  0
   58.8610   33.6220   46.3660 C   0  0  0  0  0  0  0  0  0  0  0  0
   58.8120   34.1040   44.5060 Br  0  0  0  0  0  0  0  0  0  0  0  0
   59.3500   34.5990   47.2450 C   0  0  0  0  0  0  0  0  0  0  0  0
   59.6617   35.5781   46.8524 H   0  0  0  0  0  0  0  0  0  0  0  0
  1  2  1  0
  2  3  2  0
  3  4  1  0
  3  5  1  0
  5  6  1  0
  5  7  2  0
  7  8  1  0
  8  9  2  0
  9 10  1  0
 10 11  1  0
 11 12  1  0
 11 13  1  0
 11 14  1  0
 14 15  1  0
 15 16  1  0
 15 17  1  0
 15 18  1  0
 18 19  2  0
 18 20  1  0
 20 21  2  0
 21 22  1  0
 22 23  1  0
 22 24  2  0
 24 25  1  0
 25 26  1  0
 25 27  1  0
 25 28  1  0
 24 29  1  0
 29 30  1  0
 30 31  1  0
 10 32  2  0
 32 33  1  0
 33 34  1  0
 33 35  1  0
 33 36  1  0
 32 37  1  0
  7 38  1  0
 38 39  1  0
 38 40  2  0
 40 41  1  0
 40  2  1  0
 37  8  1  0
 30 21  1  0
M  END
>  <UniqueID>  (93) 
91

>  <SMILES>  (93) 
Cc1c/c(=N\C(=O)CSCc2nc(-c3ccccc3Br)oc2C)[nH]o1

>  <Energy>  (93) 
104.59500710570676

>  <Genealogy>  (93) 
Cc1c/c(=N\C(=O)CSCc2nc(-c3ccccc3Br)oc2C)[nH]o1 (cis-trans isomerization)
Cc1c/c(=N\C(=O)CSCc2nc(-c3ccccc3Br)oc2C)[nH]o1 (3D coordinates assigned)
Cc1c/c(=N\C(=O)CSCc2nc(-c3ccccc3Br)oc2C)[nH]o1 (optimized conformer: 104.59500710570676 kcal/mol)

>  <smiles>  (93) 
Cc1cc(=NC(=O)CSCc2nc(-c3ccccc3Br)oc2C)[nH]o1

>  <score_type>  (93) 
oracle

>  <origin>  (93) 
adg

>  <m_score__min__energy>  (93) 
-9.0500000000000007

>  <m_primary>  (93) 
energy

$$$$
93:0
     RDKit          3D

 28 29  0  0  0  0  0  0  0  0999 V2000
   57.4770   32.1320   41.6340 C   0  0  0  0  0  0  0  0  0  0  0  0
   56.9110   30.8060   42.7440 S   0  0  0  0  0  0  0  0  0  0  0  0
   57.5190   31.6120   44.2330 C   0  0  0  0  0  0  0  0  0  0  0  0
   57.4630   33.0090   44.3190 C   0  0  0  0  0  0  0  0  0  0  0  0
   57.8900   33.6600   45.4790 C   0  0  0  0  0  0  0  0  0  0  0  0
   58.3550   32.9180   46.5660 C   0  0  0  0  0  0  0  0  0  0  0  0
   58.4080   31.5240   46.4910 C   0  0  0  0  0  0  0  0  0  0  0  0
   58.0150   30.8580   45.3140 C   0  0  0  0  0  0  0  0  0  0  0  0
   58.0480   29.4240   45.2160 N   0  0  0  0  0  0  0  0  0  0  0  0
   56.9590   28.5130   45.4210 C   0  0  0  0  0  0  0  0  0  0  0  0
   55.7890   28.9150   45.1900 O   0  0  0  0  0  0  0  0  0  0  0  0
   57.1620   27.1130   45.8630 C   0  0  0  0  0  0  0  0  0  0  0  0
   58.4650   26.6150   46.0110 C   0  0  0  0  0  0  0  0  0  0  0  0
   58.6730   25.2950   46.4140 C   0  0  0  0  0  0  0  0  0  0  0  0
   57.5720   24.4810   46.6800 C   0  0  0  0  0  0  0  0  0  0  0  0
   57.7400   23.2860   47.0400 O   0  0  0  0  0  0  0  0  0  0  0  0
   56.3130   24.9790   46.5560 N   0  0  0  0  0  0  0  0  0  0  0  0
   56.0800   26.2600   46.1660 C   0  0  0  0  0  0  0  0  0  0  0  0
   54.7700   26.7160   46.0950 O   0  0  0  0  0  0  0  0  0  0  0  0
   57.8394   32.9811   42.2321 H   0  0  0  0  0  0  0  0  0  0  0  0
   58.2929   31.7557   40.9994 H   0  0  0  0  0  0  0  0  0  0  0  0
   56.6408   32.4609   40.9994 H   0  0  0  0  0  0  0  0  0  0  0  0
   57.0815   33.5955   43.4702 H   0  0  0  0  0  0  0  0  0  0  0  0
   57.8597   34.7581   45.5358 H   0  0  0  0  0  0  0  0  0  0  0  0
   58.6801   33.4315   47.4828 H   0  0  0  0  0  0  0  0  0  0  0  0
   58.7589   30.9430   47.3566 H   0  0  0  0  0  0  0  0  0  0  0  0
   59.3269   27.2678   45.8085 H   0  0  0  0  0  0  0  0  0  0  0  0
   59.6944   24.9008   46.5207 H   0  0  0  0  0  0  0  0  0  0  0  0
  1  2  1  0
  2  3  1  0
  3  4  2  0
  4  5  1  0
  5  6  2  0
  6  7  1  0
  7  8  2  0
  8  9  1  0
  9 10  1  0
 10 11  2  0
 10 12  1  0
 12 13  1  0
 13 14  2  0
 14 15  1  0
 15 16  2  0
 15 17  1  0
 17 18  1  0
 18 19  1  0
  8  3  1  0
 18 12  2  0
  1 20  1  0
  1 21  1  0
  1 22  1  0
  4 23  1  0
  5 24  1  0
  6 25  1  0
  7 26  1  0
 13 27  1  0
 14 28  1  0
M  CHG  3   9  -1  17  -1  19  -1
M  END
>  <UniqueID>  (94) 
92

>  <SMILES>  (94) 
CSc1ccccc1[N-]C(=O)c1ccc(=O)[n-]c1[O-]

>  <Energy>  (94) 
34.511019498709516

>  <Genealogy>  (94) 
CSc1ccccc1[N-]C(=O)c1ccc(=O)[n-]c1[O-] (protonated)
CSc1ccccc1[N-]C(=O)c1ccc(=O)[n-]c1[O-] (3D coordinates assigned)
CSc1ccccc1[N-]C(=O)c1ccc(=O)[n-]c1[O-] (optimized conformer: 34.511019498709516 kcal/mol)

>  <smiles>  (94) 
CSc1ccccc1NC(=O)c1ccc(=O)[nH]c1O

>  <score_type>  (94) 
oracle

>  <origin>  (94) 
adg

>  <m_score__min__energy>  (94) 
-14.49

>  <m_primary>  (94) 
energy

$$$$
94:0
     RDKit          3D

 49 52  0  0  0  0  0  0  0  0999 V2000
   59.6480   28.2420   49.4820 C   0  0  0  0  0  0  0  0  0  0  0  0
   59.4880   29.1130   48.2670 C   0  0  0  0  0  0  0  0  0  0  0  0
   59.5150   28.6840   46.9440 C   0  0  0  0  0  0  0  0  0  0  0  0
   59.6610   27.3090   46.4270 C   0  0  0  0  0  0  0  0  0  0  0  0
   60.8220   26.8250   46.3240 O   0  0  0  0  0  0  0  0  0  0  0  0
   58.4940   26.4720   46.0660 C   0  0  0  0  0  0  0  0  0  0  0  0
   58.6680   25.1760   45.5450 C   0  0  0  0  0  0  0  0  0  0  0  0
   57.5590   24.3980   45.1980 C   0  0  0  0  0  0  0  0  0  0  0  0
   56.2690   24.9070   45.3560 C   0  0  0  0  0  0  0  0  0  0  0  0
   56.0840   26.2000   45.8560 C   0  0  0  0  0  0  0  0  0  0  0  0
   54.7990   26.7080   46.0080 O   0  0  0  0  0  0  0  0  0  0  0  0
   57.1900   26.9810   46.2040 C   0  0  0  0  0  0  0  0  0  0  0  0
   59.3770   29.8090   46.1550 C   0  0  0  0  0  0  0  0  0  0  0  0
   59.3070   30.8880   47.0170 C   0  0  0  0  0  0  0  0  0  0  0  0
   59.1860   32.3010   46.5850 C   0  0  0  0  0  0  0  0  0  0  0  0
   57.9740   32.7700   46.0470 C   0  0  0  0  0  0  0  0  0  0  0  0
   57.8530   34.1020   45.6350 C   0  0  0  0  0  0  0  0  0  0  0  0
   58.9350   34.9760   45.7670 C   0  0  0  0  0  0  0  0  0  0  0  0
   60.1380   34.5230   46.3140 C   0  0  0  0  0  0  0  0  0  0  0  0
   60.2620   33.1930   46.7270 C   0  0  0  0  0  0  0  0  0  0  0  0
   59.3740   30.4620   48.3010 N   0  0  0  0  0  0  0  0  0  0  0  0
   59.4710   31.2900   49.4720 C   0  0  0  0  0  0  0  0  0  0  0  0
   58.4090   31.3440   50.3850 C   0  0  0  0  0  0  0  0  0  0  0  0
   58.5130   32.1230   51.5410 C   0  0  0  0  0  0  0  0  0  0  0  0
   59.6800   32.8550   51.7940 C   0  0  0  0  0  0  0  0  0  0  0  0
   59.8190   33.8170   53.2610 S   0  0  0  0  0  0  0  0  0  0  0  0
   59.2520   32.8980   54.6100 N   0  0  0  0  0  0  0  0  0  0  0  0
   59.0000   35.0710   53.1280 O   0  0  0  0  0  0  0  0  0  0  0  0
   61.2530   34.2020   53.4860 O   0  0  0  0  0  0  0  0  0  0  0  0
   60.7490   32.7920   50.8880 C   0  0  0  0  0  0  0  0  0  0  0  0
   60.6450   32.0120   49.7330 C   0  0  0  0  0  0  0  0  0  0  0  0
   59.5356   28.8539   50.3892 H   0  0  0  0  0  0  0  0  0  0  0  0
   58.8794   27.4552   49.4729 H   0  0  0  0  0  0  0  0  0  0  0  0
   60.6461   27.7797   49.4729 H   0  0  0  0  0  0  0  0  0  0  0  0
   59.6825   24.7727   45.4100 H   0  0  0  0  0  0  0  0  0  0  0  0
   57.7036   23.3829   44.7997 H   0  0  0  0  0  0  0  0  0  0  0  0
   55.3980   24.2913   45.0873 H   0  0  0  0  0  0  0  0  0  0  0  0
   57.0395   28.0006   46.5884 H   0  0  0  0  0  0  0  0  0  0  0  0
   59.3317   29.8406   45.0564 H   0  0  0  0  0  0  0  0  0  0  0  0
   57.1174   32.0868   45.9496 H   0  0  0  0  0  0  0  0  0  0  0  0
   56.9054   34.4610   45.2070 H   0  0  0  0  0  0  0  0  0  0  0  0
   58.8395   36.0219   45.4399 H   0  0  0  0  0  0  0  0  0  0  0  0
   60.9881   35.2130   46.4198 H   0  0  0  0  0  0  0  0  0  0  0  0
   61.2080   32.8429   47.1658 H   0  0  0  0  0  0  0  0  0  0  0  0
   57.4901   30.7712   50.1911 H   0  0  0  0  0  0  0  0  0  0  0  0
   57.6761   32.1612   52.2539 H   0  0  0  0  0  0  0  0  0  0  0  0
   58.9240   33.5820   55.3280 H   0  0  0  0  0  0  0  0  0  0  0  0
   61.6711   33.3577   51.0870 H   0  0  0  0  0  0  0  0  0  0  0  0
   61.4866   31.9641   49.0263 H   0  0  0  0  0  0  0  0  0  0  0  0
  1  2  1  0
  2  3  2  0
  3  4  1  0
  4  5  2  0
  4  6  1  0
  6  7  2  0
  7  8  1  0
  8  9  2  0
  9 10  1  0
 10 11  1  0
 10 12  2  0
  3 13  1  0
 13 14  2  0
 14 15  1  0
 15 16  2  0
 16 17  1  0
 17 18  2  0
 18 19  1  0
 19 20  2  0
 14 21  1  0
 21 22  1  0
 22 23  2  0
 23 24  1  0
 24 25  2  0
 25 26  1  0
 26 27  1  0
 26 28  2  0
 26 29  2  0
 25 30  1  0
 30 31  2  0
 21  2  1  0
 31 22  1  0
 12  6  1  0
 20 15  1  0
  1 32  1  0
  1 33  1  0
  1 34  1  0
  7 35  1  0
  8 36  1  0
  9 37  1  0
 12 38  1  0
 13 39  1  0
 16 40  1  0
 17 41  1  0
 18 42  1  0
 19 43  1  0
 20 44  1  0
 23 45  1  0
 24 46  1  0
 27 47  1  0
 30 48  1  0
 31 49  1  0
M  CHG  2  11  -1  27  -1
M  END
>  <UniqueID>  (95) 
93

>  <SMILES>  (95) 
Cc1c(C(=O)c2cccc([O-])c2)cc(-c2ccccc2)n1-c1ccc(S([NH-])(=O)=O)cc1

>  <Energy>  (95) 
96.04200132808566

>  <Genealogy>  (95) 
Cc1c(C(=O)c2cccc([O-])c2)cc(-c2ccccc2)n1-c1ccc(S([NH-])(=O)=O)cc1 (protonated)
Cc1c(C(=O)c2cccc([O-])c2)cc(-c2ccccc2)n1-c1ccc(S([NH-])(=O)=O)cc1 (3D coordinates assigned)
Cc1c(C(=O)c2cccc([O-])c2)cc(-c2ccccc2)n1-c1ccc(S([NH-])(=O)=O)cc1 (optimized conformer: 96.04200132808566 kcal/mol)

>  <smiles>  (95) 
Cc1c(C(=O)c2cccc(O)c2)cc(-c2ccccc2)n1-c1ccc(S(N)(=O)=O)cc1

>  <score_type>  (95) 
oracle

>  <origin>  (95) 
adg

>  <m_score__min__energy>  (95) 
-12.93

>  <m_primary>  (95) 
energy

$$$$
95:0
     RDKit          3D

 46 48  0  0  0  0  0  0  0  0999 V2000
   64.8100   32.7140   51.0670 C   0  0  0  0  0  0  0  0  0  0  0  0
   63.7800   31.7310   50.5970 C   0  0  0  0  0  0  0  0  0  0  0  0
   63.2830   31.7850   49.2860 C   0  0  0  0  0  0  0  0  0  0  0  0
   62.3030   30.8830   48.8670 C   0  0  0  0  0  0  0  0  0  0  0  0
   61.7990   29.9250   49.7580 C   0  0  0  0  0  0  0  0  0  0  0  0
   60.5800   28.7720   49.2220 S   0  0  0  0  0  0  0  0  0  0  0  0
   60.9990   27.3720   49.5690 O   0  0  0  0  0  0  0  0  0  0  0  0
   59.2800   29.0790   49.9110 O   0  0  0  0  0  0  0  0  0  0  0  0
   60.3520   28.8780   47.5040 N   0  0  0  0  0  0  0  0  0  0  0  0
   59.0800   28.9360   46.8410 C   0  0  0  0  0  0  0  0  0  0  0  0
   58.6340   30.1010   46.1950 C   0  0  0  0  0  0  0  0  0  0  0  0
   57.3950   30.1250   45.5330 C   0  0  0  0  0  0  0  0  0  0  0  0
   56.9070   31.3040   44.8790 N   0  0  0  0  0  0  0  0  0  0  0  0
   57.6440   32.8780   44.9260 S   0  0  0  0  0  0  0  0  0  0  0  0
   56.5990   33.9560   44.9020 O   0  0  0  0  0  0  0  0  0  0  0  0
   58.4890   33.0180   43.6890 O   0  0  0  0  0  0  0  0  0  0  0  0
   58.6610   33.0600   46.3580 C   0  0  0  0  0  0  0  0  0  0  0  0
   58.1210   32.8620   47.6400 C   0  0  0  0  0  0  0  0  0  0  0  0
   58.9250   33.0270   48.7710 C   0  0  0  0  0  0  0  0  0  0  0  0
   60.2760   33.3690   48.6330 C   0  0  0  0  0  0  0  0  0  0  0  0
   60.8350   33.5650   47.3570 C   0  0  0  0  0  0  0  0  0  0  0  0
   62.2250   33.9110   47.2160 N   0  0  0  0  0  0  0  0  0  0  0  0
   62.8780   34.3550   48.1870 O   0  0  0  0  0  0  0  0  0  0  0  0
   62.8660   33.7510   46.0060 O   0  0  0  0  0  0  0  0  0  0  0  0
   60.0150   33.4150   46.2220 C   0  0  0  0  0  0  0  0  0  0  0  0
   56.6050   28.9690   45.5150 C   0  0  0  0  0  0  0  0  0  0  0  0
   55.3790   28.9690   44.8580 O   0  0  0  0  0  0  0  0  0  0  0  0
   57.0320   27.8120   46.1740 C   0  0  0  0  0  0  0  0  0  0  0  0
   58.2680   27.7940   46.8360 C   0  0  0  0  0  0  0  0  0  0  0  0
   58.6940   26.6380   47.4890 O   0  0  0  0  0  0  0  0  0  0  0  0
   62.2770   29.8830   51.0740 C   0  0  0  0  0  0  0  0  0  0  0  0
   63.2610   30.7820   51.4920 C   0  0  0  0  0  0  0  0  0  0  0  0
   64.8267   32.7299   52.1668 H   0  0  0  0  0  0  0  0  0  0  0  0
   65.7996   32.4169   50.6895 H   0  0  0  0  0  0  0  0  0  0  0  0
   64.5594   33.7164   50.6895 H   0  0  0  0  0  0  0  0  0  0  0  0
   63.6670   32.5411   48.5854 H   0  0  0  0  0  0  0  0  0  0  0  0
   61.9252   30.9241   47.8347 H   0  0  0  0  0  0  0  0  0  0  0  0
   59.2617   31.0043   46.2076 H   0  0  0  0  0  0  0  0  0  0  0  0
   57.0647   32.5769   47.7534 H   0  0  0  0  0  0  0  0  0  0  0  0
   58.4949   32.8877   49.7738 H   0  0  0  0  0  0  0  0  0  0  0  0
   60.9043   33.4852   49.5284 H   0  0  0  0  0  0  0  0  0  0  0  0
   60.4376   33.5771   45.2194 H   0  0  0  0  0  0  0  0  0  0  0  0
   56.3969   26.9139   46.1731 H   0  0  0  0  0  0  0  0  0  0  0  0
   59.4810   26.6470   48.1250 H   0  0  0  0  0  0  0  0  0  0  0  0
   61.8766   29.1404   51.7799 H   0  0  0  0  0  0  0  0  0  0  0  0
   63.6310   30.7462   52.5273 H   0  0  0  0  0  0  0  0  0  0  0  0
  1  2  1  0
  2  3  2  0
  3  4  1  0
  4  5  2  0
  5  6  1  0
  6  7  2  0
  6  8  2  0
  6  9  1  0
  9 10  1  0
 10 11  2  0
 11 12  1  0
 12 13  1  0
 13 14  1  0
 14 15  2  0
 14 16  2  0
 14 17  1  0
 17 18  2  0
 18 19  1  0
 19 20  2  0
 20 21  1  0
 21 22  1  0
 22 23  2  0
 22 24  1  0
 21 25  2  0
 12 26  2  0
 26 27  1  0
 26 28  1  0
 28 29  2  0
 29 30  1  0
  5 31  1  0
 31 32  2  0
 32  2  1  0
 29 10  1  0
 25 17  1  0
  1 33  1  0
  1 34  1  0
  1 35  1  0
  3 36  1  0
  4 37  1  0
 11 38  1  0
 18 39  1  0
 19 40  1  0
 20 41  1  0
 25 42  1  0
 28 43  1  0
 30 44  1  0
 31 45  1  0
 32 46  1  0
M  CHG  5   9  -1  13  -1  22   1  24  -1  27  -1
M  END
>  <UniqueID>  (96) 
94

>  <SMILES>  (96) 
Cc1ccc(S(=O)(=O)[N-]c2cc([N-]S(=O)(=O)c3cccc([N+](=O)[O-])c3)c([O-])cc2O)cc1

>  <Energy>  (96) 
55.97476679403366

>  <Genealogy>  (96) 
Cc1ccc(S(=O)(=O)[N-]c2cc([N-]S(=O)(=O)c3cccc([N+](=O)[O-])c3)c([O-])cc2O)cc1 (protonated)
Cc1ccc(S(=O)(=O)[N-]c2cc([N-]S(=O)(=O)c3cccc([N+](=O)[O-])c3)c([O-])cc2O)cc1 (3D coordinates assigned)
Cc1ccc(S(=O)(=O)[N-]c2cc([N-]S(=O)(=O)c3cccc([N+](=O)[O-])c3)c([O-])cc2O)cc1 (optimized conformer: 55.97476679403366 kcal/mol)

>  <smiles>  (96) 
Cc1ccc(S(=O)(=O)Nc2cc(NS(=O)(=O)c3cccc([N+](=O)[O-])c3)c(O)cc2O)cc1

>  <score_type>  (96) 
oracle

>  <origin>  (96) 
adg

>  <m_score__min__energy>  (96) 
-14.380000000000001

>  <m_primary>  (96) 
energy

$$$$
96:0
     RDKit          3D

 31 32  0  0  0  0  0  0  0  0999 V2000
   57.2330   25.2160   48.1380 O   0  0  0  0  0  0  0  0  0  0  0  0
   57.0700   24.9910   46.9100 C   0  0  0  0  0  0  0  0  0  0  0  0
   58.0710   25.4510   45.9900 N   0  0  0  0  0  0  0  0  0  0  0  0
   58.0790   26.7290   45.2820 C   0  0  0  0  0  0  0  0  0  0  0  0
   57.5010   27.8500   46.1520 C   0  0  0  0  0  0  0  0  0  0  0  0
   57.5120   29.1890   45.4560 C   0  0  0  0  0  0  0  0  0  0  0  0
   58.6980   29.9430   45.4050 C   0  0  0  0  0  0  0  0  0  0  0  0
   58.7280   31.1680   44.7340 C   0  0  0  0  0  0  0  0  0  0  0  0
   57.5720   31.6610   44.1240 C   0  0  0  0  0  0  0  0  0  0  0  0
   56.3850   30.9270   44.1770 C   0  0  0  0  0  0  0  0  0  0  0  0
   56.3510   29.6920   44.8340 C   0  0  0  0  0  0  0  0  0  0  0  0
   55.1620   28.9700   44.8590 O   0  0  0  0  0  0  0  0  0  0  0  0
   55.8620   24.2580   46.4690 C   0  0  0  0  0  0  0  0  0  0  0  0
   54.7480   24.9480   45.9470 C   0  0  0  0  0  0  0  0  0  0  0  0
   54.7810   26.3290   45.7860 O   0  0  0  0  0  0  0  0  0  0  0  0
   53.6030   24.2430   45.5630 C   0  0  0  0  0  0  0  0  0  0  0  0
   53.5700   22.8500   45.6540 C   0  0  0  0  0  0  0  0  0  0  0  0
   52.4280   22.1560   45.2740 O   0  0  0  0  0  0  0  0  0  0  0  0
   54.6900   22.1540   46.1140 C   0  0  0  0  0  0  0  0  0  0  0  0
   55.8390   22.8490   46.5050 C   0  0  0  0  0  0  0  0  0  0  0  0
   56.9510   22.1320   46.9320 O   0  0  0  0  0  0  0  0  0  0  0  0
   59.1147   26.9827   45.0119 H   0  0  0  0  0  0  0  0  0  0  0  0
   57.4551   26.6313   44.3813 H   0  0  0  0  0  0  0  0  0  0  0  0
   56.4624   27.5957   46.4102 H   0  0  0  0  0  0  0  0  0  0  0  0
   58.1327   27.9353   47.0485 H   0  0  0  0  0  0  0  0  0  0  0  0
   59.6072   29.5661   45.8962 H   0  0  0  0  0  0  0  0  0  0  0  0
   59.6632   31.7451   44.6859 H   0  0  0  0  0  0  0  0  0  0  0  0
   57.5967   32.6285   43.6013 H   0  0  0  0  0  0  0  0  0  0  0  0
   55.4747   31.3206   43.7012 H   0  0  0  0  0  0  0  0  0  0  0  0
   52.7245   24.7882   45.1876 H   0  0  0  0  0  0  0  0  0  0  0  0
   54.6684   21.0556   46.1690 H   0  0  0  0  0  0  0  0  0  0  0  0
  1  2  2  0
  2  3  1  0
  3  4  1  0
  4  5  1  0
  5  6  1  0
  6  7  2  0
  7  8  1  0
  8  9  2  0
  9 10  1  0
 10 11  2  0
 11 12  1  0
  2 13  1  0
 13 14  2  0
 14 15  1  0
 14 16  1  0
 16 17  2  0
 17 18  1  0
 17 19  1  0
 19 20  2  0
 20 21  1  0
 11  6  1  0
 20 13  1  0
  4 22  1  0
  4 23  1  0
  5 24  1  0
  5 25  1  0
  7 26  1  0
  8 27  1  0
  9 28  1  0
 10 29  1  0
 16 30  1  0
 19 31  1  0
M  CHG  5   3  -1  12  -1  15  -1  18  -1  21  -1
M  END
>  <UniqueID>  (97) 
95

>  <SMILES>  (97) 
O=C([N-]CCc1ccccc1[O-])c1c([O-])cc([O-])cc1[O-]

>  <Energy>  (97) 
34.794782333979114

>  <Genealogy>  (97) 
O=C([N-]CCc1ccccc1[O-])c1c([O-])cc([O-])cc1[O-] (protonated)
O=C([N-]CCc1ccccc1[O-])c1c([O-])cc([O-])cc1[O-] (3D coordinates assigned)
O=C([N-]CCc1ccccc1[O-])c1c([O-])cc([O-])cc1[O-] (optimized conformer: 34.794782333979114 kcal/mol)

>  <smiles>  (97) 
O=C(NCCc1ccccc1O)c1c(O)cc(O)cc1O

>  <score_type>  (97) 
oracle

>  <origin>  (97) 
adg

>  <m_score__min__energy>  (97) 
-18.760000000000002

>  <m_primary>  (97) 
energy

$$$$
