0:0
     RDKit          3D

 50 53  0  0  1  0  0  0  0  0999 V2000
   60.3010   26.3660   46.6570 C   0  0  0  0  0  0  0  0  0  0  0  0
   59.1400   26.5900   46.1230 C   0  0  0  0  0  0  0  0  0  0  0  0
   58.0910   25.7240   45.9340 C   0  0  0  0  0  0  0  0  0  0  0  0
   58.0200   24.4440   46.2430 C   0  0  0  0  0  0  0  0  0  0  0  0
   57.8680   23.3760   45.2770 C   0  0  0  0  0  0  0  0  0  0  0  0
   56.7990   23.0530   44.5010 N   0  0  0  0  0  0  0  0  0  0  0  0
   57.1090   21.9570   43.7840 C   0  0  0  0  0  0  0  0  0  0  0  0
   56.2930   21.4300   42.9700 O   0  0  0  0  0  0  0  0  0  0  0  0
   58.3740   21.5480   44.0780 N   0  0  0  0  0  0  0  0  0  0  0  0
   58.8450   22.4140   44.9930 C   0  0  0  0  0  0  0  0  0  0  0  0
   60.1310   22.3390   45.5610 O   0  0  0  0  0  0  0  0  0  0  0  0
   57.0170   26.3820   45.3310 C   0  0  0  0  0  0  0  0  0  0  0  0
   57.4560   27.6720   45.1650 C   0  0  0  0  0  0  0  0  0  0  0  0
   56.6880   28.7580   44.5870 C   0  0  0  0  0  0  0  0  0  0  0  0
   55.6240   29.0850   45.2050 O   0  0  0  0  0  0  0  0  0  0  0  0
   57.0270   29.4680   43.4150 N   0  0  0  0  0  0  0  0  0  0  0  0
   57.4780   30.6940   43.5470 C   0  0  0  0  0  0  0  0  0  0  0  0
   57.8320   31.3170   44.7430 C   0  0  0  0  0  0  0  0  0  0  0  0
   58.2470   32.5980   44.3620 C   0  0  0  0  0  0  0  0  0  0  0  0
   58.7010   33.6490   45.2090 C   0  0  0  0  0  0  0  0  0  0  0  0
   59.3380   34.8040   44.9750 C   0  0  0  0  0  0  0  0  0  0  0  0
   59.6530   35.6320   45.9730 C   0  0  0  0  0  0  0  0  0  0  0  0
   59.2910   35.2420   47.2600 C   0  0  0  0  0  0  0  0  0  0  0  0
   58.4540   33.6010   47.0340 S   0  0  0  0  0  0  0  0  0  0  0  0
   58.1250   32.6660   43.0360 N   0  0  0  0  0  0  0  0  0  0  0  0
   57.6690   31.5530   42.5130 N   0  0  0  0  0  0  0  0  0  0  0  0
   58.7300   27.8020   45.6390 N   0  0  0  0  0  0  0  0  0  0  0  0
   59.4920   29.0310   45.6070 C   0  0  0  0  0  0  0  0  0  0  0  0
   60.7730   28.9530   44.8270 C   0  0  0  0  0  0  0  0  0  0  0  0
   59.6550   29.6650   46.9770 C   0  0  0  0  0  0  0  0  0  0  0  0
   61.0375   27.1795   46.7333 H   0  0  0  0  0  0  0  0  0  0  0  0
   60.5489   25.3626   47.0335 H   0  0  0  0  0  0  0  0  0  0  0  0
   58.0803   24.1690   47.3064 H   0  0  0  0  0  0  0  0  0  0  0  0
   55.8970   23.5740   44.4710 H   0  0  0  0  0  0  0  0  0  0  0  0
   58.8480   20.7290   43.6590 H   0  0  0  0  0  0  0  0  0  0  0  0
   60.9580   22.1850   44.9870 H   0  0  0  0  0  0  0  0  0  0  0  0
   56.0396   25.9614   45.0520 H   0  0  0  0  0  0  0  0  0  0  0  0
   57.7937   30.8960   45.7585 H   0  0  0  0  0  0  0  0  0  0  0  0
   59.6059   35.0744   43.9430 H   0  0  0  0  0  0  0  0  0  0  0  0
   60.1761   36.5817   45.7871 H   0  0  0  0  0  0  0  0  0  0  0  0
   59.4629   35.7854   48.2008 H   0  0  0  0  0  0  0  0  0  0  0  0
   58.3660   33.5280   42.4650 H   0  0  0  0  0  0  0  0  0  0  0  0
   57.5080   31.4130   41.4950 H   0  0  0  0  0  0  0  0  0  0  0  0
   58.8692   29.7264   45.0251 H   0  0  0  0  0  0  0  0  0  0  0  0
   61.6234   28.9012   45.5228 H   0  0  0  0  0  0  0  0  0  0  0  0
   60.7623   28.0538   44.1934 H   0  0  0  0  0  0  0  0  0  0  0  0
   60.8715   29.8468   44.1934 H   0  0  0  0  0  0  0  0  0  0  0  0
   59.4614   28.9118   47.7550 H   0  0  0  0  0  0  0  0  0  0  0  0
   60.6807   30.0476   47.0843 H   0  0  0  0  0  0  0  0  0  0  0  0
   58.9410   30.4949   47.0843 H   0  0  0  0  0  0  0  0  0  0  0  0
  1  2  2  0
  2  3  1  0
  3  4  2  0
  4  5  1  0
  5  6  1  0
  6  7  1  0
  7  8  2  0
  7  9  1  0
  9 10  1  0
 10 11  1  0
  3 12  1  0
 12 13  2  0
 13 14  1  0
 14 15  2  0
 14 16  1  0
 16 17  2  0
 17 18  1  0
 18 19  2  0
 19 20  1  0
 20 21  2  0
 21 22  1  0
 22 23  2  0
 23 24  1  0
 19 25  1  0
 25 26  1  0
 13 27  1  0
 27 28  1  0
 28 29  1  0
 28 30  1  0
 27  2  1  0
 10  5  2  0
 26 17  1  0
 24 20  1  0
  1 31  1  0
  1 32  1  0
  4 33  1  0
  6 34  1  0
  9 35  1  0
 11 36  1  0
 12 37  1  0
 18 38  1  0
 21 39  1  0
 22 40  1  0
 23 41  1  0
 25 42  1  0
 26 43  1  0
 28 44  1  0
 29 45  1  0
 29 46  1  0
 29 47  1  0
 30 48  1  0
 30 49  1  0
 30 50  1  0
M  END
>  <smiles>  (1) 
C=c1c(=Cc2[nH]c(=O)[nH]c2O)cc(C(=O)N=c2cc(-c3cccs3)[nH][nH]2)n1C(C)C

>  <score_type>  (1) 
oracle

>  <origin>  (1) 
adg

>  <m_score__min__energy>  (1) 
-10

>  <m_primary>  (1) 
energy

$$$$
1:0
     RDKit          3D

 34 36  0  0  0  0  0  0  0  0999 V2000
   56.8360   22.6080   43.0280 C   0  0  0  0  0  0  0  0  0  0  0  0
   57.7050   21.8510   43.6970 C   0  0  0  0  0  0  0  0  0  0  0  0
   58.8220   22.4160   44.4780 C   0  0  0  0  0  0  0  0  0  0  0  0
   60.0010   22.2120   44.0880 O   0  0  0  0  0  0  0  0  0  0  0  0
   58.6080   23.1100   45.7150 N   0  0  0  0  0  0  0  0  0  0  0  0
   58.3990   24.3830   45.9270 C   0  0  0  0  0  0  0  0  0  0  0  0
   59.4890   25.1980   45.9050 N   0  0  0  0  0  0  0  0  0  0  0  0
   59.4260   26.5260   46.1730 C   0  0  0  0  0  0  0  0  0  0  0  0
   58.2040   27.1150   46.4890 C   0  0  0  0  0  0  0  0  0  0  0  0
   58.1080   28.8680   46.8470 S   0  0  0  0  0  0  0  0  0  0  0  0
   57.1800   29.2090   45.3570 C   0  0  0  0  0  0  0  0  0  0  0  0
   55.8530   29.0130   45.2460 N   0  0  0  0  0  0  0  0  0  0  0  0
   55.5200   29.3780   44.0210 N   0  0  0  0  0  0  0  0  0  0  0  0
   56.6570   29.7840   43.4320 C   0  0  0  0  0  0  0  0  0  0  0  0
   56.7070   30.2050   42.2470 O   0  0  0  0  0  0  0  0  0  0  0  0
   57.7360   29.6970   44.2310 N   0  0  0  0  0  0  0  0  0  0  0  0
   57.0530   26.3300   46.4980 C   0  0  0  0  0  0  0  0  0  0  0  0
   57.1190   24.9590   46.1960 C   0  0  0  0  0  0  0  0  0  0  0  0
   55.8310   24.2480   46.0280 C   0  0  0  0  0  0  0  0  0  0  0  0
   55.7980   22.8440   46.0860 C   0  0  0  0  0  0  0  0  0  0  0  0
   54.5960   22.1560   45.8970 C   0  0  0  0  0  0  0  0  0  0  0  0
   54.5740   20.8030   45.9720 F   0  0  0  0  0  0  0  0  0  0  0  0
   53.4200   22.8650   45.6250 C   0  0  0  0  0  0  0  0  0  0  0  0
   52.2240   22.1830   45.4380 O   0  0  0  0  0  0  0  0  0  0  0  0
   53.4490   24.2590   45.5380 C   0  0  0  0  0  0  0  0  0  0  0  0
   54.6490   24.9530   45.7300 C   0  0  0  0  0  0  0  0  0  0  0  0
   54.6580   26.3410   45.6340 O   0  0  0  0  0  0  0  0  0  0  0  0
   56.0198   22.1374   42.4603 H   0  0  0  0  0  0  0  0  0  0  0  0
   56.9349   23.7034   43.0435 H   0  0  0  0  0  0  0  0  0  0  0  0
   57.5844   20.7581   43.6656 H   0  0  0  0  0  0  0  0  0  0  0  0
   60.3396   27.1377   46.1408 H   0  0  0  0  0  0  0  0  0  0  0  0
   56.0834   26.7876   46.7438 H   0  0  0  0  0  0  0  0  0  0  0  0
   56.7239   22.2831   46.2813 H   0  0  0  0  0  0  0  0  0  0  0  0
   52.5248   24.8134   45.3177 H   0  0  0  0  0  0  0  0  0  0  0  0
  1  2  2  0
  2  3  1  0
  3  4  2  0
  3  5  1  0
  5  6  2  3
  6  7  1  0
  7  8  1  0
  8  9  2  0
  9 10  1  0
 10 11  1  0
 11 12  2  0
 12 13  1  0
 13 14  1  0
 14 15  2  0
 14 16  1  0
  9 17  1  0
 17 18  2  0
 18 19  1  0
 19 20  2  0
 20 21  1  0
 21 22  1  0
 21 23  2  0
 23 24  1  0
 23 25  1  0
 25 26  2  0
 26 27  1  0
 18  6  1  0
 26 19  1  0
 16 11  1  0
  1 28  1  0
  1 29  1  0
  2 30  1  0
  8 31  1  0
 17 32  1  0
 20 33  1  0
 25 34  1  0
M  CHG  5   7  -1  13  -1  16  -1  24  -1  27  -1
M  END
>  <UniqueID>  (2) 
1

>  <SMILES>  (2) 
C=CC(=O)N=c1[n-]cc(Sc2n[n-]c(=O)[n-]2)cc1-c1cc(F)c([O-])cc1[O-]

>  <Energy>  (2) 
87.05274159469116

>  <Genealogy>  (2) 
C=CC(=O)N=c1[n-]cc(Sc2n[n-]c(=O)[n-]2)cc1-c1cc(F)c([O-])cc1[O-] (protonated)
C=CC(=O)N=c1[n-]cc(Sc2n[n-]c(=O)[n-]2)cc1-c1cc(F)c([O-])cc1[O-] (3D coordinates assigned)
C=CC(=O)N=c1[n-]cc(Sc2n[n-]c(=O)[n-]2)cc1-c1cc(F)c([O-])cc1[O-] (optimized conformer: 87.05274159469116 kcal/mol)

>  <smiles>  (2) 
C=CC(=O)N=c1[nH]cc(Sc2n[nH]c(=O)[nH]2)cc1-c1cc(F)c(O)cc1O

>  <score_type>  (2) 
oracle

>  <origin>  (2) 
adg

>  <m_score__min__energy>  (2) 
-16.66

>  <m_primary>  (2) 
energy

$$$$
2:0
     RDKit          3D

 65 69  0  0  0  0  0  0  0  0999 V2000
   57.5689   32.4759   45.4239 H   0  0  0  0  0  0  0  0  0  0  0  0
   57.6770   31.3850   45.3330 C   0  0  0  0  0  0  0  0  0  0  0  0
   57.0056   30.8190   44.6706 H   0  0  0  0  0  0  0  0  0  0  0  0
   58.6290   30.7440   46.0310 C   0  0  0  0  0  0  0  0  0  0  0  0
   58.8820   29.3620   46.0140 C   0  0  0  0  0  0  0  0  0  0  0  0
   58.4050   28.3780   45.2270 C   0  0  0  0  0  0  0  0  0  0  0  0
   58.7039   28.3946   44.1685 H   0  0  0  0  0  0  0  0  0  0  0  0
   57.5170   27.2790   45.6570 C   0  0  0  0  0  0  0  0  0  0  0  0
   56.1190   27.4140   45.6250 C   0  0  0  0  0  0  0  0  0  0  0  0
   55.5280   28.6080   45.2240 O   0  0  0  0  0  0  0  0  0  0  0  0
   55.3300   26.3670   45.9820 N   0  0  0  0  0  0  0  0  0  0  0  0
   55.8680   25.1780   46.3550 C   0  0  0  0  0  0  0  0  0  0  0  0
   55.1180   24.2230   46.6860 O   0  0  0  0  0  0  0  0  0  0  0  0
   57.2170   25.0140   46.3680 N   0  0  0  0  0  0  0  0  0  0  0  0
   58.0500   26.0300   46.0190 C   0  0  0  0  0  0  0  0  0  0  0  0
   59.2950   25.8410   46.0300 O   0  0  0  0  0  0  0  0  0  0  0  0
   59.8100   29.1250   47.0090 C   0  0  0  0  0  0  0  0  0  0  0  0
   60.2075   28.1453   47.3125 H   0  0  0  0  0  0  0  0  0  0  0  0
   60.1440   30.3480   47.5500 C   0  0  0  0  0  0  0  0  0  0  0  0
   61.1460   30.5240   48.6300 C   0  0  0  0  0  0  0  0  0  0  0  0
   61.8710   31.5560   48.6180 O   0  0  0  0  0  0  0  0  0  0  0  0
   61.3090   29.5080   49.6620 N   0  0  0  0  0  0  0  0  0  0  0  0
   61.9800   28.8010   49.2770 H   0  0  0  0  0  0  0  0  0  0  0  0
   61.9620   30.0350   50.8880 C   0  0  0  0  0  0  0  0  0  0  0  0
   62.4019   29.1945   51.4448 H   0  0  0  0  0  0  0  0  0  0  0  0
   62.7331   30.7556   50.5779 H   0  0  0  0  0  0  0  0  0  0  0  0
   60.9690   30.7690   51.8020 C   0  0  0  0  0  0  0  0  0  0  0  0
   61.4745   31.0367   52.7415 H   0  0  0  0  0  0  0  0  0  0  0  0
   60.6169   31.6732   51.2839 H   0  0  0  0  0  0  0  0  0  0  0  0
   59.8090   29.9200   52.1050 N   0  0  0  0  0  0  0  0  0  0  0  0
   58.9110   30.2850   53.1780 C   0  0  0  0  0  0  0  0  0  0  0  0
   59.3990   30.9340   54.3270 C   0  0  0  0  0  0  0  0  0  0  0  0
   60.4708   31.1683   54.4068 H   0  0  0  0  0  0  0  0  0  0  0  0
   58.5360   31.2830   55.3660 C   0  0  0  0  0  0  0  0  0  0  0  0
   58.9306   31.7888   56.2596 H   0  0  0  0  0  0  0  0  0  0  0  0
   57.1750   30.9930   55.2760 C   0  0  0  0  0  0  0  0  0  0  0  0
   56.5028   31.2590   56.1051 H   0  0  0  0  0  0  0  0  0  0  0  0
   56.6580   30.3630   54.1320 C   0  0  0  0  0  0  0  0  0  0  0  0
   55.1930   30.0140   54.0640 C   0  0  0  0  0  0  0  0  0  0  0  0
   55.0340   28.6610   53.8180 F   0  0  0  0  0  0  0  0  0  0  0  0
   54.6000   30.7310   53.0400 F   0  0  0  0  0  0  0  0  0  0  0  0
   54.5530   30.3160   55.2550 F   0  0  0  0  0  0  0  0  0  0  0  0
   57.5370   29.9900   53.0990 C   0  0  0  0  0  0  0  0  0  0  0  0
   57.1453   29.4608   52.2178 H   0  0  0  0  0  0  0  0  0  0  0  0
   59.6680   28.6370   51.4040 C   0  0  0  0  0  0  0  0  0  0  0  0
   60.3495   27.9000   51.8539 H   0  0  0  0  0  0  0  0  0  0  0  0
   58.6281   28.2902   51.4946 H   0  0  0  0  0  0  0  0  0  0  0  0
   60.0130   28.8060   49.9170 C   0  0  0  0  0  0  0  0  0  0  0  0
   60.0666   27.8069   49.4600 H   0  0  0  0  0  0  0  0  0  0  0  0
   59.2230   29.4341   49.4796 H   0  0  0  0  0  0  0  0  0  0  0  0
   59.4340   31.3430   46.9550 N   0  0  0  0  0  0  0  0  0  0  0  0
   59.4240   32.7590   47.3720 C   0  0  0  0  0  0  0  0  0  0  0  0
   60.3971   33.2125   47.1325 H   0  0  0  0  0  0  0  0  0  0  0  0
   58.6171   33.2794   46.8352 H   0  0  0  0  0  0  0  0  0  0  0  0
   59.1740   32.8780   48.8560 C   0  0  0  0  0  0  0  0  0  0  0  0
   58.1440   32.1420   49.4690 C   0  0  0  0  0  0  0  0  0  0  0  0
   57.5291   31.4560   48.8679 H   0  0  0  0  0  0  0  0  0  0  0  0
   57.8980   32.2780   50.8380 C   0  0  0  0  0  0  0  0  0  0  0  0
   57.0835   31.7079   51.3088 H   0  0  0  0  0  0  0  0  0  0  0  0
   58.6840   33.1360   51.6090 C   0  0  0  0  0  0  0  0  0  0  0  0
   58.4902   33.2394   52.6868 H   0  0  0  0  0  0  0  0  0  0  0  0
   59.7190   33.8650   51.0110 C   0  0  0  0  0  0  0  0  0  0  0  0
   60.3431   34.5352   51.6203 H   0  0  0  0  0  0  0  0  0  0  0  0
   59.9590   33.7410   49.6400 C   0  0  0  0  0  0  0  0  0  0  0  0
   60.7670   34.3222   49.1716 H   0  0  0  0  0  0  0  0  0  0  0  0
  1  2  1  0
  2  3  1  0
  2  4  2  0
  4  5  1  0
  5  6  2  0
  6  7  1  0
  6  8  1  0
  8  9  2  0
  9 10  1  0
  9 11  1  0
 11 12  1  0
 12 13  2  0
 12 14  1  0
 14 15  1  0
 15 16  2  0
  5 17  1  0
 17 18  1  0
 17 19  2  0
 19 20  1  0
 20 21  2  0
 20 22  1  0
 22 23  1  0
 22 24  1  0
 24 25  1  0
 24 26  1  0
 24 27  1  0
 27 28  1  0
 27 29  1  0
 27 30  1  0
 30 31  1  0
 31 32  2  0
 32 33  1  0
 32 34  1  0
 34 35  1  0
 34 36  2  0
 36 37  1  0
 36 38  1  0
 38 39  1  0
 39 40  1  0
 39 41  1  0
 39 42  1  0
 38 43  2  0
 43 44  1  0
 30 45  1  0
 45 46  1  0
 45 47  1  0
 45 48  1  0
 48 49  1  0
 48 50  1  0
 19 51  1  0
 51 52  1  0
 52 53  1  0
 52 54  1  0
 52 55  1  0
 55 56  2  0
 56 57  1  0
 56 58  1  0
 58 59  1  0
 58 60  2  0
 60 61  1  0
 60 62  1  0
 62 63  1  0
 62 64  2  0
 64 65  1  0
 51  4  1  0
 64 55  1  0
 15  8  1  0
 48 22  1  0
 43 31  1  0
M  CHG  4  10  -1  11  -1  14  -1  22   1
M  END
>  <UniqueID>  (3) 
2

>  <SMILES>  (3) 
C=c1/c(=C\c2c([O-])[n-]c(=O)[n-]c2=O)cc(C(=O)[NH+]2CCN(c3cccc(C(F)(F)F)c3)CC2)n1Cc1ccccc1

>  <Energy>  (3) 
130.4078658198042

>  <Genealogy>  (3) 
C=c1c(=Cc2c([O-])[n-]c(=O)[n-]c2=O)cc(C(=O)[NH+]2CCN(c3cccc(C(F)(F)F)c3)CC2)n1Cc1ccccc1 (protonated)
C=c1/c(=C\c2c([O-])[n-]c(=O)[n-]c2=O)cc(C(=O)[NH+]2CCN(c3cccc(C(F)(F)F)c3)CC2)n1Cc1ccccc1 (cis-trans isomerization)
C=c1/c(=C\c2c([O-])[n-]c(=O)[n-]c2=O)cc(C(=O)[NH+]2CCN(c3cccc(C(F)(F)F)c3)CC2)n1Cc1ccccc1 (3D coordinates assigned)
C=c1/c(=C\c2c([O-])[n-]c(=O)[n-]c2=O)cc(C(=O)[NH+]2CCN(c3cccc(C(F)(F)F)c3)CC2)n1Cc1ccccc1 (nonaromatic ring conformer: 130.4078658198042 kcal/mol)

>  <smiles>  (3) 
C=c1c(=Cc2c(O)[nH]c(=O)[nH]c2=O)cc(C(=O)N2CCN(c3cccc(C(F)(F)F)c3)CC2)n1Cc1ccccc1

>  <score_type>  (3) 
oracle

>  <origin>  (3) 
adg

>  <m_score__min__energy>  (3) 
-15.68

>  <m_primary>  (3) 
energy

$$$$
3:0
     RDKit          3D

 76 81  0  0  0  0  0  0  0  0999 V2000
   59.3884   35.6199   44.9265 H   0  0  0  0  0  0  0  0  0  0  0  0
   59.6040   34.9450   45.7680 C   0  0  0  0  0  0  0  0  0  0  0  0
   60.8070   34.9250   46.4020 N   0  0  0  0  0  0  0  0  0  0  0  0
   60.8410   34.0090   47.3970 C   0  0  0  0  0  0  0  0  0  0  0  0
   61.9080   33.8230   48.1210 N   0  0  0  0  0  0  0  0  0  0  0  0
   62.3240   32.6420   48.8350 C   0  0  0  0  0  0  0  0  0  0  0  0
   63.2660   32.7410   49.6650 O   0  0  0  0  0  0  0  0  0  0  0  0
   61.6970   31.3230   48.6530 C   0  0  0  0  0  0  0  0  0  0  0  0
   61.5760   30.5620   47.1600 S   0  0  0  0  0  0  0  0  0  0  0  0
   60.7730   29.2340   47.7960 C   0  0  0  0  0  0  0  0  0  0  0  0
   60.3450   28.2440   47.0670 N   0  0  0  0  0  0  0  0  0  0  0  0
   58.9860   27.9010   46.7490 C   0  0  0  0  0  0  0  0  0  0  0  0
   58.0990   28.8060   46.1420 C   0  0  0  0  0  0  0  0  0  0  0  0
   58.4166   29.8425   45.9556 H   0  0  0  0  0  0  0  0  0  0  0  0
   56.8150   28.3950   45.7740 C   0  0  0  0  0  0  0  0  0  0  0  0
   56.1215   29.1119   45.3101 H   0  0  0  0  0  0  0  0  0  0  0  0
   56.4090   27.0740   45.9940 C   0  0  0  0  0  0  0  0  0  0  0  0
   55.1220   26.6890   45.6370 O   0  0  0  0  0  0  0  0  0  0  0  0
   57.2960   26.1500   46.5700 C   0  0  0  0  0  0  0  0  0  0  0  0
   56.7990   24.4760   46.8420 S   0  0  0  0  0  0  0  0  0  0  0  0
   55.3010   24.3630   46.7650 O   0  0  0  0  0  0  0  0  0  0  0  0
   57.2410   24.0570   48.2180 O   0  0  0  0  0  0  0  0  0  0  0  0
   57.5370   23.4470   45.6390 N   0  0  0  0  0  0  0  0  0  0  0  0
   56.7900   22.1720   45.5370 C   0  0  0  0  0  0  0  0  0  0  0  0
   57.0847   21.5172   46.3703 H   0  0  0  0  0  0  0  0  0  0  0  0
   55.7142   22.3976   45.5784 H   0  0  0  0  0  0  0  0  0  0  0  0
   57.0810   21.4560   44.2140 C   0  0  0  0  0  0  0  0  0  0  0  0
   58.1636   21.2800   44.1303 H   0  0  0  0  0  0  0  0  0  0  0  0
   56.5346   20.5014   44.2035 H   0  0  0  0  0  0  0  0  0  0  0  0
   56.6130   22.3050   43.0140 C   0  0  0  0  0  0  0  0  0  0  0  0
   57.2883   22.1194   42.1658 H   0  0  0  0  0  0  0  0  0  0  0  0
   55.5792   22.0112   42.7797 H   0  0  0  0  0  0  0  0  0  0  0  0
   56.6120   23.8160   43.3240 C   0  0  0  0  0  0  0  0  0  0  0  0
   56.7995   24.3735   42.3945 H   0  0  0  0  0  0  0  0  0  0  0  0
   55.6324   24.0854   43.7456 H   0  0  0  0  0  0  0  0  0  0  0  0
   57.6990   24.1710   44.3500 C   0  0  0  0  0  0  0  0  0  0  0  0
   58.6804   23.9147   43.9244 H   0  0  0  0  0  0  0  0  0  0  0  0
   57.6133   25.2468   44.5627 H   0  0  0  0  0  0  0  0  0  0  0  0
   58.5800   26.5740   46.9410 C   0  0  0  0  0  0  0  0  0  0  0  0
   59.2795   25.8534   47.3898 H   0  0  0  0  0  0  0  0  0  0  0  0
   60.6240   29.3190   49.1340 N   0  0  0  0  0  0  0  0  0  0  0  0
   61.1550   30.4710   49.6320 C   0  0  0  0  0  0  0  0  0  0  0  0
   61.0840   30.7490   51.1150 C   0  0  0  0  0  0  0  0  0  0  0  0
   62.0376   31.1993   51.4280 H   0  0  0  0  0  0  0  0  0  0  0  0
   60.8861   29.7862   51.6088 H   0  0  0  0  0  0  0  0  0  0  0  0
   59.9610   31.6850   51.5170 C   0  0  0  0  0  0  0  0  0  0  0  0
   60.2200   33.0660   51.6090 C   0  0  0  0  0  0  0  0  0  0  0  0
   61.2253   33.4488   51.3794 H   0  0  0  0  0  0  0  0  0  0  0  0
   59.2120   33.9530   51.9890 C   0  0  0  0  0  0  0  0  0  0  0  0
   59.4308   35.0277   52.0734 H   0  0  0  0  0  0  0  0  0  0  0  0
   57.9290   33.4820   52.2620 C   0  0  0  0  0  0  0  0  0  0  0  0
   57.1370   34.1851   52.5594 H   0  0  0  0  0  0  0  0  0  0  0  0
   57.6480   32.1160   52.1580 C   0  0  0  0  0  0  0  0  0  0  0  0
   56.6329   31.7495   52.3707 H   0  0  0  0  0  0  0  0  0  0  0  0
   58.6580   31.2040   51.7820 C   0  0  0  0  0  0  0  0  0  0  0  0
   58.4060   29.8220   51.6690 O   0  0  0  0  0  0  0  0  0  0  0  0
   58.6260   28.8740   52.7050 C   0  0  0  0  0  0  0  0  0  0  0  0
   58.5119   29.3658   53.6823 H   0  0  0  0  0  0  0  0  0  0  0  0
   57.8933   28.0583   52.6172 H   0  0  0  0  0  0  0  0  0  0  0  0
   59.6431   28.4643   52.6172 H   0  0  0  0  0  0  0  0  0  0  0  0
   59.3830   33.1580   47.5070 S   0  0  0  0  0  0  0  0  0  0  0  0
   58.6650   34.0430   46.2680 C   0  0  0  0  0  0  0  0  0  0  0  0
   57.2850   33.8210   45.7290 C   0  0  0  0  0  0  0  0  0  0  0  0
   56.6376   33.4446   46.5347 H   0  0  0  0  0  0  0  0  0  0  0  0
   56.8948   34.7749   45.3445 H   0  0  0  0  0  0  0  0  0  0  0  0
   57.3140   32.8190   44.6080 C   0  0  0  0  0  0  0  0  0  0  0  0
   58.0290   33.0890   43.4300 C   0  0  0  0  0  0  0  0  0  0  0  0
   58.5877   34.0316   43.3334 H   0  0  0  0  0  0  0  0  0  0  0  0
   58.0350   32.1640   42.3760 C   0  0  0  0  0  0  0  0  0  0  0  0
   58.5934   32.3836   41.4540 H   0  0  0  0  0  0  0  0  0  0  0  0
   57.3310   30.9630   42.4980 C   0  0  0  0  0  0  0  0  0  0  0  0
   57.3433   30.2324   41.6758 H   0  0  0  0  0  0  0  0  0  0  0  0
   56.6110   30.6900   43.6650 C   0  0  0  0  0  0  0  0  0  0  0  0
   56.0560   29.7450   43.7591 H   0  0  0  0  0  0  0  0  0  0  0  0
   56.5950   31.6170   44.7140 C   0  0  0  0  0  0  0  0  0  0  0  0
   56.0169   31.4031   45.6251 H   0  0  0  0  0  0  0  0  0  0  0  0
  1  2  1  0
  2  3  1  0
  3  4  1  0
  4  5  2  3
  5  6  1  0
  6  7  2  0
  6  8  1  0
  8  9  1  0
  9 10  1  0
 10 11  2  0
 11 12  1  0
 12 13  2  0
 13 14  1  0
 13 15  1  0
 15 16  1  0
 15 17  2  0
 17 18  1  0
 17 19  1  0
 19 20  1  0
 20 21  2  0
 20 22  2  0
 20 23  1  0
 23 24  1  0
 24 25  1  0
 24 26  1  0
 24 27  1  0
 27 28  1  0
 27 29  1  0
 27 30  1  0
 30 31  1  0
 30 32  1  0
 30 33  1  0
 33 34  1  0
 33 35  1  0
 33 36  1  0
 36 37  1  0
 36 38  1  0
 19 39  2  0
 39 40  1  0
 10 41  1  0
 41 42  1  0
 42 43  1  0
 43 44  1  0
 43 45  1  0
 43 46  1  0
 46 47  2  0
 47 48  1  0
 47 49  1  0
 49 50  1  0
 49 51  2  0
 51 52  1  0
 51 53  1  0
 53 54  1  0
 53 55  2  0
 55 56  1  0
 56 57  1  0
 57 58  1  0
 57 59  1  0
 57 60  1  0
  4 61  1  0
 61 62  1  0
 62 63  1  0
 63 64  1  0
 63 65  1  0
 63 66  1  0
 66 67  2  0
 67 68  1  0
 67 69  1  0
 69 70  1  0
 69 71  2  0
 71 72  1  0
 71 73  1  0
 73 74  1  0
 73 75  2  0
 75 76  1  0
 62  2  2  0
 75 66  1  0
 42  8  2  0
 55 46  1  0
 39 12  1  0
 36 23  1  0
M  CHG  3   3  -1  18  -1  41  -1
M  END
>  <UniqueID>  (4) 
3

>  <SMILES>  (4) 
COc1ccccc1Cc1[n-]/c(=N\c2ccc([O-])c(S(=O)(=O)N3CCCCC3)c2)sc1C(=O)N=c1[n-]cc(Cc2ccccc2)s1

>  <Energy>  (4) 
163.0025805913866

>  <Genealogy>  (4) 
COc1ccccc1Cc1[n-]c(=Nc2ccc([O-])c(S(=O)(=O)N3CCCCC3)c2)sc1C(=O)N=c1[n-]cc(Cc2ccccc2)s1 (protonated)
COc1ccccc1Cc1[n-]/c(=N\c2ccc([O-])c(S(=O)(=O)N3CCCCC3)c2)sc1C(=O)N=c1[n-]cc(Cc2ccccc2)s1 (cis-trans isomerization)
COc1ccccc1Cc1[n-]/c(=N\c2ccc([O-])c(S(=O)(=O)N3CCCCC3)c2)sc1C(=O)N=c1[n-]cc(Cc2ccccc2)s1 (3D coordinates assigned)
COc1ccccc1Cc1[n-]/c(=N\c2ccc([O-])c(S(=O)(=O)N3CCCCC3)c2)sc1C(=O)N=c1[n-]cc(Cc2ccccc2)s1 (nonaromatic ring conformer: 163.0025805913866 kcal/mol)

>  <smiles>  (4) 
COc1ccccc1Cc1[nH]c(=Nc2ccc(O)c(S(=O)(=O)N3CCCCC3)c2)sc1C(=O)N=c1[nH]cc(Cc2ccccc2)s1

>  <score_type>  (4) 
oracle

>  <origin>  (4) 
adg

>  <m_score__min__energy>  (4) 
-16.350000000000001

>  <m_primary>  (4) 
energy

$$$$
4:0
     RDKit          3D

 44 48  0  0  1  0  0  0  0  0999 V2000
   55.0630   29.7100   43.3880 N   0  0  0  0  0  0  0  0  0  0  0  0
   56.2410   29.9010   43.9190 C   0  0  0  0  0  0  0  0  0  0  0  0
   56.9200   28.8780   44.4790 N   0  0  0  0  0  0  0  0  0  0  0  0
   58.1330   29.0730   45.0250 C   0  0  0  0  0  0  0  0  0  0  0  0
   58.9350   27.9920   45.6560 C   0  0  1  0  0  0  0  0  0  0  0  0
   60.3960   28.1250   45.6320 C   0  0  0  0  0  0  0  0  0  0  0  0
   59.6150   28.1310   46.9420 C   0  0  1  0  0  0  0  0  0  0  0  0
   59.7850   29.3660   47.7060 C   0  0  0  0  0  0  0  0  0  0  0  0
   59.0250   29.7690   48.7740 C   0  0  0  0  0  0  0  0  0  0  0  0
   59.2340   30.9660   49.4460 C   0  0  0  0  0  0  0  0  0  0  0  0
   60.2410   31.7790   49.0250 N   0  0  0  0  0  0  0  0  0  0  0  0
   61.0250   31.4250   47.9670 C   0  0  0  0  0  0  0  0  0  0  0  0
   62.1150   32.2910   47.5030 C   0  0  0  0  0  0  0  0  0  0  0  0
   62.0070   33.4900   46.8270 C   0  0  0  0  0  0  0  0  0  0  0  0
   63.2670   33.9030   46.6210 N   0  0  0  0  0  0  0  0  0  0  0  0
   64.1420   33.0370   47.1280 N   0  0  0  0  0  0  0  0  0  0  0  0
   63.4560   32.0180   47.6850 C   0  0  0  0  0  0  0  0  0  0  0  0
   60.8060   30.2320   47.3110 C   0  0  0  0  0  0  0  0  0  0  0  0
   58.6420   30.3550   44.9880 C   0  0  0  0  0  0  0  0  0  0  0  0
   57.9380   31.3950   44.4140 C   0  0  0  0  0  0  0  0  0  0  0  0
   58.4440   32.5750   44.3970 N   0  0  0  0  0  0  0  0  0  0  0  0
   57.9010   33.6610   45.2200 C   0  0  0  0  0  0  0  0  0  0  0  0
   58.8410   34.4450   46.0740 C   0  0  0  0  0  0  0  0  0  0  0  0
   58.0590   33.4020   46.7420 C   0  0  0  0  0  0  0  0  0  0  0  0
   56.7190   31.1600   43.8710 N   0  0  0  0  0  0  0  0  0  0  0  0
   55.0700   29.1270   42.5160 H   0  0  0  0  0  0  0  0  0  0  0  0
   56.4990   27.9460   44.4820 H   0  0  0  0  0  0  0  0  0  0  0  0
   58.1948   27.2587   45.3032 H   0  0  0  0  0  0  0  0  0  0  0  0
   61.0267   27.2637   45.3666 H   0  0  0  0  0  0  0  0  0  0  0  0
   61.1172   28.7962   45.1427 H   0  0  0  0  0  0  0  0  0  0  0  0
   59.4901   27.5599   47.8738 H   0  0  0  0  0  0  0  0  0  0  0  0
   58.2108   29.1125   49.1147 H   0  0  0  0  0  0  0  0  0  0  0  0
   58.6003   31.2506   50.2989 H   0  0  0  0  0  0  0  0  0  0  0  0
   61.0816   34.0000   46.5212 H   0  0  0  0  0  0  0  0  0  0  0  0
   65.1830   33.1110   47.1080 H   0  0  0  0  0  0  0  0  0  0  0  0
   63.8832   31.1379   48.1880 H   0  0  0  0  0  0  0  0  0  0  0  0
   61.4477   29.9577   46.4607 H   0  0  0  0  0  0  0  0  0  0  0  0
   59.6315   30.5531   45.4259 H   0  0  0  0  0  0  0  0  0  0  0  0
   57.1093   33.9355   44.5073 H   0  0  0  0  0  0  0  0  0  0  0  0
   59.9255   34.3107   45.9484 H   0  0  0  0  0  0  0  0  0  0  0  0
   58.9816   35.5206   46.2562 H   0  0  0  0  0  0  0  0  0  0  0  0
   58.5516   32.4851   47.0978 H   0  0  0  0  0  0  0  0  0  0  0  0
   57.3772   33.3668   47.6045 H   0  0  0  0  0  0  0  0  0  0  0  0
   56.1950   31.9480   43.4410 H   0  0  0  0  0  0  0  0  0  0  0  0
  1  2  2  3
  2  3  1  0
  3  4  1  0
  4  5  1  0
  5  6  1  0
  6  7  1  0
  7  8  1  0
  8  9  2  0
  9 10  1  0
 10 11  2  0
 11 12  1  0
 12 13  1  0
 13 14  1  0
 14 15  2  0
 15 16  1  0
 16 17  1  0
 12 18  2  0
  4 19  2  0
 19 20  1  0
 20 21  2  0
 21 22  1  0
 22 23  1  0
 23 24  1  0
 20 25  1  0
 25  2  1  0
  7  5  1  0
 18  8  1  0
 24 22  1  0
 17 13  2  0
  1 26  1  0
  3 27  1  0
  5 28  1  1
  6 29  1  0
  6 30  1  0
  7 31  1  1
  9 32  1  0
 10 33  1  0
 14 34  1  0
 16 35  1  0
 17 36  1  0
 18 37  1  0
 19 38  1  0
 22 39  1  0
 23 40  1  0
 23 41  1  0
 24 42  1  0
 24 43  1  0
 25 44  1  0
M  END
>  <smiles>  (5) 
N=c1[nH]c(C2CC2c2ccnc(-c3cn[nH]c3)c2)cc(=NC2CC2)[nH]1

>  <score_type>  (5) 
oracle

>  <origin>  (5) 
adg

>  <m_score__min__energy>  (5) 
-9.0299999999999994

>  <m_primary>  (5) 
energy

$$$$
5:0
     RDKit          3D

 39 42  0  0  0  0  0  0  0  0999 V2000
   60.3464   29.3309   47.7458 H   0  0  0  0  0  0  0  0  0  0  0  0
   59.8620   28.4090   48.1000 C   0  0  0  0  0  0  0  0  0  0  0  0
   60.0770   28.0274   49.1091 H   0  0  0  0  0  0  0  0  0  0  0  0
   59.0130   27.7530   47.3050 C   0  0  0  0  0  0  0  0  0  0  0  0
   58.6380   28.0830   45.9970 C   0  0  0  0  0  0  0  0  0  0  0  0
   59.0430   29.1370   45.2650 C   0  0  0  0  0  0  0  0  0  0  0  0
   59.9622   29.0339   44.6697 H   0  0  0  0  0  0  0  0  0  0  0  0
   58.3220   30.4230   45.2170 C   0  0  0  0  0  0  0  0  0  0  0  0
   57.0240   30.6520   44.7540 C   0  0  0  0  0  0  0  0  0  0  0  0
   56.1360   29.6670   44.1160 C   0  0  0  0  0  0  0  0  0  0  0  0
   56.2520   29.3860   42.8960 O   0  0  0  0  0  0  0  0  0  0  0  0
   55.1480   29.0420   44.8680 O   0  0  0  0  0  0  0  0  0  0  0  0
   56.6520   31.9410   44.9500 N   0  0  0  0  0  0  0  0  0  0  0  0
   57.7090   32.5170   45.5530 C   0  0  0  0  0  0  0  0  0  0  0  0
   57.8000   33.8390   45.9820 C   0  0  0  0  0  0  0  0  0  0  0  0
   56.9733   34.5458   45.8177 H   0  0  0  0  0  0  0  0  0  0  0  0
   58.9810   34.2440   46.6320 C   0  0  0  0  0  0  0  0  0  0  0  0
   59.0867   35.2834   46.9761 H   0  0  0  0  0  0  0  0  0  0  0  0
   60.0310   33.3240   46.8450 C   0  0  0  0  0  0  0  0  0  0  0  0
   61.4900   33.8380   47.6720 Cl  0  0  0  0  0  0  0  0  0  0  0  0
   59.9100   31.9930   46.4050 C   0  0  0  0  0  0  0  0  0  0  0  0
   60.7150   31.2633   46.5765 H   0  0  0  0  0  0  0  0  0  0  0  0
   58.7360   31.6280   45.7440 C   0  0  0  0  0  0  0  0  0  0  0  0
   57.7380   27.0790   45.6540 C   0  0  0  0  0  0  0  0  0  0  0  0
   57.0910   26.9870   44.5770 O   0  0  0  0  0  0  0  0  0  0  0  0
   57.6180   26.2120   46.6740 N   0  0  0  0  0  0  0  0  0  0  0  0
   56.6500   24.7760   46.6910 S   0  0  0  0  0  0  0  0  0  0  0  0
   55.2370   25.1320   46.3260 O   0  0  0  0  0  0  0  0  0  0  0  0
   56.6710   24.1600   48.0610 O   0  0  0  0  0  0  0  0  0  0  0  0
   57.2980   23.6270   45.5370 C   0  0  0  0  0  0  0  0  0  0  0  0
   58.8710   23.0420   45.5300 S   0  0  0  0  0  0  0  0  0  0  0  0
   58.6770   22.0370   44.1940 C   0  0  0  0  0  0  0  0  0  0  0  0
   59.4543   21.3958   43.7528 H   0  0  0  0  0  0  0  0  0  0  0  0
   57.3680   22.1550   43.7430 C   0  0  0  0  0  0  0  0  0  0  0  0
   56.9783   21.6014   42.8760 H   0  0  0  0  0  0  0  0  0  0  0  0
   56.5920   23.0440   44.4950 C   0  0  0  0  0  0  0  0  0  0  0  0
   55.5342   23.2579   44.2824 H   0  0  0  0  0  0  0  0  0  0  0  0
   58.3830   26.6160   47.6740 N   0  0  0  0  0  0  0  0  0  0  0  0
   58.4750   26.1210   48.5900 H   0  0  0  0  0  0  0  0  0  0  0  0
  1  2  1  0
  2  3  1  0
  2  4  2  0
  4  5  1  0
  5  6  2  0
  6  7  1  0
  6  8  1  0
  8  9  2  0
  9 10  1  0
 10 11  2  0
 10 12  1  0
  9 13  1  0
 13 14  1  0
 14 15  2  0
 15 16  1  0
 15 17  1  0
 17 18  1  0
 17 19  2  0
 19 20  1  0
 19 21  1  0
 21 22  1  0
 21 23  2  0
  5 24  1  0
 24 25  2  0
 24 26  1  0
 26 27  1  0
 27 28  2  0
 27 29  2  0
 27 30  1  0
 30 31  1  0
 31 32  1  0
 32 33  1  0
 32 34  2  0
 34 35  1  0
 34 36  1  0
 36 37  1  0
 26 38  1  0
 38 39  1  0
 38  4  1  0
 23  8  1  0
 36 30  2  0
 23 14  1  0
M  CHG  2  12  -1  13  -1
M  END
>  <UniqueID>  (6) 
4

>  <SMILES>  (6) 
C=c1[nH]n(S(=O)(=O)c2cccs2)c(=O)/c1=C\c1c(C(=O)[O-])[n-]c2ccc(Cl)cc12

>  <Energy>  (6) 
144.39676527125587

>  <Genealogy>  (6) 
C=c1[nH]n(S(=O)(=O)c2cccs2)c(=O)c1=Cc1c(C(=O)[O-])[n-]c2ccc(Cl)cc12 (protonated)
C=c1[nH]n(S(=O)(=O)c2cccs2)c(=O)/c1=C\c1c(C(=O)[O-])[n-]c2ccc(Cl)cc12 (cis-trans isomerization)
C=c1[nH]n(S(=O)(=O)c2cccs2)c(=O)/c1=C\c1c(C(=O)[O-])[n-]c2ccc(Cl)cc12 (3D coordinates assigned)
C=c1[nH]n(S(=O)(=O)c2cccs2)c(=O)/c1=C\c1c(C(=O)[O-])[n-]c2ccc(Cl)cc12 (optimized conformer: 144.39676527125587 kcal/mol)

>  <smiles>  (6) 
C=c1[nH]n(S(=O)(=O)c2cccs2)c(=O)c1=Cc1c(C(=O)O)[nH]c2ccc(Cl)cc12

>  <score_type>  (6) 
oracle

>  <origin>  (6) 
adg

>  <m_score__min__energy>  (6) 
-13.01

>  <m_primary>  (6) 
energy

$$$$
6:0
     RDKit          3D

 41 44  0  0  0  0  0  0  0  0999 V2000
   58.9140   32.4400   48.2420 H   0  0  0  0  0  0  0  0  0  0  0  0
   58.5000   32.1550   49.1510 N   0  0  0  0  0  0  0  0  0  0  0  0
   58.6170   30.9870   49.7000 C   0  0  0  0  0  0  0  0  0  0  0  0
   57.7530   30.5280   50.6190 N   0  0  0  0  0  0  0  0  0  0  0  0
   58.1820   29.3380   50.9400 O   0  0  0  0  0  0  0  0  0  0  0  0
   59.2630   28.9760   50.3050 N   0  0  0  0  0  0  0  0  0  0  0  0
   59.5770   30.0040   49.4990 C   0  0  0  0  0  0  0  0  0  0  0  0
   60.6160   29.9770   48.7120 N   0  0  0  0  0  0  0  0  0  0  0  0
   60.6550   29.6940   47.2800 C   0  0  0  0  0  0  0  0  0  0  0  0
   60.8687   30.6295   46.7423 H   0  0  0  0  0  0  0  0  0  0  0  0
   61.4378   28.9397   47.1121 H   0  0  0  0  0  0  0  0  0  0  0  0
   59.3440   29.1200   46.7570 C   0  0  0  0  0  0  0  0  0  0  0  0
   59.0280   27.7690   47.0180 C   0  0  0  0  0  0  0  0  0  0  0  0
   59.7120   27.1702   47.6373 H   0  0  0  0  0  0  0  0  0  0  0  0
   57.8690   27.1700   46.5110 C   0  0  0  0  0  0  0  0  0  0  0  0
   57.5660   25.7430   46.7900 C   0  0  0  0  0  0  0  0  0  0  0  0
   57.7990   25.2790   47.9400 O   0  0  0  0  0  0  0  0  0  0  0  0
   57.0210   24.8330   45.7560 C   0  0  0  0  0  0  0  0  0  0  0  0
   57.8650   23.8760   45.1670 C   0  0  0  0  0  0  0  0  0  0  0  0
   58.9167   23.8080   45.4820 H   0  0  0  0  0  0  0  0  0  0  0  0
   57.3780   23.0100   44.1840 C   0  0  0  0  0  0  0  0  0  0  0  0
   58.0494   22.2701   43.7237 H   0  0  0  0  0  0  0  0  0  0  0  0
   56.0410   23.0810   43.7840 C   0  0  0  0  0  0  0  0  0  0  0  0
   55.5710   22.2160   42.7990 O   0  0  0  0  0  0  0  0  0  0  0  0
   55.8500   22.3150   41.8290 H   0  0  0  0  0  0  0  0  0  0  0  0
   55.1860   24.0180   44.3780 C   0  0  0  0  0  0  0  0  0  0  0  0
   54.1328   24.0733   44.0654 H   0  0  0  0  0  0  0  0  0  0  0  0
   55.6650   24.8840   45.3670 C   0  0  0  0  0  0  0  0  0  0  0  0
   54.7830   25.7750   45.9700 O   0  0  0  0  0  0  0  0  0  0  0  0
   56.9790   27.9380   45.7590 C   0  0  0  0  0  0  0  0  0  0  0  0
   56.0651   27.4726   45.3613 H   0  0  0  0  0  0  0  0  0  0  0  0
   57.2310   29.2940   45.5020 C   0  0  0  0  0  0  0  0  0  0  0  0
   56.3060   30.0400   44.7430 C   0  0  0  0  0  0  0  0  0  0  0  0
   55.1540   29.4500   44.2320 O   0  0  0  0  0  0  0  0  0  0  0  0
   56.5310   31.3900   44.4910 C   0  0  0  0  0  0  0  0  0  0  0  0
   55.8094   31.9631   43.8903 H   0  0  0  0  0  0  0  0  0  0  0  0
   57.6630   32.0160   44.9950 C   0  0  0  0  0  0  0  0  0  0  0  0
   57.8268   33.0850   44.7942 H   0  0  0  0  0  0  0  0  0  0  0  0
   58.5970   31.3060   45.7540 C   0  0  0  0  0  0  0  0  0  0  0  0
   59.6810   32.0210   46.2460 O   0  0  0  0  0  0  0  0  0  0  0  0
   58.4130   29.9140   46.0110 C   0  0  0  0  0  0  0  0  0  0  0  0
  1  2  1  0
  2  3  2  3
  3  4  1  0
  4  5  1  0
  5  6  1  0
  6  7  1  0
  7  8  2  0
  8  9  1  0
  9 10  1  0
  9 11  1  0
  9 12  1  0
 12 13  2  0
 13 14  1  0
 13 15  1  0
 15 16  1  0
 16 17  2  0
 16 18  1  0
 18 19  2  0
 19 20  1  0
 19 21  1  0
 21 22  1  0
 21 23  2  0
 23 24  1  0
 24 25  1  0
 23 26  1  0
 26 27  1  0
 26 28  2  0
 28 29  1  0
 15 30  2  0
 30 31  1  0
 30 32  1  0
 32 33  2  0
 33 34  1  0
 33 35  1  0
 35 36  1  0
 35 37  2  0
 37 38  1  0
 37 39  1  0
 39 40  1  0
 39 41  2  0
  7  3  1  0
 41 12  1  0
 28 18  1  0
 41 32  1  0
M  CHG  5   4  -1   6  -1  29  -1  34  -1  40  -1
M  END
>  <UniqueID>  (7) 
5

>  <SMILES>  (7) 
N=c1[n-]o[n-]/c1=N/Cc1cc(C(=O)c2ccc(O)cc2[O-])cc2c([O-])ccc([O-])c12

>  <Energy>  (7) 
109.42923741311637

>  <Genealogy>  (7) 
N=c1[n-]o[n-]c1=NCc1cc(C(=O)c2ccc(O)cc2[O-])cc2c([O-])ccc([O-])c12 (protonated)
N=c1[n-]o[n-]/c1=N/Cc1cc(C(=O)c2ccc(O)cc2[O-])cc2c([O-])ccc([O-])c12 (cis-trans isomerization)
N=c1[n-]o[n-]/c1=N/Cc1cc(C(=O)c2ccc(O)cc2[O-])cc2c([O-])ccc([O-])c12 (3D coordinates assigned)
N=c1[n-]o[n-]/c1=N/Cc1cc(C(=O)c2ccc(O)cc2[O-])cc2c([O-])ccc([O-])c12 (optimized conformer: 109.42923741311637 kcal/mol)

>  <smiles>  (7) 
N=c1[nH]o[nH]c1=NCc1cc(C(=O)c2ccc(O)cc2O)cc2c(O)ccc(O)c12

>  <score_type>  (7) 
oracle

>  <origin>  (7) 
adg

>  <m_score__min__energy>  (7) 
-15.970000000000001

>  <m_primary>  (7) 
energy

$$$$
7:0
     RDKit          3D

 32 33  0  0  0  0  0  0  0  0999 V2000
   56.5620   30.1490   42.5930 C   0  0  0  0  0  0  0  0  0  0  0  0
   56.5900   30.1520   44.3770 S   0  0  0  0  0  0  0  0  0  0  0  0
   56.6140   31.5770   44.8550 O   0  0  0  0  0  0  0  0  0  0  0  0
   55.3350   29.4980   44.8810 O   0  0  0  0  0  0  0  0  0  0  0  0
   57.9840   29.3120   45.0160 N   0  0  0  0  0  0  0  0  0  0  0  0
   58.0360   29.4280   46.4850 C   0  0  0  0  0  0  0  0  0  0  0  0
   59.1420   28.5410   47.0560 C   0  0  0  0  0  0  0  0  0  0  0  0
   58.9050   27.0540   46.7350 C   0  0  0  0  0  0  0  0  0  0  0  0
   57.9470   26.8240   45.5440 C   0  0  1  0  0  0  0  0  0  0  0  0
   56.5530   26.7680   45.9940 N   0  0  0  0  0  0  0  0  0  0  0  0
   55.8820   25.6800   46.2290 C   0  0  0  0  0  0  0  0  0  0  0  0
   56.3830   24.7650   47.1000 N   0  0  0  0  0  0  0  0  0  0  0  0
   55.7100   23.6170   47.3730 C   0  0  0  0  0  0  0  0  0  0  0  0
   54.4860   23.3640   46.7580 C   0  0  0  0  0  0  0  0  0  0  0  0
   53.9830   24.3110   45.8680 C   0  0  0  0  0  0  0  0  0  0  0  0
   54.6840   25.4480   45.6210 N   0  0  0  0  0  0  0  0  0  0  0  0
   58.1030   27.9310   44.4820 C   0  0  0  0  0  0  0  0  0  0  0  0
   55.5252   30.0379   42.2427 H   0  0  0  0  0  0  0  0  0  0  0  0
   56.9761   31.0967   42.2182 H   0  0  0  0  0  0  0  0  0  0  0  0
   57.1675   29.3106   42.2182 H   0  0  0  0  0  0  0  0  0  0  0  0
   58.2350   30.4748   46.7581 H   0  0  0  0  0  0  0  0  0  0  0  0
   57.0708   29.1031   46.9007 H   0  0  0  0  0  0  0  0  0  0  0  0
   60.1050   28.8496   46.6232 H   0  0  0  0  0  0  0  0  0  0  0  0
   59.1443   28.6586   48.1497 H   0  0  0  0  0  0  0  0  0  0  0  0
   59.8738   26.5908   46.4967 H   0  0  0  0  0  0  0  0  0  0  0  0
   58.4331   26.6036   47.6207 H   0  0  0  0  0  0  0  0  0  0  0  0
   58.2151   25.8582   45.0908 H   0  0  0  0  0  0  0  0  0  0  0  0
   56.1316   22.8871   48.0798 H   0  0  0  0  0  0  0  0  0  0  0  0
   53.9298   22.4389   46.9698 H   0  0  0  0  0  0  0  0  0  0  0  0
   53.0196   24.1380   45.3661 H   0  0  0  0  0  0  0  0  0  0  0  0
   59.0946   27.8255   44.0176 H   0  0  0  0  0  0  0  0  0  0  0  0
   57.2789   27.7984   43.7656 H   0  0  0  0  0  0  0  0  0  0  0  0
  1  2  1  0
  2  3  2  0
  2  4  2  0
  2  5  1  0
  5  6  1  0
  6  7  1  0
  7  8  1  0
  8  9  1  0
  9 10  1  0
 10 11  2  3
 11 12  1  0
 12 13  2  0
 13 14  1  0
 14 15  2  0
 15 16  1  0
  9 17  1  0
 17  5  1  0
 16 11  1  0
  1 18  1  0
  1 19  1  0
  1 20  1  0
  6 21  1  0
  6 22  1  0
  7 23  1  0
  7 24  1  0
  8 25  1  0
  8 26  1  0
  9 27  1  6
 13 28  1  0
 14 29  1  0
 15 30  1  0
 17 31  1  0
 17 32  1  0
M  CHG  1  16  -1
M  END
>  <UniqueID>  (8) 
6

>  <SMILES>  (8) 
CS(=O)(=O)N1CCC[C@@H](N=c2nccc[n-]2)C1

>  <Energy>  (8) 
34.79539057737358

>  <Genealogy>  (8) 
CS(=O)(=O)N1CCCC(N=c2nccc[n-]2)C1 (protonated)
CS(=O)(=O)N1CCC[C@@H](N=c2nccc[n-]2)C1 (chirality)
CS(=O)(=O)N1CCC[C@@H](N=c2nccc[n-]2)C1 (3D coordinates assigned)
CS(=O)(=O)N1CCC[C@@H](N=c2nccc[n-]2)C1 (nonaromatic ring conformer: 34.79539057737358 kcal/mol)

>  <smiles>  (8) 
CS(=O)(=O)N1CCCC(N=c2nccc[nH]2)C1

>  <score_type>  (8) 
oracle

>  <origin>  (8) 
adg

>  <m_score__min__energy>  (8) 
-9.0099999999999998

>  <m_primary>  (8) 
energy

$$$$
8:0
     RDKit          3D

 34 36  0  0  0  0  0  0  0  0999 V2000
   56.9270   21.2870   46.4070 C   0  0  0  0  0  0  0  0  0  0  0  0
   57.0420   22.4840   47.1690 O   0  0  0  0  0  0  0  0  0  0  0  0
   57.0870   23.7730   46.6190 C   0  0  0  0  0  0  0  0  0  0  0  0
   58.2980   24.2280   46.0880 C   0  0  0  0  0  0  0  0  0  0  0  0
   58.3950   25.5050   45.5290 C   0  0  0  0  0  0  0  0  0  0  0  0
   57.2770   26.3490   45.4960 C   0  0  0  0  0  0  0  0  0  0  0  0
   57.3980   27.9590   44.7880 S   0  0  0  0  0  0  0  0  0  0  0  0
   56.1940   28.7620   45.1930 O   0  0  0  0  0  0  0  0  0  0  0  0
   57.4520   27.8630   43.2890 O   0  0  0  0  0  0  0  0  0  0  0  0
   58.8120   28.6930   45.3500 O   0  0  0  0  0  0  0  0  0  0  0  0
   58.4950   29.9950   45.5550 N   0  0  0  0  0  0  0  0  0  0  0  0
   58.8740   30.7760   46.6860 C   0  0  0  0  0  0  0  0  0  0  0  0
   59.3110   30.2960   47.7650 O   0  0  0  0  0  0  0  0  0  0  0  0
   58.7140   32.1940   46.3790 C   0  0  0  0  0  0  0  0  0  0  0  0
   58.9440   33.3260   47.1590 C   0  0  0  0  0  0  0  0  0  0  0  0
   58.7150   34.5860   46.5770 C   0  0  0  0  0  0  0  0  0  0  0  0
   58.2700   34.6870   45.2410 C   0  0  0  0  0  0  0  0  0  0  0  0
   58.0490   33.5300   44.4720 C   0  0  0  0  0  0  0  0  0  0  0  0
   58.2780   32.2940   45.0710 C   0  0  0  0  0  0  0  0  0  0  0  0
   58.1590   30.9390   44.5400 C   0  0  0  0  0  0  0  0  0  0  0  0
   57.8430   30.6320   43.3600 O   0  0  0  0  0  0  0  0  0  0  0  0
   56.0560   25.8980   46.0250 C   0  0  0  0  0  0  0  0  0  0  0  0
   54.9300   26.7140   45.9960 O   0  0  0  0  0  0  0  0  0  0  0  0
   55.9620   24.6190   46.5830 C   0  0  0  0  0  0  0  0  0  0  0  0
   56.8443   20.4261   47.0868 H   0  0  0  0  0  0  0  0  0  0  0  0
   56.0299   21.3409   45.7727 H   0  0  0  0  0  0  0  0  0  0  0  0
   57.8180   21.1691   45.7727 H   0  0  0  0  0  0  0  0  0  0  0  0
   59.1826   23.5745   46.1106 H   0  0  0  0  0  0  0  0  0  0  0  0
   59.3534   25.8492   45.1130 H   0  0  0  0  0  0  0  0  0  0  0  0
   59.2939   33.2368   48.1980 H   0  0  0  0  0  0  0  0  0  0  0  0
   58.8838   35.4989   47.1669 H   0  0  0  0  0  0  0  0  0  0  0  0
   58.0947   35.6784   44.7978 H   0  0  0  0  0  0  0  0  0  0  0  0
   57.7057   33.5996   43.4292 H   0  0  0  0  0  0  0  0  0  0  0  0
   55.0035   24.2719   46.9962 H   0  0  0  0  0  0  0  0  0  0  0  0
  1  2  1  0
  2  3  1  0
  3  4  2  0
  4  5  1  0
  5  6  2  0
  6  7  1  0
  7  8  2  0
  7  9  2  0
  7 10  1  0
 10 11  1  0
 11 12  1  0
 12 13  2  0
 12 14  1  0
 14 15  2  0
 15 16  1  0
 16 17  2  0
 17 18  1  0
 18 19  2  0
 19 20  1  0
 20 21  2  0
  6 22  1  0
 22 23  1  0
 22 24  2  0
 24  3  1  0
 20 11  1  0
 19 14  1  0
  1 25  1  0
  1 26  1  0
  1 27  1  0
  4 28  1  0
  5 29  1  0
 15 30  1  0
 16 31  1  0
 17 32  1  0
 18 33  1  0
 24 34  1  0
M  CHG  1  23  -1
M  END
>  <UniqueID>  (9) 
7

>  <SMILES>  (9) 
COc1ccc(S(=O)(=O)ON2C(=O)c3ccccc3C2=O)c([O-])c1

>  <Energy>  (9) 
70.67479538579246

>  <Genealogy>  (9) 
COc1ccc(S(=O)(=O)ON2C(=O)c3ccccc3C2=O)c([O-])c1 (protonated)
COc1ccc(S(=O)(=O)ON2C(=O)c3ccccc3C2=O)c([O-])c1 (3D coordinates assigned)
COc1ccc(S(=O)(=O)ON2C(=O)c3ccccc3C2=O)c([O-])c1 (nonaromatic ring conformer: 70.67479538579246 kcal/mol)

>  <smiles>  (9) 
COc1ccc(S(=O)(=O)ON2C(=O)c3ccccc3C2=O)c(O)c1

>  <score_type>  (9) 
oracle

>  <origin>  (9) 
adg

>  <m_score__min__energy>  (9) 
-12.65

>  <m_primary>  (9) 
energy

$$$$
9:0
     RDKit          3D

 56 60  0  0  0  0  0  0  0  0999 V2000
   66.2252   30.2444   51.5946 H   0  0  0  0  0  0  0  0  0  0  0  0
   65.6320   31.0200   51.0880 C   0  0  0  0  0  0  0  0  0  0  0  0
   66.2730   32.0950   50.4650 C   0  0  0  0  0  0  0  0  0  0  0  0
   67.3709   32.1616   50.4762 H   0  0  0  0  0  0  0  0  0  0  0  0
   65.5200   33.0850   49.8280 C   0  0  0  0  0  0  0  0  0  0  0  0
   66.0289   33.9243   49.3314 H   0  0  0  0  0  0  0  0  0  0  0  0
   64.1200   33.0150   49.8180 C   0  0  0  0  0  0  0  0  0  0  0  0
   63.4000   34.0200   49.1540 O   0  0  0  0  0  0  0  0  0  0  0  0
   62.1960   33.8320   48.4590 C   0  0  0  0  0  0  0  0  0  0  0  0
   62.2460   33.3720   47.1390 C   0  0  0  0  0  0  0  0  0  0  0  0
   63.2187   33.1556   46.6732 H   0  0  0  0  0  0  0  0  0  0  0  0
   61.0700   33.1850   46.4070 C   0  0  0  0  0  0  0  0  0  0  0  0
   61.1220   32.8121   45.3734 H   0  0  0  0  0  0  0  0  0  0  0  0
   59.8220   33.4710   46.9850 C   0  0  0  0  0  0  0  0  0  0  0  0
   58.5760   33.2770   46.2190 C   0  0  0  0  0  0  0  0  0  0  0  0
   57.7100   34.2630   45.9040 N   0  0  0  0  0  0  0  0  0  0  0  0
   56.7270   33.6980   45.2190 N   0  0  0  0  0  0  0  0  0  0  0  0
   57.0350   32.3930   45.1450 C   0  0  0  0  0  0  0  0  0  0  0  0
   56.2880   31.5200   44.5390 N   0  0  0  0  0  0  0  0  0  0  0  0
   56.4540   30.0970   44.6090 C   0  0  0  0  0  0  0  0  0  0  0  0
   55.4710   29.3440   44.8510 O   0  0  0  0  0  0  0  0  0  0  0  0
   57.7660   29.5480   44.4540 N   0  0  0  0  0  0  0  0  0  0  0  0
   58.4970   28.7870   45.4300 C   0  0  0  0  0  0  0  0  0  0  0  0
   58.9990   29.3970   46.5950 C   0  0  0  0  0  0  0  0  0  0  0  0
   58.8415   30.4733   46.7587 H   0  0  0  0  0  0  0  0  0  0  0  0
   59.6950   28.6470   47.5440 C   0  0  0  0  0  0  0  0  0  0  0  0
   60.0910   29.1359   48.4463 H   0  0  0  0  0  0  0  0  0  0  0  0
   59.8900   27.2800   47.3520 C   0  0  0  0  0  0  0  0  0  0  0  0
   60.4500   26.6955   48.0968 H   0  0  0  0  0  0  0  0  0  0  0  0
   59.3740   26.6490   46.2120 C   0  0  0  0  0  0  0  0  0  0  0  0
   58.6640   27.3940   45.2550 C   0  0  0  0  0  0  0  0  0  0  0  0
   58.1440   26.6710   44.0390 C   0  0  0  0  0  0  0  0  0  0  0  0
   57.5333   27.3638   43.4415 H   0  0  0  0  0  0  0  0  0  0  0  0
   59.0006   26.3100   43.4508 H   0  0  0  0  0  0  0  0  0  0  0  0
   57.1200   25.2350   44.5240 S   0  0  0  0  0  0  0  0  0  0  0  0
   58.2030   24.4470   45.8070 C   0  0  0  0  0  0  0  0  0  0  0  0
   58.4670   22.9980   45.3690 C   0  0  0  0  0  0  0  0  0  0  0  0
   58.5830   22.3614   46.2586 H   0  0  0  0  0  0  0  0  0  0  0  0
   57.6199   22.6367   44.7674 H   0  0  0  0  0  0  0  0  0  0  0  0
   59.3871   22.9586   44.7674 H   0  0  0  0  0  0  0  0  0  0  0  0
   57.4240   24.4330   47.1350 C   0  0  0  0  0  0  0  0  0  0  0  0
   58.1329   24.4457   47.9761 H   0  0  0  0  0  0  0  0  0  0  0  0
   56.7752   25.3196   47.1889 H   0  0  0  0  0  0  0  0  0  0  0  0
   56.8074   23.5236   47.1889 H   0  0  0  0  0  0  0  0  0  0  0  0
   59.5610   25.1690   46.0000 C   0  0  0  0  0  0  0  0  0  0  0  0
   60.0705   24.7438   46.8773 H   0  0  0  0  0  0  0  0  0  0  0  0
   60.1616   25.0238   45.0900 H   0  0  0  0  0  0  0  0  0  0  0  0
   58.1650   32.1200   45.7530 O   0  0  0  0  0  0  0  0  0  0  0  0
   59.7720   33.9530   48.3020 C   0  0  0  0  0  0  0  0  0  0  0  0
   58.8005   34.1867   48.7620 H   0  0  0  0  0  0  0  0  0  0  0  0
   60.9490   34.1380   49.0330 C   0  0  0  0  0  0  0  0  0  0  0  0
   60.8997   34.5246   50.0617 H   0  0  0  0  0  0  0  0  0  0  0  0
   63.4820   31.9200   50.4290 C   0  0  0  0  0  0  0  0  0  0  0  0
   62.3851   31.8416   50.4047 H   0  0  0  0  0  0  0  0  0  0  0  0
   64.2370   30.9310   51.0670 C   0  0  0  0  0  0  0  0  0  0  0  0
   63.7330   30.0824   51.5527 H   0  0  0  0  0  0  0  0  0  0  0  0
  1  2  1  0
  2  3  2  0
  3  4  1  0
  3  5  1  0
  5  6  1  0
  5  7  2  0
  7  8  1  0
  8  9  1  0
  9 10  2  0
 10 11  1  0
 10 12  1  0
 12 13  1  0
 12 14  2  0
 14 15  1  0
 15 16  2  0
 16 17  1  0
 17 18  1  0
 18 19  2  0
 19 20  1  0
 20 21  2  0
 20 22  1  0
 22 23  1  0
 23 24  2  0
 24 25  1  0
 24 26  1  0
 26 27  1  0
 26 28  2  0
 28 29  1  0
 28 30  1  0
 30 31  2  0
 31 32  1  0
 32 33  1  0
 32 34  1  0
 32 35  1  0
 35 36  1  0
 36 37  1  0
 37 38  1  0
 37 39  1  0
 37 40  1  0
 36 41  1  0
 41 42  1  0
 41 43  1  0
 41 44  1  0
 36 45  1  0
 45 46  1  0
 45 47  1  0
 18 48  1  0
 14 49  1  0
 49 50  1  0
 49 51  2  0
 51 52  1  0
  7 53  1  0
 53 54  1  0
 53 55  2  0
 55 56  1  0
 55  2  1  0
 51  9  1  0
 48 15  1  0
 31 23  1  0
 45 30  1  0
M  CHG  2  17  -1  22  -1
M  END
>  <UniqueID>  (10) 
8

>  <SMILES>  (10) 
CC1(C)Cc2cccc([N-]C(=O)/N=c3/[n-]nc(-c4ccc(Oc5ccccc5)cc4)o3)c2CS1

>  <Energy>  (10) 
110.27088288952228

>  <Genealogy>  (10) 
CC1(C)Cc2cccc([N-]C(=O)N=c3[n-]nc(-c4ccc(Oc5ccccc5)cc4)o3)c2CS1 (protonated)
CC1(C)Cc2cccc([N-]C(=O)/N=c3/[n-]nc(-c4ccc(Oc5ccccc5)cc4)o3)c2CS1 (cis-trans isomerization)
CC1(C)Cc2cccc([N-]C(=O)/N=c3/[n-]nc(-c4ccc(Oc5ccccc5)cc4)o3)c2CS1 (3D coordinates assigned)
CC1(C)Cc2cccc([N-]C(=O)/N=c3/[n-]nc(-c4ccc(Oc5ccccc5)cc4)o3)c2CS1 (nonaromatic ring conformer: 110.27088288952228 kcal/mol)

>  <smiles>  (10) 
CC1(C)Cc2cccc(NC(=O)N=c3[nH]nc(-c4ccc(Oc5ccccc5)cc4)o3)c2CS1

>  <score_type>  (10) 
oracle

>  <origin>  (10) 
adg

>  <m_score__min__energy>  (10) 
-11.67

>  <m_primary>  (10) 
energy

$$$$
10:0
     RDKit          3D

 64 68  0  0  0  0  0  0  0  0999 V2000
   62.4810   33.4800   52.1850 C   0  0  0  0  0  0  0  0  0  0  0  0
   61.3510   33.4940   51.3190 O   0  0  0  0  0  0  0  0  0  0  0  0
   60.0350   33.1990   51.7150 C   0  0  0  0  0  0  0  0  0  0  0  0
   59.0940   34.2170   51.9680 C   0  0  0  0  0  0  0  0  0  0  0  0
   57.7980   33.8980   52.3770 C   0  0  0  0  0  0  0  0  0  0  0  0
   57.4230   32.5640   52.5410 C   0  0  0  0  0  0  0  0  0  0  0  0
   58.3410   31.5420   52.2920 C   0  0  0  0  0  0  0  0  0  0  0  0
   57.9550   30.2510   52.4660 F   0  0  0  0  0  0  0  0  0  0  0  0
   59.6500   31.8470   51.8710 C   0  0  0  0  0  0  0  0  0  0  0  0
   60.6310   30.7240   51.6080 C   0  0  0  0  0  0  0  0  0  0  0  0
   60.8310   30.5090   50.1570 N   0  0  0  0  0  0  0  0  0  0  0  0
   59.5510   30.4240   49.4360 C   0  0  0  0  0  0  0  0  0  0  0  0
   59.1410   28.9680   49.4080 C   0  0  0  0  0  0  0  0  0  0  0  0
   60.4550   28.2070   49.4250 C   0  0  1  0  0  0  0  0  0  0  0  0
   60.7780   27.6420   48.1080 N   0  0  0  0  0  0  0  0  0  0  0  0
   59.8270   27.0240   47.2310 C   0  0  0  0  0  0  0  0  0  0  0  0
   59.8510   25.7700   47.0860 O   0  0  0  0  0  0  0  0  0  0  0  0
   58.7970   27.8240   46.5380 C   0  0  0  0  0  0  0  0  0  0  0  0
   57.6930   27.1910   45.9040 C   0  0  0  0  0  0  0  0  0  0  0  0
   56.7140   27.9510   45.2410 C   0  0  0  0  0  0  0  0  0  0  0  0
   56.8600   29.3340   45.2300 C   0  0  0  0  0  0  0  0  0  0  0  0
   56.0710   30.2350   44.6210 N   0  0  0  0  0  0  0  0  0  0  0  0
   56.6030   31.4340   44.8350 N   0  0  0  0  0  0  0  0  0  0  0  0
   57.7230   31.3000   45.5850 C   0  0  0  0  0  0  0  0  0  0  0  0
   58.5760   32.4360   45.9940 C   0  0  0  0  0  0  0  0  0  0  0  0
   58.4770   33.6590   45.3110 C   0  0  0  0  0  0  0  0  0  0  0  0
   59.2790   34.7400   45.6820 C   0  0  0  0  0  0  0  0  0  0  0  0
   60.1860   34.6160   46.7380 C   0  0  0  0  0  0  0  0  0  0  0  0
   60.2960   33.4010   47.4380 C   0  0  0  0  0  0  0  0  0  0  0  0
   61.2210   33.2380   48.5280 N   0  0  0  0  0  0  0  0  0  0  0  0
   62.8710   33.7740   48.4770 S   0  0  0  0  0  0  0  0  0  0  0  0
   63.9560   32.4880   49.0640 C   0  0  0  0  0  0  0  0  0  0  0  0
   63.2430   34.1700   47.0740 O   0  0  0  0  0  0  0  0  0  0  0  0
   63.0220   34.9680   49.3760 O   0  0  0  0  0  0  0  0  0  0  0  0
   59.4660   32.3270   47.0760 C   0  0  0  0  0  0  0  0  0  0  0  0
   57.9120   29.9540   45.8420 C   0  0  0  0  0  0  0  0  0  0  0  0
   58.9190   29.2320   46.4850 C   0  0  0  0  0  0  0  0  0  0  0  0
   61.5050   29.2200   49.9090 C   0  0  0  0  0  0  0  0  0  0  0  0
   62.1412   33.4842   53.2312 H   0  0  0  0  0  0  0  0  0  0  0  0
   63.0763   32.5744   51.9964 H   0  0  0  0  0  0  0  0  0  0  0  0
   63.0985   34.3706   51.9964 H   0  0  0  0  0  0  0  0  0  0  0  0
   59.3829   35.2709   51.8423 H   0  0  0  0  0  0  0  0  0  0  0  0
   57.0706   34.7002   52.5705 H   0  0  0  0  0  0  0  0  0  0  0  0
   56.4019   32.3171   52.8672 H   0  0  0  0  0  0  0  0  0  0  0  0
   61.5972   30.9778   52.0685 H   0  0  0  0  0  0  0  0  0  0  0  0
   60.2224   29.7993   52.0415 H   0  0  0  0  0  0  0  0  0  0  0  0
   58.7865   31.0196   49.9564 H   0  0  0  0  0  0  0  0  0  0  0  0
   59.6551   30.8170   48.4139 H   0  0  0  0  0  0  0  0  0  0  0  0
   58.5341   28.7172   50.2905 H   0  0  0  0  0  0  0  0  0  0  0  0
   58.5246   28.7221   48.5308 H   0  0  0  0  0  0  0  0  0  0  0  0
   60.4126   27.3337   50.0926 H   0  0  0  0  0  0  0  0  0  0  0  0
   57.6041   26.0950   45.9327 H   0  0  0  0  0  0  0  0  0  0  0  0
   55.8590   27.4670   44.7463 H   0  0  0  0  0  0  0  0  0  0  0  0
   57.7643   33.7658   44.4799 H   0  0  0  0  0  0  0  0  0  0  0  0
   59.1966   35.6939   45.1405 H   0  0  0  0  0  0  0  0  0  0  0  0
   60.8160   35.4716   47.0227 H   0  0  0  0  0  0  0  0  0  0  0  0
   60.9460   32.6370   49.3370 H   0  0  0  0  0  0  0  0  0  0  0  0
   63.9590   32.4845   50.1640 H   0  0  0  0  0  0  0  0  0  0  0  0
   63.6029   31.5137   48.6952 H   0  0  0  0  0  0  0  0  0  0  0  0
   64.9759   32.6720   48.6952 H   0  0  0  0  0  0  0  0  0  0  0  0
   59.5134   31.3881   47.6472 H   0  0  0  0  0  0  0  0  0  0  0  0
   59.7818   29.7431   46.9371 H   0  0  0  0  0  0  0  0  0  0  0  0
   61.9686   28.8586   50.8387 H   0  0  0  0  0  0  0  0  0  0  0  0
   62.2886   29.3444   49.1471 H   0  0  0  0  0  0  0  0  0  0  0  0
  1  2  1  0
  2  3  1  0
  3  4  2  0
  4  5  1  0
  5  6  2  0
  6  7  1  0
  7  8  1  0
  7  9  2  0
  9 10  1  0
 10 11  1  0
 11 12  1  0
 12 13  1  0
 13 14  1  0
 14 15  1  0
 15 16  1  0
 16 17  2  0
 16 18  1  0
 18 19  2  0
 19 20  1  0
 20 21  2  0
 21 22  1  0
 22 23  1  0
 23 24  2  0
 24 25  1  0
 25 26  2  0
 26 27  1  0
 27 28  2  0
 28 29  1  0
 29 30  1  0
 30 31  1  0
 31 32  1  0
 31 33  2  0
 31 34  2  0
 29 35  2  0
 24 36  1  0
 36 37  2  0
 14 38  1  0
  9  3  1  0
 38 11  1  0
 37 18  1  0
 36 21  1  0
 35 25  1  0
  1 39  1  0
  1 40  1  0
  1 41  1  0
  4 42  1  0
  5 43  1  0
  6 44  1  0
 10 45  1  0
 10 46  1  0
 12 47  1  0
 12 48  1  0
 13 49  1  0
 13 50  1  0
 14 51  1  1
 19 52  1  0
 20 53  1  0
 26 54  1  0
 27 55  1  0
 28 56  1  0
 30 57  1  0
 32 58  1  0
 32 59  1  0
 32 60  1  0
 35 61  1  0
 37 62  1  0
 38 63  1  0
 38 64  1  0
M  CHG  2  15  -1  22  -1
M  END
>  <UniqueID>  (11) 
9

>  <SMILES>  (11) 
COc1cccc(F)c1CN1CC[C@@H]([N-]C(=O)c2ccc3[n-]nc(-c4cccc(NS(C)(=O)=O)c4)c3c2)C1

>  <Energy>  (11) 
124.44498950150222

>  <Genealogy>  (11) 
COc1cccc(F)c1CN1CCC([N-]C(=O)c2ccc3[n-]nc(-c4cccc(NS(C)(=O)=O)c4)c3c2)C1 (protonated)
COc1cccc(F)c1CN1CC[C@@H]([N-]C(=O)c2ccc3[n-]nc(-c4cccc(NS(C)(=O)=O)c4)c3c2)C1 (chirality)
COc1cccc(F)c1CN1CC[C@@H]([N-]C(=O)c2ccc3[n-]nc(-c4cccc(NS(C)(=O)=O)c4)c3c2)C1 (3D coordinates assigned)
COc1cccc(F)c1CN1CC[C@@H]([N-]C(=O)c2ccc3[n-]nc(-c4cccc(NS(C)(=O)=O)c4)c3c2)C1 (nonaromatic ring conformer: 124.44498950150222 kcal/mol)

>  <smiles>  (11) 
COc1cccc(F)c1CN1CCC(NC(=O)c2ccc3[nH]nc(-c4cccc(NS(C)(=O)=O)c4)c3c2)C1

>  <score_type>  (11) 
oracle

>  <origin>  (11) 
adg

>  <m_score__min__energy>  (11) 
-12.640000000000001

>  <m_primary>  (11) 
energy

$$$$
11:0
     RDKit          3D

 40 41  0  0  1  0  0  0  0  0999 V2000
   56.9850   31.2630   42.2230 C   0  0  0  0  0  0  0  0  0  0  0  0
   56.6870   30.0590   42.7340 C   0  0  0  0  0  0  0  0  0  0  0  0
   60.2360   28.4250   48.1350 C   0  0  0  0  0  0  0  0  0  0  0  0
   59.8660   28.1050   46.8260 N   0  0  0  0  0  0  0  0  0  0  0  0
   58.6540   27.9230   46.4250 C   0  0  0  0  0  0  0  0  0  0  0  0
   56.1370   27.5780   45.5890 N   0  0  0  0  0  0  0  0  0  0  0  0
   56.7790   26.4950   46.0630 C   0  0  0  0  0  0  0  0  0  0  0  0
   56.0340   24.9080   46.1460 Cl  0  0  0  0  0  0  0  0  0  0  0  0
   58.0830   26.6840   46.4940 C   0  0  0  0  0  0  0  0  0  0  0  0
   56.7050   28.8010   45.5230 C   0  0  0  0  0  0  0  0  0  0  0  0
   56.0650   29.8070   45.0680 N   0  0  0  0  0  0  0  0  0  0  0  0
   55.6090   29.8770   43.7150 C   0  0  0  0  0  0  0  0  0  0  0  0
   60.0880   29.9210   48.3360 C   0  0  0  0  0  0  0  0  0  0  0  0
   60.1720   30.3040   49.5200 O   0  0  0  0  0  0  0  0  0  0  0  0
   59.8730   30.7680   47.2190 N   0  0  0  0  0  0  0  0  0  0  0  0
   59.7180   32.1710   47.2670 C   0  0  0  0  0  0  0  0  0  0  0  0
   60.4090   32.9870   48.1460 C   0  0  0  0  0  0  0  0  0  0  0  0
   60.2540   34.3590   48.1950 C   0  0  0  0  0  0  0  0  0  0  0  0
   59.3800   34.9760   47.3430 C   0  0  0  0  0  0  0  0  0  0  0  0
   58.6850   34.1850   46.4640 C   0  0  0  0  0  0  0  0  0  0  0  0
   58.8400   32.7880   46.4100 C   0  0  0  0  0  0  0  0  0  0  0  0
   58.0410   32.1440   45.4390 N   0  0  0  0  0  0  0  0  0  0  0  0
   58.5650   31.2310   44.7440 O   0  0  0  0  0  0  0  0  0  0  0  0
   56.7330   32.4110   45.1620 O   0  0  0  0  0  0  0  0  0  0  0  0
   57.9600   28.9670   45.9410 N   0  0  0  0  0  0  0  0  0  0  0  0
   57.7990   31.3632   41.4900 H   0  0  0  0  0  0  0  0  0  0  0  0
   56.4153   32.1501   42.5370 H   0  0  0  0  0  0  0  0  0  0  0  0
   57.2668   29.1825   42.4089 H   0  0  0  0  0  0  0  0  0  0  0  0
   59.5855   27.8912   48.8435 H   0  0  0  0  0  0  0  0  0  0  0  0
   61.2803   28.1271   48.3103 H   0  0  0  0  0  0  0  0  0  0  0  0
   55.1460   27.4620   45.2550 H   0  0  0  0  0  0  0  0  0  0  0  0
   58.6585   25.8353   46.8920 H   0  0  0  0  0  0  0  0  0  0  0  0
   54.9135   30.7246   43.6270 H   0  0  0  0  0  0  0  0  0  0  0  0
   55.1296   28.9132   43.4886 H   0  0  0  0  0  0  0  0  0  0  0  0
   59.8180   30.2700   46.2970 H   0  0  0  0  0  0  0  0  0  0  0  0
   61.1194   32.5181   48.8427 H   0  0  0  0  0  0  0  0  0  0  0  0
   60.8322   34.9537   48.9175 H   0  0  0  0  0  0  0  0  0  0  0  0
   59.2395   36.0668   47.3620 H   0  0  0  0  0  0  0  0  0  0  0  0
   57.9764   34.6634   45.7719 H   0  0  0  0  0  0  0  0  0  0  0  0
   58.4150   29.8870   45.9020 H   0  0  0  0  0  0  0  0  0  0  0  0
  1  2  2  0
  2  3  1  0
  3  4  1  0
  4  5  2  0
  5  6  1  0
  6  7  1  0
  7  8  1  0
  7  9  2  0
  9 10  1  0
 10 11  2  0
 11 12  1  0
 12 13  1  0
 13 14  2  0
 13 15  1  0
 15 16  1  0
 16 17  2  0
 17 18  1  0
 18 19  2  0
 19 20  1  0
 20 21  2  0
 21 22  1  0
 22 23  2  0
 22 24  1  0
 10 25  1  0
 25  5  1  0
 21 16  1  0
  1 26  1  0
  1 27  1  0
  2 28  1  0
  3 29  1  0
  3 30  1  0
  6 31  1  0
  9 32  1  0
 12 33  1  0
 12 34  1  0
 15 35  1  0
 17 36  1  0
 18 37  1  0
 19 38  1  0
 20 39  1  0
 25 40  1  0
M  CHG  2  22   1  24  -1
M  END
>  <smiles>  (12) 
C=CCN=c1[nH]c(Cl)cc(=NCC(=O)Nc2ccccc2[N+](=O)[O-])[nH]1

>  <score_type>  (12) 
oracle

>  <origin>  (12) 
adg

>  <m_score__min__energy>  (12) 
-7.9299999999999997

>  <m_primary>  (12) 
energy

$$$$
12:0
     RDKit          3D

 66 69  0  0  0  0  0  0  0  0999 V2000
   62.5179   26.2083   51.5774 H   0  0  0  0  0  0  0  0  0  0  0  0
   61.6220   26.8460   51.6060 C   0  0  0  0  0  0  0  0  0  0  0  0
   60.5690   26.4780   52.5730 C   0  0  0  0  0  0  0  0  0  0  0  0
   60.1200   25.3020   52.6350 O   0  0  0  0  0  0  0  0  0  0  0  0
   60.1100   27.4680   53.4960 N   0  0  0  0  0  0  0  0  0  0  0  0
   58.7660   28.0310   53.4510 C   0  0  0  0  0  0  0  0  0  0  0  0
   58.1115   27.3680   52.8661 H   0  0  0  0  0  0  0  0  0  0  0  0
   58.3769   28.1255   54.4755 H   0  0  0  0  0  0  0  0  0  0  0  0
   58.8050   29.3890   52.8070 C   0  0  0  0  0  0  0  0  0  0  0  0
   59.9730   30.1700   52.8540 C   0  0  0  0  0  0  0  0  0  0  0  0
   60.8711   29.7824   53.3572 H   0  0  0  0  0  0  0  0  0  0  0  0
   59.9980   31.4370   52.2640 C   0  0  0  0  0  0  0  0  0  0  0  0
   60.9121   32.0466   52.3166 H   0  0  0  0  0  0  0  0  0  0  0  0
   58.8640   31.9360   51.6050 C   0  0  0  0  0  0  0  0  0  0  0  0
   58.8940   33.3080   50.9890 C   0  0  0  0  0  0  0  0  0  0  0  0
   58.0671   33.4015   50.2697 H   0  0  0  0  0  0  0  0  0  0  0  0
   58.7872   34.0608   51.7839 H   0  0  0  0  0  0  0  0  0  0  0  0
   60.1600   33.5220   50.2980 N   0  0  0  0  0  0  0  0  0  0  0  0
   60.4460   33.0190   48.9860 C   0  0  0  0  0  0  0  0  0  0  0  0
   61.4620   32.2940   48.8020 O   0  0  0  0  0  0  0  0  0  0  0  0
   59.5670   33.3640   47.8440 C   0  0  0  0  0  0  0  0  0  0  0  0
   59.9840   34.2910   46.8690 C   0  0  0  0  0  0  0  0  0  0  0  0
   60.9739   34.7633   46.9526 H   0  0  0  0  0  0  0  0  0  0  0  0
   59.1490   34.6150   45.7960 C   0  0  0  0  0  0  0  0  0  0  0  0
   59.4836   35.3409   45.0402 H   0  0  0  0  0  0  0  0  0  0  0  0
   57.8920   34.0200   45.6810 C   0  0  0  0  0  0  0  0  0  0  0  0
   57.2369   34.2769   44.8355 H   0  0  0  0  0  0  0  0  0  0  0  0
   57.4660   33.0980   46.6400 C   0  0  0  0  0  0  0  0  0  0  0  0
   56.4754   32.6285   46.5486 H   0  0  0  0  0  0  0  0  0  0  0  0
   58.2970   32.7710   47.7160 C   0  0  0  0  0  0  0  0  0  0  0  0
   57.9555   32.0447   48.4682 H   0  0  0  0  0  0  0  0  0  0  0  0
   57.6950   31.1590   51.5640 C   0  0  0  0  0  0  0  0  0  0  0  0
   56.7983   31.5451   51.0572 H   0  0  0  0  0  0  0  0  0  0  0  0
   57.6660   29.8980   52.1640 C   0  0  0  0  0  0  0  0  0  0  0  0
   56.7437   29.2994   52.1323 H   0  0  0  0  0  0  0  0  0  0  0  0
   61.5880   27.8880   50.7570 C   0  0  0  0  0  0  0  0  0  0  0  0
   62.4394   28.5840   50.7823 H   0  0  0  0  0  0  0  0  0  0  0  0
   60.5070   28.1800   49.7930 C   0  0  0  0  0  0  0  0  0  0  0  0
   60.0530   29.4920   49.5840 C   0  0  0  0  0  0  0  0  0  0  0  0
   60.4694   30.3179   50.1794 H   0  0  0  0  0  0  0  0  0  0  0  0
   59.0750   29.7510   48.6230 C   0  0  0  0  0  0  0  0  0  0  0  0
   58.7103   30.7783   48.4758 H   0  0  0  0  0  0  0  0  0  0  0  0
   58.5570   28.7110   47.8470 C   0  0  0  0  0  0  0  0  0  0  0  0
   57.7784   28.9229   47.0994 H   0  0  0  0  0  0  0  0  0  0  0  0
   59.0240   27.3950   48.0150 C   0  0  0  0  0  0  0  0  0  0  0  0
   58.5090   26.3180   47.1960 N   0  0  0  0  0  0  0  0  0  0  0  0
   57.9400   25.1280   47.8370 C   0  0  0  0  0  0  0  0  0  0  0  0
   57.9933   25.2394   48.9300 H   0  0  0  0  0  0  0  0  0  0  0  0
   56.8897   25.0134   47.5309 H   0  0  0  0  0  0  0  0  0  0  0  0
   58.5102   24.2386   47.5309 H   0  0  0  0  0  0  0  0  0  0  0  0
   58.6230   26.3640   45.7290 C   0  0  0  0  0  0  0  0  0  0  0  0
   59.6848   26.3100   45.4469 H   0  0  0  0  0  0  0  0  0  0  0  0
   58.0729   25.5119   45.3032 H   0  0  0  0  0  0  0  0  0  0  0  0
   58.0310   27.6440   45.1910 C   0  0  0  0  0  0  0  0  0  0  0  0
   58.8840   28.6070   44.6240 C   0  0  0  0  0  0  0  0  0  0  0  0
   59.9657   28.4148   44.5696 H   0  0  0  0  0  0  0  0  0  0  0  0
   58.3660   29.8070   44.1290 C   0  0  0  0  0  0  0  0  0  0  0  0
   59.0403   30.5556   43.6875 H   0  0  0  0  0  0  0  0  0  0  0  0
   56.9940   30.0570   44.1940 C   0  0  0  0  0  0  0  0  0  0  0  0
   56.5894   31.0031   43.8051 H   0  0  0  0  0  0  0  0  0  0  0  0
   56.1340   29.1080   44.7520 C   0  0  0  0  0  0  0  0  0  0  0  0
   54.7670   29.3640   44.8100 O   0  0  0  0  0  0  0  0  0  0  0  0
   56.6450   27.9020   45.2520 C   0  0  0  0  0  0  0  0  0  0  0  0
   55.7710   26.9690   45.8030 O   0  0  0  0  0  0  0  0  0  0  0  0
   60.0080   27.1430   48.9900 C   0  0  0  0  0  0  0  0  0  0  0  0
   60.3904   26.1204   49.1240 H   0  0  0  0  0  0  0  0  0  0  0  0
  1  2  1  0
  2  3  1  0
  3  4  2  0
  3  5  1  0
  5  6  1  0
  6  7  1  0
  6  8  1  0
  6  9  1  0
  9 10  2  0
 10 11  1  0
 10 12  1  0
 12 13  1  0
 12 14  2  0
 14 15  1  0
 15 16  1  0
 15 17  1  0
 15 18  1  0
 18 19  1  0
 19 20  2  0
 19 21  1  0
 21 22  2  0
 22 23  1  0
 22 24  1  0
 24 25  1  0
 24 26  2  0
 26 27  1  0
 26 28  1  0
 28 29  1  0
 28 30  2  0
 30 31  1  0
 14 32  1  0
 32 33  1  0
 32 34  2  0
 34 35  1  0
  2 36  2  0
 36 37  1  0
 36 38  1  0
 38 39  2  0
 39 40  1  0
 39 41  1  0
 41 42  1  0
 41 43  2  0
 43 44  1  0
 43 45  1  0
 45 46  1  0
 46 47  1  0
 47 48  1  0
 47 49  1  0
 47 50  1  0
 46 51  1  0
 51 52  1  0
 51 53  1  0
 51 54  1  0
 54 55  2  0
 55 56  1  0
 55 57  1  0
 57 58  1  0
 57 59  2  0
 59 60  1  0
 59 61  1  0
 61 62  1  0
 61 63  2  0
 63 64  1  0
 45 65  2  0
 65 66  1  0
 34  9  1  0
 65 38  1  0
 30 21  1  0
 63 54  1  0
M  CHG  4   5  -1  18  -1  62  -1  64  -1
M  END
>  <UniqueID>  (13) 
10

>  <SMILES>  (13) 
CN(Cc1cccc([O-])c1[O-])c1cccc(/C=C\C(=O)[N-]Cc2ccc(C[N-]C(=O)c3ccccc3)cc2)c1

>  <Energy>  (13) 
76.93417566180852

>  <Genealogy>  (13) 
CN(Cc1cccc([O-])c1[O-])c1cccc(C=CC(=O)[N-]Cc2ccc(C[N-]C(=O)c3ccccc3)cc2)c1 (protonated)
CN(Cc1cccc([O-])c1[O-])c1cccc(/C=C\C(=O)[N-]Cc2ccc(C[N-]C(=O)c3ccccc3)cc2)c1 (cis-trans isomerization)
CN(Cc1cccc([O-])c1[O-])c1cccc(/C=C\C(=O)[N-]Cc2ccc(C[N-]C(=O)c3ccccc3)cc2)c1 (3D coordinates assigned)
CN(Cc1cccc([O-])c1[O-])c1cccc(/C=C\C(=O)[N-]Cc2ccc(C[N-]C(=O)c3ccccc3)cc2)c1 (optimized conformer: 76.93417566180852 kcal/mol)

>  <smiles>  (13) 
CN(Cc1cccc(O)c1O)c1cccc(C=CC(=O)NCc2ccc(CNC(=O)c3ccccc3)cc2)c1

>  <score_type>  (13) 
oracle

>  <origin>  (13) 
adg

>  <m_score__min__energy>  (13) 
-19.120000000000001

>  <m_primary>  (13) 
energy

$$$$
13:0
     RDKit          3D

 46 49  0  0  0  0  0  0  0  0999 V2000
   59.4840   26.1828   45.4195 H   0  0  0  0  0  0  0  0  0  0  0  0
   58.6510   25.4750   45.2970 C   0  0  0  0  0  0  0  0  0  0  0  0
   58.8483   24.4462   44.9613 H   0  0  0  0  0  0  0  0  0  0  0  0
   57.3990   25.8650   45.5560 C   0  0  0  0  0  0  0  0  0  0  0  0
   56.3560   25.0260   45.4170 N   0  0  0  0  0  0  0  0  0  0  0  0
   55.2860   25.7930   45.6960 C   0  0  0  0  0  0  0  0  0  0  0  0
   54.1070   25.3530   45.6660 O   0  0  0  0  0  0  0  0  0  0  0  0
   55.5780   27.0700   46.0040 N   0  0  0  0  0  0  0  0  0  0  0  0
   56.9230   27.1270   45.9310 C   0  0  0  0  0  0  0  0  0  0  0  0
   57.5840   28.2670   46.1980 C   0  0  0  0  0  0  0  0  0  0  0  0
   58.4520   28.2041   46.8708 H   0  0  0  0  0  0  0  0  0  0  0  0
   57.2380   29.5890   45.6620 C   0  0  0  0  0  0  0  0  0  0  0  0
   56.1310   29.8480   44.8680 C   0  0  0  0  0  0  0  0  0  0  0  0
   55.1420   28.9210   44.5640 O   0  0  0  0  0  0  0  0  0  0  0  0
   56.1210   31.1120   44.3990 N   0  0  0  0  0  0  0  0  0  0  0  0
   57.2470   31.6560   44.8970 C   0  0  0  0  0  0  0  0  0  0  0  0
   57.6810   32.9580   44.6680 C   0  0  0  0  0  0  0  0  0  0  0  0
   57.0923   33.6481   44.0458 H   0  0  0  0  0  0  0  0  0  0  0  0
   58.8880   33.3670   45.2510 C   0  0  0  0  0  0  0  0  0  0  0  0
   59.2585   34.3886   45.0803 H   0  0  0  0  0  0  0  0  0  0  0  0
   59.6290   32.4800   46.0530 C   0  0  0  0  0  0  0  0  0  0  0  0
   60.5750   32.8179   46.5013 H   0  0  0  0  0  0  0  0  0  0  0  0
   59.1790   31.1640   46.2920 C   0  0  0  0  0  0  0  0  0  0  0  0
   60.1380   30.1180   47.3510 S   0  0  0  0  0  0  0  0  0  0  0  0
   59.2400   29.5150   48.3970 O   0  0  0  0  0  0  0  0  0  0  0  0
   60.7300   28.9910   46.5550 O   0  0  0  0  0  0  0  0  0  0  0  0
   61.3960   31.0440   48.1330 N   0  0  0  0  0  0  0  0  0  0  0  0
   61.8480   30.4150   48.8320 H   0  0  0  0  0  0  0  0  0  0  0  0
   62.4140   31.4710   47.1430 C   0  0  0  0  0  0  0  0  0  0  0  0
   63.1781   30.6835   47.0656 H   0  0  0  0  0  0  0  0  0  0  0  0
   61.8924   31.6363   46.1887 H   0  0  0  0  0  0  0  0  0  0  0  0
   63.1120   32.7970   47.5200 C   0  0  0  0  0  0  0  0  0  0  0  0
   64.1295   32.7897   47.1020 H   0  0  0  0  0  0  0  0  0  0  0  0
   62.5072   33.6183   47.1079 H   0  0  0  0  0  0  0  0  0  0  0  0
   63.2030   33.0010   48.9780 N   0  0  0  0  0  0  0  0  0  0  0  0
   64.2160   32.1270   49.5950 C   0  0  0  0  0  0  0  0  0  0  0  0
   64.1393   32.1932   50.6903 H   0  0  0  0  0  0  0  0  0  0  0  0
   64.0458   31.0876   49.2777 H   0  0  0  0  0  0  0  0  0  0  0  0
   65.2192   32.4477   49.2777 H   0  0  0  0  0  0  0  0  0  0  0  0
   61.8880   32.9250   49.6640 C   0  0  0  0  0  0  0  0  0  0  0  0
   62.0234   32.3954   50.6186 H   0  0  0  0  0  0  0  0  0  0  0  0
   61.5371   33.9578   49.8058 H   0  0  0  0  0  0  0  0  0  0  0  0
   60.8090   32.1880   48.8460 C   0  0  0  0  0  0  0  0  0  0  0  0
   60.0233   31.8266   49.5257 H   0  0  0  0  0  0  0  0  0  0  0  0
   60.3821   32.8852   48.1100 H   0  0  0  0  0  0  0  0  0  0  0  0
   57.9710   30.7690   45.6730 C   0  0  0  0  0  0  0  0  0  0  0  0
  1  2  1  0
  2  3  1  0
  2  4  2  0
  4  5  1  0
  5  6  1  0
  6  7  2  0
  6  8  1  0
  8  9  1  0
  9 10  2  0
 10 11  1  0
 10 12  1  0
 12 13  2  0
 13 14  1  0
 13 15  1  0
 15 16  1  0
 16 17  2  0
 17 18  1  0
 17 19  1  0
 19 20  1  0
 19 21  2  0
 21 22  1  0
 21 23  1  0
 23 24  1  0
 24 25  2  0
 24 26  2  0
 24 27  1  0
 27 28  1  0
 27 29  1  0
 29 30  1  0
 29 31  1  0
 29 32  1  0
 32 33  1  0
 32 34  1  0
 32 35  1  0
 35 36  1  0
 36 37  1  0
 36 38  1  0
 36 39  1  0
 35 40  1  0
 40 41  1  0
 40 42  1  0
 40 43  1  0
 43 44  1  0
 43 45  1  0
 23 46  2  0
  9  4  1  0
 46 12  1  0
 46 16  1  0
 43 27  1  0
M  CHG  5   5  -1   8  -1  14  -1  15  -1  27   1
M  END
>  <UniqueID>  (14) 
11

>  <SMILES>  (14) 
C=c1[n-]c(=O)[n-]/c1=C/c1c([O-])[n-]c2cccc(S(=O)(=O)[NH+]3CCN(C)CC3)c12

>  <Energy>  (14) 
135.14085189260553

>  <Genealogy>  (14) 
C=c1[n-]c(=O)[n-]c1=Cc1c([O-])[n-]c2cccc(S(=O)(=O)[NH+]3CCN(C)CC3)c12 (protonated)
C=c1[n-]c(=O)[n-]/c1=C/c1c([O-])[n-]c2cccc(S(=O)(=O)[NH+]3CCN(C)CC3)c12 (cis-trans isomerization)
C=c1[n-]c(=O)[n-]/c1=C/c1c([O-])[n-]c2cccc(S(=O)(=O)[NH+]3CCN(C)CC3)c12 (3D coordinates assigned)
C=c1[n-]c(=O)[n-]/c1=C/c1c([O-])[n-]c2cccc(S(=O)(=O)[NH+]3CCN(C)CC3)c12 (nonaromatic ring conformer: 135.14085189260553 kcal/mol)

>  <smiles>  (14) 
C=c1[nH]c(=O)[nH]c1=Cc1c(O)[nH]c2cccc(S(=O)(=O)N3CCN(C)CC3)c12

>  <score_type>  (14) 
oracle

>  <origin>  (14) 
adg

>  <m_score__min__energy>  (14) 
-15.76

>  <m_primary>  (14) 
energy

$$$$
14:0
     RDKit          3D

 52 55  0  0  0  0  0  0  0  0999 V2000
   58.0820   21.4640   43.6680 C   0  0  0  0  0  0  0  0  0  0  0  0
   56.9570   22.7730   44.1100 S   0  0  0  0  0  0  0  0  0  0  0  0
   57.0260   23.9010   43.1190 O   0  0  0  0  0  0  0  0  0  0  0  0
   55.5630   22.2150   44.0960 O   0  0  0  0  0  0  0  0  0  0  0  0
   57.2990   23.3540   45.7080 N   0  0  0  0  0  0  0  0  0  0  0  0
   57.7810   24.6470   46.1140 C   0  0  0  0  0  0  0  0  0  0  0  0
   59.1620   24.8720   46.0220 C   0  0  0  0  0  0  0  0  0  0  0  0
   59.7150   26.0990   46.3900 C   0  0  0  0  0  0  0  0  0  0  0  0
   58.8940   27.1290   46.8680 C   0  0  0  0  0  0  0  0  0  0  0  0
   59.4480   28.4050   47.2240 N   0  0  0  0  0  0  0  0  0  0  0  0
   60.3670   28.5470   48.1670 N   0  0  0  0  0  0  0  0  0  0  0  0
   60.6120   29.8640   48.3060 C   0  0  0  0  0  0  0  0  0  0  0  0
   61.5810   30.4170   49.2590 C   0  0  0  0  0  0  0  0  0  0  0  0
   61.7940   29.8310   50.3540 O   0  0  0  0  0  0  0  0  0  0  0  0
   62.2870   31.6170   48.9300 N   0  0  0  0  0  0  0  0  0  0  0  0
   61.8000   32.9540   49.2490 C   0  0  0  0  0  0  0  0  0  0  0  0
   60.9220   33.4660   48.1390 C   0  0  0  0  0  0  0  0  0  0  0  0
   59.6980   34.0850   48.4410 C   0  0  0  0  0  0  0  0  0  0  0  0
   58.8840   34.5730   47.4150 C   0  0  0  0  0  0  0  0  0  0  0  0
   59.2890   34.4550   46.0820 C   0  0  0  0  0  0  0  0  0  0  0  0
   58.4980   34.9270   45.0890 F   0  0  0  0  0  0  0  0  0  0  0  0
   60.5110   33.8510   45.7760 C   0  0  0  0  0  0  0  0  0  0  0  0
   61.3280   33.3600   46.7990 C   0  0  0  0  0  0  0  0  0  0  0  0
   59.8260   30.5880   47.4290 C   0  0  0  0  0  0  0  0  0  0  0  0
   59.1010   29.6270   46.7500 C   0  0  0  0  0  0  0  0  0  0  0  0
   58.1780   29.9000   45.6260 C   0  0  0  0  0  0  0  0  0  0  0  0
   58.5840   30.7290   44.5680 C   0  0  0  0  0  0  0  0  0  0  0  0
   57.7150   30.9890   43.5020 C   0  0  0  0  0  0  0  0  0  0  0  0
   56.4430   30.4120   43.4790 C   0  0  0  0  0  0  0  0  0  0  0  0
   56.0390   29.5680   44.5180 C   0  0  0  0  0  0  0  0  0  0  0  0
   54.7780   28.9860   44.4890 O   0  0  0  0  0  0  0  0  0  0  0  0
   56.9050   29.3060   45.5850 C   0  0  0  0  0  0  0  0  0  0  0  0
   57.5120   26.9190   46.9570 C   0  0  0  0  0  0  0  0  0  0  0  0
   56.9510   25.6880   46.5980 C   0  0  0  0  0  0  0  0  0  0  0  0
   55.5820   25.5270   46.7450 O   0  0  0  0  0  0  0  0  0  0  0  0
   58.4812   20.9995   44.5817 H   0  0  0  0  0  0  0  0  0  0  0  0
   57.5485   20.7068   43.0747 H   0  0  0  0  0  0  0  0  0  0  0  0
   58.9108   21.8776   43.0747 H   0  0  0  0  0  0  0  0  0  0  0  0
   59.8187   24.0697   45.6545 H   0  0  0  0  0  0  0  0  0  0  0  0
   60.8000   26.2584   46.3045 H   0  0  0  0  0  0  0  0  0  0  0  0
   61.2201   32.9162   50.1829 H   0  0  0  0  0  0  0  0  0  0  0  0
   62.6595   33.6302   49.3677 H   0  0  0  0  0  0  0  0  0  0  0  0
   59.3788   34.1861   49.4888 H   0  0  0  0  0  0  0  0  0  0  0  0
   57.9231   35.0507   47.6567 H   0  0  0  0  0  0  0  0  0  0  0  0
   60.8313   33.7615   44.7275 H   0  0  0  0  0  0  0  0  0  0  0  0
   62.2914   32.8894   46.5534 H   0  0  0  0  0  0  0  0  0  0  0  0
   59.7866   31.6798   47.3008 H   0  0  0  0  0  0  0  0  0  0  0  0
   59.5891   31.1759   44.5769 H   0  0  0  0  0  0  0  0  0  0  0  0
   58.0340   31.6484   42.6814 H   0  0  0  0  0  0  0  0  0  0  0  0
   55.7591   30.6217   42.6434 H   0  0  0  0  0  0  0  0  0  0  0  0
   56.5883   28.6325   46.3950 H   0  0  0  0  0  0  0  0  0  0  0  0
   56.8604   27.7306   47.3130 H   0  0  0  0  0  0  0  0  0  0  0  0
  1  2  1  0
  2  3  2  0
  2  4  2  0
  2  5  1  0
  5  6  1  0
  6  7  2  0
  7  8  1  0
  8  9  2  0
  9 10  1  0
 10 11  1  0
 11 12  2  0
 12 13  1  0
 13 14  2  0
 13 15  1  0
 15 16  1  0
 16 17  1  0
 17 18  2  0
 18 19  1  0
 19 20  2  0
 20 21  1  0
 20 22  1  0
 22 23  2  0
 12 24  1  0
 24 25  2  0
 25 26  1  0
 26 27  2  0
 27 28  1  0
 28 29  2  0
 29 30  1  0
 30 31  1  0
 30 32  2  0
  9 33  1  0
 33 34  2  0
 34 35  1  0
 34  6  1  0
 25 10  1  0
 32 26  1  0
 23 17  1  0
  1 36  1  0
  1 37  1  0
  1 38  1  0
  7 39  1  0
  8 40  1  0
 16 41  1  0
 16 42  1  0
 18 43  1  0
 19 44  1  0
 22 45  1  0
 23 46  1  0
 24 47  1  0
 27 48  1  0
 28 49  1  0
 29 50  1  0
 32 51  1  0
 33 52  1  0
M  CHG  4   5  -1  15  -1  31  -1  35  -1
M  END
>  <UniqueID>  (15) 
12

>  <SMILES>  (15) 
CS(=O)(=O)[N-]c1ccc(-n2nc(C(=O)[N-]Cc3ccc(F)cc3)cc2-c2cccc([O-])c2)cc1[O-]

>  <Energy>  (15) 
95.83282549531154

>  <Genealogy>  (15) 
CS(=O)(=O)[N-]c1ccc(-n2nc(C(=O)[N-]Cc3ccc(F)cc3)cc2-c2cccc([O-])c2)cc1[O-] (protonated)
CS(=O)(=O)[N-]c1ccc(-n2nc(C(=O)[N-]Cc3ccc(F)cc3)cc2-c2cccc([O-])c2)cc1[O-] (3D coordinates assigned)
CS(=O)(=O)[N-]c1ccc(-n2nc(C(=O)[N-]Cc3ccc(F)cc3)cc2-c2cccc([O-])c2)cc1[O-] (optimized conformer: 95.83282549531154 kcal/mol)

>  <smiles>  (15) 
CS(=O)(=O)Nc1ccc(-n2nc(C(=O)NCc3ccc(F)cc3)cc2-c2cccc(O)c2)cc1O

>  <score_type>  (15) 
oracle

>  <origin>  (15) 
adg

>  <m_score__min__energy>  (15) 
-17.23

>  <m_primary>  (15) 
energy

$$$$
15:0
     RDKit          3D

 44 47  0  0  0  0  0  0  0  0999 V2000
   57.7120   27.2860   45.6220 C   0  0  0  0  0  0  0  0  0  0  0  0
   58.2500   28.6170   45.4290 N   0  0  0  0  0  0  0  0  0  0  0  0
   59.6860   28.8390   45.4290 C   0  0  0  0  0  0  0  0  0  0  0  0
   57.3280   29.6810   45.2380 C   0  0  0  0  0  0  0  0  0  0  0  0
   56.0990   29.3950   45.2460 O   0  0  0  0  0  0  0  0  0  0  0  0
   57.7470   31.0670   45.0360 C   0  0  0  0  0  0  0  0  0  0  0  0
   57.4670   31.6290   43.8090 C   0  0  0  0  0  0  0  0  0  0  0  0
   57.8590   32.9360   43.6210 C   0  0  0  0  0  0  0  0  0  0  0  0
   58.5000   33.6920   44.5700 C   0  0  0  0  0  0  0  0  0  0  0  0
   58.7790   33.1320   45.7910 C   0  0  0  0  0  0  0  0  0  0  0  0
   58.3880   31.8180   45.9870 C   0  0  0  0  0  0  0  0  0  0  0  0
   59.4110   34.0350   46.5770 C   0  0  0  0  0  0  0  0  0  0  0  0
   59.8270   33.7050   47.9500 C   0  0  0  0  0  0  0  0  0  0  0  0
   61.1400   33.0380   48.0700 C   0  0  0  0  0  0  0  0  0  0  0  0
   62.2420   33.8050   47.6510 C   0  0  0  0  0  0  0  0  0  0  0  0
   63.5360   33.3590   47.7490 C   0  0  0  0  0  0  0  0  0  0  0  0
   63.7350   32.1080   48.2830 C   0  0  0  0  0  0  0  0  0  0  0  0
   62.6710   31.3450   48.6960 C   0  0  0  0  0  0  0  0  0  0  0  0
   61.3490   31.7940   48.5970 C   0  0  0  0  0  0  0  0  0  0  0  0
   60.2930   30.8790   48.9980 C   0  0  0  0  0  0  0  0  0  0  0  0
   59.9580   29.6680   48.4770 N   0  0  0  0  0  0  0  0  0  0  0  0
   58.9240   29.1720   49.1580 N   0  0  0  0  0  0  0  0  0  0  0  0
   58.6190   30.0620   50.0920 C   0  0  0  0  0  0  0  0  0  0  0  0
   57.7300   30.0730   50.9870 O   0  0  0  0  0  0  0  0  0  0  0  0
   59.4640   31.0780   49.9670 O   0  0  0  0  0  0  0  0  0  0  0  0
   59.5060   35.2120   45.7580 C   0  0  0  0  0  0  0  0  0  0  0  0
   60.0020   36.3210   46.0130 O   0  0  0  0  0  0  0  0  0  0  0  0
   58.9020   34.9100   44.4960 N   0  0  0  0  0  0  0  0  0  0  0  0
   57.6276   27.0772   46.6987 H   0  0  0  0  0  0  0  0  0  0  0  0
   56.7172   27.2216   45.1569 H   0  0  0  0  0  0  0  0  0  0  0  0
   58.3826   26.5484   45.1569 H   0  0  0  0  0  0  0  0  0  0  0  0
   60.0484   28.8950   46.4661 H   0  0  0  0  0  0  0  0  0  0  0  0
   60.1856   28.0074   44.9105 H   0  0  0  0  0  0  0  0  0  0  0  0
   59.9111   29.7826   44.9105 H   0  0  0  0  0  0  0  0  0  0  0  0
   56.9552   31.0611   43.0181 H   0  0  0  0  0  0  0  0  0  0  0  0
   57.6446   33.4033   42.6486 H   0  0  0  0  0  0  0  0  0  0  0  0
   58.6037   31.3512   46.9594 H   0  0  0  0  0  0  0  0  0  0  0  0
   59.8675   34.6408   48.5268 H   0  0  0  0  0  0  0  0  0  0  0  0
   59.0853   32.9857   48.3274 H   0  0  0  0  0  0  0  0  0  0  0  0
   62.0590   34.8035   47.2273 H   0  0  0  0  0  0  0  0  0  0  0  0
   64.3809   33.9782   47.4134 H   0  0  0  0  0  0  0  0  0  0  0  0
   64.7575   31.7142   48.3804 H   0  0  0  0  0  0  0  0  0  0  0  0
   62.8638   30.3479   49.1186 H   0  0  0  0  0  0  0  0  0  0  0  0
   58.4260   28.2600   49.0130 H   0  0  0  0  0  0  0  0  0  0  0  0
  1  2  1  0
  2  3  1  0
  2  4  1  0
  4  5  2  0
  4  6  1  0
  6  7  1  0
  7  8  2  0
  8  9  1  0
  9 10  1  0
 10 11  1  0
 10 12  2  0
 12 13  1  0
 13 14  1  0
 14 15  2  0
 15 16  1  0
 16 17  2  0
 17 18  1  0
 18 19  2  0
 19 20  1  0
 20 21  2  0
 21 22  1  0
 22 23  1  0
 23 24  2  0
 23 25  1  0
 12 26  1  0
 26 27  2  0
 26 28  1  0
 11  6  2  0
 19 14  1  0
 25 20  1  0
 28  9  2  0
  1 29  1  0
  1 30  1  0
  1 31  1  0
  3 32  1  0
  3 33  1  0
  3 34  1  0
  7 35  1  0
  8 36  1  0
 11 37  1  0
 13 38  1  0
 13 39  1  0
 15 40  1  0
 16 41  1  0
 17 42  1  0
 18 43  1  0
 22 44  1  0
M  END
>  <smiles>  (16) 
CN(C)C(=O)c1ccc2c(c1)=C(Cc1ccccc1-c1n[nH]c(=O)o1)C(=O)N=2

>  <score_type>  (16) 
oracle

>  <origin>  (16) 
adg

>  <m_score__min__energy>  (16) 
-9.5

>  <m_primary>  (16) 
energy

$$$$
16:0
     RDKit          3D

 70 75  0  0  0  0  0  0  0  0999 V2000
   64.8124   34.2886   49.7352 H   0  0  0  0  0  0  0  0  0  0  0  0
   64.3970   33.3150   49.4360 C   0  0  0  0  0  0  0  0  0  0  0  0
   64.2020   32.2890   50.4780 C   0  0  0  0  0  0  0  0  0  0  0  0
   65.1510   32.0500   51.2760 O   0  0  0  0  0  0  0  0  0  0  0  0
   62.9650   31.5380   50.5360 N   0  0  0  0  0  0  0  0  0  0  0  0
   62.7270   31.2930   49.5470 H   0  0  0  0  0  0  0  0  0  0  0  0
   61.8560   32.3490   51.0850 C   0  0  0  0  0  0  0  0  0  0  0  0
   61.8443   33.3317   50.5908 H   0  0  0  0  0  0  0  0  0  0  0  0
   62.0043   32.4768   52.1674 H   0  0  0  0  0  0  0  0  0  0  0  0
   60.5050   31.6360   50.8390 C   0  0  0  0  0  0  0  0  0  0  0  0
   60.0560   32.0176   49.9101 H   0  0  0  0  0  0  0  0  0  0  0  0
   59.8338   31.8336   51.6878 H   0  0  0  0  0  0  0  0  0  0  0  0
   60.7140   30.1850   50.7180 N   0  0  0  0  0  0  0  0  0  0  0  0
   60.1910   29.4690   49.5780 C   0  0  0  0  0  0  0  0  0  0  0  0
   59.0710   29.9530   48.8750 C   0  0  0  0  0  0  0  0  0  0  0  0
   58.6069   30.9039   49.1757 H   0  0  0  0  0  0  0  0  0  0  0  0
   58.5450   29.2350   47.7990 C   0  0  0  0  0  0  0  0  0  0  0  0
   57.6723   29.6248   47.2546 H   0  0  0  0  0  0  0  0  0  0  0  0
   59.1230   28.0230   47.4110 C   0  0  0  0  0  0  0  0  0  0  0  0
   58.5590   27.2820   46.3200 N   0  0  0  0  0  0  0  0  0  0  0  0
   58.5340   27.6790   45.0320 C   0  0  0  0  0  0  0  0  0  0  0  0
   59.1440   28.9500   44.5240 C   0  0  0  0  0  0  0  0  0  0  0  0
   59.4454   29.5779   45.3754 H   0  0  0  0  0  0  0  0  0  0  0  0
   60.0269   28.7139   43.9119 H   0  0  0  0  0  0  0  0  0  0  0  0
   58.4075   29.4911   43.9119 H   0  0  0  0  0  0  0  0  0  0  0  0
   57.8560   26.7570   44.2580 C   0  0  0  0  0  0  0  0  0  0  0  0
   57.6790   26.8137   43.1738 H   0  0  0  0  0  0  0  0  0  0  0  0
   57.4400   25.7420   45.1160 C   0  0  0  0  0  0  0  0  0  0  0  0
   56.7460   24.6290   44.7930 C   0  0  0  0  0  0  0  0  0  0  0  0
   57.3009   23.8171   44.3001 H   0  0  0  0  0  0  0  0  0  0  0  0
   55.3050   24.4060   45.0440 C   0  0  0  0  0  0  0  0  0  0  0  0
   54.6100   23.2970   44.7340 N   0  0  0  0  0  0  0  0  0  0  0  0
   53.3470   23.5990   45.1010 C   0  0  0  0  0  0  0  0  0  0  0  0
   52.3900   22.7920   44.9720 O   0  0  0  0  0  0  0  0  0  0  0  0
   53.1900   24.8350   45.6220 N   0  0  0  0  0  0  0  0  0  0  0  0
   54.4370   25.3320   45.5750 C   0  0  0  0  0  0  0  0  0  0  0  0
   54.7750   26.6060   46.0130 O   0  0  0  0  0  0  0  0  0  0  0  0
   57.8970   26.1030   46.3910 C   0  0  0  0  0  0  0  0  0  0  0  0
   57.7100   25.4250   47.5350 C   0  0  0  0  0  0  0  0  0  0  0  0
   58.1208   25.8140   48.4783 H   0  0  0  0  0  0  0  0  0  0  0  0
   57.1460   24.4806   47.5287 H   0  0  0  0  0  0  0  0  0  0  0  0
   60.2380   27.5300   48.1030 C   0  0  0  0  0  0  0  0  0  0  0  0
   60.7990   26.3510   47.7400 F   0  0  0  0  0  0  0  0  0  0  0  0
   60.7680   28.2500   49.1810 C   0  0  0  0  0  0  0  0  0  0  0  0
   61.6426   27.8587   49.7213 H   0  0  0  0  0  0  0  0  0  0  0  0
   61.7470   29.5930   51.5720 C   0  0  0  0  0  0  0  0  0  0  0  0
   61.8206   28.5158   51.3619 H   0  0  0  0  0  0  0  0  0  0  0  0
   61.4775   29.7486   52.6271 H   0  0  0  0  0  0  0  0  0  0  0  0
   63.1100   30.2640   51.2910 C   0  0  0  0  0  0  0  0  0  0  0  0
   63.7306   29.5723   50.7025 H   0  0  0  0  0  0  0  0  0  0  0  0
   63.5774   30.4969   52.2591 H   0  0  0  0  0  0  0  0  0  0  0  0
   64.0950   33.1240   48.1440 C   0  0  0  0  0  0  0  0  0  0  0  0
   64.9160   33.1832   47.4144 H   0  0  0  0  0  0  0  0  0  0  0  0
   62.7360   32.8390   47.6270 C   0  0  0  0  0  0  0  0  0  0  0  0
   62.4030   31.5250   47.2720 C   0  0  0  0  0  0  0  0  0  0  0  0
   63.1435   30.7220   47.4019 H   0  0  0  0  0  0  0  0  0  0  0  0
   61.1410   31.2240   46.7550 C   0  0  0  0  0  0  0  0  0  0  0  0
   60.8894   30.1859   46.4922 H   0  0  0  0  0  0  0  0  0  0  0  0
   60.1940   32.2410   46.5700 C   0  0  0  0  0  0  0  0  0  0  0  0
   58.9240   31.9520   46.0500 C   0  0  0  0  0  0  0  0  0  0  0  0
   58.6594   30.9158   45.7925 H   0  0  0  0  0  0  0  0  0  0  0  0
   57.9930   32.9780   45.8580 C   0  0  0  0  0  0  0  0  0  0  0  0
   56.9984   32.7472   45.4489 H   0  0  0  0  0  0  0  0  0  0  0  0
   58.3240   34.2960   46.1850 C   0  0  0  0  0  0  0  0  0  0  0  0
   57.5874   35.0990   46.0348 H   0  0  0  0  0  0  0  0  0  0  0  0
   59.5870   34.5980   46.7020 C   0  0  0  0  0  0  0  0  0  0  0  0
   59.8438   35.6375   46.9538 H   0  0  0  0  0  0  0  0  0  0  0  0
   60.5280   33.5750   46.9000 C   0  0  0  0  0  0  0  0  0  0  0  0
   61.7990   33.8680   47.4100 C   0  0  0  0  0  0  0  0  0  0  0  0
   62.0674   34.9091   47.6427 H   0  0  0  0  0  0  0  0  0  0  0  0
  1  2  1  0
  2  3  1  0
  3  4  2  0
  3  5  1  0
  5  6  1  0
  5  7  1  0
  7  8  1  0
  7  9  1  0
  7 10  1  0
 10 11  1  0
 10 12  1  0
 10 13  1  0
 13 14  1  0
 14 15  2  0
 15 16  1  0
 15 17  1  0
 17 18  1  0
 17 19  2  0
 19 20  1  0
 20 21  1  0
 21 22  1  0
 22 23  1  0
 22 24  1  0
 22 25  1  0
 21 26  2  0
 26 27  1  0
 26 28  1  0
 28 29  2  0
 29 30  1  0
 29 31  1  0
 31 32  1  0
 32 33  1  0
 33 34  2  0
 33 35  1  0
 35 36  1  0
 36 37  1  0
 28 38  1  0
 38 39  2  0
 39 40  1  0
 39 41  1  0
 19 42  1  0
 42 43  1  0
 42 44  2  0
 44 45  1  0
 13 46  1  0
 46 47  1  0
 46 48  1  0
 46 49  1  0
 49 50  1  0
 49 51  1  0
  2 52  2  3
 52 53  1  0
 52 54  1  0
 54 55  2  0
 55 56  1  0
 55 57  1  0
 57 58  1  0
 57 59  2  0
 59 60  1  0
 60 61  1  0
 60 62  2  0
 62 63  1  0
 62 64  1  0
 64 65  1  0
 64 66  2  0
 66 67  1  0
 66 68  1  0
 68 69  2  0
 69 70  1  0
 49  5  1  0
 69 54  1  0
 44 14  1  0
 68 59  1  0
 38 20  1  0
 36 31  2  0
M  CHG  4   5   1  32  -1  35  -1  37  -1
M  END
>  <UniqueID>  (17) 
13

>  <SMILES>  (17) 
C=c1/c(=C/c2[n-]c(=O)[n-]c2[O-])cc(C)n1-c1ccc(N2CC[NH+](C(=O)C=Cc3ccc4ccccc4c3)CC2)cc1F

>  <Energy>  (17) 
174.68747261704763

>  <Genealogy>  (17) 
C=c1c(=Cc2[n-]c(=O)[n-]c2[O-])cc(C)n1-c1ccc(N2CC[NH+](C(=O)C=Cc3ccc4ccccc4c3)CC2)cc1F (protonated)
C=c1/c(=C/c2[n-]c(=O)[n-]c2[O-])cc(C)n1-c1ccc(N2CC[NH+](C(=O)C=Cc3ccc4ccccc4c3)CC2)cc1F (cis-trans isomerization)
C=c1/c(=C/c2[n-]c(=O)[n-]c2[O-])cc(C)n1-c1ccc(N2CC[NH+](C(=O)C=Cc3ccc4ccccc4c3)CC2)cc1F (3D coordinates assigned)
C=c1/c(=C/c2[n-]c(=O)[n-]c2[O-])cc(C)n1-c1ccc(N2CC[NH+](C(=O)C=Cc3ccc4ccccc4c3)CC2)cc1F (nonaromatic ring conformer: 174.68747261704763 kcal/mol)

>  <smiles>  (17) 
C=c1c(=Cc2[nH]c(=O)[nH]c2O)cc(C)n1-c1ccc(N2CCN(C(=O)C=Cc3ccc4ccccc4c3)CC2)cc1F

>  <score_type>  (17) 
oracle

>  <origin>  (17) 
adg

>  <m_score__min__energy>  (17) 
-18.510000000000002

>  <m_primary>  (17) 
energy

$$$$
17:0
     RDKit          3D

 56 59  0  0  0  0  0  0  0  0999 V2000
   51.7420   32.1110   49.1090 H   0  0  0  0  0  0  0  0  0  0  0  0
   51.3930   32.7250   49.8340 O   0  0  0  0  0  0  0  0  0  0  0  0
   51.3150   32.3130   51.1630 C   0  0  0  0  0  0  0  0  0  0  0  0
   50.3270   32.6850   51.9930 N   0  0  0  0  0  0  0  0  0  0  0  0
   50.6260   32.0190   53.1290 C   0  0  0  0  0  0  0  0  0  0  0  0
   49.9190   32.1000   54.1670 O   0  0  0  0  0  0  0  0  0  0  0  0
   51.7350   31.2510   53.0630 N   0  0  0  0  0  0  0  0  0  0  0  0
   52.1860   31.4640   51.8150 C   0  0  0  0  0  0  0  0  0  0  0  0
   53.3380   30.7560   51.2400 C   0  0  0  0  0  0  0  0  0  0  0  0
   53.2475   30.4144   50.1983 H   0  0  0  0  0  0  0  0  0  0  0  0
   54.4960   30.4880   51.8760 C   0  0  0  0  0  0  0  0  0  0  0  0
   55.6680   31.1720   51.6090 C   0  0  0  0  0  0  0  0  0  0  0  0
   55.8084   31.9590   50.8534 H   0  0  0  0  0  0  0  0  0  0  0  0
   56.6270   30.6810   52.4690 C   0  0  0  0  0  0  0  0  0  0  0  0
   58.0230   31.1580   52.5170 C   0  0  0  0  0  0  0  0  0  0  0  0
   58.6970   30.9750   53.5640 O   0  0  0  0  0  0  0  0  0  0  0  0
   58.6290   31.8340   51.4090 N   0  0  0  0  0  0  0  0  0  0  0  0
   58.6490   31.3420   50.0310 C   0  0  2  0  0  0  0  0  0  0  0  0
   57.6897   30.8521   49.8080 H   0  0  0  0  0  0  0  0  0  0  0  0
   59.7620   30.3060   49.8480 C   0  0  0  0  0  0  0  0  0  0  0  0
   60.7400   30.8031   49.9286 H   0  0  0  0  0  0  0  0  0  0  0  0
   59.6716   29.5353   50.6277 H   0  0  0  0  0  0  0  0  0  0  0  0
   59.6390   29.6480   48.4720 C   0  0  0  0  0  0  0  0  0  0  0  0
   60.5441   29.0498   48.2902 H   0  0  0  0  0  0  0  0  0  0  0  0
   58.7276   29.0323   48.4887 H   0  0  0  0  0  0  0  0  0  0  0  0
   59.4800   30.6710   47.3030 C   0  0  1  0  0  0  0  0  0  0  0  0
   60.3822   30.4887   46.7007 H   0  0  0  0  0  0  0  0  0  0  0  0
   58.3230   30.4080   46.4040 N   0  0  0  0  0  0  0  0  0  0  0  0
   58.1110   31.4980   45.4260 C   0  0  0  0  0  0  0  0  0  0  0  0
   57.7949   32.4048   45.9625 H   0  0  0  0  0  0  0  0  0  0  0  0
   59.0555   31.6734   44.8902 H   0  0  0  0  0  0  0  0  0  0  0  0
   57.0300   31.1210   44.3970 C   0  0  0  0  0  0  0  0  0  0  0  0
   56.4082   32.0033   44.1853 H   0  0  0  0  0  0  0  0  0  0  0  0
   57.5209   30.7736   43.4759 H   0  0  0  0  0  0  0  0  0  0  0  0
   56.2110   30.0840   44.8980 O   0  0  0  0  0  0  0  0  0  0  0  0
   56.9630   28.8870   45.0010 C   0  0  0  0  0  0  0  0  0  0  0  0
   56.3633   28.1401   45.5419 H   0  0  0  0  0  0  0  0  0  0  0  0
   57.2010   28.5553   43.9796 H   0  0  0  0  0  0  0  0  0  0  0  0
   58.3000   29.0850   45.7510 C   0  0  0  0  0  0  0  0  0  0  0  0
   58.4088   28.3004   46.5143 H   0  0  0  0  0  0  0  0  0  0  0  0
   59.1295   29.0239   45.0312 H   0  0  0  0  0  0  0  0  0  0  0  0
   59.5460   32.1630   47.7350 C   0  0  0  0  0  0  0  0  0  0  0  0
   60.6070   32.4368   47.8317 H   0  0  0  0  0  0  0  0  0  0  0  0
   59.0017   32.7171   46.9561 H   0  0  0  0  0  0  0  0  0  0  0  0
   58.8430   32.5260   49.0650 C   0  0  0  0  0  0  0  0  0  0  0  0
   59.4478   33.2899   49.5755 H   0  0  0  0  0  0  0  0  0  0  0  0
   57.8360   32.8800   48.7992 H   0  0  0  0  0  0  0  0  0  0  0  0
   56.1030   29.7130   53.2570 N   0  0  0  0  0  0  0  0  0  0  0  0
   56.8380   28.8800   54.2150 C   0  0  0  0  0  0  0  0  0  0  0  0
   56.5736   29.1796   55.2398 H   0  0  0  0  0  0  0  0  0  0  0  0
   56.5723   27.8236   54.0618 H   0  0  0  0  0  0  0  0  0  0  0  0
   57.9192   29.0121   54.0618 H   0  0  0  0  0  0  0  0  0  0  0  0
   54.8080   29.5550   52.8790 C   0  0  0  0  0  0  0  0  0  0  0  0
   54.0250   28.5660   53.3390 C   0  0  0  0  0  0  0  0  0  0  0  0
   54.3910   27.8990   54.1335 H   0  0  0  0  0  0  0  0  0  0  0  0
   53.0175   28.4227   52.9214 H   0  0  0  0  0  0  0  0  0  0  0  0
  1  2  1  0
  2  3  1  0
  3  4  1  0
  4  5  1  0
  5  6  2  0
  5  7  1  0
  7  8  1  0
  8  9  1  0
  9 10  1  0
  9 11  2  0
 11 12  1  0
 12 13  1  0
 12 14  2  0
 14 15  1  0
 15 16  2  0
 15 17  1  0
 17 18  1  0
 18 19  1  6
 18 20  1  0
 20 21  1  0
 20 22  1  0
 20 23  1  0
 23 24  1  0
 23 25  1  0
 23 26  1  0
 26 27  1  6
 26 28  1  0
 28 29  1  0
 29 30  1  0
 29 31  1  0
 29 32  1  0
 32 33  1  0
 32 34  1  0
 32 35  1  0
 35 36  1  0
 36 37  1  0
 36 38  1  0
 36 39  1  0
 39 40  1  0
 39 41  1  0
 26 42  1  0
 42 43  1  0
 42 44  1  0
 42 45  1  0
 45 46  1  0
 45 47  1  0
 14 48  1  0
 48 49  1  0
 49 50  1  0
 49 51  1  0
 49 52  1  0
 48 53  1  0
 53 54  2  0
 54 55  1  0
 54 56  1  0
  8  3  2  0
 53 11  1  0
 45 18  1  0
 39 28  1  0
M  CHG  3   4  -1   7  -1  17  -1
M  END
>  <UniqueID>  (18) 
14

>  <SMILES>  (18) 
C=c1/c(=C\c2[n-]c(=O)[n-]c2O)cc(C(=O)[N-]C2CCC(N3CCOCC3)CC2)n1C

>  <Energy>  (18) 
152.0865223943544

>  <Genealogy>  (18) 
C=c1c(=Cc2[n-]c(=O)[n-]c2O)cc(C(=O)[N-]C2CCC(N3CCOCC3)CC2)n1C (protonated)
C=c1/c(=C\c2[n-]c(=O)[n-]c2O)cc(C(=O)[N-]C2CCC(N3CCOCC3)CC2)n1C (cis-trans isomerization)
C=c1/c(=C\c2[n-]c(=O)[n-]c2O)cc(C(=O)[N-]C2CCC(N3CCOCC3)CC2)n1C (3D coordinates assigned)
C=c1/c(=C\c2[n-]c(=O)[n-]c2O)cc(C(=O)[N-]C2CCC(N3CCOCC3)CC2)n1C (nonaromatic ring conformer: 152.0865223943544 kcal/mol)

>  <smiles>  (18) 
C=c1c(=Cc2[nH]c(=O)[nH]c2O)cc(C(=O)NC2CCC(N3CCOCC3)CC2)n1C

>  <score_type>  (18) 
oracle

>  <origin>  (18) 
adg

>  <m_score__min__energy>  (18) 
-15.640000000000001

>  <m_primary>  (18) 
energy

$$$$
18:0
     RDKit          3D

 85 89  0  0  0  0  0  0  0  0999 V2000
   59.0350   33.6120   55.1290 C   0  0  0  0  0  0  0  0  0  0  0  0
   58.5010   32.6630   54.3510 C   0  0  0  0  0  0  0  0  0  0  0  0
   57.8160   31.4850   54.9500 C   0  0  0  0  0  0  0  0  0  0  0  0
   56.6370   31.2180   54.5970 O   0  0  0  0  0  0  0  0  0  0  0  0
   58.4770   30.5790   55.8470 N   0  0  0  0  0  0  0  0  0  0  0  0
   59.3720   29.6790   55.5440 C   0  0  0  0  0  0  0  0  0  0  0  0
   59.8750   29.4330   54.1750 C   0  0  0  0  0  0  0  0  0  0  0  0
   61.0690   30.0460   53.7650 C   0  0  0  0  0  0  0  0  0  0  0  0
   61.5620   29.8440   52.4740 C   0  0  0  0  0  0  0  0  0  0  0  0
   60.8700   29.0230   51.5690 C   0  0  0  0  0  0  0  0  0  0  0  0
   61.4030   28.8190   50.1660 C   0  0  1  0  0  0  0  0  0  0  0  0
   60.3420   28.3220   49.2900 N   0  0  0  0  0  0  0  0  0  0  0  0
   61.9390   30.0790   49.6420 N   0  0  0  0  0  0  0  0  0  0  0  0
   59.6480   28.4470   51.9660 C   0  0  0  0  0  0  0  0  0  0  0  0
   59.1480   28.6640   53.2520 C   0  0  0  0  0  0  0  0  0  0  0  0
   58.6660   32.7400   52.8760 C   0  0  0  0  0  0  0  0  0  0  0  0
   59.2980   33.8480   52.2830 C   0  0  0  0  0  0  0  0  0  0  0  0
   59.5240   33.8800   50.9040 C   0  0  0  0  0  0  0  0  0  0  0  0
   59.1110   32.8160   50.0900 C   0  0  0  0  0  0  0  0  0  0  0  0
   59.4190   32.8150   48.6820 N   0  0  0  0  0  0  0  0  0  0  0  0
   59.0400   33.9630   47.8460 C   0  0  0  0  0  0  0  0  0  0  0  0
   58.5650   33.4990   46.4920 C   0  0  0  0  0  0  0  0  0  0  0  0
   58.8780   34.2400   45.3430 C   0  0  0  0  0  0  0  0  0  0  0  0
   58.4570   33.8020   44.0870 C   0  0  0  0  0  0  0  0  0  0  0  0
   57.7260   32.6180   43.9630 C   0  0  0  0  0  0  0  0  0  0  0  0
   57.4100   31.8580   45.1040 C   0  0  0  0  0  0  0  0  0  0  0  0
   56.6850   30.6590   45.0310 O   0  0  0  0  0  0  0  0  0  0  0  0
   56.6110   29.8280   43.8760 C   0  0  0  0  0  0  0  0  0  0  0  0
   57.8330   32.3050   46.3630 C   0  0  0  0  0  0  0  0  0  0  0  0
   60.2720   31.7920   48.1310 C   0  0  0  0  0  0  0  0  0  0  0  0
   59.9110   30.5850   48.2020 O   0  0  0  0  0  0  0  0  0  0  0  0
   61.5570   32.1250   47.3920 C   0  0  1  0  0  0  0  0  0  0  0  0
   61.5760   33.4450   46.6230 C   0  0  0  0  0  0  0  0  0  0  0  0
   63.0460   33.8210   46.5490 C   0  0  0  0  0  0  0  0  0  0  0  0
   63.7700   32.7790   47.3990 C   0  0  0  0  0  0  0  0  0  0  0  0
   62.7700   32.0990   48.2340 N   0  0  0  0  0  0  0  0  0  0  0  0
   62.5920   32.9660   49.7600 S   0  0  0  0  0  0  0  0  0  0  0  0
   61.8780   34.2750   49.5510 O   0  0  0  0  0  0  0  0  0  0  0  0
   61.8060   32.1490   50.7480 O   0  0  0  0  0  0  0  0  0  0  0  0
   64.1790   33.2620   50.4720 C   0  0  0  0  0  0  0  0  0  0  0  0
   64.3290   34.2730   51.4300 C   0  0  0  0  0  0  0  0  0  0  0  0
   65.5730   34.4900   52.0310 C   0  0  0  0  0  0  0  0  0  0  0  0
   66.6690   33.6950   51.6790 C   0  0  0  0  0  0  0  0  0  0  0  0
   66.5250   32.6860   50.7250 C   0  0  0  0  0  0  0  0  0  0  0  0
   65.2820   32.4670   50.1210 C   0  0  0  0  0  0  0  0  0  0  0  0
   58.4510   31.7280   50.6750 C   0  0  0  0  0  0  0  0  0  0  0  0
   58.2400   31.6830   52.0560 C   0  0  0  0  0  0  0  0  0  0  0  0
   59.5385   34.4775   54.6737 H   0  0  0  0  0  0  0  0  0  0  0  0
   58.9704   33.5265   56.2238 H   0  0  0  0  0  0  0  0  0  0  0  0
   59.7788   29.0633   56.3597 H   0  0  0  0  0  0  0  0  0  0  0  0
   61.6206   30.6902   54.4655 H   0  0  0  0  0  0  0  0  0  0  0  0
   62.4983   30.3311   52.1641 H   0  0  0  0  0  0  0  0  0  0  0  0
   62.2123   28.0748   50.2000 H   0  0  0  0  0  0  0  0  0  0  0  0
   60.6100   28.5230   48.2980 H   0  0  0  0  0  0  0  0  0  0  0  0
   59.4770   28.8760   49.4790 H   0  0  0  0  0  0  0  0  0  0  0  0
   62.8640   30.2940   50.0830 H   0  0  0  0  0  0  0  0  0  0  0  0
   62.0560   30.0140   48.6040 H   0  0  0  0  0  0  0  0  0  0  0  0
   61.2750   30.8590   49.8560 H   0  0  0  0  0  0  0  0  0  0  0  0
   59.0833   27.8219   51.2586 H   0  0  0  0  0  0  0  0  0  0  0  0
   58.1799   28.2303   53.5432 H   0  0  0  0  0  0  0  0  0  0  0  0
   59.6165   34.6948   52.9086 H   0  0  0  0  0  0  0  0  0  0  0  0
   60.0299   34.7469   50.4539 H   0  0  0  0  0  0  0  0  0  0  0  0
   58.2312   34.5199   48.3417 H   0  0  0  0  0  0  0  0  0  0  0  0
   59.9196   34.6095   47.7111 H   0  0  0  0  0  0  0  0  0  0  0  0
   59.4579   35.1705   45.4325 H   0  0  0  0  0  0  0  0  0  0  0  0
   58.7016   34.3912   43.1909 H   0  0  0  0  0  0  0  0  0  0  0  0
   57.3964   32.2788   42.9699 H   0  0  0  0  0  0  0  0  0  0  0  0
   56.5174   28.7768   44.1860 H   0  0  0  0  0  0  0  0  0  0  0  0
   55.7346   30.1125   43.2751 H   0  0  0  0  0  0  0  0  0  0  0  0
   57.5238   29.9532   43.2751 H   0  0  0  0  0  0  0  0  0  0  0  0
   57.5900   31.7159   47.2596 H   0  0  0  0  0  0  0  0  0  0  0  0
   61.5728   31.3001   46.6644 H   0  0  0  0  0  0  0  0  0  0  0  0
   61.1571   33.3135   45.6144 H   0  0  0  0  0  0  0  0  0  0  0  0
   60.9695   34.2222   47.1111 H   0  0  0  0  0  0  0  0  0  0  0  0
   63.4015   33.7845   45.5087 H   0  0  0  0  0  0  0  0  0  0  0  0
   63.2271   34.8439   46.9107 H   0  0  0  0  0  0  0  0  0  0  0  0
   64.2710   32.0483   46.7470 H   0  0  0  0  0  0  0  0  0  0  0  0
   64.5299   33.2624   48.0306 H   0  0  0  0  0  0  0  0  0  0  0  0
   63.4674   34.8969   51.7099 H   0  0  0  0  0  0  0  0  0  0  0  0
   65.6898   35.2862   52.7809 H   0  0  0  0  0  0  0  0  0  0  0  0
   67.6460   33.8652   52.1548 H   0  0  0  0  0  0  0  0  0  0  0  0
   67.3885   32.0633   50.4482 H   0  0  0  0  0  0  0  0  0  0  0  0
   65.1687   31.6710   49.3702 H   0  0  0  0  0  0  0  0  0  0  0  0
   58.0955   30.9016   50.0420 H   0  0  0  0  0  0  0  0  0  0  0  0
   57.7366   30.8133   52.5035 H   0  0  0  0  0  0  0  0  0  0  0  0
  1  2  2  0
  2  3  1  0
  3  4  2  0
  3  5  1  0
  5  6  2  3
  6  7  1  0
  7  8  2  0
  8  9  1  0
  9 10  2  0
 10 11  1  0
 11 12  1  0
 11 13  1  0
 10 14  1  0
 14 15  2  0
  2 16  1  0
 16 17  2  0
 17 18  1  0
 18 19  2  0
 19 20  1  0
 20 21  1  0
 21 22  1  0
 22 23  2  0
 23 24  1  0
 24 25  2  0
 25 26  1  0
 26 27  1  0
 27 28  1  0
 26 29  2  0
 20 30  1  0
 30 31  2  0
 30 32  1  0
 32 33  1  0
 33 34  1  0
 34 35  1  0
 35 36  1  0
 36 37  1  0
 37 38  2  0
 37 39  2  0
 37 40  1  0
 40 41  2  0
 41 42  1  0
 42 43  2  0
 43 44  1  0
 44 45  2  0
 19 46  1  0
 46 47  2  0
 15  7  1  0
 47 16  1  0
 29 22  1  0
 36 32  1  0
 45 40  1  0
  1 48  1  0
  1 49  1  0
  6 50  1  0
  8 51  1  0
  9 52  1  0
 11 53  1  1
 12 54  1  0
 12 55  1  0
 13 56  1  0
 13 57  1  0
 13 58  1  0
 14 59  1  0
 15 60  1  0
 17 61  1  0
 18 62  1  0
 21 63  1  0
 21 64  1  0
 23 65  1  0
 24 66  1  0
 25 67  1  0
 28 68  1  0
 28 69  1  0
 28 70  1  0
 29 71  1  0
 32 72  1  6
 33 73  1  0
 33 74  1  0
 34 75  1  0
 34 76  1  0
 35 77  1  0
 35 78  1  0
 41 79  1  0
 42 80  1  0
 43 81  1  0
 44 82  1  0
 45 83  1  0
 46 84  1  0
 47 85  1  0
M  CHG  1  13   1
M  END
>  <UniqueID>  (19) 
15

>  <SMILES>  (19) 
C=C(C(=O)N=Cc1ccc([C@@H](N)[NH3+])cc1)c1ccc(N(Cc2cccc(OC)c2)C(=O)[C@H]2CCCN2S(=O)(=O)c2ccccc2)cc1

>  <Energy>  (19) 
118.41500270805763

>  <Genealogy>  (19) 
C=C(C(=O)N=Cc1ccc(C(N)[NH3+])cc1)c1ccc(N(Cc2cccc(OC)c2)C(=O)C2CCCN2S(=O)(=O)c2ccccc2)cc1 (protonated)
C=C(C(=O)N=Cc1ccc([C@@H](N)[NH3+])cc1)c1ccc(N(Cc2cccc(OC)c2)C(=O)[C@H]2CCCN2S(=O)(=O)c2ccccc2)cc1 (chirality)
C=C(C(=O)N=Cc1ccc([C@@H](N)[NH3+])cc1)c1ccc(N(Cc2cccc(OC)c2)C(=O)[C@H]2CCCN2S(=O)(=O)c2ccccc2)cc1 (3D coordinates assigned)
C=C(C(=O)N=Cc1ccc([C@@H](N)[NH3+])cc1)c1ccc(N(Cc2cccc(OC)c2)C(=O)[C@H]2CCCN2S(=O)(=O)c2ccccc2)cc1 (nonaromatic ring conformer: 118.41500270805763 kcal/mol)

>  <smiles>  (19) 
C=C(C(=O)N=Cc1ccc(C(N)N)cc1)c1ccc(N(Cc2cccc(OC)c2)C(=O)C2CCCN2S(=O)(=O)c2ccccc2)cc1

>  <score_type>  (19) 
oracle

>  <origin>  (19) 
adg

>  <m_score__min__energy>  (19) 
-11.300000000000001

>  <m_primary>  (19) 
energy

$$$$
19:0
     RDKit          3D

 49 51  0  0  0  0  0  0  0  0999 V2000
   57.3460   31.5100   42.8570 C   0  0  0  0  0  0  0  0  0  0  0  0
   57.0460   30.3170   43.7140 C   0  0  0  0  0  0  0  0  0  0  0  0
   57.9750   29.2770   43.8430 C   0  0  0  0  0  0  0  0  0  0  0  0
   57.6690   28.1530   44.6140 C   0  0  0  0  0  0  0  0  0  0  0  0
   56.4150   28.0710   45.2550 C   0  0  0  0  0  0  0  0  0  0  0  0
   56.0550   27.0520   45.9860 N   0  0  0  0  0  0  0  0  0  0  0  0
   56.5430   25.7010   45.9520 C   0  0  0  0  0  0  0  0  0  0  0  0
   56.8060   25.1290   44.8600 O   0  0  0  0  0  0  0  0  0  0  0  0
   56.8260   24.9890   47.2360 C   0  0  0  0  0  0  0  0  0  0  0  0
   58.0810   25.4610   47.8070 N   0  0  0  0  0  0  0  0  0  0  0  0
   59.1810   25.9350   47.0200 C   0  0  0  0  0  0  0  0  0  0  0  0
   59.7850   25.1400   46.2480 O   0  0  0  0  0  0  0  0  0  0  0  0
   59.6060   27.3510   47.1090 C   0  0  0  0  0  0  0  0  0  0  0  0
   59.2800   28.1290   48.2340 C   0  0  0  0  0  0  0  0  0  0  0  0
   59.6740   29.4690   48.3090 C   0  0  0  0  0  0  0  0  0  0  0  0
   60.3970   30.0540   47.2610 C   0  0  0  0  0  0  0  0  0  0  0  0
   60.8720   31.7530   47.3480 S   0  0  0  0  0  0  0  0  0  0  0  0
   60.5470   32.2890   48.7130 O   0  0  0  0  0  0  0  0  0  0  0  0
   62.3580   31.8630   47.1460 O   0  0  0  0  0  0  0  0  0  0  0  0
   60.0500   32.7150   46.1390 N   0  0  0  0  0  0  0  0  0  0  0  0
   58.6450   32.2840   46.0060 C   0  0  0  0  0  0  0  0  0  0  0  0
   57.7980   33.3930   45.3620 C   0  0  0  0  0  0  0  0  0  0  0  0
   57.7800   34.6120   46.0970 O   0  0  0  0  0  0  0  0  0  0  0  0
   58.8970   34.7790   46.9600 C   0  0  0  0  0  0  0  0  0  0  0  0
   60.1930   34.1630   46.4020 C   0  0  0  0  0  0  0  0  0  0  0  0
   60.7360   29.2810   46.1440 C   0  0  0  0  0  0  0  0  0  0  0  0
   60.3420   27.9430   46.0650 C   0  0  0  0  0  0  0  0  0  0  0  0
   55.5190   29.0810   45.0780 N   0  0  0  0  0  0  0  0  0  0  0  0
   55.7990   30.1840   44.3340 C   0  0  0  0  0  0  0  0  0  0  0  0
   57.5639   32.3767   43.4984 H   0  0  0  0  0  0  0  0  0  0  0  0
   58.2181   31.2953   42.2219 H   0  0  0  0  0  0  0  0  0  0  0  0
   56.4761   31.7333   42.2219 H   0  0  0  0  0  0  0  0  0  0  0  0
   58.9486   29.3454   43.3357 H   0  0  0  0  0  0  0  0  0  0  0  0
   58.4002   27.3381   44.7205 H   0  0  0  0  0  0  0  0  0  0  0  0
   56.0084   25.1817   47.9462 H   0  0  0  0  0  0  0  0  0  0  0  0
   56.9050   23.9098   47.0382 H   0  0  0  0  0  0  0  0  0  0  0  0
   58.7107   27.6804   49.0615 H   0  0  0  0  0  0  0  0  0  0  0  0
   59.4149   30.0667   49.1954 H   0  0  0  0  0  0  0  0  0  0  0  0
   58.6012   31.3835   45.3758 H   0  0  0  0  0  0  0  0  0  0  0  0
   58.2440   32.0675   47.0072 H   0  0  0  0  0  0  0  0  0  0  0  0
   58.2033   33.5995   44.3604 H   0  0  0  0  0  0  0  0  0  0  0  0
   56.7619   33.0246   45.3336 H   0  0  0  0  0  0  0  0  0  0  0  0
   59.0605   35.8556   47.1156 H   0  0  0  0  0  0  0  0  0  0  0  0
   58.6649   34.2559   47.8994 H   0  0  0  0  0  0  0  0  0  0  0  0
   60.4511   34.6710   45.4611 H   0  0  0  0  0  0  0  0  0  0  0  0
   60.9835   34.2949   47.1555 H   0  0  0  0  0  0  0  0  0  0  0  0
   61.3158   29.7297   45.3240 H   0  0  0  0  0  0  0  0  0  0  0  0
   60.6090   27.3471   45.1798 H   0  0  0  0  0  0  0  0  0  0  0  0
   55.0426   30.9744   44.2192 H   0  0  0  0  0  0  0  0  0  0  0  0
  1  2  1  0
  2  3  1  0
  3  4  2  0
  4  5  1  0
  5  6  2  3
  6  7  1  0
  7  8  2  0
  7  9  1  0
  9 10  1  0
 10 11  1  0
 11 12  2  0
 11 13  1  0
 13 14  2  0
 14 15  1  0
 15 16  2  0
 16 17  1  0
 17 18  2  0
 17 19  2  0
 17 20  1  0
 20 21  1  0
 21 22  1  0
 22 23  1  0
 23 24  1  0
 24 25  1  0
 16 26  1  0
 26 27  2  0
  5 28  1  0
 28 29  1  0
 29  2  2  0
 27 13  1  0
 25 20  1  0
  1 30  1  0
  1 31  1  0
  1 32  1  0
  3 33  1  0
  4 34  1  0
  9 35  1  0
  9 36  1  0
 14 37  1  0
 15 38  1  0
 21 39  1  0
 21 40  1  0
 22 41  1  0
 22 42  1  0
 24 43  1  0
 24 44  1  0
 25 45  1  0
 25 46  1  0
 26 47  1  0
 27 48  1  0
 29 49  1  0
M  CHG  2  10  -1  28  -1
M  END
>  <UniqueID>  (20) 
16

>  <SMILES>  (20) 
Cc1ccc(=NC(=O)C[N-]C(=O)c2ccc(S(=O)(=O)N3CCOCC3)cc2)[n-]c1

>  <Energy>  (20) 
66.90079529884387

>  <Genealogy>  (20) 
Cc1ccc(=NC(=O)C[N-]C(=O)c2ccc(S(=O)(=O)N3CCOCC3)cc2)[n-]c1 (protonated)
Cc1ccc(=NC(=O)C[N-]C(=O)c2ccc(S(=O)(=O)N3CCOCC3)cc2)[n-]c1 (3D coordinates assigned)
Cc1ccc(=NC(=O)C[N-]C(=O)c2ccc(S(=O)(=O)N3CCOCC3)cc2)[n-]c1 (nonaromatic ring conformer: 66.90079529884387 kcal/mol)

>  <smiles>  (20) 
Cc1ccc(=NC(=O)CNC(=O)c2ccc(S(=O)(=O)N3CCOCC3)cc2)[nH]c1

>  <score_type>  (20) 
oracle

>  <origin>  (20) 
adg

>  <m_score__min__energy>  (20) 
-11.75

>  <m_primary>  (20) 
energy

$$$$
20:0
     RDKit          3D

 41 44  0  0  0  0  0  0  0  0999 V2000
   57.0230   31.4210   42.4040 C   0  0  0  0  0  0  0  0  0  0  0  0
   57.7680   31.4370   43.5050 C   0  0  0  0  0  0  0  0  0  0  0  0
   58.6600   30.3910   43.8840 N   0  0  0  0  0  0  0  0  0  0  0  0
   59.2480   30.8190   45.1180 C   0  0  0  0  0  0  0  0  0  0  0  0
   58.7750   32.0570   45.5190 C   0  0  0  0  0  0  0  0  0  0  0  0
   59.2310   32.6540   46.6960 C   0  0  0  0  0  0  0  0  0  0  0  0
   58.7750   33.9110   47.1360 C   0  0  0  0  0  0  0  0  0  0  0  0
   59.2670   34.4610   48.3200 C   0  0  0  0  0  0  0  0  0  0  0  0
   60.2140   33.7690   49.0770 C   0  0  0  0  0  0  0  0  0  0  0  0
   60.6770   32.5210   48.6550 C   0  0  0  0  0  0  0  0  0  0  0  0
   60.1940   31.9460   47.4620 C   0  0  0  0  0  0  0  0  0  0  0  0
   60.6550   30.6780   47.0160 C   0  0  0  0  0  0  0  0  0  0  0  0
   61.5120   30.0560   47.7030 O   0  0  0  0  0  0  0  0  0  0  0  0
   60.1750   30.1230   45.8470 N   0  0  0  0  0  0  0  0  0  0  0  0
   60.6780   28.8240   45.3630 C   0  0  0  0  0  0  0  0  0  0  0  0
   59.5420   27.8620   45.1710 C   0  0  0  0  0  0  0  0  0  0  0  0
   58.9030   27.8690   44.0840 O   0  0  0  0  0  0  0  0  0  0  0  0
   59.2380   26.8950   46.1900 N   0  0  0  0  0  0  0  0  0  0  0  0
   58.0910   26.0290   46.1620 C   0  0  0  0  0  0  0  0  0  0  0  0
   58.2250   24.6290   46.1960 C   0  0  0  0  0  0  0  0  0  0  0  0
   57.0930   23.8110   46.1450 C   0  0  0  0  0  0  0  0  0  0  0  0
   55.8200   24.3790   46.0470 C   0  0  0  0  0  0  0  0  0  0  0  0
   55.6780   25.7690   45.9900 C   0  0  0  0  0  0  0  0  0  0  0  0
   54.4130   26.3340   45.8810 O   0  0  0  0  0  0  0  0  0  0  0  0
   56.8100   26.5900   46.0400 C   0  0  0  0  0  0  0  0  0  0  0  0
   57.8150   32.4960   44.5050 C   0  0  0  0  0  0  0  0  0  0  0  0
   57.1560   33.5690   44.4880 O   0  0  0  0  0  0  0  0  0  0  0  0
   56.3570   32.2669   42.1782 H   0  0  0  0  0  0  0  0  0  0  0  0
   57.0726   30.5619   41.7188 H   0  0  0  0  0  0  0  0  0  0  0  0
   58.8270   29.5040   43.3600 H   0  0  0  0  0  0  0  0  0  0  0  0
   58.0285   34.4613   46.5445 H   0  0  0  0  0  0  0  0  0  0  0  0
   58.9072   35.4439   48.6584 H   0  0  0  0  0  0  0  0  0  0  0  0
   60.5971   34.2086   50.0097 H   0  0  0  0  0  0  0  0  0  0  0  0
   61.4236   31.9830   49.2576 H   0  0  0  0  0  0  0  0  0  0  0  0
   61.1952   28.9703   44.4033 H   0  0  0  0  0  0  0  0  0  0  0  0
   61.3738   28.4106   46.1080 H   0  0  0  0  0  0  0  0  0  0  0  0
   59.9400   26.7500   46.9490 H   0  0  0  0  0  0  0  0  0  0  0  0
   59.2252   24.1761   46.2630 H   0  0  0  0  0  0  0  0  0  0  0  0
   57.2044   22.7173   46.1821 H   0  0  0  0  0  0  0  0  0  0  0  0
   54.9302   23.7331   46.0147 H   0  0  0  0  0  0  0  0  0  0  0  0
   56.6953   27.6825   45.9833 H   0  0  0  0  0  0  0  0  0  0  0  0
  1  2  2  0
  2  3  1  0
  3  4  1  0
  4  5  2  0
  5  6  1  0
  6  7  2  0
  7  8  1  0
  8  9  2  0
  9 10  1  0
 10 11  2  0
 11 12  1  0
 12 13  2  0
 12 14  1  0
 14 15  1  0
 15 16  1  0
 16 17  2  0
 16 18  1  0
 18 19  1  0
 19 20  2  0
 20 21  1  0
 21 22  2  0
 22 23  1  0
 23 24  1  0
 23 25  2  0
  5 26  1  0
 26 27  2  0
 26  2  1  0
 14  4  1  0
 25 19  1  0
 11  6  1  0
  1 28  1  0
  1 29  1  0
  3 30  1  0
  7 31  1  0
  8 32  1  0
  9 33  1  0
 10 34  1  0
 15 35  1  0
 15 36  1  0
 18 37  1  0
 20 38  1  0
 21 39  1  0
 22 40  1  0
 25 41  1  0
M  CHG  1  24  -1
M  END
>  <UniqueID>  (21) 
17

>  <SMILES>  (21) 
C=C1Nc2c(c3ccccc3c(=O)n2CC(=O)Nc2cccc([O-])c2)C1=O

>  <Energy>  (21) 
86.52993591532399

>  <Genealogy>  (21) 
C=C1Nc2c(c3ccccc3c(=O)n2CC(=O)Nc2cccc([O-])c2)C1=O (protonated)
C=C1Nc2c(c3ccccc3c(=O)n2CC(=O)Nc2cccc([O-])c2)C1=O (3D coordinates assigned)
C=C1Nc2c(c3ccccc3c(=O)n2CC(=O)Nc2cccc([O-])c2)C1=O (nonaromatic ring conformer: 86.52993591532399 kcal/mol)

>  <smiles>  (21) 
C=C1Nc2c(c3ccccc3c(=O)n2CC(=O)Nc2cccc(O)c2)C1=O

>  <score_type>  (21) 
oracle

>  <origin>  (21) 
adg

>  <m_score__min__energy>  (21) 
-12.050000000000001

>  <m_primary>  (21) 
energy

$$$$
21:0
     RDKit          3D

 61 64  0  0  0  0  0  0  0  0999 V2000
   60.0190   34.1260   45.3820 C   0  0  0  0  0  0  0  0  0  0  0  0
   59.5320   33.5570   46.4980 C   0  0  0  0  0  0  0  0  0  0  0  0
   58.2010   33.1700   46.7230 C   0  0  0  0  0  0  0  0  0  0  0  0
   57.1620   33.0380   45.8750 C   0  0  0  0  0  0  0  0  0  0  0  0
   57.0360   32.0100   44.8300 C   0  0  0  0  0  0  0  0  0  0  0  0
   56.1750   30.9750   44.8720 N   0  0  0  0  0  0  0  0  0  0  0  0
   56.3220   30.4000   43.6580 C   0  0  0  0  0  0  0  0  0  0  0  0
   55.6820   29.3730   43.3140 O   0  0  0  0  0  0  0  0  0  0  0  0
   57.1990   31.0190   42.8400 N   0  0  0  0  0  0  0  0  0  0  0  0
   57.6310   32.0440   43.5920 C   0  0  0  0  0  0  0  0  0  0  0  0
   58.5460   32.9960   43.1590 O   0  0  0  0  0  0  0  0  0  0  0  0
   58.0990   32.9050   48.0770 C   0  0  0  0  0  0  0  0  0  0  0  0
   59.3620   33.0480   48.6070 C   0  0  0  0  0  0  0  0  0  0  0  0
   59.6850   32.8330   50.0280 C   0  0  0  0  0  0  0  0  0  0  0  0
   60.8430   33.1090   50.4390 O   0  0  0  0  0  0  0  0  0  0  0  0
   58.6900   32.3530   50.9500 N   0  0  0  0  0  0  0  0  0  0  0  0
   58.2880   33.1730   52.1000 C   0  0  0  0  0  0  0  0  0  0  0  0
   57.6830   32.2990   53.1980 C   0  0  0  0  0  0  0  0  0  0  0  0
   56.5690   31.3800   52.6530 C   0  0  0  0  0  0  0  0  0  0  0  0
   56.7620   30.9510   51.2530 N   0  0  0  0  0  0  0  0  0  0  0  0
   58.1650   30.9880   50.8260 C   0  0  0  0  0  0  0  0  0  0  0  0
   60.2420   33.4350   47.6540 N   0  0  0  0  0  0  0  0  0  0  0  0
   61.6270   33.8740   47.9020 C   0  0  0  0  0  0  0  0  0  0  0  0
   62.6060   32.9640   47.2230 C   0  0  0  0  0  0  0  0  0  0  0  0
   63.3920   33.4330   46.3560 O   0  0  0  0  0  0  0  0  0  0  0  0
   62.6800   31.5830   47.5950 N   0  0  0  0  0  0  0  0  0  0  0  0
   61.6760   30.9110   48.4130 C   0  0  0  0  0  0  0  0  0  0  0  0
   60.6970   30.1800   47.5350 C   0  0  0  0  0  0  0  0  0  0  0  0
   60.9300   30.0820   46.1560 C   0  0  0  0  0  0  0  0  0  0  0  0
   60.0150   29.4220   45.3300 C   0  0  0  0  0  0  0  0  0  0  0  0
   58.8430   28.8570   45.8680 C   0  0  0  0  0  0  0  0  0  0  0  0
   57.8780   28.1550   44.9850 C   0  0  0  0  0  0  0  0  0  0  0  0
   58.0730   28.1440   43.7040 N   0  0  0  0  0  0  0  0  0  0  0  0
   56.7240   27.4990   45.5290 N   0  0  0  0  0  0  0  0  0  0  0  0
   58.6170   28.9560   47.2540 C   0  0  0  0  0  0  0  0  0  0  0  0
   59.5350   29.6150   48.0780 C   0  0  0  0  0  0  0  0  0  0  0  0
   61.0855   34.3878   45.3185 H   0  0  0  0  0  0  0  0  0  0  0  0
   59.3511   34.3299   44.5321 H   0  0  0  0  0  0  0  0  0  0  0  0
   56.3381   33.7602   45.9724 H   0  0  0  0  0  0  0  0  0  0  0  0
   58.4910   33.9520   43.4900 H   0  0  0  0  0  0  0  0  0  0  0  0
   57.1849   32.6325   48.6249 H   0  0  0  0  0  0  0  0  0  0  0  0
   59.1707   33.6947   52.4983 H   0  0  0  0  0  0  0  0  0  0  0  0
   57.5327   33.9013   51.7697 H   0  0  0  0  0  0  0  0  0  0  0  0
   58.4771   31.6752   53.6341 H   0  0  0  0  0  0  0  0  0  0  0  0
   57.2386   32.9615   53.9553 H   0  0  0  0  0  0  0  0  0  0  0  0
   56.5248   30.4810   53.2853 H   0  0  0  0  0  0  0  0  0  0  0  0
   55.6389   31.9668   52.6760 H   0  0  0  0  0  0  0  0  0  0  0  0
   56.2210   31.5970   50.6290 H   0  0  0  0  0  0  0  0  0  0  0  0
   58.7568   30.3108   51.4594 H   0  0  0  0  0  0  0  0  0  0  0  0
   58.2320   30.6687   49.7755 H   0  0  0  0  0  0  0  0  0  0  0  0
   61.7560   34.8954   47.5145 H   0  0  0  0  0  0  0  0  0  0  0  0
   61.8155   33.8477   48.9854 H   0  0  0  0  0  0  0  0  0  0  0  0
   62.1730   30.1919   49.0807 H   0  0  0  0  0  0  0  0  0  0  0  0
   61.1349   31.6621   49.0072 H   0  0  0  0  0  0  0  0  0  0  0  0
   61.8375   30.5267   45.7215 H   0  0  0  0  0  0  0  0  0  0  0  0
   60.2125   29.3435   44.2507 H   0  0  0  0  0  0  0  0  0  0  0  0
   57.8210   28.9570   43.1000 H   0  0  0  0  0  0  0  0  0  0  0  0
   56.0830   26.9550   44.9100 H   0  0  0  0  0  0  0  0  0  0  0  0
   56.4550   27.6100   46.5310 H   0  0  0  0  0  0  0  0  0  0  0  0
   57.7113   28.5115   47.6923 H   0  0  0  0  0  0  0  0  0  0  0  0
   59.3439   29.6903   49.1587 H   0  0  0  0  0  0  0  0  0  0  0  0
  1  2  2  0
  2  3  1  0
  3  4  2  3
  4  5  1  0
  5  6  1  0
  6  7  1  0
  7  8  2  0
  7  9  1  0
  9 10  1  0
 10 11  1  0
  3 12  1  0
 12 13  2  0
 13 14  1  0
 14 15  2  0
 14 16  1  0
 16 17  1  0
 17 18  1  0
 18 19  1  0
 19 20  1  0
 20 21  1  0
 13 22  1  0
 22 23  1  0
 23 24  1  0
 24 25  2  0
 24 26  1  0
 26 27  1  0
 27 28  1  0
 28 29  2  0
 29 30  1  0
 30 31  2  0
 31 32  1  0
 32 33  2  3
 32 34  1  0
 31 35  1  0
 35 36  2  0
 22  2  1  0
 36 28  1  0
 10  5  2  0
 21 16  1  0
  1 37  1  0
  1 38  1  0
  4 39  1  0
 11 40  1  0
 12 41  1  0
 17 42  1  0
 17 43  1  0
 18 44  1  0
 18 45  1  0
 19 46  1  0
 19 47  1  0
 20 48  1  0
 21 49  1  0
 21 50  1  0
 23 51  1  0
 23 52  1  0
 27 53  1  0
 27 54  1  0
 29 55  1  0
 30 56  1  0
 33 57  1  0
 34 58  1  0
 34 59  1  0
 35 60  1  0
 36 61  1  0
M  CHG  3   6  -1   9  -1  26  -1
M  END
>  <UniqueID>  (22) 
18

>  <SMILES>  (22) 
C=c1c(=Cc2[n-]c(=O)[n-]c2O)cc(C(=O)N2CCCNC2)n1CC(=O)[N-]Cc1ccc(C(=N)N)cc1

>  <Energy>  (22) 
139.48417697125768

>  <Genealogy>  (22) 
C=c1c(=Cc2[n-]c(=O)[n-]c2O)cc(C(=O)N2CCCNC2)n1CC(=O)[N-]Cc1ccc(C(=N)N)cc1 (protonated)
C=c1c(=Cc2[n-]c(=O)[n-]c2O)cc(C(=O)N2CCCNC2)n1CC(=O)[N-]Cc1ccc(C(=N)N)cc1 (3D coordinates assigned)
C=c1c(=Cc2[n-]c(=O)[n-]c2O)cc(C(=O)N2CCCNC2)n1CC(=O)[N-]Cc1ccc(C(=N)N)cc1 (nonaromatic ring conformer: 139.48417697125768 kcal/mol)

>  <smiles>  (22) 
C=c1c(=Cc2[nH]c(=O)[nH]c2O)cc(C(=O)N2CCCNC2)n1CC(=O)NCc1ccc(C(=N)N)cc1

>  <score_type>  (22) 
oracle

>  <origin>  (22) 
adg

>  <m_score__min__energy>  (22) 
-13.94

>  <m_primary>  (22) 
energy

$$$$
22:0
     RDKit          3D

 49 52  0  0  0  0  0  0  0  0999 V2000
   57.6800   28.2230   44.3100 C   0  0  0  0  0  0  0  0  0  0  0  0
   58.0780   27.7480   45.5010 C   0  0  0  0  0  0  0  0  0  0  0  0
   58.1180   26.4040   45.9060 C   0  0  0  0  0  0  0  0  0  0  0  0
   57.6090   25.2930   45.3380 C   0  0  0  0  0  0  0  0  0  0  0  0
   56.1920   24.8980   45.3470 C   0  0  0  0  0  0  0  0  0  0  0  0
   55.7730   23.6300   45.1920 N   0  0  0  0  0  0  0  0  0  0  0  0
   54.4400   23.7150   45.3930 C   0  0  0  0  0  0  0  0  0  0  0  0
   53.6790   22.7160   45.3150 O   0  0  0  0  0  0  0  0  0  0  0  0
   53.9890   24.9510   45.6980 N   0  0  0  0  0  0  0  0  0  0  0  0
   55.1130   25.6860   45.6790 C   0  0  0  0  0  0  0  0  0  0  0  0
   55.1530   27.0400   45.9870 O   0  0  0  0  0  0  0  0  0  0  0  0
   58.8210   26.3800   47.1000 C   0  0  0  0  0  0  0  0  0  0  0  0
   59.1180   27.6890   47.4160 C   0  0  0  0  0  0  0  0  0  0  0  0
   59.8560   28.1200   48.6470 C   0  0  0  0  0  0  0  0  0  0  0  0
   58.6700   28.5200   46.4480 N   0  0  0  0  0  0  0  0  0  0  0  0
   58.8220   29.9520   46.4320 C   0  0  0  0  0  0  0  0  0  0  0  0
   57.8100   30.7650   45.9080 C   0  0  0  0  0  0  0  0  0  0  0  0
   57.9600   32.1530   45.8920 C   0  0  0  0  0  0  0  0  0  0  0  0
   59.1300   32.7510   46.3980 C   0  0  0  0  0  0  0  0  0  0  0  0
   59.3200   34.1430   46.3760 O   0  0  0  0  0  0  0  0  0  0  0  0
   59.2740   34.9450   45.2010 C   0  0  0  0  0  0  0  0  0  0  0  0
   60.1460   31.9340   46.9330 C   0  0  0  0  0  0  0  0  0  0  0  0
   61.3470   32.5120   47.4730 N   0  0  0  0  0  0  0  0  0  0  0  0
   62.6500   31.9360   47.1140 C   0  0  0  0  0  0  0  0  0  0  0  0
   63.6780   33.0490   46.9480 C   0  0  0  0  0  0  0  0  0  0  0  0
   63.7370   33.8380   48.1670 N   0  0  0  0  0  0  0  0  0  0  0  0
   62.5520   34.1370   48.9060 C   0  0  0  0  0  0  0  0  0  0  0  0
   62.6220   34.8890   49.9130 O   0  0  0  0  0  0  0  0  0  0  0  0
   61.2210   33.5710   48.4900 C   0  0  0  0  0  0  0  0  0  0  0  0
   59.9870   30.5390   46.9410 C   0  0  0  0  0  0  0  0  0  0  0  0
   57.6964   29.3057   44.1163 H   0  0  0  0  0  0  0  0  0  0  0  0
   57.3376   27.5295   43.5278 H   0  0  0  0  0  0  0  0  0  0  0  0
   58.3140   24.6237   44.8232 H   0  0  0  0  0  0  0  0  0  0  0  0
   59.0905   25.4876   47.6839 H   0  0  0  0  0  0  0  0  0  0  0  0
   59.3009   27.7958   49.5396 H   0  0  0  0  0  0  0  0  0  0  0  0
   60.8573   27.6647   48.6525 H   0  0  0  0  0  0  0  0  0  0  0  0
   59.9514   29.2158   48.6525 H   0  0  0  0  0  0  0  0  0  0  0  0
   56.8930   30.3085   45.5073 H   0  0  0  0  0  0  0  0  0  0  0  0
   57.1582   32.7841   45.4810 H   0  0  0  0  0  0  0  0  0  0  0  0
   59.2131   36.0063   45.4836 H   0  0  0  0  0  0  0  0  0  0  0  0
   60.1833   34.7757   44.6057 H   0  0  0  0  0  0  0  0  0  0  0  0
   58.3900   34.6728   44.6057 H   0  0  0  0  0  0  0  0  0  0  0  0
   62.9784   31.2512   47.9098 H   0  0  0  0  0  0  0  0  0  0  0  0
   62.5551   31.3848   46.1668 H   0  0  0  0  0  0  0  0  0  0  0  0
   64.6660   32.6090   46.7476 H   0  0  0  0  0  0  0  0  0  0  0  0
   63.3873   33.6948   46.1063 H   0  0  0  0  0  0  0  0  0  0  0  0
   60.7247   33.1501   49.3769 H   0  0  0  0  0  0  0  0  0  0  0  0
   60.6353   34.3898   48.0467 H   0  0  0  0  0  0  0  0  0  0  0  0
   60.7845   29.9017   47.3507 H   0  0  0  0  0  0  0  0  0  0  0  0
  1  2  2  0
  2  3  1  0
  3  4  2  3
  4  5  1  0
  5  6  1  0
  6  7  1  0
  7  8  2  0
  7  9  1  0
  9 10  1  0
 10 11  1  0
  3 12  1  0
 12 13  2  0
 13 14  1  0
 13 15  1  0
 15 16  1  0
 16 17  2  0
 17 18  1  0
 18 19  2  0
 19 20  1  0
 20 21  1  0
 19 22  1  0
 22 23  1  0
 23 24  1  0
 24 25  1  0
 25 26  1  0
 26 27  1  0
 27 28  2  0
 27 29  1  0
 22 30  2  0
 15  2  1  0
 30 16  1  0
 10  5  2  0
 29 23  1  0
  1 31  1  0
  1 32  1  0
  4 33  1  0
 12 34  1  0
 14 35  1  0
 14 36  1  0
 14 37  1  0
 17 38  1  0
 18 39  1  0
 21 40  1  0
 21 41  1  0
 21 42  1  0
 24 43  1  0
 24 44  1  0
 25 45  1  0
 25 46  1  0
 29 47  1  0
 29 48  1  0
 30 49  1  0
M  CHG  4   6  -1   9  -1  11  -1  26  -1
M  END
>  <UniqueID>  (23) 
19

>  <SMILES>  (23) 
C=c1c(=Cc2[n-]c(=O)[n-]c2[O-])cc(C)n1-c1ccc(OC)c(N2CC[N-]C(=O)C2)c1

>  <Energy>  (23) 
131.4324925167604

>  <Genealogy>  (23) 
C=c1c(=Cc2[n-]c(=O)[n-]c2[O-])cc(C)n1-c1ccc(OC)c(N2CC[N-]C(=O)C2)c1 (protonated)
C=c1c(=Cc2[n-]c(=O)[n-]c2[O-])cc(C)n1-c1ccc(OC)c(N2CC[N-]C(=O)C2)c1 (3D coordinates assigned)
C=c1c(=Cc2[n-]c(=O)[n-]c2[O-])cc(C)n1-c1ccc(OC)c(N2CC[N-]C(=O)C2)c1 (nonaromatic ring conformer: 131.4324925167604 kcal/mol)

>  <smiles>  (23) 
C=c1c(=Cc2[nH]c(=O)[nH]c2O)cc(C)n1-c1ccc(OC)c(N2CCNC(=O)C2)c1

>  <score_type>  (23) 
oracle

>  <origin>  (23) 
adg

>  <m_score__min__energy>  (23) 
-16.510000000000002

>  <m_primary>  (23) 
energy

$$$$
23:0
     RDKit          3D

 35 36  0  0  0  0  0  0  0  0999 V2000
   57.6530   32.8510   52.3090 C   0  0  0  0  0  0  0  0  0  0  0  0
   56.6680   31.9400   52.7840 O   0  0  0  0  0  0  0  0  0  0  0  0
   56.9190   30.6020   53.1260 C   0  0  0  0  0  0  0  0  0  0  0  0
   58.2310   30.1080   53.2810 C   0  0  0  0  0  0  0  0  0  0  0  0
   58.4480   28.7690   53.6090 C   0  0  0  0  0  0  0  0  0  0  0  0
   57.3670   27.9050   53.7860 C   0  0  0  0  0  0  0  0  0  0  0  0
   56.0630   28.3800   53.6380 C   0  0  0  0  0  0  0  0  0  0  0  0
   55.8270   29.7280   53.3170 C   0  0  0  0  0  0  0  0  0  0  0  0
   54.4080   30.2060   53.1150 C   0  0  0  0  0  0  0  0  0  0  0  0
   54.2610   30.9820   51.8000 C   0  0  0  0  0  0  0  0  0  0  0  0
   53.6440   30.1500   50.7710 N   0  0  0  0  0  0  0  0  0  0  0  0
   52.2420   29.8650   50.7130 C   0  0  0  0  0  0  0  0  0  0  0  0
   51.6720   29.6930   49.6020 O   0  0  0  0  0  0  0  0  0  0  0  0
   51.4330   29.8300   51.9730 C   0  0  0  0  0  0  0  0  0  0  0  0
   51.0050   31.2090   52.3780 C   0  0  0  0  0  0  0  0  0  0  0  0
   50.5970   31.5300   53.6180 N   0  0  0  0  0  0  0  0  0  0  0  0
   50.3680   32.8590   53.5370 C   0  0  0  0  0  0  0  0  0  0  0  0
   49.9600   33.5370   54.5160 O   0  0  0  0  0  0  0  0  0  0  0  0
   50.6160   33.4040   52.3280 N   0  0  0  0  0  0  0  0  0  0  0  0
   51.0250   32.3490   51.6030 C   0  0  0  0  0  0  0  0  0  0  0  0
   51.4130   32.4420   50.2690 O   0  0  0  0  0  0  0  0  0  0  0  0
   58.1608   33.3207   53.1643 H   0  0  0  0  0  0  0  0  0  0  0  0
   58.3895   32.3088   51.6978 H   0  0  0  0  0  0  0  0  0  0  0  0
   57.1699   33.6276   51.6978 H   0  0  0  0  0  0  0  0  0  0  0  0
   59.0888   30.7826   53.1424 H   0  0  0  0  0  0  0  0  0  0  0  0
   59.4750   28.3935   53.7284 H   0  0  0  0  0  0  0  0  0  0  0  0
   57.5424   26.8497   54.0421 H   0  0  0  0  0  0  0  0  0  0  0  0
   55.2136   27.6943   53.7736 H   0  0  0  0  0  0  0  0  0  0  0  0
   53.7365   29.3350   53.0936 H   0  0  0  0  0  0  0  0  0  0  0  0
   54.1478   30.8790   53.9452 H   0  0  0  0  0  0  0  0  0  0  0  0
   53.6316   31.8675   51.9726 H   0  0  0  0  0  0  0  0  0  0  0  0
   55.2613   31.2833   51.4557 H   0  0  0  0  0  0  0  0  0  0  0  0
   50.5393   29.2100   51.8090 H   0  0  0  0  0  0  0  0  0  0  0  0
   52.0547   29.4071   52.7759 H   0  0  0  0  0  0  0  0  0  0  0  0
   52.1160   31.8270   49.8770 H   0  0  0  0  0  0  0  0  0  0  0  0
  1  2  1  0
  2  3  1  0
  3  4  2  0
  4  5  1  0
  5  6  2  0
  6  7  1  0
  7  8  2  0
  8  9  1  0
  9 10  1  0
 10 11  1  0
 11 12  1  0
 12 13  2  0
 12 14  1  0
 14 15  1  0
 15 16  1  0
 16 17  1  0
 17 18  2  0
 17 19  1  0
 19 20  1  0
 20 21  1  0
  8  3  1  0
 20 15  2  0
  1 22  1  0
  1 23  1  0
  1 24  1  0
  4 25  1  0
  5 26  1  0
  6 27  1  0
  7 28  1  0
  9 29  1  0
  9 30  1  0
 10 31  1  0
 10 32  1  0
 14 33  1  0
 14 34  1  0
 21 35  1  0
M  CHG  3  11  -1  16  -1  19  -1
M  END
>  <UniqueID>  (24) 
20

>  <SMILES>  (24) 
COc1ccccc1CC[N-]C(=O)Cc1[n-]c(=O)[n-]c1O

>  <Energy>  (24) 
56.74360658438827

>  <Genealogy>  (24) 
COc1ccccc1CC[N-]C(=O)Cc1[n-]c(=O)[n-]c1O (protonated)
COc1ccccc1CC[N-]C(=O)Cc1[n-]c(=O)[n-]c1O (3D coordinates assigned)
COc1ccccc1CC[N-]C(=O)Cc1[n-]c(=O)[n-]c1O (optimized conformer: 56.74360658438827 kcal/mol)

>  <smiles>  (24) 
COc1ccccc1CCNC(=O)Cc1[nH]c(=O)[nH]c1O

>  <score_type>  (24) 
oracle

>  <origin>  (24) 
adg

>  <m_score__min__energy>  (24) 
-13.17

>  <m_primary>  (24) 
energy

$$$$
24:0
     RDKit          3D

 42 44  0  0  0  0  0  0  0  0999 V2000
   55.5250   28.8870   44.9570 N   0  0  0  0  0  0  0  0  0  0  0  0
   56.6010   30.1470   44.4690 S   0  0  0  0  0  0  0  0  0  0  0  0
   57.0640   29.8970   43.0600 O   0  0  0  0  0  0  0  0  0  0  0  0
   55.8830   31.4660   44.5130 O   0  0  0  0  0  0  0  0  0  0  0  0
   57.9880   30.1840   45.5520 C   0  0  0  0  0  0  0  0  0  0  0  0
   58.8380   29.0750   45.6500 C   0  0  0  0  0  0  0  0  0  0  0  0
   59.9460   29.1150   46.4990 C   0  0  0  0  0  0  0  0  0  0  0  0
   60.2140   30.2590   47.2570 C   0  0  0  0  0  0  0  0  0  0  0  0
   61.2870   30.2630   48.0880 F   0  0  0  0  0  0  0  0  0  0  0  0
   59.3640   31.3790   47.1710 C   0  0  0  0  0  0  0  0  0  0  0  0
   59.6380   32.6050   47.9570 C   0  0  0  0  0  0  0  0  0  0  0  0
   58.6730   33.2710   48.4200 O   0  0  0  0  0  0  0  0  0  0  0  0
   60.9850   33.0290   48.2320 N   0  0  0  0  0  0  0  0  0  0  0  0
   61.3000   33.5850   49.5580 C   0  0  0  0  0  0  0  0  0  0  0  0
   62.7650   34.0220   49.6470 C   0  0  0  0  0  0  0  0  0  0  0  0
   63.6250   32.9990   49.0350 N   0  0  0  0  0  0  0  0  0  0  0  0
   64.7000   32.3970   49.7810 C   0  0  0  0  0  0  0  0  0  0  0  0
   64.4730   31.2470   50.5570 C   0  0  0  0  0  0  0  0  0  0  0  0
   65.5150   30.6730   51.2930 C   0  0  0  0  0  0  0  0  0  0  0  0
   66.7890   31.2450   51.2660 C   0  0  0  0  0  0  0  0  0  0  0  0
   67.8240   30.6740   51.9980 O   0  0  0  0  0  0  0  0  0  0  0  0
   67.0240   32.3930   50.5030 C   0  0  0  0  0  0  0  0  0  0  0  0
   65.9850   32.9680   49.7660 C   0  0  0  0  0  0  0  0  0  0  0  0
   63.3340   32.5280   47.6710 C   0  0  0  0  0  0  0  0  0  0  0  0
   61.9920   33.0710   47.1600 C   0  0  0  0  0  0  0  0  0  0  0  0
   58.2610   31.3350   46.3010 C   0  0  0  0  0  0  0  0  0  0  0  0
   54.6270   29.3420   45.2330 H   0  0  0  0  0  0  0  0  0  0  0  0
   58.6325   28.1714   45.0574 H   0  0  0  0  0  0  0  0  0  0  0  0
   60.6113   28.2421   46.5718 H   0  0  0  0  0  0  0  0  0  0  0  0
   60.6547   34.4564   49.7432 H   0  0  0  0  0  0  0  0  0  0  0  0
   61.1256   32.8029   50.3116 H   0  0  0  0  0  0  0  0  0  0  0  0
   62.8952   34.9756   49.1143 H   0  0  0  0  0  0  0  0  0  0  0  0
   63.0441   34.1481   50.7035 H   0  0  0  0  0  0  0  0  0  0  0  0
   63.4702   30.7959   50.5856 H   0  0  0  0  0  0  0  0  0  0  0  0
   65.3308   29.7701   51.8937 H   0  0  0  0  0  0  0  0  0  0  0  0
   68.0272   32.8438   50.4828 H   0  0  0  0  0  0  0  0  0  0  0  0
   66.1737   33.8732   49.1702 H   0  0  0  0  0  0  0  0  0  0  0  0
   64.1356   32.8663   46.9979 H   0  0  0  0  0  0  0  0  0  0  0  0
   63.2755   31.4297   47.6913 H   0  0  0  0  0  0  0  0  0  0  0  0
   62.1242   34.1108   46.8263 H   0  0  0  0  0  0  0  0  0  0  0  0
   61.6490   32.4478   46.3210 H   0  0  0  0  0  0  0  0  0  0  0  0
   57.6057   32.2136   46.2076 H   0  0  0  0  0  0  0  0  0  0  0  0
  1  2  1  0
  2  3  2  0
  2  4  2  0
  2  5  1  0
  5  6  2  0
  6  7  1  0
  7  8  2  0
  8  9  1  0
  8 10  1  0
 10 11  1  0
 11 12  2  0
 11 13  1  0
 13 14  1  0
 14 15  1  0
 15 16  1  0
 16 17  1  0
 17 18  2  0
 18 19  1  0
 19 20  2  0
 20 21  1  0
 20 22  1  0
 22 23  2  0
 16 24  1  0
 24 25  1  0
 10 26  2  0
 26  5  1  0
 25 13  1  0
 23 17  1  0
  1 27  1  0
  6 28  1  0
  7 29  1  0
 14 30  1  0
 14 31  1  0
 15 32  1  0
 15 33  1  0
 18 34  1  0
 19 35  1  0
 22 36  1  0
 23 37  1  0
 24 38  1  0
 24 39  1  0
 25 40  1  0
 25 41  1  0
 26 42  1  0
M  CHG  2   1  -1  21  -1
M  END
>  <UniqueID>  (25) 
21

>  <SMILES>  (25) 
[NH-]S(=O)(=O)c1ccc(F)c(C(=O)N2CCN(c3ccc([O-])cc3)CC2)c1

>  <Energy>  (25) 
53.272781070639496

>  <Genealogy>  (25) 
[NH-]S(=O)(=O)c1ccc(F)c(C(=O)N2CCN(c3ccc([O-])cc3)CC2)c1 (protonated)
[NH-]S(=O)(=O)c1ccc(F)c(C(=O)N2CCN(c3ccc([O-])cc3)CC2)c1 (3D coordinates assigned)
[NH-]S(=O)(=O)c1ccc(F)c(C(=O)N2CCN(c3ccc([O-])cc3)CC2)c1 (nonaromatic ring conformer: 53.272781070639496 kcal/mol)

>  <smiles>  (25) 
NS(=O)(=O)c1ccc(F)c(C(=O)N2CCN(c3ccc(O)cc3)CC2)c1

>  <score_type>  (25) 
oracle

>  <origin>  (25) 
adg

>  <m_score__min__energy>  (25) 
-11.18

>  <m_primary>  (25) 
energy

$$$$
25:0
     RDKit          3D

 54 57  0  0  0  0  0  0  0  0999 V2000
   57.6830   29.7618   47.5035 H   0  0  0  0  0  0  0  0  0  0  0  0
   57.8240   28.8890   46.8490 C   0  0  0  0  0  0  0  0  0  0  0  0
   58.2353   27.9548   47.2590 H   0  0  0  0  0  0  0  0  0  0  0  0
   57.4940   28.9640   45.5490 C   0  0  0  0  0  0  0  0  0  0  0  0
   57.6030   27.9600   44.5690 C   0  0  0  0  0  0  0  0  0  0  0  0
   57.9030   26.6480   44.6620 C   0  0  0  0  0  0  0  0  0  0  0  0
   58.6463   26.2575   43.9513 H   0  0  0  0  0  0  0  0  0  0  0  0
   57.3340   25.6890   45.6200 C   0  0  0  0  0  0  0  0  0  0  0  0
   58.0050   24.6710   46.1930 N   0  0  0  0  0  0  0  0  0  0  0  0
   57.1210   24.1860   47.1060 C   0  0  0  0  0  0  0  0  0  0  0  0
   57.3800   23.2050   47.8550 O   0  0  0  0  0  0  0  0  0  0  0  0
   55.9460   24.8500   47.1670 N   0  0  0  0  0  0  0  0  0  0  0  0
   56.1070   25.8060   46.2290 C   0  0  0  0  0  0  0  0  0  0  0  0
   55.1460   26.7640   45.9320 O   0  0  0  0  0  0  0  0  0  0  0  0
   57.3740   28.5830   43.3520 C   0  0  0  0  0  0  0  0  0  0  0  0
   57.3964   28.1076   42.3603 H   0  0  0  0  0  0  0  0  0  0  0  0
   57.1120   29.9150   43.6190 C   0  0  0  0  0  0  0  0  0  0  0  0
   56.9700   30.9740   42.5610 C   0  0  0  0  0  0  0  0  0  0  0  0
   56.8384   31.9555   43.0400 H   0  0  0  0  0  0  0  0  0  0  0  0
   57.8740   30.9900   41.9345 H   0  0  0  0  0  0  0  0  0  0  0  0
   56.0937   30.7513   41.9345 H   0  0  0  0  0  0  0  0  0  0  0  0
   57.1400   30.1330   44.9590 N   0  0  0  0  0  0  0  0  0  0  0  0
   57.1390   31.3680   45.5990 O   0  0  0  0  0  0  0  0  0  0  0  0
   58.0050   32.4000   45.2370 C   0  0  0  0  0  0  0  0  0  0  0  0
   57.7180   33.1540   44.2730 O   0  0  0  0  0  0  0  0  0  0  0  0
   59.2760   32.5800   45.9730 C   0  0  0  0  0  0  0  0  0  0  0  0
   59.9520   31.4680   46.5130 C   0  0  0  0  0  0  0  0  0  0  0  0
   59.4780   30.4756   46.4890 H   0  0  0  0  0  0  0  0  0  0  0  0
   61.2210   31.6180   47.0790 C   0  0  0  0  0  0  0  0  0  0  0  0
   61.7430   30.7442   47.4962 H   0  0  0  0  0  0  0  0  0  0  0  0
   61.8310   32.8830   47.1160 C   0  0  0  0  0  0  0  0  0  0  0  0
   63.2400   33.0110   47.5270 C   0  0  0  0  0  0  0  0  0  0  0  0
   64.1110   33.0750   46.6130 O   0  0  0  0  0  0  0  0  0  0  0  0
   63.6570   33.0910   48.9180 N   0  0  0  0  0  0  0  0  0  0  0  0
   64.6830   33.3200   48.8910 H   0  0  0  0  0  0  0  0  0  0  0  0
   63.0270   34.2280   49.6430 C   0  0  0  0  0  0  0  0  0  0  0  0
   63.7139   34.5521   50.4386 H   0  0  0  0  0  0  0  0  0  0  0  0
   62.8381   35.0123   48.8952 H   0  0  0  0  0  0  0  0  0  0  0  0
   61.6710   33.8960   50.2840 C   0  0  0  0  0  0  0  0  0  0  0  0
   61.3553   34.7380   50.9175 H   0  0  0  0  0  0  0  0  0  0  0  0
   60.9352   33.7226   49.4849 H   0  0  0  0  0  0  0  0  0  0  0  0
   61.7720   32.6410   51.1360 C   0  0  0  0  0  0  0  0  0  0  0  0
   62.5020   32.8018   51.9430 H   0  0  0  0  0  0  0  0  0  0  0  0
   60.7898   32.4121   51.5752 H   0  0  0  0  0  0  0  0  0  0  0  0
   62.2260   31.4780   50.2620 C   0  0  0  0  0  0  0  0  0  0  0  0
   62.3065   30.5706   50.8785 H   0  0  0  0  0  0  0  0  0  0  0  0
   61.4893   31.3243   49.4598 H   0  0  0  0  0  0  0  0  0  0  0  0
   63.5970   31.7870   49.6310 C   0  0  0  0  0  0  0  0  0  0  0  0
   64.3516   31.7958   50.4313 H   0  0  0  0  0  0  0  0  0  0  0  0
   63.7839   31.0056   48.8797 H   0  0  0  0  0  0  0  0  0  0  0  0
   61.1630   33.9890   46.5750 C   0  0  0  0  0  0  0  0  0  0  0  0
   61.6523   34.9741   46.5695 H   0  0  0  0  0  0  0  0  0  0  0  0
   59.8830   33.8490   46.0440 C   0  0  0  0  0  0  0  0  0  0  0  0
   59.3430   34.7347   45.6779 H   0  0  0  0  0  0  0  0  0  0  0  0
  1  2  1  0
  2  3  1  0
  2  4  2  0
  4  5  1  0
  5  6  2  0
  6  7  1  0
  6  8  1  0
  8  9  1  0
  9 10  1  0
 10 11  2  0
 10 12  1  0
 12 13  1  0
 13 14  1  0
  5 15  1  0
 15 16  1  0
 15 17  2  0
 17 18  1  0
 18 19  1  0
 18 20  1  0
 18 21  1  0
 17 22  1  0
 22 23  1  0
 23 24  1  0
 24 25  2  0
 24 26  1  0
 26 27  2  0
 27 28  1  0
 27 29  1  0
 29 30  1  0
 29 31  2  0
 31 32  1  0
 32 33  2  0
 32 34  1  0
 34 35  1  0
 34 36  1  0
 36 37  1  0
 36 38  1  0
 36 39  1  0
 39 40  1  0
 39 41  1  0
 39 42  1  0
 42 43  1  0
 42 44  1  0
 42 45  1  0
 45 46  1  0
 45 47  1  0
 45 48  1  0
 48 49  1  0
 48 50  1  0
 31 51  1  0
 51 52  1  0
 51 53  2  0
 53 54  1  0
 22  4  1  0
 53 26  1  0
 13  8  2  0
 48 34  1  0
M  CHG  4   9  -1  12  -1  14  -1  34   1
M  END
>  <UniqueID>  (26) 
22

>  <SMILES>  (26) 
C=c1/c(=C\c2[n-]c(=O)[n-]c2[O-])cc(C)n1OC(=O)c1ccc(C(=O)[NH+]2CCCCC2)cc1

>  <Energy>  (26) 
146.42465535842905

>  <Genealogy>  (26) 
C=c1c(=Cc2[n-]c(=O)[n-]c2[O-])cc(C)n1OC(=O)c1ccc(C(=O)[NH+]2CCCCC2)cc1 (protonated)
C=c1/c(=C\c2[n-]c(=O)[n-]c2[O-])cc(C)n1OC(=O)c1ccc(C(=O)[NH+]2CCCCC2)cc1 (cis-trans isomerization)
C=c1/c(=C\c2[n-]c(=O)[n-]c2[O-])cc(C)n1OC(=O)c1ccc(C(=O)[NH+]2CCCCC2)cc1 (3D coordinates assigned)
C=c1/c(=C\c2[n-]c(=O)[n-]c2[O-])cc(C)n1OC(=O)c1ccc(C(=O)[NH+]2CCCCC2)cc1 (nonaromatic ring conformer: 146.42465535842905 kcal/mol)

>  <smiles>  (26) 
C=c1c(=Cc2[nH]c(=O)[nH]c2O)cc(C)n1OC(=O)c1ccc(C(=O)N2CCCCC2)cc1

>  <score_type>  (26) 
oracle

>  <origin>  (26) 
adg

>  <m_score__min__energy>  (26) 
-17.27

>  <m_primary>  (26) 
energy

$$$$
26:0
     RDKit          3D

 45 48  0  0  0  0  0  0  0  0999 V2000
   55.1170   27.8620   53.6960 C   0  0  0  0  0  0  0  0  0  0  0  0
   55.4730   28.9870   53.0610 C   0  0  0  0  0  0  0  0  0  0  0  0
   56.8000   29.1940   52.6380 C   0  0  0  0  0  0  0  0  0  0  0  0
   56.9970   30.4080   51.9940 C   0  0  0  0  0  0  0  0  0  0  0  0
   58.3210   30.9830   51.6020 C   0  0  0  0  0  0  0  0  0  0  0  0
   58.9940   30.0510   50.6450 C   0  0  0  0  0  0  0  0  0  0  0  0
   60.2740   29.5280   50.7850 C   0  0  0  0  0  0  0  0  0  0  0  0
   60.7310   28.8670   49.6380 C   0  0  0  0  0  0  0  0  0  0  0  0
   59.8230   28.9050   48.5830 C   0  0  0  0  0  0  0  0  0  0  0  0
   60.0690   28.3800   47.2270 C   0  0  0  0  0  0  0  0  0  0  0  0
   60.3030   27.1530   47.0770 O   0  0  0  0  0  0  0  0  0  0  0  0
   60.0460   29.2270   46.0680 N   0  0  0  0  0  0  0  0  0  0  0  0
   58.8700   29.7320   45.4170 C   0  0  0  0  0  0  0  0  0  0  0  0
   58.7070   31.1210   45.3310 C   0  0  0  0  0  0  0  0  0  0  0  0
   57.6160   31.6680   44.6530 C   0  0  0  0  0  0  0  0  0  0  0  0
   56.6690   30.8300   44.0640 C   0  0  0  0  0  0  0  0  0  0  0  0
   56.8000   29.4440   44.1660 C   0  0  0  0  0  0  0  0  0  0  0  0
   57.8830   28.8810   44.8600 C   0  0  0  0  0  0  0  0  0  0  0  0
   57.9370   27.4580   45.0260 N   0  0  0  0  0  0  0  0  0  0  0  0
   58.4410   29.7190   49.0930 S   0  0  0  0  0  0  0  0  0  0  0  0
   55.5430   31.2430   51.9780 S   0  0  0  0  0  0  0  0  0  0  0  0
   54.6150   30.0670   52.7580 C   0  0  0  0  0  0  0  0  0  0  0  0
   53.3070   30.1760   53.0700 C   0  0  0  0  0  0  0  0  0  0  0  0
   52.3720   31.1430   52.4500 C   0  0  0  0  0  0  0  0  0  0  0  0
   51.6700   32.0800   53.1150 N   0  0  0  0  0  0  0  0  0  0  0  0
   50.9960   32.7270   52.1420 C   0  0  0  0  0  0  0  0  0  0  0  0
   50.2140   33.6840   52.3790 O   0  0  0  0  0  0  0  0  0  0  0  0
   51.2250   32.2670   50.8950 N   0  0  0  0  0  0  0  0  0  0  0  0
   52.0980   31.2670   51.1000 C   0  0  0  0  0  0  0  0  0  0  0  0
   52.6160   30.4890   50.0670 O   0  0  0  0  0  0  0  0  0  0  0  0
   54.0752   27.7187   54.0187 H   0  0  0  0  0  0  0  0  0  0  0  0
   55.8666   27.0818   53.8946 H   0  0  0  0  0  0  0  0  0  0  0  0
   57.6049   28.4625   52.8024 H   0  0  0  0  0  0  0  0  0  0  0  0
   58.1703   31.9604   51.1203 H   0  0  0  0  0  0  0  0  0  0  0  0
   58.9483   31.1134   52.4961 H   0  0  0  0  0  0  0  0  0  0  0  0
   60.8690   29.6237   51.7052 H   0  0  0  0  0  0  0  0  0  0  0  0
   61.7093   28.3678   49.5767 H   0  0  0  0  0  0  0  0  0  0  0  0
   59.4454   31.7866   45.8020 H   0  0  0  0  0  0  0  0  0  0  0  0
   57.5031   32.7600   44.5832 H   0  0  0  0  0  0  0  0  0  0  0  0
   55.8174   31.2622   43.5181 H   0  0  0  0  0  0  0  0  0  0  0  0
   56.0498   28.7885   43.6996 H   0  0  0  0  0  0  0  0  0  0  0  0
   57.2020   26.8480   44.6030 H   0  0  0  0  0  0  0  0  0  0  0  0
   58.6430   27.0030   45.6440 H   0  0  0  0  0  0  0  0  0  0  0  0
   52.9067   29.4990   53.8390 H   0  0  0  0  0  0  0  0  0  0  0  0
   53.3720   30.8130   49.4780 H   0  0  0  0  0  0  0  0  0  0  0  0
  1  2  2  0
  2  3  1  0
  3  4  2  0
  4  5  1  0
  5  6  1  0
  6  7  2  0
  7  8  1  0
  8  9  2  0
  9 10  1  0
 10 11  2  0
 10 12  1  0
 12 13  1  0
 13 14  2  0
 14 15  1  0
 15 16  2  0
 16 17  1  0
 17 18  2  0
 18 19  1  0
  9 20  1  0
  4 21  1  0
 21 22  1  0
 22 23  2  3
 23 24  1  0
 24 25  1  0
 25 26  1  0
 26 27  2  0
 26 28  1  0
 28 29  1  0
 29 30  1  0
 22  2  1  0
 29 24  2  0
 20  6  1  0
 18 13  1  0
  1 31  1  0
  1 32  1  0
  3 33  1  0
  5 34  1  0
  5 35  1  0
  7 36  1  0
  8 37  1  0
 14 38  1  0
 15 39  1  0
 16 40  1  0
 17 41  1  0
 19 42  1  0
 19 43  1  0
 23 44  1  0
 30 45  1  0
M  CHG  3  12  -1  25  -1  28  -1
M  END
>  <UniqueID>  (27) 
23

>  <SMILES>  (27) 
C=c1cc(Cc2ccc(C(=O)[N-]c3ccccc3N)s2)sc1=Cc1[n-]c(=O)[n-]c1O

>  <Energy>  (27) 
137.56853421423972

>  <Genealogy>  (27) 
C=c1cc(Cc2ccc(C(=O)[N-]c3ccccc3N)s2)sc1=Cc1[n-]c(=O)[n-]c1O (protonated)
C=c1cc(Cc2ccc(C(=O)[N-]c3ccccc3N)s2)sc1=Cc1[n-]c(=O)[n-]c1O (3D coordinates assigned)
C=c1cc(Cc2ccc(C(=O)[N-]c3ccccc3N)s2)sc1=Cc1[n-]c(=O)[n-]c1O (optimized conformer: 137.56853421423972 kcal/mol)

>  <smiles>  (27) 
C=c1cc(Cc2ccc(C(=O)Nc3ccccc3N)s2)sc1=Cc1[nH]c(=O)[nH]c1O

>  <score_type>  (27) 
oracle

>  <origin>  (27) 
adg

>  <m_score__min__energy>  (27) 
-15.23

>  <m_primary>  (27) 
energy

$$$$
27:0
     RDKit          3D

 59 62  0  0  0  0  0  0  0  0999 V2000
   59.7160   37.2730   46.5820 H   0  0  0  0  0  0  0  0  0  0  0  0
   59.9580   36.5620   45.9020 O   0  0  0  0  0  0  0  0  0  0  0  0
   59.4510   35.2680   45.9940 C   0  0  0  0  0  0  0  0  0  0  0  0
   59.3380   34.6590   47.2480 C   0  0  0  0  0  0  0  0  0  0  0  0
   59.6453   35.2045   48.1524 H   0  0  0  0  0  0  0  0  0  0  0  0
   58.8360   33.3600   47.3550 C   0  0  0  0  0  0  0  0  0  0  0  0
   58.7501   32.8873   48.3445 H   0  0  0  0  0  0  0  0  0  0  0  0
   58.4400   32.6530   46.2070 C   0  0  0  0  0  0  0  0  0  0  0  0
   57.9630   31.2280   46.3240 C   0  0  0  0  0  0  0  0  0  0  0  0
   57.5916   30.8889   45.3457 H   0  0  0  0  0  0  0  0  0  0  0  0
   57.1573   31.1822   47.0715 H   0  0  0  0  0  0  0  0  0  0  0  0
   59.0840   30.3350   46.7630 C   0  0  0  0  0  0  0  0  0  0  0  0
   60.0400   30.0960   45.9760 O   0  0  0  0  0  0  0  0  0  0  0  0
   59.1150   29.8250   48.1000 N   0  0  0  0  0  0  0  0  0  0  0  0
   59.8100   30.4560   49.2270 C   0  0  1  0  0  0  0  0  0  0  0  0
   60.7162   30.9493   48.8456 H   0  0  0  0  0  0  0  0  0  0  0  0
   58.9040   31.5390   49.8560 C   0  0  0  0  0  0  0  0  0  0  0  0
   57.8598   31.1944   49.8252 H   0  0  0  0  0  0  0  0  0  0  0  0
   59.0249   32.4688   49.2808 H   0  0  0  0  0  0  0  0  0  0  0  0
   59.2940   31.8170   51.3090 C   0  0  0  0  0  0  0  0  0  0  0  0
   58.6644   32.6304   51.6988 H   0  0  0  0  0  0  0  0  0  0  0  0
   60.3570   32.0988   51.3333 H   0  0  0  0  0  0  0  0  0  0  0  0
   59.1030   30.5620   52.1980 C   0  0  1  0  0  0  0  0  0  0  0  0
   59.8546   30.6279   52.9985 H   0  0  0  0  0  0  0  0  0  0  0  0
   57.7510   30.5430   52.7620 N   0  0  0  0  0  0  0  0  0  0  0  0
   56.9420   29.3700   52.9100 C   0  0  0  0  0  0  0  0  0  0  0  0
   57.4720   28.2370   52.7590 O   0  0  0  0  0  0  0  0  0  0  0  0
   55.5000   29.4560   53.1950 C   0  0  0  0  0  0  0  0  0  0  0  0
   54.5560   29.8590   52.2750 C   0  0  0  0  0  0  0  0  0  0  0  0
   54.7368   30.1278   51.2238 H   0  0  0  0  0  0  0  0  0  0  0  0
   53.3360   29.8600   52.9300 C   0  0  0  0  0  0  0  0  0  0  0  0
   52.1970   30.2770   52.3430 C   0  0  0  0  0  0  0  0  0  0  0  0
   51.7546   29.6187   51.5808 H   0  0  0  0  0  0  0  0  0  0  0  0
   51.4940   31.5360   52.6330 C   0  0  0  0  0  0  0  0  0  0  0  0
   51.1410   31.9230   53.8700 N   0  0  0  0  0  0  0  0  0  0  0  0
   50.4230   33.0480   53.6530 C   0  0  0  0  0  0  0  0  0  0  0  0
   49.9200   33.7220   54.5880 O   0  0  0  0  0  0  0  0  0  0  0  0
   50.2730   33.3830   52.3530 N   0  0  0  0  0  0  0  0  0  0  0  0
   50.9440   32.4070   51.7200 C   0  0  0  0  0  0  0  0  0  0  0  0
   51.0270   32.3000   50.3360 O   0  0  0  0  0  0  0  0  0  0  0  0
   53.5830   29.3760   54.2250 C   0  0  0  0  0  0  0  0  0  0  0  0
   52.6730   29.0370   55.1510 C   0  0  0  0  0  0  0  0  0  0  0  0
   53.0001   28.6685   56.1345 H   0  0  0  0  0  0  0  0  0  0  0  0
   51.5999   29.1276   54.9266 H   0  0  0  0  0  0  0  0  0  0  0  0
   54.9160   29.1620   54.3800 N   0  0  0  0  0  0  0  0  0  0  0  0
   55.5720   28.5580   55.5470 C   0  0  0  0  0  0  0  0  0  0  0  0
   55.1295   28.9654   56.4680 H   0  0  0  0  0  0  0  0  0  0  0  0
   55.4305   27.4674   55.5235 H   0  0  0  0  0  0  0  0  0  0  0  0
   56.6472   28.7889   55.5235 H   0  0  0  0  0  0  0  0  0  0  0  0
   59.3430   29.2420   51.4280 C   0  0  0  0  0  0  0  0  0  0  0  0
   58.3823   28.8846   51.0290 H   0  0  0  0  0  0  0  0  0  0  0  0
   59.7793   28.5156   52.1294 H   0  0  0  0  0  0  0  0  0  0  0  0
   60.3270   29.4230   50.2620 C   0  0  0  0  0  0  0  0  0  0  0  0
   60.4657   28.4544   49.7595 H   0  0  0  0  0  0  0  0  0  0  0  0
   61.2775   29.7957   50.6715 H   0  0  0  0  0  0  0  0  0  0  0  0
   58.5480   33.2720   44.9490 C   0  0  0  0  0  0  0  0  0  0  0  0
   58.2337   32.7317   44.0439 H   0  0  0  0  0  0  0  0  0  0  0  0
   59.0530   34.5710   44.8440 C   0  0  0  0  0  0  0  0  0  0  0  0
   59.1385   35.0480   43.8565 H   0  0  0  0  0  0  0  0  0  0  0  0
  1  2  1  0
  2  3  1  0
  3  4  2  0
  4  5  1  0
  4  6  1  0
  6  7  1  0
  6  8  2  0
  8  9  1  0
  9 10  1  0
  9 11  1  0
  9 12  1  0
 12 13  2  0
 12 14  1  0
 14 15  1  0
 15 16  1  6
 15 17  1  0
 17 18  1  0
 17 19  1  0
 17 20  1  0
 20 21  1  0
 20 22  1  0
 20 23  1  0
 23 24  1  1
 23 25  1  0
 25 26  1  0
 26 27  2  0
 26 28  1  0
 28 29  2  0
 29 30  1  0
 29 31  1  0
 31 32  2  0
 32 33  1  0
 32 34  1  0
 34 35  1  0
 35 36  1  0
 36 37  2  0
 36 38  1  0
 38 39  1  0
 39 40  1  0
 31 41  1  0
 41 42  2  0
 42 43  1  0
 42 44  1  0
 41 45  1  0
 45 46  1  0
 46 47  1  0
 46 48  1  0
 46 49  1  0
 23 50  1  0
 50 51  1  0
 50 52  1  0
 50 53  1  0
 53 54  1  0
 53 55  1  0
  8 56  1  0
 56 57  1  0
 56 58  2  0
 58 59  1  0
 58  3  1  0
 53 15  1  0
 45 28  1  0
 39 34  2  0
M  CHG  5  14  -1  25  -1  35  -1  38  -1  40  -1
M  END
>  <UniqueID>  (28) 
24

>  <SMILES>  (28) 
C=c1/c(=C\c2[n-]c(=O)[n-]c2[O-])cc(C(=O)[N-]C2CCC([N-]C(=O)Cc3ccc(O)cc3)CC2)n1C

>  <Energy>  (28) 
142.75019385026803

>  <Genealogy>  (28) 
C=c1c(=Cc2[n-]c(=O)[n-]c2[O-])cc(C(=O)[N-]C2CCC([N-]C(=O)Cc3ccc(O)cc3)CC2)n1C (protonated)
C=c1/c(=C\c2[n-]c(=O)[n-]c2[O-])cc(C(=O)[N-]C2CCC([N-]C(=O)Cc3ccc(O)cc3)CC2)n1C (cis-trans isomerization)
C=c1/c(=C\c2[n-]c(=O)[n-]c2[O-])cc(C(=O)[N-]C2CCC([N-]C(=O)Cc3ccc(O)cc3)CC2)n1C (3D coordinates assigned)
C=c1/c(=C\c2[n-]c(=O)[n-]c2[O-])cc(C(=O)[N-]C2CCC([N-]C(=O)Cc3ccc(O)cc3)CC2)n1C (nonaromatic ring conformer: 142.75019385026803 kcal/mol)

>  <smiles>  (28) 
C=c1c(=Cc2[nH]c(=O)[nH]c2O)cc(C(=O)NC2CCC(NC(=O)Cc3ccc(O)cc3)CC2)n1C

>  <score_type>  (28) 
oracle

>  <origin>  (28) 
adg

>  <m_score__min__energy>  (28) 
-20.789999999999999

>  <m_primary>  (28) 
energy

$$$$
28:0
     RDKit          3D

 63 66  0  0  0  0  0  0  0  0999 V2000
   50.8800   33.2520   52.0030 N   0  0  0  0  0  0  0  0  0  0  0  0
   51.3920   32.2440   51.1330 C   0  0  0  0  0  0  0  0  0  0  0  0
   51.0240   32.2290   49.9260 O   0  0  0  0  0  0  0  0  0  0  0  0
   52.3420   31.2240   51.6380 C   0  0  0  0  0  0  0  0  0  0  0  0
   51.9030   29.9200   51.9260 C   0  0  0  0  0  0  0  0  0  0  0  0
   52.8000   28.9600   52.3970 C   0  0  0  0  0  0  0  0  0  0  0  0
   54.1430   29.2860   52.5910 C   0  0  0  0  0  0  0  0  0  0  0  0
   54.6050   30.5860   52.3210 C   0  0  0  0  0  0  0  0  0  0  0  0
   56.0340   30.9390   52.5110 C   0  0  0  0  0  0  0  0  0  0  0  0
   56.3810   32.1520   52.5000 O   0  0  0  0  0  0  0  0  0  0  0  0
   57.0270   29.9200   52.7100 N   0  0  0  0  0  0  0  0  0  0  0  0
   58.4550   30.1850   52.5480 C   0  0  0  0  0  0  0  0  0  0  0  0
   58.6990   30.9890   51.2980 C   0  0  0  0  0  0  0  0  0  0  0  0
   58.5160   30.4000   50.0360 C   0  0  0  0  0  0  0  0  0  0  0  0
   58.7120   31.1490   48.8730 C   0  0  0  0  0  0  0  0  0  0  0  0
   59.1090   32.4900   48.9570 C   0  0  0  0  0  0  0  0  0  0  0  0
   59.3170   33.4380   47.4850 S   0  0  0  0  0  0  0  0  0  0  0  0
   58.0590   33.3740   46.6630 O   0  0  0  0  0  0  0  0  0  0  0  0
   59.5510   34.8710   47.8730 O   0  0  0  0  0  0  0  0  0  0  0  0
   60.6940   32.8560   46.5680 N   0  0  0  0  0  0  0  0  0  0  0  0
   61.8090   33.8150   46.5580 C   0  0  0  0  0  0  0  0  0  0  0  0
   62.4950   33.9410   47.9350 C   0  0  0  0  0  0  0  0  0  0  0  0
   62.2990   32.7500   48.8030 N   0  0  0  0  0  0  0  0  0  0  0  0
   63.2950   32.7380   49.9200 C   0  0  0  0  0  0  0  0  0  0  0  0
   63.3580   34.0890   50.6800 C   0  0  0  0  0  0  0  0  0  0  0  0
   64.5370   34.1540   51.6800 C   0  0  0  0  0  0  0  0  0  0  0  0
   65.3690   33.0120   51.6240 O   0  0  0  0  0  0  0  0  0  0  0  0
   65.8440   32.8460   50.3070 C   0  0  0  0  0  0  0  0  0  0  0  0
   64.7090   32.4050   49.3690 C   0  0  0  0  0  0  0  0  0  0  0  0
   62.3190   31.5250   47.9770 C   0  0  0  0  0  0  0  0  0  0  0  0
   61.1220   31.5100   47.0030 C   0  0  0  0  0  0  0  0  0  0  0  0
   59.3010   33.0790   50.2150 C   0  0  0  0  0  0  0  0  0  0  0  0
   59.0950   32.3330   51.3790 C   0  0  0  0  0  0  0  0  0  0  0  0
   53.6980   31.5460   51.8360 C   0  0  0  0  0  0  0  0  0  0  0  0
   50.6710   34.2120   51.6460 H   0  0  0  0  0  0  0  0  0  0  0  0
   50.8457   29.6545   51.7792 H   0  0  0  0  0  0  0  0  0  0  0  0
   52.4467   27.9416   52.6163 H   0  0  0  0  0  0  0  0  0  0  0  0
   54.8440   28.5215   52.9572 H   0  0  0  0  0  0  0  0  0  0  0  0
   56.7350   28.9630   53.0040 H   0  0  0  0  0  0  0  0  0  0  0  0
   58.8206   30.7486   53.4191 H   0  0  0  0  0  0  0  0  0  0  0  0
   58.9898   29.2271   52.4674 H   0  0  0  0  0  0  0  0  0  0  0  0
   58.2169   29.3440   49.9630 H   0  0  0  0  0  0  0  0  0  0  0  0
   58.5542   30.6845   47.8885 H   0  0  0  0  0  0  0  0  0  0  0  0
   62.5549   33.4806   45.8219 H   0  0  0  0  0  0  0  0  0  0  0  0
   61.3978   34.8018   46.2987 H   0  0  0  0  0  0  0  0  0  0  0  0
   63.5741   34.0825   47.7754 H   0  0  0  0  0  0  0  0  0  0  0  0
   62.0353   34.7975   48.4499 H   0  0  0  0  0  0  0  0  0  0  0  0
   62.9636   31.9659   50.6300 H   0  0  0  0  0  0  0  0  0  0  0  0
   63.4727   34.9009   49.9467 H   0  0  0  0  0  0  0  0  0  0  0  0
   62.4264   34.1914   51.2558 H   0  0  0  0  0  0  0  0  0  0  0  0
   65.1439   35.0421   51.4500 H   0  0  0  0  0  0  0  0  0  0  0  0
   64.1093   34.2018   52.6923 H   0  0  0  0  0  0  0  0  0  0  0  0
   66.2569   33.8008   49.9495 H   0  0  0  0  0  0  0  0  0  0  0  0
   66.6225   32.0688   50.3083 H   0  0  0  0  0  0  0  0  0  0  0  0
   64.8364   32.9145   48.4025 H   0  0  0  0  0  0  0  0  0  0  0  0
   64.7723   31.3112   49.2712 H   0  0  0  0  0  0  0  0  0  0  0  0
   63.2552   31.4925   47.4004 H   0  0  0  0  0  0  0  0  0  0  0  0
   62.2503   30.6488   48.6385 H   0  0  0  0  0  0  0  0  0  0  0  0
   61.4064   30.9310   46.1120 H   0  0  0  0  0  0  0  0  0  0  0  0
   60.2744   31.0613   47.5417 H   0  0  0  0  0  0  0  0  0  0  0  0
   59.6146   34.1310   50.2860 H   0  0  0  0  0  0  0  0  0  0  0  0
   59.2440   32.8015   52.3630 H   0  0  0  0  0  0  0  0  0  0  0  0
   54.0533   32.5619   51.6085 H   0  0  0  0  0  0  0  0  0  0  0  0
  1  2  1  0
  2  3  2  0
  2  4  1  0
  4  5  2  0
  5  6  1  0
  6  7  2  0
  7  8  1  0
  8  9  1  0
  9 10  2  0
  9 11  1  0
 11 12  1  0
 12 13  1  0
 13 14  2  0
 14 15  1  0
 15 16  2  0
 16 17  1  0
 17 18  2  0
 17 19  2  0
 17 20  1  0
 20 21  1  0
 21 22  1  0
 22 23  1  0
 23 24  1  0
 24 25  1  0
 25 26  1  0
 26 27  1  0
 27 28  1  0
 28 29  1  0
 23 30  1  0
 30 31  1  0
 16 32  1  0
 32 33  2  0
  8 34  2  0
 34  4  1  0
 33 13  1  0
 31 20  1  0
 29 24  1  0
  1 35  1  0
  5 36  1  0
  6 37  1  0
  7 38  1  0
 11 39  1  0
 12 40  1  0
 12 41  1  0
 14 42  1  0
 15 43  1  0
 21 44  1  0
 21 45  1  0
 22 46  1  0
 22 47  1  0
 24 48  1  0
 25 49  1  0
 25 50  1  0
 26 51  1  0
 26 52  1  0
 28 53  1  0
 28 54  1  0
 29 55  1  0
 29 56  1  0
 30 57  1  0
 30 58  1  0
 31 59  1  0
 31 60  1  0
 32 61  1  0
 33 62  1  0
 34 63  1  0
M  CHG  1   1  -1
M  END
>  <UniqueID>  (29) 
25

>  <SMILES>  (29) 
[NH-]C(=O)c1cccc(C(=O)NCc2ccc(S(=O)(=O)N3CCN(C4CCOCC4)CC3)cc2)c1

>  <Energy>  (29) 
87.78098030471322

>  <Genealogy>  (29) 
[NH-]C(=O)c1cccc(C(=O)NCc2ccc(S(=O)(=O)N3CCN(C4CCOCC4)CC3)cc2)c1 (protonated)
[NH-]C(=O)c1cccc(C(=O)NCc2ccc(S(=O)(=O)N3CCN(C4CCOCC4)CC3)cc2)c1 (3D coordinates assigned)
[NH-]C(=O)c1cccc(C(=O)NCc2ccc(S(=O)(=O)N3CCN(C4CCOCC4)CC3)cc2)c1 (nonaromatic ring conformer: 87.78098030471322 kcal/mol)

>  <smiles>  (29) 
NC(=O)c1cccc(C(=O)NCc2ccc(S(=O)(=O)N3CCN(C4CCOCC4)CC3)cc2)c1

>  <score_type>  (29) 
oracle

>  <origin>  (29) 
adg

>  <m_score__min__energy>  (29) 
-14.77

>  <m_primary>  (29) 
energy

$$$$
29:0
     RDKit          3D

 38 40  0  0  0  0  0  0  0  0999 V2000
   58.7760   34.4610   46.1950 C   0  0  0  0  0  0  0  0  0  0  0  0
   57.6830   33.5750   45.9860 O   0  0  0  0  0  0  0  0  0  0  0  0
   57.5610   32.7820   44.8420 C   0  0  0  0  0  0  0  0  0  0  0  0
   58.2380   33.0890   43.7020 N   0  0  0  0  0  0  0  0  0  0  0  0
   58.1190   32.3200   42.5880 C   0  0  0  0  0  0  0  0  0  0  0  0
   57.2910   31.1990   42.6020 C   0  0  0  0  0  0  0  0  0  0  0  0
   56.6000   30.8940   43.7800 C   0  0  0  0  0  0  0  0  0  0  0  0
   55.6740   29.7140   43.8460 C   0  0  0  0  0  0  0  0  0  0  0  0
   55.7190   29.0730   45.1620 N   0  0  0  0  0  0  0  0  0  0  0  0
   57.1230   28.0580   45.3380 S   0  0  0  0  0  0  0  0  0  0  0  0
   57.4080   27.3810   44.0270 O   0  0  0  0  0  0  0  0  0  0  0  0
   56.8520   27.0000   46.3720 O   0  0  0  0  0  0  0  0  0  0  0  0
   58.5360   28.9870   45.8110 C   0  0  0  0  0  0  0  0  0  0  0  0
   59.8310   28.7660   45.3660 C   0  0  0  0  0  0  0  0  0  0  0  0
   60.7510   29.6860   45.8810 C   0  0  0  0  0  0  0  0  0  0  0  0
   60.1710   30.6290   46.7240 C   0  0  0  0  0  0  0  0  0  0  0  0
   60.8820   31.7210   47.4040 C   0  0  0  0  0  0  0  0  0  0  0  0
   60.3850   32.5000   48.4350 C   0  0  0  0  0  0  0  0  0  0  0  0
   61.4130   33.3680   48.7350 C   0  0  0  0  0  0  0  0  0  0  0  0
   62.4430   33.1080   47.9080 N   0  0  0  0  0  0  0  0  0  0  0  0
   63.7480   33.7530   47.9450 C   0  0  0  0  0  0  0  0  0  0  0  0
   62.1390   32.1030   47.1040 N   0  0  0  0  0  0  0  0  0  0  0  0
   58.5180   30.3210   46.8320 S   0  0  0  0  0  0  0  0  0  0  0  0
   56.7510   31.6920   44.8720 N   0  0  0  0  0  0  0  0  0  0  0  0
   58.9394   34.5934   47.2747 H   0  0  0  0  0  0  0  0  0  0  0  0
   59.6825   34.0397   45.7360 H   0  0  0  0  0  0  0  0  0  0  0  0
   58.5514   35.4351   45.7360 H   0  0  0  0  0  0  0  0  0  0  0  0
   58.6756   32.5820   41.6761 H   0  0  0  0  0  0  0  0  0  0  0  0
   57.1831   30.5683   41.7073 H   0  0  0  0  0  0  0  0  0  0  0  0
   54.6466   30.0537   43.6482 H   0  0  0  0  0  0  0  0  0  0  0  0
   55.9941   28.9799   43.0920 H   0  0  0  0  0  0  0  0  0  0  0  0
   60.1063   27.9519   44.6794 H   0  0  0  0  0  0  0  0  0  0  0  0
   61.8248   29.6658   45.6433 H   0  0  0  0  0  0  0  0  0  0  0  0
   59.3937   32.4399   48.9079 H   0  0  0  0  0  0  0  0  0  0  0  0
   61.3948   34.1414   49.5170 H   0  0  0  0  0  0  0  0  0  0  0  0
   64.0530   33.9037   48.9911 H   0  0  0  0  0  0  0  0  0  0  0  0
   64.4864   33.1161   47.4359 H   0  0  0  0  0  0  0  0  0  0  0  0
   63.6905   34.7264   47.4359 H   0  0  0  0  0  0  0  0  0  0  0  0
  1  2  1  0
  2  3  1  0
  3  4  2  0
  4  5  1  0
  5  6  2  0
  6  7  1  0
  7  8  1  0
  8  9  1  0
  9 10  1  0
 10 11  2  0
 10 12  2  0
 10 13  1  0
 13 14  2  0
 14 15  1  0
 15 16  2  0
 16 17  1  0
 17 18  1  0
 18 19  2  0
 19 20  1  0
 20 21  1  0
 20 22  1  0
 16 23  1  0
  7 24  2  0
 24  3  1  0
 23 13  1  0
 22 17  2  0
  1 25  1  0
  1 26  1  0
  1 27  1  0
  5 28  1  0
  6 29  1  0
  8 30  1  0
  8 31  1  0
 14 32  1  0
 15 33  1  0
 18 34  1  0
 19 35  1  0
 21 36  1  0
 21 37  1  0
 21 38  1  0
M  CHG  1   9  -1
M  END
>  <UniqueID>  (30) 
26

>  <SMILES>  (30) 
COc1nccc(C[N-]S(=O)(=O)c2ccc(-c3ccn(C)n3)s2)n1

>  <Energy>  (30) 
91.07735453741044

>  <Genealogy>  (30) 
COc1nccc(C[N-]S(=O)(=O)c2ccc(-c3ccn(C)n3)s2)n1 (protonated)
COc1nccc(C[N-]S(=O)(=O)c2ccc(-c3ccn(C)n3)s2)n1 (3D coordinates assigned)
COc1nccc(C[N-]S(=O)(=O)c2ccc(-c3ccn(C)n3)s2)n1 (optimized conformer: 91.07735453741044 kcal/mol)

>  <smiles>  (30) 
COc1nccc(CNS(=O)(=O)c2ccc(-c3ccn(C)n3)s2)n1

>  <score_type>  (30) 
oracle

>  <origin>  (30) 
adg

>  <m_score__min__energy>  (30) 
-9.4600000000000009

>  <m_primary>  (30) 
energy

$$$$
30:0
     RDKit          3D

 74 76  0  0  0  0  0  0  0  0999 V2000
   59.6000   31.4530   51.4300 N   0  0  0  0  0  0  0  0  0  0  0  0
   59.4460   32.8130   51.0080 C   0  0  0  0  0  0  0  0  0  0  0  0
   59.5740   33.7710   51.8770 N   0  0  0  0  0  0  0  0  0  0  0  0
   59.1260   33.1160   49.5890 C   0  0  0  0  0  0  0  0  0  0  0  0
   59.7870   34.1510   48.9050 C   0  0  0  0  0  0  0  0  0  0  0  0
   59.4710   34.4340   47.5730 C   0  0  0  0  0  0  0  0  0  0  0  0
   58.4790   33.7010   46.9090 C   0  0  0  0  0  0  0  0  0  0  0  0
   58.0850   34.0760   45.2280 S   0  0  0  0  0  0  0  0  0  0  0  0
   58.9460   35.2140   44.7530 O   0  0  0  0  0  0  0  0  0  0  0  0
   56.6540   34.5320   45.1830 O   0  0  0  0  0  0  0  0  0  0  0  0
   58.2700   32.7430   44.1120 N   0  0  0  0  0  0  0  0  0  0  0  0
   57.2880   31.6670   44.2790 C   0  0  0  0  0  0  0  0  0  0  0  0
   57.8000   30.5710   45.2240 C   0  0  0  0  0  0  0  0  0  0  0  0
   58.9700   29.7850   44.6240 C   0  0  0  0  0  0  0  0  0  0  0  0
   59.5840   28.8190   45.6490 C   0  0  0  0  0  0  0  0  0  0  0  0
   58.5360   28.3080   46.6580 C   0  0  2  0  0  0  0  0  0  0  0  0
   58.5720   29.1210   47.8750 N   0  0  0  0  0  0  0  0  0  0  0  0
   59.7270   29.3790   48.6910 C   0  0  0  0  0  0  0  0  0  0  0  0
   59.8800   28.7150   49.7500 O   0  0  0  0  0  0  0  0  0  0  0  0
   60.6900   30.4490   48.3730 C   0  0  0  0  0  0  0  0  0  0  0  0
   60.5740   31.1480   47.1630 C   0  0  0  0  0  0  0  0  0  0  0  0
   61.5130   32.1230   46.8190 C   0  0  0  0  0  0  0  0  0  0  0  0
   62.5690   32.4220   47.6870 C   0  0  0  0  0  0  0  0  0  0  0  0
   63.7410   33.6450   47.2130 Cl  0  0  0  0  0  0  0  0  0  0  0  0
   62.6730   31.7480   48.9160 C   0  0  0  0  0  0  0  0  0  0  0  0
   63.9780   32.1010   50.0400 Cl  0  0  0  0  0  0  0  0  0  0  0  0
   61.7290   30.7740   49.2590 C   0  0  0  0  0  0  0  0  0  0  0  0
   58.7040   26.8270   46.9510 C   0  0  0  0  0  0  0  0  0  0  0  0
   59.4720   26.5110   47.8990 O   0  0  0  0  0  0  0  0  0  0  0  0
   58.0580   25.7730   46.1950 N   0  0  0  0  0  0  0  0  0  0  0  0
   56.9090   26.0110   45.3050 C   0  0  0  0  0  0  0  0  0  0  0  0
   55.9340   24.8350   45.3880 C   0  0  0  0  0  0  0  0  0  0  0  0
   56.5960   23.4840   44.9980 C   0  0  0  0  0  0  0  0  0  0  0  0
   56.1870   23.0700   43.5630 C   0  0  0  0  0  0  0  0  0  0  0  0
   57.0000   21.8920   43.0100 C   0  0  0  0  0  0  0  0  0  0  0  0
   56.2570   20.7070   43.0840 O   0  0  0  0  0  0  0  0  0  0  0  0
   58.1360   23.5130   45.1640 C   0  0  0  0  0  0  0  0  0  0  0  0
   58.5810   24.4030   46.3310 C   0  0  0  0  0  0  0  0  0  0  0  0
   57.8320   32.6530   47.5810 C   0  0  0  0  0  0  0  0  0  0  0  0
   58.1540   32.3630   48.9080 C   0  0  0  0  0  0  0  0  0  0  0  0
   59.5980   30.6700   50.7390 H   0  0  0  0  0  0  0  0  0  0  0  0
   59.7630   31.2210   52.4350 H   0  0  0  0  0  0  0  0  0  0  0  0
   58.9200   34.5860   51.8980 H   0  0  0  0  0  0  0  0  0  0  0  0
   60.3250   33.7370   52.6020 H   0  0  0  0  0  0  0  0  0  0  0  0
   60.5579   34.7420   49.4212 H   0  0  0  0  0  0  0  0  0  0  0  0
   60.0044   35.2370   47.0432 H   0  0  0  0  0  0  0  0  0  0  0  0
   56.3618   32.0912   44.6941 H   0  0  0  0  0  0  0  0  0  0  0  0
   57.1072   31.2125   43.2937 H   0  0  0  0  0  0  0  0  0  0  0  0
   58.1329   31.0398   46.1618 H   0  0  0  0  0  0  0  0  0  0  0  0
   56.9748   29.8649   45.3983 H   0  0  0  0  0  0  0  0  0  0  0  0
   58.6073   29.2073   43.7610 H   0  0  0  0  0  0  0  0  0  0  0  0
   59.7460   30.5017   44.3173 H   0  0  0  0  0  0  0  0  0  0  0  0
   60.0120   27.9582   45.1143 H   0  0  0  0  0  0  0  0  0  0  0  0
   60.3586   29.3636   46.2088 H   0  0  0  0  0  0  0  0  0  0  0  0
   57.5391   28.4160   46.2056 H   0  0  0  0  0  0  0  0  0  0  0  0
   59.7393   30.9274   46.4813 H   0  0  0  0  0  0  0  0  0  0  0  0
   61.4221   32.6579   45.8621 H   0  0  0  0  0  0  0  0  0  0  0  0
   61.8015   30.2599   50.2288 H   0  0  0  0  0  0  0  0  0  0  0  0
   56.3947   26.9336   45.6121 H   0  0  0  0  0  0  0  0  0  0  0  0
   57.2674   26.1121   44.2699 H   0  0  0  0  0  0  0  0  0  0  0  0
   55.5595   24.7595   46.4195 H   0  0  0  0  0  0  0  0  0  0  0  0
   55.1188   25.0259   44.6746 H   0  0  0  0  0  0  0  0  0  0  0  0
   56.2223   22.7212   45.6969 H   0  0  0  0  0  0  0  0  0  0  0  0
   55.1244   22.7857   43.5723 H   0  0  0  0  0  0  0  0  0  0  0  0
   56.3826   23.9329   42.9094 H   0  0  0  0  0  0  0  0  0  0  0  0
   57.2592   22.0920   41.9599 H   0  0  0  0  0  0  0  0  0  0  0  0
   57.9145   21.7772   43.6104 H   0  0  0  0  0  0  0  0  0  0  0  0
   56.9070   19.9870   43.2950 H   0  0  0  0  0  0  0  0  0  0  0  0
   58.4912   22.4879   45.3459 H   0  0  0  0  0  0  0  0  0  0  0  0
   58.5653   23.9301   44.2411 H   0  0  0  0  0  0  0  0  0  0  0  0
   58.2100   23.9706   47.2720 H   0  0  0  0  0  0  0  0  0  0  0  0
   59.6799   24.4513   46.3286 H   0  0  0  0  0  0  0  0  0  0  0  0
   57.0679   32.0574   47.0601 H   0  0  0  0  0  0  0  0  0  0  0  0
   57.6425   31.5379   49.4253 H   0  0  0  0  0  0  0  0  0  0  0  0
  1  2  1  0
  2  3  2  0
  2  4  1  0
  4  5  2  0
  5  6  1  0
  6  7  2  0
  7  8  1  0
  8  9  2  0
  8 10  2  0
  8 11  1  0
 11 12  1  0
 12 13  1  0
 13 14  1  0
 14 15  1  0
 15 16  1  0
 16 17  1  0
 17 18  1  0
 18 19  2  0
 18 20  1  0
 20 21  2  0
 21 22  1  0
 22 23  2  0
 23 24  1  0
 23 25  1  0
 25 26  1  0
 25 27  2  0
 16 28  1  0
 28 29  2  0
 28 30  1  0
 30 31  1  0
 31 32  1  0
 32 33  1  0
 33 34  1  0
 34 35  1  0
 35 36  1  0
 33 37  1  0
 37 38  1  0
  7 39  1  0
 39 40  2  0
 40  4  1  0
 27 20  1  0
 38 30  1  0
  1 41  1  0
  1 42  1  0
  3 43  1  0
  3 44  1  0
  5 45  1  0
  6 46  1  0
 12 47  1  0
 12 48  1  0
 13 49  1  0
 13 50  1  0
 14 51  1  0
 14 52  1  0
 15 53  1  0
 15 54  1  0
 16 55  1  6
 21 56  1  0
 22 57  1  0
 27 58  1  0
 31 59  1  0
 31 60  1  0
 32 61  1  0
 32 62  1  0
 33 63  1  0
 34 64  1  0
 34 65  1  0
 35 66  1  0
 35 67  1  0
 36 68  1  0
 37 69  1  0
 37 70  1  0
 38 71  1  0
 38 72  1  0
 39 73  1  0
 40 74  1  0
M  CHG  3   3   1  11  -1  17  -1
M  END
>  <UniqueID>  (31) 
27

>  <SMILES>  (31) 
NC(=[NH2+])c1ccc(S(=O)(=O)[N-]CCCC[C@H]([N-]C(=O)c2ccc(Cl)c(Cl)c2)C(=O)N2CCC(CCO)CC2)cc1

>  <Energy>  (31) 
76.1735292106748

>  <Genealogy>  (31) 
NC(=[NH2+])c1ccc(S(=O)(=O)[N-]CCCCC([N-]C(=O)c2ccc(Cl)c(Cl)c2)C(=O)N2CCC(CCO)CC2)cc1 (protonated)
NC(=[NH2+])c1ccc(S(=O)(=O)[N-]CCCC[C@H]([N-]C(=O)c2ccc(Cl)c(Cl)c2)C(=O)N2CCC(CCO)CC2)cc1 (chirality)
NC(=[NH2+])c1ccc(S(=O)(=O)[N-]CCCC[C@H]([N-]C(=O)c2ccc(Cl)c(Cl)c2)C(=O)N2CCC(CCO)CC2)cc1 (3D coordinates assigned)
NC(=[NH2+])c1ccc(S(=O)(=O)[N-]CCCC[C@H]([N-]C(=O)c2ccc(Cl)c(Cl)c2)C(=O)N2CCC(CCO)CC2)cc1 (nonaromatic ring conformer: 76.1735292106748 kcal/mol)

>  <smiles>  (31) 
N=C(N)c1ccc(S(=O)(=O)NCCCCC(NC(=O)c2ccc(Cl)c(Cl)c2)C(=O)N2CCC(CCO)CC2)cc1

>  <score_type>  (31) 
oracle

>  <origin>  (31) 
adg

>  <m_score__min__energy>  (31) 
-12.19

>  <m_primary>  (31) 
energy

$$$$
31:0
     RDKit          3D

 52 55  0  0  0  0  0  0  0  0999 V2000
   56.4233   29.7697   53.1326 H   0  0  0  0  0  0  0  0  0  0  0  0
   56.9700   30.4410   52.4540 C   0  0  0  0  0  0  0  0  0  0  0  0
   57.6290   29.9370   51.3800 N   0  0  0  0  0  0  0  0  0  0  0  0
   58.2690   30.7540   50.4960 C   0  0  0  0  0  0  0  0  0  0  0  0
   58.9080   30.2430   49.3580 O   0  0  0  0  0  0  0  0  0  0  0  0
   60.3200   30.1550   49.2030 C   0  0  0  0  0  0  0  0  0  0  0  0
   60.6511   29.1506   49.5055 H   0  0  0  0  0  0  0  0  0  0  0  0
   60.7857   30.9266   49.8337 H   0  0  0  0  0  0  0  0  0  0  0  0
   60.7410   30.4020   47.7500 C   0  0  0  0  0  0  0  0  0  0  0  0
   61.2796   29.5187   47.3761 H   0  0  0  0  0  0  0  0  0  0  0  0
   61.3896   31.2899   47.7185 H   0  0  0  0  0  0  0  0  0  0  0  0
   59.6020   30.6400   46.9220 O   0  0  0  0  0  0  0  0  0  0  0  0
   59.1370   29.8260   45.8820 C   0  0  0  0  0  0  0  0  0  0  0  0
   59.7990   28.6440   45.4910 C   0  0  0  0  0  0  0  0  0  0  0  0
   60.7133   28.3263   46.0137 H   0  0  0  0  0  0  0  0  0  0  0  0
   59.2920   27.8760   44.4380 C   0  0  0  0  0  0  0  0  0  0  0  0
   59.8229   26.9669   44.1190 H   0  0  0  0  0  0  0  0  0  0  0  0
   58.1150   28.2570   43.7890 C   0  0  0  0  0  0  0  0  0  0  0  0
   57.6350   27.5130   42.7620 F   0  0  0  0  0  0  0  0  0  0  0  0
   57.4370   29.4070   44.1920 C   0  0  0  0  0  0  0  0  0  0  0  0
   56.4973   29.6911   43.6957 H   0  0  0  0  0  0  0  0  0  0  0  0
   57.9470   30.2010   45.2250 C   0  0  0  0  0  0  0  0  0  0  0  0
   57.2430   31.3490   45.6080 O   0  0  0  0  0  0  0  0  0  0  0  0
   57.8730   32.5850   45.7650 C   0  0  0  0  0  0  0  0  0  0  0  0
   58.2440   33.3350   44.6430 C   0  0  0  0  0  0  0  0  0  0  0  0
   58.0269   32.9655   43.6299 H   0  0  0  0  0  0  0  0  0  0  0  0
   58.8930   34.5580   44.8250 C   0  0  0  0  0  0  0  0  0  0  0  0
   59.1500   35.1787   43.9540 H   0  0  0  0  0  0  0  0  0  0  0  0
   59.2080   34.9830   46.0800 N   0  0  0  0  0  0  0  0  0  0  0  0
   58.8610   34.2660   47.1910 C   0  0  0  0  0  0  0  0  0  0  0  0
   59.2490   34.6390   48.3760 N   0  0  0  0  0  0  0  0  0  0  0  0
   60.3530   34.0830   49.1040 C   0  0  0  0  0  0  0  0  0  0  0  0
   60.1710   33.7440   50.3050 O   0  0  0  0  0  0  0  0  0  0  0  0
   61.6460   33.7690   48.4300 C   0  0  0  0  0  0  0  0  0  0  0  0
   62.7430   33.3160   49.1880 C   0  0  0  0  0  0  0  0  0  0  0  0
   62.6587   33.2446   50.2824 H   0  0  0  0  0  0  0  0  0  0  0  0
   63.9400   32.9560   48.5580 C   0  0  0  0  0  0  0  0  0  0  0  0
   64.7760   32.5639   49.1559 H   0  0  0  0  0  0  0  0  0  0  0  0
   64.0800   33.0920   47.1700 C   0  0  0  0  0  0  0  0  0  0  0  0
   65.0319   32.8339   46.6829 H   0  0  0  0  0  0  0  0  0  0  0  0
   63.0070   33.5560   46.4090 C   0  0  0  0  0  0  0  0  0  0  0  0
   63.1158   33.6734   45.3207 H   0  0  0  0  0  0  0  0  0  0  0  0
   61.7900   33.8730   47.0290 C   0  0  0  0  0  0  0  0  0  0  0  0
   60.9384   34.2062   46.4177 H   0  0  0  0  0  0  0  0  0  0  0  0
   58.1300   33.0800   47.0470 C   0  0  0  0  0  0  0  0  0  0  0  0
   57.7630   32.3590   48.1370 F   0  0  0  0  0  0  0  0  0  0  0  0
   58.2700   32.1030   50.7010 N   0  0  0  0  0  0  0  0  0  0  0  0
   58.7550   32.7260   50.0130 H   0  0  0  0  0  0  0  0  0  0  0  0
   57.6530   32.6460   51.7830 C   0  0  0  0  0  0  0  0  0  0  0  0
   57.6755   33.7342   51.9420 H   0  0  0  0  0  0  0  0  0  0  0  0
   56.9900   31.8190   52.6930 C   0  0  0  0  0  0  0  0  0  0  0  0
   56.4941   32.2426   53.5788 H   0  0  0  0  0  0  0  0  0  0  0  0
  1  2  1  0
  2  3  2  0
  3  4  1  0
  4  5  1  0
  5  6  1  0
  6  7  1  0
  6  8  1  0
  6  9  1  0
  9 10  1  0
  9 11  1  0
  9 12  1  0
 12 13  1  0
 13 14  2  0
 14 15  1  0
 14 16  1  0
 16 17  1  0
 16 18  2  0
 18 19  1  0
 18 20  1  0
 20 21  1  0
 20 22  2  0
 22 23  1  0
 23 24  1  0
 24 25  1  0
 25 26  1  0
 25 27  2  0
 27 28  1  0
 27 29  1  0
 29 30  1  0
 30 31  2  0
 31 32  1  0
 32 33  2  0
 32 34  1  0
 34 35  2  0
 35 36  1  0
 35 37  1  0
 37 38  1  0
 37 39  2  0
 39 40  1  0
 39 41  1  0
 41 42  1  0
 41 43  2  0
 43 44  1  0
 30 45  1  0
 45 46  1  0
  4 47  2  0
 47 48  1  0
 47 49  1  0
 49 50  1  0
 49 51  2  0
 51 52  1  0
 51  2  1  0
 22 13  1  0
 45 24  2  0
 43 34  1  0
M  CHG  2  29  -1  47   1
M  END
>  <UniqueID>  (32) 
28

>  <SMILES>  (32) 
O=C(/N=c1\[n-]ccc(Oc2cc(F)ccc2OCCOc2nccc[nH+]2)c1F)c1ccccc1

>  <Energy>  (32) 
81.52943507586548

>  <Genealogy>  (32) 
O=C(N=c1[n-]ccc(Oc2cc(F)ccc2OCCOc2nccc[nH+]2)c1F)c1ccccc1 (protonated)
O=C(/N=c1\[n-]ccc(Oc2cc(F)ccc2OCCOc2nccc[nH+]2)c1F)c1ccccc1 (cis-trans isomerization)
O=C(/N=c1\[n-]ccc(Oc2cc(F)ccc2OCCOc2nccc[nH+]2)c1F)c1ccccc1 (3D coordinates assigned)
O=C(/N=c1\[n-]ccc(Oc2cc(F)ccc2OCCOc2nccc[nH+]2)c1F)c1ccccc1 (optimized conformer: 81.52943507586548 kcal/mol)

>  <smiles>  (32) 
O=C(N=c1[nH]ccc(Oc2cc(F)ccc2OCCOc2ncccn2)c1F)c1ccccc1

>  <score_type>  (32) 
oracle

>  <origin>  (32) 
adg

>  <m_score__min__energy>  (32) 
-8.5199999999999996

>  <m_primary>  (32) 
energy

$$$$
32:0
     RDKit          3D

 25 26  0  0  0  0  0  0  0  0999 V2000
   59.7090   35.3300   46.8250 C   0  0  0  0  0  0  0  0  0  0  0  0
   59.7340   34.0000   46.6910 C   0  0  0  0  0  0  0  0  0  0  0  0
   60.8860   33.3300   46.9540 N   0  0  0  0  0  0  0  0  0  0  0  0
   60.9840   31.9800   46.8350 C   0  0  0  0  0  0  0  0  0  0  0  0
   62.0720   31.4240   47.1430 O   0  0  0  0  0  0  0  0  0  0  0  0
   59.8540   31.2370   46.4070 C   0  0  0  0  0  0  0  0  0  0  0  0
   59.8330   29.8990   46.2400 C   0  0  0  0  0  0  0  0  0  0  0  0
   58.6280   29.0650   46.0630 C   0  0  0  0  0  0  0  0  0  0  0  0
   57.4840   29.5800   45.4310 C   0  0  0  0  0  0  0  0  0  0  0  0
   56.3260   28.7990   45.3160 C   0  0  0  0  0  0  0  0  0  0  0  0
   55.1960   29.3020   44.6740 O   0  0  0  0  0  0  0  0  0  0  0  0
   56.3030   27.5040   45.8510 C   0  0  0  0  0  0  0  0  0  0  0  0
   55.1550   26.7290   45.7340 O   0  0  0  0  0  0  0  0  0  0  0  0
   57.4320   26.9970   46.5080 C   0  0  0  0  0  0  0  0  0  0  0  0
   57.4130   25.3820   47.1990 Cl  0  0  0  0  0  0  0  0  0  0  0  0
   58.5860   27.7810   46.6220 C   0  0  0  0  0  0  0  0  0  0  0  0
   58.6980   31.9170   46.1700 N   0  0  0  0  0  0  0  0  0  0  0  0
   58.6020   33.2660   46.2960 C   0  0  0  0  0  0  0  0  0  0  0  0
   57.5020   33.8320   46.0540 O   0  0  0  0  0  0  0  0  0  0  0  0
   58.7836   35.8866   46.6157 H   0  0  0  0  0  0  0  0  0  0  0  0
   60.6139   35.8677   47.1446 H   0  0  0  0  0  0  0  0  0  0  0  0
   60.8035   29.3813   46.2352 H   0  0  0  0  0  0  0  0  0  0  0  0
   57.4972   30.6019   45.0241 H   0  0  0  0  0  0  0  0  0  0  0  0
   54.3850   28.7220   44.4960 H   0  0  0  0  0  0  0  0  0  0  0  0
   59.4647   27.3868   47.1534 H   0  0  0  0  0  0  0  0  0  0  0  0
  1  2  2  0
  2  3  1  0
  3  4  1  0
  4  5  2  0
  4  6  1  0
  6  7  2  3
  7  8  1  0
  8  9  2  0
  9 10  1  0
 10 11  1  0
 10 12  2  0
 12 13  1  0
 12 14  1  0
 14 15  1  0
 14 16  2  0
  6 17  1  0
 17 18  1  0
 18 19  2  0
 18  2  1  0
 16  8  1  0
  1 20  1  0
  1 21  1  0
  7 22  1  0
  9 23  1  0
 11 24  1  0
 16 25  1  0
M  CHG  3   3  -1  13  -1  17  -1
M  END
>  <UniqueID>  (33) 
29

>  <SMILES>  (33) 
C=c1[n-]c(=O)c(=Cc2cc(O)c([O-])c(Cl)c2)[n-]c1=O

>  <Energy>  (33) 
41.22138091836966

>  <Genealogy>  (33) 
C=c1[n-]c(=O)c(=Cc2cc(O)c([O-])c(Cl)c2)[n-]c1=O (protonated)
C=c1[n-]c(=O)c(=Cc2cc(O)c([O-])c(Cl)c2)[n-]c1=O (3D coordinates assigned)
C=c1[n-]c(=O)c(=Cc2cc(O)c([O-])c(Cl)c2)[n-]c1=O (optimized conformer: 41.22138091836966 kcal/mol)

>  <smiles>  (33) 
C=c1[nH]c(=O)c(=Cc2cc(O)c(O)c(Cl)c2)[nH]c1=O

>  <score_type>  (33) 
oracle

>  <origin>  (33) 
adg

>  <m_score__min__energy>  (33) 
-12.630000000000001

>  <m_primary>  (33) 
energy

$$$$
33:0
     RDKit          3D

 37 38  0  0  0  0  0  0  0  0999 V2000
   54.6360   30.7710   51.9060 C   0  0  0  0  0  0  0  0  0  0  0  0
   55.9830   30.8290   51.4510 O   0  0  0  0  0  0  0  0  0  0  0  0
   57.0300   31.2800   52.2590 C   0  0  0  0  0  0  0  0  0  0  0  0
   57.0740   30.9830   53.4840 O   0  0  0  0  0  0  0  0  0  0  0  0
   58.1380   32.0790   51.6480 C   0  0  0  0  0  0  0  0  0  0  0  0
   57.8710   32.3340   50.2330 N   0  0  0  0  0  0  0  0  0  0  0  0
   58.9410   32.5180   49.2950 C   0  0  0  0  0  0  0  0  0  0  0  0
   60.1310   32.3090   49.6620 O   0  0  0  0  0  0  0  0  0  0  0  0
   58.6750   32.9330   47.8960 C   0  0  0  0  0  0  0  0  0  0  0  0
   58.9480   34.2440   47.4630 C   0  0  0  0  0  0  0  0  0  0  0  0
   58.7040   34.6150   46.1380 C   0  0  0  0  0  0  0  0  0  0  0  0
   58.1900   33.6870   45.2310 C   0  0  0  0  0  0  0  0  0  0  0  0
   57.9140   32.3790   45.6450 C   0  0  0  0  0  0  0  0  0  0  0  0
   57.2990   31.2030   44.4900 S   0  0  0  0  0  0  0  0  0  0  0  0
   55.7960   31.1860   44.5110 O   0  0  0  0  0  0  0  0  0  0  0  0
   57.7470   31.5720   43.1030 O   0  0  0  0  0  0  0  0  0  0  0  0
   57.9020   29.6330   44.8970 N   0  0  0  0  0  0  0  0  0  0  0  0
   59.2870   29.3410   45.2300 C   0  0  0  0  0  0  0  0  0  0  0  0
   59.2770   27.8960   45.7860 C   0  0  0  0  0  0  0  0  0  0  0  0
   57.8770   27.4850   45.8540 N   0  0  0  0  0  0  0  0  0  0  0  0
   57.1160   28.5440   45.3190 C   0  0  0  0  0  0  0  0  0  0  0  0
   55.8590   28.5200   45.2470 O   0  0  0  0  0  0  0  0  0  0  0  0
   58.1680   32.0010   46.9710 C   0  0  0  0  0  0  0  0  0  0  0  0
   54.6202   30.7703   53.0059 H   0  0  0  0  0  0  0  0  0  0  0  0
   54.0846   31.6462   51.5319 H   0  0  0  0  0  0  0  0  0  0  0  0
   54.1619   29.8516   51.5319 H   0  0  0  0  0  0  0  0  0  0  0  0
   58.2257   33.0390   52.1778 H   0  0  0  0  0  0  0  0  0  0  0  0
   59.0748   31.5089   51.7343 H   0  0  0  0  0  0  0  0  0  0  0  0
   56.8830   32.3270   49.8900 H   0  0  0  0  0  0  0  0  0  0  0  0
   59.3556   34.9804   48.1712 H   0  0  0  0  0  0  0  0  0  0  0  0
   58.9179   35.6425   45.8085 H   0  0  0  0  0  0  0  0  0  0  0  0
   58.0015   33.9843   44.1888 H   0  0  0  0  0  0  0  0  0  0  0  0
   59.9206   29.4044   44.3331 H   0  0  0  0  0  0  0  0  0  0  0  0
   59.6939   30.0580   45.9582 H   0  0  0  0  0  0  0  0  0  0  0  0
   59.8368   27.2274   45.1155 H   0  0  0  0  0  0  0  0  0  0  0  0
   59.7530   27.8487   46.7765 H   0  0  0  0  0  0  0  0  0  0  0  0
   57.9694   30.9675   47.2911 H   0  0  0  0  0  0  0  0  0  0  0  0
  1  2  1  0
  2  3  1  0
  3  4  2  0
  3  5  1  0
  5  6  1  0
  6  7  1  0
  7  8  2  0
  7  9  1  0
  9 10  2  0
 10 11  1  0
 11 12  2  0
 12 13  1  0
 13 14  1  0
 14 15  2  0
 14 16  2  0
 14 17  1  0
 17 18  1  0
 18 19  1  0
 19 20  1  0
 20 21  1  0
 21 22  2  0
 13 23  2  0
 23  9  1  0
 21 17  1  0
  1 24  1  0
  1 25  1  0
  1 26  1  0
  5 27  1  0
  5 28  1  0
  6 29  1  0
 10 30  1  0
 11 31  1  0
 12 32  1  0
 18 33  1  0
 18 34  1  0
 19 35  1  0
 19 36  1  0
 23 37  1  0
M  CHG  1  20  -1
M  END
>  <UniqueID>  (34) 
30

>  <SMILES>  (34) 
COC(=O)CNC(=O)c1cccc(S(=O)(=O)N2CC[N-]C2=O)c1

>  <Energy>  (34) 
48.61471545469203

>  <Genealogy>  (34) 
COC(=O)CNC(=O)c1cccc(S(=O)(=O)N2CC[N-]C2=O)c1 (protonated)
COC(=O)CNC(=O)c1cccc(S(=O)(=O)N2CC[N-]C2=O)c1 (3D coordinates assigned)
COC(=O)CNC(=O)c1cccc(S(=O)(=O)N2CC[N-]C2=O)c1 (nonaromatic ring conformer: 48.61471545469203 kcal/mol)

>  <smiles>  (34) 
COC(=O)CNC(=O)c1cccc(S(=O)(=O)N2CCNC2=O)c1

>  <score_type>  (34) 
oracle

>  <origin>  (34) 
adg

>  <m_score__min__energy>  (34) 
-9.9600000000000009

>  <m_primary>  (34) 
energy

$$$$
34:0
     RDKit          3D

 33 35  0  0  0  0  0  0  0  0999 V2000
   56.9177   30.3491   43.5357 H   0  0  0  0  0  0  0  0  0  0  0  0
   57.0140   31.1860   44.2430 C   0  0  0  0  0  0  0  0  0  0  0  0
   56.5453   32.1549   44.0158 H   0  0  0  0  0  0  0  0  0  0  0  0
   57.6990   31.0260   45.3760 C   0  0  0  0  0  0  0  0  0  0  0  0
   57.8490   32.0180   46.2790 N   0  0  0  0  0  0  0  0  0  0  0  0
   58.5700   31.5530   47.2890 N   0  0  0  0  0  0  0  0  0  0  0  0
   58.9300   32.3510   48.4330 C   0  0  0  0  0  0  0  0  0  0  0  0
   59.6960   33.5240   48.2940 C   0  0  0  0  0  0  0  0  0  0  0  0
   60.0220   33.8486   47.2948 H   0  0  0  0  0  0  0  0  0  0  0  0
   60.0450   34.2790   49.4180 C   0  0  0  0  0  0  0  0  0  0  0  0
   60.6384   35.1977   49.3000 H   0  0  0  0  0  0  0  0  0  0  0  0
   59.6410   33.8680   50.6910 C   0  0  0  0  0  0  0  0  0  0  0  0
   59.9114   34.4660   51.5738 H   0  0  0  0  0  0  0  0  0  0  0  0
   58.8940   32.6980   50.8420 C   0  0  0  0  0  0  0  0  0  0  0  0
   58.5805   32.3723   51.8448 H   0  0  0  0  0  0  0  0  0  0  0  0
   58.5440   31.9400   49.7210 C   0  0  0  0  0  0  0  0  0  0  0  0
   57.9622   31.0150   49.8474 H   0  0  0  0  0  0  0  0  0  0  0  0
   58.9000   30.2680   47.0360 C   0  0  0  0  0  0  0  0  0  0  0  0
   59.5960   29.5500   47.8020 O   0  0  0  0  0  0  0  0  0  0  0  0
   58.3650   29.8800   45.8150 C   0  0  0  0  0  0  0  0  0  0  0  0
   58.4380   28.6820   45.2000 C   0  0  0  0  0  0  0  0  0  0  0  0
   59.1042   28.5849   44.3301 H   0  0  0  0  0  0  0  0  0  0  0  0
   57.6750   27.4950   45.6280 C   0  0  0  0  0  0  0  0  0  0  0  0
   58.3660   26.3900   46.1480 C   0  0  0  0  0  0  0  0  0  0  0  0
   59.4639   26.4114   46.2118 H   0  0  0  0  0  0  0  0  0  0  0  0
   57.6660   25.2630   46.5850 C   0  0  0  0  0  0  0  0  0  0  0  0
   58.2147   24.3940   46.9772 H   0  0  0  0  0  0  0  0  0  0  0  0
   56.2690   25.2370   46.5250 C   0  0  0  0  0  0  0  0  0  0  0  0
   55.5800   24.1100   46.9580 O   0  0  0  0  0  0  0  0  0  0  0  0
   55.5700   26.3450   46.0340 C   0  0  0  0  0  0  0  0  0  0  0  0
   54.1790   26.3240   45.9870 O   0  0  0  0  0  0  0  0  0  0  0  0
   56.2660   27.4790   45.5960 C   0  0  0  0  0  0  0  0  0  0  0  0
   55.5600   28.5870   45.1400 O   0  0  0  0  0  0  0  0  0  0  0  0
  1  2  1  0
  2  3  1  0
  2  4  2  0
  4  5  1  0
  5  6  1  0
  6  7  1  0
  7  8  2  0
  8  9  1  0
  8 10  1  0
 10 11  1  0
 10 12  2  0
 12 13  1  0
 12 14  1  0
 14 15  1  0
 14 16  2  0
 16 17  1  0
  6 18  1  0
 18 19  2  0
 18 20  1  0
 20 21  2  0
 21 22  1  0
 21 23  1  0
 23 24  2  0
 24 25  1  0
 24 26  1  0
 26 27  1  0
 26 28  2  0
 28 29  1  0
 28 30  1  0
 30 31  1  0
 30 32  2  0
 32 33  1  0
 20  4  1  0
 32 23  1  0
 16  7  1  0
M  CHG  4   5  -1  29  -1  31  -1  33  -1
M  END
>  <UniqueID>  (35) 
31

>  <SMILES>  (35) 
C=c1[n-]n(-c2ccccc2)c(=O)/c1=C\c1ccc([O-])c([O-])c1[O-]

>  <Energy>  (35) 
84.18897731918483

>  <Genealogy>  (35) 
C=c1[n-]n(-c2ccccc2)c(=O)c1=Cc1ccc([O-])c([O-])c1[O-] (protonated)
C=c1[n-]n(-c2ccccc2)c(=O)/c1=C\c1ccc([O-])c([O-])c1[O-] (cis-trans isomerization)
C=c1[n-]n(-c2ccccc2)c(=O)/c1=C\c1ccc([O-])c([O-])c1[O-] (3D coordinates assigned)
C=c1[n-]n(-c2ccccc2)c(=O)/c1=C\c1ccc([O-])c([O-])c1[O-] (optimized conformer: 84.18897731918483 kcal/mol)

>  <smiles>  (35) 
C=c1[nH]n(-c2ccccc2)c(=O)c1=Cc1ccc(O)c(O)c1O

>  <score_type>  (35) 
oracle

>  <origin>  (35) 
adg

>  <m_score__min__energy>  (35) 
-17.280000000000001

>  <m_primary>  (35) 
energy

$$$$
35:0
     RDKit          3D

 48 50  0  0  1  0  0  0  0  0999 V2000
   58.9190   34.7410   46.8440 C   0  0  0  0  0  0  0  0  0  0  0  0
   57.7990   33.6880   46.8590 C   0  0  0  0  0  0  0  0  0  0  0  0
   57.9580   32.7060   45.8920 N   0  0  0  0  0  0  0  0  0  0  0  0
   57.1040   32.5460   44.8270 C   0  0  0  0  0  0  0  0  0  0  0  0
   57.0160   31.2800   44.0870 C   0  0  0  0  0  0  0  0  0  0  0  0
   57.2910   31.2170   42.8860 O   0  0  0  0  0  0  0  0  0  0  0  0
   56.5920   30.1270   44.8470 N   0  0  0  0  0  0  0  0  0  0  0  0
   57.1720   28.9970   44.7330 C   0  0  0  0  0  0  0  0  0  0  0  0
   57.9710   28.4820   43.7780 N   0  0  0  0  0  0  0  0  0  0  0  0
   58.4340   27.2820   43.9290 C   0  0  0  0  0  0  0  0  0  0  0  0
   58.1210   26.5520   45.0290 C   0  0  0  0  0  0  0  0  0  0  0  0
   58.5180   25.1990   45.4050 C   0  0  0  0  0  0  0  0  0  0  0  0
   57.8800   24.1440   44.5940 C   0  0  0  0  0  0  0  0  0  0  0  0
   58.0550   22.8310   45.0440 C   0  0  0  0  0  0  0  0  0  0  0  0
   57.4960   21.7670   44.3550 C   0  0  0  0  0  0  0  0  0  0  0  0
   56.7680   22.0710   43.2180 C   0  0  0  0  0  0  0  0  0  0  0  0
   56.2650   21.0970   42.6020 O   0  0  0  0  0  0  0  0  0  0  0  0
   56.6160   23.3420   42.8080 N   0  0  0  0  0  0  0  0  0  0  0  0
   57.1620   24.3680   43.4820 N   0  0  0  0  0  0  0  0  0  0  0  0
   57.0540   27.6530   45.9800 S   0  0  0  0  0  0  0  0  0  0  0  0
   59.2420   32.1350   45.6680 C   0  0  0  0  0  0  0  0  0  0  0  0
   59.4020   30.8910   46.4520 C   0  0  0  0  0  0  0  0  0  0  0  0
   60.1310   29.8430   45.8960 C   0  0  0  0  0  0  0  0  0  0  0  0
   60.3330   28.6510   46.5850 C   0  0  0  0  0  0  0  0  0  0  0  0
   59.8060   28.4710   47.8680 C   0  0  0  0  0  0  0  0  0  0  0  0
   59.0860   29.5120   48.4110 C   0  0  0  0  0  0  0  0  0  0  0  0
   58.8820   30.7090   47.7180 C   0  0  0  0  0  0  0  0  0  0  0  0
   59.1935   34.9991   47.8775 H   0  0  0  0  0  0  0  0  0  0  0  0
   59.7977   34.3343   46.3219 H   0  0  0  0  0  0  0  0  0  0  0  0
   58.5672   35.6430   46.3219 H   0  0  0  0  0  0  0  0  0  0  0  0
   57.7858   33.2060   47.8477 H   0  0  0  0  0  0  0  0  0  0  0  0
   56.8562   34.2111   46.6412 H   0  0  0  0  0  0  0  0  0  0  0  0
   56.0930   32.7513   45.2087 H   0  0  0  0  0  0  0  0  0  0  0  0
   57.5379   33.2239   44.0772 H   0  0  0  0  0  0  0  0  0  0  0  0
   58.1940   29.0980   42.9240 H   0  0  0  0  0  0  0  0  0  0  0  0
   59.0880   26.8500   43.1572 H   0  0  0  0  0  0  0  0  0  0  0  0
   59.6086   25.1130   45.2900 H   0  0  0  0  0  0  0  0  0  0  0  0
   58.1909   25.0462   46.4441 H   0  0  0  0  0  0  0  0  0  0  0  0
   58.6426   22.6414   45.9544 H   0  0  0  0  0  0  0  0  0  0  0  0
   57.6248   20.7291   44.6958 H   0  0  0  0  0  0  0  0  0  0  0  0
   56.0550   23.4930   41.9440 H   0  0  0  0  0  0  0  0  0  0  0  0
   59.3538   31.9051   44.5981 H   0  0  0  0  0  0  0  0  0  0  0  0
   60.0108   32.8553   45.9846 H   0  0  0  0  0  0  0  0  0  0  0  0
   60.5571   29.9601   44.8887 H   0  0  0  0  0  0  0  0  0  0  0  0
   60.9128   27.8424   46.1160 H   0  0  0  0  0  0  0  0  0  0  0  0
   59.9607   27.5336   48.4223 H   0  0  0  0  0  0  0  0  0  0  0  0
   58.6594   29.3984   49.4185 H   0  0  0  0  0  0  0  0  0  0  0  0
   58.2999   31.5159   48.1872 H   0  0  0  0  0  0  0  0  0  0  0  0
  1  2  1  0
  2  3  1  0
  3  4  1  0
  4  5  1  0
  5  6  2  0
  5  7  1  0
  7  8  2  0
  8  9  1  0
  9 10  1  0
 10 11  2  0
 11 12  1  0
 12 13  1  0
 13 14  1  0
 14 15  2  0
 15 16  1  0
 16 17  2  0
 16 18  1  0
 18 19  1  0
 11 20  1  0
  3 21  1  0
 21 22  1  0
 22 23  2  0
 23 24  1  0
 24 25  2  0
 25 26  1  0
 26 27  2  0
 20  8  1  0
 27 22  1  0
 19 13  2  0
  1 28  1  0
  1 29  1  0
  1 30  1  0
  2 31  1  0
  2 32  1  0
  4 33  1  0
  4 34  1  0
  9 35  1  0
 10 36  1  0
 12 37  1  0
 12 38  1  0
 14 39  1  0
 15 40  1  0
 18 41  1  0
 21 42  1  0
 21 43  1  0
 23 44  1  0
 24 45  1  0
 25 46  1  0
 26 47  1  0
 27 48  1  0
M  END
>  <smiles>  (36) 
CCN(CC(=O)N=c1[nH]cc(Cc2ccc(=O)[nH]n2)s1)Cc1ccccc1

>  <score_type>  (36) 
oracle

>  <origin>  (36) 
adg

>  <m_score__min__energy>  (36) 
-8.7599999999999998

>  <m_primary>  (36) 
energy

$$$$
36:0
     RDKit          3D

 29 30  0  0  0  0  0  0  0  0999 V2000
   56.7820   31.2040   53.6090 O   0  0  0  0  0  0  0  0  0  0  0  0
   56.3050   30.5410   52.6480 C   0  0  0  0  0  0  0  0  0  0  0  0
   55.2630   29.5020   52.9140 C   0  0  0  0  0  0  0  0  0  0  0  0
   54.3610   29.4160   51.8140 O   0  0  0  0  0  0  0  0  0  0  0  0
   52.9760   29.5880   51.9370 C   0  0  0  0  0  0  0  0  0  0  0  0
   52.3410   28.9500   52.8230 O   0  0  0  0  0  0  0  0  0  0  0  0
   52.2500   30.5120   51.0300 C   0  0  0  0  0  0  0  0  0  0  0  0
   52.0820   31.8620   51.3830 C   0  0  0  0  0  0  0  0  0  0  0  0
   51.4210   32.7120   50.5560 N   0  0  0  0  0  0  0  0  0  0  0  0
   50.9100   32.2820   49.3750 C   0  0  0  0  0  0  0  0  0  0  0  0
   50.3020   33.0850   48.6230 O   0  0  0  0  0  0  0  0  0  0  0  0
   51.0570   30.9850   49.0050 N   0  0  0  0  0  0  0  0  0  0  0  0
   51.7110   30.0940   49.7950 C   0  0  0  0  0  0  0  0  0  0  0  0
   51.8210   28.9010   49.4080 O   0  0  0  0  0  0  0  0  0  0  0  0
   56.7360   30.7880   51.3060 N   0  0  0  0  0  0  0  0  0  0  0  0
   57.9420   31.4690   50.9300 C   0  0  0  0  0  0  0  0  0  0  0  0
   58.2010   32.7310   51.4800 C   0  0  0  0  0  0  0  0  0  0  0  0
   59.3570   33.4330   51.1270 C   0  0  0  0  0  0  0  0  0  0  0  0
   60.2540   32.8870   50.2050 C   0  0  0  0  0  0  0  0  0  0  0  0
   61.8300   33.8500   49.7190 Br  0  0  0  0  0  0  0  0  0  0  0  0
   59.9880   31.6410   49.6280 C   0  0  0  0  0  0  0  0  0  0  0  0
   58.8330   30.9340   49.9790 C   0  0  0  0  0  0  0  0  0  0  0  0
   58.5630   29.7640   49.3460 F   0  0  0  0  0  0  0  0  0  0  0  0
   55.7511   28.5272   53.0606 H   0  0  0  0  0  0  0  0  0  0  0  0
   54.7011   29.7806   53.8177 H   0  0  0  0  0  0  0  0  0  0  0  0
   52.4887   32.2324   52.3356 H   0  0  0  0  0  0  0  0  0  0  0  0
   57.4902   33.1723   52.1942 H   0  0  0  0  0  0  0  0  0  0  0  0
   59.5609   34.4165   51.5755 H   0  0  0  0  0  0  0  0  0  0  0  0
   60.6896   31.2154   48.8955 H   0  0  0  0  0  0  0  0  0  0  0  0
  1  2  2  0
  2  3  1  0
  3  4  1  0
  4  5  1  0
  5  6  2  0
  5  7  1  0
  7  8  2  0
  8  9  1  0
  9 10  1  0
 10 11  2  0
 10 12  1  0
 12 13  1  0
 13 14  2  0
  2 15  1  0
 15 16  1  0
 16 17  2  0
 17 18  1  0
 18 19  2  0
 19 20  1  0
 19 21  1  0
 21 22  2  0
 22 23  1  0
 13  7  1  0
 22 16  1  0
  3 24  1  0
  3 25  1  0
  8 26  1  0
 17 27  1  0
 18 28  1  0
 21 29  1  0
M  CHG  3   9  -1  12  -1  15  -1
M  END
>  <UniqueID>  (37) 
32

>  <SMILES>  (37) 
O=C(COC(=O)c1c[n-]c(=O)[n-]c1=O)[N-]c1ccc(Br)cc1F

>  <Energy>  (37) 
35.46139339791711

>  <Genealogy>  (37) 
O=C(COC(=O)c1c[n-]c(=O)[n-]c1=O)[N-]c1ccc(Br)cc1F (protonated)
O=C(COC(=O)c1c[n-]c(=O)[n-]c1=O)[N-]c1ccc(Br)cc1F (3D coordinates assigned)
O=C(COC(=O)c1c[n-]c(=O)[n-]c1=O)[N-]c1ccc(Br)cc1F (optimized conformer: 35.46139339791711 kcal/mol)

>  <smiles>  (37) 
O=C(COC(=O)c1c[nH]c(=O)[nH]c1=O)Nc1ccc(Br)cc1F

>  <score_type>  (37) 
oracle

>  <origin>  (37) 
adg

>  <m_score__min__energy>  (37) 
-12.890000000000001

>  <m_primary>  (37) 
energy

$$$$
37:0
     RDKit          3D

 43 45  0  0  0  0  0  0  0  0999 V2000
   56.3373   33.7977   44.2369 H   0  0  0  0  0  0  0  0  0  0  0  0
   56.9930   34.3600   44.9180 C   0  0  0  0  0  0  0  0  0  0  0  0
   56.7682   35.4102   45.1556 H   0  0  0  0  0  0  0  0  0  0  0  0
   58.0630   33.7670   45.4570 C   0  0  0  0  0  0  0  0  0  0  0  0
   59.1180   34.5530   46.5080 S   0  0  0  0  0  0  0  0  0  0  0  0
   60.1000   33.2040   46.7070 C   0  0  0  0  0  0  0  0  0  0  0  0
   61.2810   33.1650   47.5230 N   0  0  0  0  0  0  0  0  0  0  0  0
   62.4720   32.4130   47.1700 C   0  0  0  0  0  0  0  0  0  0  0  0
   62.2686   31.3326   47.2074 H   0  0  0  0  0  0  0  0  0  0  0  0
   62.8093   32.6427   46.1485 H   0  0  0  0  0  0  0  0  0  0  0  0
   63.5210   32.7920   48.2070 C   0  0  0  0  0  0  0  0  0  0  0  0
   64.0497   31.8950   48.5616 H   0  0  0  0  0  0  0  0  0  0  0  0
   64.2775   33.4707   47.7862 H   0  0  0  0  0  0  0  0  0  0  0  0
   62.7570   33.4480   49.3570 C   0  0  0  0  0  0  0  0  0  0  0  0
   62.6048   32.7279   50.1745 H   0  0  0  0  0  0  0  0  0  0  0  0
   63.3113   34.3021   49.7733 H   0  0  0  0  0  0  0  0  0  0  0  0
   61.4170   33.8820   48.7780 C   0  0  0  0  0  0  0  0  0  0  0  0
   60.5987   33.6151   49.4629 H   0  0  0  0  0  0  0  0  0  0  0  0
   61.3719   34.9711   48.6305 H   0  0  0  0  0  0  0  0  0  0  0  0
   59.6460   32.1530   45.9880 N   0  0  0  0  0  0  0  0  0  0  0  0
   60.1420   31.2350   45.9600 H   0  0  0  0  0  0  0  0  0  0  0  0
   58.5050   32.4390   45.2870 C   0  0  0  0  0  0  0  0  0  0  0  0
   57.8970   31.5310   44.4940 C   0  0  0  0  0  0  0  0  0  0  0  0
   57.6691   31.8175   43.4567 H   0  0  0  0  0  0  0  0  0  0  0  0
   57.5200   30.1720   44.9420 C   0  0  0  0  0  0  0  0  0  0  0  0
   58.5020   29.2860   45.4070 C   0  0  0  0  0  0  0  0  0  0  0  0
   59.8270   29.7140   45.4760 O   0  0  0  0  0  0  0  0  0  0  0  0
   58.1650   28.0150   45.8010 N   0  0  0  0  0  0  0  0  0  0  0  0
   59.2150   27.0970   46.2860 C   0  0  0  0  0  0  0  0  0  0  0  0
   58.9817   26.0768   45.9471 H   0  0  0  0  0  0  0  0  0  0  0  0
   60.1806   27.4341   45.8812 H   0  0  0  0  0  0  0  0  0  0  0  0
   59.3080   27.1040   47.8200 C   0  0  0  0  0  0  0  0  0  0  0  0
   58.3369   26.7948   48.2339 H   0  0  0  0  0  0  0  0  0  0  0  0
   60.1102   26.4094   48.1099 H   0  0  0  0  0  0  0  0  0  0  0  0
   59.6620   28.4810   48.3770 C   0  0  0  0  0  0  0  0  0  0  0  0
   59.6528   28.4453   49.4764 H   0  0  0  0  0  0  0  0  0  0  0  0
   60.6640   28.7712   48.0279 H   0  0  0  0  0  0  0  0  0  0  0  0
   58.9242   29.2185   48.0279 H   0  0  0  0  0  0  0  0  0  0  0  0
   56.8560   27.6050   45.7190 C   0  0  0  0  0  0  0  0  0  0  0  0
   56.5200   26.4430   46.0710 O   0  0  0  0  0  0  0  0  0  0  0  0
   55.9030   28.4460   45.2450 N   0  0  0  0  0  0  0  0  0  0  0  0
   56.2010   29.7070   44.8500 C   0  0  0  0  0  0  0  0  0  0  0  0
   55.2860   30.4410   44.3890 O   0  0  0  0  0  0  0  0  0  0  0  0
  1  2  1  0
  2  3  1  0
  2  4  2  0
  4  5  1  0
  5  6  1  0
  6  7  1  0
  7  8  1  0
  8  9  1  0
  8 10  1  0
  8 11  1  0
 11 12  1  0
 11 13  1  0
 11 14  1  0
 14 15  1  0
 14 16  1  0
 14 17  1  0
 17 18  1  0
 17 19  1  0
  6 20  2  0
 20 21  1  0
 20 22  1  0
 22 23  2  0
 23 24  1  0
 23 25  1  0
 25 26  2  0
 26 27  1  0
 26 28  1  0
 28 29  1  0
 29 30  1  0
 29 31  1  0
 29 32  1  0
 32 33  1  0
 32 34  1  0
 32 35  1  0
 35 36  1  0
 35 37  1  0
 35 38  1  0
 28 39  1  0
 39 40  2  0
 39 41  1  0
 41 42  1  0
 42 43  2  0
 22  4  1  0
 42 25  1  0
 17  7  1  0
M  CHG  3  20   1  27  -1  41  -1
M  END
>  <UniqueID>  (38) 
33

>  <SMILES>  (38) 
C=c1sc(N2CCCC2)[nH+]/c1=C\c1c([O-])n(CCC)c(=O)[n-]c1=O

>  <Energy>  (38) 
82.7833632728693

>  <Genealogy>  (38) 
C=c1sc(N2CCCC2)[nH+]c1=Cc1c([O-])n(CCC)c(=O)[n-]c1=O (protonated)
C=c1sc(N2CCCC2)[nH+]/c1=C\c1c([O-])n(CCC)c(=O)[n-]c1=O (cis-trans isomerization)
C=c1sc(N2CCCC2)[nH+]/c1=C\c1c([O-])n(CCC)c(=O)[n-]c1=O (3D coordinates assigned)
C=c1sc(N2CCCC2)[nH+]/c1=C\c1c([O-])n(CCC)c(=O)[n-]c1=O (nonaromatic ring conformer: 82.7833632728693 kcal/mol)

>  <smiles>  (38) 
C=c1sc(N2CCCC2)nc1=Cc1c(O)n(CCC)c(=O)[nH]c1=O

>  <score_type>  (38) 
oracle

>  <origin>  (38) 
adg

>  <m_score__min__energy>  (38) 
-11.17

>  <m_primary>  (38) 
energy

$$$$
38:0
     RDKit          3D

 76 80  0  0  0  0  0  0  0  0999 V2000
   57.9260   32.4700   52.7540 C   0  0  0  0  0  0  0  0  0  0  0  0
   57.9930   32.5610   51.2840 N   0  0  0  0  0  0  0  0  0  0  0  0
   59.0550   33.4750   50.8190 C   0  0  0  0  0  0  0  0  0  0  0  0
   60.4620   32.8880   51.0010 C   0  0  0  0  0  0  0  0  0  0  0  0
   60.5260   31.5350   50.4360 N   0  0  0  0  0  0  0  0  0  0  0  0
   61.6980   31.0770   49.7280 C   0  0  0  0  0  0  0  0  0  0  0  0
   61.6210   30.0870   48.9540 O   0  0  0  0  0  0  0  0  0  0  0  0
   62.9950   31.7710   49.8500 C   0  0  0  0  0  0  0  0  0  0  0  0
   63.6570   31.7140   51.0880 C   0  0  0  0  0  0  0  0  0  0  0  0
   64.8930   32.3370   51.2620 C   0  0  0  0  0  0  0  0  0  0  0  0
   65.4780   33.0330   50.2050 C   0  0  0  0  0  0  0  0  0  0  0  0
   64.8240   33.1170   48.9740 C   0  0  0  0  0  0  0  0  0  0  0  0
   63.5820   32.4860   48.7750 C   0  0  0  0  0  0  0  0  0  0  0  0
   62.8590   32.7350   47.4730 C   0  0  0  0  0  0  0  0  0  0  0  0
   61.8020   33.6660   47.6880 O   0  0  0  0  0  0  0  0  0  0  0  0
   60.5600   33.5410   47.0590 C   0  0  0  0  0  0  0  0  0  0  0  0
   59.9900   34.6190   46.3710 C   0  0  0  0  0  0  0  0  0  0  0  0
   58.7780   34.4560   45.7040 C   0  0  0  0  0  0  0  0  0  0  0  0
   58.1220   33.2210   45.7280 C   0  0  0  0  0  0  0  0  0  0  0  0
   58.6640   32.1390   46.4400 C   0  0  0  0  0  0  0  0  0  0  0  0
   57.9900   30.8680   46.4130 N   0  0  0  0  0  0  0  0  0  0  0  0
   58.5540   29.6430   46.9140 C   0  0  0  0  0  0  0  0  0  0  0  0
   59.3320   29.6740   47.9070 O   0  0  0  0  0  0  0  0  0  0  0  0
   58.2020   28.3350   46.3020 C   0  0  0  0  0  0  0  0  0  0  0  0
   57.8710   27.2380   47.1190 C   0  0  0  0  0  0  0  0  0  0  0  0
   57.5620   25.9970   46.5490 C   0  0  0  0  0  0  0  0  0  0  0  0
   57.5750   25.8340   45.1570 C   0  0  0  0  0  0  0  0  0  0  0  0
   57.2720   24.5550   44.5780 N   0  0  0  0  0  0  0  0  0  0  0  0
   56.3690   24.4670   43.4260 C   0  0  0  0  0  0  0  0  0  0  0  0
   56.4990   23.0980   42.7510 C   0  0  0  0  0  0  0  0  0  0  0  0
   56.2710   21.9920   43.7080 N   0  0  0  0  0  0  0  0  0  0  0  0
   56.6630   20.7090   43.1000 C   0  0  0  0  0  0  0  0  0  0  0  0
   56.9060   22.1760   45.0440 C   0  0  0  0  0  0  0  0  0  0  0  0
   57.9050   23.3410   45.0980 C   0  0  0  0  0  0  0  0  0  0  0  0
   57.9060   26.9210   44.3390 C   0  0  0  0  0  0  0  0  0  0  0  0
   58.2230   28.1600   44.9050 C   0  0  0  0  0  0  0  0  0  0  0  0
   59.8920   32.3120   47.1070 C   0  0  0  0  0  0  0  0  0  0  0  0
   59.4700   30.5860   50.8120 C   0  0  0  0  0  0  0  0  0  0  0  0
   58.0870   31.2330   50.6390 C   0  0  0  0  0  0  0  0  0  0  0  0
   58.5224   33.2801   53.1991 H   0  0  0  0  0  0  0  0  0  0  0  0
   56.8795   32.5635   53.0798 H   0  0  0  0  0  0  0  0  0  0  0  0
   58.3260   31.4985   53.0798 H   0  0  0  0  0  0  0  0  0  0  0  0
   58.8964   33.6846   49.7509 H   0  0  0  0  0  0  0  0  0  0  0  0
   58.9954   34.3905   51.4259 H   0  0  0  0  0  0  0  0  0  0  0  0
   61.1925   33.5306   50.4878 H   0  0  0  0  0  0  0  0  0  0  0  0
   60.6931   32.8386   52.0753 H   0  0  0  0  0  0  0  0  0  0  0  0
   63.1964   31.1731   51.9278 H   0  0  0  0  0  0  0  0  0  0  0  0
   65.4061   32.2791   52.2333 H   0  0  0  0  0  0  0  0  0  0  0  0
   66.4565   33.5168   50.3410 H   0  0  0  0  0  0  0  0  0  0  0  0
   65.2848   33.6827   48.1508 H   0  0  0  0  0  0  0  0  0  0  0  0
   63.5639   33.1445   46.7345 H   0  0  0  0  0  0  0  0  0  0  0  0
   62.4435   31.7884   47.0971 H   0  0  0  0  0  0  0  0  0  0  0  0
   60.4990   35.5941   46.3572 H   0  0  0  0  0  0  0  0  0  0  0  0
   58.3354   35.3013   45.1567 H   0  0  0  0  0  0  0  0  0  0  0  0
   57.1737   33.0963   45.1847 H   0  0  0  0  0  0  0  0  0  0  0  0
   57.0130   30.8420   46.0430 H   0  0  0  0  0  0  0  0  0  0  0  0
   57.8549   27.3563   48.2125 H   0  0  0  0  0  0  0  0  0  0  0  0
   57.3077   25.1454   47.1972 H   0  0  0  0  0  0  0  0  0  0  0  0
   55.3323   24.6067   43.7662 H   0  0  0  0  0  0  0  0  0  0  0  0
   56.6369   25.2499   42.7012 H   0  0  0  0  0  0  0  0  0  0  0  0
   55.7574   23.0277   41.9417 H   0  0  0  0  0  0  0  0  0  0  0  0
   57.5220   23.0055   42.3573 H   0  0  0  0  0  0  0  0  0  0  0  0
   56.8857   19.9802   43.8933 H   0  0  0  0  0  0  0  0  0  0  0  0
   55.8391   20.3319   42.4763 H   0  0  0  0  0  0  0  0  0  0  0  0
   57.5570   20.8568   42.4763 H   0  0  0  0  0  0  0  0  0  0  0  0
   56.1128   22.3643   45.7825 H   0  0  0  0  0  0  0  0  0  0  0  0
   57.4715   21.2576   45.2601 H   0  0  0  0  0  0  0  0  0  0  0  0
   58.2168   23.5080   46.1396 H   0  0  0  0  0  0  0  0  0  0  0  0
   58.7851   23.0965   44.4851 H   0  0  0  0  0  0  0  0  0  0  0  0
   57.9168   26.7999   43.2457 H   0  0  0  0  0  0  0  0  0  0  0  0
   58.4910   29.0048   44.2534 H   0  0  0  0  0  0  0  0  0  0  0  0
   60.3297   31.4746   47.6702 H   0  0  0  0  0  0  0  0  0  0  0  0
   59.5370   29.6952   50.1701 H   0  0  0  0  0  0  0  0  0  0  0  0
   59.6030   30.3011   51.8661 H   0  0  0  0  0  0  0  0  0  0  0  0
   57.8847   31.3488   49.5640 H   0  0  0  0  0  0  0  0  0  0  0  0
   57.3499   30.5756   51.1232 H   0  0  0  0  0  0  0  0  0  0  0  0
  1  2  1  0
  2  3  1  0
  3  4  1  0
  4  5  1  0
  5  6  1  0
  6  7  2  0
  6  8  1  0
  8  9  2  0
  9 10  1  0
 10 11  2  0
 11 12  1  0
 12 13  2  0
 13 14  1  0
 14 15  1  0
 15 16  1  0
 16 17  2  0
 17 18  1  0
 18 19  2  0
 19 20  1  0
 20 21  1  0
 21 22  1  0
 22 23  2  0
 22 24  1  0
 24 25  2  0
 25 26  1  0
 26 27  2  0
 27 28  1  0
 28 29  1  0
 29 30  1  0
 30 31  1  0
 31 32  1  0
 31 33  1  0
 33 34  1  0
 27 35  1  0
 35 36  2  0
 20 37  2  0
  5 38  1  0
 38 39  1  0
 39  2  1  0
 13  8  1  0
 37 16  1  0
 36 24  1  0
 34 28  1  0
  1 40  1  0
  1 41  1  0
  1 42  1  0
  3 43  1  0
  3 44  1  0
  4 45  1  0
  4 46  1  0
  9 47  1  0
 10 48  1  0
 11 49  1  0
 12 50  1  0
 14 51  1  0
 14 52  1  0
 17 53  1  0
 18 54  1  0
 19 55  1  0
 21 56  1  0
 25 57  1  0
 26 58  1  0
 29 59  1  0
 29 60  1  0
 30 61  1  0
 30 62  1  0
 32 63  1  0
 32 64  1  0
 32 65  1  0
 33 66  1  0
 33 67  1  0
 34 68  1  0
 34 69  1  0
 35 70  1  0
 36 71  1  0
 37 72  1  0
 38 73  1  0
 38 74  1  0
 39 75  1  0
 39 76  1  0
M  END
>  <UniqueID>  (39) 
34

>  <SMILES>  (39) 
CN1CCN(C(=O)c2ccccc2COc2cccc(NC(=O)c3ccc(N4CCN(C)CC4)cc3)c2)CC1

>  <Energy>  (39) 
110.19288063790286

>  <Genealogy>  (39) 
CN1CCN(C(=O)c2ccccc2COc2cccc(NC(=O)c3ccc(N4CCN(C)CC4)cc3)c2)CC1 (3D coordinates assigned)
CN1CCN(C(=O)c2ccccc2COc2cccc(NC(=O)c3ccc(N4CCN(C)CC4)cc3)c2)CC1 (nonaromatic ring conformer: 110.19288063790286 kcal/mol)

>  <smiles>  (39) 
CN1CCN(C(=O)c2ccccc2COc2cccc(NC(=O)c3ccc(N4CCN(C)CC4)cc3)c2)CC1

>  <score_type>  (39) 
oracle

>  <origin>  (39) 
adg

>  <m_score__min__energy>  (39) 
-10.960000000000001

>  <m_primary>  (39) 
energy

$$$$
39:0
     RDKit          3D

 50 53  0  0  0  0  0  0  0  0999 V2000
   59.1570   30.1920   50.9500 C   0  0  0  0  0  0  0  0  0  0  0  0
   60.1630   30.8470   50.0590 C   0  0  0  0  0  0  0  0  0  0  0  0
   59.8680   31.0770   48.7110 C   0  0  0  0  0  0  0  0  0  0  0  0
   60.8260   31.6870   47.8720 C   0  0  0  0  0  0  0  0  0  0  0  0
   60.6000   31.8790   46.5970 N   0  0  0  0  0  0  0  0  0  0  0  0
   59.5350   32.6460   46.0130 C   0  0  0  0  0  0  0  0  0  0  0  0
   59.7180   34.0250   45.8450 C   0  0  0  0  0  0  0  0  0  0  0  0
   58.6980   34.8150   45.3120 C   0  0  0  0  0  0  0  0  0  0  0  0
   57.4890   34.2320   44.9280 C   0  0  0  0  0  0  0  0  0  0  0  0
   57.3030   32.8530   45.0590 C   0  0  0  0  0  0  0  0  0  0  0  0
   58.3260   32.0440   45.5810 C   0  0  0  0  0  0  0  0  0  0  0  0
   58.1230   30.5800   45.6530 C   0  0  0  0  0  0  0  0  0  0  0  0
   57.0470   30.0820   45.2260 O   0  0  0  0  0  0  0  0  0  0  0  0
   59.1740   29.7320   46.1450 N   0  0  0  0  0  0  0  0  0  0  0  0
   59.0720   28.3010   46.2050 C   0  0  0  0  0  0  0  0  0  0  0  0
   60.2140   27.4890   46.1590 C   0  0  0  0  0  0  0  0  0  0  0  0
   60.0910   26.1010   46.2120 C   0  0  0  0  0  0  0  0  0  0  0  0
   58.8310   25.5020   46.3020 C   0  0  0  0  0  0  0  0  0  0  0  0
   58.7600   24.1140   46.3600 O   0  0  0  0  0  0  0  0  0  0  0  0
   57.6640   26.3010   46.3310 C   0  0  0  0  0  0  0  0  0  0  0  0
   56.3010   25.7110   46.4230 C   0  0  0  0  0  0  0  0  0  0  0  0
   55.1490   26.4400   46.0030 N   0  0  0  0  0  0  0  0  0  0  0  0
   56.1470   24.5450   46.8780 O   0  0  0  0  0  0  0  0  0  0  0  0
   57.8060   27.7020   46.2720 C   0  0  0  0  0  0  0  0  0  0  0  0
   62.0520   32.1080   48.4350 C   0  0  0  0  0  0  0  0  0  0  0  0
   63.0480   32.7440   47.6710 C   0  0  0  0  0  0  0  0  0  0  0  0
   64.2510   33.1410   48.2610 C   0  0  0  0  0  0  0  0  0  0  0  0
   64.4900   32.9090   49.6270 C   0  0  0  0  0  0  0  0  0  0  0  0
   65.7290   33.3180   50.2350 N   0  0  0  0  0  0  0  0  0  0  0  0
   66.8170   32.8410   49.8460 O   0  0  0  0  0  0  0  0  0  0  0  0
   65.7370   34.2400   51.2560 O   0  0  0  0  0  0  0  0  0  0  0  0
   63.5000   32.2710   50.3930 C   0  0  0  0  0  0  0  0  0  0  0  0
   62.2920   31.8720   49.8090 C   0  0  0  0  0  0  0  0  0  0  0  0
   61.3520   31.2540   50.5710 N   0  0  0  0  0  0  0  0  0  0  0  0
   59.4283   30.3686   52.0013 H   0  0  0  0  0  0  0  0  0  0  0  0
   58.1612   30.6154   50.7522 H   0  0  0  0  0  0  0  0  0  0  0  0
   59.1413   29.1101   50.7522 H   0  0  0  0  0  0  0  0  0  0  0  0
   58.8892   30.7825   48.3044 H   0  0  0  0  0  0  0  0  0  0  0  0
   60.6724   34.4885   46.1353 H   0  0  0  0  0  0  0  0  0  0  0  0
   58.8471   35.8985   45.1944 H   0  0  0  0  0  0  0  0  0  0  0  0
   56.6816   34.8589   44.5217 H   0  0  0  0  0  0  0  0  0  0  0  0
   56.3497   32.3983   44.7515 H   0  0  0  0  0  0  0  0  0  0  0  0
   60.1190   30.1580   46.2780 H   0  0  0  0  0  0  0  0  0  0  0  0
   61.2104   27.9484   46.0808 H   0  0  0  0  0  0  0  0  0  0  0  0
   60.9930   25.4721   46.1828 H   0  0  0  0  0  0  0  0  0  0  0  0
   55.1460   27.4840   46.0000 H   0  0  0  0  0  0  0  0  0  0  0  0
   56.9077   28.3368   46.2786 H   0  0  0  0  0  0  0  0  0  0  0  0
   62.8782   32.9302   46.6003 H   0  0  0  0  0  0  0  0  0  0  0  0
   65.0184   33.6398   47.6508 H   0  0  0  0  0  0  0  0  0  0  0  0
   63.6759   32.0831   51.4625 H   0  0  0  0  0  0  0  0  0  0  0  0
  1  2  1  0
  2  3  2  0
  3  4  1  0
  4  5  2  3
  5  6  1  0
  6  7  2  0
  7  8  1  0
  8  9  2  0
  9 10  1  0
 10 11  2  0
 11 12  1  0
 12 13  2  0
 12 14  1  0
 14 15  1  0
 15 16  2  0
 16 17  1  0
 17 18  2  0
 18 19  1  0
 18 20  1  0
 20 21  1  0
 21 22  1  0
 21 23  2  0
 20 24  2  0
  4 25  1  0
 25 26  2  0
 26 27  1  0
 27 28  2  0
 28 29  1  0
 29 30  2  0
 29 31  1  0
 28 32  1  0
 32 33  2  0
 33 34  1  0
 34  2  1  0
 11  6  1  0
 24 15  1  0
 33 25  1  0
  1 35  1  0
  1 36  1  0
  1 37  1  0
  3 38  1  0
  7 39  1  0
  8 40  1  0
  9 41  1  0
 10 42  1  0
 14 43  1  0
 16 44  1  0
 17 45  1  0
 22 46  1  0
 24 47  1  0
 26 48  1  0
 27 49  1  0
 32 50  1  0
M  CHG  5  19  -1  22  -1  29   1  31  -1  34  -1
M  END
>  <UniqueID>  (40) 
35

>  <SMILES>  (40) 
Cc1cc(=Nc2ccccc2C(=O)Nc2ccc([O-])c(C([NH-])=O)c2)c2ccc([N+](=O)[O-])cc2[n-]1

>  <Energy>  (40) 
78.72498318996759

>  <Genealogy>  (40) 
Cc1cc(=Nc2ccccc2C(=O)Nc2ccc([O-])c(C([NH-])=O)c2)c2ccc([N+](=O)[O-])cc2[n-]1 (protonated)
Cc1cc(=Nc2ccccc2C(=O)Nc2ccc([O-])c(C([NH-])=O)c2)c2ccc([N+](=O)[O-])cc2[n-]1 (3D coordinates assigned)
Cc1cc(=Nc2ccccc2C(=O)Nc2ccc([O-])c(C([NH-])=O)c2)c2ccc([N+](=O)[O-])cc2[n-]1 (optimized conformer: 78.72498318996759 kcal/mol)

>  <smiles>  (40) 
Cc1cc(=Nc2ccccc2C(=O)Nc2ccc(O)c(C(N)=O)c2)c2ccc([N+](=O)[O-])cc2[nH]1

>  <score_type>  (40) 
oracle

>  <origin>  (40) 
adg

>  <m_score__min__energy>  (40) 
-16.969999999999999

>  <m_primary>  (40) 
energy

$$$$
40:0
     RDKit          3D

 75 79  0  0  0  0  0  0  0  0999 V2000
   54.1240   23.0210   48.1250 C   0  0  0  0  0  0  0  0  0  0  0  0
   54.7940   23.3300   46.7710 C   0  0  0  0  0  0  0  0  0  0  0  0
   53.6980   23.5940   45.7230 C   0  0  0  0  0  0  0  0  0  0  0  0
   55.6530   22.1400   46.3020 C   0  0  0  0  0  0  0  0  0  0  0  0
   55.5860   24.5220   46.8650 O   0  0  0  0  0  0  0  0  0  0  0  0
   56.9340   24.6040   47.2620 C   0  0  0  0  0  0  0  0  0  0  0  0
   57.3150   24.0940   48.3500 O   0  0  0  0  0  0  0  0  0  0  0  0
   57.8870   25.2590   46.4000 N   0  0  0  0  0  0  0  0  0  0  0  0
   58.8000   24.4510   45.5780 C   0  0  0  0  0  0  0  0  0  0  0  0
   58.0230   23.5990   44.6080 C   0  0  0  0  0  0  0  0  0  0  0  0
   58.3570   22.2460   44.4340 C   0  0  0  0  0  0  0  0  0  0  0  0
   57.6230   21.4450   43.5550 C   0  0  0  0  0  0  0  0  0  0  0  0
   56.5650   21.9950   42.8270 C   0  0  0  0  0  0  0  0  0  0  0  0
   56.2340   23.3440   42.9830 C   0  0  0  0  0  0  0  0  0  0  0  0
   56.9590   24.1450   43.8690 C   0  0  0  0  0  0  0  0  0  0  0  0
   57.9170   26.6990   46.3030 C   0  0  0  0  0  0  0  0  0  0  0  0
   57.3980   27.3430   45.1680 C   0  0  0  0  0  0  0  0  0  0  0  0
   57.4140   28.7370   45.0740 C   0  0  0  0  0  0  0  0  0  0  0  0
   57.9790   29.5080   46.1010 C   0  0  0  0  0  0  0  0  0  0  0  0
   58.0060   30.9810   45.9790 C   0  0  0  0  0  0  0  0  0  0  0  0
   57.2230   31.5310   45.1520 O   0  0  0  0  0  0  0  0  0  0  0  0
   58.9010   31.7950   46.7730 N   0  0  0  0  0  0  0  0  0  0  0  0
   58.3610   32.8170   47.6770 C   0  0  0  0  0  0  0  0  0  0  0  0
   58.5640   34.1960   47.0570 C   0  0  0  0  0  0  0  0  0  0  0  0
   59.8990   34.6600   47.2500 O   0  0  0  0  0  0  0  0  0  0  0  0
   60.8770   33.9190   47.9240 C   0  0  0  0  0  0  0  0  0  0  0  0
   61.6230   34.5750   48.9110 C   0  0  0  0  0  0  0  0  0  0  0  0
   62.6310   33.9040   49.6050 C   0  0  0  0  0  0  0  0  0  0  0  0
   62.8800   32.5500   49.3490 C   0  0  0  0  0  0  0  0  0  0  0  0
   63.9790   31.8540   50.0440 C   0  0  0  0  0  0  0  0  0  0  0  0
   65.2970   32.3020   49.8530 C   0  0  0  0  0  0  0  0  0  0  0  0
   66.3620   31.6370   50.4610 C   0  0  0  0  0  0  0  0  0  0  0  0
   66.1230   30.5260   51.2780 C   0  0  0  0  0  0  0  0  0  0  0  0
   67.1780   29.8520   51.8850 O   0  0  0  0  0  0  0  0  0  0  0  0
   64.8130   30.0840   51.4810 C   0  0  0  0  0  0  0  0  0  0  0  0
   63.7390   30.7350   50.8670 C   0  0  0  0  0  0  0  0  0  0  0  0
   62.1040   30.1510   51.1840 Cl  0  0  0  0  0  0  0  0  0  0  0  0
   62.1130   31.8760   48.3880 C   0  0  0  0  0  0  0  0  0  0  0  0
   61.1130   32.5420   47.6580 C   0  0  0  0  0  0  0  0  0  0  0  0
   60.3610   31.7280   46.6190 C   0  0  0  0  0  0  0  0  0  0  0  0
   58.4940   28.8680   47.2380 C   0  0  0  0  0  0  0  0  0  0  0  0
   58.4560   27.4740   47.3410 C   0  0  0  0  0  0  0  0  0  0  0  0
   54.7916   23.3289   48.9432 H   0  0  0  0  0  0  0  0  0  0  0  0
   53.1751   23.5724   48.1989 H   0  0  0  0  0  0  0  0  0  0  0  0
   53.9273   21.9412   48.1989 H   0  0  0  0  0  0  0  0  0  0  0  0
   52.7504   23.8222   46.2329 H   0  0  0  0  0  0  0  0  0  0  0  0
   53.9905   24.4474   45.0936 H   0  0  0  0  0  0  0  0  0  0  0  0
   53.5698   22.7010   45.0936 H   0  0  0  0  0  0  0  0  0  0  0  0
   56.0422   21.6008   47.1783 H   0  0  0  0  0  0  0  0  0  0  0  0
   55.0368   21.4591   45.6964 H   0  0  0  0  0  0  0  0  0  0  0  0
   56.4933   22.5105   45.6964 H   0  0  0  0  0  0  0  0  0  0  0  0
   59.4694   25.1196   45.0168 H   0  0  0  0  0  0  0  0  0  0  0  0
   59.3858   23.7943   46.2380 H   0  0  0  0  0  0  0  0  0  0  0  0
   59.2007   21.8145   44.9925 H   0  0  0  0  0  0  0  0  0  0  0  0
   57.8782   20.3816   43.4363 H   0  0  0  0  0  0  0  0  0  0  0  0
   55.9918   21.3657   42.1303 H   0  0  0  0  0  0  0  0  0  0  0  0
   55.4017   23.7755   42.4076 H   0  0  0  0  0  0  0  0  0  0  0  0
   56.6963   25.2065   43.9887 H   0  0  0  0  0  0  0  0  0  0  0  0
   56.9757   26.7454   44.3467 H   0  0  0  0  0  0  0  0  0  0  0  0
   56.9821   29.2317   44.1916 H   0  0  0  0  0  0  0  0  0  0  0  0
   57.2868   32.6388   47.8333 H   0  0  0  0  0  0  0  0  0  0  0  0
   58.8832   32.7670   48.6439 H   0  0  0  0  0  0  0  0  0  0  0  0
   58.3575   34.1377   45.9781 H   0  0  0  0  0  0  0  0  0  0  0  0
   57.8771   34.9015   47.5474 H   0  0  0  0  0  0  0  0  0  0  0  0
   61.4124   35.6297   49.1416 H   0  0  0  0  0  0  0  0  0  0  0  0
   63.2313   34.4401   50.3549 H   0  0  0  0  0  0  0  0  0  0  0  0
   65.4900   33.1814   49.2210 H   0  0  0  0  0  0  0  0  0  0  0  0
   67.3921   31.9867   50.2979 H   0  0  0  0  0  0  0  0  0  0  0  0
   67.3240   29.8890   52.8870 H   0  0  0  0  0  0  0  0  0  0  0  0
   64.6252   29.2159   52.1299 H   0  0  0  0  0  0  0  0  0  0  0  0
   62.2969   30.8075   48.2020 H   0  0  0  0  0  0  0  0  0  0  0  0
   60.6245   32.1074   45.6207 H   0  0  0  0  0  0  0  0  0  0  0  0
   60.6548   30.6766   46.7539 H   0  0  0  0  0  0  0  0  0  0  0  0
   58.9298   29.4655   48.0523 H   0  0  0  0  0  0  0  0  0  0  0  0
   58.8513   26.9817   48.2418 H   0  0  0  0  0  0  0  0  0  0  0  0
  1  2  1  0
  2  3  1  0
  2  4  1  0
  2  5  1  0
  5  6  1  0
  6  7  2  0
  6  8  1  0
  8  9  1  0
  9 10  1  0
 10 11  2  0
 11 12  1  0
 12 13  2  0
 13 14  1  0
 14 15  2  0
  8 16  1  0
 16 17  2  0
 17 18  1  0
 18 19  2  0
 19 20  1  0
 20 21  2  0
 20 22  1  0
 22 23  1  0
 23 24  1  0
 24 25  1  0
 25 26  1  0
 26 27  2  0
 27 28  1  0
 28 29  2  0
 29 30  1  0
 30 31  2  0
 31 32  1  0
 32 33  2  0
 33 34  1  0
 33 35  1  0
 35 36  2  0
 36 37  1  0
 29 38  1  0
 38 39  2  0
 39 40  1  0
 19 41  1  0
 41 42  2  0
 15 10  1  0
 42 16  1  0
 40 22  1  0
 39 26  1  0
 36 30  1  0
  1 43  1  0
  1 44  1  0
  1 45  1  0
  3 46  1  0
  3 47  1  0
  3 48  1  0
  4 49  1  0
  4 50  1  0
  4 51  1  0
  9 52  1  0
  9 53  1  0
 11 54  1  0
 12 55  1  0
 13 56  1  0
 14 57  1  0
 15 58  1  0
 17 59  1  0
 18 60  1  0
 23 61  1  0
 23 62  1  0
 24 63  1  0
 24 64  1  0
 27 65  1  0
 28 66  1  0
 31 67  1  0
 32 68  1  0
 34 69  1  0
 35 70  1  0
 38 71  1  0
 40 72  1  0
 40 73  1  0
 41 74  1  0
 42 75  1  0
M  END
>  <UniqueID>  (41) 
36

>  <SMILES>  (41) 
CC(C)(C)OC(=O)N(Cc1ccccc1)c1ccc(C(=O)N2CCOc3ccc(-c4ccc(O)cc4Cl)cc3C2)cc1

>  <Energy>  (41) 
103.57854747941265

>  <Genealogy>  (41) 
CC(C)(C)OC(=O)N(Cc1ccccc1)c1ccc(C(=O)N2CCOc3ccc(-c4ccc(O)cc4Cl)cc3C2)cc1 (3D coordinates assigned)
CC(C)(C)OC(=O)N(Cc1ccccc1)c1ccc(C(=O)N2CCOc3ccc(-c4ccc(O)cc4Cl)cc3C2)cc1 (nonaromatic ring conformer: 103.57854747941265 kcal/mol)

>  <smiles>  (41) 
CC(C)(C)OC(=O)N(Cc1ccccc1)c1ccc(C(=O)N2CCOc3ccc(-c4ccc(O)cc4Cl)cc3C2)cc1

>  <score_type>  (41) 
oracle

>  <origin>  (41) 
adg

>  <m_score__min__energy>  (41) 
-8.3399999999999999

>  <m_primary>  (41) 
energy

$$$$
41:0
     RDKit          3D

 54 57  0  0  0  0  0  0  0  0999 V2000
   57.5850   26.2570   46.0900 O   0  0  0  0  0  0  0  0  0  0  0  0
   56.5250   26.9300   45.9760 C   0  0  0  0  0  0  0  0  0  0  0  0
   55.2640   26.3440   46.3190 N   0  0  0  0  0  0  0  0  0  0  0  0
   54.6740   25.2200   45.6020 C   0  0  0  0  0  0  0  0  0  0  0  0
   55.7440   24.2480   45.1990 C   0  0  0  0  0  0  0  0  0  0  0  0
   56.4990   23.5640   46.1630 C   0  0  0  0  0  0  0  0  0  0  0  0
   57.4700   22.6500   45.7500 C   0  0  0  0  0  0  0  0  0  0  0  0
   57.6760   22.4220   44.3880 C   0  0  0  0  0  0  0  0  0  0  0  0
   56.9000   23.1140   43.4550 C   0  0  0  0  0  0  0  0  0  0  0  0
   55.9590   24.0000   43.8770 N   0  0  0  0  0  0  0  0  0  0  0  0
   56.5960   28.3220   45.4960 C   0  0  0  0  0  0  0  0  0  0  0  0
   57.7650   29.0860   45.6430 C   0  0  0  0  0  0  0  0  0  0  0  0
   57.8170   30.3910   45.1420 C   0  0  0  0  0  0  0  0  0  0  0  0
   58.9360   31.0530   45.2490 N   0  0  0  0  0  0  0  0  0  0  0  0
   59.0990   32.4380   45.5910 C   0  0  0  0  0  0  0  0  0  0  0  0
   58.6860   33.4360   44.6910 C   0  0  0  0  0  0  0  0  0  0  0  0
   58.8570   34.7860   45.0070 C   0  0  0  0  0  0  0  0  0  0  0  0
   59.4320   35.1510   46.2240 C   0  0  0  0  0  0  0  0  0  0  0  0
   59.8250   34.1690   47.1360 C   0  0  0  0  0  0  0  0  0  0  0  0
   59.6420   32.8060   46.8440 C   0  0  0  0  0  0  0  0  0  0  0  0
   60.0720   31.7900   47.8320 C   0  0  0  0  0  0  0  0  0  0  0  0
   60.9190   32.1010   48.7140 O   0  0  0  0  0  0  0  0  0  0  0  0
   59.5220   30.4650   47.8110 N   0  0  0  0  0  0  0  0  0  0  0  0
   60.1590   29.3610   48.5250 C   0  0  0  0  0  0  0  0  0  0  0  0
   59.7410   29.3610   49.9710 C   0  0  0  0  0  0  0  0  0  0  0  0
   58.5830   30.0480   50.3730 C   0  0  0  0  0  0  0  0  0  0  0  0
   58.1610   29.9950   51.7040 C   0  0  0  0  0  0  0  0  0  0  0  0
   58.8800   29.2440   52.6390 C   0  0  0  0  0  0  0  0  0  0  0  0
   60.0250   28.5470   52.2430 C   0  0  0  0  0  0  0  0  0  0  0  0
   60.4560   28.6040   50.9140 C   0  0  0  0  0  0  0  0  0  0  0  0
   56.6810   30.9170   44.4950 C   0  0  0  0  0  0  0  0  0  0  0  0
   55.5310   30.1350   44.3820 C   0  0  0  0  0  0  0  0  0  0  0  0
   55.5150   28.8680   44.8750 N   0  0  0  0  0  0  0  0  0  0  0  0
   53.9482   24.7126   46.2545 H   0  0  0  0  0  0  0  0  0  0  0  0
   54.1679   25.5936   44.6996 H   0  0  0  0  0  0  0  0  0  0  0  0
   56.3277   23.7460   47.2342 H   0  0  0  0  0  0  0  0  0  0  0  0
   58.0717   22.1104   46.4962 H   0  0  0  0  0  0  0  0  0  0  0  0
   58.4407   21.7056   44.0534 H   0  0  0  0  0  0  0  0  0  0  0  0
   57.0503   22.9421   42.3790 H   0  0  0  0  0  0  0  0  0  0  0  0
   58.6407   28.6578   46.1527 H   0  0  0  0  0  0  0  0  0  0  0  0
   58.2258   33.1524   43.7330 H   0  0  0  0  0  0  0  0  0  0  0  0
   58.5379   35.5617   44.2954 H   0  0  0  0  0  0  0  0  0  0  0  0
   59.5763   36.2143   46.4660 H   0  0  0  0  0  0  0  0  0  0  0  0
   60.2820   34.4648   48.0918 H   0  0  0  0  0  0  0  0  0  0  0  0
   58.6370   30.2960   47.2790 H   0  0  0  0  0  0  0  0  0  0  0  0
   59.8605   28.4092   48.0614 H   0  0  0  0  0  0  0  0  0  0  0  0
   61.2508   29.4825   48.4691 H   0  0  0  0  0  0  0  0  0  0  0  0
   58.0071   30.6292   49.6378 H   0  0  0  0  0  0  0  0  0  0  0  0
   57.2613   30.5452   52.0169 H   0  0  0  0  0  0  0  0  0  0  0  0
   58.5447   29.2017   53.6858 H   0  0  0  0  0  0  0  0  0  0  0  0
   60.5879   27.9528   52.9779 H   0  0  0  0  0  0  0  0  0  0  0  0
   61.3577   28.0544   50.6060 H   0  0  0  0  0  0  0  0  0  0  0  0
   56.7007   31.9364   44.0822 H   0  0  0  0  0  0  0  0  0  0  0  0
   54.6350   30.5446   43.8928 H   0  0  0  0  0  0  0  0  0  0  0  0
  1  2  2  0
  2  3  1  0
  3  4  1  0
  4  5  1  0
  5  6  2  0
  6  7  1  0
  7  8  2  0
  8  9  1  0
  9 10  2  0
  2 11  1  0
 11 12  2  0
 12 13  1  0
 13 14  2  3
 14 15  1  0
 15 16  2  0
 16 17  1  0
 17 18  2  0
 18 19  1  0
 19 20  2  0
 20 21  1  0
 21 22  2  0
 21 23  1  0
 23 24  1  0
 24 25  1  0
 25 26  2  0
 26 27  1  0
 27 28  2  0
 28 29  1  0
 29 30  2  0
 13 31  1  0
 31 32  2  0
 32 33  1  0
 10  5  1  0
 33 11  1  0
 20 15  1  0
 30 25  1  0
  4 34  1  0
  4 35  1  0
  6 36  1  0
  7 37  1  0
  8 38  1  0
  9 39  1  0
 12 40  1  0
 16 41  1  0
 17 42  1  0
 18 43  1  0
 19 44  1  0
 23 45  1  0
 24 46  1  0
 24 47  1  0
 26 48  1  0
 27 49  1  0
 28 50  1  0
 29 51  1  0
 30 52  1  0
 31 53  1  0
 32 54  1  0
M  CHG  2   3  -1  33  -1
M  END
>  <UniqueID>  (42) 
37

>  <SMILES>  (42) 
O=C([N-]Cc1ccccn1)c1cc(=Nc2ccccc2C(=O)NCc2ccccc2)cc[n-]1

>  <Energy>  (42) 
66.74316724309537

>  <Genealogy>  (42) 
O=C([N-]Cc1ccccn1)c1cc(=Nc2ccccc2C(=O)NCc2ccccc2)cc[n-]1 (protonated)
O=C([N-]Cc1ccccn1)c1cc(=Nc2ccccc2C(=O)NCc2ccccc2)cc[n-]1 (3D coordinates assigned)
O=C([N-]Cc1ccccn1)c1cc(=Nc2ccccc2C(=O)NCc2ccccc2)cc[n-]1 (optimized conformer: 66.74316724309537 kcal/mol)

>  <smiles>  (42) 
O=C(NCc1ccccn1)c1cc(=Nc2ccccc2C(=O)NCc2ccccc2)cc[nH]1

>  <score_type>  (42) 
oracle

>  <origin>  (42) 
adg

>  <m_score__min__energy>  (42) 
-13.24

>  <m_primary>  (42) 
energy

$$$$
42:0
     RDKit          3D

 48 51  0  0  0  0  0  0  0  0999 V2000
   51.8650   28.6940   49.0530 H   0  0  0  0  0  0  0  0  0  0  0  0
   51.7750   29.7360   49.0490 N   0  0  0  0  0  0  0  0  0  0  0  0
   51.9930   30.4370   50.1130 C   0  0  0  0  0  0  0  0  0  0  0  0
   51.0930   31.3760   50.4980 N   0  0  0  0  0  0  0  0  0  0  0  0
   51.3120   32.1120   51.6160 C   0  0  0  0  0  0  0  0  0  0  0  0
   50.3720   33.0730   52.0010 O   0  0  0  0  0  0  0  0  0  0  0  0
   50.1080   33.3870   53.3630 C   0  0  0  0  0  0  0  0  0  0  0  0
   50.6790   32.7079   54.0132 H   0  0  0  0  0  0  0  0  0  0  0  0
   50.4079   34.4260   53.5645 H   0  0  0  0  0  0  0  0  0  0  0  0
   49.0330   33.2700   53.5645 H   0  0  0  0  0  0  0  0  0  0  0  0
   52.4380   31.9060   52.3480 N   0  0  0  0  0  0  0  0  0  0  0  0
   53.3460   30.9650   51.9680 C   0  0  0  0  0  0  0  0  0  0  0  0
   54.4200   30.7400   52.6660 N   0  0  0  0  0  0  0  0  0  0  0  0
   55.6770   30.2350   52.1820 C   0  0  0  0  0  0  0  0  0  0  0  0
   55.8470   28.9960   52.0130 O   0  0  0  0  0  0  0  0  0  0  0  0
   56.7880   31.1730   51.8970 C   0  0  0  0  0  0  0  0  0  0  0  0
   56.8320   32.4470   52.5300 C   0  0  0  0  0  0  0  0  0  0  0  0
   56.0299   32.7360   53.2251 H   0  0  0  0  0  0  0  0  0  0  0  0
   57.8880   33.3410   52.2780 C   0  0  0  0  0  0  0  0  0  0  0  0
   57.9251   34.3260   52.7663 H   0  0  0  0  0  0  0  0  0  0  0  0
   58.8850   32.9420   51.3920 C   0  0  0  0  0  0  0  0  0  0  0  0
   58.8490   31.7190   50.7760 C   0  0  0  0  0  0  0  0  0  0  0  0
   57.8210   30.8070   51.0020 C   0  0  0  0  0  0  0  0  0  0  0  0
   57.8124   29.8290   50.4985 H   0  0  0  0  0  0  0  0  0  0  0  0
   59.9670   31.6440   49.9720 C   0  0  0  0  0  0  0  0  0  0  0  0
   60.4530   30.2650   48.9260 S   0  0  0  0  0  0  0  0  0  0  0  0
   59.2650   30.6490   47.5900 C   0  0  0  0  0  0  0  0  0  0  0  0
   59.4700   29.9969   46.7282 H   0  0  0  0  0  0  0  0  0  0  0  0
   58.2461   30.4796   47.9682 H   0  0  0  0  0  0  0  0  0  0  0  0
   59.3830   32.0850   47.1590 C   0  0  0  0  0  0  0  0  0  0  0  0
   58.2480   32.9100   47.1370 C   0  0  0  0  0  0  0  0  0  0  0  0
   57.2775   32.5157   47.4725 H   0  0  0  0  0  0  0  0  0  0  0  0
   58.3460   34.2320   46.6900 C   0  0  0  0  0  0  0  0  0  0  0  0
   57.4535   34.8748   46.6761 H   0  0  0  0  0  0  0  0  0  0  0  0
   59.5770   34.7370   46.2610 C   0  0  0  0  0  0  0  0  0  0  0  0
   59.6670   36.0130   45.8130 F   0  0  0  0  0  0  0  0  0  0  0  0
   60.7120   33.9210   46.2810 C   0  0  0  0  0  0  0  0  0  0  0  0
   61.6807   34.3196   45.9453 H   0  0  0  0  0  0  0  0  0  0  0  0
   60.6180   32.5990   46.7270 C   0  0  0  0  0  0  0  0  0  0  0  0
   61.5129   31.9595   46.7398 H   0  0  0  0  0  0  0  0  0  0  0  0
   60.6400   32.8500   50.1500 C   0  0  0  0  0  0  0  0  0  0  0  0
   61.9630   33.2090   49.5510 C   0  0  0  0  0  0  0  0  0  0  0  0
   62.6880   33.4057   50.3545 H   0  0  0  0  0  0  0  0  0  0  0  0
   62.3221   32.3758   48.9290 H   0  0  0  0  0  0  0  0  0  0  0  0
   61.8517   34.1094   48.9290 H   0  0  0  0  0  0  0  0  0  0  0  0
   59.9750   33.6390   51.0250 N   0  0  0  0  0  0  0  0  0  0  0  0
   60.2550   34.5890   51.3580 H   0  0  0  0  0  0  0  0  0  0  0  0
   53.1170   30.2330   50.8490 N   0  0  0  0  0  0  0  0  0  0  0  0
  1  2  1  0
  2  3  2  0
  3  4  1  0
  4  5  1  0
  5  6  1  0
  6  7  1  0
  7  8  1  0
  7  9  1  0
  7 10  1  0
  5 11  2  0
 11 12  1  0
 12 13  2  3
 13 14  1  0
 14 15  2  0
 14 16  1  0
 16 17  2  0
 17 18  1  0
 17 19  1  0
 19 20  1  0
 19 21  2  0
 21 22  1  0
 22 23  2  0
 23 24  1  0
 22 25  1  0
 25 26  1  0
 26 27  1  0
 27 28  1  0
 27 29  1  0
 27 30  1  0
 30 31  2  0
 31 32  1  0
 31 33  1  0
 33 34  1  0
 33 35  2  0
 35 36  1  0
 35 37  1  0
 37 38  1  0
 37 39  2  0
 39 40  1  0
 25 41  2  0
 41 42  1  0
 42 43  1  0
 42 44  1  0
 42 45  1  0
 41 46  1  0
 46 47  1  0
 12 48  1  0
 48  3  1  0
 23 16  1  0
 39 30  1  0
 46 21  1  0
M  CHG  2   4  -1  48  -1
M  END
>  <UniqueID>  (43) 
38

>  <SMILES>  (43) 
[H]/N=c1/[n-]c(OC)nc(=NC(=O)c2ccc3[nH]c(C)c(SCc4ccc(F)cc4)c3c2)[n-]1

>  <Energy>  (43) 
79.9429099754554

>  <Genealogy>  (43) 
COc1nc(=NC(=O)c2ccc3[nH]c(C)c(SCc4ccc(F)cc4)c3c2)[n-]c(=N)[n-]1 (protonated)
[H]/N=c1/[n-]c(OC)nc(=NC(=O)c2ccc3[nH]c(C)c(SCc4ccc(F)cc4)c3c2)[n-]1 (cis-trans isomerization)
[H]/N=c1/[n-]c(OC)nc(=NC(=O)c2ccc3[nH]c(C)c(SCc4ccc(F)cc4)c3c2)[n-]1 (3D coordinates assigned)
[H]/N=c1/[n-]c(OC)nc(=NC(=O)c2ccc3[nH]c(C)c(SCc4ccc(F)cc4)c3c2)[n-]1 (optimized conformer: 79.9429099754554 kcal/mol)

>  <smiles>  (43) 
COc1nc(=NC(=O)c2ccc3[nH]c(C)c(SCc4ccc(F)cc4)c3c2)[nH]c(=N)[nH]1

>  <score_type>  (43) 
oracle

>  <origin>  (43) 
adg

>  <m_score__min__energy>  (43) 
-13.640000000000001

>  <m_primary>  (43) 
energy

$$$$
43:0
     RDKit          3D

 27 28  0  0  0  0  0  0  0  0999 V2000
   55.1500   29.3980   44.9020 N   0  0  0  0  0  0  0  0  0  0  0  0
   56.8060   29.7430   44.5480 S   0  0  0  0  0  0  0  0  0  0  0  0
   56.9870   29.8670   43.0600 O   0  0  0  0  0  0  0  0  0  0  0  0
   57.1950   31.0450   45.1900 O   0  0  0  0  0  0  0  0  0  0  0  0
   57.8220   28.4460   45.1680 C   0  0  0  0  0  0  0  0  0  0  0  0
   59.1670   28.3580   44.7810 C   0  0  0  0  0  0  0  0  0  0  0  0
   59.9730   27.3280   45.2710 C   0  0  0  0  0  0  0  0  0  0  0  0
   59.4400   26.3740   46.1430 C   0  0  0  0  0  0  0  0  0  0  0  0
   58.0910   26.4410   46.5240 C   0  0  0  0  0  0  0  0  0  0  0  0
   57.5200   25.4340   47.4850 C   0  0  0  0  0  0  0  0  0  0  0  0
   56.4140   24.6560   46.8270 C   0  0  0  0  0  0  0  0  0  0  0  0
   55.4350   25.3280   46.1620 N   0  0  0  0  0  0  0  0  0  0  0  0
   54.3950   24.6770   45.5790 C   0  0  0  0  0  0  0  0  0  0  0  0
   54.3210   23.2860   45.6690 C   0  0  0  0  0  0  0  0  0  0  0  0
   53.2670   22.5990   45.0800 O   0  0  0  0  0  0  0  0  0  0  0  0
   55.2870   22.6070   46.3400 N   0  0  0  0  0  0  0  0  0  0  0  0
   56.3290   23.2550   46.9240 C   0  0  0  0  0  0  0  0  0  0  0  0
   57.2030   22.5930   47.5440 O   0  0  0  0  0  0  0  0  0  0  0  0
   57.2870   27.4840   46.0360 C   0  0  0  0  0  0  0  0  0  0  0  0
   55.1450   28.6460   45.6270 H   0  0  0  0  0  0  0  0  0  0  0  0
   59.5885   29.1024   44.0895 H   0  0  0  0  0  0  0  0  0  0  0  0
   61.0293   27.2673   44.9702 H   0  0  0  0  0  0  0  0  0  0  0  0
   60.0801   25.5683   46.5317 H   0  0  0  0  0  0  0  0  0  0  0  0
   58.3143   24.7410   47.7994 H   0  0  0  0  0  0  0  0  0  0  0  0
   57.1147   25.9632   48.3600 H   0  0  0  0  0  0  0  0  0  0  0  0
   53.6185   25.2407   45.0411 H   0  0  0  0  0  0  0  0  0  0  0  0
   56.2308   27.5464   46.3368 H   0  0  0  0  0  0  0  0  0  0  0  0
  1  2  1  0
  2  3  2  0
  2  4  2  0
  2  5  1  0
  5  6  2  0
  6  7  1  0
  7  8  2  0
  8  9  1  0
  9 10  1  0
 10 11  1  0
 11 12  2  0
 12 13  1  0
 13 14  2  0
 14 15  1  0
 14 16  1  0
 16 17  1  0
 17 18  2  0
  9 19  2  0
 19  5  1  0
 17 11  1  0
  1 20  1  0
  6 21  1  0
  7 22  1  0
  8 23  1  0
 10 24  1  0
 10 25  1  0
 13 26  1  0
 19 27  1  0
M  CHG  3   1  -1  15  -1  16  -1
M  END
>  <UniqueID>  (44) 
39

>  <SMILES>  (44) 
[NH-]S(=O)(=O)c1cccc(Cc2ncc([O-])[n-]c2=O)c1

>  <Energy>  (44) 
28.625298523255367

>  <Genealogy>  (44) 
[NH-]S(=O)(=O)c1cccc(Cc2ncc([O-])[n-]c2=O)c1 (protonated)
[NH-]S(=O)(=O)c1cccc(Cc2ncc([O-])[n-]c2=O)c1 (3D coordinates assigned)
[NH-]S(=O)(=O)c1cccc(Cc2ncc([O-])[n-]c2=O)c1 (optimized conformer: 28.625298523255367 kcal/mol)

>  <smiles>  (44) 
NS(=O)(=O)c1cccc(Cc2ncc(O)[nH]c2=O)c1

>  <score_type>  (44) 
oracle

>  <origin>  (44) 
adg

>  <m_score__min__energy>  (44) 
-13.85

>  <m_primary>  (44) 
energy

$$$$
44:0
     RDKit          3D

 27 28  0  0  0  0  0  0  0  0999 V2000
   55.6830   30.0680   44.3320 C   0  0  0  0  0  0  0  0  0  0  0  0
   56.3600   29.1730   45.0550 C   0  0  0  0  0  0  0  0  0  0  0  0
   55.9050   27.9170   45.2540 N   0  0  0  0  0  0  0  0  0  0  0  0
   56.8670   27.3330   45.9950 C   0  0  0  0  0  0  0  0  0  0  0  0
   56.7730   25.7840   46.5220 S   0  0  0  0  0  0  0  0  0  0  0  0
   57.8870   28.2350   46.2420 C   0  0  0  0  0  0  0  0  0  0  0  0
   58.9770   28.0230   46.9920 C   0  0  0  0  0  0  0  0  0  0  0  0
   57.5660   29.4010   45.6360 N   0  0  0  0  0  0  0  0  0  0  0  0
   58.3260   30.6210   45.6180 C   0  0  0  0  0  0  0  0  0  0  0  0
   59.5520   30.5810   45.3270 O   0  0  0  0  0  0  0  0  0  0  0  0
   57.6850   31.8720   45.9130 N   0  0  0  0  0  0  0  0  0  0  0  0
   58.3720   33.1320   45.9970 C   0  0  0  0  0  0  0  0  0  0  0  0
   58.7750   33.6690   47.2340 C   0  0  0  0  0  0  0  0  0  0  0  0
   59.4180   34.9090   47.2880 C   0  0  0  0  0  0  0  0  0  0  0  0
   59.6520   35.6300   46.1130 C   0  0  0  0  0  0  0  0  0  0  0  0
   59.2340   35.1150   44.8840 C   0  0  0  0  0  0  0  0  0  0  0  0
   58.5890   33.8750   44.8260 C   0  0  0  0  0  0  0  0  0  0  0  0
   56.0871   31.0816   44.1928 H   0  0  0  0  0  0  0  0  0  0  0  0
   54.7211   29.7919   43.8754 H   0  0  0  0  0  0  0  0  0  0  0  0
   59.7234   28.8215   47.1155 H   0  0  0  0  0  0  0  0  0  0  0  0
   59.1254   27.0505   47.4841 H   0  0  0  0  0  0  0  0  0  0  0  0
   56.6440   31.8780   46.0090 H   0  0  0  0  0  0  0  0  0  0  0  0
   58.5832   33.1106   48.1621 H   0  0  0  0  0  0  0  0  0  0  0  0
   59.7405   35.3184   48.2567 H   0  0  0  0  0  0  0  0  0  0  0  0
   60.1649   36.6021   46.1566 H   0  0  0  0  0  0  0  0  0  0  0  0
   59.4122   35.6852   43.9603 H   0  0  0  0  0  0  0  0  0  0  0  0
   58.2499   33.4799   43.8570 H   0  0  0  0  0  0  0  0  0  0  0  0
  1  2  2  0
  2  3  1  0
  3  4  1  0
  4  5  2  0
  4  6  1  0
  6  7  2  0
  6  8  1  0
  8  9  1  0
  9 10  2  0
  9 11  1  0
 11 12  1  0
 12 13  2  0
 13 14  1  0
 14 15  2  0
 15 16  1  0
 16 17  2  0
  8  2  1  0
 17 12  1  0
  1 18  1  0
  1 19  1  0
  7 20  1  0
  7 21  1  0
 11 22  1  0
 13 23  1  0
 14 24  1  0
 15 25  1  0
 16 26  1  0
 17 27  1  0
M  CHG  1   3  -1
M  END
>  <UniqueID>  (45) 
40

>  <SMILES>  (45) 
C=c1[n-]c(=S)c(=C)n1C(=O)Nc1ccccc1

>  <Energy>  (45) 
70.0295810641079

>  <Genealogy>  (45) 
C=c1[n-]c(=S)c(=C)n1C(=O)Nc1ccccc1 (protonated)
C=c1[n-]c(=S)c(=C)n1C(=O)Nc1ccccc1 (3D coordinates assigned)
C=c1[n-]c(=S)c(=C)n1C(=O)Nc1ccccc1 (optimized conformer: 70.0295810641079 kcal/mol)

>  <smiles>  (45) 
C=c1[nH]c(=S)c(=C)n1C(=O)Nc1ccccc1

>  <score_type>  (45) 
oracle

>  <origin>  (45) 
adg

>  <m_score__min__energy>  (45) 
-7.6699999999999999

>  <m_primary>  (45) 
energy

$$$$
45:0
     RDKit          3D

 35 37  0  0  0  0  0  0  0  0999 V2000
   59.9040   26.6730   46.9790 O   0  0  0  0  0  0  0  0  0  0  0  0
   58.8800   26.9220   46.2800 C   0  0  0  0  0  0  0  0  0  0  0  0
   57.7540   25.9710   46.3310 C   0  0  0  0  0  0  0  0  0  0  0  0
   57.9190   24.6770   46.8420 C   0  0  0  0  0  0  0  0  0  0  0  0
   56.8060   23.8400   46.9080 C   0  0  0  0  0  0  0  0  0  0  0  0
   56.9200   22.6720   47.3580 O   0  0  0  0  0  0  0  0  0  0  0  0
   55.5960   24.2850   46.4810 N   0  0  0  0  0  0  0  0  0  0  0  0
   55.4480   25.5500   46.0060 C   0  0  0  0  0  0  0  0  0  0  0  0
   54.3170   25.9510   45.6350 O   0  0  0  0  0  0  0  0  0  0  0  0
   56.5160   26.3840   45.9470 N   0  0  0  0  0  0  0  0  0  0  0  0
   58.8530   28.1010   45.4460 N   0  0  0  0  0  0  0  0  0  0  0  0
   60.1000   28.7140   44.9840 C   0  0  0  0  0  0  0  0  0  0  0  0
   60.2630   30.0700   45.6640 C   0  0  0  0  0  0  0  0  0  0  0  0
   59.0530   30.8910   45.5210 N   0  0  0  0  0  0  0  0  0  0  0  0
   59.1060   32.2700   45.9320 C   0  0  0  0  0  0  0  0  0  0  0  0
   58.7310   33.2870   45.0390 C   0  0  0  0  0  0  0  0  0  0  0  0
   58.7510   34.6250   45.4460 C   0  0  0  0  0  0  0  0  0  0  0  0
   59.1460   34.9580   46.7430 C   0  0  0  0  0  0  0  0  0  0  0  0
   59.5230   33.9510   47.6370 C   0  0  0  0  0  0  0  0  0  0  0  0
   60.0100   34.3680   49.2660 Cl  0  0  0  0  0  0  0  0  0  0  0  0
   59.5050   32.6110   47.2340 C   0  0  0  0  0  0  0  0  0  0  0  0
   57.7810   30.2960   45.1810 C   0  0  0  0  0  0  0  0  0  0  0  0
   56.8050   31.0290   44.8670 O   0  0  0  0  0  0  0  0  0  0  0  0
   57.6020   28.8030   45.1320 C   0  0  0  0  0  0  0  0  0  0  0  0
   58.9050   24.3291   47.1836 H   0  0  0  0  0  0  0  0  0  0  0  0
   60.9494   28.0654   45.2444 H   0  0  0  0  0  0  0  0  0  0  0  0
   60.0700   28.8447   43.8922 H   0  0  0  0  0  0  0  0  0  0  0  0
   60.4637   29.9119   46.7339 H   0  0  0  0  0  0  0  0  0  0  0  0
   61.0991   30.5995   45.1838 H   0  0  0  0  0  0  0  0  0  0  0  0
   58.4203   33.0303   44.0155 H   0  0  0  0  0  0  0  0  0  0  0  0
   58.4548   35.4169   44.7424 H   0  0  0  0  0  0  0  0  0  0  0  0
   59.1606   36.0109   47.0612 H   0  0  0  0  0  0  0  0  0  0  0  0
   59.8045   31.8223   47.9398 H   0  0  0  0  0  0  0  0  0  0  0  0
   56.8346   28.5107   45.8639 H   0  0  0  0  0  0  0  0  0  0  0  0
   57.2965   28.5250   44.1125 H   0  0  0  0  0  0  0  0  0  0  0  0
  1  2  2  0
  2  3  1  0
  3  4  2  0
  4  5  1  0
  5  6  2  0
  5  7  1  0
  7  8  1  0
  8  9  2  0
  8 10  1  0
  2 11  1  0
 11 12  1  0
 12 13  1  0
 13 14  1  0
 14 15  1  0
 15 16  2  0
 16 17  1  0
 17 18  2  0
 18 19  1  0
 19 20  1  0
 19 21  2  0
 14 22  1  0
 22 23  2  0
 22 24  1  0
 10  3  1  0
 24 11  1  0
 21 15  1  0
  4 25  1  0
 12 26  1  0
 12 27  1  0
 13 28  1  0
 13 29  1  0
 16 30  1  0
 17 31  1  0
 18 32  1  0
 21 33  1  0
 24 34  1  0
 24 35  1  0
M  CHG  2   7  -1  10  -1
M  END
>  <UniqueID>  (46) 
41

>  <SMILES>  (46) 
O=C(c1cc(=O)[n-]c(=O)[n-]1)N1CCN(c2cccc(Cl)c2)C(=O)C1

>  <Energy>  (46) 
50.58915029268982

>  <Genealogy>  (46) 
O=C(c1cc(=O)[n-]c(=O)[n-]1)N1CCN(c2cccc(Cl)c2)C(=O)C1 (protonated)
O=C(c1cc(=O)[n-]c(=O)[n-]1)N1CCN(c2cccc(Cl)c2)C(=O)C1 (3D coordinates assigned)
O=C(c1cc(=O)[n-]c(=O)[n-]1)N1CCN(c2cccc(Cl)c2)C(=O)C1 (nonaromatic ring conformer: 50.58915029268982 kcal/mol)

>  <smiles>  (46) 
O=C(c1cc(=O)[nH]c(=O)[nH]1)N1CCN(c2cccc(Cl)c2)C(=O)C1

>  <score_type>  (46) 
oracle

>  <origin>  (46) 
adg

>  <m_score__min__energy>  (46) 
-12.33

>  <m_primary>  (46) 
energy

$$$$
46:0
     RDKit          3D

 38 40  0  0  0  0  0  0  0  0999 V2000
   54.4080   27.0860   46.3630 H   0  0  0  0  0  0  0  0  0  0  0  0
   55.1400   26.7610   45.7430 O   0  0  0  0  0  0  0  0  0  0  0  0
   56.0920   25.8430   46.1790 C   0  0  0  0  0  0  0  0  0  0  0  0
   55.7580   24.9180   47.1190 N   0  0  0  0  0  0  0  0  0  0  0  0
   56.6680   24.0180   47.5700 C   0  0  0  0  0  0  0  0  0  0  0  0
   56.3350   23.1700   48.4370 O   0  0  0  0  0  0  0  0  0  0  0  0
   57.9380   24.0340   47.0900 N   0  0  0  0  0  0  0  0  0  0  0  0
   58.3210   24.9370   46.1510 C   0  0  0  0  0  0  0  0  0  0  0  0
   59.5090   24.9290   45.7310 O   0  0  0  0  0  0  0  0  0  0  0  0
   57.3920   25.8640   45.6530 C   0  0  0  0  0  0  0  0  0  0  0  0
   57.7880   26.8790   44.6630 C   0  0  0  0  0  0  0  0  0  0  0  0
   58.0445   26.5360   43.6498 H   0  0  0  0  0  0  0  0  0  0  0  0
   57.8570   28.2030   44.9170 C   0  0  0  0  0  0  0  0  0  0  0  0
   58.4650   28.8680   45.9890 C   0  0  0  0  0  0  0  0  0  0  0  0
   59.1950   28.2810   47.1570 C   0  0  0  0  0  0  0  0  0  0  0  0
   58.7433   28.6442   48.0919 H   0  0  0  0  0  0  0  0  0  0  0  0
   59.1262   27.1838   47.1186 H   0  0  0  0  0  0  0  0  0  0  0  0
   60.2518   28.5837   47.1186 H   0  0  0  0  0  0  0  0  0  0  0  0
   58.2850   30.1960   45.8550 N   0  0  0  0  0  0  0  0  0  0  0  0
   57.5940   30.4140   44.7490 N   0  0  0  0  0  0  0  0  0  0  0  0
   57.1810   31.7580   44.3340 C   0  0  0  0  0  0  0  0  0  0  0  0
   57.3993   31.8904   43.2640 H   0  0  0  0  0  0  0  0  0  0  0  0
   56.1022   31.8726   44.5158 H   0  0  0  0  0  0  0  0  0  0  0  0
   57.9240   32.8010   45.1250 C   0  0  0  0  0  0  0  0  0  0  0  0
   58.8230   33.6760   44.4920 C   0  0  0  0  0  0  0  0  0  0  0  0
   58.9935   33.5962   43.4082 H   0  0  0  0  0  0  0  0  0  0  0  0
   59.5020   34.6480   45.2340 C   0  0  0  0  0  0  0  0  0  0  0  0
   60.2038   35.3308   44.7327 H   0  0  0  0  0  0  0  0  0  0  0  0
   59.2900   34.7530   46.6120 C   0  0  0  0  0  0  0  0  0  0  0  0
   59.9470   35.6970   47.3300 F   0  0  0  0  0  0  0  0  0  0  0  0
   58.3990   33.8840   47.2500 C   0  0  0  0  0  0  0  0  0  0  0  0
   58.2322   33.9670   48.3341 H   0  0  0  0  0  0  0  0  0  0  0  0
   57.7200   32.9100   46.5120 C   0  0  0  0  0  0  0  0  0  0  0  0
   57.0232   32.2260   47.0185 H   0  0  0  0  0  0  0  0  0  0  0  0
   57.3050   29.2320   44.1510 C   0  0  0  0  0  0  0  0  0  0  0  0
   56.6030   29.1070   43.0150 C   0  0  0  0  0  0  0  0  0  0  0  0
   56.2199   30.0025   42.5038 H   0  0  0  0  0  0  0  0  0  0  0  0
   56.4104   28.1090   42.5945 H   0  0  0  0  0  0  0  0  0  0  0  0
  1  2  1  0
  2  3  1  0
  3  4  1  0
  4  5  1  0
  5  6  2  0
  5  7  1  0
  7  8  1  0
  8  9  2  0
  8 10  1  0
 10 11  1  0
 11 12  1  0
 11 13  2  0
 13 14  1  0
 14 15  1  0
 15 16  1  0
 15 17  1  0
 15 18  1  0
 14 19  2  0
 19 20  1  0
 20 21  1  0
 21 22  1  0
 21 23  1  0
 21 24  1  0
 24 25  2  0
 25 26  1  0
 25 27  1  0
 27 28  1  0
 27 29  2  0
 29 30  1  0
 29 31  1  0
 31 32  1  0
 31 33  2  0
 33 34  1  0
 20 35  1  0
 35 36  2  0
 36 37  1  0
 36 38  1  0
 10  3  2  0
 35 13  1  0
 33 24  1  0
M  CHG  2   4  -1   7  -1
M  END
>  <UniqueID>  (47) 
42

>  <SMILES>  (47) 
C=c1/c(=C/c2c(O)[n-]c(=O)[n-]c2=O)c(C)nn1Cc1ccc(F)cc1

>  <Energy>  (47) 
83.82137185318125

>  <Genealogy>  (47) 
C=c1c(=Cc2c(O)[n-]c(=O)[n-]c2=O)c(C)nn1Cc1ccc(F)cc1 (protonated)
C=c1/c(=C/c2c(O)[n-]c(=O)[n-]c2=O)c(C)nn1Cc1ccc(F)cc1 (cis-trans isomerization)
C=c1/c(=C/c2c(O)[n-]c(=O)[n-]c2=O)c(C)nn1Cc1ccc(F)cc1 (3D coordinates assigned)
C=c1/c(=C/c2c(O)[n-]c(=O)[n-]c2=O)c(C)nn1Cc1ccc(F)cc1 (optimized conformer: 83.82137185318125 kcal/mol)

>  <smiles>  (47) 
C=c1c(=Cc2c(O)[nH]c(=O)[nH]c2=O)c(C)nn1Cc1ccc(F)cc1

>  <score_type>  (47) 
oracle

>  <origin>  (47) 
adg

>  <m_score__min__energy>  (47) 
-13.25

>  <m_primary>  (47) 
energy

$$$$
47:0
     RDKit          3D

 52 55  0  0  0  0  0  0  0  0999 V2000
   60.0230   29.2980   46.6190 O   0  0  0  0  0  0  0  0  0  0  0  0
   59.3050   28.4170   47.1640 C   0  0  0  0  0  0  0  0  0  0  0  0
   59.9320   27.4550   48.1250 C   0  0  0  0  0  0  0  0  0  0  0  0
   60.3520   28.1690   49.3820 C   0  0  0  0  0  0  0  0  0  0  0  0
   60.2030   29.5630   49.4810 C   0  0  0  0  0  0  0  0  0  0  0  0
   60.5860   30.2320   50.6470 C   0  0  0  0  0  0  0  0  0  0  0  0
   61.1350   29.5190   51.7160 C   0  0  0  0  0  0  0  0  0  0  0  0
   61.3130   28.1360   51.6160 C   0  0  0  0  0  0  0  0  0  0  0  0
   60.9270   27.4600   50.4520 C   0  0  0  0  0  0  0  0  0  0  0  0
   61.1140   26.1180   50.3730 F   0  0  0  0  0  0  0  0  0  0  0  0
   57.9000   28.3380   46.8720 N   0  0  0  0  0  0  0  0  0  0  0  0
   57.2640   29.1290   45.8550 C   0  0  0  0  0  0  0  0  0  0  0  0
   57.8260   30.3470   45.4350 C   0  0  0  0  0  0  0  0  0  0  0  0
   57.2010   31.1210   44.4410 C   0  0  0  0  0  0  0  0  0  0  0  0
   57.8000   32.4000   43.9820 C   0  0  0  0  0  0  0  0  0  0  0  0
   57.9320   32.6080   42.7450 O   0  0  0  0  0  0  0  0  0  0  0  0
   58.2690   33.3920   44.9130 N   0  0  0  0  0  0  0  0  0  0  0  0
   57.4070   33.8600   46.0070 C   0  0  0  0  0  0  0  0  0  0  0  0
   58.2000   34.0200   47.3220 C   0  0  0  0  0  0  0  0  0  0  0  0
   59.7220   34.2060   47.1150 C   0  0  0  0  0  0  0  0  0  0  0  0
   59.9890   34.9560   45.7980 C   0  0  0  0  0  0  0  0  0  0  0  0
   59.4980   34.1340   44.5950 C   0  0  0  0  0  0  0  0  0  0  0  0
   60.3380   32.9340   47.0540 O   0  0  0  0  0  0  0  0  0  0  0  0
   61.3860   32.9740   47.9640 C   0  0  0  0  0  0  0  0  0  0  0  0
   61.0870   34.1120   48.8870 C   0  0  0  0  0  0  0  0  0  0  0  0
   60.2410   34.9660   48.1860 O   0  0  0  0  0  0  0  0  0  0  0  0
   56.0210   30.6430   43.8460 C   0  0  0  0  0  0  0  0  0  0  0  0
   55.4760   29.4200   44.2390 C   0  0  0  0  0  0  0  0  0  0  0  0
   56.0940   28.6610   45.2370 C   0  0  0  0  0  0  0  0  0  0  0  0
   55.5320   27.4470   45.6180 O   0  0  0  0  0  0  0  0  0  0  0  0
   59.2042   26.6705   48.3795 H   0  0  0  0  0  0  0  0  0  0  0  0
   60.8201   27.0078   47.6545 H   0  0  0  0  0  0  0  0  0  0  0  0
   59.7831   30.1301   48.6371 H   0  0  0  0  0  0  0  0  0  0  0  0
   60.4550   31.3215   50.7232 H   0  0  0  0  0  0  0  0  0  0  0  0
   61.4271   30.0460   52.6363 H   0  0  0  0  0  0  0  0  0  0  0  0
   61.7571   27.5777   52.4533 H   0  0  0  0  0  0  0  0  0  0  0  0
   57.2980   27.7530   47.4940 H   0  0  0  0  0  0  0  0  0  0  0  0
   58.7645   30.6984   45.8886 H   0  0  0  0  0  0  0  0  0  0  0  0
   56.9739   34.8325   45.7300 H   0  0  0  0  0  0  0  0  0  0  0  0
   56.6170   33.1118   46.1687 H   0  0  0  0  0  0  0  0  0  0  0  0
   57.8125   34.9003   47.8557 H   0  0  0  0  0  0  0  0  0  0  0  0
   58.0658   33.0890   47.8922 H   0  0  0  0  0  0  0  0  0  0  0  0
   59.4588   35.9196   45.8174 H   0  0  0  0  0  0  0  0  0  0  0  0
   61.0723   35.1182   45.6969 H   0  0  0  0  0  0  0  0  0  0  0  0
   59.2967   34.8153   43.7552 H   0  0  0  0  0  0  0  0  0  0  0  0
   60.2807   33.4073   44.3318 H   0  0  0  0  0  0  0  0  0  0  0  0
   61.4404   32.0300   48.5261 H   0  0  0  0  0  0  0  0  0  0  0  0
   62.3537   33.1087   47.4585 H   0  0  0  0  0  0  0  0  0  0  0  0
   60.5901   33.7448   49.7971 H   0  0  0  0  0  0  0  0  0  0  0  0
   62.0070   34.6267   49.2012 H   0  0  0  0  0  0  0  0  0  0  0  0
   55.5236   31.2370   43.0651 H   0  0  0  0  0  0  0  0  0  0  0  0
   54.5561   29.0516   43.7614 H   0  0  0  0  0  0  0  0  0  0  0  0
  1  2  2  0
  2  3  1  0
  3  4  1  0
  4  5  2  0
  5  6  1  0
  6  7  2  0
  7  8  1  0
  8  9  2  0
  9 10  1  0
  2 11  1  0
 11 12  1  0
 12 13  2  0
 13 14  1  0
 14 15  1  0
 15 16  2  0
 15 17  1  0
 17 18  1  0
 18 19  1  0
 19 20  1  0
 20 21  1  0
 21 22  1  0
 20 23  1  0
 23 24  1  0
 24 25  1  0
 25 26  1  0
 14 27  2  0
 27 28  1  0
 28 29  2  0
 29 30  1  0
  9  4  1  0
 29 12  1  0
 22 17  1  0
 26 20  1  0
  3 31  1  0
  3 32  1  0
  5 33  1  0
  6 34  1  0
  7 35  1  0
  8 36  1  0
 11 37  1  0
 13 38  1  0
 18 39  1  0
 18 40  1  0
 19 41  1  0
 19 42  1  0
 21 43  1  0
 21 44  1  0
 22 45  1  0
 22 46  1  0
 24 47  1  0
 24 48  1  0
 25 49  1  0
 25 50  1  0
 27 51  1  0
 28 52  1  0
M  CHG  1  30  -1
M  END
>  <UniqueID>  (48) 
43

>  <SMILES>  (48) 
O=C(Cc1ccccc1F)Nc1cc(C(=O)N2CCC3(CC2)OCCO3)ccc1[O-]

>  <Energy>  (48) 
57.03813924051985

>  <Genealogy>  (48) 
O=C(Cc1ccccc1F)Nc1cc(C(=O)N2CCC3(CC2)OCCO3)ccc1[O-] (protonated)
O=C(Cc1ccccc1F)Nc1cc(C(=O)N2CCC3(CC2)OCCO3)ccc1[O-] (3D coordinates assigned)
O=C(Cc1ccccc1F)Nc1cc(C(=O)N2CCC3(CC2)OCCO3)ccc1[O-] (nonaromatic ring conformer: 57.03813924051985 kcal/mol)

>  <smiles>  (48) 
O=C(Cc1ccccc1F)Nc1cc(C(=O)N2CCC3(CC2)OCCO3)ccc1O

>  <score_type>  (48) 
oracle

>  <origin>  (48) 
adg

>  <m_score__min__energy>  (48) 
-11.59

>  <m_primary>  (48) 
energy

$$$$
48:0
     RDKit          3D

 63 66  0  0  0  0  0  0  0  0999 V2000
   57.1680   34.2180   45.7040 O   0  0  0  0  0  0  0  0  0  0  0  0
   57.6290   33.0990   45.3490 C   0  0  0  0  0  0  0  0  0  0  0  0
   57.4140   32.6230   43.9440 C   0  0  0  0  0  0  0  0  0  0  0  0
   58.0420   30.9150   43.7380 S   0  0  0  0  0  0  0  0  0  0  0  0
   56.7840   30.1490   44.7710 C   0  0  0  0  0  0  0  0  0  0  0  0
   55.5720   30.3230   44.4790 O   0  0  0  0  0  0  0  0  0  0  0  0
   57.1100   29.4490   45.9760 N   0  0  0  0  0  0  0  0  0  0  0  0
   57.7440   28.1650   46.0760 C   0  0  0  0  0  0  0  0  0  0  0  0
   57.0040   26.9810   45.9070 C   0  0  0  0  0  0  0  0  0  0  0  0
   57.6170   25.7370   46.0610 C   0  0  0  0  0  0  0  0  0  0  0  0
   58.9690   25.6590   46.3950 C   0  0  0  0  0  0  0  0  0  0  0  0
   59.7110   26.8250   46.5880 C   0  0  0  0  0  0  0  0  0  0  0  0
   59.1040   28.0840   46.4460 C   0  0  0  0  0  0  0  0  0  0  0  0
   59.9180   29.3080   46.6080 C   0  0  0  0  0  0  0  0  0  0  0  0
   60.0440   30.0940   45.6290 O   0  0  0  0  0  0  0  0  0  0  0  0
   60.5540   29.6290   47.8600 N   0  0  0  0  0  0  0  0  0  0  0  0
   60.1450   29.0840   49.1460 C   0  0  0  0  0  0  0  0  0  0  0  0
   60.8120   29.9640   50.1960 C   0  0  0  0  0  0  0  0  0  0  0  0
   61.9100   30.7330   49.4630 C   0  0  0  0  0  0  0  0  0  0  0  0
   61.5190   30.7090   47.9900 C   0  0  0  0  0  0  0  0  0  0  0  0
   58.2930   32.2550   46.3020 N   0  0  0  0  0  0  0  0  0  0  0  0
   58.8290   32.7380   47.5440 C   0  0  0  0  0  0  0  0  0  0  0  0
   59.8190   33.7310   47.5310 C   0  0  0  0  0  0  0  0  0  0  0  0
   60.3590   34.2030   48.7300 C   0  0  0  0  0  0  0  0  0  0  0  0
   59.9030   33.7010   49.9530 C   0  0  0  0  0  0  0  0  0  0  0  0
   58.8880   32.7350   49.9800 C   0  0  0  0  0  0  0  0  0  0  0  0
   58.3150   32.0910   51.5190 S   0  0  0  0  0  0  0  0  0  0  0  0
   59.5080   31.7710   52.3770 O   0  0  0  0  0  0  0  0  0  0  0  0
   57.5040   33.1450   52.2200 O   0  0  0  0  0  0  0  0  0  0  0  0
   57.3800   30.6270   51.2760 N   0  0  0  0  0  0  0  0  0  0  0  0
   55.9620   30.7780   51.6540 C   0  0  0  0  0  0  0  0  0  0  0  0
   55.7610   30.6540   53.1680 C   0  0  0  0  0  0  0  0  0  0  0  0
   56.2570   29.4150   53.6300 O   0  0  0  0  0  0  0  0  0  0  0  0
   57.6530   29.3570   53.4230 C   0  0  0  0  0  0  0  0  0  0  0  0
   58.0020   29.4570   51.9250 C   0  0  0  0  0  0  0  0  0  0  0  0
   58.3480   32.2610   48.7750 C   0  0  0  0  0  0  0  0  0  0  0  0
   56.3379   32.6423   43.7166 H   0  0  0  0  0  0  0  0  0  0  0  0
   57.9603   33.2866   43.2576 H   0  0  0  0  0  0  0  0  0  0  0  0
   55.9354   27.0360   45.6519 H   0  0  0  0  0  0  0  0  0  0  0  0
   57.0328   24.8159   45.9187 H   0  0  0  0  0  0  0  0  0  0  0  0
   59.4512   24.6766   46.5065 H   0  0  0  0  0  0  0  0  0  0  0  0
   60.7766   26.7580   46.8527 H   0  0  0  0  0  0  0  0  0  0  0  0
   59.0507   29.1251   49.2497 H   0  0  0  0  0  0  0  0  0  0  0  0
   60.4392   28.0295   49.2528 H   0  0  0  0  0  0  0  0  0  0  0  0
   60.0811   30.6619   50.6304 H   0  0  0  0  0  0  0  0  0  0  0  0
   61.2218   29.3654   51.0229 H   0  0  0  0  0  0  0  0  0  0  0  0
   61.9621   31.7690   49.8289 H   0  0  0  0  0  0  0  0  0  0  0  0
   62.8998   30.2820   49.6272 H   0  0  0  0  0  0  0  0  0  0  0  0
   61.0648   31.6672   47.6975 H   0  0  0  0  0  0  0  0  0  0  0  0
   62.3924   30.5555   47.3391 H   0  0  0  0  0  0  0  0  0  0  0  0
   58.3190   31.2260   46.1170 H   0  0  0  0  0  0  0  0  0  0  0  0
   60.1719   34.1400   46.5728 H   0  0  0  0  0  0  0  0  0  0  0  0
   61.1454   34.9720   48.7120 H   0  0  0  0  0  0  0  0  0  0  0  0
   60.3412   34.0645   50.8942 H   0  0  0  0  0  0  0  0  0  0  0  0
   55.6099   31.7678   51.3278 H   0  0  0  0  0  0  0  0  0  0  0  0
   55.3904   29.9748   51.1660 H   0  0  0  0  0  0  0  0  0  0  0  0
   56.2978   31.4705   53.6731 H   0  0  0  0  0  0  0  0  0  0  0  0
   54.6856   30.7139   53.3916 H   0  0  0  0  0  0  0  0  0  0  0  0
   58.1295   30.1914   53.9584 H   0  0  0  0  0  0  0  0  0  0  0  0
   58.0201   28.3915   53.8012 H   0  0  0  0  0  0  0  0  0  0  0  0
   59.0943   29.5359   51.8219 H   0  0  0  0  0  0  0  0  0  0  0  0
   57.6128   28.5548   51.4305 H   0  0  0  0  0  0  0  0  0  0  0  0
   57.5432   31.5114   48.7940 H   0  0  0  0  0  0  0  0  0  0  0  0
  1  2  2  0
  2  3  1  0
  3  4  1  0
  4  5  1  0
  5  6  2  0
  5  7  1  0
  7  8  1  0
  8  9  2  0
  9 10  1  0
 10 11  2  0
 11 12  1  0
 12 13  2  0
 13 14  1  0
 14 15  2  0
 14 16  1  0
 16 17  1  0
 17 18  1  0
 18 19  1  0
 19 20  1  0
  2 21  1  0
 21 22  1  0
 22 23  2  0
 23 24  1  0
 24 25  2  0
 25 26  1  0
 26 27  1  0
 27 28  2  0
 27 29  2  0
 27 30  1  0
 30 31  1  0
 31 32  1  0
 32 33  1  0
 33 34  1  0
 34 35  1  0
 26 36  2  0
 13  8  1  0
 20 16  1  0
 36 22  1  0
 35 30  1  0
  3 37  1  0
  3 38  1  0
  9 39  1  0
 10 40  1  0
 11 41  1  0
 12 42  1  0
 17 43  1  0
 17 44  1  0
 18 45  1  0
 18 46  1  0
 19 47  1  0
 19 48  1  0
 20 49  1  0
 20 50  1  0
 21 51  1  0
 23 52  1  0
 24 53  1  0
 25 54  1  0
 31 55  1  0
 31 56  1  0
 32 57  1  0
 32 58  1  0
 34 59  1  0
 34 60  1  0
 35 61  1  0
 35 62  1  0
 36 63  1  0
M  CHG  1   7  -1
M  END
>  <UniqueID>  (49) 
44

>  <SMILES>  (49) 
O=C(CSC(=O)[N-]c1ccccc1C(=O)N1CCCC1)Nc1cccc(S(=O)(=O)N2CCOCC2)c1

>  <Energy>  (49) 
79.64526622932486

>  <Genealogy>  (49) 
O=C(CSC(=O)[N-]c1ccccc1C(=O)N1CCCC1)Nc1cccc(S(=O)(=O)N2CCOCC2)c1 (protonated)
O=C(CSC(=O)[N-]c1ccccc1C(=O)N1CCCC1)Nc1cccc(S(=O)(=O)N2CCOCC2)c1 (3D coordinates assigned)
O=C(CSC(=O)[N-]c1ccccc1C(=O)N1CCCC1)Nc1cccc(S(=O)(=O)N2CCOCC2)c1 (nonaromatic ring conformer: 79.64526622932486 kcal/mol)

>  <smiles>  (49) 
O=C(CSC(=O)Nc1ccccc1C(=O)N1CCCC1)Nc1cccc(S(=O)(=O)N2CCOCC2)c1

>  <score_type>  (49) 
oracle

>  <origin>  (49) 
adg

>  <m_score__min__energy>  (49) 
-12.74

>  <m_primary>  (49) 
energy

$$$$
49:0
     RDKit          3D

 54 57  0  0  0  0  0  0  0  0999 V2000
   55.3220   29.3460   44.7530 O   0  0  0  0  0  0  0  0  0  0  0  0
   56.3690   30.0380   44.8700 C   0  0  0  0  0  0  0  0  0  0  0  0
   56.2880   31.4700   44.8680 N   0  0  0  0  0  0  0  0  0  0  0  0
   57.3590   32.3870   45.1310 C   0  0  0  0  0  0  0  0  0  0  0  0
   57.9100   33.2000   44.1220 C   0  0  0  0  0  0  0  0  0  0  0  0
   58.9430   34.0910   44.4250 C   0  0  0  0  0  0  0  0  0  0  0  0
   59.4250   34.1910   45.7310 C   0  0  0  0  0  0  0  0  0  0  0  0
   58.8680   33.4060   46.7490 C   0  0  0  0  0  0  0  0  0  0  0  0
   59.4790   33.5340   48.4010 S   0  0  0  0  0  0  0  0  0  0  0  0
   58.6570   32.6560   49.3040 O   0  0  0  0  0  0  0  0  0  0  0  0
   59.3290   34.9540   48.8710 O   0  0  0  0  0  0  0  0  0  0  0  0
   61.1590   33.0700   48.5020 N   0  0  0  0  0  0  0  0  0  0  0  0
   61.6900   32.7760   47.1550 C   0  0  0  0  0  0  0  0  0  0  0  0
   63.2310   32.6560   47.1390 C   0  0  0  0  0  0  0  0  0  0  0  0
   63.7980   32.4750   48.5500 C   0  0  0  0  0  0  0  0  0  0  0  0
   63.3660   33.6270   49.4730 C   0  0  0  0  0  0  0  0  0  0  0  0
   61.9440   34.1280   49.1600 C   0  0  0  0  0  0  0  0  0  0  0  0
   57.8290   32.5140   46.4450 C   0  0  0  0  0  0  0  0  0  0  0  0
   57.6890   29.3680   44.9570 C   0  0  0  0  0  0  0  0  0  0  0  0
   58.0460   28.3710   44.0360 C   0  0  0  0  0  0  0  0  0  0  0  0
   59.2940   27.7550   44.1300 C   0  0  0  0  0  0  0  0  0  0  0  0
   60.1620   28.1090   45.1170 N   0  0  0  0  0  0  0  0  0  0  0  0
   59.8390   29.0610   46.0410 C   0  0  0  0  0  0  0  0  0  0  0  0
   60.7380   29.4310   47.0510 O   0  0  0  0  0  0  0  0  0  0  0  0
   60.3970   29.6490   48.3940 C   0  0  0  0  0  0  0  0  0  0  0  0
   61.3770   30.1320   49.2690 C   0  0  0  0  0  0  0  0  0  0  0  0
   61.0690   30.3770   50.6110 C   0  0  0  0  0  0  0  0  0  0  0  0
   59.7750   30.1510   51.0840 C   0  0  0  0  0  0  0  0  0  0  0  0
   58.7840   29.6850   50.2150 C   0  0  0  0  0  0  0  0  0  0  0  0
   59.0890   29.4390   48.8720 C   0  0  0  0  0  0  0  0  0  0  0  0
   58.6050   29.7140   45.9650 C   0  0  0  0  0  0  0  0  0  0  0  0
   57.5265   33.1336   43.0931 H   0  0  0  0  0  0  0  0  0  0  0  0
   59.3779   34.7160   43.6311 H   0  0  0  0  0  0  0  0  0  0  0  0
   60.2442   34.8879   45.9616 H   0  0  0  0  0  0  0  0  0  0  0  0
   61.2586   31.8264   46.8054 H   0  0  0  0  0  0  0  0  0  0  0  0
   61.4132   33.6128   46.4968 H   0  0  0  0  0  0  0  0  0  0  0  0
   63.5149   31.7877   46.5263 H   0  0  0  0  0  0  0  0  0  0  0  0
   63.6437   33.5853   46.7194 H   0  0  0  0  0  0  0  0  0  0  0  0
   63.4309   31.5249   48.9655 H   0  0  0  0  0  0  0  0  0  0  0  0
   64.8962   32.4711   48.4871 H   0  0  0  0  0  0  0  0  0  0  0  0
   63.3952   33.2750   50.5147 H   0  0  0  0  0  0  0  0  0  0  0  0
   64.0601   34.4649   49.3111 H   0  0  0  0  0  0  0  0  0  0  0  0
   61.4473   34.4175   50.0978 H   0  0  0  0  0  0  0  0  0  0  0  0
   62.0118   34.9937   48.4847 H   0  0  0  0  0  0  0  0  0  0  0  0
   57.3790   31.9085   47.2456 H   0  0  0  0  0  0  0  0  0  0  0  0
   57.3437   28.0762   43.2423 H   0  0  0  0  0  0  0  0  0  0  0  0
   59.5780   26.9797   43.4032 H   0  0  0  0  0  0  0  0  0  0  0  0
   61.1010   27.6540   45.1370 H   0  0  0  0  0  0  0  0  0  0  0  0
   62.3956   30.3200   48.8988 H   0  0  0  0  0  0  0  0  0  0  0  0
   61.8469   30.7481   51.2945 H   0  0  0  0  0  0  0  0  0  0  0  0
   59.5352   30.3397   52.1408 H   0  0  0  0  0  0  0  0  0  0  0  0
   57.7636   29.5116   50.5875 H   0  0  0  0  0  0  0  0  0  0  0  0
   58.3056   29.0808   48.1880 H   0  0  0  0  0  0  0  0  0  0  0  0
   58.3514   30.4980   46.6937 H   0  0  0  0  0  0  0  0  0  0  0  0
  1  2  2  0
  2  3  1  0
  3  4  1  0
  4  5  2  0
  5  6  1  0
  6  7  2  0
  7  8  1  0
  8  9  1  0
  9 10  2  0
  9 11  2  0
  9 12  1  0
 12 13  1  0
 13 14  1  0
 14 15  1  0
 15 16  1  0
 16 17  1  0
  8 18  2  0
  2 19  1  0
 19 20  2  0
 20 21  1  0
 21 22  2  0
 22 23  1  0
 23 24  1  0
 24 25  1  0
 25 26  2  0
 26 27  1  0
 27 28  2  0
 28 29  1  0
 29 30  2  0
 23 31  2  0
 18  4  1  0
 31 19  1  0
 17 12  1  0
 30 25  1  0
  5 32  1  0
  6 33  1  0
  7 34  1  0
 13 35  1  0
 13 36  1  0
 14 37  1  0
 14 38  1  0
 15 39  1  0
 15 40  1  0
 16 41  1  0
 16 42  1  0
 17 43  1  0
 17 44  1  0
 18 45  1  0
 20 46  1  0
 21 47  1  0
 22 48  1  0
 26 49  1  0
 27 50  1  0
 28 51  1  0
 29 52  1  0
 30 53  1  0
 31 54  1  0
M  CHG  2   3  -1  22   1
M  END
>  <UniqueID>  (50) 
45

>  <SMILES>  (50) 
O=C([N-]c1cccc(S(=O)(=O)N2CCCCC2)c1)c1cc[nH+]c(Oc2ccccc2)c1

>  <Energy>  (50) 
70.10206055877622

>  <Genealogy>  (50) 
O=C([N-]c1cccc(S(=O)(=O)N2CCCCC2)c1)c1cc[nH+]c(Oc2ccccc2)c1 (protonated)
O=C([N-]c1cccc(S(=O)(=O)N2CCCCC2)c1)c1cc[nH+]c(Oc2ccccc2)c1 (3D coordinates assigned)
O=C([N-]c1cccc(S(=O)(=O)N2CCCCC2)c1)c1cc[nH+]c(Oc2ccccc2)c1 (nonaromatic ring conformer: 70.10206055877622 kcal/mol)

>  <smiles>  (50) 
O=C(Nc1cccc(S(=O)(=O)N2CCCCC2)c1)c1ccnc(Oc2ccccc2)c1

>  <score_type>  (50) 
oracle

>  <origin>  (50) 
adg

>  <m_score__min__energy>  (50) 
-10.33

>  <m_primary>  (50) 
energy

$$$$
50:0
     RDKit          3D

 69 73  0  0  0  0  0  0  0  0999 V2000
   56.2840   23.0380   42.6520 C   0  0  0  0  0  0  0  0  0  0  0  0
   55.9370   21.8690   43.3860 O   0  0  0  0  0  0  0  0  0  0  0  0
   56.2960   21.6350   44.7220 C   0  0  0  0  0  0  0  0  0  0  0  0
   56.5900   20.3510   45.2110 C   0  0  0  0  0  0  0  0  0  0  0  0
   56.9360   20.1670   46.5500 C   0  0  0  0  0  0  0  0  0  0  0  0
   57.0040   21.2650   47.4310 C   0  0  0  0  0  0  0  0  0  0  0  0
   57.3440   21.1020   48.7840 O   0  0  0  0  0  0  0  0  0  0  0  0
   56.8770   20.0450   49.6160 C   0  0  0  0  0  0  0  0  0  0  0  0
   56.7260   22.5570   46.9400 C   0  0  0  0  0  0  0  0  0  0  0  0
   56.7890   23.7730   47.8350 C   0  0  0  0  0  0  0  0  0  0  0  0
   56.4530   24.9540   47.1050 O   0  0  0  0  0  0  0  0  0  0  0  0
   57.3160   26.0400   46.8740 C   0  0  0  0  0  0  0  0  0  0  0  0
   58.6410   26.0590   47.3510 C   0  0  0  0  0  0  0  0  0  0  0  0
   59.4640   27.1620   47.1120 C   0  0  0  0  0  0  0  0  0  0  0  0
   58.9740   28.2630   46.3990 C   0  0  0  0  0  0  0  0  0  0  0  0
   59.8380   29.4270   46.1650 C   0  0  0  0  0  0  0  0  0  0  0  0
   60.6700   29.3910   45.2190 O   0  0  0  0  0  0  0  0  0  0  0  0
   59.7830   30.5880   47.0200 N   0  0  0  0  0  0  0  0  0  0  0  0
   59.1540   31.7880   46.4430 C   0  0  0  0  0  0  0  0  0  0  0  0
   59.3180   33.0370   47.2780 C   0  0  0  0  0  0  0  0  0  0  0  0
   59.8610   34.0460   46.7590 O   0  0  0  0  0  0  0  0  0  0  0  0
   58.9710   33.0820   48.6710 N   0  0  0  0  0  0  0  0  0  0  0  0
   58.8530   31.9740   49.5800 C   0  0  0  0  0  0  0  0  0  0  0  0
   57.9460   32.0870   50.6400 C   0  0  0  0  0  0  0  0  0  0  0  0
   57.8340   31.0740   51.5920 C   0  0  0  0  0  0  0  0  0  0  0  0
   58.6280   29.9280   51.4980 C   0  0  0  0  0  0  0  0  0  0  0  0
   58.5480   28.8780   52.5670 C   0  0  0  0  0  0  0  0  0  0  0  0
   59.5110   29.7870   50.4180 C   0  0  0  0  0  0  0  0  0  0  0  0
   59.6010   30.7820   49.4210 C   0  0  0  0  0  0  0  0  0  0  0  0
   60.5780   30.6790   48.2630 C   0  0  2  0  0  0  0  0  0  0  0  0
   61.7160   31.7060   48.2180 C   0  0  0  0  0  0  0  0  0  0  0  0
   62.5850   31.7880   47.1080 C   0  0  0  0  0  0  0  0  0  0  0  0
   63.6710   32.6680   47.1110 C   0  0  0  0  0  0  0  0  0  0  0  0
   63.9490   33.4340   48.2420 C   0  0  0  0  0  0  0  0  0  0  0  0
   63.1620   33.2950   49.3850 C   0  0  0  0  0  0  0  0  0  0  0  0
   62.0740   32.4170   49.3850 C   0  0  0  0  0  0  0  0  0  0  0  0
   57.6670   28.2420   45.9020 C   0  0  0  0  0  0  0  0  0  0  0  0
   56.8340   27.1440   46.1440 C   0  0  0  0  0  0  0  0  0  0  0  0
   55.5290   27.1660   45.6520 O   0  0  0  0  0  0  0  0  0  0  0  0
   56.3610   22.7260   45.5930 C   0  0  0  0  0  0  0  0  0  0  0  0
   56.5256   23.8519   43.3514 H   0  0  0  0  0  0  0  0  0  0  0  0
   57.1583   22.8272   42.0186 H   0  0  0  0  0  0  0  0  0  0  0  0
   55.4363   23.3384   42.0186 H   0  0  0  0  0  0  0  0  0  0  0  0
   56.5471   19.4853   44.5337 H   0  0  0  0  0  0  0  0  0  0  0  0
   57.1578   19.1557   46.9215 H   0  0  0  0  0  0  0  0  0  0  0  0
   57.0016   20.3271   50.6719 H   0  0  0  0  0  0  0  0  0  0  0  0
   55.8128   19.8586   49.4094 H   0  0  0  0  0  0  0  0  0  0  0  0
   57.4558   19.1327   49.4094 H   0  0  0  0  0  0  0  0  0  0  0  0
   56.0789   23.6474   48.6656 H   0  0  0  0  0  0  0  0  0  0  0  0
   57.8137   23.8753   48.2217 H   0  0  0  0  0  0  0  0  0  0  0  0
   59.0305   25.1992   47.9158 H   0  0  0  0  0  0  0  0  0  0  0  0
   60.4990   27.1657   47.4846 H   0  0  0  0  0  0  0  0  0  0  0  0
   59.6031   31.9718   45.4558 H   0  0  0  0  0  0  0  0  0  0  0  0
   58.0745   31.5837   46.3894 H   0  0  0  0  0  0  0  0  0  0  0  0
   57.3149   32.9841   50.7231 H   0  0  0  0  0  0  0  0  0  0  0  0
   57.1176   31.1776   52.4203 H   0  0  0  0  0  0  0  0  0  0  0  0
   58.5846   29.3581   53.5560 H   0  0  0  0  0  0  0  0  0  0  0  0
   57.6048   28.3213   52.4643 H   0  0  0  0  0  0  0  0  0  0  0  0
   59.3959   28.1848   52.4643 H   0  0  0  0  0  0  0  0  0  0  0  0
   60.1421   28.8889   50.3468 H   0  0  0  0  0  0  0  0  0  0  0  0
   61.1719   29.7646   48.4086 H   0  0  0  0  0  0  0  0  0  0  0  0
   62.4049   31.1510   46.2295 H   0  0  0  0  0  0  0  0  0  0  0  0
   64.3079   32.7563   46.2185 H   0  0  0  0  0  0  0  0  0  0  0  0
   64.7871   34.1464   48.2330 H   0  0  0  0  0  0  0  0  0  0  0  0
   63.3977   33.8772   50.2881 H   0  0  0  0  0  0  0  0  0  0  0  0
   61.4889   32.2780   50.3060 H   0  0  0  0  0  0  0  0  0  0  0  0
   57.2912   29.0943   45.3169 H   0  0  0  0  0  0  0  0  0  0  0  0
   55.1470   27.9690   45.1670 H   0  0  0  0  0  0  0  0  0  0  0  0
   56.1229   23.7326   45.2187 H   0  0  0  0  0  0  0  0  0  0  0  0
  1  2  1  0
  2  3  1  0
  3  4  2  0
  4  5  1  0
  5  6  2  0
  6  7  1  0
  7  8  1  0
  6  9  1  0
  9 10  1  0
 10 11  1  0
 11 12  1  0
 12 13  2  0
 13 14  1  0
 14 15  2  0
 15 16  1  0
 16 17  2  0
 16 18  1  0
 18 19  1  0
 19 20  1  0
 20 21  2  0
 20 22  1  0
 22 23  1  0
 23 24  2  0
 24 25  1  0
 25 26  2  0
 26 27  1  0
 26 28  1  0
 28 29  2  0
 29 30  1  0
 30 31  1  0
 31 32  2  0
 32 33  1  0
 33 34  2  0
 34 35  1  0
 35 36  2  0
 15 37  1  0
 37 38  2  0
 38 39  1  0
  9 40  2  0
 40  3  1  0
 38 12  1  0
 30 18  1  0
 36 31  1  0
 29 23  1  0
  1 41  1  0
  1 42  1  0
  1 43  1  0
  4 44  1  0
  5 45  1  0
  8 46  1  0
  8 47  1  0
  8 48  1  0
 10 49  1  0
 10 50  1  0
 13 51  1  0
 14 52  1  0
 19 53  1  0
 19 54  1  0
 24 55  1  0
 25 56  1  0
 27 57  1  0
 27 58  1  0
 27 59  1  0
 28 60  1  0
 30 61  1  1
 32 62  1  0
 33 63  1  0
 34 64  1  0
 35 65  1  0
 36 66  1  0
 37 67  1  0
 39 68  1  0
 40 69  1  0
M  CHG  1  22  -1
M  END
>  <UniqueID>  (51) 
46

>  <SMILES>  (51) 
COc1ccc(OC)c(COc2ccc(C(=O)N3CC(=O)[N-]c4ccc(C)cc4[C@@H]3c3ccccc3)cc2O)c1

>  <Energy>  (51) 
98.59235469728078

>  <Genealogy>  (51) 
COc1ccc(OC)c(COc2ccc(C(=O)N3CC(=O)[N-]c4ccc(C)cc4C3c3ccccc3)cc2O)c1 (protonated)
COc1ccc(OC)c(COc2ccc(C(=O)N3CC(=O)[N-]c4ccc(C)cc4[C@@H]3c3ccccc3)cc2O)c1 (chirality)
COc1ccc(OC)c(COc2ccc(C(=O)N3CC(=O)[N-]c4ccc(C)cc4[C@@H]3c3ccccc3)cc2O)c1 (3D coordinates assigned)
COc1ccc(OC)c(COc2ccc(C(=O)N3CC(=O)[N-]c4ccc(C)cc4[C@@H]3c3ccccc3)cc2O)c1 (nonaromatic ring conformer: 98.59235469728078 kcal/mol)

>  <smiles>  (51) 
COc1ccc(OC)c(COc2ccc(C(=O)N3CC(=O)Nc4ccc(C)cc4C3c3ccccc3)cc2O)c1

>  <score_type>  (51) 
oracle

>  <origin>  (51) 
adg

>  <m_score__min__energy>  (51) 
-10.1

>  <m_primary>  (51) 
energy

$$$$
51:0
     RDKit          3D

 62 65  0  0  0  0  0  0  0  0999 V2000
   57.7100   33.0290   46.1640 C   0  0  0  0  0  0  0  0  0  0  0  0
   58.0290   32.2830   44.8710 C   0  0  0  0  0  0  0  0  0  0  0  0
   56.9630   31.2260   44.5640 C   0  0  0  0  0  0  0  0  0  0  0  0
   57.3110   29.9160   45.2240 C   0  0  0  0  0  0  0  0  0  0  0  0
   58.5470   29.7700   45.8750 C   0  0  0  0  0  0  0  0  0  0  0  0
   58.8830   28.5710   46.5130 C   0  0  0  0  0  0  0  0  0  0  0  0
   60.1240   28.4800   47.1590 O   0  0  0  0  0  0  0  0  0  0  0  0
   60.8990   29.5630   47.6010 C   0  0  0  0  0  0  0  0  0  0  0  0
   61.4900   30.4540   46.6870 C   0  0  0  0  0  0  0  0  0  0  0  0
   62.2640   31.5240   47.1370 C   0  0  0  0  0  0  0  0  0  0  0  0
   62.4640   31.7240   48.5080 C   0  0  0  0  0  0  0  0  0  0  0  0
   63.2630   32.9000   48.9960 C   0  0  0  0  0  0  0  0  0  0  0  0
   62.2260   34.0310   49.9100 S   0  0  0  0  0  0  0  0  0  0  0  0
   60.7170   34.3580   49.0200 C   0  0  0  0  0  0  0  0  0  0  0  0
   62.9600   35.3230   50.1370 O   0  0  0  0  0  0  0  0  0  0  0  0
   61.8860   33.4180   51.2400 O   0  0  0  0  0  0  0  0  0  0  0  0
   61.8580   30.8540   49.4270 C   0  0  0  0  0  0  0  0  0  0  0  0
   61.0560   29.7870   48.9860 C   0  0  0  0  0  0  0  0  0  0  0  0
   60.4130   28.9020   49.9860 C   0  0  0  0  0  0  0  0  0  0  0  0
   60.7220   27.6790   50.0130 O   0  0  0  0  0  0  0  0  0  0  0  0
   59.4620   29.4130   50.9400 N   0  0  0  0  0  0  0  0  0  0  0  0
   58.1460   29.8850   50.5050 C   0  0  0  0  0  0  0  0  0  0  0  0
   58.1620   31.4140   50.4400 C   0  0  0  0  0  0  0  0  0  0  0  0
   58.8040   32.0310   51.6630 C   0  0  0  0  0  0  0  0  0  0  0  0
   58.6050   33.3970   51.9190 C   0  0  0  0  0  0  0  0  0  0  0  0
   59.2330   34.0130   53.0050 C   0  0  0  0  0  0  0  0  0  0  0  0
   60.0710   33.2750   53.8400 C   0  0  0  0  0  0  0  0  0  0  0  0
   60.2920   31.9190   53.5900 C   0  0  0  0  0  0  0  0  0  0  0  0
   59.6780   31.2890   52.4970 C   0  0  0  0  0  0  0  0  0  0  0  0
   59.8900   29.8090   52.2850 C   0  0  0  0  0  0  0  0  0  0  0  0
   57.9540   27.5180   46.5380 C   0  0  0  0  0  0  0  0  0  0  0  0
   56.7160   27.6600   45.9070 C   0  0  0  0  0  0  0  0  0  0  0  0
   56.3890   28.8520   45.2540 C   0  0  0  0  0  0  0  0  0  0  0  0
   55.1440   28.9740   44.6450 O   0  0  0  0  0  0  0  0  0  0  0  0
   57.9788   32.4005   47.0258 H   0  0  0  0  0  0  0  0  0  0  0  0
   58.2865   33.9652   46.1990 H   0  0  0  0  0  0  0  0  0  0  0  0
   56.6349   33.2589   46.1990 H   0  0  0  0  0  0  0  0  0  0  0  0
   58.0689   33.0040   44.0412 H   0  0  0  0  0  0  0  0  0  0  0  0
   58.9978   31.7761   44.9911 H   0  0  0  0  0  0  0  0  0  0  0  0
   55.9898   31.5736   44.9408 H   0  0  0  0  0  0  0  0  0  0  0  0
   56.9166   31.0740   43.4755 H   0  0  0  0  0  0  0  0  0  0  0  0
   59.2592   30.6082   45.8833 H   0  0  0  0  0  0  0  0  0  0  0  0
   61.3405   30.3058   45.6073 H   0  0  0  0  0  0  0  0  0  0  0  0
   62.7192   32.2137   46.4110 H   0  0  0  0  0  0  0  0  0  0  0  0
   64.0709   32.5412   49.6507 H   0  0  0  0  0  0  0  0  0  0  0  0
   63.6826   33.4280   48.1270 H   0  0  0  0  0  0  0  0  0  0  0  0
   59.9004   34.5350   49.7354 H   0  0  0  0  0  0  0  0  0  0  0  0
   60.8498   35.2482   48.3876 H   0  0  0  0  0  0  0  0  0  0  0  0
   60.4694   33.4927   48.3876 H   0  0  0  0  0  0  0  0  0  0  0  0
   62.0123   31.0087   50.5051 H   0  0  0  0  0  0  0  0  0  0  0  0
   57.9178   29.4758   49.5098 H   0  0  0  0  0  0  0  0  0  0  0  0
   57.3771   29.5512   51.2173 H   0  0  0  0  0  0  0  0  0  0  0  0
   58.7266   31.7248   49.5486 H   0  0  0  0  0  0  0  0  0  0  0  0
   57.1192   31.7611   50.3944 H   0  0  0  0  0  0  0  0  0  0  0  0
   57.9503   33.9865   51.2603 H   0  0  0  0  0  0  0  0  0  0  0  0
   59.0658   35.0823   53.2014 H   0  0  0  0  0  0  0  0  0  0  0  0
   60.5589   33.7618   54.6973 H   0  0  0  0  0  0  0  0  0  0  0  0
   60.9516   31.3412   54.2541 H   0  0  0  0  0  0  0  0  0  0  0  0
   60.9580   29.5757   52.4077 H   0  0  0  0  0  0  0  0  0  0  0  0
   59.2919   29.2560   53.0242 H   0  0  0  0  0  0  0  0  0  0  0  0
   58.2018   26.5795   47.0556 H   0  0  0  0  0  0  0  0  0  0  0  0
   55.9947   26.8297   45.9240 H   0  0  0  0  0  0  0  0  0  0  0  0
  1  2  1  0
  2  3  1  0
  3  4  1  0
  4  5  2  0
  5  6  1  0
  6  7  1  0
  7  8  1  0
  8  9  2  0
  9 10  1  0
 10 11  2  0
 11 12  1  0
 12 13  1  0
 13 14  1  0
 13 15  2  0
 13 16  2  0
 11 17  1  0
 17 18  2  0
 18 19  1  0
 19 20  2  0
 19 21  1  0
 21 22  1  0
 22 23  1  0
 23 24  1  0
 24 25  2  0
 25 26  1  0
 26 27  2  0
 27 28  1  0
 28 29  2  0
 29 30  1  0
  6 31  2  0
 31 32  1  0
 32 33  2  0
 33 34  1  0
 33  4  1  0
 18  8  1  0
 30 21  1  0
 29 24  1  0
  1 35  1  0
  1 36  1  0
  1 37  1  0
  2 38  1  0
  2 39  1  0
  3 40  1  0
  3 41  1  0
  5 42  1  0
  9 43  1  0
 10 44  1  0
 12 45  1  0
 12 46  1  0
 14 47  1  0
 14 48  1  0
 14 49  1  0
 17 50  1  0
 22 51  1  0
 22 52  1  0
 23 53  1  0
 23 54  1  0
 25 55  1  0
 26 56  1  0
 27 57  1  0
 28 58  1  0
 30 59  1  0
 30 60  1  0
 31 61  1  0
 32 62  1  0
M  CHG  1  34  -1
M  END
>  <UniqueID>  (52) 
47

>  <SMILES>  (52) 
CCCc1cc(Oc2ccc(CS(C)(=O)=O)cc2C(=O)N2CCc3ccccc3C2)ccc1[O-]

>  <Energy>  (52) 
66.04240191617934

>  <Genealogy>  (52) 
CCCc1cc(Oc2ccc(CS(C)(=O)=O)cc2C(=O)N2CCc3ccccc3C2)ccc1[O-] (protonated)
CCCc1cc(Oc2ccc(CS(C)(=O)=O)cc2C(=O)N2CCc3ccccc3C2)ccc1[O-] (3D coordinates assigned)
CCCc1cc(Oc2ccc(CS(C)(=O)=O)cc2C(=O)N2CCc3ccccc3C2)ccc1[O-] (nonaromatic ring conformer: 66.04240191617934 kcal/mol)

>  <smiles>  (52) 
CCCc1cc(Oc2ccc(CS(C)(=O)=O)cc2C(=O)N2CCc3ccccc3C2)ccc1O

>  <score_type>  (52) 
oracle

>  <origin>  (52) 
adg

>  <m_score__min__energy>  (52) 
-12.050000000000001

>  <m_primary>  (52) 
energy

$$$$
52:0
     RDKit          3D

 36 38  0  0  0  0  0  0  0  0999 V2000
   58.4800   26.6680   43.8810 O   0  0  0  0  0  0  0  0  0  0  0  0
   58.1700   26.5240   45.0940 C   0  0  0  0  0  0  0  0  0  0  0  0
   58.9060   27.2530   46.1560 C   0  0  0  0  0  0  0  0  0  0  0  0
   59.2880   28.5390   46.0980 C   0  0  0  0  0  0  0  0  0  0  0  0
   58.4330   29.6690   45.6820 C   0  0  0  0  0  0  0  0  0  0  0  0
   57.5700   29.5150   44.5900 C   0  0  0  0  0  0  0  0  0  0  0  0
   56.8000   30.6000   44.1630 C   0  0  0  0  0  0  0  0  0  0  0  0
   56.9050   31.8010   44.7910 N   0  0  0  0  0  0  0  0  0  0  0  0
   57.7540   31.9870   45.8350 C   0  0  0  0  0  0  0  0  0  0  0  0
   58.5430   30.9290   46.2940 C   0  0  0  0  0  0  0  0  0  0  0  0
   57.0700   25.5960   45.4420 C   0  0  0  0  0  0  0  0  0  0  0  0
   55.7840   26.0940   45.6890 C   0  0  0  0  0  0  0  0  0  0  0  0
   55.5250   27.4590   45.6270 O   0  0  0  0  0  0  0  0  0  0  0  0
   54.7780   25.2430   46.0080 N   0  0  0  0  0  0  0  0  0  0  0  0
   54.9800   23.9050   46.0910 C   0  0  0  0  0  0  0  0  0  0  0  0
   54.0140   23.1590   46.4100 O   0  0  0  0  0  0  0  0  0  0  0  0
   56.2190   23.3770   45.8380 N   0  0  0  0  0  0  0  0  0  0  0  0
   56.4260   21.9530   45.9210 C   0  0  0  0  0  0  0  0  0  0  0  0
   56.0440   21.1250   44.8530 C   0  0  0  0  0  0  0  0  0  0  0  0
   56.2430   19.7440   44.9250 C   0  0  0  0  0  0  0  0  0  0  0  0
   56.8210   19.1790   46.0650 C   0  0  0  0  0  0  0  0  0  0  0  0
   57.2010   19.9940   47.1350 C   0  0  0  0  0  0  0  0  0  0  0  0
   57.0020   21.3780   47.0690 C   0  0  0  0  0  0  0  0  0  0  0  0
   57.3710   22.1770   48.1460 O   0  0  0  0  0  0  0  0  0  0  0  0
   57.2620   24.2030   45.5070 C   0  0  0  0  0  0  0  0  0  0  0  0
   58.3920   23.7110   45.2290 O   0  0  0  0  0  0  0  0  0  0  0  0
   59.1602   26.6928   47.0679 H   0  0  0  0  0  0  0  0  0  0  0  0
   60.3246   28.7702   46.3843 H   0  0  0  0  0  0  0  0  0  0  0  0
   57.4988   28.5471   44.0722 H   0  0  0  0  0  0  0  0  0  0  0  0
   56.1073   30.4820   43.3167 H   0  0  0  0  0  0  0  0  0  0  0  0
   57.8205   32.9721   46.3199 H   0  0  0  0  0  0  0  0  0  0  0  0
   59.2444   31.0813   47.1276 H   0  0  0  0  0  0  0  0  0  0  0  0
   55.5859   21.5659   43.9554 H   0  0  0  0  0  0  0  0  0  0  0  0
   55.9445   19.1010   44.0839 H   0  0  0  0  0  0  0  0  0  0  0  0
   56.9771   18.0915   46.1203 H   0  0  0  0  0  0  0  0  0  0  0  0
   57.6573   19.5470   48.0306 H   0  0  0  0  0  0  0  0  0  0  0  0
  1  2  2  0
  2  3  1  0
  3  4  2  3
  4  5  1  0
  5  6  2  0
  6  7  1  0
  7  8  2  0
  8  9  1  0
  9 10  2  0
  2 11  1  0
 11 12  2  0
 12 13  1  0
 12 14  1  0
 14 15  1  0
 15 16  2  0
 15 17  1  0
 17 18  1  0
 18 19  2  0
 19 20  1  0
 20 21  2  0
 21 22  1  0
 22 23  2  0
 23 24  1  0
 17 25  1  0
 25 26  2  0
 10  5  1  0
 25 11  1  0
 23 18  1  0
  3 27  1  0
  4 28  1  0
  6 29  1  0
  7 30  1  0
  9 31  1  0
 10 32  1  0
 19 33  1  0
 20 34  1  0
 21 35  1  0
 22 36  1  0
M  CHG  3  13  -1  14  -1  24  -1
M  END
>  <UniqueID>  (53) 
48

>  <SMILES>  (53) 
O=C(C=Cc1ccncc1)c1c([O-])[n-]c(=O)n(-c2ccccc2[O-])c1=O

>  <Energy>  (53) 
66.32584898831578

>  <Genealogy>  (53) 
O=C(C=Cc1ccncc1)c1c([O-])[n-]c(=O)n(-c2ccccc2[O-])c1=O (protonated)
O=C(C=Cc1ccncc1)c1c([O-])[n-]c(=O)n(-c2ccccc2[O-])c1=O (3D coordinates assigned)
O=C(C=Cc1ccncc1)c1c([O-])[n-]c(=O)n(-c2ccccc2[O-])c1=O (optimized conformer: 66.32584898831578 kcal/mol)

>  <smiles>  (53) 
O=C(C=Cc1ccncc1)c1c(O)[nH]c(=O)n(-c2ccccc2O)c1=O

>  <score_type>  (53) 
oracle

>  <origin>  (53) 
adg

>  <m_score__min__energy>  (53) 
-14.27

>  <m_primary>  (53) 
energy

$$$$
53:0
     RDKit          3D

 33 35  0  0  0  0  0  0  0  0999 V2000
   54.6010   26.2681   45.6976 H   0  0  0  0  0  0  0  0  0  0  0  0
   55.5900   25.9050   46.0140 C   0  0  0  0  0  0  0  0  0  0  0  0
   55.7520   24.6400   46.2630 N   0  0  0  0  0  0  0  0  0  0  0  0
   56.4910   23.7050   45.4590 C   0  0  0  0  0  0  0  0  0  0  0  0
   55.8450   23.0930   44.3820 C   0  0  0  0  0  0  0  0  0  0  0  0
   54.5530   23.3910   44.0890 F   0  0  0  0  0  0  0  0  0  0  0  0
   56.5550   22.1770   43.6040 C   0  0  0  0  0  0  0  0  0  0  0  0
   56.0050   21.6180   42.6190 O   0  0  0  0  0  0  0  0  0  0  0  0
   57.8450   21.8890   43.9100 N   0  0  0  0  0  0  0  0  0  0  0  0
   58.4600   22.4750   44.9700 C   0  0  0  0  0  0  0  0  0  0  0  0
   59.6540   22.1800   45.2380 O   0  0  0  0  0  0  0  0  0  0  0  0
   57.7870   23.3720   45.7430 N   0  0  0  0  0  0  0  0  0  0  0  0
   58.2770   23.7750   46.5710 H   0  0  0  0  0  0  0  0  0  0  0  0
   56.7110   26.8730   46.1470 C   0  0  0  0  0  0  0  0  0  0  0  0
   56.6610   28.1770   45.6050 C   0  0  0  0  0  0  0  0  0  0  0  0
   55.5200   28.6120   44.9320 O   0  0  0  0  0  0  0  0  0  0  0  0
   57.7240   29.0290   45.7500 N   0  0  0  0  0  0  0  0  0  0  0  0
   57.6610   30.3550   45.1870 C   0  0  0  0  0  0  0  0  0  0  0  0
   57.7870   31.4820   46.0150 C   0  0  0  0  0  0  0  0  0  0  0  0
   57.9333   31.3535   47.0976 H   0  0  0  0  0  0  0  0  0  0  0  0
   57.7270   32.7680   45.4670 C   0  0  0  0  0  0  0  0  0  0  0  0
   57.8263   33.6484   46.1190 H   0  0  0  0  0  0  0  0  0  0  0  0
   57.5410   32.9350   44.0920 C   0  0  0  0  0  0  0  0  0  0  0  0
   57.4937   33.9467   43.6628 H   0  0  0  0  0  0  0  0  0  0  0  0
   57.4150   31.8180   43.2620 C   0  0  0  0  0  0  0  0  0  0  0  0
   57.2693   31.9511   42.1798 H   0  0  0  0  0  0  0  0  0  0  0  0
   57.4740   30.5310   43.8060 C   0  0  0  0  0  0  0  0  0  0  0  0
   57.3736   29.6536   43.1502 H   0  0  0  0  0  0  0  0  0  0  0  0
   58.8400   28.6240   46.4310 C   0  0  0  0  0  0  0  0  0  0  0  0
   59.8300   29.3950   46.5640 O   0  0  0  0  0  0  0  0  0  0  0  0
   58.9010   27.3800   46.9620 N   0  0  0  0  0  0  0  0  0  0  0  0
   57.8760   26.5020   46.8400 C   0  0  0  0  0  0  0  0  0  0  0  0
   57.9870   25.3570   47.3540 O   0  0  0  0  0  0  0  0  0  0  0  0
  1  2  1  0
  2  3  2  0
  3  4  1  0
  4  5  2  0
  5  6  1  0
  5  7  1  0
  7  8  2  0
  7  9  1  0
  9 10  1  0
 10 11  2  0
 10 12  1  0
 12 13  1  0
  2 14  1  0
 14 15  2  0
 15 16  1  0
 15 17  1  0
 17 18  1  0
 18 19  2  0
 19 20  1  0
 19 21  1  0
 21 22  1  0
 21 23  2  0
 23 24  1  0
 23 25  1  0
 25 26  1  0
 25 27  2  0
 27 28  1  0
 17 29  1  0
 29 30  2  0
 29 31  1  0
 31 32  1  0
 32 33  2  0
 12  4  1  0
 32 14  1  0
 27 18  1  0
M  CHG  3   9  -1  16  -1  31  -1
M  END
>  <UniqueID>  (54) 
49

>  <SMILES>  (54) 
O=c1[n-]c(=O)c(F)c(/N=C/c2c([O-])n(-c3ccccc3)c(=O)[n-]c2=O)[nH]1

>  <Energy>  (54) 
53.32312684135747

>  <Genealogy>  (54) 
O=c1[n-]c(=O)c(F)c(N=Cc2c([O-])n(-c3ccccc3)c(=O)[n-]c2=O)[nH]1 (protonated)
O=c1[n-]c(=O)c(F)c(/N=C/c2c([O-])n(-c3ccccc3)c(=O)[n-]c2=O)[nH]1 (cis-trans isomerization)
O=c1[n-]c(=O)c(F)c(/N=C/c2c([O-])n(-c3ccccc3)c(=O)[n-]c2=O)[nH]1 (3D coordinates assigned)
O=c1[n-]c(=O)c(F)c(/N=C/c2c([O-])n(-c3ccccc3)c(=O)[n-]c2=O)[nH]1 (optimized conformer: 53.32312684135747 kcal/mol)

>  <smiles>  (54) 
O=c1[nH]c(N=Cc2c(O)n(-c3ccccc3)c(=O)[nH]c2=O)c(F)c(=O)[nH]1

>  <score_type>  (54) 
oracle

>  <origin>  (54) 
adg

>  <m_score__min__energy>  (54) 
-13.130000000000001

>  <m_primary>  (54) 
energy

$$$$
54:0
     RDKit          3D

 60 64  0  0  0  0  0  0  0  0999 V2000
   55.1400   31.5810   51.9980 C   0  0  0  0  0  0  0  0  0  0  0  0
   54.8160   30.4020   52.5570 C   0  0  0  0  0  0  0  0  0  0  0  0
   53.5210   29.9350   52.8260 C   0  0  0  0  0  0  0  0  0  0  0  0
   52.3610   30.5870   52.5910 C   0  0  0  0  0  0  0  0  0  0  0  0
   51.8090   30.9160   51.2580 C   0  0  0  0  0  0  0  0  0  0  0  0
   51.7850   30.1030   50.1860 N   0  0  0  0  0  0  0  0  0  0  0  0
   51.1670   30.8420   49.2410 C   0  0  0  0  0  0  0  0  0  0  0  0
   50.9600   30.4150   48.0740 O   0  0  0  0  0  0  0  0  0  0  0  0
   50.7860   32.0720   49.6430 N   0  0  0  0  0  0  0  0  0  0  0  0
   51.1960   32.1010   50.9220 C   0  0  0  0  0  0  0  0  0  0  0  0
   51.0190   33.1910   51.7640 O   0  0  0  0  0  0  0  0  0  0  0  0
   53.6780   28.6590   53.3570 C   0  0  0  0  0  0  0  0  0  0  0  0
   55.0340   28.4100   53.4040 C   0  0  0  0  0  0  0  0  0  0  0  0
   55.6510   27.1410   53.9110 C   0  0  0  0  0  0  0  0  0  0  0  0
   55.7260   29.4620   52.9140 N   0  0  0  0  0  0  0  0  0  0  0  0
   57.1590   29.5530   52.8180 C   0  0  0  0  0  0  0  0  0  0  0  0
   57.9480   29.4580   53.9710 C   0  0  0  0  0  0  0  0  0  0  0  0
   59.3360   29.5560   53.8790 C   0  0  0  0  0  0  0  0  0  0  0  0
   59.9450   29.7460   52.6380 C   0  0  0  0  0  0  0  0  0  0  0  0
   59.1750   29.8420   51.4610 C   0  0  0  0  0  0  0  0  0  0  0  0
   59.8600   30.0310   50.1460 C   0  0  0  0  0  0  0  0  0  0  0  0
   60.3640   31.1640   49.8930 O   0  0  0  0  0  0  0  0  0  0  0  0
   60.0050   28.9460   49.1840 N   0  0  0  0  0  0  0  0  0  0  0  0
   58.7280   28.5800   48.5160 C   0  0  0  0  0  0  0  0  0  0  0  0
   58.4500   29.3980   47.2340 C   0  0  0  0  0  0  0  0  0  0  0  0
   59.1920   30.6700   47.2630 N   0  0  0  0  0  0  0  0  0  0  0  0
   58.7870   31.5400   46.1420 C   0  0  0  0  0  0  0  0  0  0  0  0
   59.1410   32.9700   46.4340 C   0  0  0  0  0  0  0  0  0  0  0  0
   59.2570   33.4860   47.7350 C   0  0  0  0  0  0  0  0  0  0  0  0
   59.5330   34.8450   47.7690 C   0  0  0  0  0  0  0  0  0  0  0  0
   59.6250   35.3990   46.1840 S   0  0  0  0  0  0  0  0  0  0  0  0
   59.3180   33.9250   45.4380 C   0  0  0  0  0  0  0  0  0  0  0  0
   60.6510   30.4200   47.2530 C   0  0  0  0  0  0  0  0  0  0  0  0
   61.0520   29.2550   48.1860 C   0  0  0  0  0  0  0  0  0  0  0  0
   57.7710   29.7490   51.5710 C   0  0  0  0  0  0  0  0  0  0  0  0
   56.1964   31.8405   51.8348 H   0  0  0  0  0  0  0  0  0  0  0  0
   54.3487   32.2862   51.7038 H   0  0  0  0  0  0  0  0  0  0  0  0
   51.7755   30.9008   53.4677 H   0  0  0  0  0  0  0  0  0  0  0  0
   52.8751   27.9790   53.6778 H   0  0  0  0  0  0  0  0  0  0  0  0
   55.6485   27.1461   55.0110 H   0  0  0  0  0  0  0  0  0  0  0  0
   55.0708   26.2802   53.5470 H   0  0  0  0  0  0  0  0  0  0  0  0
   56.6863   27.0657   53.5470 H   0  0  0  0  0  0  0  0  0  0  0  0
   57.4721   29.3058   54.9510 H   0  0  0  0  0  0  0  0  0  0  0  0
   59.9524   29.4833   54.7872 H   0  0  0  0  0  0  0  0  0  0  0  0
   61.0407   29.8219   52.5773 H   0  0  0  0  0  0  0  0  0  0  0  0
   60.2990   28.0900   49.7100 H   0  0  0  0  0  0  0  0  0  0  0  0
   58.7677   27.5139   48.2478 H   0  0  0  0  0  0  0  0  0  0  0  0
   57.9159   28.8002   49.2245 H   0  0  0  0  0  0  0  0  0  0  0  0
   58.7659   28.8145   46.3566 H   0  0  0  0  0  0  0  0  0  0  0  0
   57.3732   29.6154   47.1770 H   0  0  0  0  0  0  0  0  0  0  0  0
   59.3062   31.2177   45.2273 H   0  0  0  0  0  0  0  0  0  0  0  0
   57.6982   31.4628   46.0061 H   0  0  0  0  0  0  0  0  0  0  0  0
   59.1402   32.8716   48.6399 H   0  0  0  0  0  0  0  0  0  0  0  0
   59.6681   35.4541   48.6749 H   0  0  0  0  0  0  0  0  0  0  0  0
   59.2661   33.7467   44.3538 H   0  0  0  0  0  0  0  0  0  0  0  0
   60.9609   30.1741   46.2266 H   0  0  0  0  0  0  0  0  0  0  0  0
   61.1512   31.3299   47.6161 H   0  0  0  0  0  0  0  0  0  0  0  0
   61.2326   28.3587   47.5744 H   0  0  0  0  0  0  0  0  0  0  0  0
   61.9569   29.5591   48.7324 H   0  0  0  0  0  0  0  0  0  0  0  0
   57.1488   29.8312   50.6676 H   0  0  0  0  0  0  0  0  0  0  0  0
  1  2  2  0
  2  3  1  0
  3  4  2  3
  4  5  1  0
  5  6  1  0
  6  7  1  0
  7  8  2  0
  7  9  1  0
  9 10  1  0
 10 11  1  0
  3 12  1  0
 12 13  2  0
 13 14  1  0
 13 15  1  0
 15 16  1  0
 16 17  2  0
 17 18  1  0
 18 19  2  0
 19 20  1  0
 20 21  1  0
 21 22  2  0
 21 23  1  0
 23 24  1  0
 24 25  1  0
 25 26  1  0
 26 27  1  0
 27 28  1  0
 28 29  1  0
 29 30  2  0
 30 31  1  0
 31 32  1  0
 26 33  1  0
 33 34  1  0
 20 35  2  0
 15  2  1  0
 35 16  1  0
 10  5  2  0
 34 23  1  0
 32 28  2  0
  1 36  1  0
  1 37  1  0
  4 38  1  0
 12 39  1  0
 14 40  1  0
 14 41  1  0
 14 42  1  0
 17 43  1  0
 18 44  1  0
 19 45  1  0
 23 46  1  0
 24 47  1  0
 24 48  1  0
 25 49  1  0
 25 50  1  0
 27 51  1  0
 27 52  1  0
 29 53  1  0
 30 54  1  0
 32 55  1  0
 33 56  1  0
 33 57  1  0
 34 58  1  0
 34 59  1  0
 35 60  1  0
M  CHG  4   6  -1   9  -1  11  -1  23   1
M  END
>  <UniqueID>  (55) 
50

>  <SMILES>  (55) 
C=c1c(=Cc2[n-]c(=O)[n-]c2[O-])cc(C)n1-c1cccc(C(=O)[NH+]2CCN(Cc3ccsc3)CC2)c1

>  <Energy>  (55) 
173.9126412245092

>  <Genealogy>  (55) 
C=c1c(=Cc2[n-]c(=O)[n-]c2[O-])cc(C)n1-c1cccc(C(=O)[NH+]2CCN(Cc3ccsc3)CC2)c1 (protonated)
C=c1c(=Cc2[n-]c(=O)[n-]c2[O-])cc(C)n1-c1cccc(C(=O)[NH+]2CCN(Cc3ccsc3)CC2)c1 (3D coordinates assigned)
C=c1c(=Cc2[n-]c(=O)[n-]c2[O-])cc(C)n1-c1cccc(C(=O)[NH+]2CCN(Cc3ccsc3)CC2)c1 (nonaromatic ring conformer: 173.9126412245092 kcal/mol)

>  <smiles>  (55) 
C=c1c(=Cc2[nH]c(=O)[nH]c2O)cc(C)n1-c1cccc(C(=O)N2CCN(Cc3ccsc3)CC2)c1

>  <score_type>  (55) 
oracle

>  <origin>  (55) 
adg

>  <m_score__min__energy>  (55) 
-17.120000000000001

>  <m_primary>  (55) 
energy

$$$$
55:0
     RDKit          3D

 32 34  0  0  0  0  0  0  0  0999 V2000
   54.3910   26.6200   46.7430 H   0  0  0  0  0  0  0  0  0  0  0  0
   54.2780   26.0130   45.9410 O   0  0  0  0  0  0  0  0  0  0  0  0
   55.2720   25.1260   45.5210 C   0  0  0  0  0  0  0  0  0  0  0  0
   54.9250   24.1120   44.6200 C   0  0  0  0  0  0  0  0  0  0  0  0
   53.8843   24.0186   44.2762 H   0  0  0  0  0  0  0  0  0  0  0  0
   55.8930   23.2180   44.1550 C   0  0  0  0  0  0  0  0  0  0  0  0
   55.5400   22.2140   43.2610 O   0  0  0  0  0  0  0  0  0  0  0  0
   57.2170   23.3350   44.5850 C   0  0  0  0  0  0  0  0  0  0  0  0
   57.9791   22.6336   44.2146 H   0  0  0  0  0  0  0  0  0  0  0  0
   57.5740   24.3420   45.4850 C   0  0  0  0  0  0  0  0  0  0  0  0
   58.6201   24.4380   45.8112 H   0  0  0  0  0  0  0  0  0  0  0  0
   56.6070   25.2310   45.9750 C   0  0  0  0  0  0  0  0  0  0  0  0
   57.0280   26.2910   46.9120 C   0  0  0  0  0  0  0  0  0  0  0  0
   56.9551   26.0669   47.9865 H   0  0  0  0  0  0  0  0  0  0  0  0
   57.4950   27.5120   46.5690 C   0  0  0  0  0  0  0  0  0  0  0  0
   56.8610   28.1470   45.5530 N   0  0  0  0  0  0  0  0  0  0  0  0
   57.2100   29.3770   45.1080 C   0  0  0  0  0  0  0  0  0  0  0  0
   56.4830   29.9430   44.0550 C   0  0  0  0  0  0  0  0  0  0  0  0
   55.6490   29.3853   43.6039 H   0  0  0  0  0  0  0  0  0  0  0  0
   56.8100   31.2090   43.5750 C   0  0  0  0  0  0  0  0  0  0  0  0
   56.2359   31.6477   42.7456 H   0  0  0  0  0  0  0  0  0  0  0  0
   57.8640   31.9200   44.1450 C   0  0  0  0  0  0  0  0  0  0  0  0
   58.1840   33.1830   43.6630 O   0  0  0  0  0  0  0  0  0  0  0  0
   58.6000   31.3660   45.1980 C   0  0  0  0  0  0  0  0  0  0  0  0
   59.4303   31.9368   45.6394 H   0  0  0  0  0  0  0  0  0  0  0  0
   58.2890   30.0770   45.7040 C   0  0  0  0  0  0  0  0  0  0  0  0
   59.0000   29.4480   46.7720 C   0  0  0  0  0  0  0  0  0  0  0  0
   60.0450   30.0400   47.3920 C   0  0  0  0  0  0  0  0  0  0  0  0
   60.3716   31.0436   47.0821 H   0  0  0  0  0  0  0  0  0  0  0  0
   60.5688   29.5182   48.2064 H   0  0  0  0  0  0  0  0  0  0  0  0
   58.5980   28.1500   47.1920 C   0  0  0  0  0  0  0  0  0  0  0  0
   59.2390   27.5650   48.1100 O   0  0  0  0  0  0  0  0  0  0  0  0
  1  2  1  0
  2  3  1  0
  3  4  2  0
  4  5  1  0
  4  6  1  0
  6  7  1  0
  6  8  2  0
  8  9  1  0
  8 10  1  0
 10 11  1  0
 10 12  2  0
 12 13  1  0
 13 14  1  0
 13 15  2  0
 15 16  1  0
 16 17  1  0
 17 18  2  0
 18 19  1  0
 18 20  1  0
 20 21  1  0
 20 22  2  0
 22 23  1  0
 22 24  1  0
 24 25  1  0
 24 26  2  0
 26 27  1  0
 27 28  2  0
 28 29  1  0
 28 30  1  0
 27 31  1  0
 31 32  2  0
 12  3  1  0
 31 15  1  0
 26 17  1  0
M  CHG  3   7  -1  16  -1  23  -1
M  END
>  <UniqueID>  (56) 
51

>  <SMILES>  (56) 
C=c1c(=O)/c(=C\c2ccc([O-])cc2O)[n-]c2ccc([O-])cc12

>  <Energy>  (56) 
60.23348367704015

>  <Genealogy>  (56) 
C=c1c(=O)c(=Cc2ccc([O-])cc2O)[n-]c2ccc([O-])cc12 (protonated)
C=c1c(=O)/c(=C\c2ccc([O-])cc2O)[n-]c2ccc([O-])cc12 (cis-trans isomerization)
C=c1c(=O)/c(=C\c2ccc([O-])cc2O)[n-]c2ccc([O-])cc12 (3D coordinates assigned)
C=c1c(=O)/c(=C\c2ccc([O-])cc2O)[n-]c2ccc([O-])cc12 (optimized conformer: 60.23348367704015 kcal/mol)

>  <smiles>  (56) 
C=c1c(=O)c(=Cc2ccc(O)cc2O)[nH]c2ccc(O)cc12

>  <score_type>  (56) 
oracle

>  <origin>  (56) 
adg

>  <m_score__min__energy>  (56) 
-12.56

>  <m_primary>  (56) 
energy

$$$$
56:0
     RDKit          3D

 50 52  0  0  0  0  0  0  0  0999 V2000
   55.9800   23.9430   45.9130 C   0  0  0  0  0  0  0  0  0  0  0  0
   56.4060   25.6670   46.0650 S   0  0  0  0  0  0  0  0  0  0  0  0
   55.1660   26.5120   45.9990 O   0  0  0  0  0  0  0  0  0  0  0  0
   57.0660   25.8700   47.3980 O   0  0  0  0  0  0  0  0  0  0  0  0
   57.5210   26.1370   44.8190 N   0  0  0  0  0  0  0  0  0  0  0  0
   58.4390   27.2350   44.9020 C   0  0  0  0  0  0  0  0  0  0  0  0
   58.8670   27.7490   43.8340 O   0  0  0  0  0  0  0  0  0  0  0  0
   58.8980   27.7820   46.1930 C   0  0  0  0  0  0  0  0  0  0  0  0
   58.2670   28.8970   46.7640 C   0  0  0  0  0  0  0  0  0  0  0  0
   58.7090   29.4130   47.9850 C   0  0  0  0  0  0  0  0  0  0  0  0
   59.7840   28.8130   48.6590 C   0  0  0  0  0  0  0  0  0  0  0  0
   60.2430   29.3620   49.9790 C   0  0  0  0  0  0  0  0  0  0  0  0
   61.5450   30.0030   49.8110 N   0  0  0  0  0  0  0  0  0  0  0  0
   61.7980   31.0580   49.0890 C   0  0  0  0  0  0  0  0  0  0  0  0
   60.8130   31.6860   48.2990 C   0  0  0  0  0  0  0  0  0  0  0  0
   61.1420   32.8300   47.5580 C   0  0  0  0  0  0  0  0  0  0  0  0
   60.0910   33.5310   46.7440 C   0  0  0  0  0  0  0  0  0  0  0  0
   59.4380   32.5770   45.8490 N   0  0  0  0  0  0  0  0  0  0  0  0
   58.0150   32.5520   45.6480 C   0  0  0  0  0  0  0  0  0  0  0  0
   57.2640   33.2430   46.3910 O   0  0  0  0  0  0  0  0  0  0  0  0
   57.4200   31.7190   44.5780 C   0  0  0  0  0  0  0  0  0  0  0  0
   57.6530   32.0100   43.2220 C   0  0  0  0  0  0  0  0  0  0  0  0
   57.0810   31.1990   42.2370 C   0  0  0  0  0  0  0  0  0  0  0  0
   56.2870   30.1120   42.6060 C   0  0  0  0  0  0  0  0  0  0  0  0
   56.0750   29.8500   43.9610 C   0  0  0  0  0  0  0  0  0  0  0  0
   56.6400   30.6490   44.9050 N   0  0  0  0  0  0  0  0  0  0  0  0
   62.4480   33.3360   47.6220 C   0  0  0  0  0  0  0  0  0  0  0  0
   63.3990   32.6820   48.4040 C   0  0  0  0  0  0  0  0  0  0  0  0
   63.0570   31.5740   49.1110 N   0  0  0  0  0  0  0  0  0  0  0  0
   60.3890   27.6710   48.1110 C   0  0  0  0  0  0  0  0  0  0  0  0
   59.9470   27.1580   46.8870 C   0  0  0  0  0  0  0  0  0  0  0  0
   55.8711   23.5025   46.9150 H   0  0  0  0  0  0  0  0  0  0  0  0
   55.0310   23.8467   45.3651 H   0  0  0  0  0  0  0  0  0  0  0  0
   56.7749   23.4158   45.3651 H   0  0  0  0  0  0  0  0  0  0  0  0
   57.4183   29.3685   46.2470 H   0  0  0  0  0  0  0  0  0  0  0  0
   58.2124   30.2930   48.4197 H   0  0  0  0  0  0  0  0  0  0  0  0
   59.5141   30.1012   50.3426 H   0  0  0  0  0  0  0  0  0  0  0  0
   60.3278   28.5430   50.7084 H   0  0  0  0  0  0  0  0  0  0  0  0
   59.7912   31.2802   48.2643 H   0  0  0  0  0  0  0  0  0  0  0  0
   59.3412   33.9715   47.4176 H   0  0  0  0  0  0  0  0  0  0  0  0
   60.5643   34.3238   46.1461 H   0  0  0  0  0  0  0  0  0  0  0  0
   60.0530   31.9810   45.2510 H   0  0  0  0  0  0  0  0  0  0  0  0
   58.2799   32.8683   42.9387 H   0  0  0  0  0  0  0  0  0  0  0  0
   57.2564   31.4173   41.1732 H   0  0  0  0  0  0  0  0  0  0  0  0
   55.8332   29.4687   41.8377 H   0  0  0  0  0  0  0  0  0  0  0  0
   55.4507   28.9969   44.2649 H   0  0  0  0  0  0  0  0  0  0  0  0
   62.7200   34.2415   47.0598 H   0  0  0  0  0  0  0  0  0  0  0  0
   64.4294   33.0645   48.4485 H   0  0  0  0  0  0  0  0  0  0  0  0
   61.2138   27.1777   48.6461 H   0  0  0  0  0  0  0  0  0  0  0  0
   60.4239   26.2607   46.4658 H   0  0  0  0  0  0  0  0  0  0  0  0
  1  2  1  0
  2  3  2  0
  2  4  2  0
  2  5  1  0
  5  6  1  0
  6  7  2  0
  6  8  1  0
  8  9  2  0
  9 10  1  0
 10 11  2  0
 11 12  1  0
 12 13  1  0
 13 14  2  3
 14 15  1  0
 15 16  2  0
 16 17  1  0
 17 18  1  0
 18 19  1  0
 19 20  2  0
 19 21  1  0
 21 22  2  0
 22 23  1  0
 23 24  2  0
 24 25  1  0
 25 26  2  0
 16 27  1  0
 27 28  2  0
 28 29  1  0
 11 30  1  0
 30 31  2  0
 31  8  1  0
 29 14  1  0
 26 21  1  0
  1 32  1  0
  1 33  1  0
  1 34  1  0
  9 35  1  0
 10 36  1  0
 12 37  1  0
 12 38  1  0
 15 39  1  0
 17 40  1  0
 17 41  1  0
 18 42  1  0
 22 43  1  0
 23 44  1  0
 24 45  1  0
 25 46  1  0
 27 47  1  0
 28 48  1  0
 30 49  1  0
 31 50  1  0
M  CHG  2   5  -1  29  -1
M  END
>  <UniqueID>  (57) 
52

>  <SMILES>  (57) 
CS(=O)(=O)[N-]C(=O)c1ccc(CN=c2cc(CNC(=O)c3ccccn3)cc[n-]2)cc1

>  <Energy>  (57) 
56.3973880201552

>  <Genealogy>  (57) 
CS(=O)(=O)[N-]C(=O)c1ccc(CN=c2cc(CNC(=O)c3ccccn3)cc[n-]2)cc1 (protonated)
CS(=O)(=O)[N-]C(=O)c1ccc(CN=c2cc(CNC(=O)c3ccccn3)cc[n-]2)cc1 (3D coordinates assigned)
CS(=O)(=O)[N-]C(=O)c1ccc(CN=c2cc(CNC(=O)c3ccccn3)cc[n-]2)cc1 (optimized conformer: 56.3973880201552 kcal/mol)

>  <smiles>  (57) 
CS(=O)(=O)NC(=O)c1ccc(CN=c2cc(CNC(=O)c3ccccn3)cc[nH]2)cc1

>  <score_type>  (57) 
oracle

>  <origin>  (57) 
adg

>  <m_score__min__energy>  (57) 
-11.359999999999999

>  <m_primary>  (57) 
energy

$$$$
57:0
     RDKit          3D

 58 61  0  0  0  0  0  0  0  0999 V2000
   56.6720   32.7880   45.9920 O   0  0  0  0  0  0  0  0  0  0  0  0
   57.1900   32.4640   44.8870 C   0  0  0  0  0  0  0  0  0  0  0  0
   56.7970   31.1820   44.2210 C   0  0  0  0  0  0  0  0  0  0  0  0
   57.3370   29.9890   44.9830 C   0  0  0  0  0  0  0  0  0  0  0  0
   56.4990   28.9120   45.2940 C   0  0  0  0  0  0  0  0  0  0  0  0
   55.1700   28.9420   44.8740 O   0  0  0  0  0  0  0  0  0  0  0  0
   56.9760   27.8400   46.0000 N   0  0  0  0  0  0  0  0  0  0  0  0
   56.0680   26.7280   46.3470 C   0  0  0  0  0  0  0  0  0  0  0  0
   56.2310   25.5900   45.3720 C   0  0  0  0  0  0  0  0  0  0  0  0
   57.3450   25.5420   44.5160 C   0  0  0  0  0  0  0  0  0  0  0  0
   57.5120   24.4690   43.6350 C   0  0  0  0  0  0  0  0  0  0  0  0
   56.5750   23.4340   43.6040 C   0  0  0  0  0  0  0  0  0  0  0  0
   55.4670   23.4710   44.4550 C   0  0  0  0  0  0  0  0  0  0  0  0
   55.2950   24.5430   45.3370 C   0  0  0  0  0  0  0  0  0  0  0  0
   58.2830   27.8230   46.4190 C   0  0  0  0  0  0  0  0  0  0  0  0
   58.7240   26.8210   47.0500 O   0  0  0  0  0  0  0  0  0  0  0  0
   59.1190   28.8800   46.1550 N   0  0  0  0  0  0  0  0  0  0  0  0
   60.5290   28.8350   46.5950 C   0  0  0  0  0  0  0  0  0  0  0  0
   60.8420   30.0350   47.4930 C   0  0  0  0  0  0  0  0  0  0  0  0
   60.3420   29.7960   48.8920 C   0  0  0  0  0  0  0  0  0  0  0  0
   61.1910   29.2360   49.8600 C   0  0  0  0  0  0  0  0  0  0  0  0
   60.7390   29.0500   51.1690 C   0  0  0  0  0  0  0  0  0  0  0  0
   59.4420   29.4280   51.5250 C   0  0  0  0  0  0  0  0  0  0  0  0
   58.5910   30.0010   50.5690 C   0  0  0  0  0  0  0  0  0  0  0  0
   57.2980   30.3910   50.9130 O   0  0  0  0  0  0  0  0  0  0  0  0
   59.0420   30.1860   49.2570 C   0  0  0  0  0  0  0  0  0  0  0  0
   58.6620   29.9530   45.4370 C   0  0  0  0  0  0  0  0  0  0  0  0
   59.4350   30.9190   45.1760 O   0  0  0  0  0  0  0  0  0  0  0  0
   58.1840   33.2980   44.2830 N   0  0  0  0  0  0  0  0  0  0  0  0
   58.7250   34.4960   44.9160 C   0  0  0  0  0  0  0  0  0  0  0  0
   59.4040   34.1470   46.2040 C   0  0  0  0  0  0  0  0  0  0  0  0
   58.8130   34.1430   47.4620 C   0  0  0  0  0  0  0  0  0  0  0  0
   59.6950   33.7680   48.4820 C   0  0  0  0  0  0  0  0  0  0  0  0
   60.9750   33.4720   48.0300 C   0  0  0  0  0  0  0  0  0  0  0  0
   61.0100   33.6760   46.3610 S   0  0  0  0  0  0  0  0  0  0  0  0
   55.6995   31.1179   44.1824 H   0  0  0  0  0  0  0  0  0  0  0  0
   57.2186   31.1702   43.2051 H   0  0  0  0  0  0  0  0  0  0  0  0
   56.3023   26.3723   47.3612 H   0  0  0  0  0  0  0  0  0  0  0  0
   55.0299   27.0890   46.3024 H   0  0  0  0  0  0  0  0  0  0  0  0
   58.0887   26.3522   44.5393 H   0  0  0  0  0  0  0  0  0  0  0  0
   58.3837   24.4401   42.9647 H   0  0  0  0  0  0  0  0  0  0  0  0
   56.7088   22.5906   42.9106 H   0  0  0  0  0  0  0  0  0  0  0  0
   54.7289   22.6557   44.4312 H   0  0  0  0  0  0  0  0  0  0  0  0
   54.4225   24.5663   46.0065 H   0  0  0  0  0  0  0  0  0  0  0  0
   60.7048   27.9056   47.1564 H   0  0  0  0  0  0  0  0  0  0  0  0
   61.1820   28.8691   45.7104 H   0  0  0  0  0  0  0  0  0  0  0  0
   61.9304   30.1917   47.5202 H   0  0  0  0  0  0  0  0  0  0  0  0
   60.3390   30.9238   47.0843 H   0  0  0  0  0  0  0  0  0  0  0  0
   62.2154   28.9427   49.5869 H   0  0  0  0  0  0  0  0  0  0  0  0
   61.4064   28.6046   51.9215 H   0  0  0  0  0  0  0  0  0  0  0  0
   59.0883   29.2761   52.5554 H   0  0  0  0  0  0  0  0  0  0  0  0
   56.6130   29.7210   51.2420 H   0  0  0  0  0  0  0  0  0  0  0  0
   58.3758   30.6388   48.5079 H   0  0  0  0  0  0  0  0  0  0  0  0
   59.4532   34.9660   44.2386 H   0  0  0  0  0  0  0  0  0  0  0  0
   57.8990   35.1914   45.1261 H   0  0  0  0  0  0  0  0  0  0  0  0
   57.7599   34.4075   47.6380 H   0  0  0  0  0  0  0  0  0  0  0  0
   59.4025   33.7129   49.5410 H   0  0  0  0  0  0  0  0  0  0  0  0
   61.8220   33.1575   48.6574 H   0  0  0  0  0  0  0  0  0  0  0  0
  1  2  2  0
  2  3  1  0
  3  4  1  0
  4  5  2  0
  5  6  1  0
  5  7  1  0
  7  8  1  0
  8  9  1  0
  9 10  2  0
 10 11  1  0
 11 12  2  0
 12 13  1  0
 13 14  2  0
  7 15  1  0
 15 16  2  0
 15 17  1  0
 17 18  1  0
 18 19  1  0
 19 20  1  0
 20 21  2  0
 21 22  1  0
 22 23  2  0
 23 24  1  0
 24 25  1  0
 24 26  2  0
 17 27  1  0
 27 28  2  0
  2 29  1  0
 29 30  1  0
 30 31  1  0
 31 32  2  0
 32 33  1  0
 33 34  2  0
 34 35  1  0
 27  4  1  0
 35 31  1  0
 14  9  1  0
 26 20  1  0
  3 36  1  0
  3 37  1  0
  8 38  1  0
  8 39  1  0
 10 40  1  0
 11 41  1  0
 12 42  1  0
 13 43  1  0
 14 44  1  0
 18 45  1  0
 18 46  1  0
 19 47  1  0
 19 48  1  0
 21 49  1  0
 22 50  1  0
 23 51  1  0
 25 52  1  0
 26 53  1  0
 30 54  1  0
 30 55  1  0
 32 56  1  0
 33 57  1  0
 34 58  1  0
M  CHG  2   6  -1  29  -1
M  END
>  <UniqueID>  (58) 
53

>  <SMILES>  (58) 
O=C(Cc1c([O-])n(Cc2ccccc2)c(=O)n(CCc2cccc(O)c2)c1=O)[N-]Cc1cccs1

>  <Energy>  (58) 
89.19453583216894

>  <Genealogy>  (58) 
O=C(Cc1c([O-])n(Cc2ccccc2)c(=O)n(CCc2cccc(O)c2)c1=O)[N-]Cc1cccs1 (protonated)
O=C(Cc1c([O-])n(Cc2ccccc2)c(=O)n(CCc2cccc(O)c2)c1=O)[N-]Cc1cccs1 (3D coordinates assigned)
O=C(Cc1c([O-])n(Cc2ccccc2)c(=O)n(CCc2cccc(O)c2)c1=O)[N-]Cc1cccs1 (optimized conformer: 89.19453583216894 kcal/mol)

>  <smiles>  (58) 
O=C(Cc1c(O)n(Cc2ccccc2)c(=O)n(CCc2cccc(O)c2)c1=O)NCc1cccs1

>  <score_type>  (58) 
oracle

>  <origin>  (58) 
adg

>  <m_score__min__energy>  (58) 
-13.56

>  <m_primary>  (58) 
energy

$$$$
58:0
     RDKit          3D

 41 43  0  0  0  0  0  0  0  0999 V2000
   58.9059   32.7637   48.0758 H   0  0  0  0  0  0  0  0  0  0  0  0
   58.5850   32.9310   47.0370 C   0  0  0  0  0  0  0  0  0  0  0  0
   57.7530   32.0420   46.4310 N   0  0  0  0  0  0  0  0  0  0  0  0
   57.3290   32.2120   45.1450 C   0  0  0  0  0  0  0  0  0  0  0  0
   56.5310   31.3540   44.5760 N   0  0  0  0  0  0  0  0  0  0  0  0
   56.7760   30.6150   43.3680 C   0  0  0  0  0  0  0  0  0  0  0  0
   56.9610   31.2020   42.2660 O   0  0  0  0  0  0  0  0  0  0  0  0
   56.8630   29.1250   43.4290 C   0  0  0  0  0  0  0  0  0  0  0  0
   57.4920   28.7623   42.6027 H   0  0  0  0  0  0  0  0  0  0  0  0
   55.8524   28.6994   43.3416 H   0  0  0  0  0  0  0  0  0  0  0  0
   57.4640   28.7030   44.7320 C   0  0  0  0  0  0  0  0  0  0  0  0
   58.9920   29.1520   45.2870 S   0  0  0  0  0  0  0  0  0  0  0  0
   58.7900   28.3630   46.7690 C   0  0  0  0  0  0  0  0  0  0  0  0
   59.6580   28.3250   47.7350 N   0  0  0  0  0  0  0  0  0  0  0  0
   59.9320   29.4270   48.6120 C   0  0  0  0  0  0  0  0  0  0  0  0
   59.3760   29.4080   49.8950 C   0  0  0  0  0  0  0  0  0  0  0  0
   58.7601   28.5529   50.2104 H   0  0  0  0  0  0  0  0  0  0  0  0
   59.5960   30.4630   50.7760 C   0  0  0  0  0  0  0  0  0  0  0  0
   59.1563   30.4370   51.7840 H   0  0  0  0  0  0  0  0  0  0  0  0
   60.3720   31.5520   50.3840 C   0  0  0  0  0  0  0  0  0  0  0  0
   60.5314   32.3868   51.0823 H   0  0  0  0  0  0  0  0  0  0  0  0
   60.9530   31.5940   49.1050 C   0  0  0  0  0  0  0  0  0  0  0  0
   61.7920   32.7870   48.7270 C   0  0  0  0  0  0  0  0  0  0  0  0
   62.1459   33.2902   49.6389 H   0  0  0  0  0  0  0  0  0  0  0  0
   62.6560   32.4543   48.1330 H   0  0  0  0  0  0  0  0  0  0  0  0
   61.1867   33.4876   48.1330 H   0  0  0  0  0  0  0  0  0  0  0  0
   60.7700   30.5020   48.2180 C   0  0  0  0  0  0  0  0  0  0  0  0
   61.4320   30.4990   46.8590 C   0  0  0  0  0  0  0  0  0  0  0  0
   62.5249   30.4940   46.9835 H   0  0  0  0  0  0  0  0  0  0  0  0
   61.1223   29.6022   46.3023 H   0  0  0  0  0  0  0  0  0  0  0  0
   61.1305   31.3985   46.3023 H   0  0  0  0  0  0  0  0  0  0  0  0
   57.5740   27.7810   46.8590 N   0  0  0  0  0  0  0  0  0  0  0  0
   57.2380   27.2530   47.6950 H   0  0  0  0  0  0  0  0  0  0  0  0
   56.8340   27.9720   45.7360 C   0  0  0  0  0  0  0  0  0  0  0  0
   55.5400   27.4760   45.6160 O   0  0  0  0  0  0  0  0  0  0  0  0
   57.7600   33.3300   44.4200 C   0  0  0  0  0  0  0  0  0  0  0  0
   57.4282   33.4790   43.3819 H   0  0  0  0  0  0  0  0  0  0  0  0
   58.6140   34.2540   45.0250 C   0  0  0  0  0  0  0  0  0  0  0  0
   58.9566   35.1366   44.4649 H   0  0  0  0  0  0  0  0  0  0  0  0
   59.0320   34.0560   46.3410 C   0  0  0  0  0  0  0  0  0  0  0  0
   59.7062   34.7780   46.8250 H   0  0  0  0  0  0  0  0  0  0  0  0
  1  2  1  0
  2  3  1  0
  3  4  1  0
  4  5  2  0
  5  6  1  0
  6  7  2  0
  6  8  1  0
  8  9  1  0
  8 10  1  0
  8 11  1  0
 11 12  1  0
 12 13  1  0
 13 14  2  3
 14 15  1  0
 15 16  2  0
 16 17  1  0
 16 18  1  0
 18 19  1  0
 18 20  2  0
 20 21  1  0
 20 22  1  0
 22 23  1  0
 23 24  1  0
 23 25  1  0
 23 26  1  0
 22 27  2  0
 27 28  1  0
 28 29  1  0
 28 30  1  0
 28 31  1  0
 13 32  1  0
 32 33  1  0
 32 34  1  0
 34 35  1  0
  4 36  1  0
 36 37  1  0
 36 38  2  0
 38 39  1  0
 38 40  1  0
 40 41  1  0
 40  2  2  0
 34 11  2  0
 27 15  1  0
M  CHG  2   3  -1  35  -1
M  END
>  <UniqueID>  (59) 
54

>  <SMILES>  (59) 
Cc1cccc(N=c2[nH]c([O-])c(CC(=O)/N=c3/cccc[n-]3)s2)c1C

>  <Energy>  (59) 
84.54644058301503

>  <Genealogy>  (59) 
Cc1cccc(N=c2[nH]c([O-])c(CC(=O)N=c3cccc[n-]3)s2)c1C (protonated)
Cc1cccc(N=c2[nH]c([O-])c(CC(=O)/N=c3/cccc[n-]3)s2)c1C (cis-trans isomerization)
Cc1cccc(N=c2[nH]c([O-])c(CC(=O)/N=c3/cccc[n-]3)s2)c1C (3D coordinates assigned)
Cc1cccc(N=c2[nH]c([O-])c(CC(=O)/N=c3/cccc[n-]3)s2)c1C (optimized conformer: 84.54644058301503 kcal/mol)

>  <smiles>  (59) 
Cc1cccc(N=c2[nH]c(O)c(CC(=O)N=c3cccc[nH]3)s2)c1C

>  <score_type>  (59) 
oracle

>  <origin>  (59) 
adg

>  <m_score__min__energy>  (59) 
-13.140000000000001

>  <m_primary>  (59) 
energy

$$$$
59:0
     RDKit          3D

 43 45  0  0  0  0  0  0  0  0999 V2000
   59.6050   34.9300   46.4400 C   0  0  0  0  0  0  0  0  0  0  0  0
   58.8240   33.7830   45.8720 C   0  0  0  0  0  0  0  0  0  0  0  0
   58.4430   32.7110   46.6940 C   0  0  0  0  0  0  0  0  0  0  0  0
   57.7760   31.6100   46.1500 C   0  0  0  0  0  0  0  0  0  0  0  0
   57.4890   31.5620   44.7780 C   0  0  0  0  0  0  0  0  0  0  0  0
   56.6640   30.1620   44.0840 S   0  0  0  0  0  0  0  0  0  0  0  0
   55.4160   29.8890   44.8740 O   0  0  0  0  0  0  0  0  0  0  0  0
   56.2690   30.4630   42.6650 O   0  0  0  0  0  0  0  0  0  0  0  0
   57.6700   28.7410   44.1050 N   0  0  0  0  0  0  0  0  0  0  0  0
   58.9760   29.0290   44.6990 C   0  0  0  0  0  0  0  0  0  0  0  0
   59.3970   27.8820   45.6350 C   0  0  0  0  0  0  0  0  0  0  0  0
   58.4530   27.6990   46.7860 C   0  0  0  0  0  0  0  0  0  0  0  0
   57.2380   27.4330   46.5760 O   0  0  0  0  0  0  0  0  0  0  0  0
   58.9350   27.9220   48.1190 N   0  0  0  0  0  0  0  0  0  0  0  0
   59.3140   29.0670   48.6010 C   0  0  0  0  0  0  0  0  0  0  0  0
   60.3430   29.7930   48.1150 N   0  0  0  0  0  0  0  0  0  0  0  0
   60.4820   30.9740   48.7780 C   0  0  0  0  0  0  0  0  0  0  0  0
   61.5180   31.9610   48.4110 C   0  0  0  0  0  0  0  0  0  0  0  0
   62.5170   31.6480   47.4750 C   0  0  0  0  0  0  0  0  0  0  0  0
   63.4750   32.6080   47.1460 C   0  0  0  0  0  0  0  0  0  0  0  0
   63.4340   33.8660   47.7460 C   0  0  0  0  0  0  0  0  0  0  0  0
   62.4280   34.1470   48.6730 C   0  0  0  0  0  0  0  0  0  0  0  0
   61.5030   33.2000   48.9810 N   0  0  0  0  0  0  0  0  0  0  0  0
   59.5530   31.1820   49.7990 C   0  0  0  0  0  0  0  0  0  0  0  0
   58.5290   29.8480   49.8590 S   0  0  0  0  0  0  0  0  0  0  0  0
   57.8670   32.6330   43.9580 C   0  0  0  0  0  0  0  0  0  0  0  0
   58.5360   33.7350   44.5000 C   0  0  0  0  0  0  0  0  0  0  0  0
   59.5749   34.8858   47.5387 H   0  0  0  0  0  0  0  0  0  0  0  0
   60.6489   34.8674   46.0990 H   0  0  0  0  0  0  0  0  0  0  0  0
   59.1642   35.8784   46.0990 H   0  0  0  0  0  0  0  0  0  0  0  0
   58.6702   32.7376   47.7700 H   0  0  0  0  0  0  0  0  0  0  0  0
   57.4745   30.7765   46.8014 H   0  0  0  0  0  0  0  0  0  0  0  0
   59.7231   29.1384   43.8991 H   0  0  0  0  0  0  0  0  0  0  0  0
   58.9093   29.9609   45.2796 H   0  0  0  0  0  0  0  0  0  0  0  0
   59.4298   26.9481   45.0547 H   0  0  0  0  0  0  0  0  0  0  0  0
   60.3829   28.1370   46.0508 H   0  0  0  0  0  0  0  0  0  0  0  0
   62.5442   30.6539   47.0048 H   0  0  0  0  0  0  0  0  0  0  0  0
   64.2617   32.3725   46.4141 H   0  0  0  0  0  0  0  0  0  0  0  0
   64.1853   34.6283   47.4921 H   0  0  0  0  0  0  0  0  0  0  0  0
   62.3842   35.1352   49.1541 H   0  0  0  0  0  0  0  0  0  0  0  0
   59.4995   32.0657   50.4519 H   0  0  0  0  0  0  0  0  0  0  0  0
   57.6365   32.6071   42.8827 H   0  0  0  0  0  0  0  0  0  0  0  0
   58.8377   34.5677   43.8476 H   0  0  0  0  0  0  0  0  0  0  0  0
  1  2  1  0
  2  3  2  0
  3  4  1  0
  4  5  2  0
  5  6  1  0
  6  7  2  0
  6  8  2  0
  6  9  1  0
  9 10  1  0
 10 11  1  0
 11 12  1  0
 12 13  2  0
 12 14  1  0
 14 15  2  3
 15 16  1  0
 16 17  1  0
 17 18  1  0
 18 19  2  0
 19 20  1  0
 20 21  2  0
 21 22  1  0
 22 23  2  0
 17 24  2  0
 24 25  1  0
  5 26  1  0
 26 27  2  0
 27  2  1  0
 25 15  1  0
 23 18  1  0
  1 28  1  0
  1 29  1  0
  1 30  1  0
  3 31  1  0
  4 32  1  0
 10 33  1  0
 10 34  1  0
 11 35  1  0
 11 36  1  0
 19 37  1  0
 20 38  1  0
 21 39  1  0
 22 40  1  0
 24 41  1  0
 26 42  1  0
 27 43  1  0
M  CHG  2   9  -1  16  -1
M  END
>  <UniqueID>  (60) 
55

>  <SMILES>  (60) 
Cc1ccc(S(=O)(=O)[N-]CCC(=O)N=c2[n-]c(-c3ccccn3)cs2)cc1

>  <Energy>  (60) 
72.38353244421695

>  <Genealogy>  (60) 
Cc1ccc(S(=O)(=O)[N-]CCC(=O)N=c2[n-]c(-c3ccccn3)cs2)cc1 (protonated)
Cc1ccc(S(=O)(=O)[N-]CCC(=O)N=c2[n-]c(-c3ccccn3)cs2)cc1 (3D coordinates assigned)
Cc1ccc(S(=O)(=O)[N-]CCC(=O)N=c2[n-]c(-c3ccccn3)cs2)cc1 (optimized conformer: 72.38353244421695 kcal/mol)

>  <smiles>  (60) 
Cc1ccc(S(=O)(=O)NCCC(=O)N=c2[nH]c(-c3ccccn3)cs2)cc1

>  <score_type>  (60) 
oracle

>  <origin>  (60) 
adg

>  <m_score__min__energy>  (60) 
-12.1

>  <m_primary>  (60) 
energy

$$$$
60:0
     RDKit          3D

 36 38  0  0  0  0  0  0  0  0999 V2000
   56.2898   33.7844   45.1170 H   0  0  0  0  0  0  0  0  0  0  0  0
   57.0160   32.9680   45.2440 C   0  0  0  0  0  0  0  0  0  0  0  0
   56.7510   31.6880   44.8720 N   0  0  0  0  0  0  0  0  0  0  0  0
   57.8010   30.8710   45.1050 C   0  0  0  0  0  0  0  0  0  0  0  0
   57.7580   29.5990   44.8400 N   0  0  0  0  0  0  0  0  0  0  0  0
   56.7290   28.6960   45.2660 C   0  0  0  0  0  0  0  0  0  0  0  0
   55.5350   28.9550   44.9690 O   0  0  0  0  0  0  0  0  0  0  0  0
   57.0470   27.4380   45.9760 C   0  0  0  0  0  0  0  0  0  0  0  0
   58.2620   27.0250   46.5130 C   0  0  0  0  0  0  0  0  0  0  0  0
   59.5810   27.7350   46.4200 C   0  0  0  0  0  0  0  0  0  0  0  0
   59.6353   28.2711   45.4610 H   0  0  0  0  0  0  0  0  0  0  0  0
   60.3880   26.9907   46.4884 H   0  0  0  0  0  0  0  0  0  0  0  0
   59.7390   28.7340   47.5610 C   0  0  0  0  0  0  0  0  0  0  0  0
   59.6558   28.2077   48.5233 H   0  0  0  0  0  0  0  0  0  0  0  0
   60.7247   29.2172   47.4914 H   0  0  0  0  0  0  0  0  0  0  0  0
   58.9505   29.4978   47.4914 H   0  0  0  0  0  0  0  0  0  0  0  0
   58.1240   25.7970   47.0610 N   0  0  0  0  0  0  0  0  0  0  0  0
   56.8630   25.4240   46.9130 N   0  0  0  0  0  0  0  0  0  0  0  0
   56.4720   24.5160   47.2500 H   0  0  0  0  0  0  0  0  0  0  0  0
   56.1950   26.3910   46.2650 C   0  0  0  0  0  0  0  0  0  0  0  0
   54.9680   26.3320   45.9860 O   0  0  0  0  0  0  0  0  0  0  0  0
   59.1000   31.6990   45.8020 S   0  0  0  0  0  0  0  0  0  0  0  0
   58.2770   33.1660   45.7980 C   0  0  0  0  0  0  0  0  0  0  0  0
   58.8600   34.4810   46.2050 C   0  0  0  0  0  0  0  0  0  0  0  0
   59.0956   35.0695   45.3060 H   0  0  0  0  0  0  0  0  0  0  0  0
   58.1312   35.0243   46.8245 H   0  0  0  0  0  0  0  0  0  0  0  0
   60.1120   34.2600   46.9960 C   0  0  0  0  0  0  0  0  0  0  0  0
   61.2650   34.0680   46.3550 O   0  0  0  0  0  0  0  0  0  0  0  0
   62.4110   33.8430   46.9920 C   0  0  0  0  0  0  0  0  0  0  0  0
   63.4690   33.6720   46.3310 O   0  0  0  0  0  0  0  0  0  0  0  0
   62.4440   33.7940   48.3890 C   0  0  0  0  0  0  0  0  0  0  0  0
   63.3891   33.6096   48.9208 H   0  0  0  0  0  0  0  0  0  0  0  0
   61.2580   33.9830   49.0950 C   0  0  0  0  0  0  0  0  0  0  0  0
   61.2556   33.9471   50.1944 H   0  0  0  0  0  0  0  0  0  0  0  0
   60.0740   34.2180   48.3970 C   0  0  0  0  0  0  0  0  0  0  0  0
   59.1269   34.3678   48.9360 H   0  0  0  0  0  0  0  0  0  0  0  0
  1  2  1  0
  2  3  1  0
  3  4  1  0
  4  5  2  0
  5  6  1  0
  6  7  2  0
  6  8  1  0
  8  9  2  0
  9 10  1  0
 10 11  1  0
 10 12  1  0
 10 13  1  0
 13 14  1  0
 13 15  1  0
 13 16  1  0
  9 17  1  0
 17 18  1  0
 18 19  1  0
 18 20  1  0
 20 21  2  0
  4 22  1  0
 22 23  1  0
 23 24  1  0
 24 25  1  0
 24 26  1  0
 24 27  1  0
 27 28  1  0
 28 29  1  0
 29 30  2  0
 29 31  1  0
 31 32  1  0
 31 33  2  0
 33 34  1  0
 33 35  1  0
 35 36  1  0
 23  2  2  0
 35 27  2  0
 20  8  1  0
M  CHG  2   3  -1  17  -1
M  END
>  <UniqueID>  (61) 
56

>  <SMILES>  (61) 
CCc1[n-][nH]c(=O)c1C(=O)/N=c1/[n-]cc(Cc2cccc(=O)o2)s1

>  <Energy>  (61) 
103.84006050885303

>  <Genealogy>  (61) 
CCc1[n-][nH]c(=O)c1C(=O)N=c1[n-]cc(Cc2cccc(=O)o2)s1 (protonated)
CCc1[n-][nH]c(=O)c1C(=O)/N=c1/[n-]cc(Cc2cccc(=O)o2)s1 (cis-trans isomerization)
CCc1[n-][nH]c(=O)c1C(=O)/N=c1/[n-]cc(Cc2cccc(=O)o2)s1 (3D coordinates assigned)
CCc1[n-][nH]c(=O)c1C(=O)/N=c1/[n-]cc(Cc2cccc(=O)o2)s1 (optimized conformer: 103.84006050885303 kcal/mol)

>  <smiles>  (61) 
CCc1[nH][nH]c(=O)c1C(=O)N=c1[nH]cc(Cc2cccc(=O)o2)s1

>  <score_type>  (61) 
oracle

>  <origin>  (61) 
adg

>  <m_score__min__energy>  (61) 
-11.19

>  <m_primary>  (61) 
energy

$$$$
61:0
     RDKit          3D

 56 59  0  0  0  0  0  0  0  0999 V2000
   63.2010   32.7550   49.1000 C   0  0  0  0  0  0  0  0  0  0  0  0
   62.3380   33.8560   48.4710 C   0  0  0  0  0  0  0  0  0  0  0  0
   60.9060   33.8070   49.0480 C   0  0  0  0  0  0  0  0  0  0  0  0
   59.9220   34.5360   48.1230 C   0  0  0  0  0  0  0  0  0  0  0  0
   59.8800   33.9660   46.7520 N   0  0  0  0  0  0  0  0  0  0  0  0
   58.4030   33.0770   46.4580 S   0  0  0  0  0  0  0  0  0  0  0  0
   57.3270   33.5860   47.3750 O   0  0  0  0  0  0  0  0  0  0  0  0
   57.9500   33.3380   45.0510 O   0  0  0  0  0  0  0  0  0  0  0  0
   58.6270   31.3380   46.7560 C   0  0  0  0  0  0  0  0  0  0  0  0
   58.9800   30.9320   48.0500 C   0  0  0  0  0  0  0  0  0  0  0  0
   59.2720   29.5980   48.3190 C   0  0  0  0  0  0  0  0  0  0  0  0
   59.2160   28.6660   47.2860 C   0  0  0  0  0  0  0  0  0  0  0  0
   58.8610   29.0560   46.0340 N   0  0  0  0  0  0  0  0  0  0  0  0
   58.5450   30.3500   45.7420 C   0  0  0  0  0  0  0  0  0  0  0  0
   58.0400   30.7320   44.0540 S   0  0  0  0  0  0  0  0  0  0  0  0
   57.2320   29.1180   43.7570 C   0  0  0  0  0  0  0  0  0  0  0  0
   56.3470   28.7310   44.9080 C   0  0  0  0  0  0  0  0  0  0  0  0
   55.2660   29.3540   45.0820 O   0  0  0  0  0  0  0  0  0  0  0  0
   56.6640   27.6440   45.7870 N   0  0  0  0  0  0  0  0  0  0  0  0
   55.8480   26.4530   46.0010 C   0  0  0  0  0  0  0  0  0  0  0  0
   56.5150   25.2350   45.4240 C   0  0  0  0  0  0  0  0  0  0  0  0
   57.8730   24.9580   45.7240 C   0  0  0  0  0  0  0  0  0  0  0  0
   58.5000   23.8090   45.2070 C   0  0  0  0  0  0  0  0  0  0  0  0
   57.7420   22.9600   44.4080 C   0  0  0  0  0  0  0  0  0  0  0  0
   56.4380   23.2110   44.1280 C   0  0  0  0  0  0  0  0  0  0  0  0
   55.7800   24.3350   44.6180 C   0  0  0  0  0  0  0  0  0  0  0  0
   55.9380   22.2030   43.3280 O   0  0  0  0  0  0  0  0  0  0  0  0
   56.9920   21.2580   43.0960 C   0  0  0  0  0  0  0  0  0  0  0  0
   58.1260   21.7840   43.7970 O   0  0  0  0  0  0  0  0  0  0  0  0
   61.0570   33.1500   46.3850 C   0  0  0  0  0  0  0  0  0  0  0  0
   62.3510   33.7680   46.9220 C   0  0  0  0  0  0  0  0  0  0  0  0
   63.1449   32.8265   50.1962 H   0  0  0  0  0  0  0  0  0  0  0  0
   62.8316   31.7704   48.7774 H   0  0  0  0  0  0  0  0  0  0  0  0
   64.2454   32.8785   48.7774 H   0  0  0  0  0  0  0  0  0  0  0  0
   62.7697   34.8337   48.7314 H   0  0  0  0  0  0  0  0  0  0  0  0
   60.5942   32.7572   49.1511 H   0  0  0  0  0  0  0  0  0  0  0  0
   60.9033   34.3046   50.0290 H   0  0  0  0  0  0  0  0  0  0  0  0
   58.9151   34.4695   48.5608 H   0  0  0  0  0  0  0  0  0  0  0  0
   60.2647   35.5775   48.0349 H   0  0  0  0  0  0  0  0  0  0  0  0
   59.0267   31.6743   48.8604 H   0  0  0  0  0  0  0  0  0  0  0  0
   59.5442   29.2832   49.3372 H   0  0  0  0  0  0  0  0  0  0  0  0
   59.4597   27.6118   47.4841 H   0  0  0  0  0  0  0  0  0  0  0  0
   58.8210   28.3330   45.2820 H   0  0  0  0  0  0  0  0  0  0  0  0
   56.6231   29.1848   42.8434 H   0  0  0  0  0  0  0  0  0  0  0  0
   58.0145   28.3526   43.6478 H   0  0  0  0  0  0  0  0  0  0  0  0
   55.7018   26.3059   47.0813 H   0  0  0  0  0  0  0  0  0  0  0  0
   54.8800   26.5951   45.4982 H   0  0  0  0  0  0  0  0  0  0  0  0
   58.4411   25.6470   46.3662 H   0  0  0  0  0  0  0  0  0  0  0  0
   59.5551   23.5897   45.4277 H   0  0  0  0  0  0  0  0  0  0  0  0
   54.7205   24.5179   44.3855 H   0  0  0  0  0  0  0  0  0  0  0  0
   56.7180   20.2690   43.4919 H   0  0  0  0  0  0  0  0  0  0  0  0
   57.1964   21.1236   42.0235 H   0  0  0  0  0  0  0  0  0  0  0  0
   60.9394   32.1411   46.8073 H   0  0  0  0  0  0  0  0  0  0  0  0
   61.1216   33.1072   45.2877 H   0  0  0  0  0  0  0  0  0  0  0  0
   63.2020   33.1466   46.6063 H   0  0  0  0  0  0  0  0  0  0  0  0
   62.4403   34.7875   46.5188 H   0  0  0  0  0  0  0  0  0  0  0  0
  1  2  1  0
  2  3  1  0
  3  4  1  0
  4  5  1  0
  5  6  1  0
  6  7  2  0
  6  8  2  0
  6  9  1  0
  9 10  2  0
 10 11  1  0
 11 12  2  0
 12 13  1  0
 13 14  2  0
 14 15  1  0
 15 16  1  0
 16 17  1  0
 17 18  2  0
 17 19  1  0
 19 20  1  0
 20 21  1  0
 21 22  2  0
 22 23  1  0
 23 24  2  0
 24 25  1  0
 25 26  2  0
 25 27  1  0
 27 28  1  0
 28 29  1  0
  5 30  1  0
 30 31  1  0
 31  2  1  0
 14  9  1  0
 26 21  1  0
 29 24  1  0
  1 32  1  0
  1 33  1  0
  1 34  1  0
  2 35  1  0
  3 36  1  0
  3 37  1  0
  4 38  1  0
  4 39  1  0
 10 40  1  0
 11 41  1  0
 12 42  1  0
 13 43  1  0
 16 44  1  0
 16 45  1  0
 20 46  1  0
 20 47  1  0
 22 48  1  0
 23 49  1  0
 26 50  1  0
 28 51  1  0
 28 52  1  0
 30 53  1  0
 30 54  1  0
 31 55  1  0
 31 56  1  0
M  CHG  2  13   1  19  -1
M  END
>  <UniqueID>  (62) 
57

>  <SMILES>  (62) 
CC1CCN(S(=O)(=O)c2ccc[nH+]c2SCC(=O)[N-]Cc2ccc3c(c2)OCO3)CC1

>  <Energy>  (62) 
86.35260237661679

>  <Genealogy>  (62) 
CC1CCN(S(=O)(=O)c2ccc[nH+]c2SCC(=O)[N-]Cc2ccc3c(c2)OCO3)CC1 (protonated)
CC1CCN(S(=O)(=O)c2ccc[nH+]c2SCC(=O)[N-]Cc2ccc3c(c2)OCO3)CC1 (3D coordinates assigned)
CC1CCN(S(=O)(=O)c2ccc[nH+]c2SCC(=O)[N-]Cc2ccc3c(c2)OCO3)CC1 (nonaromatic ring conformer: 86.35260237661679 kcal/mol)

>  <smiles>  (62) 
CC1CCN(S(=O)(=O)c2cccnc2SCC(=O)NCc2ccc3c(c2)OCO3)CC1

>  <score_type>  (62) 
oracle

>  <origin>  (62) 
adg

>  <m_score__min__energy>  (62) 
-10.609999999999999

>  <m_primary>  (62) 
energy

$$$$
62:0
     RDKit          3D

 44 46  0  0  0  0  0  0  0  0999 V2000
   58.4340   34.5690   44.9150 C   0  0  0  0  0  0  0  0  0  0  0  0
   58.7900   33.2960   45.6130 C   0  0  0  0  0  0  0  0  0  0  0  0
   58.4260   32.0540   45.0570 C   0  0  0  0  0  0  0  0  0  0  0  0
   58.8040   30.9190   45.7660 C   0  0  0  0  0  0  0  0  0  0  0  0
   59.4870   31.0190   46.9310 C   0  0  0  0  0  0  0  0  0  0  0  0
   59.8320   32.2190   47.4520 N   0  0  0  0  0  0  0  0  0  0  0  0
   59.4870   33.3350   46.7950 N   0  0  0  0  0  0  0  0  0  0  0  0
   59.7390   29.8110   47.4620 N   0  0  0  0  0  0  0  0  0  0  0  0
   59.1710   28.9750   46.5510 C   0  0  0  0  0  0  0  0  0  0  0  0
   59.1920   27.1910   46.7430 S   0  0  0  0  0  0  0  0  0  0  0  0
   57.3990   27.0860   47.0360 C   0  0  0  0  0  0  0  0  0  0  0  0
   56.8380   25.9430   46.2550 C   0  0  0  0  0  0  0  0  0  0  0  0
   55.6010   25.9030   46.0160 O   0  0  0  0  0  0  0  0  0  0  0  0
   57.7090   24.8980   45.7930 N   0  0  0  0  0  0  0  0  0  0  0  0
   57.3240   23.8820   44.8510 C   0  0  0  0  0  0  0  0  0  0  0  0
   56.2950   24.1000   43.9160 C   0  0  0  0  0  0  0  0  0  0  0  0
   55.9580   23.1040   42.9930 C   0  0  0  0  0  0  0  0  0  0  0  0
   56.6510   21.8910   42.9870 C   0  0  0  0  0  0  0  0  0  0  0  0
   57.6900   21.6750   43.8970 C   0  0  0  0  0  0  0  0  0  0  0  0
   58.0300   22.6690   44.8200 C   0  0  0  0  0  0  0  0  0  0  0  0
   58.5930   29.6190   45.5000 N   0  0  0  0  0  0  0  0  0  0  0  0
   57.8600   29.0280   44.3770 C   0  0  0  0  0  0  0  0  0  0  0  0
   56.3980   29.5130   44.3460 C   0  0  1  0  0  0  0  0  0  0  0  0
   55.8980   29.7610   42.9170 C   0  0  0  0  0  0  0  0  0  0  0  0
   55.5650   28.5890   44.9980 O   0  0  0  0  0  0  0  0  0  0  0  0
   58.2162   35.3476   45.6609 H   0  0  0  0  0  0  0  0  0  0  0  0
   59.2768   34.8900   44.2852 H   0  0  0  0  0  0  0  0  0  0  0  0
   57.5469   34.4062   44.2852 H   0  0  0  0  0  0  0  0  0  0  0  0
   57.8708   31.9854   44.1099 H   0  0  0  0  0  0  0  0  0  0  0  0
   57.2104   26.9265   48.1079 H   0  0  0  0  0  0  0  0  0  0  0  0
   56.9177   28.0222   46.7169 H   0  0  0  0  0  0  0  0  0  0  0  0
   58.6580   24.8290   46.2270 H   0  0  0  0  0  0  0  0  0  0  0  0
   55.7534   25.0574   43.9108 H   0  0  0  0  0  0  0  0  0  0  0  0
   55.1462   23.2763   42.2710 H   0  0  0  0  0  0  0  0  0  0  0  0
   56.3791   21.1058   42.2662 H   0  0  0  0  0  0  0  0  0  0  0  0
   58.2404   20.7227   43.8870 H   0  0  0  0  0  0  0  0  0  0  0  0
   58.8560   22.4993   45.5263 H   0  0  0  0  0  0  0  0  0  0  0  0
   58.3529   29.3152   43.4365 H   0  0  0  0  0  0  0  0  0  0  0  0
   57.8608   27.9347   44.4985 H   0  0  0  0  0  0  0  0  0  0  0  0
   56.3624   30.4758   44.8768 H   0  0  0  0  0  0  0  0  0  0  0  0
   54.9131   30.2495   42.9528 H   0  0  0  0  0  0  0  0  0  0  0  0
   56.6103   30.4103   42.3868 H   0  0  0  0  0  0  0  0  0  0  0  0
   55.8121   28.8010   42.3868 H   0  0  0  0  0  0  0  0  0  0  0  0
   55.9110   27.6790   44.7980 H   0  0  0  0  0  0  0  0  0  0  0  0
  1  2  1  0
  2  3  2  0
  3  4  1  0
  4  5  2  0
  5  6  1  0
  6  7  2  0
  5  8  1  0
  8  9  2  0
  9 10  1  0
 10 11  1  0
 11 12  1  0
 12 13  2  0
 12 14  1  0
 14 15  1  0
 15 16  2  0
 16 17  1  0
 17 18  2  0
 18 19  1  0
 19 20  2  0
  9 21  1  0
 21 22  1  0
 22 23  1  0
 23 24  1  0
 23 25  1  0
  7  2  1  0
 20 15  1  0
 21  4  1  0
  1 26  1  0
  1 27  1  0
  1 28  1  0
  3 29  1  0
 11 30  1  0
 11 31  1  0
 14 32  1  0
 16 33  1  0
 17 34  1  0
 18 35  1  0
 19 36  1  0
 20 37  1  0
 22 38  1  0
 22 39  1  0
 23 40  1  1
 24 41  1  0
 24 42  1  0
 24 43  1  0
 25 44  1  0
M  END
>  <UniqueID>  (63) 
58

>  <SMILES>  (63) 
Cc1cc2c(nn1)nc(SCC(=O)Nc1ccccc1)n2C[C@@H](C)O

>  <Energy>  (63) 
79.04077049175744

>  <Genealogy>  (63) 
Cc1cc2c(nn1)nc(SCC(=O)Nc1ccccc1)n2C[C@@H](C)O (chirality)
Cc1cc2c(nn1)nc(SCC(=O)Nc1ccccc1)n2C[C@@H](C)O (3D coordinates assigned)
Cc1cc2c(nn1)nc(SCC(=O)Nc1ccccc1)n2C[C@@H](C)O (optimized conformer: 79.04077049175744 kcal/mol)

>  <smiles>  (63) 
Cc1cc2c(nn1)nc(SCC(=O)Nc1ccccc1)n2CC(C)O

>  <score_type>  (63) 
oracle

>  <origin>  (63) 
adg

>  <m_score__min__energy>  (63) 
-8.3100000000000005

>  <m_primary>  (63) 
energy

$$$$
63:0
     RDKit          3D

 49 52  0  0  0  0  0  0  0  0999 V2000
   58.0010   26.8460   43.1170 C   0  0  0  0  0  0  0  0  0  0  0  0
   58.1070   27.7530   44.0940 C   0  0  0  0  0  0  0  0  0  0  0  0
   58.1090   29.0770   43.8360 N   0  0  0  0  0  0  0  0  0  0  0  0
   58.0720   29.7140   45.0210 C   0  0  0  0  0  0  0  0  0  0  0  0
   58.0830   31.1800   45.1830 C   0  0  0  0  0  0  0  0  0  0  0  0
   58.0320   31.9080   44.1540 O   0  0  0  0  0  0  0  0  0  0  0  0
   58.1660   31.7910   46.4840 N   0  0  0  0  0  0  0  0  0  0  0  0
   59.0800   31.2540   47.5020 C   0  0  0  0  0  0  0  0  0  0  0  0
   59.5810   32.3730   48.4240 C   0  0  0  0  0  0  0  0  0  0  0  0
   59.8110   33.5920   47.6270 N   0  0  0  0  0  0  0  0  0  0  0  0
   60.5650   34.5900   48.4100 C   0  0  0  0  0  0  0  0  0  0  0  0
   61.9380   34.0710   48.7570 C   0  0  0  0  0  0  0  0  0  0  0  0
   62.4300   34.1770   50.0680 C   0  0  0  0  0  0  0  0  0  0  0  0
   63.7170   33.7220   50.3750 C   0  0  0  0  0  0  0  0  0  0  0  0
   64.5200   33.1650   49.3760 C   0  0  0  0  0  0  0  0  0  0  0  0
   65.7670   32.7260   49.6750 F   0  0  0  0  0  0  0  0  0  0  0  0
   64.0380   33.0630   48.0670 C   0  0  0  0  0  0  0  0  0  0  0  0
   62.7520   33.5160   47.7580 C   0  0  0  0  0  0  0  0  0  0  0  0
   58.5320   34.1550   47.1200 C   0  0  0  0  0  0  0  0  0  0  0  0
   57.5000   33.0720   46.7450 C   0  0  0  0  0  0  0  0  0  0  0  0
   58.0710   28.8010   46.0580 C   0  0  0  0  0  0  0  0  0  0  0  0
   58.1170   27.5420   45.4810 C   0  0  0  0  0  0  0  0  0  0  0  0
   58.1700   26.4080   46.2050 C   0  0  0  0  0  0  0  0  0  0  0  0
   57.0640   25.4560   46.3900 C   0  0  0  0  0  0  0  0  0  0  0  0
   57.2400   24.1330   46.5490 N   0  0  0  0  0  0  0  0  0  0  0  0
   55.9790   23.6490   46.5430 C   0  0  0  0  0  0  0  0  0  0  0  0
   55.7230   22.4250   46.6870 O   0  0  0  0  0  0  0  0  0  0  0  0
   55.0150   24.5770   46.3610 N   0  0  0  0  0  0  0  0  0  0  0  0
   55.7200   25.7140   46.2490 C   0  0  0  0  0  0  0  0  0  0  0  0
   55.1480   26.9560   45.9990 O   0  0  0  0  0  0  0  0  0  0  0  0
   58.0025   25.7732   43.3600 H   0  0  0  0  0  0  0  0  0  0  0  0
   57.9124   27.1728   42.0704 H   0  0  0  0  0  0  0  0  0  0  0  0
   58.1360   29.5240   42.8920 H   0  0  0  0  0  0  0  0  0  0  0  0
   58.5491   30.5012   48.1031 H   0  0  0  0  0  0  0  0  0  0  0  0
   59.9442   30.7981   46.9967 H   0  0  0  0  0  0  0  0  0  0  0  0
   58.8269   32.5767   49.1985 H   0  0  0  0  0  0  0  0  0  0  0  0
   60.5208   32.0629   48.9042 H   0  0  0  0  0  0  0  0  0  0  0  0
   60.6666   35.5114   47.8178 H   0  0  0  0  0  0  0  0  0  0  0  0
   60.0183   34.7932   49.3427 H   0  0  0  0  0  0  0  0  0  0  0  0
   61.8020   34.6189   50.8556 H   0  0  0  0  0  0  0  0  0  0  0  0
   64.0973   33.8028   51.4040 H   0  0  0  0  0  0  0  0  0  0  0  0
   64.6709   32.6262   47.2805 H   0  0  0  0  0  0  0  0  0  0  0  0
   62.3766   33.4370   46.7271 H   0  0  0  0  0  0  0  0  0  0  0  0
   58.0980   34.7965   47.9011 H   0  0  0  0  0  0  0  0  0  0  0  0
   58.7625   34.7192   46.2042 H   0  0  0  0  0  0  0  0  0  0  0  0
   56.7893   32.9472   47.5753 H   0  0  0  0  0  0  0  0  0  0  0  0
   56.9702   33.3878   45.8342 H   0  0  0  0  0  0  0  0  0  0  0  0
   58.0397   29.0294   47.1336 H   0  0  0  0  0  0  0  0  0  0  0  0
   59.1232   26.1731   46.7013 H   0  0  0  0  0  0  0  0  0  0  0  0
  1  2  2  0
  2  3  1  0
  3  4  1  0
  4  5  1  0
  5  6  2  0
  5  7  1  0
  7  8  1  0
  8  9  1  0
  9 10  1  0
 10 11  1  0
 11 12  1  0
 12 13  2  0
 13 14  1  0
 14 15  2  0
 15 16  1  0
 15 17  1  0
 17 18  2  0
 10 19  1  0
 19 20  1  0
  4 21  2  0
 21 22  1  0
 22 23  2  3
 23 24  1  0
 24 25  1  0
 25 26  1  0
 26 27  2  0
 26 28  1  0
 28 29  1  0
 29 30  1  0
 22  2  1  0
 29 24  2  0
 20  7  1  0
 18 12  1  0
  1 31  1  0
  1 32  1  0
  3 33  1  0
  8 34  1  0
  8 35  1  0
  9 36  1  0
  9 37  1  0
 11 38  1  0
 11 39  1  0
 13 40  1  0
 14 41  1  0
 17 42  1  0
 18 43  1  0
 19 44  1  0
 19 45  1  0
 20 46  1  0
 20 47  1  0
 21 48  1  0
 23 49  1  0
M  CHG  3  25  -1  28  -1  30  -1
M  END
>  <UniqueID>  (64) 
59

>  <SMILES>  (64) 
C=c1[nH]c(C(=O)N2CCN(Cc3ccc(F)cc3)CC2)cc1=Cc1[n-]c(=O)[n-]c1[O-]

>  <Energy>  (64) 
130.096993716899

>  <Genealogy>  (64) 
C=c1[nH]c(C(=O)N2CCN(Cc3ccc(F)cc3)CC2)cc1=Cc1[n-]c(=O)[n-]c1[O-] (protonated)
C=c1[nH]c(C(=O)N2CCN(Cc3ccc(F)cc3)CC2)cc1=Cc1[n-]c(=O)[n-]c1[O-] (3D coordinates assigned)
C=c1[nH]c(C(=O)N2CCN(Cc3ccc(F)cc3)CC2)cc1=Cc1[n-]c(=O)[n-]c1[O-] (nonaromatic ring conformer: 130.096993716899 kcal/mol)

>  <smiles>  (64) 
C=c1[nH]c(C(=O)N2CCN(Cc3ccc(F)cc3)CC2)cc1=Cc1[nH]c(=O)[nH]c1O

>  <score_type>  (64) 
oracle

>  <origin>  (64) 
adg

>  <m_score__min__energy>  (64) 
-17.710000000000001

>  <m_primary>  (64) 
energy

$$$$
64:0
     RDKit          3D

 42 44  0  0  0  0  0  0  0  0999 V2000
   60.5215   26.3237   46.3701 H   0  0  0  0  0  0  0  0  0  0  0  0
   59.6460   26.8430   46.7870 C   0  0  0  0  0  0  0  0  0  0  0  0
   59.8570   27.6530   48.0070 C   0  0  0  0  0  0  0  0  0  0  0  0
   60.0280   27.1000   49.1270 O   0  0  0  0  0  0  0  0  0  0  0  0
   59.9110   29.0820   47.9000 N   0  0  0  0  0  0  0  0  0  0  0  0
   59.7420   29.5300   46.9710 H   0  0  0  0  0  0  0  0  0  0  0  0
   60.1740   29.9450   49.0490 C   0  0  0  0  0  0  0  0  0  0  0  0
   59.2889   30.5684   49.2440 H   0  0  0  0  0  0  0  0  0  0  0  0
   60.3941   29.3162   49.9243 H   0  0  0  0  0  0  0  0  0  0  0  0
   61.3600   30.8370   48.7770 C   0  0  0  0  0  0  0  0  0  0  0  0
   62.3760   30.9640   49.7380 C   0  0  0  0  0  0  0  0  0  0  0  0
   62.2970   30.4231   50.6925 H   0  0  0  0  0  0  0  0  0  0  0  0
   63.4870   31.7740   49.4880 C   0  0  0  0  0  0  0  0  0  0  0  0
   64.2746   31.8759   50.2491 H   0  0  0  0  0  0  0  0  0  0  0  0
   63.5990   32.4540   48.2740 C   0  0  0  0  0  0  0  0  0  0  0  0
   64.4768   33.0872   48.0777 H   0  0  0  0  0  0  0  0  0  0  0  0
   62.5980   32.3310   47.3090 C   0  0  0  0  0  0  0  0  0  0  0  0
   62.6966   32.8597   46.3495 H   0  0  0  0  0  0  0  0  0  0  0  0
   61.4630   31.5350   47.5550 C   0  0  0  0  0  0  0  0  0  0  0  0
   60.4560   31.3810   46.5880 O   0  0  0  0  0  0  0  0  0  0  0  0
   59.4780   32.3330   46.2720 C   0  0  0  0  0  0  0  0  0  0  0  0
   58.1140   32.1190   46.5460 C   0  0  0  0  0  0  0  0  0  0  0  0
   57.7920   31.1877   47.0349 H   0  0  0  0  0  0  0  0  0  0  0  0
   57.1670   33.0880   46.1980 C   0  0  0  0  0  0  0  0  0  0  0  0
   56.1031   32.9214   46.4224 H   0  0  0  0  0  0  0  0  0  0  0  0
   57.5700   34.2670   45.5660 C   0  0  0  0  0  0  0  0  0  0  0  0
   56.8249   35.0310   45.2992 H   0  0  0  0  0  0  0  0  0  0  0  0
   58.9210   34.4750   45.2730 C   0  0  0  0  0  0  0  0  0  0  0  0
   59.2379   35.4000   44.7691 H   0  0  0  0  0  0  0  0  0  0  0  0
   59.8700   33.5080   45.6200 C   0  0  0  0  0  0  0  0  0  0  0  0
   60.9307   33.6718   45.3791 H   0  0  0  0  0  0  0  0  0  0  0  0
   58.4780   26.6880   46.1460 C   0  0  0  0  0  0  0  0  0  0  0  0
   58.0920   25.6640   46.0340 H   0  0  0  0  0  0  0  0  0  0  0  0
   57.6690   27.7890   45.5780 C   0  0  0  0  0  0  0  0  0  0  0  0
   56.2640   27.7570   45.6020 C   0  0  0  0  0  0  0  0  0  0  0  0
   55.5860   26.6720   46.1460 O   0  0  0  0  0  0  0  0  0  0  0  0
   55.5540   28.8000   45.1000 N   0  0  0  0  0  0  0  0  0  0  0  0
   56.1790   29.8920   44.5880 C   0  0  0  0  0  0  0  0  0  0  0  0
   55.5000   30.8450   44.1260 O   0  0  0  0  0  0  0  0  0  0  0  0
   57.5340   29.9580   44.5800 N   0  0  0  0  0  0  0  0  0  0  0  0
   58.2900   28.9410   45.0690 C   0  0  0  0  0  0  0  0  0  0  0  0
   59.5460   29.0400   45.0510 O   0  0  0  0  0  0  0  0  0  0  0  0
  1  2  1  0
  2  3  1  0
  3  4  2  0
  3  5  1  0
  5  6  1  0
  5  7  1  0
  7  8  1  0
  7  9  1  0
  7 10  1  0
 10 11  2  0
 11 12  1  0
 11 13  1  0
 13 14  1  0
 13 15  2  0
 15 16  1  0
 15 17  1  0
 17 18  1  0
 17 19  2  0
 19 20  1  0
 20 21  1  0
 21 22  2  0
 22 23  1  0
 22 24  1  0
 24 25  1  0
 24 26  2  0
 26 27  1  0
 26 28  1  0
 28 29  1  0
 28 30  2  0
 30 31  1  0
  2 32  2  0
 32 33  1  0
 32 34  1  0
 34 35  2  0
 35 36  1  0
 35 37  1  0
 37 38  1  0
 38 39  2  0
 38 40  1  0
 40 41  1  0
 41 42  2  0
 19 10  1  0
 30 21  1  0
 41 34  1  0
M  CHG  3  36  -1  37  -1  40  -1
M  END
>  <UniqueID>  (65) 
60

>  <SMILES>  (65) 
O=C(/C=C\c1c([O-])[n-]c(=O)[n-]c1=O)NCc1ccccc1Oc1ccccc1

>  <Energy>  (65) 
59.41351733556436

>  <Genealogy>  (65) 
O=C(C=Cc1c([O-])[n-]c(=O)[n-]c1=O)NCc1ccccc1Oc1ccccc1 (protonated)
O=C(/C=C\c1c([O-])[n-]c(=O)[n-]c1=O)NCc1ccccc1Oc1ccccc1 (cis-trans isomerization)
O=C(/C=C\c1c([O-])[n-]c(=O)[n-]c1=O)NCc1ccccc1Oc1ccccc1 (3D coordinates assigned)
O=C(/C=C\c1c([O-])[n-]c(=O)[n-]c1=O)NCc1ccccc1Oc1ccccc1 (optimized conformer: 59.41351733556436 kcal/mol)

>  <smiles>  (65) 
O=C(C=Cc1c(O)[nH]c(=O)[nH]c1=O)NCc1ccccc1Oc1ccccc1

>  <score_type>  (65) 
oracle

>  <origin>  (65) 
adg

>  <m_score__min__energy>  (65) 
-16.41

>  <m_primary>  (65) 
energy

$$$$
65:0
     RDKit          3D

 57 60  0  0  0  0  0  0  0  0999 V2000
   55.3308   30.8727   53.8226 H   0  0  0  0  0  0  0  0  0  0  0  0
   55.3870   30.4020   52.8300 C   0  0  0  0  0  0  0  0  0  0  0  0
   56.6490   30.5560   52.0830 C   0  0  0  0  0  0  0  0  0  0  0  0
   57.3880   29.5480   51.9300 O   0  0  0  0  0  0  0  0  0  0  0  0
   57.0020   31.8000   51.4650 N   0  0  0  0  0  0  0  0  0  0  0  0
   56.2820   32.5580   51.4090 H   0  0  0  0  0  0  0  0  0  0  0  0
   58.3210   31.9990   50.8660 C   0  0  0  0  0  0  0  0  0  0  0  0
   59.0886   31.6335   51.5640 H   0  0  0  0  0  0  0  0  0  0  0  0
   58.4496   33.0732   50.6672 H   0  0  0  0  0  0  0  0  0  0  0  0
   58.4580   31.2460   49.5370 C   0  0  0  0  0  0  0  0  0  0  0  0
   58.8895   31.9236   48.7856 H   0  0  0  0  0  0  0  0  0  0  0  0
   57.4583   30.9048   49.2302 H   0  0  0  0  0  0  0  0  0  0  0  0
   59.3630   30.0160   49.6760 C   0  0  0  0  0  0  0  0  0  0  0  0
   58.8744   29.1554   49.1958 H   0  0  0  0  0  0  0  0  0  0  0  0
   59.5254   29.8235   50.7468 H   0  0  0  0  0  0  0  0  0  0  0  0
   60.7260   30.2500   49.0140 C   0  0  0  0  0  0  0  0  0  0  0  0
   61.3974   29.4140   49.2596 H   0  0  0  0  0  0  0  0  0  0  0  0
   61.1490   31.1940   49.3879 H   0  0  0  0  0  0  0  0  0  0  0  0
   60.5750   30.3370   47.5670 N   0  0  0  0  0  0  0  0  0  0  0  0
   59.6540   30.7980   46.7530 C   0  0  0  0  0  0  0  0  0  0  0  0
   59.4390   32.1860   46.4280 C   0  0  0  0  0  0  0  0  0  0  0  0
   60.3140   33.2540   46.7560 C   0  0  0  0  0  0  0  0  0  0  0  0
   61.2543   33.0366   47.2839 H   0  0  0  0  0  0  0  0  0  0  0  0
   60.0070   34.5750   46.4230 C   0  0  0  0  0  0  0  0  0  0  0  0
   60.6995   35.3827   46.7025 H   0  0  0  0  0  0  0  0  0  0  0  0
   58.8350   34.8780   45.7420 C   0  0  0  0  0  0  0  0  0  0  0  0
   58.5892   35.9230   45.5022 H   0  0  0  0  0  0  0  0  0  0  0  0
   57.9740   33.8530   45.3650 C   0  0  0  0  0  0  0  0  0  0  0  0
   57.0512   34.0897   44.8151 H   0  0  0  0  0  0  0  0  0  0  0  0
   58.2730   32.5230   45.6800 C   0  0  0  0  0  0  0  0  0  0  0  0
   57.4380   31.5610   45.2280 N   0  0  0  0  0  0  0  0  0  0  0  0
   57.6500   30.2430   45.4440 C   0  0  0  0  0  0  0  0  0  0  0  0
   56.7510   29.2960   44.9130 C   0  0  0  0  0  0  0  0  0  0  0  0
   55.5520   29.7350   44.1160 C   0  0  0  0  0  0  0  0  0  0  0  0
   54.7442   30.0307   44.8016 H   0  0  0  0  0  0  0  0  0  0  0  0
   55.8265   30.5909   43.4820 H   0  0  0  0  0  0  0  0  0  0  0  0
   55.2090   28.9041   43.4820 H   0  0  0  0  0  0  0  0  0  0  0  0
   56.9640   27.9330   45.1530 C   0  0  0  0  0  0  0  0  0  0  0  0
   56.2602   27.1903   44.7493 H   0  0  0  0  0  0  0  0  0  0  0  0
   58.0620   27.5120   45.9000 C   0  0  0  0  0  0  0  0  0  0  0  0
   58.2249   26.4386   46.0770 H   0  0  0  0  0  0  0  0  0  0  0  0
   58.9550   28.4450   46.4240 C   0  0  0  0  0  0  0  0  0  0  0  0
   59.8179   28.1002   47.0126 H   0  0  0  0  0  0  0  0  0  0  0  0
   58.7650   29.8300   46.2080 C   0  0  0  0  0  0  0  0  0  0  0  0
   54.3010   29.7380   52.4050 C   0  0  0  0  0  0  0  0  0  0  0  0
   54.2242   28.6777   52.6876 H   0  0  0  0  0  0  0  0  0  0  0  0
   53.1960   30.2960   51.5920 C   0  0  0  0  0  0  0  0  0  0  0  0
   52.8180   29.7280   50.3590 C   0  0  0  0  0  0  0  0  0  0  0  0
   53.3104   28.8107   50.0038 H   0  0  0  0  0  0  0  0  0  0  0  0
   51.8190   30.3270   49.5860 C   0  0  0  0  0  0  0  0  0  0  0  0
   51.5133   29.8685   48.6340 H   0  0  0  0  0  0  0  0  0  0  0  0
   51.2080   31.5060   50.0190 C   0  0  0  0  0  0  0  0  0  0  0  0
   50.4162   31.9703   49.4128 H   0  0  0  0  0  0  0  0  0  0  0  0
   51.6030   32.0950   51.2220 C   0  0  0  0  0  0  0  0  0  0  0  0
   51.0240   33.2890   51.6340 O   0  0  0  0  0  0  0  0  0  0  0  0
   52.5910   31.4920   52.0060 C   0  0  0  0  0  0  0  0  0  0  0  0
   52.8961   31.9587   52.9542 H   0  0  0  0  0  0  0  0  0  0  0  0
  1  2  1  0
  2  3  1  0
  3  4  2  0
  3  5  1  0
  5  6  1  0
  5  7  1  0
  7  8  1  0
  7  9  1  0
  7 10  1  0
 10 11  1  0
 10 12  1  0
 10 13  1  0
 13 14  1  0
 13 15  1  0
 13 16  1  0
 16 17  1  0
 16 18  1  0
 16 19  1  0
 19 20  2  0
 20 21  1  0
 21 22  2  0
 22 23  1  0
 22 24  1  0
 24 25  1  0
 24 26  2  0
 26 27  1  0
 26 28  1  0
 28 29  1  0
 28 30  2  0
 30 31  1  0
 31 32  1  0
 32 33  2  0
 33 34  1  0
 34 35  1  0
 34 36  1  0
 34 37  1  0
 33 38  1  0
 38 39  1  0
 38 40  2  0
 40 41  1  0
 40 42  1  0
 42 43  1  0
 42 44  2  0
  2 45  2  3
 45 46  1  0
 45 47  1  0
 47 48  2  0
 48 49  1  0
 48 50  1  0
 50 51  1  0
 50 52  2  0
 52 53  1  0
 52 54  1  0
 54 55  1  0
 54 56  2  0
 56 57  1  0
 44 20  1  0
 56 47  1  0
 30 21  1  0
 44 32  1  0
M  CHG  2  31  -1  55  -1
M  END
>  <UniqueID>  (66) 
61

>  <SMILES>  (66) 
Cc1cccc2/c(=N/CCCCNC(=O)C=Cc3cccc([O-])c3)c3ccccc3[n-]c12

>  <Energy>  (66) 
81.18419166372662

>  <Genealogy>  (66) 
Cc1cccc2c(=NCCCCNC(=O)C=Cc3cccc([O-])c3)c3ccccc3[n-]c12 (protonated)
Cc1cccc2/c(=N/CCCCNC(=O)C=Cc3cccc([O-])c3)c3ccccc3[n-]c12 (cis-trans isomerization)
Cc1cccc2/c(=N/CCCCNC(=O)C=Cc3cccc([O-])c3)c3ccccc3[n-]c12 (3D coordinates assigned)
Cc1cccc2/c(=N/CCCCNC(=O)C=Cc3cccc([O-])c3)c3ccccc3[n-]c12 (optimized conformer: 81.18419166372662 kcal/mol)

>  <smiles>  (66) 
Cc1cccc2c(=NCCCCNC(=O)C=Cc3cccc(O)c3)c3ccccc3[nH]c12

>  <score_type>  (66) 
oracle

>  <origin>  (66) 
adg

>  <m_score__min__energy>  (66) 
-15.65

>  <m_primary>  (66) 
energy

$$$$
66:0
     RDKit          3D

 33 35  0  0  0  0  0  0  0  0999 V2000
   59.1410   28.2640   47.5100 C   0  0  0  0  0  0  0  0  0  0  0  0
   58.0300   28.2290   46.7770 C   0  0  0  0  0  0  0  0  0  0  0  0
   57.5610   29.3690   45.9570 C   0  0  0  0  0  0  0  0  0  0  0  0
   58.3250   30.5470   45.9580 C   0  0  0  0  0  0  0  0  0  0  0  0
   57.9310   31.6670   45.2050 C   0  0  0  0  0  0  0  0  0  0  0  0
   58.7520   32.9010   45.1850 C   0  0  0  0  0  0  0  0  0  0  0  0
   59.0150   33.4400   44.0760 O   0  0  0  0  0  0  0  0  0  0  0  0
   59.2460   33.5340   46.4270 C   0  0  0  0  0  0  0  0  0  0  0  0
   58.6030   34.5220   47.1720 C   0  0  0  0  0  0  0  0  0  0  0  0
   59.3720   34.9070   48.2160 N   0  0  0  0  0  0  0  0  0  0  0  0
   60.4980   34.1780   48.1370 C   0  0  0  0  0  0  0  0  0  0  0  0
   61.5920   34.2280   48.9970 C   0  0  0  0  0  0  0  0  0  0  0  0
   62.6780   33.3740   48.7320 C   0  0  0  0  0  0  0  0  0  0  0  0
   62.6470   32.4950   47.6270 C   0  0  0  0  0  0  0  0  0  0  0  0
   63.7330   31.6550   47.3900 O   0  0  0  0  0  0  0  0  0  0  0  0
   61.5250   32.4690   46.7720 C   0  0  0  0  0  0  0  0  0  0  0  0
   60.4640   33.3320   47.0570 C   0  0  0  0  0  0  0  0  0  0  0  0
   56.7630   31.5910   44.4310 C   0  0  0  0  0  0  0  0  0  0  0  0
   55.9820   30.4350   44.4430 C   0  0  0  0  0  0  0  0  0  0  0  0
   56.3630   29.3310   45.2110 C   0  0  0  0  0  0  0  0  0  0  0  0
   55.5270   28.2190   45.2450 O   0  0  0  0  0  0  0  0  0  0  0  0
   59.4389   27.3844   48.0996 H   0  0  0  0  0  0  0  0  0  0  0  0
   59.7610   29.1725   47.5260 H   0  0  0  0  0  0  0  0  0  0  0  0
   57.4305   27.3067   46.7809 H   0  0  0  0  0  0  0  0  0  0  0  0
   59.2462   30.5943   46.5573 H   0  0  0  0  0  0  0  0  0  0  0  0
   57.6082   34.9315   46.9424 H   0  0  0  0  0  0  0  0  0  0  0  0
   59.1380   35.6310   48.9300 H   0  0  0  0  0  0  0  0  0  0  0  0
   61.6066   34.9139   49.8568 H   0  0  0  0  0  0  0  0  0  0  0  0
   63.5587   33.3910   49.3909 H   0  0  0  0  0  0  0  0  0  0  0  0
   64.5820   31.9980   46.9550 H   0  0  0  0  0  0  0  0  0  0  0  0
   61.4868   31.7900   45.9074 H   0  0  0  0  0  0  0  0  0  0  0  0
   56.4613   32.4481   43.8110 H   0  0  0  0  0  0  0  0  0  0  0  0
   55.0603   30.3921   43.8441 H   0  0  0  0  0  0  0  0  0  0  0  0
  1  2  2  0
  2  3  1  0
  3  4  2  0
  4  5  1  0
  5  6  1  0
  6  7  2  0
  6  8  1  0
  8  9  2  0
  9 10  1  0
 10 11  1  0
 11 12  2  0
 12 13  1  0
 13 14  2  0
 14 15  1  0
 14 16  1  0
 16 17  2  0
  5 18  2  0
 18 19  1  0
 19 20  2  0
 20 21  1  0
 20  3  1  0
 17  8  1  0
 17 11  1  0
  1 22  1  0
  1 23  1  0
  2 24  1  0
  4 25  1  0
  9 26  1  0
 10 27  1  0
 12 28  1  0
 13 29  1  0
 15 30  1  0
 16 31  1  0
 18 32  1  0
 19 33  1  0
M  CHG  1  21  -1
M  END
>  <UniqueID>  (67) 
62

>  <SMILES>  (67) 
C=Cc1cc(C(=O)c2c[nH]c3ccc(O)cc23)ccc1[O-]

>  <Energy>  (67) 
77.36972370846854

>  <Genealogy>  (67) 
C=Cc1cc(C(=O)c2c[nH]c3ccc(O)cc23)ccc1[O-] (protonated)
C=Cc1cc(C(=O)c2c[nH]c3ccc(O)cc23)ccc1[O-] (3D coordinates assigned)
C=Cc1cc(C(=O)c2c[nH]c3ccc(O)cc23)ccc1[O-] (optimized conformer: 77.36972370846854 kcal/mol)

>  <smiles>  (67) 
C=Cc1cc(C(=O)c2c[nH]c3ccc(O)cc23)ccc1O

>  <score_type>  (67) 
oracle

>  <origin>  (67) 
adg

>  <m_score__min__energy>  (67) 
-10.66

>  <m_primary>  (67) 
energy

$$$$
67:0
     RDKit          3D

 71 75  0  0  0  0  0  0  0  0999 V2000
   60.9870   27.0890   49.3030 C   0  0  0  0  0  0  0  0  0  0  0  0
   60.5690   28.2350   49.8830 C   0  0  0  0  0  0  0  0  0  0  0  0
   60.6690   28.3260   51.3940 C   0  0  1  0  0  0  0  0  0  0  0  0
   62.0580   28.7170   51.8360 C   0  0  0  0  0  0  0  0  0  0  0  0
   62.8220   29.7330   51.3000 C   0  0  0  0  0  0  0  0  0  0  0  0
   64.0220   29.6980   51.9800 C   0  0  0  0  0  0  0  0  0  0  0  0
   64.0030   28.7250   52.8630 O   0  0  0  0  0  0  0  0  0  0  0  0
   62.8430   28.1130   52.8000 C   0  0  0  0  0  0  0  0  0  0  0  0
   59.6130   29.2790   51.9410 C   0  0  0  0  0  0  0  0  0  0  0  0
   59.6650   30.6010   51.2410 C   0  0  0  0  0  0  0  0  0  0  0  0
   59.7990   30.7020   49.8930 C   0  0  0  0  0  0  0  0  0  0  0  0
   59.9320   29.3780   49.0480 C   0  0  2  0  0  0  0  0  0  0  0  0
   58.5190   28.8920   48.6400 C   0  0  0  0  0  0  0  0  0  0  0  0
   60.8120   29.5750   47.7550 C   0  0  0  0  0  0  0  0  0  0  0  0
   60.7800   30.9660   47.1980 C   0  0  0  0  0  0  0  0  0  0  0  0
   60.5530   31.1640   46.0150 O   0  0  0  0  0  0  0  0  0  0  0  0
   60.9710   32.0800   48.1870 C   0  0  1  0  0  0  0  0  0  0  0  0
   61.4640   33.4830   47.6900 C   0  0  1  0  0  0  0  0  0  0  0  0
   62.6930   33.3250   46.7580 C   0  0  0  0  0  0  0  0  0  0  0  0
   60.3770   34.2210   46.9160 C   0  0  0  0  0  0  0  0  0  0  0  0
   60.0350   35.3850   47.2670 O   0  0  0  0  0  0  0  0  0  0  0  0
   59.7610   33.6250   45.8080 O   0  0  0  0  0  0  0  0  0  0  0  0
   58.4410   33.9390   45.3700 C   0  0  0  0  0  0  0  0  0  0  0  0
   58.1640   33.3440   43.9870 C   0  0  0  0  0  0  0  0  0  0  0  0
   57.7250   31.9070   44.0920 C   0  0  0  0  0  0  0  0  0  0  0  0
   57.1260   31.2650   42.9950 C   0  0  0  0  0  0  0  0  0  0  0  0
   56.6740   29.9470   43.1100 C   0  0  0  0  0  0  0  0  0  0  0  0
   56.8160   29.2620   44.3210 C   0  0  0  0  0  0  0  0  0  0  0  0
   57.4040   29.8960   45.4180 C   0  0  0  0  0  0  0  0  0  0  0  0
   57.8540   31.2150   45.3090 C   0  0  0  0  0  0  0  0  0  0  0  0
   61.9330   34.3070   48.9500 C   0  0  0  0  0  0  0  0  0  0  0  0
   61.2990   33.8590   50.2930 C   0  0  0  0  0  0  0  0  0  0  0  0
   59.8640   33.3710   50.0980 C   0  0  0  0  0  0  0  0  0  0  0  0
   59.7580   32.0940   49.1730 C   0  0  2  0  0  0  0  0  0  0  0  0
   58.3880   32.2100   48.4360 C   0  0  0  0  0  0  0  0  0  0  0  0
   60.9346   26.9747   48.2102 H   0  0  0  0  0  0  0  0  0  0  0  0
   61.3798   26.2700   49.9235 H   0  0  0  0  0  0  0  0  0  0  0  0
   60.4733   27.3271   51.8111 H   0  0  0  0  0  0  0  0  0  0  0  0
   62.5341   30.4272   50.4968 H   0  0  0  0  0  0  0  0  0  0  0  0
   64.8669   30.3813   51.8089 H   0  0  0  0  0  0  0  0  0  0  0  0
   62.5429   27.2539   53.4179 H   0  0  0  0  0  0  0  0  0  0  0  0
   58.6176   28.8342   51.7950 H   0  0  0  0  0  0  0  0  0  0  0  0
   59.8106   29.4423   53.0107 H   0  0  0  0  0  0  0  0  0  0  0  0
   59.5923   31.5218   51.8383 H   0  0  0  0  0  0  0  0  0  0  0  0
   57.9262   28.6881   49.5439 H   0  0  0  0  0  0  0  0  0  0  0  0
   58.0216   29.6707   48.0432 H   0  0  0  0  0  0  0  0  0  0  0  0
   58.6058   27.9721   48.0432 H   0  0  0  0  0  0  0  0  0  0  0  0
   61.8541   29.3273   48.0055 H   0  0  0  0  0  0  0  0  0  0  0  0
   60.3918   28.9146   46.9822 H   0  0  0  0  0  0  0  0  0  0  0  0
   61.8945   31.8258   48.7278 H   0  0  0  0  0  0  0  0  0  0  0  0
   63.6019   33.2081   47.3664 H   0  0  0  0  0  0  0  0  0  0  0  0
   62.5600   32.4366   46.1232 H   0  0  0  0  0  0  0  0  0  0  0  0
   62.7890   34.2182   46.1232 H   0  0  0  0  0  0  0  0  0  0  0  0
   57.7166   33.5291   46.0892 H   0  0  0  0  0  0  0  0  0  0  0  0
   58.3448   35.0329   45.3058 H   0  0  0  0  0  0  0  0  0  0  0  0
   57.3700   33.9272   43.4976 H   0  0  0  0  0  0  0  0  0  0  0  0
   59.0921   33.3832   43.3979 H   0  0  0  0  0  0  0  0  0  0  0  0
   57.0122   31.8017   42.0416 H   0  0  0  0  0  0  0  0  0  0  0  0
   56.2066   29.4487   42.2479 H   0  0  0  0  0  0  0  0  0  0  0  0
   56.4645   28.2235   44.4096 H   0  0  0  0  0  0  0  0  0  0  0  0
   57.5132   29.3560   46.3701 H   0  0  0  0  0  0  0  0  0  0  0  0
   58.3101   31.7127   46.1775 H   0  0  0  0  0  0  0  0  0  0  0  0
   63.0250   34.2073   49.0370 H   0  0  0  0  0  0  0  0  0  0  0  0
   61.6038   35.3431   48.7825 H   0  0  0  0  0  0  0  0  0  0  0  0
   61.9003   33.0414   50.7173 H   0  0  0  0  0  0  0  0  0  0  0  0
   61.2807   34.7240   50.9723 H   0  0  0  0  0  0  0  0  0  0  0  0
   59.4422   33.1242   51.0835 H   0  0  0  0  0  0  0  0  0  0  0  0
   59.3095   34.1804   49.6006 H   0  0  0  0  0  0  0  0  0  0  0  0
   57.5778   32.2786   49.1768 H   0  0  0  0  0  0  0  0  0  0  0  0
   58.3859   33.1115   47.8057 H   0  0  0  0  0  0  0  0  0  0  0  0
   58.2343   31.3217   47.8057 H   0  0  0  0  0  0  0  0  0  0  0  0
  1  2  2  0
  2  3  1  0
  3  4  1  0
  4  5  1  0
  5  6  2  0
  6  7  1  0
  7  8  1  0
  3  9  1  0
  9 10  1  0
 10 11  2  0
 11 12  1  0
 12 13  1  6
 12 14  1  0
 14 15  1  0
 15 16  2  0
 15 17  1  0
 17 18  1  0
 18 19  1  6
 18 20  1  0
 20 21  2  0
 20 22  1  0
 22 23  1  0
 23 24  1  0
 24 25  1  0
 25 26  2  0
 26 27  1  0
 27 28  2  0
 28 29  1  0
 29 30  2  0
 18 31  1  0
 31 32  1  0
 32 33  1  0
 33 34  1  0
 34 35  1  6
 12  2  1  0
 34 17  1  0
  8  4  2  0
 34 11  1  0
 30 25  1  0
  1 36  1  0
  1 37  1  0
  3 38  1  1
  5 39  1  0
  6 40  1  0
  8 41  1  0
  9 42  1  0
  9 43  1  0
 10 44  1  0
 13 45  1  0
 13 46  1  0
 13 47  1  0
 14 48  1  0
 14 49  1  0
 17 50  1  1
 19 51  1  0
 19 52  1  0
 19 53  1  0
 23 54  1  0
 23 55  1  0
 24 56  1  0
 24 57  1  0
 26 58  1  0
 27 59  1  0
 28 60  1  0
 29 61  1  0
 30 62  1  0
 31 63  1  0
 31 64  1  0
 32 65  1  0
 32 66  1  0
 33 67  1  0
 33 68  1  0
 35 69  1  0
 35 70  1  0
 35 71  1  0
M  END
>  <UniqueID>  (68) 
63

>  <SMILES>  (68) 
C=C1[C@@H](c2ccoc2)CC=C2C3(C)CCCC(C)(C(=O)OCCc4ccccc4)C3C(=O)C[C@@]12C

>  <Energy>  (68) 
133.55606237449004

>  <Genealogy>  (68) 
C=C1[C@@H](c2ccoc2)CC=C2C3(C)CCCC(C)(C(=O)OCCc4ccccc4)C3C(=O)C[C@@]12C (chirality)
C=C1[C@@H](c2ccoc2)CC=C2C3(C)CCCC(C)(C(=O)OCCc4ccccc4)C3C(=O)C[C@@]12C (3D coordinates assigned)
C=C1[C@@H](c2ccoc2)CC=C2C3(C)CCCC(C)(C(=O)OCCc4ccccc4)C3C(=O)C[C@@]12C (nonaromatic ring conformer: 133.55606237449004 kcal/mol)

>  <smiles>  (68) 
C=C1C(c2ccoc2)CC=C2C1(C)CC(=O)C1C(C)(C(=O)OCCc3ccccc3)CCCC21C

>  <score_type>  (68) 
oracle

>  <origin>  (68) 
adg

>  <m_score__min__energy>  (68) 
-8.8599999999999994

>  <m_primary>  (68) 
energy

$$$$
68:0
     RDKit          3D

 62 66  0  0  0  0  0  0  0  0999 V2000
   60.6820   26.6350   46.3720 C   0  0  0  0  0  0  0  0  0  0  0  0
   59.7030   27.5430   46.2990 C   0  0  0  0  0  0  0  0  0  0  0  0
   59.8830   28.8170   45.7890 C   0  0  0  0  0  0  0  0  0  0  0  0
   58.6310   29.3930   45.7290 C   0  0  0  0  0  0  0  0  0  0  0  0
   58.3440   30.7410   45.2010 C   0  0  0  0  0  0  0  0  0  0  0  0
   58.5020   30.9550   43.9670 O   0  0  0  0  0  0  0  0  0  0  0  0
   57.9210   31.8170   46.0620 N   0  0  0  0  0  0  0  0  0  0  0  0
   57.1660   32.9490   45.5190 C   0  0  0  0  0  0  0  0  0  0  0  0
   58.0420   34.2180   45.5030 C   0  0  0  0  0  0  0  0  0  0  0  0
   59.0920   34.2370   46.5570 N   0  0  0  0  0  0  0  0  0  0  0  0
   60.4220   33.8670   46.0190 C   0  0  0  0  0  0  0  0  0  0  0  0
   61.3330   33.3540   47.1040 C   0  0  0  0  0  0  0  0  0  0  0  0
   61.7880   32.0240   47.0860 C   0  0  0  0  0  0  0  0  0  0  0  0
   62.6170   31.5500   48.1080 C   0  0  0  0  0  0  0  0  0  0  0  0
   62.9960   32.3980   49.1530 C   0  0  0  0  0  0  0  0  0  0  0  0
   62.5460   33.7210   49.1780 C   0  0  0  0  0  0  0  0  0  0  0  0
   61.7170   34.1990   48.1580 C   0  0  0  0  0  0  0  0  0  0  0  0
   58.7030   33.4480   47.7500 C   0  0  0  0  0  0  0  0  0  0  0  0
   58.4850   31.9620   47.4110 C   0  0  0  0  0  0  0  0  0  0  0  0
   57.6950   28.5310   46.1720 N   0  0  0  0  0  0  0  0  0  0  0  0
   58.3320   27.4060   46.5620 C   0  0  0  0  0  0  0  0  0  0  0  0
   57.6580   26.3740   47.1080 C   0  0  0  0  0  0  0  0  0  0  0  0
   56.8850   25.3700   46.3630 C   0  0  0  0  0  0  0  0  0  0  0  0
   57.3820   24.1730   45.9850 N   0  0  0  0  0  0  0  0  0  0  0  0
   56.3690   23.6150   45.2840 C   0  0  0  0  0  0  0  0  0  0  0  0
   56.4380   22.4610   44.7860 O   0  0  0  0  0  0  0  0  0  0  0  0
   55.2820   24.4100   45.1750 N   0  0  0  0  0  0  0  0  0  0  0  0
   53.9880   24.0910   44.5760 C   0  0  0  0  0  0  0  0  0  0  0  0
   53.2060   23.2060   45.5000 C   0  0  0  0  0  0  0  0  0  0  0  0
   53.6550   22.9620   46.8070 C   0  0  0  0  0  0  0  0  0  0  0  0
   52.8770   22.1770   47.6610 C   0  0  0  0  0  0  0  0  0  0  0  0
   51.6630   21.6550   47.2140 C   0  0  0  0  0  0  0  0  0  0  0  0
   51.2400   21.9300   45.9110 C   0  0  0  0  0  0  0  0  0  0  0  0
   52.0100   22.6960   45.0920 N   0  0  0  0  0  0  0  0  0  0  0  0
   55.6140   25.5200   45.8510 C   0  0  0  0  0  0  0  0  0  0  0  0
   54.7920   26.6340   45.9930 O   0  0  0  0  0  0  0  0  0  0  0  0
   60.4771   25.6375   46.7881 H   0  0  0  0  0  0  0  0  0  0  0  0
   61.6922   26.8855   46.0160 H   0  0  0  0  0  0  0  0  0  0  0  0
   60.8357   29.2788   45.4906 H   0  0  0  0  0  0  0  0  0  0  0  0
   56.8483   32.7143   44.4923 H   0  0  0  0  0  0  0  0  0  0  0  0
   56.2859   33.1296   46.1537 H   0  0  0  0  0  0  0  0  0  0  0  0
   58.5344   34.2870   44.5218 H   0  0  0  0  0  0  0  0  0  0  0  0
   57.3748   35.0700   45.7005 H   0  0  0  0  0  0  0  0  0  0  0  0
   60.2944   33.0824   45.2587 H   0  0  0  0  0  0  0  0  0  0  0  0
   60.8794   34.7662   45.5806 H   0  0  0  0  0  0  0  0  0  0  0  0
   61.4912   31.3540   46.2656 H   0  0  0  0  0  0  0  0  0  0  0  0
   62.9712   30.5088   48.0895 H   0  0  0  0  0  0  0  0  0  0  0  0
   63.6485   32.0239   49.9557 H   0  0  0  0  0  0  0  0  0  0  0  0
   62.8442   34.3872   50.0010 H   0  0  0  0  0  0  0  0  0  0  0  0
   61.3644   35.2407   48.1814 H   0  0  0  0  0  0  0  0  0  0  0  0
   59.5001   33.5273   48.5039 H   0  0  0  0  0  0  0  0  0  0  0  0
   57.7540   33.8529   48.1313 H   0  0  0  0  0  0  0  0  0  0  0  0
   59.4494   31.4351   47.4582 H   0  0  0  0  0  0  0  0  0  0  0  0
   57.7806   31.5319   48.1382 H   0  0  0  0  0  0  0  0  0  0  0  0
   56.6640   28.6970   46.2000 H   0  0  0  0  0  0  0  0  0  0  0  0
   57.6891   26.2750   48.2031 H   0  0  0  0  0  0  0  0  0  0  0  0
   53.4277   25.0211   44.3997 H   0  0  0  0  0  0  0  0  0  0  0  0
   54.1481   23.5687   43.6212 H   0  0  0  0  0  0  0  0  0  0  0  0
   54.6092   23.3843   47.1551 H   0  0  0  0  0  0  0  0  0  0  0  0
   53.2212   21.9706   48.6851 H   0  0  0  0  0  0  0  0  0  0  0  0
   51.0457   21.0339   47.8798 H   0  0  0  0  0  0  0  0  0  0  0  0
   50.2835   21.5267   45.5472 H   0  0  0  0  0  0  0  0  0  0  0  0
  1  2  2  0
  2  3  1  0
  3  4  2  0
  4  5  1  0
  5  6  2  0
  5  7  1  0
  7  8  1  0
  8  9  1  0
  9 10  1  0
 10 11  1  0
 11 12  1  0
 12 13  2  0
 13 14  1  0
 14 15  2  0
 15 16  1  0
 16 17  2  0
 10 18  1  0
 18 19  1  0
  4 20  1  0
 20 21  1  0
 21 22  2  3
 22 23  1  0
 23 24  1  0
 24 25  1  0
 25 26  2  0
 25 27  1  0
 27 28  1  0
 28 29  1  0
 29 30  2  0
 30 31  1  0
 31 32  2  0
 32 33  1  0
 33 34  2  0
 27 35  1  0
 35 36  1  0
 21  2  1  0
 35 23  2  0
 19  7  1  0
 34 29  1  0
 17 12  1  0
  1 37  1  0
  1 38  1  0
  3 39  1  0
  8 40  1  0
  8 41  1  0
  9 42  1  0
  9 43  1  0
 11 44  1  0
 11 45  1  0
 13 46  1  0
 14 47  1  0
 15 48  1  0
 16 49  1  0
 17 50  1  0
 18 51  1  0
 18 52  1  0
 19 53  1  0
 19 54  1  0
 20 55  1  0
 22 56  1  0
 28 57  1  0
 28 58  1  0
 30 59  1  0
 31 60  1  0
 32 61  1  0
 33 62  1  0
M  CHG  2  24  -1  36  -1
M  END
>  <UniqueID>  (69) 
64

>  <SMILES>  (69) 
C=c1cc(C(=O)N2CCN(Cc3ccccc3)CC2)[nH]c1=Cc1[n-]c(=O)n(Cc2ccccn2)c1[O-]

>  <Energy>  (69) 
148.95685186672665

>  <Genealogy>  (69) 
C=c1cc(C(=O)N2CCN(Cc3ccccc3)CC2)[nH]c1=Cc1[n-]c(=O)n(Cc2ccccn2)c1[O-] (protonated)
C=c1cc(C(=O)N2CCN(Cc3ccccc3)CC2)[nH]c1=Cc1[n-]c(=O)n(Cc2ccccn2)c1[O-] (3D coordinates assigned)
C=c1cc(C(=O)N2CCN(Cc3ccccc3)CC2)[nH]c1=Cc1[n-]c(=O)n(Cc2ccccn2)c1[O-] (nonaromatic ring conformer: 148.95685186672665 kcal/mol)

>  <smiles>  (69) 
C=c1cc(C(=O)N2CCN(Cc3ccccc3)CC2)[nH]c1=Cc1[nH]c(=O)n(Cc2ccccn2)c1O

>  <score_type>  (69) 
oracle

>  <origin>  (69) 
adg

>  <m_score__min__energy>  (69) 
-14.85

>  <m_primary>  (69) 
energy

$$$$
69:0
     RDKit          3D

 48 51  0  0  0  0  0  0  0  0999 V2000
   53.9870   29.3130   54.8240 C   0  0  0  0  0  0  0  0  0  0  0  0
   54.5770   29.7580   53.7000 C   0  0  0  0  0  0  0  0  0  0  0  0
   53.9860   30.5840   52.7320 C   0  0  0  0  0  0  0  0  0  0  0  0
   52.7010   30.9390   52.5330 C   0  0  0  0  0  0  0  0  0  0  0  0
   52.0670   31.1720   51.2260 C   0  0  0  0  0  0  0  0  0  0  0  0
   52.0270   30.2520   50.2460 N   0  0  0  0  0  0  0  0  0  0  0  0
   51.2590   30.8360   49.3010 C   0  0  0  0  0  0  0  0  0  0  0  0
   50.9970   30.2800   48.2030 O   0  0  0  0  0  0  0  0  0  0  0  0
   50.7830   32.0550   49.6300 N   0  0  0  0  0  0  0  0  0  0  0  0
   51.2910   32.2480   50.8580 C   0  0  0  0  0  0  0  0  0  0  0  0
   51.0270   33.3690   51.6350 O   0  0  0  0  0  0  0  0  0  0  0  0
   55.0140   31.0270   51.9240 C   0  0  0  0  0  0  0  0  0  0  0  0
   56.1690   30.4250   52.3730 C   0  0  0  0  0  0  0  0  0  0  0  0
   57.4860   30.6740   51.7480 C   0  0  0  0  0  0  0  0  0  0  0  0
   57.7770   30.0340   50.6990 O   0  0  0  0  0  0  0  0  0  0  0  0
   58.3370   31.7550   52.2050 N   0  0  0  0  0  0  0  0  0  0  0  0
   57.5130   32.9390   52.5280 C   0  0  0  0  0  0  0  0  0  0  0  0
   58.3830   34.2070   52.6750 C   0  0  0  0  0  0  0  0  0  0  0  0
   59.7370   33.8670   52.8960 O   0  0  0  0  0  0  0  0  0  0  0  0
   60.2750   33.2350   51.7470 C   0  0  0  0  0  0  0  0  0  0  0  0
   59.3650   32.1090   51.2050 C   0  0  0  0  0  0  0  0  0  0  0  0
   55.9050   29.6080   53.4280 N   0  0  0  0  0  0  0  0  0  0  0  0
   56.8590   28.7330   54.1410 C   0  0  0  0  0  0  0  0  0  0  0  0
   58.2300   29.3500   54.2600 C   0  0  0  0  0  0  0  0  0  0  0  0
   59.3680   28.6710   53.7960 C   0  0  0  0  0  0  0  0  0  0  0  0
   60.6330   29.2390   53.9520 C   0  0  0  0  0  0  0  0  0  0  0  0
   60.7540   30.4740   54.5960 C   0  0  0  0  0  0  0  0  0  0  0  0
   61.8880   31.0010   54.7440 O   0  0  0  0  0  0  0  0  0  0  0  0
   59.6460   31.1040   55.0700 N   0  0  0  0  0  0  0  0  0  0  0  0
   58.4030   30.5730   54.9260 C   0  0  0  0  0  0  0  0  0  0  0  0
   54.5437   28.6668   55.5186 H   0  0  0  0  0  0  0  0  0  0  0  0
   52.9478   29.5953   55.0485 H   0  0  0  0  0  0  0  0  0  0  0  0
   52.0712   31.0656   53.4260 H   0  0  0  0  0  0  0  0  0  0  0  0
   54.9273   31.7282   51.0809 H   0  0  0  0  0  0  0  0  0  0  0  0
   58.8260   31.4520   53.0750 H   0  0  0  0  0  0  0  0  0  0  0  0
   56.7824   33.0976   51.7212 H   0  0  0  0  0  0  0  0  0  0  0  0
   57.0031   32.7557   53.4853 H   0  0  0  0  0  0  0  0  0  0  0  0
   58.3073   34.8044   51.7544 H   0  0  0  0  0  0  0  0  0  0  0  0
   58.0201   34.7840   53.5384 H   0  0  0  0  0  0  0  0  0  0  0  0
   60.4071   33.9909   50.9588 H   0  0  0  0  0  0  0  0  0  0  0  0
   61.2328   32.7780   52.0366 H   0  0  0  0  0  0  0  0  0  0  0  0
   58.8720   32.4527   50.2837 H   0  0  0  0  0  0  0  0  0  0  0  0
   59.9802   31.2217   50.9946 H   0  0  0  0  0  0  0  0  0  0  0  0
   56.4711   28.5376   55.1516 H   0  0  0  0  0  0  0  0  0  0  0  0
   56.9595   27.8043   53.5601 H   0  0  0  0  0  0  0  0  0  0  0  0
   59.2623   27.6903   53.3090 H   0  0  0  0  0  0  0  0  0  0  0  0
   61.5257   28.7205   53.5722 H   0  0  0  0  0  0  0  0  0  0  0  0
   57.5297   31.1038   55.3329 H   0  0  0  0  0  0  0  0  0  0  0  0
  1  2  2  0
  2  3  1  0
  3  4  2  3
  4  5  1  0
  5  6  1  0
  6  7  1  0
  7  8  2  0
  7  9  1  0
  9 10  1  0
 10 11  1  0
  3 12  1  0
 12 13  2  0
 13 14  1  0
 14 15  2  0
 14 16  1  0
 16 17  1  0
 17 18  1  0
 18 19  1  0
 19 20  1  0
 20 21  1  0
 13 22  1  0
 22 23  1  0
 23 24  1  0
 24 25  1  0
 25 26  2  0
 26 27  1  0
 27 28  2  0
 27 29  1  0
 29 30  1  0
 22  2  1  0
 30 24  2  0
 10  5  2  0
 21 16  1  0
  1 31  1  0
  1 32  1  0
  4 33  1  0
 12 34  1  0
 16 35  1  0
 17 36  1  0
 17 37  1  0
 18 38  1  0
 18 39  1  0
 20 40  1  0
 20 41  1  0
 21 42  1  0
 21 43  1  0
 23 44  1  0
 23 45  1  0
 25 46  1  0
 26 47  1  0
 30 48  1  0
M  CHG  5   6  -1   9  -1  11  -1  16   1  29  -1
M  END
>  <UniqueID>  (70) 
65

>  <SMILES>  (70) 
C=c1c(=Cc2[n-]c(=O)[n-]c2[O-])cc(C(=O)[NH+]2CCOCC2)n1Cc1ccc(=O)[n-]c1

>  <Energy>  (70) 
141.11336275604282

>  <Genealogy>  (70) 
C=c1c(=Cc2[n-]c(=O)[n-]c2[O-])cc(C(=O)[NH+]2CCOCC2)n1Cc1ccc(=O)[n-]c1 (protonated)
C=c1c(=Cc2[n-]c(=O)[n-]c2[O-])cc(C(=O)[NH+]2CCOCC2)n1Cc1ccc(=O)[n-]c1 (3D coordinates assigned)
C=c1c(=Cc2[n-]c(=O)[n-]c2[O-])cc(C(=O)[NH+]2CCOCC2)n1Cc1ccc(=O)[n-]c1 (nonaromatic ring conformer: 141.11336275604282 kcal/mol)

>  <smiles>  (70) 
C=c1c(=Cc2[nH]c(=O)[nH]c2O)cc(C(=O)N2CCOCC2)n1Cc1ccc(=O)[nH]c1

>  <score_type>  (70) 
oracle

>  <origin>  (70) 
adg

>  <m_score__min__energy>  (70) 
-16.239999999999998

>  <m_primary>  (70) 
energy

$$$$
70:0
     RDKit          3D

 21 21  0  0  0  0  0  0  0  0999 V2000
   58.8545   31.6980   45.7465 H   0  0  0  0  0  0  0  0  0  0  0  0
   57.8620   31.6700   45.2730 C   0  0  0  0  0  0  0  0  0  0  0  0
   56.9790   32.7350   45.4600 O   0  0  0  0  0  0  0  0  0  0  0  0
   57.3870   34.0810   45.2620 C   0  0  0  0  0  0  0  0  0  0  0  0
   57.5343   34.5668   46.2379 H   0  0  0  0  0  0  0  0  0  0  0  0
   58.3309   34.0988   44.6974 H   0  0  0  0  0  0  0  0  0  0  0  0
   56.6118   34.6198   44.6974 H   0  0  0  0  0  0  0  0  0  0  0  0
   57.5160   30.6140   44.5240 C   0  0  0  0  0  0  0  0  0  0  0  0
   57.0360   30.8160   43.1760 C   0  0  0  0  0  0  0  0  0  0  0  0
   56.6510   30.9760   42.0970 N   0  0  0  0  0  0  0  0  0  0  0  0
   57.5720   29.2360   45.0720 C   0  0  0  0  0  0  0  0  0  0  0  0
   58.8120   28.6940   45.4570 C   0  0  0  0  0  0  0  0  0  0  0  0
   59.7267   29.2960   45.3524 H   0  0  0  0  0  0  0  0  0  0  0  0
   58.8910   27.3950   45.9720 C   0  0  0  0  0  0  0  0  0  0  0  0
   60.5830   26.6700   46.4780 Br  0  0  0  0  0  0  0  0  0  0  0  0
   57.7320   26.6270   46.1110 C   0  0  0  0  0  0  0  0  0  0  0  0
   57.7955   25.6028   46.5073 H   0  0  0  0  0  0  0  0  0  0  0  0
   56.4930   27.1590   45.7470 C   0  0  0  0  0  0  0  0  0  0  0  0
   55.5820   26.5535   45.8628 H   0  0  0  0  0  0  0  0  0  0  0  0
   56.4050   28.4580   45.2360 C   0  0  0  0  0  0  0  0  0  0  0  0
   55.1510   28.9730   44.9170 O   0  0  0  0  0  0  0  0  0  0  0  0
  1  2  1  0
  2  3  1  0
  3  4  1  0
  4  5  1  0
  4  6  1  0
  4  7  1  0
  2  8  2  0
  8  9  1  0
  9 10  3  0
  8 11  1  0
 11 12  2  0
 12 13  1  0
 12 14  1  0
 14 15  1  0
 14 16  2  0
 16 17  1  0
 16 18  1  0
 18 19  1  0
 18 20  2  0
 20 21  1  0
 20 11  1  0
M  CHG  1  21  -1
M  END
>  <UniqueID>  (71) 
66

>  <SMILES>  (71) 
CO/C=C(\C#N)c1cc(Br)ccc1[O-]

>  <Energy>  (71) 
20.965021008928215

>  <Genealogy>  (71) 
COC=C(C#N)c1cc(Br)ccc1[O-] (protonated)
CO/C=C(\C#N)c1cc(Br)ccc1[O-] (cis-trans isomerization)
CO/C=C(\C#N)c1cc(Br)ccc1[O-] (3D coordinates assigned)
CO/C=C(\C#N)c1cc(Br)ccc1[O-] (optimized conformer: 20.965021008928215 kcal/mol)

>  <smiles>  (71) 
COC=C(C#N)c1cc(Br)ccc1O

>  <score_type>  (71) 
oracle

>  <origin>  (71) 
adg

>  <m_score__min__energy>  (71) 
-8.9100000000000001

>  <m_primary>  (71) 
energy

$$$$
71:0
     RDKit          3D

 52 54  0  0  0  0  0  0  0  0999 V2000
   60.2530   29.3440   47.3100 C   0  0  0  0  0  0  0  0  0  0  0  0
   58.8000   29.4520   46.8630 C   0  0  0  0  0  0  0  0  0  0  0  0
   58.6100   28.8110   45.5530 N   0  0  0  0  0  0  0  0  0  0  0  0
   58.2710   29.6410   44.3900 C   0  0  0  0  0  0  0  0  0  0  0  0
   56.8770   30.1860   44.5330 C   0  0  0  0  0  0  0  0  0  0  0  0
   55.8980   29.4380   44.2740 O   0  0  0  0  0  0  0  0  0  0  0  0
   56.6280   31.5490   44.8980 N   0  0  0  0  0  0  0  0  0  0  0  0
   57.6180   32.5390   45.2070 C   0  0  0  0  0  0  0  0  0  0  0  0
   58.0900   33.4380   44.2360 C   0  0  0  0  0  0  0  0  0  0  0  0
   59.0790   34.3680   44.5600 C   0  0  0  0  0  0  0  0  0  0  0  0
   59.6220   34.3960   45.8470 C   0  0  0  0  0  0  0  0  0  0  0  0
   59.1840   33.4800   46.8150 C   0  0  0  0  0  0  0  0  0  0  0  0
   59.8940   33.4890   48.4310 S   0  0  0  0  0  0  0  0  0  0  0  0
   58.8930   32.9440   49.4120 O   0  0  0  0  0  0  0  0  0  0  0  0
   60.2030   34.9060   48.8270 O   0  0  0  0  0  0  0  0  0  0  0  0
   61.3610   32.5360   48.5110 N   0  0  0  0  0  0  0  0  0  0  0  0
   62.4110   33.2400   49.2550 C   0  0  0  0  0  0  0  0  0  0  0  0
   63.3370   33.9150   48.2540 C   0  0  0  0  0  0  0  0  0  0  0  0
   63.0200   33.2910   46.9110 C   0  0  0  0  0  0  0  0  0  0  0  0
   61.9050   32.2870   47.1720 C   0  0  0  0  0  0  0  0  0  0  0  0
   58.1840   32.5540   46.4890 C   0  0  0  0  0  0  0  0  0  0  0  0
   58.6520   27.3760   45.4230 C   0  0  0  0  0  0  0  0  0  0  0  0
   59.7640   26.8030   45.2580 O   0  0  0  0  0  0  0  0  0  0  0  0
   57.4200   26.5580   45.4690 C   0  0  0  0  0  0  0  0  0  0  0  0
   57.4450   25.2130   45.0720 C   0  0  0  0  0  0  0  0  0  0  0  0
   56.2830   24.4410   45.1340 C   0  0  0  0  0  0  0  0  0  0  0  0
   55.1020   25.0210   45.6070 C   0  0  0  0  0  0  0  0  0  0  0  0
   54.0450   24.3400   45.6680 O   0  0  0  0  0  0  0  0  0  0  0  0
   55.0950   26.3200   46.0050 N   0  0  0  0  0  0  0  0  0  0  0  0
   56.2130   27.0920   45.9510 C   0  0  0  0  0  0  0  0  0  0  0  0
   60.2992   29.3406   48.4090 H   0  0  0  0  0  0  0  0  0  0  0  0
   60.6877   28.4111   46.9218 H   0  0  0  0  0  0  0  0  0  0  0  0
   60.8208   30.2024   46.9218 H   0  0  0  0  0  0  0  0  0  0  0  0
   58.1563   28.9560   47.6044 H   0  0  0  0  0  0  0  0  0  0  0  0
   58.5344   30.5160   46.7779 H   0  0  0  0  0  0  0  0  0  0  0  0
   58.9829   30.4766   44.3194 H   0  0  0  0  0  0  0  0  0  0  0  0
   58.3253   29.0253   43.4801 H   0  0  0  0  0  0  0  0  0  0  0  0
   57.6784   33.4088   43.2163 H   0  0  0  0  0  0  0  0  0  0  0  0
   59.4319   35.0808   43.8001 H   0  0  0  0  0  0  0  0  0  0  0  0
   60.3939   35.1372   46.1016 H   0  0  0  0  0  0  0  0  0  0  0  0
   61.9575   33.9974   49.9112 H   0  0  0  0  0  0  0  0  0  0  0  0
   62.9772   32.5291   49.8747 H   0  0  0  0  0  0  0  0  0  0  0  0
   63.1474   34.9982   48.2272 H   0  0  0  0  0  0  0  0  0  0  0  0
   64.3943   33.7772   48.5245 H   0  0  0  0  0  0  0  0  0  0  0  0
   62.6836   34.0608   46.2009 H   0  0  0  0  0  0  0  0  0  0  0  0
   63.9046   32.8078   46.4705 H   0  0  0  0  0  0  0  0  0  0  0  0
   61.1115   32.4094   46.4201 H   0  0  0  0  0  0  0  0  0  0  0  0
   62.2978   31.2615   47.1087 H   0  0  0  0  0  0  0  0  0  0  0  0
   57.8405   31.8331   47.2455 H   0  0  0  0  0  0  0  0  0  0  0  0
   58.3825   24.7651   44.7108 H   0  0  0  0  0  0  0  0  0  0  0  0
   56.2967   23.3886   44.8143 H   0  0  0  0  0  0  0  0  0  0  0  0
   56.1724   28.1389   46.2860 H   0  0  0  0  0  0  0  0  0  0  0  0
  1  2  1  0
  2  3  1  0
  3  4  1  0
  4  5  1  0
  5  6  2  0
  5  7  1  0
  7  8  1  0
  8  9  2  0
  9 10  1  0
 10 11  2  0
 11 12  1  0
 12 13  1  0
 13 14  2  0
 13 15  2  0
 13 16  1  0
 16 17  1  0
 17 18  1  0
 18 19  1  0
 19 20  1  0
 12 21  2  0
  3 22  1  0
 22 23  2  0
 22 24  1  0
 24 25  1  0
 25 26  2  0
 26 27  1  0
 27 28  2  0
 27 29  1  0
 29 30  1  0
 21  8  1  0
 30 24  2  0
 20 16  1  0
  1 31  1  0
  1 32  1  0
  1 33  1  0
  2 34  1  0
  2 35  1  0
  4 36  1  0
  4 37  1  0
  9 38  1  0
 10 39  1  0
 11 40  1  0
 17 41  1  0
 17 42  1  0
 18 43  1  0
 18 44  1  0
 19 45  1  0
 19 46  1  0
 20 47  1  0
 20 48  1  0
 21 49  1  0
 25 50  1  0
 26 51  1  0
 30 52  1  0
M  CHG  2   7  -1  29  -1
M  END
>  <UniqueID>  (72) 
67

>  <SMILES>  (72) 
CCN(CC(=O)[N-]c1cccc(S(=O)(=O)N2CCCC2)c1)C(=O)c1ccc(=O)[n-]c1

>  <Energy>  (72) 
59.694467454346174

>  <Genealogy>  (72) 
CCN(CC(=O)[N-]c1cccc(S(=O)(=O)N2CCCC2)c1)C(=O)c1ccc(=O)[n-]c1 (protonated)
CCN(CC(=O)[N-]c1cccc(S(=O)(=O)N2CCCC2)c1)C(=O)c1ccc(=O)[n-]c1 (3D coordinates assigned)
CCN(CC(=O)[N-]c1cccc(S(=O)(=O)N2CCCC2)c1)C(=O)c1ccc(=O)[n-]c1 (nonaromatic ring conformer: 59.694467454346174 kcal/mol)

>  <smiles>  (72) 
CCN(CC(=O)Nc1cccc(S(=O)(=O)N2CCCC2)c1)C(=O)c1ccc(=O)[nH]c1

>  <score_type>  (72) 
oracle

>  <origin>  (72) 
adg

>  <m_score__min__energy>  (72) 
-13.31

>  <m_primary>  (72) 
energy

$$$$
72:0
     RDKit          3D

 51 53  0  0  0  0  0  0  0  0999 V2000
   63.0550   30.9660   47.4920 H   0  0  0  0  0  0  0  0  0  0  0  0
   63.7420   31.6160   47.7850 O   0  0  0  0  0  0  0  0  0  0  0  0
   63.1940   32.8930   47.5870 C   0  0  0  0  0  0  0  0  0  0  0  0
   63.1547   33.1038   46.5081 H   0  0  0  0  0  0  0  0  0  0  0  0
   63.8286   33.6293   48.1018 H   0  0  0  0  0  0  0  0  0  0  0  0
   61.7660   32.9820   48.1710 C   0  0  1  0  0  0  0  0  0  0  0  0
   61.8327   33.4574   49.1607 H   0  0  0  0  0  0  0  0  0  0  0  0
   60.8600   33.8370   47.3020 C   0  0  0  0  0  0  0  0  0  0  0  0
   61.3310   34.5590   46.4320 O   0  0  0  0  0  0  0  0  0  0  0  0
   59.3810   33.8910   47.6210 C   0  0  1  0  0  0  0  0  0  0  0  0
   59.2078   34.5810   48.4600 H   0  0  0  0  0  0  0  0  0  0  0  0
   58.5610   34.4690   46.4370 C   0  0  0  0  0  0  0  0  0  0  0  0
   58.9277   35.4834   46.2210 H   0  0  0  0  0  0  0  0  0  0  0  0
   57.5039   34.4655   46.7413 H   0  0  0  0  0  0  0  0  0  0  0  0
   58.6650   33.6470   45.1820 C   0  0  0  0  0  0  0  0  0  0  0  0
   58.8530   34.2160   44.0700 O   0  0  0  0  0  0  0  0  0  0  0  0
   58.6180   32.2140   45.2840 N   0  0  0  0  0  0  0  0  0  0  0  0
   57.7660   31.4170   44.7030 C   0  0  0  0  0  0  0  0  0  0  0  0
   57.0590   30.4900   45.4140 N   0  0  0  0  0  0  0  0  0  0  0  0
   56.1640   29.6560   44.8210 C   0  0  0  0  0  0  0  0  0  0  0  0
   55.6125   28.9209   45.4256 H   0  0  0  0  0  0  0  0  0  0  0  0
   55.9450   29.7330   43.4430 C   0  0  0  0  0  0  0  0  0  0  0  0
   55.2203   29.0635   42.9567 H   0  0  0  0  0  0  0  0  0  0  0  0
   56.6570   30.6700   42.6900 C   0  0  0  0  0  0  0  0  0  0  0  0
   56.5002   30.7372   41.6033 H   0  0  0  0  0  0  0  0  0  0  0  0
   57.5680   31.5210   43.3190 C   0  0  0  0  0  0  0  0  0  0  0  0
   58.1257   32.2668   42.7335 H   0  0  0  0  0  0  0  0  0  0  0  0
   58.9200   32.5070   48.0360 C   0  0  0  0  0  0  0  0  0  0  0  0
   57.7830   32.1290   47.7900 O   0  0  0  0  0  0  0  0  0  0  0  0
   59.8440   31.6550   48.8900 C   0  0  1  0  0  0  0  0  0  0  0  0
   59.8801   32.1149   49.8886 H   0  0  0  0  0  0  0  0  0  0  0  0
   59.3180   30.2110   49.0610 C   0  0  0  0  0  0  0  0  0  0  0  0
   60.0873   29.6043   49.5612 H   0  0  0  0  0  0  0  0  0  0  0  0
   58.3993   30.2408   49.6653 H   0  0  0  0  0  0  0  0  0  0  0  0
   59.0040   29.6110   47.7600 N   0  0  0  0  0  0  0  0  0  0  0  0
   58.4860   30.1920   47.0620 H   0  0  0  0  0  0  0  0  0  0  0  0
   59.4070   28.2840   47.3860 C   0  0  0  0  0  0  0  0  0  0  0  0
   60.2000   27.6290   48.1150 O   0  0  0  0  0  0  0  0  0  0  0  0
   58.9510   27.7020   46.1070 C   0  0  0  0  0  0  0  0  0  0  0  0
   59.3120   28.3410   44.9100 C   0  0  0  0  0  0  0  0  0  0  0  0
   59.9516   29.2354   44.9411 H   0  0  0  0  0  0  0  0  0  0  0  0
   58.8670   27.8520   43.6820 C   0  0  0  0  0  0  0  0  0  0  0  0
   59.1495   28.3659   42.7514 H   0  0  0  0  0  0  0  0  0  0  0  0
   58.0640   26.7120   43.6320 C   0  0  0  0  0  0  0  0  0  0  0  0
   57.7065   26.3358   42.6621 H   0  0  0  0  0  0  0  0  0  0  0  0
   57.7120   26.0460   44.8100 C   0  0  0  0  0  0  0  0  0  0  0  0
   56.7130   24.6020   44.6920 Cl  0  0  0  0  0  0  0  0  0  0  0  0
   58.1590   26.5290   46.0560 C   0  0  0  0  0  0  0  0  0  0  0  0
   57.7810   25.6230   47.5250 Cl  0  0  0  0  0  0  0  0  0  0  0  0
   61.1980   31.6290   48.3040 N   0  0  0  0  0  0  0  0  0  0  0  0
   61.8100   31.0880   48.9600 H   0  0  0  0  0  0  0  0  0  0  0  0
  1  2  1  0
  2  3  1  0
  3  4  1  0
  3  5  1  0
  3  6  1  0
  6  7  1  1
  6  8  1  0
  8  9  2  0
  8 10  1  0
 10 11  1  1
 10 12  1  0
 12 13  1  0
 12 14  1  0
 12 15  1  0
 15 16  2  0
 15 17  1  0
 17 18  2  0
 18 19  1  0
 19 20  1  0
 20 21  1  0
 20 22  2  0
 22 23  1  0
 22 24  1  0
 24 25  1  0
 24 26  2  0
 26 27  1  0
 10 28  1  0
 28 29  2  0
 28 30  1  0
 30 31  1  1
 30 32  1  0
 32 33  1  0
 32 34  1  0
 32 35  1  0
 35 36  1  0
 35 37  1  0
 37 38  2  0
 37 39  1  0
 39 40  2  0
 40 41  1  0
 40 42  1  0
 42 43  1  0
 42 44  2  0
 44 45  1  0
 44 46  1  0
 46 47  1  0
 46 48  2  0
 48 49  1  0
 30 50  1  0
 50 51  1  0
 50  6  1  0
 26 18  1  0
 48 39  1  0
M  CHG  1  19  -1
M  END
>  <UniqueID>  (73) 
68

>  <SMILES>  (73) 
O=C(C[C@H]1C(=O)C(CNC(=O)c2cccc(Cl)c2Cl)N[C@@H](CO)C1=O)/N=c1/cccc[n-]1

>  <Energy>  (73) 
64.45954537233266

>  <Genealogy>  (73) 
O=C(CC1C(=O)C(CO)NC(CNC(=O)c2cccc(Cl)c2Cl)C1=O)N=c1cccc[n-]1 (protonated)
O=C(C[C@H]1C(=O)C(CNC(=O)c2cccc(Cl)c2Cl)N[C@@H](CO)C1=O)N=c1cccc[n-]1 (chirality)
O=C(C[C@H]1C(=O)C(CNC(=O)c2cccc(Cl)c2Cl)N[C@@H](CO)C1=O)/N=c1/cccc[n-]1 (cis-trans isomerization)
O=C(C[C@H]1C(=O)C(CNC(=O)c2cccc(Cl)c2Cl)N[C@@H](CO)C1=O)/N=c1/cccc[n-]1 (3D coordinates assigned)
O=C(C[C@H]1C(=O)C(CNC(=O)c2cccc(Cl)c2Cl)N[C@@H](CO)C1=O)/N=c1/cccc[n-]1 (nonaromatic ring conformer: 64.45954537233266 kcal/mol)

>  <smiles>  (73) 
O=C(CC1C(=O)C(CO)NC(CNC(=O)c2cccc(Cl)c2Cl)C1=O)N=c1cccc[nH]1

>  <score_type>  (73) 
oracle

>  <origin>  (73) 
adg

>  <m_score__min__energy>  (73) 
-10.41

>  <m_primary>  (73) 
energy

$$$$
73:0
     RDKit          3D

 47 49  0  0  0  0  0  0  0  0999 V2000
   65.5960   32.7580   49.8140 C   0  0  0  0  0  0  0  0  0  0  0  0
   64.2120   32.3390   49.5270 N   0  0  0  0  0  0  0  0  0  0  0  0
   63.4510   33.0630   48.6490 C   0  0  0  0  0  0  0  0  0  0  0  0
   63.9390   34.0790   48.0780 O   0  0  0  0  0  0  0  0  0  0  0  0
   62.1290   32.6850   48.3840 C   0  0  0  0  0  0  0  0  0  0  0  0
   61.3350   33.4060   47.4690 C   0  0  0  0  0  0  0  0  0  0  0  0
   60.0190   33.0190   47.2090 C   0  0  0  0  0  0  0  0  0  0  0  0
   59.0400   33.9510   46.0780 S   0  0  0  0  0  0  0  0  0  0  0  0
   58.9370   35.3640   46.5800 O   0  0  0  0  0  0  0  0  0  0  0  0
   59.6930   33.9790   44.7240 O   0  0  0  0  0  0  0  0  0  0  0  0
   57.4390   33.2810   45.9450 N   0  0  0  0  0  0  0  0  0  0  0  0
   57.1990   32.7220   44.6130 C   0  0  0  0  0  0  0  0  0  0  0  0
   57.4920   31.2480   44.5800 C   0  0  0  0  0  0  0  0  0  0  0  0
   58.4970   30.8360   43.9430 O   0  0  0  0  0  0  0  0  0  0  0  0
   56.6530   30.2950   45.2430 N   0  0  0  0  0  0  0  0  0  0  0  0
   56.3280   28.9760   44.7140 C   0  0  0  0  0  0  0  0  0  0  0  0
   57.1130   27.9330   45.4610 C   0  0  0  0  0  0  0  0  0  0  0  0
   58.5160   28.0150   45.5130 C   0  0  0  0  0  0  0  0  0  0  0  0
   59.2560   27.0350   46.1790 C   0  0  0  0  0  0  0  0  0  0  0  0
   58.6060   25.9600   46.7900 C   0  0  0  0  0  0  0  0  0  0  0  0
   57.2140   25.8600   46.7300 C   0  0  0  0  0  0  0  0  0  0  0  0
   56.4650   26.8380   46.0650 C   0  0  0  0  0  0  0  0  0  0  0  0
   55.0810   26.7120   46.0050 O   0  0  0  0  0  0  0  0  0  0  0  0
   59.4830   31.9120   47.8690 C   0  0  0  0  0  0  0  0  0  0  0  0
   60.2560   31.1900   48.7790 C   0  0  0  0  0  0  0  0  0  0  0  0
   61.5950   31.5620   49.0540 C   0  0  0  0  0  0  0  0  0  0  0  0
   62.3740   30.8700   49.9570 N   0  0  0  0  0  0  0  0  0  0  0  0
   61.8240   29.7020   50.6770 C   0  0  0  0  0  0  0  0  0  0  0  0
   63.6690   31.2720   50.1960 C   0  0  0  0  0  0  0  0  0  0  0  0
   64.3730   30.6540   51.0460 O   0  0  0  0  0  0  0  0  0  0  0  0
   65.7470   32.8037   50.9026 H   0  0  0  0  0  0  0  0  0  0  0  0
   66.2971   32.0318   49.3768 H   0  0  0  0  0  0  0  0  0  0  0  0
   65.7766   33.7511   49.3768 H   0  0  0  0  0  0  0  0  0  0  0  0
   61.7566   34.2823   46.9548 H   0  0  0  0  0  0  0  0  0  0  0  0
   56.1458   32.8845   44.3404 H   0  0  0  0  0  0  0  0  0  0  0  0
   57.8672   33.2255   43.8989 H   0  0  0  0  0  0  0  0  0  0  0  0
   55.2519   28.7851   44.8387 H   0  0  0  0  0  0  0  0  0  0  0  0
   56.5844   28.9345   43.6451 H   0  0  0  0  0  0  0  0  0  0  0  0
   59.0334   28.8552   45.0267 H   0  0  0  0  0  0  0  0  0  0  0  0
   60.3526   27.1100   46.2224 H   0  0  0  0  0  0  0  0  0  0  0  0
   59.1903   25.1923   47.3184 H   0  0  0  0  0  0  0  0  0  0  0  0
   56.7046   25.0097   47.2070 H   0  0  0  0  0  0  0  0  0  0  0  0
   58.4449   31.6070   47.6705 H   0  0  0  0  0  0  0  0  0  0  0  0
   59.8194   30.3194   49.2903 H   0  0  0  0  0  0  0  0  0  0  0  0
   61.9028   29.8693   51.7613 H   0  0  0  0  0  0  0  0  0  0  0  0
   60.7674   29.5664   50.4027 H   0  0  0  0  0  0  0  0  0  0  0  0
   62.3925   28.8011   50.4027 H   0  0  0  0  0  0  0  0  0  0  0  0
  1  2  1  0
  2  3  1  0
  3  4  2  0
  3  5  1  0
  5  6  2  0
  6  7  1  0
  7  8  1  0
  8  9  2  0
  8 10  2  0
  8 11  1  0
 11 12  1  0
 12 13  1  0
 13 14  2  0
 13 15  1  0
 15 16  1  0
 16 17  1  0
 17 18  2  0
 18 19  1  0
 19 20  2  0
 20 21  1  0
 21 22  2  0
 22 23  1  0
  7 24  2  0
 24 25  1  0
 25 26  2  0
 26 27  1  0
 27 28  1  0
 27 29  1  0
 29 30  2  0
 29  2  1  0
 26  5  1  0
 22 17  1  0
  1 31  1  0
  1 32  1  0
  1 33  1  0
  6 34  1  0
 12 35  1  0
 12 36  1  0
 16 37  1  0
 16 38  1  0
 18 39  1  0
 19 40  1  0
 20 41  1  0
 21 42  1  0
 24 43  1  0
 25 44  1  0
 28 45  1  0
 28 46  1  0
 28 47  1  0
M  CHG  3  11  -1  15  -1  23  -1
M  END
>  <UniqueID>  (74) 
69

>  <SMILES>  (74) 
Cn1c(=O)c2cc(S(=O)(=O)[N-]CC(=O)[N-]Cc3ccccc3[O-])ccc2n(C)c1=O

>  <Energy>  (74) 
61.00292574997998

>  <Genealogy>  (74) 
Cn1c(=O)c2cc(S(=O)(=O)[N-]CC(=O)[N-]Cc3ccccc3[O-])ccc2n(C)c1=O (protonated)
Cn1c(=O)c2cc(S(=O)(=O)[N-]CC(=O)[N-]Cc3ccccc3[O-])ccc2n(C)c1=O (3D coordinates assigned)
Cn1c(=O)c2cc(S(=O)(=O)[N-]CC(=O)[N-]Cc3ccccc3[O-])ccc2n(C)c1=O (optimized conformer: 61.00292574997998 kcal/mol)

>  <smiles>  (74) 
Cn1c(=O)c2cc(S(=O)(=O)NCC(=O)NCc3ccccc3O)ccc2n(C)c1=O

>  <score_type>  (74) 
oracle

>  <origin>  (74) 
adg

>  <m_score__min__energy>  (74) 
-15.130000000000001

>  <m_primary>  (74) 
energy

$$$$
74:0
     RDKit          3D

 65 68  0  0  0  0  0  0  0  0999 V2000
   60.2570   29.4130   46.5360 C   0  0  0  0  0  0  0  0  0  0  0  0
   59.1330   29.4280   45.8020 C   0  0  0  0  0  0  0  0  0  0  0  0
   58.5140   28.3310   45.1810 C   0  0  0  0  0  0  0  0  0  0  0  0
   58.7170   27.0070   45.3170 C   0  0  0  0  0  0  0  0  0  0  0  0
   57.8510   26.0800   46.0640 C   0  0  0  0  0  0  0  0  0  0  0  0
   58.3020   25.0800   46.8450 N   0  0  0  0  0  0  0  0  0  0  0  0
   57.1790   24.6030   47.4230 C   0  0  0  0  0  0  0  0  0  0  0  0
   57.1890   23.6360   48.2280 O   0  0  0  0  0  0  0  0  0  0  0  0
   56.0460   25.2520   47.0810 N   0  0  0  0  0  0  0  0  0  0  0  0
   56.4880   26.1930   46.2290 C   0  0  0  0  0  0  0  0  0  0  0  0
   55.6560   27.1300   45.6220 O   0  0  0  0  0  0  0  0  0  0  0  0
   57.5550   28.8570   44.3300 C   0  0  0  0  0  0  0  0  0  0  0  0
   57.5660   30.2230   44.5120 C   0  0  0  0  0  0  0  0  0  0  0  0
   56.6640   31.1810   43.7920 C   0  0  0  0  0  0  0  0  0  0  0  0
   58.5210   30.5730   45.4020 N   0  0  0  0  0  0  0  0  0  0  0  0
   58.8490   31.9180   45.7970 C   0  0  0  0  0  0  0  0  0  0  0  0
   58.7240   32.9720   44.8800 C   0  0  0  0  0  0  0  0  0  0  0  0
   59.0520   34.2750   45.2590 C   0  0  0  0  0  0  0  0  0  0  0  0
   59.5150   34.5350   46.5500 C   0  0  0  0  0  0  0  0  0  0  0  0
   59.6620   33.4880   47.4760 C   0  0  0  0  0  0  0  0  0  0  0  0
   60.1470   33.7560   48.8470 C   0  0  0  0  0  0  0  0  0  0  0  0
   59.3640   34.2870   49.6810 O   0  0  0  0  0  0  0  0  0  0  0  0
   61.4840   33.4050   49.2520 N   0  0  0  0  0  0  0  0  0  0  0  0
   62.0610   32.1240   48.8120 C   0  0  0  0  0  0  0  0  0  0  0  0
   63.1860   31.6600   49.7430 C   0  0  0  0  0  0  0  0  0  0  0  0
   64.1400   32.7550   49.9730 N   0  0  0  0  0  0  0  0  0  0  0  0
   65.5500   32.4900   50.0910 C   0  0  0  0  0  0  0  0  0  0  0  0
   65.9690   31.3010   50.1080 O   0  0  0  0  0  0  0  0  0  0  0  0
   66.4480   33.5660   50.1900 O   0  0  0  0  0  0  0  0  0  0  0  0
   67.2870   33.8770   51.3130 C   0  0  0  0  0  0  0  0  0  0  0  0
   68.7500   34.0570   50.8620 C   0  0  0  0  0  0  0  0  0  0  0  0
   67.2090   32.6880   52.2800 C   0  0  0  0  0  0  0  0  0  0  0  0
   66.7800   35.1400   52.0370 C   0  0  0  0  0  0  0  0  0  0  0  0
   63.6550   34.1260   50.1800 C   0  0  0  0  0  0  0  0  0  0  0  0
   62.1300   34.1750   50.3220 C   0  0  0  0  0  0  0  0  0  0  0  0
   59.3100   32.1830   47.0960 C   0  0  0  0  0  0  0  0  0  0  0  0
   60.6420   30.3469   46.9716 H   0  0  0  0  0  0  0  0  0  0  0  0
   60.7930   28.4668   46.7019 H   0  0  0  0  0  0  0  0  0  0  0  0
   59.6059   26.5816   44.8282 H   0  0  0  0  0  0  0  0  0  0  0  0
   55.8960   27.5500   44.7310 H   0  0  0  0  0  0  0  0  0  0  0  0
   56.9090   28.2925   43.6414 H   0  0  0  0  0  0  0  0  0  0  0  0
   56.1022   31.7776   44.5258 H   0  0  0  0  0  0  0  0  0  0  0  0
   57.2680   31.8496   43.1611 H   0  0  0  0  0  0  0  0  0  0  0  0
   55.9602   30.6183   43.1611 H   0  0  0  0  0  0  0  0  0  0  0  0
   58.3665   32.7713   43.8593 H   0  0  0  0  0  0  0  0  0  0  0  0
   58.9453   35.0991   44.5383 H   0  0  0  0  0  0  0  0  0  0  0  0
   59.7661   35.5648   46.8441 H   0  0  0  0  0  0  0  0  0  0  0  0
   61.2689   31.3608   48.8021 H   0  0  0  0  0  0  0  0  0  0  0  0
   62.4842   32.2657   47.8066 H   0  0  0  0  0  0  0  0  0  0  0  0
   62.7549   31.3458   50.7050 H   0  0  0  0  0  0  0  0  0  0  0  0
   63.7143   30.8166   49.2744 H   0  0  0  0  0  0  0  0  0  0  0  0
   69.3992   34.1369   51.7464 H   0  0  0  0  0  0  0  0  0  0  0  0
   69.0571   33.1899   50.2589 H   0  0  0  0  0  0  0  0  0  0  0  0
   68.8377   34.9727   50.2589 H   0  0  0  0  0  0  0  0  0  0  0  0
   67.2331   33.0560   53.3163 H   0  0  0  0  0  0  0  0  0  0  0  0
   66.2728   32.1366   52.1084 H   0  0  0  0  0  0  0  0  0  0  0  0
   68.0652   32.0190   52.1084 H   0  0  0  0  0  0  0  0  0  0  0  0
   66.8409   34.9884   53.1248 H   0  0  0  0  0  0  0  0  0  0  0  0
   67.4022   36.0010   51.7514 H   0  0  0  0  0  0  0  0  0  0  0  0
   65.7352   35.3318   51.7514 H   0  0  0  0  0  0  0  0  0  0  0  0
   64.1110   34.5305   51.0957 H   0  0  0  0  0  0  0  0  0  0  0  0
   63.9358   34.7243   49.3007 H   0  0  0  0  0  0  0  0  0  0  0  0
   61.8442   33.7502   51.2956 H   0  0  0  0  0  0  0  0  0  0  0  0
   61.8018   35.2225   50.2514 H   0  0  0  0  0  0  0  0  0  0  0  0
   59.3962   31.3614   47.8223 H   0  0  0  0  0  0  0  0  0  0  0  0
  1  2  2  0
  2  3  1  0
  3  4  2  3
  4  5  1  0
  5  6  1  0
  6  7  1  0
  7  8  2  0
  7  9  1  0
  9 10  1  0
 10 11  1  0
  3 12  1  0
 12 13  2  0
 13 14  1  0
 13 15  1  0
 15 16  1  0
 16 17  2  0
 17 18  1  0
 18 19  2  0
 19 20  1  0
 20 21  1  0
 21 22  2  0
 21 23  1  0
 23 24  1  0
 24 25  1  0
 25 26  1  0
 26 27  1  0
 27 28  2  0
 27 29  1  0
 29 30  1  0
 30 31  1  0
 30 32  1  0
 30 33  1  0
 26 34  1  0
 34 35  1  0
 20 36  2  0
 15  2  1  0
 36 16  1  0
 10  5  2  0
 35 23  1  0
  1 37  1  0
  1 38  1  0
  4 39  1  0
 11 40  1  0
 12 41  1  0
 14 42  1  0
 14 43  1  0
 14 44  1  0
 17 45  1  0
 18 46  1  0
 19 47  1  0
 24 48  1  0
 24 49  1  0
 25 50  1  0
 25 51  1  0
 31 52  1  0
 31 53  1  0
 31 54  1  0
 32 55  1  0
 32 56  1  0
 32 57  1  0
 33 58  1  0
 33 59  1  0
 33 60  1  0
 34 61  1  0
 34 62  1  0
 35 63  1  0
 35 64  1  0
 36 65  1  0
M  CHG  2   6  -1   9  -1
M  END
>  <UniqueID>  (75) 
70

>  <SMILES>  (75) 
C=c1c(=Cc2[n-]c(=O)[n-]c2O)cc(C)n1-c1cccc(C(=O)N2CCN(C(=O)OC(C)(C)C)CC2)c1

>  <Energy>  (75) 
140.98375534261152

>  <Genealogy>  (75) 
C=c1c(=Cc2[n-]c(=O)[n-]c2O)cc(C)n1-c1cccc(C(=O)N2CCN(C(=O)OC(C)(C)C)CC2)c1 (protonated)
C=c1c(=Cc2[n-]c(=O)[n-]c2O)cc(C)n1-c1cccc(C(=O)N2CCN(C(=O)OC(C)(C)C)CC2)c1 (3D coordinates assigned)
C=c1c(=Cc2[n-]c(=O)[n-]c2O)cc(C)n1-c1cccc(C(=O)N2CCN(C(=O)OC(C)(C)C)CC2)c1 (nonaromatic ring conformer: 140.98375534261152 kcal/mol)

>  <smiles>  (75) 
C=c1c(=Cc2[nH]c(=O)[nH]c2O)cc(C)n1-c1cccc(C(=O)N2CCN(C(=O)OC(C)(C)C)CC2)c1

>  <score_type>  (75) 
oracle

>  <origin>  (75) 
adg

>  <m_score__min__energy>  (75) 
-14.23

>  <m_primary>  (75) 
energy

$$$$
75:0
     RDKit          3D

 56 58  0  0  0  0  0  0  0  0999 V2000
   59.2770   29.1720   48.2480 C   0  0  0  0  0  0  0  0  0  0  0  0
   60.3310   28.7740   47.2150 C   0  0  0  0  0  0  0  0  0  0  0  0
   60.0080   27.4390   46.5320 C   0  0  0  0  0  0  0  0  0  0  0  0
   58.5460   27.3100   46.2060 C   0  0  0  0  0  0  0  0  0  0  0  0
   57.8090   26.1990   46.6330 C   0  0  0  0  0  0  0  0  0  0  0  0
   56.4500   26.1420   46.3230 C   0  0  0  0  0  0  0  0  0  0  0  0
   55.7590   25.1550   46.6850 O   0  0  0  0  0  0  0  0  0  0  0  0
   55.8700   27.1560   45.6300 N   0  0  0  0  0  0  0  0  0  0  0  0
   56.5940   28.2370   45.2370 C   0  0  0  0  0  0  0  0  0  0  0  0
   55.8080   29.5560   44.3080 S   0  0  0  0  0  0  0  0  0  0  0  0
   57.3490   30.3100   43.6380 C   0  0  1  0  0  0  0  0  0  0  0  0
   57.0370   31.1360   42.3830 C   0  0  0  0  0  0  0  0  0  0  0  0
   58.1130   31.0720   44.7060 C   0  0  0  0  0  0  0  0  0  0  0  0
   59.2230   30.6180   45.0950 O   0  0  0  0  0  0  0  0  0  0  0  0
   57.6310   32.3250   45.2320 N   0  0  0  0  0  0  0  0  0  0  0  0
   58.4130   33.1910   46.0730 C   0  0  0  0  0  0  0  0  0  0  0  0
   58.7690   34.4650   45.6040 C   0  0  0  0  0  0  0  0  0  0  0  0
   59.5250   35.3250   46.4020 C   0  0  0  0  0  0  0  0  0  0  0  0
   59.9540   34.9150   47.6660 C   0  0  0  0  0  0  0  0  0  0  0  0
   59.6410   33.6310   48.1340 C   0  0  0  0  0  0  0  0  0  0  0  0
   60.2230   33.0940   49.7130 S   0  0  0  0  0  0  0  0  0  0  0  0
   59.3840   31.9380   50.1810 O   0  0  0  0  0  0  0  0  0  0  0  0
   60.0670   34.2140   50.7050 O   0  0  0  0  0  0  0  0  0  0  0  0
   61.9000   32.6020   49.6520 N   0  0  0  0  0  0  0  0  0  0  0  0
   62.1730   31.7310   48.4870 C   0  0  0  0  0  0  0  0  0  0  0  0
   62.9260   32.4780   47.3710 C   0  0  0  0  0  0  0  0  0  0  0  0
   64.1690   33.0190   47.7970 O   0  0  0  0  0  0  0  0  0  0  0  0
   64.1780   33.4410   49.1560 C   0  0  0  0  0  0  0  0  0  0  0  0
   62.7860   33.7800   49.7150 C   0  0  0  0  0  0  0  0  0  0  0  0
   58.8720   32.7730   47.3360 C   0  0  0  0  0  0  0  0  0  0  0  0
   57.9220   28.3040   45.5180 N   0  0  0  0  0  0  0  0  0  0  0  0
   59.6799   29.0199   49.2602 H   0  0  0  0  0  0  0  0  0  0  0  0
   59.0136   30.2315   48.1136 H   0  0  0  0  0  0  0  0  0  0  0  0
   58.3790   28.5510   48.1136 H   0  0  0  0  0  0  0  0  0  0  0  0
   60.3863   29.5592   46.4467 H   0  0  0  0  0  0  0  0  0  0  0  0
   61.2891   28.6568   47.7425 H   0  0  0  0  0  0  0  0  0  0  0  0
   60.5870   27.3684   45.5994 H   0  0  0  0  0  0  0  0  0  0  0  0
   60.2727   26.6295   47.2281 H   0  0  0  0  0  0  0  0  0  0  0  0
   58.2907   25.3890   47.2003 H   0  0  0  0  0  0  0  0  0  0  0  0
   58.0316   29.5078   43.3209 H   0  0  0  0  0  0  0  0  0  0  0  0
   56.6627   32.1269   42.6799 H   0  0  0  0  0  0  0  0  0  0  0  0
   57.9525   31.2540   41.7847 H   0  0  0  0  0  0  0  0  0  0  0  0
   56.2721   30.6193   41.7847 H   0  0  0  0  0  0  0  0  0  0  0  0
   56.6300   32.5830   45.0950 H   0  0  0  0  0  0  0  0  0  0  0  0
   58.4504   34.7875   44.6018 H   0  0  0  0  0  0  0  0  0  0  0  0
   59.7837   36.3289   46.0341 H   0  0  0  0  0  0  0  0  0  0  0  0
   60.5390   35.6011   48.2961 H   0  0  0  0  0  0  0  0  0  0  0  0
   62.7833   30.8775   48.8172 H   0  0  0  0  0  0  0  0  0  0  0  0
   61.2075   31.3965   48.0798 H   0  0  0  0  0  0  0  0  0  0  0  0
   63.1153   31.7750   46.5464 H   0  0  0  0  0  0  0  0  0  0  0  0
   62.2930   33.3218   47.0589 H   0  0  0  0  0  0  0  0  0  0  0  0
   64.6084   32.6333   49.7661 H   0  0  0  0  0  0  0  0  0  0  0  0
   64.7717   34.3661   49.1980 H   0  0  0  0  0  0  0  0  0  0  0  0
   62.8855   34.1019   50.7621 H   0  0  0  0  0  0  0  0  0  0  0  0
   62.3473   34.5864   49.1090 H   0  0  0  0  0  0  0  0  0  0  0  0
   58.6252   31.7647   47.6998 H   0  0  0  0  0  0  0  0  0  0  0  0
  1  2  1  0
  2  3  1  0
  3  4  1  0
  4  5  2  0
  5  6  1  0
  6  7  2  0
  6  8  1  0
  8  9  1  0
  9 10  1  0
 10 11  1  0
 11 12  1  0
 11 13  1  0
 13 14  2  0
 13 15  1  0
 15 16  1  0
 16 17  2  0
 17 18  1  0
 18 19  2  0
 19 20  1  0
 20 21  1  0
 21 22  2  0
 21 23  2  0
 21 24  1  0
 24 25  1  0
 25 26  1  0
 26 27  1  0
 27 28  1  0
 28 29  1  0
 20 30  2  0
  9 31  2  0
 31  4  1  0
 30 16  1  0
 29 24  1  0
  1 32  1  0
  1 33  1  0
  1 34  1  0
  2 35  1  0
  2 36  1  0
  3 37  1  0
  3 38  1  0
  5 39  1  0
 11 40  1  6
 12 41  1  0
 12 42  1  0
 12 43  1  0
 15 44  1  0
 17 45  1  0
 18 46  1  0
 19 47  1  0
 25 48  1  0
 25 49  1  0
 26 50  1  0
 26 51  1  0
 28 52  1  0
 28 53  1  0
 29 54  1  0
 29 55  1  0
 30 56  1  0
M  CHG  1   8  -1
M  END
>  <UniqueID>  (76) 
71

>  <SMILES>  (76) 
CCCc1cc(=O)[n-]c(S[C@@H](C)C(=O)Nc2cccc(S(=O)(=O)N3CCOCC3)c2)n1

>  <Energy>  (76) 
62.51930054243668

>  <Genealogy>  (76) 
CCCc1cc(=O)[n-]c(SC(C)C(=O)Nc2cccc(S(=O)(=O)N3CCOCC3)c2)n1 (protonated)
CCCc1cc(=O)[n-]c(S[C@@H](C)C(=O)Nc2cccc(S(=O)(=O)N3CCOCC3)c2)n1 (chirality)
CCCc1cc(=O)[n-]c(S[C@@H](C)C(=O)Nc2cccc(S(=O)(=O)N3CCOCC3)c2)n1 (3D coordinates assigned)
CCCc1cc(=O)[n-]c(S[C@@H](C)C(=O)Nc2cccc(S(=O)(=O)N3CCOCC3)c2)n1 (nonaromatic ring conformer: 62.51930054243668 kcal/mol)

>  <smiles>  (76) 
CCCc1cc(=O)[nH]c(SC(C)C(=O)Nc2cccc(S(=O)(=O)N3CCOCC3)c2)n1

>  <score_type>  (76) 
oracle

>  <origin>  (76) 
adg

>  <m_score__min__energy>  (76) 
-10.76

>  <m_primary>  (76) 
energy

$$$$
76:0
     RDKit          3D

 49 52  0  0  1  0  0  0  0  0999 V2000
   55.2910   29.6280   44.8150 O   0  0  0  0  0  0  0  0  0  0  0  0
   56.4470   29.6920   44.3120 C   0  0  0  0  0  0  0  0  0  0  0  0
   56.8820   30.9150   43.5730 C   0  0  0  0  0  0  0  0  0  0  0  0
   57.5760   31.8010   44.5490 C   0  0  0  0  0  0  0  0  0  0  0  0
   57.1100   33.0600   44.8690 C   0  0  0  0  0  0  0  0  0  0  0  0
   57.7480   33.8770   45.7700 C   0  0  0  0  0  0  0  0  0  0  0  0
   58.9190   33.4510   46.4070 C   0  0  0  0  0  0  0  0  0  0  0  0
   57.3910   28.6280   44.4160 N   0  0  0  0  0  0  0  0  0  0  0  0
   60.1180   33.7570   48.3670 C   0  0  0  0  0  0  0  0  0  0  0  0
   59.3830   33.2910   49.4910 N   0  0  0  0  0  0  0  0  0  0  0  0
   59.9130   32.2490   50.3870 C   0  0  1  0  0  0  0  0  0  0  0  0
   58.8520   31.6100   51.1580 C   0  0  0  0  0  0  0  0  0  0  0  0
   58.7420   30.2890   51.4660 C   0  0  0  0  0  0  0  0  0  0  0  0
   57.7030   29.7540   52.2030 C   0  0  0  0  0  0  0  0  0  0  0  0
   56.7090   30.5730   52.6660 C   0  0  0  0  0  0  0  0  0  0  0  0
   56.7920   31.9170   52.3720 C   0  0  0  0  0  0  0  0  0  0  0  0
   57.8290   32.4420   51.6370 C   0  0  0  0  0  0  0  0  0  0  0  0
   60.7660   31.3730   49.5490 C   0  0  0  0  0  0  0  0  0  0  0  0
   62.1510   32.0300   49.4370 C   0  0  0  0  0  0  0  0  0  0  0  0
   61.9140   33.5450   48.4280 S   0  0  0  0  0  0  0  0  0  0  0  0
   59.3860   32.1920   46.0880 C   0  0  0  0  0  0  0  0  0  0  0  0
   58.7290   31.3840   45.1790 C   0  0  0  0  0  0  0  0  0  0  0  0
   59.5690   34.3100   47.3370 N   0  0  0  0  0  0  0  0  0  0  0  0
   57.2300   27.7040   45.3260 C   0  0  0  0  0  0  0  0  0  0  0  0
   58.2070   27.0640   46.0660 C   0  0  0  0  0  0  0  0  0  0  0  0
   57.5610   26.1690   46.8990 C   0  0  0  0  0  0  0  0  0  0  0  0
   56.2500   26.2670   46.6680 N   0  0  0  0  0  0  0  0  0  0  0  0
   56.0570   27.1840   45.7300 N   0  0  0  0  0  0  0  0  0  0  0  0
   57.5701   30.6387   42.7605 H   0  0  0  0  0  0  0  0  0  0  0  0
   56.0169   31.4288   43.1284 H   0  0  0  0  0  0  0  0  0  0  0  0
   56.1921   33.4232   44.3837 H   0  0  0  0  0  0  0  0  0  0  0  0
   57.3360   34.8724   45.9923 H   0  0  0  0  0  0  0  0  0  0  0  0
   58.4400   33.7230   49.6540 H   0  0  0  0  0  0  0  0  0  0  0  0
   60.5497   32.6491   51.1899 H   0  0  0  0  0  0  0  0  0  0  0  0
   59.5267   29.6068   51.1070 H   0  0  0  0  0  0  0  0  0  0  0  0
   57.6748   28.6753   52.4166 H   0  0  0  0  0  0  0  0  0  0  0  0
   55.8706   30.1714   53.2540 H   0  0  0  0  0  0  0  0  0  0  0  0
   56.0034   32.5914   52.7370 H   0  0  0  0  0  0  0  0  0  0  0  0
   57.8565   33.5207   51.4234 H   0  0  0  0  0  0  0  0  0  0  0  0
   60.8590   30.3824   50.0180 H   0  0  0  0  0  0  0  0  0  0  0  0
   60.3206   31.2451   48.5514 H   0  0  0  0  0  0  0  0  0  0  0  0
   62.5315   32.2916   50.4354 H   0  0  0  0  0  0  0  0  0  0  0  0
   62.8828   31.3501   48.9763 H   0  0  0  0  0  0  0  0  0  0  0  0
   60.3037   31.8225   46.5690 H   0  0  0  0  0  0  0  0  0  0  0  0
   59.1350   30.3868   44.9535 H   0  0  0  0  0  0  0  0  0  0  0  0
   59.2919   27.2344   46.0039 H   0  0  0  0  0  0  0  0  0  0  0  0
   58.0422   25.4956   47.6236 H   0  0  0  0  0  0  0  0  0  0  0  0
   55.4990   25.7140   47.1490 H   0  0  0  0  0  0  0  0  0  0  0  0
   55.1430   27.5020   45.3190 H   0  0  0  0  0  0  0  0  0  0  0  0
  1  2  2  0
  2  3  1  0
  3  4  1  0
  4  5  2  0
  5  6  1  0
  6  7  2  0
  7  8  1  0
  8  9  2  0
  9 10  1  0
 10 11  1  0
 11 12  1  0
 12 13  2  0
 13 14  1  0
 14 15  2  0
 15 16  1  0
 16 17  2  0
 11 18  1  0
 18 19  1  0
 19 20  1  0
  7 21  1  0
 21 22  2  0
  2 23  1  0
 23 24  2  0
 24 25  1  0
 25 26  2  0
 26 27  1  0
 27 28  1  0
 22  4  1  0
 28 24  1  0
 20  9  1  0
 17 12  1  0
  3 29  1  0
  3 30  1  0
  5 31  1  0
  6 32  1  0
 10 33  1  0
 11 34  1  1
 13 35  1  0
 14 36  1  0
 15 37  1  0
 16 38  1  0
 17 39  1  0
 18 40  1  0
 18 41  1  0
 19 42  1  0
 19 43  1  0
 21 44  1  0
 22 45  1  0
 25 46  1  0
 26 47  1  0
 27 48  1  0
 28 49  1  0
M  END
>  <smiles>  (77) 
O=C(Cc1ccc(N=C2NC(c3ccccc3)CCS2)cc1)N=c1cc[nH][nH]1

>  <score_type>  (77) 
oracle

>  <origin>  (77) 
adg

>  <m_score__min__energy>  (77) 
-10.039999999999999

>  <m_primary>  (77) 
energy

$$$$
77:0
     RDKit          3D

 46 49  0  0  0  0  0  0  0  0999 V2000
   53.5290   28.1890   52.9190 C   0  0  0  0  0  0  0  0  0  0  0  0
   54.3540   29.2490   52.8190 C   0  0  0  0  0  0  0  0  0  0  0  0
   55.5530   29.2150   53.5560 C   0  0  0  0  0  0  0  0  0  0  0  0
   56.5270   30.1340   53.3410 N   0  0  0  0  0  0  0  0  0  0  0  0
   56.3970   31.1230   52.4200 C   0  0  0  0  0  0  0  0  0  0  0  0
   57.5070   32.0730   52.2200 C   0  0  0  0  0  0  0  0  0  0  0  0
   57.3210   33.2900   52.4990 O   0  0  0  0  0  0  0  0  0  0  0  0
   58.7900   31.6420   51.7220 N   0  0  0  0  0  0  0  0  0  0  0  0
   60.0180   32.2560   52.2330 C   0  0  0  0  0  0  0  0  0  0  0  0
   61.0200   31.1600   52.6040 C   0  0  0  0  0  0  0  0  0  0  0  0
   61.0700   30.1040   51.5810 N   0  0  0  0  0  0  0  0  0  0  0  0
   62.0150   29.0350   51.7370 C   0  0  0  0  0  0  0  0  0  0  0  0
   63.2320   29.2450   51.4760 O   0  0  0  0  0  0  0  0  0  0  0  0
   61.6340   27.7150   52.3580 C   0  0  0  0  0  0  0  0  0  0  0  0
   60.1760   27.5070   52.7450 C   0  0  0  0  0  0  0  0  0  0  0  0
   60.7280   26.8550   51.4890 C   0  0  0  0  0  0  0  0  0  0  0  0
   60.3270   30.2530   50.3230 C   0  0  0  0  0  0  0  0  0  0  0  0
   58.8740   30.6800   50.6060 C   0  0  0  0  0  0  0  0  0  0  0  0
   55.2310   31.2020   51.6530 C   0  0  0  0  0  0  0  0  0  0  0  0
   54.1460   30.3360   51.9020 C   0  0  0  0  0  0  0  0  0  0  0  0
   52.9740   30.6180   51.2800 C   0  0  0  0  0  0  0  0  0  0  0  0
   51.8450   31.3380   51.8960 C   0  0  0  0  0  0  0  0  0  0  0  0
   51.5020   31.2420   53.1940 N   0  0  0  0  0  0  0  0  0  0  0  0
   50.5030   32.1430   53.3200 C   0  0  0  0  0  0  0  0  0  0  0  0
   49.9120   32.3450   54.4090 O   0  0  0  0  0  0  0  0  0  0  0  0
   50.1950   32.8050   52.1820 N   0  0  0  0  0  0  0  0  0  0  0  0
   51.0560   32.2920   51.2950 C   0  0  0  0  0  0  0  0  0  0  0  0
   51.1390   32.6970   49.9670 O   0  0  0  0  0  0  0  0  0  0  0  0
   52.5818   28.1746   52.3599 H   0  0  0  0  0  0  0  0  0  0  0  0
   53.8025   27.3377   53.5598 H   0  0  0  0  0  0  0  0  0  0  0  0
   55.7017   28.4334   54.3156 H   0  0  0  0  0  0  0  0  0  0  0  0
   60.4537   32.9042   51.4584 H   0  0  0  0  0  0  0  0  0  0  0  0
   59.7843   32.8564   53.1246 H   0  0  0  0  0  0  0  0  0  0  0  0
   62.0194   31.6086   52.7033 H   0  0  0  0  0  0  0  0  0  0  0  0
   60.6978   30.7056   53.5525 H   0  0  0  0  0  0  0  0  0  0  0  0
   62.5871   27.5876   52.8923 H   0  0  0  0  0  0  0  0  0  0  0  0
   59.9218   26.8893   53.6190 H   0  0  0  0  0  0  0  0  0  0  0  0
   59.3282   28.1715   52.9679 H   0  0  0  0  0  0  0  0  0  0  0  0
   60.8731   25.7652   51.4537 H   0  0  0  0  0  0  0  0  0  0  0  0
   60.4448   26.8522   50.4261 H   0  0  0  0  0  0  0  0  0  0  0  0
   60.8154   31.0182   49.7018 H   0  0  0  0  0  0  0  0  0  0  0  0
   60.3194   29.2875   49.7960 H   0  0  0  0  0  0  0  0  0  0  0  0
   58.4583   31.1478   49.7014 H   0  0  0  0  0  0  0  0  0  0  0  0
   58.3036   29.7822   50.8864 H   0  0  0  0  0  0  0  0  0  0  0  0
   55.1590   31.9472   50.8471 H   0  0  0  0  0  0  0  0  0  0  0  0
   52.8575   30.2845   50.2383 H   0  0  0  0  0  0  0  0  0  0  0  0
  1  2  2  0
  2  3  1  0
  3  4  2  0
  4  5  1  0
  5  6  1  0
  6  7  2  0
  6  8  1  0
  8  9  1  0
  9 10  1  0
 10 11  1  0
 11 12  1  0
 12 13  2  0
 12 14  1  0
 14 15  1  0
 15 16  1  0
 11 17  1  0
 17 18  1  0
  5 19  2  0
 19 20  1  0
 20 21  2  3
 21 22  1  0
 22 23  1  0
 23 24  1  0
 24 25  2  0
 24 26  1  0
 26 27  1  0
 27 28  1  0
 20  2  1  0
 27 22  2  0
 18  8  1  0
 16 14  1  0
  1 29  1  0
  1 30  1  0
  3 31  1  0
  9 32  1  0
  9 33  1  0
 10 34  1  0
 10 35  1  0
 14 36  1  0
 15 37  1  0
 15 38  1  0
 16 39  1  0
 16 40  1  0
 17 41  1  0
 17 42  1  0
 18 43  1  0
 18 44  1  0
 19 45  1  0
 21 46  1  0
M  CHG  3  23  -1  26  -1  28  -1
M  END
>  <UniqueID>  (78) 
72

>  <SMILES>  (78) 
C=c1cnc(C(=O)N2CCN(C(=O)C3CC3)CC2)cc1=Cc1[n-]c(=O)[n-]c1[O-]

>  <Energy>  (78) 
373.16729940666096

>  <Genealogy>  (78) 
C=c1cnc(C(=O)N2CCN(C(=O)C3CC3)CC2)cc1=Cc1[n-]c(=O)[n-]c1[O-] (protonated)
C=c1cnc(C(=O)N2CCN(C(=O)C3CC3)CC2)cc1=Cc1[n-]c(=O)[n-]c1[O-] (3D coordinates assigned)
C=c1cnc(C(=O)N2CCN(C(=O)C3CC3)CC2)cc1=Cc1[n-]c(=O)[n-]c1[O-] (nonaromatic ring conformer: 373.16729940666096 kcal/mol)

>  <smiles>  (78) 
C=c1cnc(C(=O)N2CCN(C(=O)C3CC3)CC2)cc1=Cc1[nH]c(=O)[nH]c1O

>  <score_type>  (78) 
oracle

>  <origin>  (78) 
adg

>  <m_score__min__energy>  (78) 
-16.550000000000001

>  <m_primary>  (78) 
energy

$$$$
78:0
     RDKit          3D

 53 55  0  0  0  0  0  0  0  0999 V2000
   64.8250   33.0950   49.3700 C   0  0  0  0  0  0  0  0  0  0  0  0
   63.7580   32.5890   48.4000 C   0  0  0  0  0  0  0  0  0  0  0  0
   63.7740   33.4060   47.1060 C   0  0  0  0  0  0  0  0  0  0  0  0
   62.4450   32.6920   49.0380 N   0  0  0  0  0  0  0  0  0  0  0  0
   61.1800   32.7440   48.3640 C   0  0  0  0  0  0  0  0  0  0  0  0
   60.3400   33.6110   48.7230 O   0  0  0  0  0  0  0  0  0  0  0  0
   60.7890   31.7640   47.2870 C   0  0  0  0  0  0  0  0  0  0  0  0
   59.2730   31.5190   47.2650 C   0  0  0  0  0  0  0  0  0  0  0  0
   58.6520   31.9270   45.9430 C   0  0  0  0  0  0  0  0  0  0  0  0
   58.6930   33.2880   45.5870 C   0  0  0  0  0  0  0  0  0  0  0  0
   58.2650   33.7090   44.3260 C   0  0  0  0  0  0  0  0  0  0  0  0
   57.8000   32.7800   43.3990 C   0  0  0  0  0  0  0  0  0  0  0  0
   57.7380   31.4280   43.7360 C   0  0  0  0  0  0  0  0  0  0  0  0
   58.1450   30.9850   45.0060 C   0  0  0  0  0  0  0  0  0  0  0  0
   58.0160   29.5430   45.3160 C   0  0  0  0  0  0  0  0  0  0  0  0
   57.8830   28.6060   44.2800 C   0  0  0  0  0  0  0  0  0  0  0  0
   57.7570   27.2440   44.5730 C   0  0  0  0  0  0  0  0  0  0  0  0
   57.7430   26.8050   45.9080 C   0  0  0  0  0  0  0  0  0  0  0  0
   57.6610   25.4440   46.2390 O   0  0  0  0  0  0  0  0  0  0  0  0
   57.2170   24.4270   45.3810 C   0  0  0  0  0  0  0  0  0  0  0  0
   58.1370   23.5490   44.7810 C   0  0  0  0  0  0  0  0  0  0  0  0
   57.7020   22.5610   43.8970 C   0  0  0  0  0  0  0  0  0  0  0  0
   56.3460   22.4420   43.5960 C   0  0  0  0  0  0  0  0  0  0  0  0
   55.9140   21.4560   42.7170 O   0  0  0  0  0  0  0  0  0  0  0  0
   55.4210   23.3130   44.1740 C   0  0  0  0  0  0  0  0  0  0  0  0
   55.8390   24.3160   45.0700 C   0  0  0  0  0  0  0  0  0  0  0  0
   54.8210   25.2140   45.6740 C   0  0  0  0  0  0  0  0  0  0  0  0
   55.0910   26.4160   45.9400 O   0  0  0  0  0  0  0  0  0  0  0  0
   53.5490   24.7370   45.9710 O   0  0  0  0  0  0  0  0  0  0  0  0
   57.8570   27.7420   46.9400 C   0  0  0  0  0  0  0  0  0  0  0  0
   57.9730   29.1040   46.6490 C   0  0  0  0  0  0  0  0  0  0  0  0
   64.4862   32.9343   50.4041 H   0  0  0  0  0  0  0  0  0  0  0  0
   65.7632   32.5459   49.2020 H   0  0  0  0  0  0  0  0  0  0  0  0
   64.9936   34.1690   49.2020 H   0  0  0  0  0  0  0  0  0  0  0  0
   63.9696   31.5395   48.1474 H   0  0  0  0  0  0  0  0  0  0  0  0
   63.7950   34.4785   47.3497 H   0  0  0  0  0  0  0  0  0  0  0  0
   64.6672   33.1458   46.5191 H   0  0  0  0  0  0  0  0  0  0  0  0
   62.8713   33.1810   46.5191 H   0  0  0  0  0  0  0  0  0  0  0  0
   61.0996   32.1646   46.3107 H   0  0  0  0  0  0  0  0  0  0  0  0
   61.2881   30.8065   47.4971 H   0  0  0  0  0  0  0  0  0  0  0  0
   59.0836   30.4482   47.4312 H   0  0  0  0  0  0  0  0  0  0  0  0
   58.8179   32.1306   48.0579 H   0  0  0  0  0  0  0  0  0  0  0  0
   59.0663   34.0283   46.3099 H   0  0  0  0  0  0  0  0  0  0  0  0
   58.2953   34.7771   44.0646 H   0  0  0  0  0  0  0  0  0  0  0  0
   57.4813   33.1126   42.4001 H   0  0  0  0  0  0  0  0  0  0  0  0
   57.3664   30.7004   42.9995 H   0  0  0  0  0  0  0  0  0  0  0  0
   57.8778   28.9439   43.2332 H   0  0  0  0  0  0  0  0  0  0  0  0
   57.6685   26.5136   43.7552 H   0  0  0  0  0  0  0  0  0  0  0  0
   59.2088   23.6419   45.0105 H   0  0  0  0  0  0  0  0  0  0  0  0
   58.4294   21.8757   43.4374 H   0  0  0  0  0  0  0  0  0  0  0  0
   54.3536   23.2149   43.9269 H   0  0  0  0  0  0  0  0  0  0  0  0
   57.8553   27.4049   47.9871 H   0  0  0  0  0  0  0  0  0  0  0  0
   58.0309   29.8357   47.4683 H   0  0  0  0  0  0  0  0  0  0  0  0
  1  2  1  0
  2  3  1  0
  2  4  1  0
  4  5  1  0
  5  6  2  0
  5  7  1  0
  7  8  1  0
  8  9  1  0
  9 10  2  0
 10 11  1  0
 11 12  2  0
 12 13  1  0
 13 14  2  0
 14 15  1  0
 15 16  2  0
 16 17  1  0
 17 18  2  0
 18 19  1  0
 19 20  1  0
 20 21  2  0
 21 22  1  0
 22 23  2  0
 23 24  1  0
 23 25  1  0
 25 26  2  0
 26 27  1  0
 27 28  2  0
 27 29  1  0
 18 30  1  0
 30 31  2  0
 14  9  1  0
 31 15  1  0
 26 20  1  0
  1 32  1  0
  1 33  1  0
  1 34  1  0
  2 35  1  0
  3 36  1  0
  3 37  1  0
  3 38  1  0
  7 39  1  0
  7 40  1  0
  8 41  1  0
  8 42  1  0
 10 43  1  0
 11 44  1  0
 12 45  1  0
 13 46  1  0
 16 47  1  0
 17 48  1  0
 21 49  1  0
 22 50  1  0
 25 51  1  0
 30 52  1  0
 31 53  1  0
M  CHG  3   4  -1  24  -1  29  -1
M  END
>  <UniqueID>  (79) 
73

>  <SMILES>  (79) 
CC(C)[N-]C(=O)CCc1ccccc1-c1ccc(Oc2ccc([O-])cc2C(=O)[O-])cc1

>  <Energy>  (79) 
61.3334172328592

>  <Genealogy>  (79) 
CC(C)[N-]C(=O)CCc1ccccc1-c1ccc(Oc2ccc([O-])cc2C(=O)[O-])cc1 (protonated)
CC(C)[N-]C(=O)CCc1ccccc1-c1ccc(Oc2ccc([O-])cc2C(=O)[O-])cc1 (3D coordinates assigned)
CC(C)[N-]C(=O)CCc1ccccc1-c1ccc(Oc2ccc([O-])cc2C(=O)[O-])cc1 (optimized conformer: 61.3334172328592 kcal/mol)

>  <smiles>  (79) 
CC(C)NC(=O)CCc1ccccc1-c1ccc(Oc2ccc(O)cc2C(=O)O)cc1

>  <score_type>  (79) 
oracle

>  <origin>  (79) 
adg

>  <m_score__min__energy>  (79) 
-14.44

>  <m_primary>  (79) 
energy

$$$$
79:0
     RDKit          3D

 41 43  0  0  0  0  0  0  0  0999 V2000
   59.4281   22.1230   44.6682 H   0  0  0  0  0  0  0  0  0  0  0  0
   58.3430   22.0480   44.5040 C   0  0  0  0  0  0  0  0  0  0  0  0
   57.9290   21.4380   43.3850 C   0  0  0  0  0  0  0  0  0  0  0  0
   58.6917   21.0612   42.6877 H   0  0  0  0  0  0  0  0  0  0  0  0
   56.5490   21.2480   43.0440 N   0  0  0  0  0  0  0  0  0  0  0  0
   56.0160   20.1440   43.2750 O   0  0  0  0  0  0  0  0  0  0  0  0
   55.8980   22.1400   42.2240 O   0  0  0  0  0  0  0  0  0  0  0  0
   57.4570   22.6280   45.5350 C   0  0  0  0  0  0  0  0  0  0  0  0
   57.1890   21.9470   46.7350 C   0  0  0  0  0  0  0  0  0  0  0  0
   57.6044   20.9418   46.8991 H   0  0  0  0  0  0  0  0  0  0  0  0
   56.3970   22.5420   47.7200 C   0  0  0  0  0  0  0  0  0  0  0  0
   56.1853   22.0012   48.6542 H   0  0  0  0  0  0  0  0  0  0  0  0
   55.8730   23.8220   47.5220 C   0  0  0  0  0  0  0  0  0  0  0  0
   55.2569   24.2893   48.3043 H   0  0  0  0  0  0  0  0  0  0  0  0
   56.1310   24.5150   46.3250 C   0  0  0  0  0  0  0  0  0  0  0  0
   55.6530   25.8530   46.1020 N   0  0  0  0  0  0  0  0  0  0  0  0
   56.3710   26.9350   46.0160 C   0  0  0  0  0  0  0  0  0  0  0  0
   55.9300   27.9610   45.2440 N   0  0  0  0  0  0  0  0  0  0  0  0
   56.6350   29.1170   45.1380 C   0  0  0  0  0  0  0  0  0  0  0  0
   56.2524   29.9371   44.5126 H   0  0  0  0  0  0  0  0  0  0  0  0
   57.8450   29.2680   45.8210 C   0  0  0  0  0  0  0  0  0  0  0  0
   58.5780   30.5000   45.7110 N   0  0  0  0  0  0  0  0  0  0  0  0
   59.1960   30.6250   44.8780 H   0  0  0  0  0  0  0  0  0  0  0  0
   58.6930   31.4460   46.7870 C   0  0  0  0  0  0  0  0  0  0  0  0
   58.4430   31.0790   47.9690 O   0  0  0  0  0  0  0  0  0  0  0  0
   59.1450   32.8360   46.5340 C   0  0  0  0  0  0  0  0  0  0  0  0
   58.8390   33.4690   45.3150 C   0  0  0  0  0  0  0  0  0  0  0  0
   58.2578   32.9312   44.5515 H   0  0  0  0  0  0  0  0  0  0  0  0
   59.2680   34.7760   45.0670 C   0  0  0  0  0  0  0  0  0  0  0  0
   59.0197   35.2634   44.1127 H   0  0  0  0  0  0  0  0  0  0  0  0
   60.0110   35.4640   46.0280 C   0  0  0  0  0  0  0  0  0  0  0  0
   60.3442   36.4940   45.8328 H   0  0  0  0  0  0  0  0  0  0  0  0
   60.3310   34.8430   47.2380 C   0  0  0  0  0  0  0  0  0  0  0  0
   60.9202   35.3837   47.9933 H   0  0  0  0  0  0  0  0  0  0  0  0
   59.9040   33.5360   47.4910 C   0  0  0  0  0  0  0  0  0  0  0  0
   60.1628   33.0514   48.4440 H   0  0  0  0  0  0  0  0  0  0  0  0
   58.2660   28.2120   46.6490 C   0  0  0  0  0  0  0  0  0  0  0  0
   59.3100   28.3140   47.3470 O   0  0  0  0  0  0  0  0  0  0  0  0
   57.5260   27.0760   46.7230 N   0  0  0  0  0  0  0  0  0  0  0  0
   56.9540   23.9250   45.3560 C   0  0  0  0  0  0  0  0  0  0  0  0
   57.2084   24.4857   44.4445 H   0  0  0  0  0  0  0  0  0  0  0  0
  1  2  1  0
  2  3  2  0
  3  4  1  0
  3  5  1  0
  5  6  2  0
  5  7  1  0
  2  8  1  0
  8  9  2  0
  9 10  1  0
  9 11  1  0
 11 12  1  0
 11 13  2  0
 13 14  1  0
 13 15  1  0
 15 16  1  0
 16 17  2  3
 17 18  1  0
 18 19  1  0
 19 20  1  0
 19 21  2  0
 21 22  1  0
 22 23  1  0
 22 24  1  0
 24 25  2  0
 24 26  1  0
 26 27  2  0
 27 28  1  0
 27 29  1  0
 29 30  1  0
 29 31  2  0
 31 32  1  0
 31 33  1  0
 33 34  1  0
 33 35  2  0
 35 36  1  0
 21 37  1  0
 37 38  2  0
 37 39  1  0
 15 40  2  0
 40 41  1  0
 40  8  1  0
 39 17  1  0
 35 26  1  0
M  CHG  4   5   1   7  -1  18  -1  39  -1
M  END
>  <UniqueID>  (80) 
74

>  <SMILES>  (80) 
O=C(Nc1c[n-]c(=Nc2cccc(/C=C\[N+](=O)[O-])c2)[n-]c1=O)c1ccccc1

>  <Energy>  (80) 
65.92597866199452

>  <Genealogy>  (80) 
O=C(Nc1c[n-]c(=Nc2cccc(C=C[N+](=O)[O-])c2)[n-]c1=O)c1ccccc1 (protonated)
O=C(Nc1c[n-]c(=Nc2cccc(/C=C\[N+](=O)[O-])c2)[n-]c1=O)c1ccccc1 (cis-trans isomerization)
O=C(Nc1c[n-]c(=Nc2cccc(/C=C\[N+](=O)[O-])c2)[n-]c1=O)c1ccccc1 (3D coordinates assigned)
O=C(Nc1c[n-]c(=Nc2cccc(/C=C\[N+](=O)[O-])c2)[n-]c1=O)c1ccccc1 (optimized conformer: 65.92597866199452 kcal/mol)

>  <smiles>  (80) 
O=C(Nc1c[nH]c(=Nc2cccc(C=C[N+](=O)[O-])c2)[nH]c1=O)c1ccccc1

>  <score_type>  (80) 
oracle

>  <origin>  (80) 
adg

>  <m_score__min__energy>  (80) 
-11.84

>  <m_primary>  (80) 
energy

$$$$
80:0
     RDKit          3D

 51 53  0  0  0  0  0  0  0  0999 V2000
   58.7280   25.1490   46.0870 C   0  0  0  0  0  0  0  0  0  0  0  0
   59.6180   26.3360   45.7390 C   0  0  0  0  0  0  0  0  0  0  0  0
   59.0390   27.5770   46.2660 N   0  0  0  0  0  0  0  0  0  0  0  0
   59.8500   28.4620   47.1160 C   0  0  0  0  0  0  0  0  0  0  0  0
   59.6610   28.1340   48.5750 C   0  0  0  0  0  0  0  0  0  0  0  0
   59.9140   26.9700   48.9820 O   0  0  0  0  0  0  0  0  0  0  0  0
   59.3730   29.1540   49.5420 N   0  0  0  0  0  0  0  0  0  0  0  0
   59.6600   30.5500   49.4050 C   0  0  0  0  0  0  0  0  0  0  0  0
   60.4510   31.1860   50.3710 C   0  0  0  0  0  0  0  0  0  0  0  0
   60.7170   32.5560   50.2700 C   0  0  0  0  0  0  0  0  0  0  0  0
   60.1840   33.3000   49.2130 C   0  0  0  0  0  0  0  0  0  0  0  0
   59.3720   32.6810   48.2510 C   0  0  0  0  0  0  0  0  0  0  0  0
   58.8030   33.4350   47.1650 N   0  0  0  0  0  0  0  0  0  0  0  0
   59.6390   34.3690   46.4030 C   0  0  0  0  0  0  0  0  0  0  0  0
   59.1420   34.4310   44.9570 C   0  0  0  0  0  0  0  0  0  0  0  0
   57.7560   34.7170   44.9150 O   0  0  0  0  0  0  0  0  0  0  0  0
   57.0270   33.6510   45.4960 C   0  0  0  0  0  0  0  0  0  0  0  0
   57.3520   33.5160   46.9880 C   0  0  0  0  0  0  0  0  0  0  0  0
   59.0940   31.3100   48.3690 C   0  0  0  0  0  0  0  0  0  0  0  0
   57.7380   27.9980   45.8150 C   0  0  0  0  0  0  0  0  0  0  0  0
   56.7190   27.3590   46.1930 O   0  0  0  0  0  0  0  0  0  0  0  0
   57.5750   29.1950   44.9530 C   0  0  0  0  0  0  0  0  0  0  0  0
   58.7110   29.9090   44.5280 C   0  0  0  0  0  0  0  0  0  0  0  0
   58.5760   31.0510   43.7330 C   0  0  0  0  0  0  0  0  0  0  0  0
   57.3070   31.4970   43.3610 C   0  0  0  0  0  0  0  0  0  0  0  0
   56.1700   30.8030   43.7810 C   0  0  0  0  0  0  0  0  0  0  0  0
   56.2960   29.6570   44.5750 C   0  0  0  0  0  0  0  0  0  0  0  0
   55.1460   28.9800   44.9680 O   0  0  0  0  0  0  0  0  0  0  0  0
   58.6559   25.0529   47.1804 H   0  0  0  0  0  0  0  0  0  0  0  0
   57.7242   25.3074   45.6659 H   0  0  0  0  0  0  0  0  0  0  0  0
   59.1614   24.2299   45.6659 H   0  0  0  0  0  0  0  0  0  0  0  0
   60.6143   26.1843   46.1798 H   0  0  0  0  0  0  0  0  0  0  0  0
   59.6987   26.4147   44.6448 H   0  0  0  0  0  0  0  0  0  0  0  0
   60.9112   28.3383   46.8543 H   0  0  0  0  0  0  0  0  0  0  0  0
   59.5291   29.5004   46.9464 H   0  0  0  0  0  0  0  0  0  0  0  0
   60.8637   30.6071   51.2104 H   0  0  0  0  0  0  0  0  0  0  0  0
   61.3474   33.0492   51.0245 H   0  0  0  0  0  0  0  0  0  0  0  0
   60.4023   34.3753   49.1354 H   0  0  0  0  0  0  0  0  0  0  0  0
   59.5777   35.3697   46.8555 H   0  0  0  0  0  0  0  0  0  0  0  0
   60.6835   34.0244   46.4185 H   0  0  0  0  0  0  0  0  0  0  0  0
   59.6897   35.2199   44.4206 H   0  0  0  0  0  0  0  0  0  0  0  0
   59.3157   33.4543   44.4816 H   0  0  0  0  0  0  0  0  0  0  0  0
   55.9506   33.8442   45.3778 H   0  0  0  0  0  0  0  0  0  0  0  0
   57.3072   32.7159   44.9890 H   0  0  0  0  0  0  0  0  0  0  0  0
   56.9648   34.3923   47.5285 H   0  0  0  0  0  0  0  0  0  0  0  0
   56.8823   32.6040   47.3850 H   0  0  0  0  0  0  0  0  0  0  0  0
   58.4255   30.8259   47.6419 H   0  0  0  0  0  0  0  0  0  0  0  0
   59.7133   29.5656   44.8238 H   0  0  0  0  0  0  0  0  0  0  0  0
   59.4704   31.5983   43.4005 H   0  0  0  0  0  0  0  0  0  0  0  0
   57.2021   32.3962   42.7362 H   0  0  0  0  0  0  0  0  0  0  0  0
   55.1715   31.1584   43.4867 H   0  0  0  0  0  0  0  0  0  0  0  0
  1  2  1  0
  2  3  1  0
  3  4  1  0
  4  5  1  0
  5  6  2  0
  5  7  1  0
  7  8  1  0
  8  9  2  0
  9 10  1  0
 10 11  2  0
 11 12  1  0
 12 13  1  0
 13 14  1  0
 14 15  1  0
 15 16  1  0
 16 17  1  0
 17 18  1  0
 12 19  2  0
  3 20  1  0
 20 21  2  0
 20 22  1  0
 22 23  2  0
 23 24  1  0
 24 25  2  0
 25 26  1  0
 26 27  2  0
 27 28  1  0
 19  8  1  0
 27 22  1  0
 18 13  1  0
  1 29  1  0
  1 30  1  0
  1 31  1  0
  2 32  1  0
  2 33  1  0
  4 34  1  0
  4 35  1  0
  9 36  1  0
 10 37  1  0
 11 38  1  0
 14 39  1  0
 14 40  1  0
 15 41  1  0
 15 42  1  0
 17 43  1  0
 17 44  1  0
 18 45  1  0
 18 46  1  0
 19 47  1  0
 23 48  1  0
 24 49  1  0
 25 50  1  0
 26 51  1  0
M  CHG  2   7  -1  28  -1
M  END
>  <UniqueID>  (81) 
75

>  <SMILES>  (81) 
CCN(CC(=O)[N-]c1cccc(N2CCOCC2)c1)C(=O)c1ccccc1[O-]

>  <Energy>  (81) 
63.64447336866116

>  <Genealogy>  (81) 
CCN(CC(=O)[N-]c1cccc(N2CCOCC2)c1)C(=O)c1ccccc1[O-] (protonated)
CCN(CC(=O)[N-]c1cccc(N2CCOCC2)c1)C(=O)c1ccccc1[O-] (3D coordinates assigned)
CCN(CC(=O)[N-]c1cccc(N2CCOCC2)c1)C(=O)c1ccccc1[O-] (nonaromatic ring conformer: 63.64447336866116 kcal/mol)

>  <smiles>  (81) 
CCN(CC(=O)Nc1cccc(N2CCOCC2)c1)C(=O)c1ccccc1O

>  <score_type>  (81) 
oracle

>  <origin>  (81) 
adg

>  <m_score__min__energy>  (81) 
-13.460000000000001

>  <m_primary>  (81) 
energy

$$$$
81:0
     RDKit          3D

 41 45  0  0  0  0  0  0  0  0999 V2000
   59.0760   29.0210   49.1000 H   0  0  0  0  0  0  0  0  0  0  0  0
   59.1060   29.1530   50.1040 O   0  0  0  0  0  0  0  0  0  0  0  0
   58.3280   30.1200   50.7310 C   0  0  0  0  0  0  0  0  0  0  0  0
   57.4000   29.8360   51.6610 N   0  0  0  0  0  0  0  0  0  0  0  0
   56.8760   31.0490   51.9380 C   0  0  0  0  0  0  0  0  0  0  0  0
   55.9530   31.2110   52.7790 O   0  0  0  0  0  0  0  0  0  0  0  0
   57.4090   32.0740   51.2380 N   0  0  0  0  0  0  0  0  0  0  0  0
   58.3510   31.4750   50.4870 C   0  0  0  0  0  0  0  0  0  0  0  0
   59.1640   32.1790   49.4890 C   0  0  0  0  0  0  0  0  0  0  0  0
   60.0563   32.7217   49.8344 H   0  0  0  0  0  0  0  0  0  0  0  0
   58.8790   32.1970   48.1800 C   0  0  0  0  0  0  0  0  0  0  0  0
   58.6940   33.3350   47.3970 C   0  0  0  0  0  0  0  0  0  0  0  0
   58.7125   34.3685   47.7732 H   0  0  0  0  0  0  0  0  0  0  0  0
   58.4880   32.9830   46.1050 N   0  0  0  0  0  0  0  0  0  0  0  0
   58.5410   31.6610   46.0590 N   0  0  0  0  0  0  0  0  0  0  0  0
   58.4580   30.8660   44.9660 C   0  0  0  0  0  0  0  0  0  0  0  0
   58.2400   31.3770   43.7920 N   0  0  0  0  0  0  0  0  0  0  0  0
   57.0030   31.1740   43.0450 C   0  0  0  0  0  0  0  0  0  0  0  0
   57.0617   32.0726   42.4133 H   0  0  0  0  0  0  0  0  0  0  0  0
   55.9240   30.4980   43.8680 C   0  0  0  0  0  0  0  0  0  0  0  0
   56.0987   30.2803   44.9320 H   0  0  0  0  0  0  0  0  0  0  0  0
   54.8656   30.7052   44.0846 H   0  0  0  0  0  0  0  0  0  0  0  0
   56.6710   29.7150   42.7980 C   0  0  0  0  0  0  0  0  0  0  0  0
   57.3861   28.9311   43.0881 H   0  0  0  0  0  0  0  0  0  0  0  0
   56.3771   29.1212   41.9199 H   0  0  0  0  0  0  0  0  0  0  0  0
   58.6210   29.5230   45.1380 N   0  0  0  0  0  0  0  0  0  0  0  0
   58.8560   29.0000   46.3790 C   0  0  0  0  0  0  0  0  0  0  0  0
   59.0590   27.6230   46.5090 O   0  0  0  0  0  0  0  0  0  0  0  0
   58.0310   26.6760   46.5840 C   0  0  0  0  0  0  0  0  0  0  0  0
   58.3390   25.3700   46.9850 C   0  0  0  0  0  0  0  0  0  0  0  0
   59.3750   25.1068   47.2445 H   0  0  0  0  0  0  0  0  0  0  0  0
   57.3340   24.3980   47.0570 C   0  0  0  0  0  0  0  0  0  0  0  0
   57.6450   23.1090   47.4690 O   0  0  0  0  0  0  0  0  0  0  0  0
   56.0200   24.7240   46.7100 C   0  0  0  0  0  0  0  0  0  0  0  0
   55.2299   23.9611   46.7711 H   0  0  0  0  0  0  0  0  0  0  0  0
   55.7090   26.0200   46.2850 C   0  0  0  0  0  0  0  0  0  0  0  0
   54.4060   26.3380   45.9210 O   0  0  0  0  0  0  0  0  0  0  0  0
   56.7110   26.9950   46.2220 C   0  0  0  0  0  0  0  0  0  0  0  0
   56.4647   28.0138   45.8882 H   0  0  0  0  0  0  0  0  0  0  0  0
   58.9380   29.8270   47.4660 N   0  0  0  0  0  0  0  0  0  0  0  0
   58.7690   31.1580   47.2750 C   0  0  0  0  0  0  0  0  0  0  0  0
  1  2  1  0
  2  3  1  0
  3  4  1  0
  4  5  1  0
  5  6  2  0
  5  7  1  0
  7  8  1  0
  8  9  1  0
  9 10  1  0
  9 11  2  0
 11 12  1  0
 12 13  1  0
 12 14  2  0
 14 15  1  0
 15 16  1  0
 16 17  2  0
 17 18  1  0
 18 19  1  0
 18 20  1  0
 20 21  1  0
 20 22  1  0
 20 23  1  0
 23 24  1  0
 23 25  1  0
 16 26  1  0
 26 27  2  0
 27 28  1  0
 28 29  1  0
 29 30  2  0
 30 31  1  0
 30 32  1  0
 32 33  1  0
 32 34  2  0
 34 35  1  0
 34 36  1  0
 36 37  1  0
 36 38  2  0
 38 39  1  0
 27 40  1  0
 40 41  2  0
  8  3  2  0
 41 11  1  0
 41 15  1  0
 23 18  1  0
 38 29  1  0
M  CHG  4   4  -1   7  -1  33  -1  37  -1
M  END
>  <UniqueID>  (82) 
76

>  <SMILES>  (82) 
O=c1[n-]c(O)c(/C=c2/cnn3/c(=N/C4CC4)nc(Oc4cc([O-])cc([O-])c4)nc23)[n-]1

>  <Energy>  (82) 
389.21374173915734

>  <Genealogy>  (82) 
O=c1[n-]c(O)c(C=c2cnn3c(=NC4CC4)nc(Oc4cc([O-])cc([O-])c4)nc23)[n-]1 (protonated)
O=c1[n-]c(O)c(/C=c2/cnn3/c(=N/C4CC4)nc(Oc4cc([O-])cc([O-])c4)nc23)[n-]1 (cis-trans isomerization)
O=c1[n-]c(O)c(/C=c2/cnn3/c(=N/C4CC4)nc(Oc4cc([O-])cc([O-])c4)nc23)[n-]1 (3D coordinates assigned)
O=c1[n-]c(O)c(/C=c2/cnn3/c(=N/C4CC4)nc(Oc4cc([O-])cc([O-])c4)nc23)[n-]1 (nonaromatic ring conformer: 389.21374173915734 kcal/mol)

>  <smiles>  (82) 
O=c1[nH]c(O)c(C=c2cnn3c(=NC4CC4)nc(Oc4cc(O)cc(O)c4)nc23)[nH]1

>  <score_type>  (82) 
oracle

>  <origin>  (82) 
adg

>  <m_score__min__energy>  (82) 
-15.73

>  <m_primary>  (82) 
energy

$$$$
82:0
     RDKit          3D

 48 52  0  0  1  0  0  0  0  0999 V2000
   56.2770   21.5540   43.2550 O   0  0  0  0  0  0  0  0  0  0  0  0
   57.1620   22.1800   43.9300 C   0  0  0  0  0  0  0  0  0  0  0  0
   58.3780   21.6930   44.3010 N   0  0  0  0  0  0  0  0  0  0  0  0
   59.0300   22.6610   45.0080 C   0  0  0  0  0  0  0  0  0  0  0  0
   60.3080   22.5720   45.5720 O   0  0  0  0  0  0  0  0  0  0  0  0
   58.1950   23.7700   45.0730 C   0  0  0  0  0  0  0  0  0  0  0  0
   58.4500   25.0560   45.7240 C   0  0  0  0  0  0  0  0  0  0  0  0
   58.6840   29.6040   44.7190 C   0  0  0  0  0  0  0  0  0  0  0  0
   59.1530   30.0840   45.9470 C   0  0  0  0  0  0  0  0  0  0  0  0
   58.0150   27.6340   43.4550 N   0  0  0  0  0  0  0  0  0  0  0  0
   58.4520   28.2980   44.5140 N   0  0  0  0  0  0  0  0  0  0  0  0
   58.3710   26.1990   45.0580 C   0  0  0  0  0  0  0  0  0  0  0  0
   58.4880   30.4790   43.8060 N   0  0  0  0  0  0  0  0  0  0  0  0
   57.1410   30.9540   43.4980 C   0  0  0  0  0  0  0  0  0  0  0  0
   56.2860   30.0580   42.6550 C   0  0  0  0  0  0  0  0  0  0  0  0
   55.9690   30.2950   44.1020 C   0  0  0  0  0  0  0  0  0  0  0  0
   57.9510   26.3330   43.7500 C   0  0  0  0  0  0  0  0  0  0  0  0
   59.3760   29.1710   46.9570 C   0  0  0  0  0  0  0  0  0  0  0  0
   59.8570   29.6620   48.2150 N   0  0  0  0  0  0  0  0  0  0  0  0
   59.2380   30.8500   48.7410 C   0  0  0  0  0  0  0  0  0  0  0  0
   59.6690   32.0900   48.0620 C   0  0  0  0  0  0  0  0  0  0  0  0
   58.7190   33.0280   47.7140 C   0  0  0  0  0  0  0  0  0  0  0  0
   59.0340   34.2110   47.0770 C   0  0  0  0  0  0  0  0  0  0  0  0
   60.3730   34.4640   46.7740 C   0  0  0  0  0  0  0  0  0  0  0  0
   61.2890   33.5190   47.1290 C   0  0  0  0  0  0  0  0  0  0  0  0
   62.9810   33.8400   46.7450 Cl  0  0  0  0  0  0  0  0  0  0  0  0
   61.0090   32.3380   47.7610 C   0  0  0  0  0  0  0  0  0  0  0  0
   59.1400   27.8640   46.7390 N   0  0  0  0  0  0  0  0  0  0  0  0
   58.6900   27.4590   45.5400 C   0  0  0  0  0  0  0  0  0  0  0  0
   57.0680   23.4510   44.4110 N   0  0  0  0  0  0  0  0  0  0  0  0
   58.7660   20.7280   44.0850 H   0  0  0  0  0  0  0  0  0  0  0  0
   61.0760   22.2590   44.9700 H   0  0  0  0  0  0  0  0  0  0  0  0
   58.7136   25.0741   46.7918 H   0  0  0  0  0  0  0  0  0  0  0  0
   59.3383   31.1571   46.1023 H   0  0  0  0  0  0  0  0  0  0  0  0
   57.4797   31.9996   43.4538 H   0  0  0  0  0  0  0  0  0  0  0  0
   55.6431   30.4845   41.8709 H   0  0  0  0  0  0  0  0  0  0  0  0
   56.4601   29.1733   42.0250 H   0  0  0  0  0  0  0  0  0  0  0  0
   55.0872   30.8909   44.3800 H   0  0  0  0  0  0  0  0  0  0  0  0
   55.8093   29.6472   44.9765 H   0  0  0  0  0  0  0  0  0  0  0  0
   57.6260   25.5238   43.0795 H   0  0  0  0  0  0  0  0  0  0  0  0
   60.6090   29.2210   48.7550 H   0  0  0  0  0  0  0  0  0  0  0  0
   58.1480   30.7530   48.6296 H   0  0  0  0  0  0  0  0  0  0  0  0
   59.5441   30.9349   49.7941 H   0  0  0  0  0  0  0  0  0  0  0  0
   57.6652   32.8242   47.9546 H   0  0  0  0  0  0  0  0  0  0  0  0
   58.2497   34.9363   46.8146 H   0  0  0  0  0  0  0  0  0  0  0  0
   60.6777   35.3917   46.2675 H   0  0  0  0  0  0  0  0  0  0  0  0
   61.8010   31.6196   48.0191 H   0  0  0  0  0  0  0  0  0  0  0  0
   56.2110   24.0600   44.2580 H   0  0  0  0  0  0  0  0  0  0  0  0
  1  2  2  0
  2  3  1  0
  3  4  1  0
  4  5  1  0
  4  6  2  0
  6  7  1  0
  7  8  2  0
  8  9  1  0
  9 10  2  0
 10 11  1  0
 11 12  1  0
 12 13  2  0
 13 14  1  0
 14 15  1  0
 15 16  1  0
 12 17  1  0
 17 18  2  0
 18 19  1  0
 19 20  1  0
 20 21  1  0
 21 22  2  0
 22 23  1  0
 23 24  2  0
 24 25  1  0
 25 26  1  0
 25 27  2  0
 18 28  1  0
 28 29  2  0
  6 30  1  0
 30  2  1  0
 29  8  1  0
 29 11  1  0
 16 14  1  0
 27 21  1  0
  3 31  1  0
  5 32  1  0
  7 33  1  0
  9 34  1  0
 14 35  1  0
 15 36  1  0
 15 37  1  0
 16 38  1  0
 16 39  1  0
 17 40  1  0
 19 41  1  0
 20 42  1  0
 20 43  1  0
 22 44  1  0
 23 45  1  0
 24 46  1  0
 27 47  1  0
 30 48  1  0
M  END
>  <smiles>  (83) 
O=c1[nH]c(O)c(C=c2cnn3c(=NC4CC4)cc(NCc4cccc(Cl)c4)nc23)[nH]1

>  <score_type>  (83) 
oracle

>  <origin>  (83) 
adg

>  <m_score__min__energy>  (83) 
-10.06

>  <m_primary>  (83) 
energy

$$$$
83:0
     RDKit          3D

 40 42  0  0  0  0  0  0  0  0999 V2000
   55.8830   29.6390   52.3700 O   0  0  0  0  0  0  0  0  0  0  0  0
   55.5860   30.7330   51.8160 C   0  0  0  0  0  0  0  0  0  0  0  0
   56.6760   31.5990   51.2650 C   0  0  0  0  0  0  0  0  0  0  0  0
   58.2040   30.6310   51.0270 S   0  0  0  0  0  0  0  0  0  0  0  0
   58.5280   31.2710   49.3860 C   0  0  0  0  0  0  0  0  0  0  0  0
   58.6990   30.4140   48.3460 N   0  0  0  0  0  0  0  0  0  0  0  0
   58.9560   30.8740   47.0920 C   0  0  0  0  0  0  0  0  0  0  0  0
   59.1980   29.8960   45.9830 C   0  0  0  0  0  0  0  0  0  0  0  0
   58.1510   30.0570   44.9270 C   0  0  0  0  0  0  0  0  0  0  0  0
   58.1680   30.9950   43.9030 C   0  0  0  0  0  0  0  0  0  0  0  0
   57.0110   30.9690   43.1160 C   0  0  0  0  0  0  0  0  0  0  0  0
   56.0790   30.0230   43.5240 C   0  0  0  0  0  0  0  0  0  0  0  0
   56.6930   29.2220   44.8700 S   0  0  0  0  0  0  0  0  0  0  0  0
   59.0650   32.2520   46.8720 C   0  0  0  0  0  0  0  0  0  0  0  0
   58.8820   33.1160   47.9530 C   0  0  0  0  0  0  0  0  0  0  0  0
   58.9670   34.3610   47.7900 O   0  0  0  0  0  0  0  0  0  0  0  0
   58.6160   32.6120   49.1840 N   0  0  0  0  0  0  0  0  0  0  0  0
   54.2160   31.1520   51.7280 N   0  0  0  0  0  0  0  0  0  0  0  0
   53.1390   30.3300   52.1980 C   0  0  0  0  0  0  0  0  0  0  0  0
   53.4430   29.0630   52.7160 C   0  0  0  0  0  0  0  0  0  0  0  0
   52.4380   28.2590   53.2570 C   0  0  0  0  0  0  0  0  0  0  0  0
   51.1200   28.7110   53.2810 C   0  0  0  0  0  0  0  0  0  0  0  0
   50.7970   29.9600   52.7460 C   0  0  0  0  0  0  0  0  0  0  0  0
   51.7920   30.7770   52.1800 C   0  0  0  0  0  0  0  0  0  0  0  0
   51.3900   32.0480   51.5350 C   0  0  0  0  0  0  0  0  0  0  0  0
   52.0040   32.4800   50.5240 O   0  0  0  0  0  0  0  0  0  0  0  0
   50.2950   32.7600   52.0130 O   0  0  0  0  0  0  0  0  0  0  0  0
   56.3553   32.0126   50.2975 H   0  0  0  0  0  0  0  0  0  0  0  0
   56.8780   32.4124   51.9774 H   0  0  0  0  0  0  0  0  0  0  0  0
   60.1900   30.0795   45.5445 H   0  0  0  0  0  0  0  0  0  0  0  0
   59.1535   28.8731   46.3851 H   0  0  0  0  0  0  0  0  0  0  0  0
   59.0048   31.6873   43.7284 H   0  0  0  0  0  0  0  0  0  0  0  0
   56.8542   31.6353   42.2549 H   0  0  0  0  0  0  0  0  0  0  0  0
   55.1060   29.8306   43.0483 H   0  0  0  0  0  0  0  0  0  0  0  0
   59.2898   32.6453   45.8696 H   0  0  0  0  0  0  0  0  0  0  0  0
   53.9830   31.9660   51.1150 H   0  0  0  0  0  0  0  0  0  0  0  0
   54.4811   28.6998   52.6960 H   0  0  0  0  0  0  0  0  0  0  0  0
   52.6867   27.2680   53.6646 H   0  0  0  0  0  0  0  0  0  0  0  0
   50.3323   28.0827   53.7223 H   0  0  0  0  0  0  0  0  0  0  0  0
   49.7538   30.3082   52.7675 H   0  0  0  0  0  0  0  0  0  0  0  0
  1  2  2  0
  2  3  1  0
  3  4  1  0
  4  5  1  0
  5  6  2  0
  6  7  1  0
  7  8  1  0
  8  9  1  0
  9 10  2  0
 10 11  1  0
 11 12  2  0
 12 13  1  0
  7 14  2  0
 14 15  1  0
 15 16  2  0
 15 17  1  0
  2 18  1  0
 18 19  1  0
 19 20  2  0
 20 21  1  0
 21 22  2  0
 22 23  1  0
 23 24  2  0
 24 25  1  0
 25 26  2  0
 25 27  1  0
 17  5  1  0
 24 19  1  0
 13  9  1  0
  3 28  1  0
  3 29  1  0
  8 30  1  0
  8 31  1  0
 10 32  1  0
 11 33  1  0
 12 34  1  0
 14 35  1  0
 18 36  1  0
 20 37  1  0
 21 38  1  0
 22 39  1  0
 23 40  1  0
M  CHG  2  17  -1  27  -1
M  END
>  <UniqueID>  (84) 
77

>  <SMILES>  (84) 
O=C(CSc1nc(Cc2cccs2)cc(=O)[n-]1)Nc1ccccc1C(=O)[O-]

>  <Energy>  (84) 
69.8431183270767

>  <Genealogy>  (84) 
O=C(CSc1nc(Cc2cccs2)cc(=O)[n-]1)Nc1ccccc1C(=O)[O-] (protonated)
O=C(CSc1nc(Cc2cccs2)cc(=O)[n-]1)Nc1ccccc1C(=O)[O-] (3D coordinates assigned)
O=C(CSc1nc(Cc2cccs2)cc(=O)[n-]1)Nc1ccccc1C(=O)[O-] (optimized conformer: 69.8431183270767 kcal/mol)

>  <smiles>  (84) 
O=C(CSc1nc(Cc2cccs2)cc(=O)[nH]1)Nc1ccccc1C(=O)O

>  <score_type>  (84) 
oracle

>  <origin>  (84) 
adg

>  <m_score__min__energy>  (84) 
-12.83

>  <m_primary>  (84) 
energy

$$$$
